
     RDKit          3D

 19 20  0  0  0  0  0  0  0  0999 V2000
    1.1330   -0.5210    1.2901 C   0  0  0  0  0  0  0  0  0  0  0  0
    0.9636    0.1282   -0.0854 C   0  0  0  0  0  0  0  0  0  0  0  0
    2.2472    0.2206   -0.8472 C   0  0  0  0  0  0  0  0  0  0  0  0
    2.6036    1.3937   -1.0752 O   0  0  0  0  0  0  0  0  0  0  0  0
   -0.0994   -0.5320   -0.9084 C   0  0  0  0  0  0  0  0  0  0  0  0
   -1.3649   -0.8558   -0.1392 C   0  0  0  0  0  0  0  0  0  0  0  0
   -1.5884    0.6409   -0.0882 C   0  0  0  0  0  0  0  0  0  0  0  0
   -2.0228    1.1459    1.1223 O   0  0  0  0  0  0  0  0  0  0  0  0
   -0.1594    0.9430   -0.4457 C   0  0  0  0  0  0  0  0  0  0  0  0
    0.2482   -0.2538    1.9167 H   0  0  0  0  0  0  0  0  0  0  0  0
    1.4453   -1.5360    1.3174 H   0  0  0  0  0  0  0  0  0  0  0  0
    1.9730    0.1309    1.7434 H   0  0  0  0  0  0  0  0  0  0  0  0
    2.8151   -0.6149   -1.1811 H   0  0  0  0  0  0  0  0  0  0  0  0
   -0.0301   -0.7253   -1.9776 H   0  0  0  0  0  0  0  0  0  0  0  0
   -1.0873   -1.3250    0.8313 H   0  0  0  0  0  0  0  0  0  0  0  0
   -2.0958   -1.4317   -0.7274 H   0  0  0  0  0  0  0  0  0  0  0  0
   -2.2471    0.9300   -0.9434 H   0  0  0  0  0  0  0  0  0  0  0  0
   -2.7501    0.5705    1.4640 H   0  0  0  0  0  0  0  0  0  0  0  0
    0.0161    1.6917   -1.2664 H   0  0  0  0  0  0  0  0  0  0  0  0
  1  2  1  0
  2  3  1  0
  3  4  2  0
  2  5  1  0
  5  6  1  0
  6  7  1  0
  7  8  1  0
  7  9  1  0
  9  2  1  0
  9  5  1  0
  1 10  1  0
  1 11  1  0
  1 12  1  0
  3 13  1  0
  5 14  1  0
  6 15  1  0
  6 16  1  0
  7 17  1  0
  8 18  1  0
  9 19  1  0
M  END
