
     RDKit          3D

 21 22  0  0  0  0  0  0  0  0999 V2000
   -1.7636    0.0234   -0.5659 C   0  0  0  0  0  0  0  0  0  0  0  0
   -0.7534   -0.2808    0.5247 C   0  0  0  0  0  0  0  0  0  0  0  0
   -1.3498   -1.0322    1.5381 O   0  0  0  0  0  0  0  0  0  0  0  0
   -0.2167    0.9904    1.0940 C   0  0  0  0  0  0  0  0  0  0  0  0
    0.3383    1.7825   -0.0378 C   0  0  0  0  0  0  0  0  0  0  0  0
    1.0351    1.1073   -0.9429 C   0  0  0  0  0  0  0  0  0  0  0  0
    1.2984   -0.3526   -0.9133 C   0  0  0  0  0  0  0  0  0  0  0  0
    1.7140   -1.0555    0.3143 C   0  0  0  0  0  0  0  0  0  0  0  0
    0.3184   -1.1254   -0.1284 C   0  0  0  0  0  0  0  0  0  0  0  0
   -1.4009    0.8342   -1.2104 H   0  0  0  0  0  0  0  0  0  0  0  0
   -2.7375    0.2980   -0.1190 H   0  0  0  0  0  0  0  0  0  0  0  0
   -1.8528   -0.8942   -1.2132 H   0  0  0  0  0  0  0  0  0  0  0  0
   -1.6687   -1.8940    1.2030 H   0  0  0  0  0  0  0  0  0  0  0  0
   -1.0638    1.5698    1.5128 H   0  0  0  0  0  0  0  0  0  0  0  0
    0.5841    0.8075    1.8221 H   0  0  0  0  0  0  0  0  0  0  0  0
    0.1831    2.8620   -0.1231 H   0  0  0  0  0  0  0  0  0  0  0  0
    1.4358    1.7141   -1.7703 H   0  0  0  0  0  0  0  0  0  0  0  0
    1.5929   -0.7932   -1.8818 H   0  0  0  0  0  0  0  0  0  0  0  0
    2.0365   -0.4924    1.2234 H   0  0  0  0  0  0  0  0  0  0  0  0
    2.3460   -1.9808    0.1841 H   0  0  0  0  0  0  0  0  0  0  0  0
   -0.0754   -2.0884   -0.5104 H   0  0  0  0  0  0  0  0  0  0  0  0
  1  2  1  0
  2  3  1  0
  2  4  1  0
  4  5  1  0
  5  6  2  0
  6  7  1  0
  7  8  1  0
  8  9  1  0
  9  2  1  0
  9  7  1  0
  1 10  1  0
  1 11  1  0
  1 12  1  0
  3 13  1  0
  4 14  1  0
  4 15  1  0
  5 16  1  0
  6 17  1  0
  7 18  1  0
  8 19  1  0
  8 20  1  0
  9 21  1  0
M  END
