
     RDKit          3D

 21 21  0  0  0  0  0  0  0  0999 V2000
    2.3079   -0.3040   -0.4959 C   0  0  0  0  0  0  0  0  0  0  0  0
    1.0094    0.1664    0.0327 C   0  0  0  0  0  0  0  0  0  0  0  0
    1.1902    1.2223    0.9465 O   0  0  0  0  0  0  0  0  0  0  0  0
    0.2554   -0.9169    0.8178 C   0  0  0  0  0  0  0  0  0  0  0  0
   -1.0645   -0.1634    1.0330 C   0  0  0  0  0  0  0  0  0  0  0  0
   -2.0262   -0.9428    1.6116 O   0  0  0  0  0  0  0  0  0  0  0  0
   -1.3765    0.2200   -0.4037 C   0  0  0  0  0  0  0  0  0  0  0  0
   -2.2422    1.2797   -0.5008 O   0  0  0  0  0  0  0  0  0  0  0  0
   -0.0106    0.5129   -1.0173 C   0  0  0  0  0  0  0  0  0  0  0  0
    3.1075   -0.0260    0.2494 H   0  0  0  0  0  0  0  0  0  0  0  0
    2.5328    0.2265   -1.4599 H   0  0  0  0  0  0  0  0  0  0  0  0
    2.2888   -1.3938   -0.6073 H   0  0  0  0  0  0  0  0  0  0  0  0
    0.5538    1.9382    0.7475 H   0  0  0  0  0  0  0  0  0  0  0  0
    0.0725   -1.7301    0.1153 H   0  0  0  0  0  0  0  0  0  0  0  0
    0.7466   -1.1763    1.7490 H   0  0  0  0  0  0  0  0  0  0  0  0
   -0.8684    0.7619    1.6209 H   0  0  0  0  0  0  0  0  0  0  0  0
   -2.2295   -1.7170    1.0657 H   0  0  0  0  0  0  0  0  0  0  0  0
   -1.8487   -0.6781   -0.8746 H   0  0  0  0  0  0  0  0  0  0  0  0
   -2.5736    1.3126   -1.4343 H   0  0  0  0  0  0  0  0  0  0  0  0
    0.1143   -0.1588   -1.8836 H   0  0  0  0  0  0  0  0  0  0  0  0
    0.0609    1.5667   -1.3119 H   0  0  0  0  0  0  0  0  0  0  0  0
  1  2  1  0
  2  3  1  0
  2  4  1  0
  4  5  1  0
  5  6  1  0
  5  7  1  0
  7  8  1  0
  7  9  1  0
  9  2  1  0
  1 10  1  0
  1 11  1  0
  1 12  1  0
  3 13  1  0
  4 14  1  0
  4 15  1  0
  5 16  1  0
  6 17  1  0
  7 18  1  0
  8 19  1  0
  9 20  1  0
  9 21  1  0
M  END
