
     RDKit          3D

 21 21  0  0  0  0  0  0  0  0999 V2000
    0.9970    1.6563    0.3409 C   0  0  0  0  0  0  0  0  0  0  0  0
    0.3655    0.3581   -0.0259 C   0  0  0  0  0  0  0  0  0  0  0  0
    1.2424   -0.5860   -0.5717 O   0  0  0  0  0  0  0  0  0  0  0  0
    2.3435   -1.1191    0.0131 C   0  0  0  0  0  0  0  0  0  0  0  0
    2.6374   -0.7466    1.1717 O   0  0  0  0  0  0  0  0  0  0  0  0
   -0.6742    0.5964   -1.1257 C   0  0  0  0  0  0  0  0  0  0  0  0
   -1.6960   -0.4903   -0.9104 C   0  0  0  0  0  0  0  0  0  0  0  0
   -1.3695   -1.1679    0.3881 C   0  0  0  0  0  0  0  0  0  0  0  0
   -0.4805   -0.1639    1.0910 C   0  0  0  0  0  0  0  0  0  0  0  0
    1.8892    1.8988   -0.2828 H   0  0  0  0  0  0  0  0  0  0  0  0
    0.2760    2.5124    0.2572 H   0  0  0  0  0  0  0  0  0  0  0  0
    1.3378    1.6528    1.3999 H   0  0  0  0  0  0  0  0  0  0  0  0
    2.9175   -1.8420   -0.5486 H   0  0  0  0  0  0  0  0  0  0  0  0
   -1.0929    1.6092   -1.0716 H   0  0  0  0  0  0  0  0  0  0  0  0
   -0.2392    0.4586   -2.1335 H   0  0  0  0  0  0  0  0  0  0  0  0
   -2.6936    0.0046   -0.8854 H   0  0  0  0  0  0  0  0  0  0  0  0
   -1.6669   -1.2665   -1.7109 H   0  0  0  0  0  0  0  0  0  0  0  0
   -2.2501   -1.3210    1.0307 H   0  0  0  0  0  0  0  0  0  0  0  0
   -0.7977   -2.1016    0.2015 H   0  0  0  0  0  0  0  0  0  0  0  0
   -1.1149    0.6645    1.4531 H   0  0  0  0  0  0  0  0  0  0  0  0
    0.0695   -0.6067    1.9192 H   0  0  0  0  0  0  0  0  0  0  0  0
  1  2  1  0
  2  3  1  0
  3  4  1  0
  4  5  2  0
  2  6  1  0
  6  7  1  0
  7  8  1  0
  8  9  1  0
  9  2  1  0
  1 10  1  0
  1 11  1  0
  1 12  1  0
  4 13  1  0
  6 14  1  0
  6 15  1  0
  7 16  1  0
  7 17  1  0
  8 18  1  0
  8 19  1  0
  9 20  1  0
  9 21  1  0
M  END
