
     RDKit          3D

 21 21  0  0  0  0  0  0  0  0999 V2000
   -1.8652    0.3678   -0.7134 C   0  0  0  0  0  0  0  0  0  0  0  0
   -0.5997   -0.1924   -0.0600 C   0  0  0  0  0  0  0  0  0  0  0  0
   -0.9889   -0.6644    1.3179 C   0  0  0  0  0  0  0  0  0  0  0  0
   -0.1699   -1.3209   -0.7731 O   0  0  0  0  0  0  0  0  0  0  0  0
    1.1450   -1.5595   -0.3485 C   0  0  0  0  0  0  0  0  0  0  0  0
    1.9593   -0.6950   -1.0486 O   0  0  0  0  0  0  0  0  0  0  0  0
    1.6005    0.6225   -0.9597 C   0  0  0  0  0  0  0  0  0  0  0  0
    0.4495    0.8931   -0.0311 C   0  0  0  0  0  0  0  0  0  0  0  0
    0.8847    1.1238    1.2802 O   0  0  0  0  0  0  0  0  0  0  0  0
   -2.7634   -0.1463   -0.3660 H   0  0  0  0  0  0  0  0  0  0  0  0
   -1.8739    1.4575   -0.4170 H   0  0  0  0  0  0  0  0  0  0  0  0
   -1.7209    0.3685   -1.8064 H   0  0  0  0  0  0  0  0  0  0  0  0
   -0.4006   -0.1636    2.1235 H   0  0  0  0  0  0  0  0  0  0  0  0
   -0.8430   -1.7664    1.4506 H   0  0  0  0  0  0  0  0  0  0  0  0
   -2.0744   -0.4953    1.5376 H   0  0  0  0  0  0  0  0  0  0  0  0
    1.2723   -1.3422    0.7269 H   0  0  0  0  0  0  0  0  0  0  0  0
    1.4459   -2.5847   -0.5664 H   0  0  0  0  0  0  0  0  0  0  0  0
    2.4949    1.1852   -0.5783 H   0  0  0  0  0  0  0  0  0  0  0  0
    1.3723    1.0109   -1.9876 H   0  0  0  0  0  0  0  0  0  0  0  0
    0.0016    1.8708   -0.3803 H   0  0  0  0  0  0  0  0  0  0  0  0
    0.6741    2.0308    1.5999 H   0  0  0  0  0  0  0  0  0  0  0  0
  1  2  1  0
  2  3  1  0
  2  4  1  0
  4  5  1  0
  5  6  1  0
  6  7  1  0
  7  8  1  0
  8  9  1  0
  8  2  1  0
  1 10  1  0
  1 11  1  0
  1 12  1  0
  3 13  1  0
  3 14  1  0
  3 15  1  0
  5 16  1  0
  5 17  1  0
  7 18  1  0
  7 19  1  0
  8 20  1  0
  9 21  1  0
M  END
