
     RDKit          3D

 21 22  0  0  0  0  0  0  0  0999 V2000
    1.9134    0.4394    0.7164 C   0  0  0  0  0  0  0  0  0  0  0  0
    0.8342   -0.1092   -0.1435 C   0  0  0  0  0  0  0  0  0  0  0  0
    1.2472   -0.4235   -1.4261 O   0  0  0  0  0  0  0  0  0  0  0  0
   -0.0774   -1.1291    0.4802 C   0  0  0  0  0  0  0  0  0  0  0  0
   -1.0527   -1.3910   -0.6394 C   0  0  0  0  0  0  0  0  0  0  0  0
   -1.3056    0.0666   -1.0836 C   0  0  0  0  0  0  0  0  0  0  0  0
   -0.4232    0.7727   -0.1004 C   0  0  0  0  0  0  0  0  0  0  0  0
   -0.2815    2.0838   -0.1060 O   0  0  0  0  0  0  0  0  0  0  0  0
   -0.7599    0.0412    1.1830 C   0  0  0  0  0  0  0  0  0  0  0  0
    1.5798    1.0284    1.5800 H   0  0  0  0  0  0  0  0  0  0  0  0
    2.5366    1.1183    0.0920 H   0  0  0  0  0  0  0  0  0  0  0  0
    2.6109   -0.3324    1.1061 H   0  0  0  0  0  0  0  0  0  0  0  0
    1.9573    0.1863   -1.7020 H   0  0  0  0  0  0  0  0  0  0  0  0
    0.3068   -1.9206    1.0595 H   0  0  0  0  0  0  0  0  0  0  0  0
   -0.5934   -1.9173   -1.4945 H   0  0  0  0  0  0  0  0  0  0  0  0
   -1.9869   -1.8541   -0.2985 H   0  0  0  0  0  0  0  0  0  0  0  0
   -2.3639    0.3295   -0.9110 H   0  0  0  0  0  0  0  0  0  0  0  0
   -1.0217    0.2152   -2.1261 H   0  0  0  0  0  0  0  0  0  0  0  0
   -0.9826    2.5408    0.4114 H   0  0  0  0  0  0  0  0  0  0  0  0
   -1.8475   -0.1396    1.3116 H   0  0  0  0  0  0  0  0  0  0  0  0
   -0.2900    0.3946    2.0908 H   0  0  0  0  0  0  0  0  0  0  0  0
  1  2  1  0
  2  3  1  0
  2  4  1  0
  4  5  1  0
  5  6  1  0
  6  7  1  0
  7  8  1  0
  7  9  1  0
  7  2  1  0
  9  4  1  0
  1 10  1  0
  1 11  1  0
  1 12  1  0
  3 13  1  0
  4 14  1  0
  5 15  1  0
  5 16  1  0
  6 17  1  0
  6 18  1  0
  8 19  1  0
  9 20  1  0
  9 21  1  0
M  END
