
     RDKit          3D

 21 22  0  0  0  0  0  0  0  0999 V2000
   -2.1349    0.5838   -0.8172 C   0  0  0  0  0  0  0  0  0  0  0  0
   -0.8917    0.0857   -0.0675 C   0  0  0  0  0  0  0  0  0  0  0  0
   -1.2240   -0.7043    1.1575 C   0  0  0  0  0  0  0  0  0  0  0  0
    0.2416   -0.2812   -0.9386 C   0  0  0  0  0  0  0  0  0  0  0  0
    1.3708   -1.1379   -0.4974 C   0  0  0  0  0  0  0  0  0  0  0  0
    2.3197   -0.1347    0.0972 C   0  0  0  0  0  0  0  0  0  0  0  0
    3.5086   -0.2162   -0.0195 O   0  0  0  0  0  0  0  0  0  0  0  0
    1.4493    0.8566    0.7823 C   0  0  0  0  0  0  0  0  0  0  0  0
    0.2738    0.9903   -0.1329 C   0  0  0  0  0  0  0  0  0  0  0  0
   -1.9849    1.5645   -1.2664 H   0  0  0  0  0  0  0  0  0  0  0  0
   -2.3620   -0.1977   -1.5831 H   0  0  0  0  0  0  0  0  0  0  0  0
   -2.9943    0.6889   -0.1022 H   0  0  0  0  0  0  0  0  0  0  0  0
   -0.4570   -1.3960    1.4923 H   0  0  0  0  0  0  0  0  0  0  0  0
   -2.1366   -1.3212    0.9289 H   0  0  0  0  0  0  0  0  0  0  0  0
   -1.5148   -0.0796    2.0298 H   0  0  0  0  0  0  0  0  0  0  0  0
    0.1982   -0.0905   -2.0426 H   0  0  0  0  0  0  0  0  0  0  0  0
    1.1360   -1.8548    0.3032 H   0  0  0  0  0  0  0  0  0  0  0  0
    1.8281   -1.6975   -1.3203 H   0  0  0  0  0  0  0  0  0  0  0  0
    1.1928    0.5686    1.8154 H   0  0  0  0  0  0  0  0  0  0  0  0
    2.0173    1.8053    0.8258 H   0  0  0  0  0  0  0  0  0  0  0  0
    0.1640    1.9679   -0.6446 H   0  0  0  0  0  0  0  0  0  0  0  0
  1  2  1  0
  2  3  1  0
  2  4  1  0
  4  5  1  0
  5  6  1  0
  6  7  2  0
  6  8  1  0
  8  9  1  0
  9  2  1  0
  9  4  1  0
  1 10  1  0
  1 11  1  0
  1 12  1  0
  3 13  1  0
  3 14  1  0
  3 15  1  0
  4 16  1  0
  5 17  1  0
  5 18  1  0
  8 19  1  0
  8 20  1  0
  9 21  1  0
M  END
