
     RDKit          3D

 23 25  0  0  0  0  0  0  0  0999 V2000
   -1.8256    0.0164   -0.7775 C   0  0  0  0  0  0  0  0  0  0  0  0
   -0.6734   -0.1699    0.2207 C   0  0  0  0  0  0  0  0  0  0  0  0
   -1.1195    0.2946    1.5734 C   0  0  0  0  0  0  0  0  0  0  0  0
   -0.1225   -1.5432    0.1147 C   0  0  0  0  0  0  0  0  0  0  0  0
    1.2823   -1.8909    0.3500 C   0  0  0  0  0  0  0  0  0  0  0  0
    1.0033   -0.9459   -0.7868 C   0  0  0  0  0  0  0  0  0  0  0  0
    0.5727    0.4001   -0.3272 C   0  0  0  0  0  0  0  0  0  0  0  0
    1.4528    1.3442    0.3136 C   0  0  0  0  0  0  0  0  0  0  0  0
    0.7244    1.6416   -1.0317 C   0  0  0  0  0  0  0  0  0  0  0  0
   -1.4145    0.1583   -1.7982 H   0  0  0  0  0  0  0  0  0  0  0  0
   -2.3576   -0.9658   -0.7882 H   0  0  0  0  0  0  0  0  0  0  0  0
   -2.4742    0.8443   -0.4579 H   0  0  0  0  0  0  0  0  0  0  0  0
   -0.8012   -0.3751    2.4015 H   0  0  0  0  0  0  0  0  0  0  0  0
   -0.7342    1.3141    1.7863 H   0  0  0  0  0  0  0  0  0  0  0  0
   -2.2316    0.3482    1.6440 H   0  0  0  0  0  0  0  0  0  0  0  0
   -0.7597   -2.3142   -0.3420 H   0  0  0  0  0  0  0  0  0  0  0  0
    1.8910   -1.4106    1.1659 H   0  0  0  0  0  0  0  0  0  0  0  0
    1.6326   -2.8737    0.0414 H   0  0  0  0  0  0  0  0  0  0  0  0
    0.9531   -1.2778   -1.8165 H   0  0  0  0  0  0  0  0  0  0  0  0
    2.5747    1.2747    0.2052 H   0  0  0  0  0  0  0  0  0  0  0  0
    1.1786    1.9943    1.1671 H   0  0  0  0  0  0  0  0  0  0  0  0
   -0.1052    2.3998   -0.9342 H   0  0  0  0  0  0  0  0  0  0  0  0
    1.3538    1.7365   -1.9235 H   0  0  0  0  0  0  0  0  0  0  0  0
  1  2  1  0
  2  3  1  0
  2  4  1  0
  4  5  1  0
  5  6  1  0
  6  7  1  0
  7  8  1  0
  8  9  1  0
  7  2  1  0
  6  4  1  0
  9  7  1  0
  1 10  1  0
  1 11  1  0
  1 12  1  0
  3 13  1  0
  3 14  1  0
  3 15  1  0
  4 16  1  0
  5 17  1  0
  5 18  1  0
  6 19  1  0
  8 20  1  0
  8 21  1  0
  9 22  1  0
  9 23  1  0
M  END
