
     RDKit          3D

 23 24  0  0  0  0  0  0  0  0999 V2000
    1.8152    1.3944   -0.0186 C   0  0  0  0  0  0  0  0  0  0  0  0
    0.8785    0.1953    0.0923 C   0  0  0  0  0  0  0  0  0  0  0  0
    1.8011   -1.0305    0.1518 C   0  0  0  0  0  0  0  0  0  0  0  0
    0.0164    0.1556   -1.1101 C   0  0  0  0  0  0  0  0  0  0  0  0
   -1.3579   -0.3555   -0.9259 C   0  0  0  0  0  0  0  0  0  0  0  0
   -2.2993    0.6273   -0.2301 C   0  0  0  0  0  0  0  0  0  0  0  0
   -1.8346   -0.6010    0.4166 C   0  0  0  0  0  0  0  0  0  0  0  0
   -0.7699   -0.6285    1.4673 C   0  0  0  0  0  0  0  0  0  0  0  0
    0.1771    0.3447    1.2737 O   0  0  0  0  0  0  0  0  0  0  0  0
    1.8455    1.9831    0.9207 H   0  0  0  0  0  0  0  0  0  0  0  0
    2.8394    1.1153   -0.2645 H   0  0  0  0  0  0  0  0  0  0  0  0
    1.4676    2.0780   -0.8405 H   0  0  0  0  0  0  0  0  0  0  0  0
    1.2571   -1.9665    0.0518 H   0  0  0  0  0  0  0  0  0  0  0  0
    2.3967   -0.9468    1.0936 H   0  0  0  0  0  0  0  0  0  0  0  0
    2.5617   -0.8978   -0.6704 H   0  0  0  0  0  0  0  0  0  0  0  0
    0.4933   -0.4359   -1.9449 H   0  0  0  0  0  0  0  0  0  0  0  0
   -0.0602    1.1991   -1.5367 H   0  0  0  0  0  0  0  0  0  0  0  0
   -1.8073   -0.9843   -1.7487 H   0  0  0  0  0  0  0  0  0  0  0  0
   -3.3258    0.6505   -0.6515 H   0  0  0  0  0  0  0  0  0  0  0  0
   -1.9222    1.6322    0.0258 H   0  0  0  0  0  0  0  0  0  0  0  0
   -2.6169   -1.3993    0.5653 H   0  0  0  0  0  0  0  0  0  0  0  0
   -0.3102   -1.6596    1.4350 H   0  0  0  0  0  0  0  0  0  0  0  0
   -1.2454   -0.4700    2.4479 H   0  0  0  0  0  0  0  0  0  0  0  0
  1  2  1  0
  2  3  1  0
  2  4  1  0
  4  5  1  0
  5  6  1  0
  6  7  1  0
  7  8  1  0
  8  9  1  0
  9  2  1  0
  7  5  1  0
  1 10  1  0
  1 11  1  0
  1 12  1  0
  3 13  1  0
  3 14  1  0
  3 15  1  0
  4 16  1  0
  4 17  1  0
  5 18  1  0
  6 19  1  0
  6 20  1  0
  7 21  1  0
  8 22  1  0
  8 23  1  0
M  END
