
     RDKit          3D

 21 21  0  0  0  0  0  0  0  0999 V2000
   -1.5589    0.8029    0.8296 C   0  0  0  0  0  0  0  0  0  0  0  0
   -1.1070   -0.2785   -0.1203 C   0  0  0  0  0  0  0  0  0  0  0  0
   -2.1239   -0.5945   -1.1963 C   0  0  0  0  0  0  0  0  0  0  0  0
   -0.3520   -1.4575    0.4094 C   0  0  0  0  0  0  0  0  0  0  0  0
    0.3432   -0.3378   -0.4089 C   0  0  0  0  0  0  0  0  0  0  0  0
    1.2712    0.5279    0.3879 C   0  0  0  0  0  0  0  0  0  0  0  0
    0.9351    0.8494    1.5139 O   0  0  0  0  0  0  0  0  0  0  0  0
    2.5718    1.0088   -0.1267 C   0  0  0  0  0  0  0  0  0  0  0  0
    2.7341    0.5155   -1.4236 O   0  0  0  0  0  0  0  0  0  0  0  0
   -2.6553    1.0090    0.7370 H   0  0  0  0  0  0  0  0  0  0  0  0
   -1.3430    0.4557    1.8577 H   0  0  0  0  0  0  0  0  0  0  0  0
   -1.0133    1.7291    0.5689 H   0  0  0  0  0  0  0  0  0  0  0  0
   -2.9898   -1.0820   -0.6607 H   0  0  0  0  0  0  0  0  0  0  0  0
   -2.5476    0.3232   -1.6552 H   0  0  0  0  0  0  0  0  0  0  0  0
   -1.7488   -1.3187   -1.9345 H   0  0  0  0  0  0  0  0  0  0  0  0
   -0.4911   -2.4227   -0.0913 H   0  0  0  0  0  0  0  0  0  0  0  0
   -0.0788   -1.5204    1.4788 H   0  0  0  0  0  0  0  0  0  0  0  0
    0.6499   -0.6285   -1.4297 H   0  0  0  0  0  0  0  0  0  0  0  0
    2.7170    2.0865   -0.0456 H   0  0  0  0  0  0  0  0  0  0  0  0
    3.3754    0.5332    0.4981 H   0  0  0  0  0  0  0  0  0  0  0  0
    3.4116   -0.2006   -1.4682 H   0  0  0  0  0  0  0  0  0  0  0  0
  1  2  1  0
  2  3  1  0
  2  4  1  0
  4  5  1  0
  5  6  1  0
  6  7  2  0
  6  8  1  0
  8  9  1  0
  5  2  1  0
  1 10  1  0
  1 11  1  0
  1 12  1  0
  3 13  1  0
  3 14  1  0
  3 15  1  0
  4 16  1  0
  4 17  1  0
  5 18  1  0
  8 19  1  0
  8 20  1  0
  9 21  1  0
M  END
