
     RDKit          3D

 21 22  0  0  0  0  0  0  0  0999 V2000
    2.0887    0.4964   -0.0963 C   0  0  0  0  0  0  0  0  0  0  0  0
    0.7159    0.1407    0.3191 C   0  0  0  0  0  0  0  0  0  0  0  0
    0.6633    0.0985    1.7294 O   0  0  0  0  0  0  0  0  0  0  0  0
    0.3001   -1.2689   -0.1302 C   0  0  0  0  0  0  0  0  0  0  0  0
   -1.1345   -1.0067   -0.5085 C   0  0  0  0  0  0  0  0  0  0  0  0
   -1.8349   -0.4265    0.6664 C   0  0  0  0  0  0  0  0  0  0  0  0
   -1.5165    0.8726    0.7983 C   0  0  0  0  0  0  0  0  0  0  0  0
   -0.3601    1.0606   -0.1452 C   0  0  0  0  0  0  0  0  0  0  0  0
   -0.9262    0.2741   -1.3417 C   0  0  0  0  0  0  0  0  0  0  0  0
    2.4976   -0.1079   -0.9292 H   0  0  0  0  0  0  0  0  0  0  0  0
    2.8076    0.3424    0.7609 H   0  0  0  0  0  0  0  0  0  0  0  0
    2.2085    1.5666   -0.3786 H   0  0  0  0  0  0  0  0  0  0  0  0
    1.4866   -0.2908    2.0584 H   0  0  0  0  0  0  0  0  0  0  0  0
    0.4325   -2.0091    0.6529 H   0  0  0  0  0  0  0  0  0  0  0  0
    0.8841   -1.5192   -1.0518 H   0  0  0  0  0  0  0  0  0  0  0  0
   -1.6431   -1.7834   -1.0297 H   0  0  0  0  0  0  0  0  0  0  0  0
   -2.5124   -0.9279    1.3501 H   0  0  0  0  0  0  0  0  0  0  0  0
   -1.9815    1.6088    1.4324 H   0  0  0  0  0  0  0  0  0  0  0  0
   -0.1084    2.0657   -0.3603 H   0  0  0  0  0  0  0  0  0  0  0  0
   -0.1815    0.1253   -2.1231 H   0  0  0  0  0  0  0  0  0  0  0  0
   -1.8859    0.6888   -1.6733 H   0  0  0  0  0  0  0  0  0  0  0  0
  1  2  1  0
  2  3  1  0
  2  4  1  0
  4  5  1  0
  5  6  1  0
  6  7  2  0
  7  8  1  0
  8  9  1  0
  8  2  1  0
  9  5  1  0
  1 10  1  0
  1 11  1  0
  1 12  1  0
  3 13  1  0
  4 14  1  0
  4 15  1  0
  5 16  1  0
  6 17  1  0
  7 18  1  0
  8 19  1  0
  9 20  1  0
  9 21  1  0
M  END
