
     RDKit          3D

 20 21  0  0  0  0  0  0  0  0999 V2000
    0.1552    0.2514    1.5474 C   0  0  0  0  0  0  0  0  0  0  0  0
    0.3445    0.3952    0.0763 C   0  0  0  0  0  0  0  0  0  0  0  0
   -0.8806    0.3715   -0.7728 C   0  0  0  0  0  0  0  0  0  0  0  0
   -1.6810   -0.9355   -0.6475 C   0  0  0  0  0  0  0  0  0  0  0  0
   -2.2422    0.4005   -0.2715 C   0  0  0  0  0  0  0  0  0  0  0  0
    1.3335   -0.6385   -0.4416 C   0  0  0  0  0  0  0  0  0  0  0  0
    2.3250    0.4658   -0.1793 C   0  0  0  0  0  0  0  0  0  0  0  0
    1.2771    1.3708   -0.2560 O   0  0  0  0  0  0  0  0  0  0  0  0
   -0.2218   -0.7699    1.7850 H   0  0  0  0  0  0  0  0  0  0  0  0
   -0.4818    1.0078    2.0086 H   0  0  0  0  0  0  0  0  0  0  0  0
    1.1561    0.3265    2.0309 H   0  0  0  0  0  0  0  0  0  0  0  0
   -0.6919    0.6882   -1.8363 H   0  0  0  0  0  0  0  0  0  0  0  0
   -1.9877   -1.4541   -1.5552 H   0  0  0  0  0  0  0  0  0  0  0  0
   -1.4593   -1.5976    0.2075 H   0  0  0  0  0  0  0  0  0  0  0  0
   -3.0130    0.8691   -0.9523 H   0  0  0  0  0  0  0  0  0  0  0  0
   -2.4427    0.6289    0.7867 H   0  0  0  0  0  0  0  0  0  0  0  0
    1.4224   -1.5263    0.1908 H   0  0  0  0  0  0  0  0  0  0  0  0
    1.2244   -0.8241   -1.5402 H   0  0  0  0  0  0  0  0  0  0  0  0
    2.7934    0.3318    0.7985 H   0  0  0  0  0  0  0  0  0  0  0  0
    3.0703    0.6385   -0.9789 H   0  0  0  0  0  0  0  0  0  0  0  0
  1  2  1  0
  2  3  1  0
  3  4  1  0
  4  5  1  0
  2  6  1  0
  6  7  1  0
  7  8  1  0
  8  2  1  0
  5  3  1  0
  1  9  1  0
  1 10  1  0
  1 11  1  0
  3 12  1  0
  4 13  1  0
  4 14  1  0
  5 15  1  0
  5 16  1  0
  6 17  1  0
  6 18  1  0
  7 19  1  0
  7 20  1  0
M  END
