
     RDKit          3D

 17 17  0  0  0  0  0  0  0  0999 V2000
   -1.0631   -0.5846    1.4021 C   0  0  0  0  0  0  0  0  0  0  0  0
   -0.4557   -0.0040    0.1609 C   0  0  0  0  0  0  0  0  0  0  0  0
    0.8509   -0.5952   -0.1829 C   0  0  0  0  0  0  0  0  0  0  0  0
    1.9322   -1.0618   -0.4620 C   0  0  0  0  0  0  0  0  0  0  0  0
    3.2186   -1.5975   -0.8105 C   0  0  0  0  0  0  0  0  0  0  0  0
    3.7239   -1.5415   -1.9602 O   0  0  0  0  0  0  0  0  0  0  0  0
   -1.3927    0.4116   -0.9018 C   0  0  0  0  0  0  0  0  0  0  0  0
   -0.6841    1.4595   -0.1475 C   0  0  0  0  0  0  0  0  0  0  0  0
   -1.3077    2.2437    0.7989 O   0  0  0  0  0  0  0  0  0  0  0  0
   -2.1707   -0.5178    1.4152 H   0  0  0  0  0  0  0  0  0  0  0  0
   -0.7944   -1.6614    1.4317 H   0  0  0  0  0  0  0  0  0  0  0  0
   -0.6782   -0.0588    2.3227 H   0  0  0  0  0  0  0  0  0  0  0  0
    3.7942   -2.0811   -0.0392 H   0  0  0  0  0  0  0  0  0  0  0  0
   -2.4738    0.2530   -0.7503 H   0  0  0  0  0  0  0  0  0  0  0  0
   -1.0950    0.2670   -1.9709 H   0  0  0  0  0  0  0  0  0  0  0  0
    0.1741    1.9802   -0.6521 H   0  0  0  0  0  0  0  0  0  0  0  0
   -1.5785    3.0888    0.3460 H   0  0  0  0  0  0  0  0  0  0  0  0
  1  2  1  0
  2  3  1  0
  3  4  3  0
  4  5  1  0
  5  6  2  0
  2  7  1  0
  7  8  1  0
  8  9  1  0
  8  2  1  0
  1 10  1  0
  1 11  1  0
  1 12  1  0
  5 13  1  0
  7 14  1  0
  7 15  1  0
  8 16  1  0
  9 17  1  0
M  END
