
     RDKit          3D

 21 22  0  0  0  0  0  0  0  0999 V2000
    0.2277    1.7334   -0.0305 C   0  0  0  0  0  0  0  0  0  0  0  0
   -0.3187    0.3409    0.0033 C   0  0  0  0  0  0  0  0  0  0  0  0
    0.6128   -0.7388    0.4547 C   0  0  0  0  0  0  0  0  0  0  0  0
    1.8695   -0.8869   -0.4108 C   0  0  0  0  0  0  0  0  0  0  0  0
    1.9289   -0.4980    1.0257 C   0  0  0  0  0  0  0  0  0  0  0  0
   -1.7023    0.2447    0.6312 C   0  0  0  0  0  0  0  0  0  0  0  0
   -2.0266   -0.7184   -0.4734 C   0  0  0  0  0  0  0  0  0  0  0  0
   -0.9559   -0.0617   -1.2949 C   0  0  0  0  0  0  0  0  0  0  0  0
   -0.7331    0.0683   -2.4883 O   0  0  0  0  0  0  0  0  0  0  0  0
   -0.6478    2.4338    0.0476 H   0  0  0  0  0  0  0  0  0  0  0  0
    0.8811    1.8807    0.8429 H   0  0  0  0  0  0  0  0  0  0  0  0
    0.7500    1.9675   -0.9990 H   0  0  0  0  0  0  0  0  0  0  0  0
    0.0899   -1.7001    0.6904 H   0  0  0  0  0  0  0  0  0  0  0  0
    2.0398   -0.1166   -1.2047 H   0  0  0  0  0  0  0  0  0  0  0  0
    2.1463   -1.9041   -0.7479 H   0  0  0  0  0  0  0  0  0  0  0  0
    2.3231    0.4893    1.3056 H   0  0  0  0  0  0  0  0  0  0  0  0
    2.3374   -1.3134    1.6909 H   0  0  0  0  0  0  0  0  0  0  0  0
   -2.2135    1.2282    0.4848 H   0  0  0  0  0  0  0  0  0  0  0  0
   -1.7145   -0.1545    1.6508 H   0  0  0  0  0  0  0  0  0  0  0  0
   -1.8608   -1.7800   -0.2548 H   0  0  0  0  0  0  0  0  0  0  0  0
   -3.0329   -0.5144   -0.9235 H   0  0  0  0  0  0  0  0  0  0  0  0
  1  2  1  0
  2  3  1  0
  3  4  1  0
  4  5  1  0
  2  6  1  0
  6  7  1  0
  7  8  1  0
  8  9  2  0
  8  2  1  0
  5  3  1  0
  1 10  1  0
  1 11  1  0
  1 12  1  0
  3 13  1  0
  4 14  1  0
  4 15  1  0
  5 16  1  0
  5 17  1  0
  6 18  1  0
  6 19  1  0
  7 20  1  0
  7 21  1  0
M  END
