
     RDKit          3D

 19 20  0  0  0  0  0  0  0  0999 V2000
    2.0554    0.0357   -0.5827 C   0  0  0  0  0  0  0  0  0  0  0  0
    0.7620   -0.0571    0.1619 C   0  0  0  0  0  0  0  0  0  0  0  0
    1.0331   -0.6898    1.3882 O   0  0  0  0  0  0  0  0  0  0  0  0
    0.1352    1.2307    0.4572 C   0  0  0  0  0  0  0  0  0  0  0  0
    0.6596    2.1657    1.0206 O   0  0  0  0  0  0  0  0  0  0  0  0
   -1.2680    1.2314   -0.0424 C   0  0  0  0  0  0  0  0  0  0  0  0
   -1.5656   -0.1524   -0.5199 C   0  0  0  0  0  0  0  0  0  0  0  0
   -1.4082   -1.3412    0.3452 C   0  0  0  0  0  0  0  0  0  0  0  0
   -0.2829   -0.8700   -0.5340 C   0  0  0  0  0  0  0  0  0  0  0  0
    1.9602    0.4830   -1.5858 H   0  0  0  0  0  0  0  0  0  0  0  0
    2.4681   -1.0043   -0.6537 H   0  0  0  0  0  0  0  0  0  0  0  0
    2.7745    0.5864    0.0647 H   0  0  0  0  0  0  0  0  0  0  0  0
    1.4373    0.0260    1.9591 H   0  0  0  0  0  0  0  0  0  0  0  0
   -1.2630    1.8956   -0.9552 H   0  0  0  0  0  0  0  0  0  0  0  0
   -1.9816    1.6070    0.7093 H   0  0  0  0  0  0  0  0  0  0  0  0
   -2.2908   -0.2305   -1.3649 H   0  0  0  0  0  0  0  0  0  0  0  0
   -1.9828   -2.2413    0.0780 H   0  0  0  0  0  0  0  0  0  0  0  0
   -1.2815   -1.2371    1.4590 H   0  0  0  0  0  0  0  0  0  0  0  0
    0.0389   -1.4378   -1.4046 H   0  0  0  0  0  0  0  0  0  0  0  0
  1  2  1  0
  2  3  1  0
  2  4  1  0
  4  5  2  0
  4  6  1  0
  6  7  1  0
  7  8  1  0
  8  9  1  0
  9  2  1  0
  9  7  1  0
  1 10  1  0
  1 11  1  0
  1 12  1  0
  3 13  1  0
  6 14  1  0
  6 15  1  0
  7 16  1  0
  8 17  1  0
  8 18  1  0
  9 19  1  0
M  END
