
     RDKit          3D

 19 20  0  0  0  0  0  0  0  0999 V2000
   -1.2644    0.9207    0.9797 C   0  0  0  0  0  0  0  0  0  0  0  0
   -0.8885   -0.0749   -0.0965 C   0  0  0  0  0  0  0  0  0  0  0  0
   -1.6997    0.0142   -1.3345 C   0  0  0  0  0  0  0  0  0  0  0  0
   -2.7713    0.5998   -1.2950 O   0  0  0  0  0  0  0  0  0  0  0  0
   -0.5279   -1.4835    0.2834 C   0  0  0  0  0  0  0  0  0  0  0  0
    0.4771   -0.5406   -0.1464 C   0  0  0  0  0  0  0  0  0  0  0  0
    1.5986   -0.0138    0.6605 C   0  0  0  0  0  0  0  0  0  0  0  0
    2.0422    0.4237   -0.7229 C   0  0  0  0  0  0  0  0  0  0  0  0
    1.2628   -0.6376   -1.2635 O   0  0  0  0  0  0  0  0  0  0  0  0
   -1.2905    0.4487    1.9881 H   0  0  0  0  0  0  0  0  0  0  0  0
   -0.4552    1.6988    0.9692 H   0  0  0  0  0  0  0  0  0  0  0  0
   -2.2037    1.4452    0.7216 H   0  0  0  0  0  0  0  0  0  0  0  0
   -1.3909   -0.4143   -2.2775 H   0  0  0  0  0  0  0  0  0  0  0  0
   -0.7861   -2.3032   -0.3825 H   0  0  0  0  0  0  0  0  0  0  0  0
   -0.5280   -1.7849    1.3604 H   0  0  0  0  0  0  0  0  0  0  0  0
    2.2559   -0.8468    0.9897 H   0  0  0  0  0  0  0  0  0  0  0  0
    1.4018    0.7909    1.3701 H   0  0  0  0  0  0  0  0  0  0  0  0
    3.1245    0.3202   -0.8898 H   0  0  0  0  0  0  0  0  0  0  0  0
    1.6434    1.4376   -0.9139 H   0  0  0  0  0  0  0  0  0  0  0  0
  1  2  1  0
  2  3  1  0
  3  4  2  0
  2  5  1  0
  5  6  1  0
  6  7  1  0
  7  8  1  0
  8  9  1  0
  6  2  1  0
  9  6  1  0
  1 10  1  0
  1 11  1  0
  1 12  1  0
  3 13  1  0
  5 14  1  0
  5 15  1  0
  7 16  1  0
  7 17  1  0
  8 18  1  0
  8 19  1  0
M  END
