
     RDKit          3D

 18 19  0  0  0  0  0  0  0  0999 V2000
   -0.1823    1.4878   -0.3823 C   0  0  0  0  0  0  0  0  0  0  0  0
    0.0784    0.0966    0.0121 C   0  0  0  0  0  0  0  0  0  0  0  0
    1.4625   -0.1225    0.5367 C   0  0  0  0  0  0  0  0  0  0  0  0
    2.3941    0.2076   -0.4269 O   0  0  0  0  0  0  0  0  0  0  0  0
   -0.9821   -0.5241    0.9483 C   0  0  0  0  0  0  0  0  0  0  0  0
   -1.7948   -0.5401   -0.3173 C   0  0  0  0  0  0  0  0  0  0  0  0
   -1.5785   -1.1798   -1.4520 O   0  0  0  0  0  0  0  0  0  0  0  0
   -0.4130   -1.0134   -0.8662 C   0  0  0  0  0  0  0  0  0  0  0  0
   -0.8223    1.9712    0.3983 H   0  0  0  0  0  0  0  0  0  0  0  0
   -0.5802    1.6363   -1.4060 H   0  0  0  0  0  0  0  0  0  0  0  0
    0.7802    2.0786   -0.3709 H   0  0  0  0  0  0  0  0  0  0  0  0
    1.6117   -1.2071    0.7713 H   0  0  0  0  0  0  0  0  0  0  0  0
    1.6289    0.5006    1.4601 H   0  0  0  0  0  0  0  0  0  0  0  0
    2.6060   -0.5833   -1.0108 H   0  0  0  0  0  0  0  0  0  0  0  0
   -0.6737   -1.4850    1.3459 H   0  0  0  0  0  0  0  0  0  0  0  0
   -1.3703    0.1388    1.7036 H   0  0  0  0  0  0  0  0  0  0  0  0
   -2.0776    0.5313   -0.5657 H   0  0  0  0  0  0  0  0  0  0  0  0
   -0.0869   -1.9933   -0.3782 H   0  0  0  0  0  0  0  0  0  0  0  0
  1  2  1  0
  2  3  1  0
  3  4  1  0
  2  5  1  0
  5  6  1  0
  6  7  1  0
  7  8  1  0
  8  2  1  0
  8  6  1  0
  1  9  1  0
  1 10  1  0
  1 11  1  0
  3 12  1  0
  3 13  1  0
  4 14  1  0
  5 15  1  0
  5 16  1  0
  6 17  1  0
  8 18  1  0
M  END
