
     RDKit          3D

 23 24  0  0  0  0  0  0  0  0999 V2000
   -2.4744    0.4110   -0.1894 C   0  0  0  0  0  0  0  0  0  0  0  0
   -1.1371   -0.3159   -0.1592 C   0  0  0  0  0  0  0  0  0  0  0  0
   -1.4046   -1.6420    0.1204 O   0  0  0  0  0  0  0  0  0  0  0  0
   -0.3961   -0.2076   -1.4565 C   0  0  0  0  0  0  0  0  0  0  0  0
    1.0163    0.1794   -1.1294 C   0  0  0  0  0  0  0  0  0  0  0  0
    1.7935   -0.8111   -0.2998 C   0  0  0  0  0  0  0  0  0  0  0  0
    2.1759    0.3719    0.6029 C   0  0  0  0  0  0  0  0  0  0  0  0
    0.8559    0.9912    0.1627 C   0  0  0  0  0  0  0  0  0  0  0  0
   -0.2922    0.3597    0.8889 C   0  0  0  0  0  0  0  0  0  0  0  0
   -3.1112    0.0849   -1.0311 H   0  0  0  0  0  0  0  0  0  0  0  0
   -3.0096    0.0811    0.7412 H   0  0  0  0  0  0  0  0  0  0  0  0
   -2.3106    1.4959   -0.2183 H   0  0  0  0  0  0  0  0  0  0  0  0
   -1.1644   -2.2546   -0.6217 H   0  0  0  0  0  0  0  0  0  0  0  0
   -0.8443    0.6200   -2.0335 H   0  0  0  0  0  0  0  0  0  0  0  0
   -0.4881   -1.1209   -2.0598 H   0  0  0  0  0  0  0  0  0  0  0  0
    1.5838    0.6703   -1.9174 H   0  0  0  0  0  0  0  0  0  0  0  0
    2.6843   -1.2161   -0.7813 H   0  0  0  0  0  0  0  0  0  0  0  0
    1.1543   -1.5165    0.2607 H   0  0  0  0  0  0  0  0  0  0  0  0
    2.2510    0.1187    1.6626 H   0  0  0  0  0  0  0  0  0  0  0  0
    3.0546    0.9210    0.1775 H   0  0  0  0  0  0  0  0  0  0  0  0
    0.8510    2.0691    0.0359 H   0  0  0  0  0  0  0  0  0  0  0  0
    0.0564   -0.4121    1.6177 H   0  0  0  0  0  0  0  0  0  0  0  0
   -0.8446    1.1227    1.4679 H   0  0  0  0  0  0  0  0  0  0  0  0
  1  2  1  0
  2  3  1  0
  2  4  1  0
  4  5  1  0
  5  6  1  0
  6  7  1  0
  7  8  1  0
  8  9  1  0
  9  2  1  0
  8  5  1  0
  1 10  1  0
  1 11  1  0
  1 12  1  0
  3 13  1  0
  4 14  1  0
  4 15  1  0
  5 16  1  0
  6 17  1  0
  6 18  1  0
  7 19  1  0
  7 20  1  0
  8 21  1  0
  9 22  1  0
  9 23  1  0
M  END
