
     RDKit          3D

 21 22  0  0  0  0  0  0  0  0999 V2000
    1.7664   -0.5159    0.5823 C   0  0  0  0  0  0  0  0  0  0  0  0
    0.9987    0.2744   -0.4260 C   0  0  0  0  0  0  0  0  0  0  0  0
    1.7808    0.5613   -1.5428 O   0  0  0  0  0  0  0  0  0  0  0  0
    0.3038    1.4403    0.2049 C   0  0  0  0  0  0  0  0  0  0  0  0
   -1.0327    0.9363   -0.2378 C   0  0  0  0  0  0  0  0  0  0  0  0
   -1.8691    0.2636    0.8354 C   0  0  0  0  0  0  0  0  0  0  0  0
   -1.1980   -0.8991    1.1576 O   0  0  0  0  0  0  0  0  0  0  0  0
   -0.7680   -1.4467   -0.0366 C   0  0  0  0  0  0  0  0  0  0  0  0
   -0.3277   -0.2727   -0.8505 C   0  0  0  0  0  0  0  0  0  0  0  0
    1.1319   -0.9631    1.3746 H   0  0  0  0  0  0  0  0  0  0  0  0
    2.4465   -1.2763    0.1346 H   0  0  0  0  0  0  0  0  0  0  0  0
    2.4460    0.1984    1.1202 H   0  0  0  0  0  0  0  0  0  0  0  0
    1.7961   -0.2932   -2.0829 H   0  0  0  0  0  0  0  0  0  0  0  0
    0.4204    1.5348    1.3140 H   0  0  0  0  0  0  0  0  0  0  0  0
    0.6314    2.4011   -0.2625 H   0  0  0  0  0  0  0  0  0  0  0  0
   -1.5857    1.5613   -0.9500 H   0  0  0  0  0  0  0  0  0  0  0  0
   -2.8294   -0.0145    0.3466 H   0  0  0  0  0  0  0  0  0  0  0  0
   -2.0326    0.9085    1.6978 H   0  0  0  0  0  0  0  0  0  0  0  0
   -1.6124   -1.9581   -0.5164 H   0  0  0  0  0  0  0  0  0  0  0  0
    0.0744   -2.1435    0.0666 H   0  0  0  0  0  0  0  0  0  0  0  0
   -0.5410   -0.2970   -1.9290 H   0  0  0  0  0  0  0  0  0  0  0  0
  1  2  1  0
  2  3  1  0
  2  4  1  0
  4  5  1  0
  5  6  1  0
  6  7  1  0
  7  8  1  0
  8  9  1  0
  9  2  1  0
  9  5  1  0
  1 10  1  0
  1 11  1  0
  1 12  1  0
  3 13  1  0
  4 14  1  0
  4 15  1  0
  5 16  1  0
  6 17  1  0
  6 18  1  0
  8 19  1  0
  8 20  1  0
  9 21  1  0
M  END
