
     RDKit          3D

 21 22  0  0  0  0  0  0  0  0999 V2000
   -0.8808    1.5017    0.2016 C   0  0  0  0  0  0  0  0  0  0  0  0
   -0.6685    0.0155    0.0123 C   0  0  0  0  0  0  0  0  0  0  0  0
   -1.9404   -0.7510    0.1115 C   0  0  0  0  0  0  0  0  0  0  0  0
    0.3520   -0.5328    1.0026 C   0  0  0  0  0  0  0  0  0  0  0  0
    1.4828   -0.8924    0.0835 C   0  0  0  0  0  0  0  0  0  0  0  0
    2.0541    0.3895   -0.4683 C   0  0  0  0  0  0  0  0  0  0  0  0
    1.0805    0.7689   -1.3796 O   0  0  0  0  0  0  0  0  0  0  0  0
    0.0505   -0.1564   -1.3014 C   0  0  0  0  0  0  0  0  0  0  0  0
    0.7711   -1.3490   -1.0516 O   0  0  0  0  0  0  0  0  0  0  0  0
    0.0247    2.0259   -0.1295 H   0  0  0  0  0  0  0  0  0  0  0  0
   -1.2226    1.7654    1.2017 H   0  0  0  0  0  0  0  0  0  0  0  0
   -1.6841    1.7793   -0.5287 H   0  0  0  0  0  0  0  0  0  0  0  0
   -1.8551   -1.6022    0.8313 H   0  0  0  0  0  0  0  0  0  0  0  0
   -2.3156   -1.1426   -0.8379 H   0  0  0  0  0  0  0  0  0  0  0  0
   -2.7197   -0.0521    0.5297 H   0  0  0  0  0  0  0  0  0  0  0  0
    0.6480    0.2089    1.7567 H   0  0  0  0  0  0  0  0  0  0  0  0
   -0.0141   -1.4704    1.4879 H   0  0  0  0  0  0  0  0  0  0  0  0
    2.1987   -1.5989    0.4612 H   0  0  0  0  0  0  0  0  0  0  0  0
    2.1740    1.0849    0.3749 H   0  0  0  0  0  0  0  0  0  0  0  0
    3.0450    0.2191   -0.9210 H   0  0  0  0  0  0  0  0  0  0  0  0
   -0.5803   -0.2112   -2.1715 H   0  0  0  0  0  0  0  0  0  0  0  0
  1  2  1  0
  2  3  1  0
  2  4  1  0
  4  5  1  0
  5  6  1  0
  6  7  1  0
  7  8  1  0
  8  9  1  0
  8  2  1  0
  9  5  1  0
  1 10  1  0
  1 11  1  0
  1 12  1  0
  3 13  1  0
  3 14  1  0
  3 15  1  0
  4 16  1  0
  4 17  1  0
  5 18  1  0
  6 19  1  0
  6 20  1  0
  8 21  1  0
M  END
