
     RDKit          3D

 21 22  0  0  0  0  0  0  0  0999 V2000
    1.8570   -0.9326    0.1559 C   0  0  0  0  0  0  0  0  0  0  0  0
    0.6311   -0.1537   -0.2146 C   0  0  0  0  0  0  0  0  0  0  0  0
    0.9182    1.0621   -1.0809 C   0  0  0  0  0  0  0  0  0  0  0  0
    1.7762    1.8771   -0.3232 O   0  0  0  0  0  0  0  0  0  0  0  0
   -0.3578    0.0794    0.8695 C   0  0  0  0  0  0  0  0  0  0  0  0
   -1.7001    0.6969    0.5696 C   0  0  0  0  0  0  0  0  0  0  0  0
   -1.8790   -0.1110   -0.6774 C   0  0  0  0  0  0  0  0  0  0  0  0
   -0.6303   -0.8831   -0.3121 C   0  0  0  0  0  0  0  0  0  0  0  0
   -0.7190   -2.2061    0.0369 O   0  0  0  0  0  0  0  0  0  0  0  0
    1.9664   -1.8592   -0.4403 H   0  0  0  0  0  0  0  0  0  0  0  0
    1.8023   -1.2645    1.2264 H   0  0  0  0  0  0  0  0  0  0  0  0
    2.7870   -0.3453   -0.0198 H   0  0  0  0  0  0  0  0  0  0  0  0
    0.0116    1.6405   -1.3154 H   0  0  0  0  0  0  0  0  0  0  0  0
    1.5080    0.7848   -1.9912 H   0  0  0  0  0  0  0  0  0  0  0  0
    1.8821    2.7684   -0.6878 H   0  0  0  0  0  0  0  0  0  0  0  0
   -0.1595   -0.3767    1.8455 H   0  0  0  0  0  0  0  0  0  0  0  0
   -2.4119    0.4475    1.4109 H   0  0  0  0  0  0  0  0  0  0  0  0
   -1.6942    1.7874    0.3828 H   0  0  0  0  0  0  0  0  0  0  0  0
   -1.7214    0.4432   -1.6196 H   0  0  0  0  0  0  0  0  0  0  0  0
   -2.7969   -0.7336   -0.6537 H   0  0  0  0  0  0  0  0  0  0  0  0
   -1.0697   -2.7214   -0.7443 H   0  0  0  0  0  0  0  0  0  0  0  0
  1  2  1  0
  2  3  1  0
  3  4  1  0
  2  5  1  0
  5  6  1  0
  6  7  1  0
  7  8  1  0
  8  9  1  0
  8  2  1  0
  8  5  1  0
  1 10  1  0
  1 11  1  0
  1 12  1  0
  3 13  1  0
  3 14  1  0
  4 15  1  0
  5 16  1  0
  6 17  1  0
  6 18  1  0
  7 19  1  0
  7 20  1  0
  9 21  1  0
M  END
