
     RDKit          3D

 21 21  0  0  0  0  0  0  0  0999 V2000
   -1.2904   -1.4425    0.4776 C   0  0  0  0  0  0  0  0  0  0  0  0
   -0.8498    0.0037    0.1978 C   0  0  0  0  0  0  0  0  0  0  0  0
   -2.1099    0.7745    0.0430 C   0  0  0  0  0  0  0  0  0  0  0  0
   -2.3212    1.7114    0.7830 O   0  0  0  0  0  0  0  0  0  0  0  0
   -0.1829   -0.0176   -1.1537 C   0  0  0  0  0  0  0  0  0  0  0  0
    1.1223    0.7876   -1.0950 C   0  0  0  0  0  0  0  0  0  0  0  0
    1.9157    0.0870    0.0011 C   0  0  0  0  0  0  0  0  0  0  0  0
    1.1902    0.3304    1.2802 C   0  0  0  0  0  0  0  0  0  0  0  0
   -0.1340    0.5332    1.2030 O   0  0  0  0  0  0  0  0  0  0  0  0
   -2.3168   -1.4594    0.9222 H   0  0  0  0  0  0  0  0  0  0  0  0
   -0.5934   -1.9330    1.1892 H   0  0  0  0  0  0  0  0  0  0  0  0
   -1.3530   -2.0192   -0.4581 H   0  0  0  0  0  0  0  0  0  0  0  0
   -2.8411    0.5316   -0.7012 H   0  0  0  0  0  0  0  0  0  0  0  0
    0.1143   -1.0372   -1.4452 H   0  0  0  0  0  0  0  0  0  0  0  0
   -0.8093    0.3912   -1.9597 H   0  0  0  0  0  0  0  0  0  0  0  0
    0.8665    1.8172   -0.7787 H   0  0  0  0  0  0  0  0  0  0  0  0
    1.6298    0.7326   -2.0689 H   0  0  0  0  0  0  0  0  0  0  0  0
    2.9419    0.4681    0.0669 H   0  0  0  0  0  0  0  0  0  0  0  0
    1.8756   -1.0053   -0.2395 H   0  0  0  0  0  0  0  0  0  0  0  0
    1.4859   -0.5005    1.9857 H   0  0  0  0  0  0  0  0  0  0  0  0
    1.6595    1.2461    1.7501 H   0  0  0  0  0  0  0  0  0  0  0  0
  1  2  1  0
  2  3  1  0
  3  4  2  0
  2  5  1  0
  5  6  1  0
  6  7  1  0
  7  8  1  0
  8  9  1  0
  9  2  1  0
  1 10  1  0
  1 11  1  0
  1 12  1  0
  3 13  1  0
  5 14  1  0
  5 15  1  0
  6 16  1  0
  6 17  1  0
  7 18  1  0
  7 19  1  0
  8 20  1  0
  8 21  1  0
M  END
