
     RDKit          3D

 19 19  0  0  0  0  0  0  0  0999 V2000
    1.0669    1.2308    0.6365 C   0  0  0  0  0  0  0  0  0  0  0  0
    0.3974   -0.0227    0.1369 C   0  0  0  0  0  0  0  0  0  0  0  0
    1.4265   -1.0200   -0.3493 C   0  0  0  0  0  0  0  0  0  0  0  0
   -0.3965   -0.6982    1.1935 C   0  0  0  0  0  0  0  0  0  0  0  0
   -0.1903   -0.5347    2.4312 O   0  0  0  0  0  0  0  0  0  0  0  0
   -1.3244   -1.4732    0.5216 O   0  0  0  0  0  0  0  0  0  0  0  0
   -1.7998   -0.6656   -0.5409 C   0  0  0  0  0  0  0  0  0  0  0  0
   -0.6546    0.2596   -0.8997 C   0  0  0  0  0  0  0  0  0  0  0  0
   -1.0655    1.5914   -0.7672 O   0  0  0  0  0  0  0  0  0  0  0  0
    0.9891    2.0410   -0.1220 H   0  0  0  0  0  0  0  0  0  0  0  0
    2.1462    1.0099    0.7566 H   0  0  0  0  0  0  0  0  0  0  0  0
    0.6061    1.5500    1.5794 H   0  0  0  0  0  0  0  0  0  0  0  0
    2.3553   -0.5526   -0.6763 H   0  0  0  0  0  0  0  0  0  0  0  0
    0.9783   -1.6983   -1.1245 H   0  0  0  0  0  0  0  0  0  0  0  0
    1.6850   -1.6915    0.5049 H   0  0  0  0  0  0  0  0  0  0  0  0
   -2.6571   -0.0755   -0.1014 H   0  0  0  0  0  0  0  0  0  0  0  0
   -2.1482   -1.2660   -1.4080 H   0  0  0  0  0  0  0  0  0  0  0  0
   -0.3052    0.1314   -1.9370 H   0  0  0  0  0  0  0  0  0  0  0  0
   -1.1092    1.8841    0.1657 H   0  0  0  0  0  0  0  0  0  0  0  0
  1  2  1  0
  2  3  1  0
  2  4  1  0
  4  5  2  0
  4  6  1  0
  6  7  1  0
  7  8  1  0
  8  9  1  0
  8  2  1  0
  1 10  1  0
  1 11  1  0
  1 12  1  0
  3 13  1  0
  3 14  1  0
  3 15  1  0
  7 16  1  0
  7 17  1  0
  8 18  1  0
  9 19  1  0
M  END
