
     RDKit          3D

 19 19  0  0  0  0  0  0  0  0999 V2000
    0.2224    1.3829    1.0291 C   0  0  0  0  0  0  0  0  0  0  0  0
    0.2995    0.2521    0.0754 C   0  0  0  0  0  0  0  0  0  0  0  0
    1.7347   -0.2484   -0.0538 C   0  0  0  0  0  0  0  0  0  0  0  0
    1.7779   -1.3404   -0.9296 O   0  0  0  0  0  0  0  0  0  0  0  0
   -0.5709   -0.9250    0.4343 C   0  0  0  0  0  0  0  0  0  0  0  0
   -1.7252   -0.8031   -0.4982 C   0  0  0  0  0  0  0  0  0  0  0  0
   -2.5872   -1.6455   -0.6390 O   0  0  0  0  0  0  0  0  0  0  0  0
   -1.5500    0.5216   -1.1562 C   0  0  0  0  0  0  0  0  0  0  0  0
   -0.1526    0.6389   -1.1724 O   0  0  0  0  0  0  0  0  0  0  0  0
    0.1472    1.0819    2.0967 H   0  0  0  0  0  0  0  0  0  0  0  0
    1.1874    1.9577    0.9558 H   0  0  0  0  0  0  0  0  0  0  0  0
   -0.5783    2.1128    0.8344 H   0  0  0  0  0  0  0  0  0  0  0  0
    2.1225   -0.5448    0.9401 H   0  0  0  0  0  0  0  0  0  0  0  0
    2.3963    0.5655   -0.4619 H   0  0  0  0  0  0  0  0  0  0  0  0
    2.2674   -2.1032   -0.5196 H   0  0  0  0  0  0  0  0  0  0  0  0
   -0.0826   -1.8882    0.2199 H   0  0  0  0  0  0  0  0  0  0  0  0
   -0.9602   -0.8480    1.4761 H   0  0  0  0  0  0  0  0  0  0  0  0
   -2.0113    1.2697   -0.4605 H   0  0  0  0  0  0  0  0  0  0  0  0
   -1.9370    0.5638   -2.1708 H   0  0  0  0  0  0  0  0  0  0  0  0
  1  2  1  0
  2  3  1  0
  3  4  1  0
  2  5  1  0
  5  6  1  0
  6  7  2  0
  6  8  1  0
  8  9  1  0
  9  2  1  0
  1 10  1  0
  1 11  1  0
  1 12  1  0
  3 13  1  0
  3 14  1  0
  4 15  1  0
  5 16  1  0
  5 17  1  0
  8 18  1  0
  8 19  1  0
M  END
