
     RDKit          3D

 19 20  0  0  0  0  0  0  0  0999 V2000
    0.6588   -1.0322   -1.0852 C   0  0  0  0  0  0  0  0  0  0  0  0
    0.5380    0.2507   -0.2638 C   0  0  0  0  0  0  0  0  0  0  0  0
    1.6416    1.0963   -0.3186 O   0  0  0  0  0  0  0  0  0  0  0  0
    2.9258    0.7766    0.0710 C   0  0  0  0  0  0  0  0  0  0  0  0
    3.1443   -0.3622    0.5143 O   0  0  0  0  0  0  0  0  0  0  0  0
   -0.7970    0.9834   -0.3790 C   0  0  0  0  0  0  0  0  0  0  0  0
   -2.0062    0.1295   -0.5640 C   0  0  0  0  0  0  0  0  0  0  0  0
   -1.6517   -0.5678    0.7525 C   0  0  0  0  0  0  0  0  0  0  0  0
   -0.4099    0.2590    0.8569 C   0  0  0  0  0  0  0  0  0  0  0  0
    1.0537   -0.8125   -2.0991 H   0  0  0  0  0  0  0  0  0  0  0  0
   -0.2852   -1.5887   -1.1296 H   0  0  0  0  0  0  0  0  0  0  0  0
    1.3725   -1.6921   -0.5122 H   0  0  0  0  0  0  0  0  0  0  0  0
    3.6872    1.5365   -0.0282 H   0  0  0  0  0  0  0  0  0  0  0  0
   -0.8223    2.0666   -0.4170 H   0  0  0  0  0  0  0  0  0  0  0  0
   -2.9492    0.6959   -0.5372 H   0  0  0  0  0  0  0  0  0  0  0  0
   -2.0051   -0.5380   -1.4454 H   0  0  0  0  0  0  0  0  0  0  0  0
   -2.4328   -0.3132    1.5159 H   0  0  0  0  0  0  0  0  0  0  0  0
   -1.5247   -1.6571    0.6606 H   0  0  0  0  0  0  0  0  0  0  0  0
   -0.1378    0.7692    1.7854 H   0  0  0  0  0  0  0  0  0  0  0  0
  1  2  1  0
  2  3  1  0
  3  4  1  0
  4  5  2  0
  2  6  1  0
  6  7  1  0
  7  8  1  0
  8  9  1  0
  9  2  1  0
  9  6  1  0
  1 10  1  0
  1 11  1  0
  1 12  1  0
  4 13  1  0
  6 14  1  0
  7 15  1  0
  7 16  1  0
  8 17  1  0
  8 18  1  0
  9 19  1  0
M  END
