
     RDKit          3D

 23 23  0  0  0  0  0  0  0  0999 V2000
   -1.8152    0.7478   -1.1882 C   0  0  0  0  0  0  0  0  0  0  0  0
   -0.9151    0.2784   -0.0853 C   0  0  0  0  0  0  0  0  0  0  0  0
   -1.6886    0.0943    1.1922 C   0  0  0  0  0  0  0  0  0  0  0  0
    0.3087    1.1447    0.0142 C   0  0  0  0  0  0  0  0  0  0  0  0
    1.1115   -0.1051    0.3039 C   0  0  0  0  0  0  0  0  0  0  0  0
    2.4155   -0.2255   -0.4192 C   0  0  0  0  0  0  0  0  0  0  0  0
    1.1792   -0.4870    1.6230 O   0  0  0  0  0  0  0  0  0  0  0  0
   -0.0093   -0.8759   -0.4099 C   0  0  0  0  0  0  0  0  0  0  0  0
   -0.3260   -2.0846    0.1698 O   0  0  0  0  0  0  0  0  0  0  0  0
   -1.4000    0.6340   -2.1897 H   0  0  0  0  0  0  0  0  0  0  0  0
   -2.0216    1.8400   -0.9901 H   0  0  0  0  0  0  0  0  0  0  0  0
   -2.8115    0.2363   -1.1069 H   0  0  0  0  0  0  0  0  0  0  0  0
   -1.1254   -0.3760    1.9994 H   0  0  0  0  0  0  0  0  0  0  0  0
   -2.1170    1.0315    1.5723 H   0  0  0  0  0  0  0  0  0  0  0  0
   -2.5367   -0.5979    0.9514 H   0  0  0  0  0  0  0  0  0  0  0  0
    0.6000    1.5190   -1.0105 H   0  0  0  0  0  0  0  0  0  0  0  0
    0.3187    1.9225    0.7708 H   0  0  0  0  0  0  0  0  0  0  0  0
    2.6590    0.6593   -1.0155 H   0  0  0  0  0  0  0  0  0  0  0  0
    2.3958   -1.1307   -1.0917 H   0  0  0  0  0  0  0  0  0  0  0  0
    3.2218   -0.4562    0.3246 H   0  0  0  0  0  0  0  0  0  0  0  0
    1.9285   -0.0515    2.0914 H   0  0  0  0  0  0  0  0  0  0  0  0
    0.1793   -1.0206   -1.4984 H   0  0  0  0  0  0  0  0  0  0  0  0
    0.4484   -2.6967   -0.0075 H   0  0  0  0  0  0  0  0  0  0  0  0
  1  2  1  0
  2  3  1  0
  2  4  1  0
  4  5  1  0
  5  6  1  0
  5  7  1  0
  5  8  1  0
  8  9  1  0
  8  2  1  0
  1 10  1  0
  1 11  1  0
  1 12  1  0
  3 13  1  0
  3 14  1  0
  3 15  1  0
  4 16  1  0
  4 17  1  0
  6 18  1  0
  6 19  1  0
  6 20  1  0
  7 21  1  0
  8 22  1  0
  9 23  1  0
M  END
