
     RDKit          3D

 21 21  0  0  0  0  0  0  0  0999 V2000
   -1.5705    0.4775   -1.2219 C   0  0  0  0  0  0  0  0  0  0  0  0
   -0.5909   -0.2146   -0.3245 C   0  0  0  0  0  0  0  0  0  0  0  0
   -1.1761   -0.3672    1.0585 C   0  0  0  0  0  0  0  0  0  0  0  0
   -0.1868   -1.4386   -0.7711 O   0  0  0  0  0  0  0  0  0  0  0  0
    1.1424   -1.6168   -0.5201 C   0  0  0  0  0  0  0  0  0  0  0  0
    1.6471   -0.4272    0.2587 C   0  0  0  0  0  0  0  0  0  0  0  0
    0.6649    0.6553   -0.2136 C   0  0  0  0  0  0  0  0  0  0  0  0
    0.5225    1.7127    0.7865 C   0  0  0  0  0  0  0  0  0  0  0  0
    0.0711    2.7920    0.4678 O   0  0  0  0  0  0  0  0  0  0  0  0
   -2.4821   -0.1531   -1.3155 H   0  0  0  0  0  0  0  0  0  0  0  0
   -1.1004    0.7281   -2.1781 H   0  0  0  0  0  0  0  0  0  0  0  0
   -1.8793    1.4158   -0.7257 H   0  0  0  0  0  0  0  0  0  0  0  0
   -0.9435    0.5126    1.6830 H   0  0  0  0  0  0  0  0  0  0  0  0
   -0.7657   -1.2911    1.5448 H   0  0  0  0  0  0  0  0  0  0  0  0
   -2.2827   -0.4820    1.0471 H   0  0  0  0  0  0  0  0  0  0  0  0
    1.6816   -1.5815   -1.5132 H   0  0  0  0  0  0  0  0  0  0  0  0
    1.3834   -2.5799   -0.0243 H   0  0  0  0  0  0  0  0  0  0  0  0
    2.6827   -0.1646    0.0294 H   0  0  0  0  0  0  0  0  0  0  0  0
    1.4462   -0.5327    1.3521 H   0  0  0  0  0  0  0  0  0  0  0  0
    0.9217    1.0082   -1.2303 H   0  0  0  0  0  0  0  0  0  0  0  0
    0.8144    1.5471    1.8101 H   0  0  0  0  0  0  0  0  0  0  0  0
  1  2  1  0
  2  3  1  0
  2  4  1  0
  4  5  1  0
  5  6  1  0
  6  7  1  0
  7  8  1  0
  8  9  2  0
  7  2  1  0
  1 10  1  0
  1 11  1  0
  1 12  1  0
  3 13  1  0
  3 14  1  0
  3 15  1  0
  5 16  1  0
  5 17  1  0
  6 18  1  0
  6 19  1  0
  7 20  1  0
  8 21  1  0
M  END
