
     RDKit          3D

 19 19  0  0  0  0  0  0  0  0999 V2000
   -1.6517   -1.1535    0.6569 C   0  0  0  0  0  0  0  0  0  0  0  0
   -0.6151   -0.1662    0.2355 C   0  0  0  0  0  0  0  0  0  0  0  0
    0.8117   -0.6000    0.4119 C   0  0  0  0  0  0  0  0  0  0  0  0
    1.6276    0.4835   -0.0491 O   0  0  0  0  0  0  0  0  0  0  0  0
    3.0149    0.3988   -0.0200 C   0  0  0  0  0  0  0  0  0  0  0  0
    3.5451   -0.6422    0.4165 O   0  0  0  0  0  0  0  0  0  0  0  0
   -0.9520    1.2318    0.6107 C   0  0  0  0  0  0  0  0  0  0  0  0
   -1.8297    1.2637   -0.4978 O   0  0  0  0  0  0  0  0  0  0  0  0
   -0.8936    0.4091   -1.1295 C   0  0  0  0  0  0  0  0  0  0  0  0
   -1.4880   -1.5763    1.6505 H   0  0  0  0  0  0  0  0  0  0  0  0
   -1.5848   -2.0227   -0.0613 H   0  0  0  0  0  0  0  0  0  0  0  0
   -2.6506   -0.7182    0.5585 H   0  0  0  0  0  0  0  0  0  0  0  0
    1.0014   -1.4612   -0.2598 H   0  0  0  0  0  0  0  0  0  0  0  0
    1.0787   -0.8004    1.4589 H   0  0  0  0  0  0  0  0  0  0  0  0
    3.5968    1.2222   -0.3701 H   0  0  0  0  0  0  0  0  0  0  0  0
   -0.1599    1.9872    0.4273 H   0  0  0  0  0  0  0  0  0  0  0  0
   -1.4601    1.3809    1.5857 H   0  0  0  0  0  0  0  0  0  0  0  0
   -1.3232   -0.2913   -1.8478 H   0  0  0  0  0  0  0  0  0  0  0  0
   -0.0673    1.0549   -1.5069 H   0  0  0  0  0  0  0  0  0  0  0  0
  1  2  1  0
  2  3  1  0
  3  4  1  0
  4  5  1  0
  5  6  2  0
  2  7  1  0
  7  8  1  0
  8  9  1  0
  9  2  1  0
  1 10  1  0
  1 11  1  0
  1 12  1  0
  3 13  1  0
  3 14  1  0
  5 15  1  0
  7 16  1  0
  7 17  1  0
  9 18  1  0
  9 19  1  0
M  END
