
     RDKit          3D

 19 20  0  0  0  0  0  0  0  0999 V2000
   -0.2875   -1.0617    1.0247 C   0  0  0  0  0  0  0  0  0  0  0  0
   -0.1590   -0.3647   -0.3040 C   0  0  0  0  0  0  0  0  0  0  0  0
   -1.3116    0.4351   -0.8366 C   0  0  0  0  0  0  0  0  0  0  0  0
   -1.7445    1.5762    0.0387 C   0  0  0  0  0  0  0  0  0  0  0  0
   -2.4823    0.3565   -0.0851 O   0  0  0  0  0  0  0  0  0  0  0  0
    0.7802   -1.0436   -1.2672 C   0  0  0  0  0  0  0  0  0  0  0  0
    1.2226    0.2332   -0.6638 C   0  0  0  0  0  0  0  0  0  0  0  0
    2.1390    0.2871    0.4734 C   0  0  0  0  0  0  0  0  0  0  0  0
    2.8658    1.2496    0.6233 O   0  0  0  0  0  0  0  0  0  0  0  0
   -0.5029   -0.3810    1.8636 H   0  0  0  0  0  0  0  0  0  0  0  0
   -1.1732   -1.7571    0.9516 H   0  0  0  0  0  0  0  0  0  0  0  0
    0.5805   -1.7218    1.1939 H   0  0  0  0  0  0  0  0  0  0  0  0
   -1.4807    0.5372   -1.9211 H   0  0  0  0  0  0  0  0  0  0  0  0
   -2.3066    2.4245   -0.3833 H   0  0  0  0  0  0  0  0  0  0  0  0
   -1.3044    1.6751    1.0412 H   0  0  0  0  0  0  0  0  0  0  0  0
    0.4352   -1.0524   -2.3021 H   0  0  0  0  0  0  0  0  0  0  0  0
    1.2781   -1.9871   -0.9571 H   0  0  0  0  0  0  0  0  0  0  0  0
    1.2385    1.0957   -1.3491 H   0  0  0  0  0  0  0  0  0  0  0  0
    2.2125   -0.5007    1.2120 H   0  0  0  0  0  0  0  0  0  0  0  0
  1  2  1  0
  2  3  1  0
  3  4  1  0
  4  5  1  0
  2  6  1  0
  6  7  1  0
  7  8  1  0
  8  9  2  0
  7  2  1  0
  5  3  1  0
  1 10  1  0
  1 11  1  0
  1 12  1  0
  3 13  1  0
  4 14  1  0
  4 15  1  0
  6 16  1  0
  6 17  1  0
  7 18  1  0
  8 19  1  0
M  END
