
     RDKit          3D

 19 19  0  0  0  0  0  0  0  0999 V2000
   -1.5399   -0.6184   -0.8223 C   0  0  0  0  0  0  0  0  0  0  0  0
   -0.5510    0.1318    0.0592 C   0  0  0  0  0  0  0  0  0  0  0  0
   -1.2445    0.9151    1.1242 C   0  0  0  0  0  0  0  0  0  0  0  0
    0.2098    1.0004   -0.7541 O   0  0  0  0  0  0  0  0  0  0  0  0
    1.4455    1.1371   -0.1099 C   0  0  0  0  0  0  0  0  0  0  0  0
    2.2984    0.0695   -0.3809 O   0  0  0  0  0  0  0  0  0  0  0  0
    1.6213   -1.1376   -0.2283 C   0  0  0  0  0  0  0  0  0  0  0  0
    0.4101   -0.8713    0.5915 C   0  0  0  0  0  0  0  0  0  0  0  0
    0.1579   -1.4114    1.6514 O   0  0  0  0  0  0  0  0  0  0  0  0
   -2.3538   -1.0548   -0.2288 H   0  0  0  0  0  0  0  0  0  0  0  0
   -1.9022    0.0150   -1.6612 H   0  0  0  0  0  0  0  0  0  0  0  0
   -1.0176   -1.4894   -1.3167 H   0  0  0  0  0  0  0  0  0  0  0  0
   -1.5857    0.2474    1.9474 H   0  0  0  0  0  0  0  0  0  0  0  0
   -0.5697    1.6954    1.5290 H   0  0  0  0  0  0  0  0  0  0  0  0
   -2.0915    1.4550    0.6504 H   0  0  0  0  0  0  0  0  0  0  0  0
    1.3322    1.1863    0.9952 H   0  0  0  0  0  0  0  0  0  0  0  0
    1.8658    2.0943   -0.4320 H   0  0  0  0  0  0  0  0  0  0  0  0
    2.2478   -1.9484    0.1659 H   0  0  0  0  0  0  0  0  0  0  0  0
    1.2670   -1.4159   -1.2642 H   0  0  0  0  0  0  0  0  0  0  0  0
  1  2  1  0
  2  3  1  0
  2  4  1  0
  4  5  1  0
  5  6  1  0
  6  7  1  0
  7  8  1  0
  8  9  2  0
  8  2  1  0
  1 10  1  0
  1 11  1  0
  1 12  1  0
  3 13  1  0
  3 14  1  0
  3 15  1  0
  5 16  1  0
  5 17  1  0
  7 18  1  0
  7 19  1  0
M  END
