
     RDKit          3D

 23 24  0  0  0  0  0  0  0  0999 V2000
   -1.8900    1.2413    0.0532 C   0  0  0  0  0  0  0  0  0  0  0  0
   -1.1334   -0.0941    0.1053 C   0  0  0  0  0  0  0  0  0  0  0  0
   -1.7610   -1.1081    1.0008 C   0  0  0  0  0  0  0  0  0  0  0  0
   -0.8236   -0.5326   -1.2966 C   0  0  0  0  0  0  0  0  0  0  0  0
    0.5689    0.0750   -1.0747 C   0  0  0  0  0  0  0  0  0  0  0  0
    1.4078   -0.6587   -0.1160 C   0  0  0  0  0  0  0  0  0  0  0  0
    2.8017   -0.1485    0.1814 C   0  0  0  0  0  0  0  0  0  0  0  0
    2.7854    1.1423    0.7068 O   0  0  0  0  0  0  0  0  0  0  0  0
    0.3018    0.1190    0.4426 C   0  0  0  0  0  0  0  0  0  0  0  0
   -1.3409    1.8363   -0.7263 H   0  0  0  0  0  0  0  0  0  0  0  0
   -1.8768    1.7107    1.0415 H   0  0  0  0  0  0  0  0  0  0  0  0
   -2.9029    1.0551   -0.3229 H   0  0  0  0  0  0  0  0  0  0  0  0
   -2.6291   -1.6231    0.5755 H   0  0  0  0  0  0  0  0  0  0  0  0
   -2.1120   -0.5674    1.9200 H   0  0  0  0  0  0  0  0  0  0  0  0
   -1.0011   -1.8353    1.3511 H   0  0  0  0  0  0  0  0  0  0  0  0
   -1.3969   -0.0737   -2.1059 H   0  0  0  0  0  0  0  0  0  0  0  0
   -0.6899   -1.6274   -1.4288 H   0  0  0  0  0  0  0  0  0  0  0  0
    0.7971    1.0515   -1.4860 H   0  0  0  0  0  0  0  0  0  0  0  0
    1.3535   -1.7775   -0.1941 H   0  0  0  0  0  0  0  0  0  0  0  0
    3.2937   -0.7977    0.9439 H   0  0  0  0  0  0  0  0  0  0  0  0
    3.4595   -0.2011   -0.7299 H   0  0  0  0  0  0  0  0  0  0  0  0
    2.2606    1.7758    0.1730 H   0  0  0  0  0  0  0  0  0  0  0  0
    0.5277    1.0382    0.9861 H   0  0  0  0  0  0  0  0  0  0  0  0
  1  2  1  0
  2  3  1  0
  2  4  1  0
  4  5  1  0
  5  6  1  0
  6  7  1  0
  7  8  1  0
  6  9  1  0
  9  2  1  0
  9  5  1  0
  1 10  1  0
  1 11  1  0
  1 12  1  0
  3 13  1  0
  3 14  1  0
  3 15  1  0
  4 16  1  0
  4 17  1  0
  5 18  1  0
  6 19  1  0
  7 20  1  0
  7 21  1  0
  8 22  1  0
  9 23  1  0
M  END
