
     RDKit          3D

 17 18  0  0  0  0  0  0  0  0999 V2000
   -0.0892    1.0842    1.0785 C   0  0  0  0  0  0  0  0  0  0  0  0
    0.0261    0.0049    0.0561 C   0  0  0  0  0  0  0  0  0  0  0  0
    1.4116   -0.3364   -0.3796 C   0  0  0  0  0  0  0  0  0  0  0  0
    2.1011    0.7156   -0.9477 O   0  0  0  0  0  0  0  0  0  0  0  0
   -0.8328   -1.2009    0.2345 C   0  0  0  0  0  0  0  0  0  0  0  0
   -0.7736   -1.3244   -1.1661 O   0  0  0  0  0  0  0  0  0  0  0  0
   -1.0340    0.0271   -1.0047 C   0  0  0  0  0  0  0  0  0  0  0  0
   -1.9847   -0.3550    0.0218 C   0  0  0  0  0  0  0  0  0  0  0  0
   -3.0717   -0.1845    0.5198 O   0  0  0  0  0  0  0  0  0  0  0  0
    0.7533    0.9524    1.8135 H   0  0  0  0  0  0  0  0  0  0  0  0
    0.0260    2.0704    0.5521 H   0  0  0  0  0  0  0  0  0  0  0  0
   -1.0683    1.0274    1.6196 H   0  0  0  0  0  0  0  0  0  0  0  0
    1.9702   -0.6880    0.5173 H   0  0  0  0  0  0  0  0  0  0  0  0
    1.3355   -1.2122   -1.0807 H   0  0  0  0  0  0  0  0  0  0  0  0
    3.0565    0.6720   -0.6533 H   0  0  0  0  0  0  0  0  0  0  0  0
   -0.6962   -1.9624    0.8778 H   0  0  0  0  0  0  0  0  0  0  0  0
   -1.1299    0.7099   -1.7396 H   0  0  0  0  0  0  0  0  0  0  0  0
  1  2  1  0
  2  3  1  0
  3  4  1  0
  2  5  1  0
  5  6  1  0
  6  7  1  0
  7  8  1  0
  8  9  2  0
  7  2  1  0
  8  5  1  0
  1 10  1  0
  1 11  1  0
  1 12  1  0
  3 13  1  0
  3 14  1  0
  4 15  1  0
  5 16  1  0
  7 17  1  0
M  END
