
     RDKit          3D

 18 18  0  0  0  0  0  0  0  0999 V2000
    1.5088   -0.5572    0.9523 C   0  0  0  0  0  0  0  0  0  0  0  0
    0.5473    0.2538    0.0867 C   0  0  0  0  0  0  0  0  0  0  0  0
    1.3689    1.1306   -0.7663 C   0  0  0  0  0  0  0  0  0  0  0  0
    1.2056    2.3259   -0.7424 O   0  0  0  0  0  0  0  0  0  0  0  0
   -0.2331   -0.7541   -0.7256 C   0  0  0  0  0  0  0  0  0  0  0  0
   -1.5886   -0.6933   -0.0081 C   0  0  0  0  0  0  0  0  0  0  0  0
   -1.6118    0.8034    0.2844 C   0  0  0  0  0  0  0  0  0  0  0  0
   -0.3390    0.9829    0.8287 O   0  0  0  0  0  0  0  0  0  0  0  0
    0.9733   -1.4945    1.2404 H   0  0  0  0  0  0  0  0  0  0  0  0
    1.8163    0.0471    1.8063 H   0  0  0  0  0  0  0  0  0  0  0  0
    2.3766   -0.8606    0.3240 H   0  0  0  0  0  0  0  0  0  0  0  0
    2.1320    0.7232   -1.4286 H   0  0  0  0  0  0  0  0  0  0  0  0
    0.1931   -1.7532   -0.7244 H   0  0  0  0  0  0  0  0  0  0  0  0
   -0.4122   -0.3179   -1.7251 H   0  0  0  0  0  0  0  0  0  0  0  0
   -1.4921   -1.2206    0.9562 H   0  0  0  0  0  0  0  0  0  0  0  0
   -2.4097   -1.0218   -0.6379 H   0  0  0  0  0  0  0  0  0  0  0  0
   -2.3980    1.0911    0.9747 H   0  0  0  0  0  0  0  0  0  0  0  0
   -1.6373    1.3150   -0.6953 H   0  0  0  0  0  0  0  0  0  0  0  0
  1  2  1  0
  2  3  1  0
  3  4  2  0
  2  5  1  0
  5  6  1  0
  6  7  1  0
  7  8  1  0
  8  2  1  0
  1  9  1  0
  1 10  1  0
  1 11  1  0
  3 12  1  0
  5 13  1  0
  5 14  1  0
  6 15  1  0
  6 16  1  0
  7 17  1  0
  7 18  1  0
M  END
