
     RDKit          3D

 21 22  0  0  0  0  0  0  0  0999 V2000
   -2.3993    0.5219   -0.3581 C   0  0  0  0  0  0  0  0  0  0  0  0
   -1.0762    0.2064    0.2623 C   0  0  0  0  0  0  0  0  0  0  0  0
   -1.0941    0.3619    1.6425 O   0  0  0  0  0  0  0  0  0  0  0  0
   -0.6476   -1.2439   -0.0016 C   0  0  0  0  0  0  0  0  0  0  0  0
    0.8325   -1.1359    0.3925 C   0  0  0  0  0  0  0  0  0  0  0  0
    1.2514    0.0659   -0.4092 C   0  0  0  0  0  0  0  0  0  0  0  0
    2.6532    0.5885   -0.3010 C   0  0  0  0  0  0  0  0  0  0  0  0
    0.5490    0.4007   -1.5653 O   0  0  0  0  0  0  0  0  0  0  0  0
    0.0758    0.9557   -0.3844 C   0  0  0  0  0  0  0  0  0  0  0  0
   -3.1066   -0.3379   -0.3105 H   0  0  0  0  0  0  0  0  0  0  0  0
   -2.8586    1.3561    0.2292 H   0  0  0  0  0  0  0  0  0  0  0  0
   -2.2446    0.9100   -1.3728 H   0  0  0  0  0  0  0  0  0  0  0  0
   -1.3785   -0.5096    2.0334 H   0  0  0  0  0  0  0  0  0  0  0  0
   -1.1781   -1.9535    0.6404 H   0  0  0  0  0  0  0  0  0  0  0  0
   -0.7044   -1.4839   -1.0871 H   0  0  0  0  0  0  0  0  0  0  0  0
    1.3888   -2.0445    0.1795 H   0  0  0  0  0  0  0  0  0  0  0  0
    0.8284   -0.8488    1.4745 H   0  0  0  0  0  0  0  0  0  0  0  0
    2.9286    1.1809   -1.1961 H   0  0  0  0  0  0  0  0  0  0  0  0
    3.3211   -0.3075   -0.1840 H   0  0  0  0  0  0  0  0  0  0  0  0
    2.6981    1.2705    0.5588 H   0  0  0  0  0  0  0  0  0  0  0  0
    0.1612    2.0470   -0.2432 H   0  0  0  0  0  0  0  0  0  0  0  0
  1  2  1  0
  2  3  1  0
  2  4  1  0
  4  5  1  0
  5  6  1  0
  6  7  1  0
  6  8  1  0
  8  9  1  0
  9  2  1  0
  9  6  1  0
  1 10  1  0
  1 11  1  0
  1 12  1  0
  3 13  1  0
  4 14  1  0
  4 15  1  0
  5 16  1  0
  5 17  1  0
  7 18  1  0
  7 19  1  0
  7 20  1  0
  9 21  1  0
M  END
