
     RDKit          3D

 21 22  0  0  0  0  0  0  0  0999 V2000
    1.8696   -0.9697   -0.5712 C   0  0  0  0  0  0  0  0  0  0  0  0
    0.9583    0.0763   -0.0182 C   0  0  0  0  0  0  0  0  0  0  0  0
   -0.5162   -0.1924    0.1299 C   0  0  0  0  0  0  0  0  0  0  0  0
   -0.8880   -1.3461    1.0269 C   0  0  0  0  0  0  0  0  0  0  0  0
   -1.3901    1.0783    0.2074 C   0  0  0  0  0  0  0  0  0  0  0  0
   -1.4694    0.0984   -0.9646 C   0  0  0  0  0  0  0  0  0  0  0  0
   -1.0671    0.6416   -2.1678 O   0  0  0  0  0  0  0  0  0  0  0  0
    1.5538    1.0282    0.9454 C   0  0  0  0  0  0  0  0  0  0  0  0
    1.3274    1.4019   -0.4387 O   0  0  0  0  0  0  0  0  0  0  0  0
    1.8086   -1.9348   -0.0604 H   0  0  0  0  0  0  0  0  0  0  0  0
    1.5834   -1.1183   -1.6479 H   0  0  0  0  0  0  0  0  0  0  0  0
    2.9025   -0.5727   -0.5419 H   0  0  0  0  0  0  0  0  0  0  0  0
   -0.8369   -2.2829    0.4641 H   0  0  0  0  0  0  0  0  0  0  0  0
   -1.9687   -1.1826    1.3069 H   0  0  0  0  0  0  0  0  0  0  0  0
   -0.2465   -1.3294    1.9346 H   0  0  0  0  0  0  0  0  0  0  0  0
   -0.8832    2.0489    0.0390 H   0  0  0  0  0  0  0  0  0  0  0  0
   -2.1801    1.0493    0.9658 H   0  0  0  0  0  0  0  0  0  0  0  0
   -2.4113   -0.4528   -1.0030 H   0  0  0  0  0  0  0  0  0  0  0  0
   -1.7455    1.3569   -2.3894 H   0  0  0  0  0  0  0  0  0  0  0  0
    0.9583    1.6272    1.6428 H   0  0  0  0  0  0  0  0  0  0  0  0
    2.6411    0.9746    1.1401 H   0  0  0  0  0  0  0  0  0  0  0  0
  1  2  1  0
  2  3  1  0
  3  4  1  0
  3  5  1  0
  5  6  1  0
  6  7  1  0
  2  8  1  0
  8  9  1  0
  9  2  1  0
  6  3  1  0
  1 10  1  0
  1 11  1  0
  1 12  1  0
  4 13  1  0
  4 14  1  0
  4 15  1  0
  5 16  1  0
  5 17  1  0
  6 18  1  0
  7 19  1  0
  8 20  1  0
  8 21  1  0
M  END
