
     RDKit          3D

 19 20  0  0  0  0  0  0  0  0999 V2000
   -1.3268   -1.0465   -0.1457 C   0  0  0  0  0  0  0  0  0  0  0  0
   -0.6526    0.2824    0.0738 C   0  0  0  0  0  0  0  0  0  0  0  0
   -1.6364    1.3979    0.4215 C   0  0  0  0  0  0  0  0  0  0  0  0
    0.5366    0.7000   -0.6740 C   0  0  0  0  0  0  0  0  0  0  0  0
    1.4515   -0.2375   -1.3287 C   0  0  0  0  0  0  0  0  0  0  0  0
    2.0225   -1.0654   -0.4691 C   0  0  0  0  0  0  0  0  0  0  0  0
    1.5535   -0.7793    0.8837 C   0  0  0  0  0  0  0  0  0  0  0  0
    1.8838   -1.3955    1.9255 O   0  0  0  0  0  0  0  0  0  0  0  0
    0.6272    0.3519    0.8317 C   0  0  0  0  0  0  0  0  0  0  0  0
   -2.2081   -0.8852   -0.8132 H   0  0  0  0  0  0  0  0  0  0  0  0
   -0.6828   -1.8137   -0.5756 H   0  0  0  0  0  0  0  0  0  0  0  0
   -1.7725   -1.3546    0.8430 H   0  0  0  0  0  0  0  0  0  0  0  0
   -2.1027    1.1744    1.4091 H   0  0  0  0  0  0  0  0  0  0  0  0
   -2.4504    1.3926   -0.3158 H   0  0  0  0  0  0  0  0  0  0  0  0
   -1.1421    2.3872    0.4130 H   0  0  0  0  0  0  0  0  0  0  0  0
    0.6609    1.7960   -0.9175 H   0  0  0  0  0  0  0  0  0  0  0  0
    1.6562   -0.2732   -2.3848 H   0  0  0  0  0  0  0  0  0  0  0  0
    2.7419   -1.8619   -0.6740 H   0  0  0  0  0  0  0  0  0  0  0  0
    0.8402    1.2304    1.4972 H   0  0  0  0  0  0  0  0  0  0  0  0
  1  2  1  0
  2  3  1  0
  2  4  1  0
  4  5  1  0
  5  6  2  0
  6  7  1  0
  7  8  2  0
  7  9  1  0
  9  2  1  0
  9  4  1  0
  1 10  1  0
  1 11  1  0
  1 12  1  0
  3 13  1  0
  3 14  1  0
  3 15  1  0
  4 16  1  0
  5 17  1  0
  6 18  1  0
  9 19  1  0
M  END
