
     RDKit          3D

 17 18  0  0  0  0  0  0  0  0999 V2000
    1.0174    1.5561    0.3067 C   0  0  0  0  0  0  0  0  0  0  0  0
    0.3188    0.2339    0.2725 C   0  0  0  0  0  0  0  0  0  0  0  0
    1.0591   -0.9625    0.1582 O   0  0  0  0  0  0  0  0  0  0  0  0
    1.8690   -1.1891   -0.9319 C   0  0  0  0  0  0  0  0  0  0  0  0
    1.8986   -0.2732   -1.7957 O   0  0  0  0  0  0  0  0  0  0  0  0
   -1.0665    0.2124   -0.2366 C   0  0  0  0  0  0  0  0  0  0  0  0
   -1.7842   -1.1320   -0.1938 C   0  0  0  0  0  0  0  0  0  0  0  0
   -1.5296   -1.1517    1.1839 O   0  0  0  0  0  0  0  0  0  0  0  0
   -0.8768    0.0555    1.2198 C   0  0  0  0  0  0  0  0  0  0  0  0
    0.3000    2.3009    0.7361 H   0  0  0  0  0  0  0  0  0  0  0  0
    1.9051    1.5853    0.9455 H   0  0  0  0  0  0  0  0  0  0  0  0
    1.1966    1.8779   -0.7360 H   0  0  0  0  0  0  0  0  0  0  0  0
    2.4586   -2.1096   -1.0519 H   0  0  0  0  0  0  0  0  0  0  0  0
   -1.6052    1.1001   -0.5659 H   0  0  0  0  0  0  0  0  0  0  0  0
   -2.8626   -1.0750   -0.4623 H   0  0  0  0  0  0  0  0  0  0  0  0
   -1.1912   -1.8661   -0.7847 H   0  0  0  0  0  0  0  0  0  0  0  0
   -1.1072    0.8369    1.9359 H   0  0  0  0  0  0  0  0  0  0  0  0
  1  2  1  0
  2  3  1  0
  3  4  1  0
  4  5  2  0
  2  6  1  0
  6  7  1  0
  7  8  1  0
  8  9  1  0
  9  2  1  0
  9  6  1  0
  1 10  1  0
  1 11  1  0
  1 12  1  0
  4 13  1  0
  6 14  1  0
  7 15  1  0
  7 16  1  0
  9 17  1  0
M  END
