
     RDKit          3D

 21 22  0  0  0  0  0  0  0  0999 V2000
   -1.5780    1.2706    0.4821 C   0  0  0  0  0  0  0  0  0  0  0  0
   -1.4245    0.0207   -0.3710 C   0  0  0  0  0  0  0  0  0  0  0  0
   -2.6061   -0.8929   -0.3869 C   0  0  0  0  0  0  0  0  0  0  0  0
   -0.8340    0.1832   -1.6397 O   0  0  0  0  0  0  0  0  0  0  0  0
   -0.1075   -0.5105   -0.5459 C   0  0  0  0  0  0  0  0  0  0  0  0
    1.1671    0.1899   -0.2955 C   0  0  0  0  0  0  0  0  0  0  0  0
    2.4188   -0.6430   -0.5975 C   0  0  0  0  0  0  0  0  0  0  0  0
    2.1204   -0.1788    0.7639 C   0  0  0  0  0  0  0  0  0  0  0  0
    2.9452    0.8315    1.2523 O   0  0  0  0  0  0  0  0  0  0  0  0
   -1.8311    0.9522    1.5107 H   0  0  0  0  0  0  0  0  0  0  0  0
   -2.3622    1.9433    0.1029 H   0  0  0  0  0  0  0  0  0  0  0  0
   -0.6243    1.8415    0.5362 H   0  0  0  0  0  0  0  0  0  0  0  0
   -2.6384   -1.5465   -1.2963 H   0  0  0  0  0  0  0  0  0  0  0  0
   -3.5496   -0.3079   -0.4148 H   0  0  0  0  0  0  0  0  0  0  0  0
   -2.6023   -1.5647    0.5080 H   0  0  0  0  0  0  0  0  0  0  0  0
   -0.0312   -1.6144   -0.7219 H   0  0  0  0  0  0  0  0  0  0  0  0
    1.2015    1.2711   -0.6119 H   0  0  0  0  0  0  0  0  0  0  0  0
    2.2858   -1.7179   -0.8123 H   0  0  0  0  0  0  0  0  0  0  0  0
    3.1654   -0.1477   -1.2480 H   0  0  0  0  0  0  0  0  0  0  0  0
    1.8093   -0.9239    1.5278 H   0  0  0  0  0  0  0  0  0  0  0  0
    3.0754    1.5443    0.5689 H   0  0  0  0  0  0  0  0  0  0  0  0
  1  2  1  0
  2  3  1  0
  2  4  1  0
  4  5  1  0
  5  6  1  0
  6  7  1  0
  7  8  1  0
  8  9  1  0
  5  2  1  0
  8  6  1  0
  1 10  1  0
  1 11  1  0
  1 12  1  0
  3 13  1  0
  3 14  1  0
  3 15  1  0
  5 16  1  0
  6 17  1  0
  7 18  1  0
  7 19  1  0
  8 20  1  0
  9 21  1  0
M  END
