
     RDKit          3D

 17 17  0  0  0  0  0  0  0  0999 V2000
   -0.4590    1.7445   -0.1118 C   0  0  0  0  0  0  0  0  0  0  0  0
   -0.1814    0.2427   -0.0743 C   0  0  0  0  0  0  0  0  0  0  0  0
   -1.5232   -0.4517   -0.1512 C   0  0  0  0  0  0  0  0  0  0  0  0
   -1.4287   -1.8239   -0.0389 O   0  0  0  0  0  0  0  0  0  0  0  0
    0.6644   -0.1619   -1.0642 O   0  0  0  0  0  0  0  0  0  0  0  0
    1.7734   -0.7589   -0.5024 C   0  0  0  0  0  0  0  0  0  0  0  0
    1.7517   -0.3121    0.9090 C   0  0  0  0  0  0  0  0  0  0  0  0
    2.7036   -0.1750    1.7285 O   0  0  0  0  0  0  0  0  0  0  0  0
    0.3967   -0.0575    1.1721 O   0  0  0  0  0  0  0  0  0  0  0  0
    0.1404    2.2340   -0.9084 H   0  0  0  0  0  0  0  0  0  0  0  0
   -0.2181    2.2167    0.8762 H   0  0  0  0  0  0  0  0  0  0  0  0
   -1.5202    1.9650   -0.3108 H   0  0  0  0  0  0  0  0  0  0  0  0
   -2.0574   -0.1471   -1.0827 H   0  0  0  0  0  0  0  0  0  0  0  0
   -2.1428   -0.0102    0.6836 H   0  0  0  0  0  0  0  0  0  0  0  0
   -2.2773   -2.1255    0.4176 H   0  0  0  0  0  0  0  0  0  0  0  0
    1.6559   -1.8711   -0.5662 H   0  0  0  0  0  0  0  0  0  0  0  0
    2.7222   -0.5080   -0.9760 H   0  0  0  0  0  0  0  0  0  0  0  0
  1  2  1  0
  2  3  1  0
  3  4  1  0
  2  5  1  0
  5  6  1  0
  6  7  1  0
  7  8  2  0
  7  9  1  0
  9  2  1  0
  1 10  1  0
  1 11  1  0
  1 12  1  0
  3 13  1  0
  3 14  1  0
  4 15  1  0
  6 16  1  0
  6 17  1  0
M  END
