
     RDKit          3D

 19 21  0  0  0  0  0  0  0  0999 V2000
    2.1203    0.4488    0.0952 C   0  0  0  0  0  0  0  0  0  0  0  0
    0.7085    0.0490    0.3834 C   0  0  0  0  0  0  0  0  0  0  0  0
    0.5107   -0.3213    1.7299 O   0  0  0  0  0  0  0  0  0  0  0  0
   -0.3647    0.9289   -0.1887 C   0  0  0  0  0  0  0  0  0  0  0  0
   -1.6538    0.7725    0.6201 C   0  0  0  0  0  0  0  0  0  0  0  0
   -1.9271   -0.5725    0.6301 O   0  0  0  0  0  0  0  0  0  0  0  0
   -1.3319   -1.1557   -0.4862 C   0  0  0  0  0  0  0  0  0  0  0  0
   -0.6084   -0.1217   -1.2360 C   0  0  0  0  0  0  0  0  0  0  0  0
    0.1644   -1.0775   -0.4885 C   0  0  0  0  0  0  0  0  0  0  0  0
    2.2807    1.5435    0.2379 H   0  0  0  0  0  0  0  0  0  0  0  0
    2.3841    0.1049   -0.9219 H   0  0  0  0  0  0  0  0  0  0  0  0
    2.7969   -0.0429    0.8424 H   0  0  0  0  0  0  0  0  0  0  0  0
    0.7264   -1.2952    1.8181 H   0  0  0  0  0  0  0  0  0  0  0  0
   -0.1107    1.9258   -0.5043 H   0  0  0  0  0  0  0  0  0  0  0  0
   -2.4327    1.3245    0.0147 H   0  0  0  0  0  0  0  0  0  0  0  0
   -1.5583    1.2184    1.6297 H   0  0  0  0  0  0  0  0  0  0  0  0
   -1.8612   -1.9411   -1.0338 H   0  0  0  0  0  0  0  0  0  0  0  0
   -0.6460    0.0691   -2.2823 H   0  0  0  0  0  0  0  0  0  0  0  0
    0.8030   -1.8574   -0.8597 H   0  0  0  0  0  0  0  0  0  0  0  0
  1  2  1  0
  2  3  1  0
  2  4  1  0
  4  5  1  0
  5  6  1  0
  6  7  1  0
  7  8  1  0
  8  9  1  0
  9  2  1  0
  8  4  1  0
  9  7  1  0
  1 10  1  0
  1 11  1  0
  1 12  1  0
  3 13  1  0
  4 14  1  0
  5 15  1  0
  5 16  1  0
  7 17  1  0
  8 18  1  0
  9 19  1  0
M  END
