
     RDKit          3D

 21 23  0  0  0  0  0  0  0  0999 V2000
   -0.0115    1.2235    1.1385 C   0  0  0  0  0  0  0  0  0  0  0  0
    0.1089    0.2490   -0.0176 C   0  0  0  0  0  0  0  0  0  0  0  0
    1.5204   -0.0433   -0.3426 C   0  0  0  0  0  0  0  0  0  0  0  0
    2.4871   -0.6156    0.5500 C   0  0  0  0  0  0  0  0  0  0  0  0
    2.4715    0.8575    0.2897 O   0  0  0  0  0  0  0  0  0  0  0  0
   -0.6691    0.6617   -1.2518 C   0  0  0  0  0  0  0  0  0  0  0  0
   -1.4369   -0.6326   -1.1363 C   0  0  0  0  0  0  0  0  0  0  0  0
   -2.2779   -0.7498    0.0755 C   0  0  0  0  0  0  0  0  0  0  0  0
   -0.8087   -0.9319    0.1748 C   0  0  0  0  0  0  0  0  0  0  0  0
    0.9272    1.1340    1.7570 H   0  0  0  0  0  0  0  0  0  0  0  0
   -0.0198    2.2390    0.7029 H   0  0  0  0  0  0  0  0  0  0  0  0
   -0.8598    1.0009    1.7915 H   0  0  0  0  0  0  0  0  0  0  0  0
    1.7406   -0.1460   -1.4455 H   0  0  0  0  0  0  0  0  0  0  0  0
    3.4304   -0.9908    0.1501 H   0  0  0  0  0  0  0  0  0  0  0  0
    2.2676   -0.8070    1.6113 H   0  0  0  0  0  0  0  0  0  0  0  0
   -1.3773    1.5123   -1.0318 H   0  0  0  0  0  0  0  0  0  0  0  0
   -0.0652    0.7881   -2.1628 H   0  0  0  0  0  0  0  0  0  0  0  0
   -1.3586   -1.4046   -1.8965 H   0  0  0  0  0  0  0  0  0  0  0  0
   -2.7353    0.1984    0.4308 H   0  0  0  0  0  0  0  0  0  0  0  0
   -2.9071   -1.6307    0.1619 H   0  0  0  0  0  0  0  0  0  0  0  0
   -0.4264   -1.9121    0.4508 H   0  0  0  0  0  0  0  0  0  0  0  0
  1  2  1  0
  2  3  1  0
  3  4  1  0
  4  5  1  0
  2  6  1  0
  6  7  1  0
  7  8  1  0
  8  9  1  0
  9  2  1  0
  5  3  1  0
  9  7  1  0
  1 10  1  0
  1 11  1  0
  1 12  1  0
  3 13  1  0
  4 14  1  0
  4 15  1  0
  6 16  1  0
  6 17  1  0
  7 18  1  0
  8 19  1  0
  8 20  1  0
  9 21  1  0
M  END
