
     RDKit          3D

 23 24  0  0  0  0  0  0  0  0999 V2000
   -2.2723   -0.5394   -1.2858 C   0  0  0  0  0  0  0  0  0  0  0  0
   -1.8459    0.2222   -0.0468 C   0  0  0  0  0  0  0  0  0  0  0  0
   -2.8924    0.3053    1.0440 C   0  0  0  0  0  0  0  0  0  0  0  0
   -1.2284    1.5021   -0.3011 O   0  0  0  0  0  0  0  0  0  0  0  0
   -0.4762    0.3845    0.3234 C   0  0  0  0  0  0  0  0  0  0  0  0
    0.7089    0.0538   -0.4965 C   0  0  0  0  0  0  0  0  0  0  0  0
    1.9870    0.3693    0.2430 C   0  0  0  0  0  0  0  0  0  0  0  0
    3.2770    0.0611   -0.5245 C   0  0  0  0  0  0  0  0  0  0  0  0
    2.8788   -0.7202    0.7104 C   0  0  0  0  0  0  0  0  0  0  0  0
   -2.1587    0.0593   -2.2121 H   0  0  0  0  0  0  0  0  0  0  0  0
   -1.6538   -1.4764   -1.3877 H   0  0  0  0  0  0  0  0  0  0  0  0
   -3.3292   -0.8992   -1.2119 H   0  0  0  0  0  0  0  0  0  0  0  0
   -3.5049    1.2211    0.9697 H   0  0  0  0  0  0  0  0  0  0  0  0
   -3.5835   -0.5589    1.0093 H   0  0  0  0  0  0  0  0  0  0  0  0
   -2.4106    0.3018    2.0531 H   0  0  0  0  0  0  0  0  0  0  0  0
   -0.2536    0.6556    1.3889 H   0  0  0  0  0  0  0  0  0  0  0  0
    0.7240    0.6675   -1.4140 H   0  0  0  0  0  0  0  0  0  0  0  0
    0.6962   -0.9997   -0.8579 H   0  0  0  0  0  0  0  0  0  0  0  0
    1.9683    1.3129    0.8239 H   0  0  0  0  0  0  0  0  0  0  0  0
    3.1769   -0.4204   -1.5189 H   0  0  0  0  0  0  0  0  0  0  0  0
    4.1187    0.7979   -0.4051 H   0  0  0  0  0  0  0  0  0  0  0  0
    2.5863   -1.7780    0.5374 H   0  0  0  0  0  0  0  0  0  0  0  0
    3.4876   -0.5222    1.6244 H   0  0  0  0  0  0  0  0  0  0  0  0
  1  2  1  0
  2  3  1  0
  2  4  1  0
  4  5  1  0
  5  6  1  0
  6  7  1  0
  7  8  1  0
  8  9  1  0
  5  2  1  0
  9  7  1  0
  1 10  1  0
  1 11  1  0
  1 12  1  0
  3 13  1  0
  3 14  1  0
  3 15  1  0
  5 16  1  0
  6 17  1  0
  6 18  1  0
  7 19  1  0
  8 20  1  0
  8 21  1  0
  9 22  1  0
  9 23  1  0
M  END
