
     RDKit          3D

 18 19  0  0  0  0  0  0  0  0999 V2000
    1.8143    0.3510   -0.6475 C   0  0  0  0  0  0  0  0  0  0  0  0
    0.6796   -0.0169    0.2757 C   0  0  0  0  0  0  0  0  0  0  0  0
    1.2531   -0.7722    1.3350 O   0  0  0  0  0  0  0  0  0  0  0  0
    0.0336    1.1381    0.8958 C   0  0  0  0  0  0  0  0  0  0  0  0
   -1.2648    0.9557    0.9352 C   0  0  0  0  0  0  0  0  0  0  0  0
   -1.6385   -0.3472    0.3422 C   0  0  0  0  0  0  0  0  0  0  0  0
   -1.5037   -0.3916   -1.1308 C   0  0  0  0  0  0  0  0  0  0  0  0
   -0.3634   -0.8500   -0.3305 C   0  0  0  0  0  0  0  0  0  0  0  0
    2.0447   -0.5321   -1.2798 H   0  0  0  0  0  0  0  0  0  0  0  0
    1.5893    1.2043   -1.3004 H   0  0  0  0  0  0  0  0  0  0  0  0
    2.6997    0.5516    0.0109 H   0  0  0  0  0  0  0  0  0  0  0  0
    1.9812   -1.3410    1.0212 H   0  0  0  0  0  0  0  0  0  0  0  0
    0.5867    2.0414    1.2767 H   0  0  0  0  0  0  0  0  0  0  0  0
   -2.0023    1.6470    1.3416 H   0  0  0  0  0  0  0  0  0  0  0  0
   -2.1682   -1.1029    0.9228 H   0  0  0  0  0  0  0  0  0  0  0  0
   -1.4783    0.5748   -1.6941 H   0  0  0  0  0  0  0  0  0  0  0  0
   -2.0855   -1.1577   -1.6623 H   0  0  0  0  0  0  0  0  0  0  0  0
   -0.1774   -1.9523   -0.3117 H   0  0  0  0  0  0  0  0  0  0  0  0
  1  2  1  0
  2  3  1  0
  2  4  1  0
  4  5  2  0
  5  6  1  0
  6  7  1  0
  7  8  1  0
  8  2  1  0
  8  6  1  0
  1  9  1  0
  1 10  1  0
  1 11  1  0
  3 12  1  0
  4 13  1  0
  5 14  1  0
  6 15  1  0
  7 16  1  0
  7 17  1  0
  8 18  1  0
M  END
