
     RDKit          3D

 17 18  0  0  0  0  0  0  0  0999 V2000
    1.7611    0.4592    0.1008 C   0  0  0  0  0  0  0  0  0  0  0  0
    0.4206    0.1402   -0.4624 C   0  0  0  0  0  0  0  0  0  0  0  0
    0.0099    0.8245   -1.5758 O   0  0  0  0  0  0  0  0  0  0  0  0
    0.1081   -1.3189   -0.4039 C   0  0  0  0  0  0  0  0  0  0  0  0
   -1.3427   -0.9558   -0.4437 C   0  0  0  0  0  0  0  0  0  0  0  0
   -0.6592   -0.0639    0.5617 C   0  0  0  0  0  0  0  0  0  0  0  0
   -1.2519    0.8927    1.3183 C   0  0  0  0  0  0  0  0  0  0  0  0
   -1.2567    0.9064    2.5599 O   0  0  0  0  0  0  0  0  0  0  0  0
    0.0265   -1.1642    0.9814 O   0  0  0  0  0  0  0  0  0  0  0  0
    2.3985   -0.4637    0.0278 H   0  0  0  0  0  0  0  0  0  0  0  0
    2.3010    1.2708   -0.4028 H   0  0  0  0  0  0  0  0  0  0  0  0
    1.6848    0.7250    1.1896 H   0  0  0  0  0  0  0  0  0  0  0  0
    0.7269    1.2366   -2.0997 H   0  0  0  0  0  0  0  0  0  0  0  0
    0.5675   -2.0703   -0.8917 H   0  0  0  0  0  0  0  0  0  0  0  0
   -1.7017   -0.4483   -1.3464 H   0  0  0  0  0  0  0  0  0  0  0  0
   -2.0063   -1.7197    0.0020 H   0  0  0  0  0  0  0  0  0  0  0  0
   -1.7862    1.7495    0.8851 H   0  0  0  0  0  0  0  0  0  0  0  0
  1  2  1  0
  2  3  1  0
  2  4  1  0
  4  5  1  0
  5  6  1  0
  6  7  1  0
  7  8  2  0
  6  9  1  0
  6  2  1  0
  9  4  1  0
  1 10  1  0
  1 11  1  0
  1 12  1  0
  3 13  1  0
  4 14  1  0
  5 15  1  0
  5 16  1  0
  7 17  1  0
M  END
