
     RDKit          3D

 18 18  0  0  0  0  0  0  0  0999 V2000
   -1.9483    0.3001   -1.2460 C   0  0  0  0  0  0  0  0  0  0  0  0
   -1.0454   -0.2598   -0.1629 C   0  0  0  0  0  0  0  0  0  0  0  0
    0.2862    0.3521   -0.0497 C   0  0  0  0  0  0  0  0  0  0  0  0
    1.3725    0.8623    0.0591 C   0  0  0  0  0  0  0  0  0  0  0  0
    2.6998    1.4635    0.2066 C   0  0  0  0  0  0  0  0  0  0  0  0
    3.4775    0.5599    0.9310 O   0  0  0  0  0  0  0  0  0  0  0  0
   -1.1300   -1.7833   -0.0005 C   0  0  0  0  0  0  0  0  0  0  0  0
   -1.6092   -0.8381    1.0599 C   0  0  0  0  0  0  0  0  0  0  0  0
   -1.6745    1.3504   -1.4730 H   0  0  0  0  0  0  0  0  0  0  0  0
   -1.8068   -0.3555   -2.1461 H   0  0  0  0  0  0  0  0  0  0  0  0
   -3.0188    0.2272   -0.9881 H   0  0  0  0  0  0  0  0  0  0  0  0
    2.6449    2.4515    0.6859 H   0  0  0  0  0  0  0  0  0  0  0  0
    3.1515    1.6435   -0.8102 H   0  0  0  0  0  0  0  0  0  0  0  0
    4.2947    0.3410    0.4201 H   0  0  0  0  0  0  0  0  0  0  0  0
   -0.1419   -2.2703    0.0952 H   0  0  0  0  0  0  0  0  0  0  0  0
   -1.8769   -2.3153   -0.6165 H   0  0  0  0  0  0  0  0  0  0  0  0
   -2.6999   -0.8878    1.2473 H   0  0  0  0  0  0  0  0  0  0  0  0
   -0.9752   -0.8415    1.9802 H   0  0  0  0  0  0  0  0  0  0  0  0
  1  2  1  0
  2  3  1  0
  3  4  3  0
  4  5  1  0
  5  6  1  0
  2  7  1  0
  7  8  1  0
  8  2  1  0
  1  9  1  0
  1 10  1  0
  1 11  1  0
  5 12  1  0
  5 13  1  0
  6 14  1  0
  7 15  1  0
  7 16  1  0
  8 17  1  0
  8 18  1  0
M  END
