
     RDKit          3D

 22 22  0  0  0  0  0  0  0  0999 V2000
   -1.9452   -1.1401   -0.1260 C   0  0  0  0  0  0  0  0  0  0  0  0
   -1.0258    0.0406   -0.0829 C   0  0  0  0  0  0  0  0  0  0  0  0
   -1.7726    1.3535   -0.0827 C   0  0  0  0  0  0  0  0  0  0  0  0
    0.0987   -0.0427    0.9263 C   0  0  0  0  0  0  0  0  0  0  0  0
    1.0373    0.4271   -0.1583 C   0  0  0  0  0  0  0  0  0  0  0  0
    2.3355   -0.3325   -0.2629 C   0  0  0  0  0  0  0  0  0  0  0  0
    3.0673   -0.2565    0.9048 O   0  0  0  0  0  0  0  0  0  0  0  0
    0.0222   -0.0804   -1.1730 C   0  0  0  0  0  0  0  0  0  0  0  0
   -2.5696   -1.0257   -1.0567 H   0  0  0  0  0  0  0  0  0  0  0  0
   -1.3380   -2.0526   -0.3029 H   0  0  0  0  0  0  0  0  0  0  0  0
   -2.6168   -1.2302    0.7298 H   0  0  0  0  0  0  0  0  0  0  0  0
   -1.1596    2.2077    0.2390 H   0  0  0  0  0  0  0  0  0  0  0  0
   -2.2729    1.4864   -1.0511 H   0  0  0  0  0  0  0  0  0  0  0  0
   -2.5872    1.2473    0.6795 H   0  0  0  0  0  0  0  0  0  0  0  0
    0.3159   -1.0570    1.2964 H   0  0  0  0  0  0  0  0  0  0  0  0
   -0.0106    0.7478    1.6960 H   0  0  0  0  0  0  0  0  0  0  0  0
    1.1692    1.5039   -0.2454 H   0  0  0  0  0  0  0  0  0  0  0  0
    2.9297    0.1611   -1.0633 H   0  0  0  0  0  0  0  0  0  0  0  0
    2.1928   -1.3851   -0.5792 H   0  0  0  0  0  0  0  0  0  0  0  0
    4.0147   -0.0404    0.7205 H   0  0  0  0  0  0  0  0  0  0  0  0
   -0.1241    0.6042   -2.0353 H   0  0  0  0  0  0  0  0  0  0  0  0
    0.2389   -1.1364   -1.4441 H   0  0  0  0  0  0  0  0  0  0  0  0
  1  2  1  0
  2  3  1  0
  2  4  1  0
  4  5  1  0
  5  6  1  0
  6  7  1  0
  5  8  1  0
  8  2  1  0
  1  9  1  0
  1 10  1  0
  1 11  1  0
  3 12  1  0
  3 13  1  0
  3 14  1  0
  4 15  1  0
  4 16  1  0
  5 17  1  0
  6 18  1  0
  6 19  1  0
  7 20  1  0
  8 21  1  0
  8 22  1  0
M  END
