
     RDKit          3D

 23 24  0  0  0  0  0  0  0  0999 V2000
   -1.8168   -0.3213    1.1498 C   0  0  0  0  0  0  0  0  0  0  0  0
   -1.6957    0.0952   -0.2734 C   0  0  0  0  0  0  0  0  0  0  0  0
   -2.9140    0.6346   -0.7720 O   0  0  0  0  0  0  0  0  0  0  0  0
   -1.1626   -1.0194   -1.1922 C   0  0  0  0  0  0  0  0  0  0  0  0
   -0.4864    0.3527   -1.0150 C   0  0  0  0  0  0  0  0  0  0  0  0
    0.9038    0.3984   -0.5618 C   0  0  0  0  0  0  0  0  0  0  0  0
    1.5321   -0.8301    0.0642 C   0  0  0  0  0  0  0  0  0  0  0  0
    2.5339    0.1874    0.6522 C   0  0  0  0  0  0  0  0  0  0  0  0
    1.2888    1.1029    0.6960 C   0  0  0  0  0  0  0  0  0  0  0  0
   -1.5708    0.4967    1.8773 H   0  0  0  0  0  0  0  0  0  0  0  0
   -2.8965   -0.5545    1.3991 H   0  0  0  0  0  0  0  0  0  0  0  0
   -1.3077   -1.2765    1.3870 H   0  0  0  0  0  0  0  0  0  0  0  0
   -2.6568    1.5031   -1.1990 H   0  0  0  0  0  0  0  0  0  0  0  0
   -0.5981   -1.8484   -0.6982 H   0  0  0  0  0  0  0  0  0  0  0  0
   -1.6943   -1.2607   -2.1079 H   0  0  0  0  0  0  0  0  0  0  0  0
   -0.6480    0.9727   -1.9611 H   0  0  0  0  0  0  0  0  0  0  0  0
    1.6348    0.7261   -1.3665 H   0  0  0  0  0  0  0  0  0  0  0  0
    1.0187   -1.2949    0.9008 H   0  0  0  0  0  0  0  0  0  0  0  0
    2.0400   -1.5058   -0.6539 H   0  0  0  0  0  0  0  0  0  0  0  0
    3.2589    0.4947   -0.1132 H   0  0  0  0  0  0  0  0  0  0  0  0
    2.9222   -0.0848    1.6359 H   0  0  0  0  0  0  0  0  0  0  0  0
    1.5381    2.1719    0.5278 H   0  0  0  0  0  0  0  0  0  0  0  0
    0.7765    0.8599    1.6241 H   0  0  0  0  0  0  0  0  0  0  0  0
  1  2  1  0
  2  3  1  0
  2  4  1  0
  4  5  1  0
  5  6  1  0
  6  7  1  0
  7  8  1  0
  8  9  1  0
  5  2  1  0
  9  6  1  0
  1 10  1  0
  1 11  1  0
  1 12  1  0
  3 13  1  0
  4 14  1  0
  4 15  1  0
  5 16  1  0
  6 17  1  0
  7 18  1  0
  7 19  1  0
  8 20  1  0
  8 21  1  0
  9 22  1  0
  9 23  1  0
M  END
