
     RDKit          3D

 16 18  0  0  0  0  0  0  0  0999 V2000
   -1.5401    0.9488   -0.3980 C   0  0  0  0  0  0  0  0  0  0  0  0
   -0.8382   -0.3069    0.0613 C   0  0  0  0  0  0  0  0  0  0  0  0
   -1.7218   -1.2314    0.6459 O   0  0  0  0  0  0  0  0  0  0  0  0
    0.3009   -0.8819   -0.6448 C   0  0  0  0  0  0  0  0  0  0  0  0
    1.4893   -0.1146   -1.1067 C   0  0  0  0  0  0  0  0  0  0  0  0
    1.3326    1.2411   -1.2061 O   0  0  0  0  0  0  0  0  0  0  0  0
    1.4307    0.8251    0.0935 C   0  0  0  0  0  0  0  0  0  0  0  0
    0.4623   -0.1324    0.7029 C   0  0  0  0  0  0  0  0  0  0  0  0
   -0.9956    1.4806   -1.2034 H   0  0  0  0  0  0  0  0  0  0  0  0
   -1.5892    1.6324    0.5006 H   0  0  0  0  0  0  0  0  0  0  0  0
   -2.6039    0.7668   -0.6652 H   0  0  0  0  0  0  0  0  0  0  0  0
   -1.8794   -1.9886    0.0048 H   0  0  0  0  0  0  0  0  0  0  0  0
    0.4521   -1.9862   -0.6146 H   0  0  0  0  0  0  0  0  0  0  0  0
    2.4754   -0.5995   -1.2052 H   0  0  0  0  0  0  0  0  0  0  0  0
    2.3661    1.1015    0.6050 H   0  0  0  0  0  0  0  0  0  0  0  0
    0.8587   -0.7548    1.5081 H   0  0  0  0  0  0  0  0  0  0  0  0
  1  2  1  0
  2  3  1  0
  2  4  1  0
  4  5  1  0
  5  6  1  0
  6  7  1  0
  7  8  1  0
  8  2  1  0
  8  4  1  0
  7  5  1  0
  1  9  1  0
  1 10  1  0
  1 11  1  0
  3 12  1  0
  4 13  1  0
  5 14  1  0
  7 15  1  0
  8 16  1  0
M  END
