
     RDKit          3D

 21 22  0  0  0  0  0  0  0  0999 V2000
   -2.7925   -0.7470   -0.4406 C   0  0  0  0  0  0  0  0  0  0  0  0
   -1.5459   -0.1644    0.2031 C   0  0  0  0  0  0  0  0  0  0  0  0
   -0.2532   -0.4340   -0.4669 C   0  0  0  0  0  0  0  0  0  0  0  0
    0.9130    0.1914    0.2551 C   0  0  0  0  0  0  0  0  0  0  0  0
    2.1621   -0.1896   -0.5259 C   0  0  0  0  0  0  0  0  0  0  0  0
    3.4379    0.2912   -0.0370 C   0  0  0  0  0  0  0  0  0  0  0  0
    2.9673   -1.1270    0.0802 O   0  0  0  0  0  0  0  0  0  0  0  0
   -1.6855    1.1197    0.9746 C   0  0  0  0  0  0  0  0  0  0  0  0
   -1.6276   -0.1395    1.5935 O   0  0  0  0  0  0  0  0  0  0  0  0
   -3.2113   -1.5428    0.2074 H   0  0  0  0  0  0  0  0  0  0  0  0
   -2.5248   -1.1054   -1.4564 H   0  0  0  0  0  0  0  0  0  0  0  0
   -3.5670    0.0648   -0.5332 H   0  0  0  0  0  0  0  0  0  0  0  0
   -0.0615   -1.5118   -0.6564 H   0  0  0  0  0  0  0  0  0  0  0  0
   -0.2329    0.0290   -1.5001 H   0  0  0  0  0  0  0  0  0  0  0  0
    0.7669    1.3058    0.1822 H   0  0  0  0  0  0  0  0  0  0  0  0
    0.9761   -0.0801    1.3122 H   0  0  0  0  0  0  0  0  0  0  0  0
    2.0074   -0.2917   -1.6196 H   0  0  0  0  0  0  0  0  0  0  0  0
    4.3413    0.2687   -0.6503 H   0  0  0  0  0  0  0  0  0  0  0  0
    3.4580    0.7213    0.9934 H   0  0  0  0  0  0  0  0  0  0  0  0
   -2.6853    1.5926    0.8581 H   0  0  0  0  0  0  0  0  0  0  0  0
   -0.8423    1.7490    1.2265 H   0  0  0  0  0  0  0  0  0  0  0  0
  1  2  1  0
  2  3  1  0
  3  4  1  0
  4  5  1  0
  5  6  1  0
  6  7  1  0
  2  8  1  0
  8  9  1  0
  9  2  1  0
  7  5  1  0
  1 10  1  0
  1 11  1  0
  1 12  1  0
  3 13  1  0
  3 14  1  0
  4 15  1  0
  4 16  1  0
  5 17  1  0
  6 18  1  0
  6 19  1  0
  8 20  1  0
  8 21  1  0
M  END
