
     RDKit          3D

 18 18  0  0  0  0  0  0  0  0999 V2000
    0.5897   -0.8763   -1.6465 C   0  0  0  0  0  0  0  0  0  0  0  0
    0.1705   -0.0597   -0.4572 C   0  0  0  0  0  0  0  0  0  0  0  0
    1.3227    0.1879    0.4657 C   0  0  0  0  0  0  0  0  0  0  0  0
    0.9535    0.8174    1.6475 O   0  0  0  0  0  0  0  0  0  0  0  0
   -0.4297    1.1642   -0.8003 O   0  0  0  0  0  0  0  0  0  0  0  0
   -1.4029    0.9743    0.2008 C   0  0  0  0  0  0  0  0  0  0  0  0
   -1.1182   -0.4798    0.1503 C   0  0  0  0  0  0  0  0  0  0  0  0
   -1.0748   -1.1767    1.3296 O   0  0  0  0  0  0  0  0  0  0  0  0
    0.5281   -0.2737   -2.5914 H   0  0  0  0  0  0  0  0  0  0  0  0
   -0.1073   -1.7154   -1.7553 H   0  0  0  0  0  0  0  0  0  0  0  0
    1.6465   -1.2208   -1.5653 H   0  0  0  0  0  0  0  0  0  0  0  0
    1.9308   -0.7236    0.6567 H   0  0  0  0  0  0  0  0  0  0  0  0
    2.0117    0.8991   -0.0534 H   0  0  0  0  0  0  0  0  0  0  0  0
    1.7182    1.3402    1.9764 H   0  0  0  0  0  0  0  0  0  0  0  0
   -1.2193    1.5109    1.1357 H   0  0  0  0  0  0  0  0  0  0  0  0
   -2.3992    1.2968   -0.2035 H   0  0  0  0  0  0  0  0  0  0  0  0
   -1.7756   -0.9771   -0.6142 H   0  0  0  0  0  0  0  0  0  0  0  0
   -1.3447   -0.6877    2.1244 H   0  0  0  0  0  0  0  0  0  0  0  0
  1  2  1  0
  2  3  1  0
  3  4  1  0
  2  5  1  0
  5  6  1  0
  6  7  1  0
  7  8  1  0
  7  2  1  0
  1  9  1  0
  1 10  1  0
  1 11  1  0
  3 12  1  0
  3 13  1  0
  4 14  1  0
  6 15  1  0
  6 16  1  0
  7 17  1  0
  8 18  1  0
M  END
