
     RDKit          3D

 21 22  0  0  0  0  0  0  0  0999 V2000
   -1.5047    1.1721    0.4351 C   0  0  0  0  0  0  0  0  0  0  0  0
   -1.5795   -0.2917    0.1290 C   0  0  0  0  0  0  0  0  0  0  0  0
   -2.7585   -0.8855    0.6086 O   0  0  0  0  0  0  0  0  0  0  0  0
   -1.0896   -0.6958   -1.2348 C   0  0  0  0  0  0  0  0  0  0  0  0
   -0.4171   -1.1640   -0.0173 C   0  0  0  0  0  0  0  0  0  0  0  0
    0.9514   -0.7528    0.4049 C   0  0  0  0  0  0  0  0  0  0  0  0
    1.5150    0.4457   -0.2609 C   0  0  0  0  0  0  0  0  0  0  0  0
    2.8935    0.8924    0.1364 C   0  0  0  0  0  0  0  0  0  0  0  0
    1.8139    1.4854    0.7537 O   0  0  0  0  0  0  0  0  0  0  0  0
   -2.5351    1.6034    0.6069 H   0  0  0  0  0  0  0  0  0  0  0  0
   -0.8672    1.4226    1.2934 H   0  0  0  0  0  0  0  0  0  0  0  0
   -1.1286    1.7357   -0.4413 H   0  0  0  0  0  0  0  0  0  0  0  0
   -2.8652   -1.7820    0.1786 H   0  0  0  0  0  0  0  0  0  0  0  0
   -1.7942   -1.3770   -1.7739 H   0  0  0  0  0  0  0  0  0  0  0  0
   -0.6270    0.0651   -1.8878 H   0  0  0  0  0  0  0  0  0  0  0  0
   -0.5906   -2.2649    0.1992 H   0  0  0  0  0  0  0  0  0  0  0  0
    1.7015   -1.5930    0.2492 H   0  0  0  0  0  0  0  0  0  0  0  0
    0.9323   -0.6337    1.5128 H   0  0  0  0  0  0  0  0  0  0  0  0
    1.0168    0.9357   -1.1080 H   0  0  0  0  0  0  0  0  0  0  0  0
    3.4723    1.5319   -0.5346 H   0  0  0  0  0  0  0  0  0  0  0  0
    3.4605    0.1505    0.7507 H   0  0  0  0  0  0  0  0  0  0  0  0
  1  2  1  0
  2  3  1  0
  2  4  1  0
  4  5  1  0
  5  6  1  0
  6  7  1  0
  7  8  1  0
  8  9  1  0
  5  2  1  0
  9  7  1  0
  1 10  1  0
  1 11  1  0
  1 12  1  0
  3 13  1  0
  4 14  1  0
  4 15  1  0
  5 16  1  0
  6 17  1  0
  6 18  1  0
  7 19  1  0
  8 20  1  0
  8 21  1  0
M  END
