
     RDKit          3D

 19 20  0  0  0  0  0  0  0  0999 V2000
   -0.9619    0.8034   -1.0130 C   0  0  0  0  0  0  0  0  0  0  0  0
   -0.5904   -0.1856    0.0490 C   0  0  0  0  0  0  0  0  0  0  0  0
   -1.8069   -0.5388    0.8461 C   0  0  0  0  0  0  0  0  0  0  0  0
   -0.0177   -1.3006   -0.5742 O   0  0  0  0  0  0  0  0  0  0  0  0
    1.3336   -1.2431   -0.2119 C   0  0  0  0  0  0  0  0  0  0  0  0
    1.9720    0.0127   -0.6772 C   0  0  0  0  0  0  0  0  0  0  0  0
    1.5176    0.9770    0.1139 C   0  0  0  0  0  0  0  0  0  0  0  0
    0.4940    0.2754    0.9619 C   0  0  0  0  0  0  0  0  0  0  0  0
    1.1924   -0.9418    1.1677 O   0  0  0  0  0  0  0  0  0  0  0  0
   -1.4507    1.7055   -0.5899 H   0  0  0  0  0  0  0  0  0  0  0  0
   -0.1316    1.0537   -1.6997 H   0  0  0  0  0  0  0  0  0  0  0  0
   -1.7398    0.3114   -1.6542 H   0  0  0  0  0  0  0  0  0  0  0  0
   -2.5607   -1.0098    0.1898 H   0  0  0  0  0  0  0  0  0  0  0  0
   -1.5777   -1.1447    1.7454 H   0  0  0  0  0  0  0  0  0  0  0  0
   -2.2463    0.4097    1.2186 H   0  0  0  0  0  0  0  0  0  0  0  0
    1.8891   -2.1439   -0.3974 H   0  0  0  0  0  0  0  0  0  0  0  0
    2.6667    0.1521   -1.4872 H   0  0  0  0  0  0  0  0  0  0  0  0
    1.8003    2.0229    0.1567 H   0  0  0  0  0  0  0  0  0  0  0  0
    0.2178    0.7845    1.8556 H   0  0  0  0  0  0  0  0  0  0  0  0
  1  2  1  0
  2  3  1  0
  2  4  1  0
  4  5  1  0
  5  6  1  0
  6  7  2  0
  7  8  1  0
  8  9  1  0
  8  2  1  0
  9  5  1  0
  1 10  1  0
  1 11  1  0
  1 12  1  0
  3 13  1  0
  3 14  1  0
  3 15  1  0
  5 16  1  0
  6 17  1  0
  7 18  1  0
  8 19  1  0
M  END
