
     RDKit          3D

 21 21  0  0  0  0  0  0  0  0999 V2000
   -1.2819    0.9334    1.0113 C   0  0  0  0  0  0  0  0  0  0  0  0
   -0.6006    0.2650   -0.1756 C   0  0  0  0  0  0  0  0  0  0  0  0
   -1.7510   -0.2399   -1.0573 C   0  0  0  0  0  0  0  0  0  0  0  0
    0.1530    1.2044   -0.8076 O   0  0  0  0  0  0  0  0  0  0  0  0
    1.4641    0.8359   -0.8335 C   0  0  0  0  0  0  0  0  0  0  0  0
    1.6351   -0.4935   -0.2081 C   0  0  0  0  0  0  0  0  0  0  0  0
    2.4768   -0.5245    0.8863 O   0  0  0  0  0  0  0  0  0  0  0  0
    0.2548   -0.8877    0.2143 C   0  0  0  0  0  0  0  0  0  0  0  0
    0.1722   -1.2477    1.5419 O   0  0  0  0  0  0  0  0  0  0  0  0
   -2.1120    0.3238    1.4149 H   0  0  0  0  0  0  0  0  0  0  0  0
   -1.7780    1.8550    0.5880 H   0  0  0  0  0  0  0  0  0  0  0  0
   -0.5804    1.2681    1.7766 H   0  0  0  0  0  0  0  0  0  0  0  0
   -2.6687    0.3541   -0.8861 H   0  0  0  0  0  0  0  0  0  0  0  0
   -2.0050   -1.2826   -0.7417 H   0  0  0  0  0  0  0  0  0  0  0  0
   -1.4053   -0.2587   -2.0933 H   0  0  0  0  0  0  0  0  0  0  0  0
    2.0928    1.6360   -0.3620 H   0  0  0  0  0  0  0  0  0  0  0  0
    1.7866    0.8304   -1.9167 H   0  0  0  0  0  0  0  0  0  0  0  0
    2.0790   -1.1940   -0.9678 H   0  0  0  0  0  0  0  0  0  0  0  0
    2.6311    0.3422    1.3126 H   0  0  0  0  0  0  0  0  0  0  0  0
   -0.0211   -1.7960   -0.3925 H   0  0  0  0  0  0  0  0  0  0  0  0
   -0.5414   -1.9237    1.6965 H   0  0  0  0  0  0  0  0  0  0  0  0
  1  2  1  0
  2  3  1  0
  2  4  1  0
  4  5  1  0
  5  6  1  0
  6  7  1  0
  6  8  1  0
  8  9  1  0
  8  2  1  0
  1 10  1  0
  1 11  1  0
  1 12  1  0
  3 13  1  0
  3 14  1  0
  3 15  1  0
  5 16  1  0
  5 17  1  0
  6 18  1  0
  7 19  1  0
  8 20  1  0
  9 21  1  0
M  END
