
     RDKit          3D

 21 22  0  0  0  0  0  0  0  0999 V2000
   -1.2924   -1.0694    0.7143 C   0  0  0  0  0  0  0  0  0  0  0  0
   -0.6792   -0.1358   -0.2755 C   0  0  0  0  0  0  0  0  0  0  0  0
   -1.0348   -0.4411   -1.5648 O   0  0  0  0  0  0  0  0  0  0  0  0
   -1.0974    1.3184   -0.0219 C   0  0  0  0  0  0  0  0  0  0  0  0
    0.0436    2.0061   -0.7857 C   0  0  0  0  0  0  0  0  0  0  0  0
    1.1714    1.2574   -0.5612 O   0  0  0  0  0  0  0  0  0  0  0  0
    0.8174    0.0159   -0.1133 C   0  0  0  0  0  0  0  0  0  0  0  0
    1.6576   -1.1746   -0.2053 C   0  0  0  0  0  0  0  0  0  0  0  0
    1.4424   -0.4673    1.1419 C   0  0  0  0  0  0  0  0  0  0  0  0
   -2.3301   -1.2622    0.4171 H   0  0  0  0  0  0  0  0  0  0  0  0
   -0.7501   -2.0358    0.6520 H   0  0  0  0  0  0  0  0  0  0  0  0
   -1.2748   -0.6627    1.7432 H   0  0  0  0  0  0  0  0  0  0  0  0
   -0.5136   -1.2218   -1.8597 H   0  0  0  0  0  0  0  0  0  0  0  0
   -2.0738    1.5515   -0.4360 H   0  0  0  0  0  0  0  0  0  0  0  0
   -0.9517    1.5981    1.0366 H   0  0  0  0  0  0  0  0  0  0  0  0
   -0.2268    1.8626   -1.8735 H   0  0  0  0  0  0  0  0  0  0  0  0
    0.1217    3.0655   -0.5478 H   0  0  0  0  0  0  0  0  0  0  0  0
    1.1126   -2.1478   -0.3449 H   0  0  0  0  0  0  0  0  0  0  0  0
    2.7021   -1.1282   -0.5495 H   0  0  0  0  0  0  0  0  0  0  0  0
    2.2553    0.1370    1.5495 H   0  0  0  0  0  0  0  0  0  0  0  0
    0.9006   -1.0658    1.8846 H   0  0  0  0  0  0  0  0  0  0  0  0
  1  2  1  0
  2  3  1  0
  2  4  1  0
  4  5  1  0
  5  6  1  0
  6  7  1  0
  7  8  1  0
  8  9  1  0
  7  2  1  0
  9  7  1  0
  1 10  1  0
  1 11  1  0
  1 12  1  0
  3 13  1  0
  4 14  1  0
  4 15  1  0
  5 16  1  0
  5 17  1  0
  8 18  1  0
  8 19  1  0
  9 20  1  0
  9 21  1  0
M  END
