
     RDKit          3D

 17 18  0  0  0  0  0  0  0  0999 V2000
   -1.7791    0.1586    0.5687 C   0  0  0  0  0  0  0  0  0  0  0  0
   -0.7826   -0.0322   -0.5349 C   0  0  0  0  0  0  0  0  0  0  0  0
   -1.3364    0.2797   -1.7877 O   0  0  0  0  0  0  0  0  0  0  0  0
   -0.1821   -1.3939   -0.6185 C   0  0  0  0  0  0  0  0  0  0  0  0
   -0.6548   -2.5006   -0.5097 O   0  0  0  0  0  0  0  0  0  0  0  0
    1.1174   -0.7181   -0.8708 C   0  0  0  0  0  0  0  0  0  0  0  0
    1.6939   -0.0183    0.2925 C   0  0  0  0  0  0  0  0  0  0  0  0
    2.9471    0.5434    0.0714 O   0  0  0  0  0  0  0  0  0  0  0  0
    0.5525    0.5899   -0.3706 C   0  0  0  0  0  0  0  0  0  0  0  0
   -1.3052    0.1342    1.5639 H   0  0  0  0  0  0  0  0  0  0  0  0
   -2.5840   -0.5794    0.4586 H   0  0  0  0  0  0  0  0  0  0  0  0
   -2.2246    1.1656    0.4442 H   0  0  0  0  0  0  0  0  0  0  0  0
   -2.2094    0.7299   -1.7110 H   0  0  0  0  0  0  0  0  0  0  0  0
    1.5974   -0.7755   -1.8449 H   0  0  0  0  0  0  0  0  0  0  0  0
    1.6290   -0.5763    1.2549 H   0  0  0  0  0  0  0  0  0  0  0  0
    2.8061    1.4740   -0.1903 H   0  0  0  0  0  0  0  0  0  0  0  0
    0.7148    1.5190   -0.9469 H   0  0  0  0  0  0  0  0  0  0  0  0
  1  2  1  0
  2  3  1  0
  2  4  1  0
  4  5  2  0
  4  6  1  0
  6  7  1  0
  7  8  1  0
  7  9  1  0
  9  2  1  0
  9  6  1  0
  1 10  1  0
  1 11  1  0
  1 12  1  0
  3 13  1  0
  6 14  1  0
  7 15  1  0
  8 16  1  0
  9 17  1  0
M  END
