
     RDKit          3D

 21 22  0  0  0  0  0  0  0  0999 V2000
   -1.4806   -0.9094    0.5803 C   0  0  0  0  0  0  0  0  0  0  0  0
   -0.7504    0.3180    0.1475 C   0  0  0  0  0  0  0  0  0  0  0  0
   -1.7833    1.3126   -0.3567 C   0  0  0  0  0  0  0  0  0  0  0  0
    0.0040    0.8380    1.1906 O   0  0  0  0  0  0  0  0  0  0  0  0
    1.1200    0.0007    1.2490 C   0  0  0  0  0  0  0  0  0  0  0  0
    1.5820   -0.1053   -0.1740 C   0  0  0  0  0  0  0  0  0  0  0  0
    2.6836    0.6127   -0.5796 O   0  0  0  0  0  0  0  0  0  0  0  0
    1.0190   -1.1425   -1.0800 C   0  0  0  0  0  0  0  0  0  0  0  0
    0.2533    0.1059   -0.9286 C   0  0  0  0  0  0  0  0  0  0  0  0
   -1.1554   -1.8383    0.1204 H   0  0  0  0  0  0  0  0  0  0  0  0
   -1.3540   -1.0371    1.6946 H   0  0  0  0  0  0  0  0  0  0  0  0
   -2.5867   -0.8359    0.4148 H   0  0  0  0  0  0  0  0  0  0  0  0
   -2.6304    0.7286   -0.8189 H   0  0  0  0  0  0  0  0  0  0  0  0
   -1.3897    1.9388   -1.1870 H   0  0  0  0  0  0  0  0  0  0  0  0
   -2.1619    1.9745    0.4354 H   0  0  0  0  0  0  0  0  0  0  0  0
    1.8982    0.5469    1.8143 H   0  0  0  0  0  0  0  0  0  0  0  0
    0.9128   -0.9728    1.7031 H   0  0  0  0  0  0  0  0  0  0  0  0
    3.2126    0.9327    0.2029 H   0  0  0  0  0  0  0  0  0  0  0  0
    1.5658   -1.2487   -2.0522 H   0  0  0  0  0  0  0  0  0  0  0  0
    0.7094   -2.1026   -0.6635 H   0  0  0  0  0  0  0  0  0  0  0  0
    0.3317    0.8833   -1.7124 H   0  0  0  0  0  0  0  0  0  0  0  0
  1  2  1  0
  2  3  1  0
  2  4  1  0
  4  5  1  0
  5  6  1  0
  6  7  1  0
  6  8  1  0
  8  9  1  0
  9  2  1  0
  9  6  1  0
  1 10  1  0
  1 11  1  0
  1 12  1  0
  3 13  1  0
  3 14  1  0
  3 15  1  0
  5 16  1  0
  5 17  1  0
  7 18  1  0
  8 19  1  0
  8 20  1  0
  9 21  1  0
M  END
