
     RDKit          3D

 19 20  0  0  0  0  0  0  0  0999 V2000
    2.3255    0.0442   -0.0606 C   0  0  0  0  0  0  0  0  0  0  0  0
    0.9055   -0.1932    0.3983 C   0  0  0  0  0  0  0  0  0  0  0  0
    0.7150   -1.2914    1.2629 O   0  0  0  0  0  0  0  0  0  0  0  0
   -0.0039    0.9609    0.4440 C   0  0  0  0  0  0  0  0  0  0  0  0
   -1.4802    0.8530    0.5360 C   0  0  0  0  0  0  0  0  0  0  0  0
   -1.5130   -0.4276   -0.2963 C   0  0  0  0  0  0  0  0  0  0  0  0
   -1.5447   -1.5597    0.5488 O   0  0  0  0  0  0  0  0  0  0  0  0
   -0.0979   -0.1080   -0.6928 C   0  0  0  0  0  0  0  0  0  0  0  0
    0.2005    0.3895   -1.9338 O   0  0  0  0  0  0  0  0  0  0  0  0
    2.5036    1.1300   -0.1375 H   0  0  0  0  0  0  0  0  0  0  0  0
    3.0320   -0.3614    0.6746 H   0  0  0  0  0  0  0  0  0  0  0  0
    2.4527   -0.4634   -1.0586 H   0  0  0  0  0  0  0  0  0  0  0  0
    0.7681   -2.1472    0.7805 H   0  0  0  0  0  0  0  0  0  0  0  0
    0.3970    1.9361    0.1764 H   0  0  0  0  0  0  0  0  0  0  0  0
   -1.9890    1.6529   -0.0773 H   0  0  0  0  0  0  0  0  0  0  0  0
   -1.9396    0.7668    1.5273 H   0  0  0  0  0  0  0  0  0  0  0  0
   -2.2622   -0.4403   -1.0994 H   0  0  0  0  0  0  0  0  0  0  0  0
   -1.8451   -1.2698    1.4510 H   0  0  0  0  0  0  0  0  0  0  0  0
   -0.6241    0.5284   -2.4435 H   0  0  0  0  0  0  0  0  0  0  0  0
  1  2  1  0
  2  3  1  0
  2  4  1  0
  4  5  1  0
  5  6  1  0
  6  7  1  0
  6  8  1  0
  8  9  1  0
  8  2  1  0
  8  4  1  0
  1 10  1  0
  1 11  1  0
  1 12  1  0
  3 13  1  0
  4 14  1  0
  5 15  1  0
  5 16  1  0
  6 17  1  0
  7 18  1  0
  9 19  1  0
M  END
