
     RDKit          3D

 19 20  0  0  0  0  0  0  0  0999 V2000
   -0.2524    1.3381    1.0462 C   0  0  0  0  0  0  0  0  0  0  0  0
   -0.0173    0.2348    0.0317 C   0  0  0  0  0  0  0  0  0  0  0  0
    1.4109    0.2804   -0.3895 C   0  0  0  0  0  0  0  0  0  0  0  0
    2.2248   -0.9372   -0.0021 C   0  0  0  0  0  0  0  0  0  0  0  0
    1.9046   -0.6276   -1.3189 O   0  0  0  0  0  0  0  0  0  0  0  0
   -1.0000    0.4032   -1.0753 C   0  0  0  0  0  0  0  0  0  0  0  0
   -1.4848   -0.9111   -1.2506 O   0  0  0  0  0  0  0  0  0  0  0  0
   -1.6356   -1.2885    0.1009 C   0  0  0  0  0  0  0  0  0  0  0  0
   -0.3677   -0.9790    0.6154 O   0  0  0  0  0  0  0  0  0  0  0  0
    0.6843    1.4665    1.6306 H   0  0  0  0  0  0  0  0  0  0  0  0
   -0.4028    2.2707    0.4573 H   0  0  0  0  0  0  0  0  0  0  0  0
   -1.1228    1.1127    1.6854 H   0  0  0  0  0  0  0  0  0  0  0  0
    1.8911    1.2836   -0.3150 H   0  0  0  0  0  0  0  0  0  0  0  0
    1.6945   -1.8157    0.4049 H   0  0  0  0  0  0  0  0  0  0  0  0
    3.2562   -0.6988    0.3663 H   0  0  0  0  0  0  0  0  0  0  0  0
   -1.8987    0.9817   -0.7108 H   0  0  0  0  0  0  0  0  0  0  0  0
   -0.5916    0.8136   -2.0065 H   0  0  0  0  0  0  0  0  0  0  0  0
   -1.8898   -2.3400    0.2107 H   0  0  0  0  0  0  0  0  0  0  0  0
   -2.4031   -0.5875    0.5193 H   0  0  0  0  0  0  0  0  0  0  0  0
  1  2  1  0
  2  3  1  0
  3  4  1  0
  4  5  1  0
  2  6  1  0
  6  7  1  0
  7  8  1  0
  8  9  1  0
  9  2  1  0
  5  3  1  0
  1 10  1  0
  1 11  1  0
  1 12  1  0
  3 13  1  0
  4 14  1  0
  4 15  1  0
  6 16  1  0
  6 17  1  0
  8 18  1  0
  8 19  1  0
M  END
