
     RDKit          3D

 19 21  0  0  0  0  0  0  0  0999 V2000
    2.4184    0.3622    0.1046 C   0  0  0  0  0  0  0  0  0  0  0  0
    0.9861    0.1035   -0.1747 C   0  0  0  0  0  0  0  0  0  0  0  0
    0.6562   -0.3630   -1.4346 O   0  0  0  0  0  0  0  0  0  0  0  0
   -0.0084    1.0997    0.3563 C   0  0  0  0  0  0  0  0  0  0  0  0
    0.4221    0.6989    1.6247 O   0  0  0  0  0  0  0  0  0  0  0  0
    0.2436   -0.5312    0.9759 C   0  0  0  0  0  0  0  0  0  0  0  0
   -0.9683    0.0102    0.3915 C   0  0  0  0  0  0  0  0  0  0  0  0
   -2.3227   -0.0549    0.7651 C   0  0  0  0  0  0  0  0  0  0  0  0
   -1.8066   -0.5139   -0.6407 C   0  0  0  0  0  0  0  0  0  0  0  0
    3.0058    0.0672   -0.8135 H   0  0  0  0  0  0  0  0  0  0  0  0
    2.6759    1.3632    0.4381 H   0  0  0  0  0  0  0  0  0  0  0  0
    2.7354   -0.3397    0.9287 H   0  0  0  0  0  0  0  0  0  0  0  0
    1.3193   -1.0432   -1.7061 H   0  0  0  0  0  0  0  0  0  0  0  0
   -0.0964    2.0613    0.0527 H   0  0  0  0  0  0  0  0  0  0  0  0
    0.4551   -1.4307    1.3815 H   0  0  0  0  0  0  0  0  0  0  0  0
   -2.9629    0.8470    0.7672 H   0  0  0  0  0  0  0  0  0  0  0  0
   -2.7158   -0.8881    1.3832 H   0  0  0  0  0  0  0  0  0  0  0  0
   -1.9339   -1.5874   -0.8712 H   0  0  0  0  0  0  0  0  0  0  0  0
   -2.1028    0.1388   -1.4900 H   0  0  0  0  0  0  0  0  0  0  0  0
  1  2  1  0
  2  3  1  0
  2  4  1  0
  4  5  1  0
  5  6  1  0
  6  7  1  0
  7  8  1  0
  8  9  1  0
  6  2  1  0
  9  7  1  0
  7  4  1  0
  1 10  1  0
  1 11  1  0
  1 12  1  0
  3 13  1  0
  4 14  1  0
  6 15  1  0
  8 16  1  0
  8 17  1  0
  9 18  1  0
  9 19  1  0
M  END
