
     RDKit          3D

 20 21  0  0  0  0  0  0  0  0999 V2000
   -1.9727    0.7284    0.5560 C   0  0  0  0  0  0  0  0  0  0  0  0
   -1.1135   -0.0340   -0.4293 C   0  0  0  0  0  0  0  0  0  0  0  0
   -1.7868   -0.6786   -1.4339 O   0  0  0  0  0  0  0  0  0  0  0  0
    0.0490    0.8386   -0.8597 C   0  0  0  0  0  0  0  0  0  0  0  0
    0.9685    0.2091    0.1252 C   0  0  0  0  0  0  0  0  0  0  0  0
    2.3459   -0.1682   -0.3726 C   0  0  0  0  0  0  0  0  0  0  0  0
    0.5597   -0.3308    1.4156 C   0  0  0  0  0  0  0  0  0  0  0  0
   -0.0747   -0.9307    0.2282 C   0  0  0  0  0  0  0  0  0  0  0  0
   -2.7012    1.3126   -0.0538 H   0  0  0  0  0  0  0  0  0  0  0  0
   -2.4866    0.0591    1.2706 H   0  0  0  0  0  0  0  0  0  0  0  0
   -1.3485    1.5039    1.0746 H   0  0  0  0  0  0  0  0  0  0  0  0
   -2.0012   -1.6232   -1.1588 H   0  0  0  0  0  0  0  0  0  0  0  0
   -0.1424    1.9065   -0.7923 H   0  0  0  0  0  0  0  0  0  0  0  0
    0.2998    0.5752   -1.9263 H   0  0  0  0  0  0  0  0  0  0  0  0
    2.4575   -1.2600   -0.2413 H   0  0  0  0  0  0  0  0  0  0  0  0
    3.1120    0.3946    0.2037 H   0  0  0  0  0  0  0  0  0  0  0  0
    2.4720    0.0878   -1.4209 H   0  0  0  0  0  0  0  0  0  0  0  0
   -0.1554    0.2079    2.1032 H   0  0  0  0  0  0  0  0  0  0  0  0
    1.2692   -0.9509    1.9636 H   0  0  0  0  0  0  0  0  0  0  0  0
    0.2495   -1.8472   -0.2519 H   0  0  0  0  0  0  0  0  0  0  0  0
  1  2  1  0
  2  3  1  0
  2  4  1  0
  4  5  1  0
  5  6  1  0
  5  7  1  0
  7  8  1  0
  8  2  1  0
  8  5  1  0
  1  9  1  0
  1 10  1  0
  1 11  1  0
  3 12  1  0
  4 13  1  0
  4 14  1  0
  6 15  1  0
  6 16  1  0
  6 17  1  0
  7 18  1  0
  7 19  1  0
  8 20  1  0
M  END
