
     RDKit          3D

 19 19  0  0  0  0  0  0  0  0999 V2000
   -2.3163    0.0303   -0.3429 C   0  0  0  0  0  0  0  0  0  0  0  0
   -1.0041   -0.2340    0.3326 C   0  0  0  0  0  0  0  0  0  0  0  0
   -1.1063   -0.4379    1.7274 O   0  0  0  0  0  0  0  0  0  0  0  0
   -0.0007    0.8383   -0.0326 C   0  0  0  0  0  0  0  0  0  0  0  0
    0.8457   -0.2510   -0.5927 C   0  0  0  0  0  0  0  0  0  0  0  0
    2.1541   -0.3744    0.1524 C   0  0  0  0  0  0  0  0  0  0  0  0
    2.8205    0.8429    0.0295 O   0  0  0  0  0  0  0  0  0  0  0  0
   -0.1647   -1.2924   -0.2523 C   0  0  0  0  0  0  0  0  0  0  0  0
   -0.1543   -2.4946   -0.4463 O   0  0  0  0  0  0  0  0  0  0  0  0
   -2.7534   -0.8675   -0.8196 H   0  0  0  0  0  0  0  0  0  0  0  0
   -2.2584    0.8998   -1.0606 H   0  0  0  0  0  0  0  0  0  0  0  0
   -3.0219    0.3904    0.4585 H   0  0  0  0  0  0  0  0  0  0  0  0
   -1.2935    0.4688    2.1061 H   0  0  0  0  0  0  0  0  0  0  0  0
   -0.3558    1.5935   -0.7529 H   0  0  0  0  0  0  0  0  0  0  0  0
    0.4022    1.3368    0.8616 H   0  0  0  0  0  0  0  0  0  0  0  0
    0.9918   -0.1738   -1.6751 H   0  0  0  0  0  0  0  0  0  0  0  0
    2.8136   -1.1443   -0.2778 H   0  0  0  0  0  0  0  0  0  0  0  0
    1.9942   -0.5452    1.2318 H   0  0  0  0  0  0  0  0  0  0  0  0
    2.4073    1.4145   -0.6471 H   0  0  0  0  0  0  0  0  0  0  0  0
  1  2  1  0
  2  3  1  0
  2  4  1  0
  4  5  1  0
  5  6  1  0
  6  7  1  0
  5  8  1  0
  8  9  2  0
  8  2  1  0
  1 10  1  0
  1 11  1  0
  1 12  1  0
  3 13  1  0
  4 14  1  0
  4 15  1  0
  5 16  1  0
  6 17  1  0
  6 18  1  0
  7 19  1  0
M  END
