
     RDKit          3D

 21 22  0  0  0  0  0  0  0  0999 V2000
   -1.9903   -0.5010   -0.8200 C   0  0  0  0  0  0  0  0  0  0  0  0
   -0.8972    0.1924   -0.0900 C   0  0  0  0  0  0  0  0  0  0  0  0
   -1.0597    1.7133    0.0184 C   0  0  0  0  0  0  0  0  0  0  0  0
   -0.5148   -0.4705    1.2549 C   0  0  0  0  0  0  0  0  0  0  0  0
    0.4253   -0.3213    0.1506 C   0  0  0  0  0  0  0  0  0  0  0  0
    1.6600    0.5314    0.2172 C   0  0  0  0  0  0  0  0  0  0  0  0
    2.4048   -0.7340   -0.2297 C   0  0  0  0  0  0  0  0  0  0  0  0
    1.1068   -1.3916   -0.5319 C   0  0  0  0  0  0  0  0  0  0  0  0
    0.8488   -2.4162   -1.1231 O   0  0  0  0  0  0  0  0  0  0  0  0
   -2.8798   -0.5665   -0.1275 H   0  0  0  0  0  0  0  0  0  0  0  0
   -2.2989    0.0694   -1.7127 H   0  0  0  0  0  0  0  0  0  0  0  0
   -1.7169   -1.5467   -1.0575 H   0  0  0  0  0  0  0  0  0  0  0  0
   -1.0515    2.1802   -0.9675 H   0  0  0  0  0  0  0  0  0  0  0  0
   -1.9612    1.8938    0.6141 H   0  0  0  0  0  0  0  0  0  0  0  0
   -0.1959    2.1430    0.5896 H   0  0  0  0  0  0  0  0  0  0  0  0
   -0.9182   -1.4882    1.4405 H   0  0  0  0  0  0  0  0  0  0  0  0
   -0.5156    0.1652    2.1483 H   0  0  0  0  0  0  0  0  0  0  0  0
    1.6480    1.3291   -0.5604 H   0  0  0  0  0  0  0  0  0  0  0  0
    1.9341    0.8981    1.2083 H   0  0  0  0  0  0  0  0  0  0  0  0
    2.9309   -1.1705    0.6605 H   0  0  0  0  0  0  0  0  0  0  0  0
    3.0414   -0.5094   -1.0822 H   0  0  0  0  0  0  0  0  0  0  0  0
  1  2  1  0
  2  3  1  0
  2  4  1  0
  4  5  1  0
  5  6  1  0
  6  7  1  0
  7  8  1  0
  8  9  2  0
  5  2  1  0
  8  5  1  0
  1 10  1  0
  1 11  1  0
  1 12  1  0
  3 13  1  0
  3 14  1  0
  3 15  1  0
  4 16  1  0
  4 17  1  0
  6 18  1  0
  6 19  1  0
  7 20  1  0
  7 21  1  0
M  END
