
     RDKit          3D

 23 24  0  0  0  0  0  0  0  0999 V2000
   -2.5740    0.8165    0.0144 C   0  0  0  0  0  0  0  0  0  0  0  0
   -1.4438   -0.1271   -0.2583 C   0  0  0  0  0  0  0  0  0  0  0  0
   -1.7923   -1.3644   -0.7843 O   0  0  0  0  0  0  0  0  0  0  0  0
   -0.2826    0.4500   -1.0230 C   0  0  0  0  0  0  0  0  0  0  0  0
    0.6116   -0.0033    0.0806 C   0  0  0  0  0  0  0  0  0  0  0  0
    1.7047    0.8807    0.5167 C   0  0  0  0  0  0  0  0  0  0  0  0
    2.6745   -0.2838    0.2738 C   0  0  0  0  0  0  0  0  0  0  0  0
    1.5018   -1.1648   -0.1793 C   0  0  0  0  0  0  0  0  0  0  0  0
   -0.5503   -0.2136    0.9878 C   0  0  0  0  0  0  0  0  0  0  0  0
   -3.3674    0.2344    0.5421 H   0  0  0  0  0  0  0  0  0  0  0  0
   -2.2142    1.6034    0.7080 H   0  0  0  0  0  0  0  0  0  0  0  0
   -2.9694    1.3106   -0.8866 H   0  0  0  0  0  0  0  0  0  0  0  0
   -2.6074   -1.7218   -0.3862 H   0  0  0  0  0  0  0  0  0  0  0  0
   -0.0694   -0.0711   -1.9915 H   0  0  0  0  0  0  0  0  0  0  0  0
   -0.2556    1.5387   -1.1358 H   0  0  0  0  0  0  0  0  0  0  0  0
    1.8826    1.7181   -0.2154 H   0  0  0  0  0  0  0  0  0  0  0  0
    1.7080    1.2278    1.5767 H   0  0  0  0  0  0  0  0  0  0  0  0
    3.1314   -0.6441    1.2135 H   0  0  0  0  0  0  0  0  0  0  0  0
    3.4005   -0.0481   -0.5034 H   0  0  0  0  0  0  0  0  0  0  0  0
    1.5726   -1.5370   -1.2000 H   0  0  0  0  0  0  0  0  0  0  0  0
    1.2718   -1.9911    0.5495 H   0  0  0  0  0  0  0  0  0  0  0  0
   -0.6862    0.6040    1.7034 H   0  0  0  0  0  0  0  0  0  0  0  0
   -0.6468   -1.2141    1.4406 H   0  0  0  0  0  0  0  0  0  0  0  0
  1  2  1  0
  2  3  1  0
  2  4  1  0
  4  5  1  0
  5  6  1  0
  6  7  1  0
  7  8  1  0
  5  9  1  0
  9  2  1  0
  8  5  1  0
  1 10  1  0
  1 11  1  0
  1 12  1  0
  3 13  1  0
  4 14  1  0
  4 15  1  0
  6 16  1  0
  6 17  1  0
  7 18  1  0
  7 19  1  0
  8 20  1  0
  8 21  1  0
  9 22  1  0
  9 23  1  0
M  END
