
     RDKit          3D

 25 26  0  0  0  0  0  0  0  0999 V2000
   -2.1810    0.6909    1.6591 C   0  0  0  0  0  0  0  0  0  0  0  0
   -1.4789    0.0713    0.4382 C   0  0  0  0  0  0  0  0  0  0  0  0
    0.0322    0.1056    0.4781 C   0  0  0  0  0  0  0  0  0  0  0  0
    0.6166   -0.5117   -0.7310 C   0  0  0  0  0  0  0  0  0  0  0  0
    2.1175   -0.5273   -0.7793 C   0  0  0  0  0  0  0  0  0  0  0  0
    2.8823    0.7636   -0.7397 C   0  0  0  0  0  0  0  0  0  0  0  0
    2.9632   -0.2739    0.3824 C   0  0  0  0  0  0  0  0  0  0  0  0
   -2.2052   -1.0531   -0.1818 C   0  0  0  0  0  0  0  0  0  0  0  0
   -2.2256    0.3212   -0.8367 C   0  0  0  0  0  0  0  0  0  0  0  0
   -2.6506    1.6497    1.3823 H   0  0  0  0  0  0  0  0  0  0  0  0
   -2.9961    0.0259    2.0149 H   0  0  0  0  0  0  0  0  0  0  0  0
   -1.4709    0.8100    2.4833 H   0  0  0  0  0  0  0  0  0  0  0  0
    0.3876   -0.3091    1.4350 H   0  0  0  0  0  0  0  0  0  0  0  0
    0.3040    1.2023    0.5188 H   0  0  0  0  0  0  0  0  0  0  0  0
    0.2928   -1.5909   -0.7636 H   0  0  0  0  0  0  0  0  0  0  0  0
    0.2154   -0.0225   -1.6323 H   0  0  0  0  0  0  0  0  0  0  0  0
    2.5153   -1.2530   -1.5228 H   0  0  0  0  0  0  0  0  0  0  0  0
    3.7828    0.8836   -1.3814 H   0  0  0  0  0  0  0  0  0  0  0  0
    2.3687    1.7136   -0.5404 H   0  0  0  0  0  0  0  0  0  0  0  0
    3.9596   -0.7862    0.4567 H   0  0  0  0  0  0  0  0  0  0  0  0
    2.6076    0.0867    1.3525 H   0  0  0  0  0  0  0  0  0  0  0  0
   -3.1367   -1.4270    0.3112 H   0  0  0  0  0  0  0  0  0  0  0  0
   -1.7309   -1.8199   -0.8061 H   0  0  0  0  0  0  0  0  0  0  0  0
   -3.2319    0.7920   -0.7960 H   0  0  0  0  0  0  0  0  0  0  0  0
   -1.7378    0.4582   -1.7992 H   0  0  0  0  0  0  0  0  0  0  0  0
  1  2  1  0
  2  3  1  0
  3  4  1  0
  4  5  1  0
  5  6  1  0
  6  7  1  0
  2  8  1  0
  8  9  1  0
  9  2  1  0
  7  5  1  0
  1 10  1  0
  1 11  1  0
  1 12  1  0
  3 13  1  0
  3 14  1  0
  4 15  1  0
  4 16  1  0
  5 17  1  0
  6 18  1  0
  6 19  1  0
  7 20  1  0
  7 21  1  0
  8 22  1  0
  8 23  1  0
  9 24  1  0
  9 25  1  0
M  END
