
     RDKit          3D

 22 22  0  0  0  0  0  0  0  0999 V2000
   -1.5637   -1.0209   -0.7816 C   0  0  0  0  0  0  0  0  0  0  0  0
   -0.6939   -0.0907    0.0377 C   0  0  0  0  0  0  0  0  0  0  0  0
   -1.5881    0.7849    0.9011 C   0  0  0  0  0  0  0  0  0  0  0  0
    0.1301    0.7195   -0.9239 C   0  0  0  0  0  0  0  0  0  0  0  0
    1.6055    0.3310   -0.8709 C   0  0  0  0  0  0  0  0  0  0  0  0
    2.1172    0.2409    0.5378 C   0  0  0  0  0  0  0  0  0  0  0  0
    1.1323    0.0677    1.4834 O   0  0  0  0  0  0  0  0  0  0  0  0
    0.1826   -0.8728    1.0193 C   0  0  0  0  0  0  0  0  0  0  0  0
   -1.9501   -0.4003   -1.6359 H   0  0  0  0  0  0  0  0  0  0  0  0
   -2.3700   -1.4559   -0.1793 H   0  0  0  0  0  0  0  0  0  0  0  0
   -0.9358   -1.8115   -1.2575 H   0  0  0  0  0  0  0  0  0  0  0  0
   -1.1539    0.9286    1.9266 H   0  0  0  0  0  0  0  0  0  0  0  0
   -1.6891    1.8004    0.4799 H   0  0  0  0  0  0  0  0  0  0  0  0
   -2.5750    0.3147    1.0136 H   0  0  0  0  0  0  0  0  0  0  0  0
   -0.0318    1.7879   -0.7475 H   0  0  0  0  0  0  0  0  0  0  0  0
   -0.1716    0.5406   -1.9982 H   0  0  0  0  0  0  0  0  0  0  0  0
    1.6634   -0.6690   -1.3643 H   0  0  0  0  0  0  0  0  0  0  0  0
    2.1332    1.1146   -1.4759 H   0  0  0  0  0  0  0  0  0  0  0  0
    2.6922    1.1627    0.7417 H   0  0  0  0  0  0  0  0  0  0  0  0
    2.8284   -0.6149    0.6080 H   0  0  0  0  0  0  0  0  0  0  0  0
   -0.4245   -1.1256    1.9250 H   0  0  0  0  0  0  0  0  0  0  0  0
    0.6626   -1.7320    0.5608 H   0  0  0  0  0  0  0  0  0  0  0  0
  1  2  1  0
  2  3  1  0
  2  4  1  0
  4  5  1  0
  5  6  1  0
  6  7  1  0
  7  8  1  0
  8  2  1  0
  1  9  1  0
  1 10  1  0
  1 11  1  0
  3 12  1  0
  3 13  1  0
  3 14  1  0
  4 15  1  0
  4 16  1  0
  5 17  1  0
  5 18  1  0
  6 19  1  0
  6 20  1  0
  8 21  1  0
  8 22  1  0
M  END
