
     RDKit          3D

 17 17  0  0  0  0  0  0  0  0999 V2000
   -1.6066   -0.0107    0.9069 C   0  0  0  0  0  0  0  0  0  0  0  0
   -0.5578   -0.2195   -0.1495 C   0  0  0  0  0  0  0  0  0  0  0  0
   -1.0617   -0.9901   -1.2150 O   0  0  0  0  0  0  0  0  0  0  0  0
   -0.1347    1.1170   -0.6401 C   0  0  0  0  0  0  0  0  0  0  0  0
    1.0947    1.3674   -0.2390 C   0  0  0  0  0  0  0  0  0  0  0  0
    1.6602    0.2858    0.5473 C   0  0  0  0  0  0  0  0  0  0  0  0
    2.7183    0.2516    1.2292 O   0  0  0  0  0  0  0  0  0  0  0  0
    0.6919   -0.8522    0.3874 C   0  0  0  0  0  0  0  0  0  0  0  0
    1.2192   -1.8197   -0.4764 O   0  0  0  0  0  0  0  0  0  0  0  0
   -1.1491    0.6029    1.7076 H   0  0  0  0  0  0  0  0  0  0  0  0
   -2.4158    0.6140    0.4616 H   0  0  0  0  0  0  0  0  0  0  0  0
   -2.0239   -0.9555    1.3050 H   0  0  0  0  0  0  0  0  0  0  0  0
   -0.7711   -0.5371   -2.0679 H   0  0  0  0  0  0  0  0  0  0  0  0
   -0.7977    1.7567   -1.2460 H   0  0  0  0  0  0  0  0  0  0  0  0
    1.6048    2.2984   -0.4884 H   0  0  0  0  0  0  0  0  0  0  0  0
    0.5051   -1.3504    1.3818 H   0  0  0  0  0  0  0  0  0  0  0  0
    1.0241   -1.5585   -1.4045 H   0  0  0  0  0  0  0  0  0  0  0  0
  1  2  1  0
  2  3  1  0
  2  4  1  0
  4  5  2  0
  5  6  1  0
  6  7  2  0
  6  8  1  0
  8  9  1  0
  8  2  1  0
  1 10  1  0
  1 11  1  0
  1 12  1  0
  3 13  1  0
  4 14  1  0
  5 15  1  0
  8 16  1  0
  9 17  1  0
M  END
