
     RDKit          3D

 20 20  0  0  0  0  0  0  0  0999 V2000
    0.3472    1.5415    0.0130 C   0  0  0  0  0  0  0  0  0  0  0  0
    0.3362    0.0819   -0.2905 C   0  0  0  0  0  0  0  0  0  0  0  0
    1.7287   -0.3257   -0.7124 C   0  0  0  0  0  0  0  0  0  0  0  0
    2.5740   -0.0538    0.3726 O   0  0  0  0  0  0  0  0  0  0  0  0
   -0.1530   -0.7774    0.8270 C   0  0  0  0  0  0  0  0  0  0  0  0
   -1.6630   -0.5252    0.7291 C   0  0  0  0  0  0  0  0  0  0  0  0
   -1.8294   -0.1302   -0.7043 C   0  0  0  0  0  0  0  0  0  0  0  0
   -0.5777   -0.1492   -1.3012 O   0  0  0  0  0  0  0  0  0  0  0  0
    1.0235    1.8176    0.8452 H   0  0  0  0  0  0  0  0  0  0  0  0
    0.7033    2.0767   -0.8896 H   0  0  0  0  0  0  0  0  0  0  0  0
   -0.6510    1.9491    0.2757 H   0  0  0  0  0  0  0  0  0  0  0  0
    2.0740    0.2871   -1.5702 H   0  0  0  0  0  0  0  0  0  0  0  0
    1.7257   -1.4008   -0.9685 H   0  0  0  0  0  0  0  0  0  0  0  0
    3.0149   -0.8960    0.6532 H   0  0  0  0  0  0  0  0  0  0  0  0
    0.0237   -1.8275    0.5694 H   0  0  0  0  0  0  0  0  0  0  0  0
    0.2395   -0.5301    1.8147 H   0  0  0  0  0  0  0  0  0  0  0  0
   -1.8587    0.3142    1.4369 H   0  0  0  0  0  0  0  0  0  0  0  0
   -2.2448   -1.4025    1.0196 H   0  0  0  0  0  0  0  0  0  0  0  0
   -2.3653    0.8345   -0.8441 H   0  0  0  0  0  0  0  0  0  0  0  0
   -2.4480   -0.8844   -1.2753 H   0  0  0  0  0  0  0  0  0  0  0  0
  1  2  1  0
  2  3  1  0
  3  4  1  0
  2  5  1  0
  5  6  1  0
  6  7  1  0
  7  8  1  0
  8  2  1  0
  1  9  1  0
  1 10  1  0
  1 11  1  0
  3 12  1  0
  3 13  1  0
  4 14  1  0
  5 15  1  0
  5 16  1  0
  6 17  1  0
  6 18  1  0
  7 19  1  0
  7 20  1  0
M  END
