
     RDKit          3D

 21 22  0  0  0  0  0  0  0  0999 V2000
   -1.7760   -1.2485    0.5558 C   0  0  0  0  0  0  0  0  0  0  0  0
   -1.0651   -0.0466   -0.0740 C   0  0  0  0  0  0  0  0  0  0  0  0
   -2.0903    0.8772   -0.7440 C   0  0  0  0  0  0  0  0  0  0  0  0
   -0.0036    0.5389    0.6301 C   0  0  0  0  0  0  0  0  0  0  0  0
    1.1316    0.0212    1.3793 C   0  0  0  0  0  0  0  0  0  0  0  0
    2.2587   -0.0391    0.6276 C   0  0  0  0  0  0  0  0  0  0  0  0
    2.3026    0.3785   -0.7855 C   0  0  0  0  0  0  0  0  0  0  0  0
    1.0465    0.5309   -1.3828 O   0  0  0  0  0  0  0  0  0  0  0  0
    0.1693   -0.2501   -0.7178 C   0  0  0  0  0  0  0  0  0  0  0  0
   -1.9377   -1.9866   -0.2774 H   0  0  0  0  0  0  0  0  0  0  0  0
   -2.7403   -0.9547    0.9719 H   0  0  0  0  0  0  0  0  0  0  0  0
   -1.0803   -1.6919    1.3054 H   0  0  0  0  0  0  0  0  0  0  0  0
   -2.4693    1.5375    0.0858 H   0  0  0  0  0  0  0  0  0  0  0  0
   -1.5889    1.5466   -1.4632 H   0  0  0  0  0  0  0  0  0  0  0  0
   -2.8866    0.2850   -1.1992 H   0  0  0  0  0  0  0  0  0  0  0  0
    0.0943    1.6659    0.5522 H   0  0  0  0  0  0  0  0  0  0  0  0
    1.1073   -0.2869    2.4152 H   0  0  0  0  0  0  0  0  0  0  0  0
    3.1850   -0.4082    1.0614 H   0  0  0  0  0  0  0  0  0  0  0  0
    2.9357    1.2868   -0.9519 H   0  0  0  0  0  0  0  0  0  0  0  0
    2.8118   -0.4592   -1.3472 H   0  0  0  0  0  0  0  0  0  0  0  0
    0.5952   -1.2967   -0.6416 H   0  0  0  0  0  0  0  0  0  0  0  0
  1  2  1  0
  2  3  1  0
  2  4  1  0
  4  5  1  0
  5  6  2  0
  6  7  1  0
  7  8  1  0
  8  9  1  0
  9  2  1  0
  9  4  1  0
  1 10  1  0
  1 11  1  0
  1 12  1  0
  3 13  1  0
  3 14  1  0
  3 15  1  0
  4 16  1  0
  5 17  1  0
  6 18  1  0
  7 19  1  0
  7 20  1  0
  9 21  1  0
M  END
