
     RDKit          3D

 15 16  0  0  0  0  0  0  0  0999 V2000
    1.3761    0.8747   -0.4399 C   0  0  0  0  0  0  0  0  0  0  0  0
    0.6524   -0.3756   -0.0034 C   0  0  0  0  0  0  0  0  0  0  0  0
    1.4967   -1.3772    0.4568 O   0  0  0  0  0  0  0  0  0  0  0  0
   -0.5812   -0.1997    0.8080 C   0  0  0  0  0  0  0  0  0  0  0  0
   -1.6404    0.7594    0.3395 C   0  0  0  0  0  0  0  0  0  0  0  0
   -1.6537    0.0577   -0.8811 O   0  0  0  0  0  0  0  0  0  0  0  0
   -0.6250   -0.7920   -0.5664 C   0  0  0  0  0  0  0  0  0  0  0  0
    2.0917    1.1222    0.3984 H   0  0  0  0  0  0  0  0  0  0  0  0
    2.0038    0.5834   -1.3239 H   0  0  0  0  0  0  0  0  0  0  0  0
    0.6781    1.6846   -0.6484 H   0  0  0  0  0  0  0  0  0  0  0  0
    1.6304   -2.1059   -0.1769 H   0  0  0  0  0  0  0  0  0  0  0  0
   -0.7753   -0.8288    1.6976 H   0  0  0  0  0  0  0  0  0  0  0  0
   -2.5590    0.6653    0.9389 H   0  0  0  0  0  0  0  0  0  0  0  0
   -1.3033    1.7951    0.1314 H   0  0  0  0  0  0  0  0  0  0  0  0
   -0.7914   -1.8632   -0.7306 H   0  0  0  0  0  0  0  0  0  0  0  0
  1  2  1  0
  2  3  1  0
  2  4  1  0
  4  5  1  0
  5  6  1  0
  6  7  1  0
  7  2  1  0
  7  4  1  0
  1  8  1  0
  1  9  1  0
  1 10  1  0
  3 11  1  0
  4 12  1  0
  5 13  1  0
  5 14  1  0
  7 15  1  0
M  END
