
     RDKit          3D

 23 24  0  0  0  0  0  0  0  0999 V2000
   -0.7034    1.6319    0.5753 C   0  0  0  0  0  0  0  0  0  0  0  0
   -0.7859    0.2570    0.0097 C   0  0  0  0  0  0  0  0  0  0  0  0
    0.5141   -0.4017   -0.3538 C   0  0  0  0  0  0  0  0  0  0  0  0
    1.4757   -0.5734    0.8132 C   0  0  0  0  0  0  0  0  0  0  0  0
    2.5794   -0.3867   -0.2280 C   0  0  0  0  0  0  0  0  0  0  0  0
    1.5601    0.4979   -0.9604 C   0  0  0  0  0  0  0  0  0  0  0  0
   -1.7678   -0.6718    0.6883 C   0  0  0  0  0  0  0  0  0  0  0  0
   -2.4743   -0.8117   -0.6584 C   0  0  0  0  0  0  0  0  0  0  0  0
   -1.6401    0.2357   -1.1073 O   0  0  0  0  0  0  0  0  0  0  0  0
    0.3129    1.8974    0.9675 H   0  0  0  0  0  0  0  0  0  0  0  0
   -0.8976    2.3714   -0.2390 H   0  0  0  0  0  0  0  0  0  0  0  0
   -1.3948    1.7814    1.4365 H   0  0  0  0  0  0  0  0  0  0  0  0
    0.4113   -1.3140   -0.9431 H   0  0  0  0  0  0  0  0  0  0  0  0
    1.4362    0.2819    1.5154 H   0  0  0  0  0  0  0  0  0  0  0  0
    1.4569   -1.5780    1.2763 H   0  0  0  0  0  0  0  0  0  0  0  0
    2.7232   -1.3045   -0.8369 H   0  0  0  0  0  0  0  0  0  0  0  0
    3.4669    0.1273    0.1270 H   0  0  0  0  0  0  0  0  0  0  0  0
    1.6577    0.4393   -2.0600 H   0  0  0  0  0  0  0  0  0  0  0  0
    1.6300    1.5147   -0.5432 H   0  0  0  0  0  0  0  0  0  0  0  0
   -1.3724   -1.6361    1.0023 H   0  0  0  0  0  0  0  0  0  0  0  0
   -2.4366   -0.1553    1.4003 H   0  0  0  0  0  0  0  0  0  0  0  0
   -3.5231   -0.4773   -0.6677 H   0  0  0  0  0  0  0  0  0  0  0  0
   -2.2284   -1.7256   -1.2139 H   0  0  0  0  0  0  0  0  0  0  0  0
  1  2  1  0
  2  3  1  0
  3  4  1  0
  4  5  1  0
  5  6  1  0
  2  7  1  0
  7  8  1  0
  8  9  1  0
  9  2  1  0
  6  3  1  0
  1 10  1  0
  1 11  1  0
  1 12  1  0
  3 13  1  0
  4 14  1  0
  4 15  1  0
  5 16  1  0
  5 17  1  0
  6 18  1  0
  6 19  1  0
  7 20  1  0
  7 21  1  0
  8 22  1  0
  8 23  1  0
M  END
