
     RDKit          3D

 20 20  0  0  0  0  0  0  0  0999 V2000
   -1.6192    0.4267    0.7134 C   0  0  0  0  0  0  0  0  0  0  0  0
   -0.4672    0.0248   -0.1681 C   0  0  0  0  0  0  0  0  0  0  0  0
   -0.9571   -0.4130   -1.5139 C   0  0  0  0  0  0  0  0  0  0  0  0
    0.4346   -1.0573    0.4236 C   0  0  0  0  0  0  0  0  0  0  0  0
   -0.0177   -1.4192    1.6813 O   0  0  0  0  0  0  0  0  0  0  0  0
    1.6293   -0.1202    0.4128 C   0  0  0  0  0  0  0  0  0  0  0  0
    0.7143    0.9437   -0.1466 C   0  0  0  0  0  0  0  0  0  0  0  0
    1.0907    1.4476   -1.3739 O   0  0  0  0  0  0  0  0  0  0  0  0
   -2.5989    0.4182    0.1712 H   0  0  0  0  0  0  0  0  0  0  0  0
   -1.6988   -0.3206    1.5171 H   0  0  0  0  0  0  0  0  0  0  0  0
   -1.4185    1.4271    1.1594 H   0  0  0  0  0  0  0  0  0  0  0  0
   -0.1434   -0.7929   -2.1753 H   0  0  0  0  0  0  0  0  0  0  0  0
   -1.6159   -1.3117   -1.3375 H   0  0  0  0  0  0  0  0  0  0  0  0
   -1.5338    0.3419   -2.0603 H   0  0  0  0  0  0  0  0  0  0  0  0
    0.6382   -1.9060   -0.2484 H   0  0  0  0  0  0  0  0  0  0  0  0
    0.6090   -1.0952    2.3834 H   0  0  0  0  0  0  0  0  0  0  0  0
    2.4362   -0.3716   -0.2681 H   0  0  0  0  0  0  0  0  0  0  0  0
    1.9743    0.0332    1.4478 H   0  0  0  0  0  0  0  0  0  0  0  0
    0.6221    1.7609    0.6192 H   0  0  0  0  0  0  0  0  0  0  0  0
    1.9217    1.9836   -1.2369 H   0  0  0  0  0  0  0  0  0  0  0  0
  1  2  1  0
  2  3  1  0
  2  4  1  0
  4  5  1  0
  4  6  1  0
  6  7  1  0
  7  8  1  0
  7  2  1  0
  1  9  1  0
  1 10  1  0
  1 11  1  0
  3 12  1  0
  3 13  1  0
  3 14  1  0
  4 15  1  0
  5 16  1  0
  6 17  1  0
  6 18  1  0
  7 19  1  0
  8 20  1  0
M  END
