
     RDKit          3D

 21 21  0  0  0  0  0  0  0  0999 V2000
   -1.6963   -0.3946    0.8927 C   0  0  0  0  0  0  0  0  0  0  0  0
   -0.8009    0.1970   -0.1663 C   0  0  0  0  0  0  0  0  0  0  0  0
   -1.6834    1.0268   -1.0610 C   0  0  0  0  0  0  0  0  0  0  0  0
   -2.5935    0.4522   -1.6411 O   0  0  0  0  0  0  0  0  0  0  0  0
   -0.2675   -0.8995   -0.9852 C   0  0  0  0  0  0  0  0  0  0  0  0
    0.9840   -1.2583   -0.8970 C   0  0  0  0  0  0  0  0  0  0  0  0
    2.0003   -0.6491   -0.0082 C   0  0  0  0  0  0  0  0  0  0  0  0
    1.4828    0.4391    0.8536 C   0  0  0  0  0  0  0  0  0  0  0  0
    0.2481    1.1102    0.3817 C   0  0  0  0  0  0  0  0  0  0  0  0
   -2.7823   -0.3130    0.6132 H   0  0  0  0  0  0  0  0  0  0  0  0
   -1.5921    0.1308    1.8740 H   0  0  0  0  0  0  0  0  0  0  0  0
   -1.5111   -1.4916    1.0095 H   0  0  0  0  0  0  0  0  0  0  0  0
   -1.5498    2.0791   -1.2077 H   0  0  0  0  0  0  0  0  0  0  0  0
   -0.9221   -1.4128   -1.6674 H   0  0  0  0  0  0  0  0  0  0  0  0
    1.3360   -2.0808   -1.5271 H   0  0  0  0  0  0  0  0  0  0  0  0
    2.8387   -0.3107   -0.6827 H   0  0  0  0  0  0  0  0  0  0  0  0
    2.4592   -1.4640    0.6179 H   0  0  0  0  0  0  0  0  0  0  0  0
    2.2875    1.2329    0.8958 H   0  0  0  0  0  0  0  0  0  0  0  0
    1.4147    0.0645    1.9120 H   0  0  0  0  0  0  0  0  0  0  0  0
   -0.1768    1.6985    1.2184 H   0  0  0  0  0  0  0  0  0  0  0  0
    0.5245    1.8433   -0.4251 H   0  0  0  0  0  0  0  0  0  0  0  0
  1  2  1  0
  2  3  1  0
  3  4  2  0
  2  5  1  0
  5  6  2  0
  6  7  1  0
  7  8  1  0
  8  9  1  0
  9  2  1  0
  1 10  1  0
  1 11  1  0
  1 12  1  0
  3 13  1  0
  5 14  1  0
  6 15  1  0
  7 16  1  0
  7 17  1  0
  8 18  1  0
  8 19  1  0
  9 20  1  0
  9 21  1  0
M  END
