
     RDKit          3D

 21 22  0  0  0  0  0  0  0  0999 V2000
    0.7893   -1.5662   -0.1362 C   0  0  0  0  0  0  0  0  0  0  0  0
    0.4279   -0.1793    0.4143 C   0  0  0  0  0  0  0  0  0  0  0  0
   -1.0552   -0.0641    0.4834 C   0  0  0  0  0  0  0  0  0  0  0  0
   -1.6464   -0.9182    1.4344 O   0  0  0  0  0  0  0  0  0  0  0  0
   -1.7355   -0.0157   -0.8909 C   0  0  0  0  0  0  0  0  0  0  0  0
   -1.7952    1.1401    0.0657 C   0  0  0  0  0  0  0  0  0  0  0  0
    1.1677    0.8856   -0.3300 C   0  0  0  0  0  0  0  0  0  0  0  0
    2.1033    0.7517    0.8500 C   0  0  0  0  0  0  0  0  0  0  0  0
    1.1250    0.1076    1.5784 O   0  0  0  0  0  0  0  0  0  0  0  0
    0.1426   -1.7109   -1.0241 H   0  0  0  0  0  0  0  0  0  0  0  0
    1.8569   -1.5718   -0.3858 H   0  0  0  0  0  0  0  0  0  0  0  0
    0.5229   -2.2776    0.6708 H   0  0  0  0  0  0  0  0  0  0  0  0
   -1.8852   -1.7781    0.9805 H   0  0  0  0  0  0  0  0  0  0  0  0
   -2.5989   -0.6753   -1.0446 H   0  0  0  0  0  0  0  0  0  0  0  0
   -1.1048    0.1678   -1.7775 H   0  0  0  0  0  0  0  0  0  0  0  0
   -2.7922    1.2766    0.5412 H   0  0  0  0  0  0  0  0  0  0  0  0
   -1.3080    2.0981   -0.1759 H   0  0  0  0  0  0  0  0  0  0  0  0
    1.6758    0.5556   -1.2685 H   0  0  0  0  0  0  0  0  0  0  0  0
    0.7117    1.8786   -0.3643 H   0  0  0  0  0  0  0  0  0  0  0  0
    3.0271    0.1831    0.6482 H   0  0  0  0  0  0  0  0  0  0  0  0
    2.3711    1.7126    1.3331 H   0  0  0  0  0  0  0  0  0  0  0  0
  1  2  1  0
  2  3  1  0
  3  4  1  0
  3  5  1  0
  5  6  1  0
  2  7  1  0
  7  8  1  0
  8  9  1  0
  9  2  1  0
  6  3  1  0
  1 10  1  0
  1 11  1  0
  1 12  1  0
  4 13  1  0
  5 14  1  0
  5 15  1  0
  6 16  1  0
  6 17  1  0
  7 18  1  0
  7 19  1  0
  8 20  1  0
  8 21  1  0
M  END
