
     RDKit          3D

 23 24  0  0  0  0  0  0  0  0999 V2000
   -1.8648    1.4836    0.0323 C   0  0  0  0  0  0  0  0  0  0  0  0
   -1.5890    0.0054   -0.1637 C   0  0  0  0  0  0  0  0  0  0  0  0
   -2.6267   -0.9020    0.4616 C   0  0  0  0  0  0  0  0  0  0  0  0
   -1.1096   -0.4650   -1.5130 C   0  0  0  0  0  0  0  0  0  0  0  0
   -0.2069   -0.4988   -0.3123 C   0  0  0  0  0  0  0  0  0  0  0  0
    0.8804    0.3386   -0.3132 O   0  0  0  0  0  0  0  0  0  0  0  0
    1.9553   -0.3270    0.2673 C   0  0  0  0  0  0  0  0  0  0  0  0
    2.9036    0.4708    1.1203 C   0  0  0  0  0  0  0  0  0  0  0  0
    3.2951    0.0746   -0.2495 C   0  0  0  0  0  0  0  0  0  0  0  0
   -1.5584    1.8027    1.0538 H   0  0  0  0  0  0  0  0  0  0  0  0
   -1.2991    2.1136   -0.6866 H   0  0  0  0  0  0  0  0  0  0  0  0
   -2.9421    1.6689   -0.0655 H   0  0  0  0  0  0  0  0  0  0  0  0
   -2.0792   -1.6510    1.0936 H   0  0  0  0  0  0  0  0  0  0  0  0
   -3.1902   -1.4136   -0.3455 H   0  0  0  0  0  0  0  0  0  0  0  0
   -3.3499   -0.3698    1.0849 H   0  0  0  0  0  0  0  0  0  0  0  0
   -0.9846    0.3511   -2.2572 H   0  0  0  0  0  0  0  0  0  0  0  0
   -1.4240   -1.4344   -1.9186 H   0  0  0  0  0  0  0  0  0  0  0  0
   -0.0343   -1.5007    0.1295 H   0  0  0  0  0  0  0  0  0  0  0  0
    1.8064   -1.3654    0.6271 H   0  0  0  0  0  0  0  0  0  0  0  0
    2.5569    1.4848    1.3712 H   0  0  0  0  0  0  0  0  0  0  0  0
    3.4433   -0.0345    1.9507 H   0  0  0  0  0  0  0  0  0  0  0  0
    4.0584   -0.7217   -0.3703 H   0  0  0  0  0  0  0  0  0  0  0  0
    3.3593    0.8898   -0.9969 H   0  0  0  0  0  0  0  0  0  0  0  0
  1  2  1  0
  2  3  1  0
  2  4  1  0
  4  5  1  0
  5  6  1  0
  6  7  1  0
  7  8  1  0
  8  9  1  0
  5  2  1  0
  9  7  1  0
  1 10  1  0
  1 11  1  0
  1 12  1  0
  3 13  1  0
  3 14  1  0
  3 15  1  0
  4 16  1  0
  4 17  1  0
  5 18  1  0
  7 19  1  0
  8 20  1  0
  8 21  1  0
  9 22  1  0
  9 23  1  0
M  END
