
     RDKit          3D

 21 23  0  0  0  0  0  0  0  0999 V2000
   -1.2844    1.6710    0.6140 C   0  0  0  0  0  0  0  0  0  0  0  0
   -1.0440    0.3815   -0.1677 C   0  0  0  0  0  0  0  0  0  0  0  0
   -1.7130   -0.8447    0.3758 C   0  0  0  0  0  0  0  0  0  0  0  0
   -0.6304    0.4022   -1.5685 C   0  0  0  0  0  0  0  0  0  0  0  0
    0.3789    0.2130   -0.5615 C   0  0  0  0  0  0  0  0  0  0  0  0
    1.3652    1.0722   -0.2075 O   0  0  0  0  0  0  0  0  0  0  0  0
    2.2470    0.0147   -0.1148 C   0  0  0  0  0  0  0  0  0  0  0  0
    2.0162   -0.9420    0.9798 C   0  0  0  0  0  0  0  0  0  0  0  0
    1.1162   -1.0107   -0.2338 C   0  0  0  0  0  0  0  0  0  0  0  0
   -0.7047    2.5075    0.2102 H   0  0  0  0  0  0  0  0  0  0  0  0
   -2.3537    1.8688    0.7560 H   0  0  0  0  0  0  0  0  0  0  0  0
   -0.8511    1.4673    1.6370 H   0  0  0  0  0  0  0  0  0  0  0  0
   -0.9748   -1.4789    0.9010 H   0  0  0  0  0  0  0  0  0  0  0  0
   -2.0984   -1.4232   -0.4933 H   0  0  0  0  0  0  0  0  0  0  0  0
   -2.5441   -0.5305    1.0125 H   0  0  0  0  0  0  0  0  0  0  0  0
   -0.9152   -0.4848   -2.1919 H   0  0  0  0  0  0  0  0  0  0  0  0
   -0.6086    1.3429   -2.1806 H   0  0  0  0  0  0  0  0  0  0  0  0
    3.0162   -0.1084   -0.8860 H   0  0  0  0  0  0  0  0  0  0  0  0
    2.7731   -1.7246    1.1517 H   0  0  0  0  0  0  0  0  0  0  0  0
    1.5786   -0.5542    1.9229 H   0  0  0  0  0  0  0  0  0  0  0  0
    1.2309   -1.8393   -0.9554 H   0  0  0  0  0  0  0  0  0  0  0  0
  1  2  1  0
  2  3  1  0
  2  4  1  0
  4  5  1  0
  5  6  1  0
  6  7  1  0
  7  8  1  0
  8  9  1  0
  5  2  1  0
  9  7  1  0
  9  5  1  0
  1 10  1  0
  1 11  1  0
  1 12  1  0
  3 13  1  0
  3 14  1  0
  3 15  1  0
  4 16  1  0
  4 17  1  0
  7 18  1  0
  8 19  1  0
  8 20  1  0
  9 21  1  0
M  END
