
     RDKit          3D

 20 21  0  0  0  0  0  0  0  0999 V2000
   -1.7106   -1.0129   -0.1878 C   0  0  0  0  0  0  0  0  0  0  0  0
   -0.6511    0.0178   -0.0605 C   0  0  0  0  0  0  0  0  0  0  0  0
   -1.2686    1.4128   -0.0224 C   0  0  0  0  0  0  0  0  0  0  0  0
    0.2329   -0.2303    1.1577 C   0  0  0  0  0  0  0  0  0  0  0  0
    1.4114    0.0627    0.2650 C   0  0  0  0  0  0  0  0  0  0  0  0
    2.1552    1.1999    0.4201 O   0  0  0  0  0  0  0  0  0  0  0  0
    1.6555   -0.9247   -0.8132 C   0  0  0  0  0  0  0  0  0  0  0  0
    0.5063   -0.0379   -0.9876 C   0  0  0  0  0  0  0  0  0  0  0  0
   -1.3497   -2.0223   -0.4178 H   0  0  0  0  0  0  0  0  0  0  0  0
   -2.4674   -0.6508   -0.9341 H   0  0  0  0  0  0  0  0  0  0  0  0
   -2.2289   -1.0990    0.8129 H   0  0  0  0  0  0  0  0  0  0  0  0
   -0.4091    2.1195   -0.0957 H   0  0  0  0  0  0  0  0  0  0  0  0
   -1.9306    1.5102   -0.9012 H   0  0  0  0  0  0  0  0  0  0  0  0
   -1.8062    1.4783    0.9366 H   0  0  0  0  0  0  0  0  0  0  0  0
    0.0708    0.4524    1.9960 H   0  0  0  0  0  0  0  0  0  0  0  0
    0.2408   -1.3271    1.4215 H   0  0  0  0  0  0  0  0  0  0  0  0
    2.8854    0.9920    1.0730 H   0  0  0  0  0  0  0  0  0  0  0  0
    1.5326   -1.9989   -0.4933 H   0  0  0  0  0  0  0  0  0  0  0  0
    2.5437   -0.7248   -1.4394 H   0  0  0  0  0  0  0  0  0  0  0  0
    0.5876    0.7830   -1.7297 H   0  0  0  0  0  0  0  0  0  0  0  0
  1  2  1  0
  2  3  1  0
  2  4  1  0
  4  5  1  0
  5  6  1  0
  5  7  1  0
  7  8  1  0
  8  2  1  0
  8  5  1  0
  1  9  1  0
  1 10  1  0
  1 11  1  0
  3 12  1  0
  3 13  1  0
  3 14  1  0
  4 15  1  0
  4 16  1  0
  6 17  1  0
  7 18  1  0
  7 19  1  0
  8 20  1  0
M  END
