
     RDKit          3D

 21 23  0  0  0  0  0  0  0  0999 V2000
   -2.0219   -1.2052   -0.2077 C   0  0  0  0  0  0  0  0  0  0  0  0
   -0.9722   -0.1091   -0.0546 C   0  0  0  0  0  0  0  0  0  0  0  0
   -1.5842    1.2590    0.0275 C   0  0  0  0  0  0  0  0  0  0  0  0
    0.2725   -0.3483   -0.8100 C   0  0  0  0  0  0  0  0  0  0  0  0
    1.4096    0.6317   -0.8196 C   0  0  0  0  0  0  0  0  0  0  0  0
    2.4058   -0.0705    0.1166 C   0  0  0  0  0  0  0  0  0  0  0  0
    1.3191    0.4406    1.0727 C   0  0  0  0  0  0  0  0  0  0  0  0
    1.2081    1.5221    0.2240 O   0  0  0  0  0  0  0  0  0  0  0  0
    0.1895   -0.5055    0.7543 C   0  0  0  0  0  0  0  0  0  0  0  0
   -2.9259   -0.8382   -0.7179 H   0  0  0  0  0  0  0  0  0  0  0  0
   -1.6457   -2.0620   -0.7970 H   0  0  0  0  0  0  0  0  0  0  0  0
   -2.3138   -1.6001    0.7953 H   0  0  0  0  0  0  0  0  0  0  0  0
   -1.6607    1.6697   -1.0212 H   0  0  0  0  0  0  0  0  0  0  0  0
   -1.0415    1.9585    0.6815 H   0  0  0  0  0  0  0  0  0  0  0  0
   -2.6239    1.2151    0.3958 H   0  0  0  0  0  0  0  0  0  0  0  0
    0.4673   -1.3012   -1.3424 H   0  0  0  0  0  0  0  0  0  0  0  0
    1.7950    0.9882   -1.7498 H   0  0  0  0  0  0  0  0  0  0  0  0
    2.4302   -1.1553    0.0303 H   0  0  0  0  0  0  0  0  0  0  0  0
    3.3669    0.4600    0.2000 H   0  0  0  0  0  0  0  0  0  0  0  0
    1.6052    0.5863    2.0930 H   0  0  0  0  0  0  0  0  0  0  0  0
    0.3207   -1.5359    1.1292 H   0  0  0  0  0  0  0  0  0  0  0  0
  1  2  1  0
  2  3  1  0
  2  4  1  0
  4  5  1  0
  5  6  1  0
  6  7  1  0
  7  8  1  0
  7  9  1  0
  9  2  1  0
  9  4  1  0
  8  5  1  0
  1 10  1  0
  1 11  1  0
  1 12  1  0
  3 13  1  0
  3 14  1  0
  3 15  1  0
  4 16  1  0
  5 17  1  0
  6 18  1  0
  6 19  1  0
  7 20  1  0
  9 21  1  0
M  END
