
     RDKit          3D

 19 21  0  0  0  0  0  0  0  0999 V2000
   -0.1708    1.0616   -1.3251 C   0  0  0  0  0  0  0  0  0  0  0  0
   -0.2246    0.2066   -0.1043 C   0  0  0  0  0  0  0  0  0  0  0  0
    0.9716    0.3375    0.7793 C   0  0  0  0  0  0  0  0  0  0  0  0
    2.3223    0.0390    0.3524 C   0  0  0  0  0  0  0  0  0  0  0  0
    1.8309    1.4315    0.3910 O   0  0  0  0  0  0  0  0  0  0  0  0
   -0.5803   -1.2373   -0.3284 C   0  0  0  0  0  0  0  0  0  0  0  0
   -1.5043   -1.2388    0.8210 C   0  0  0  0  0  0  0  0  0  0  0  0
   -1.4682   -0.3666    1.8680 O   0  0  0  0  0  0  0  0  0  0  0  0
   -1.5311    0.2815    0.6809 C   0  0  0  0  0  0  0  0  0  0  0  0
   -1.0072    0.9365   -2.0078 H   0  0  0  0  0  0  0  0  0  0  0  0
   -0.1241    2.1279   -0.9821 H   0  0  0  0  0  0  0  0  0  0  0  0
    0.7882    0.8703   -1.8331 H   0  0  0  0  0  0  0  0  0  0  0  0
    0.7758    0.3150    1.8797 H   0  0  0  0  0  0  0  0  0  0  0  0
    3.1058   -0.0853    1.1118 H   0  0  0  0  0  0  0  0  0  0  0  0
    2.6332   -0.2022   -0.6635 H   0  0  0  0  0  0  0  0  0  0  0  0
   -1.1523   -1.3384   -1.2930 H   0  0  0  0  0  0  0  0  0  0  0  0
    0.2149   -1.9696   -0.2594 H   0  0  0  0  0  0  0  0  0  0  0  0
   -2.4422   -1.8031    0.7069 H   0  0  0  0  0  0  0  0  0  0  0  0
   -2.4375    0.6337    0.2055 H   0  0  0  0  0  0  0  0  0  0  0  0
  1  2  1  0
  2  3  1  0
  3  4  1  0
  4  5  1  0
  2  6  1  0
  6  7  1  0
  7  8  1  0
  8  9  1  0
  9  2  1  0
  5  3  1  0
  9  7  1  0
  1 10  1  0
  1 11  1  0
  1 12  1  0
  3 13  1  0
  4 14  1  0
  4 15  1  0
  6 16  1  0
  6 17  1  0
  7 18  1  0
  9 19  1  0
M  END
