
     RDKit          3D

 17 18  0  0  0  0  0  0  0  0999 V2000
   -1.1901    1.0460    0.6702 C   0  0  0  0  0  0  0  0  0  0  0  0
   -0.5346    0.0786   -0.2817 C   0  0  0  0  0  0  0  0  0  0  0  0
   -1.4664   -0.7035   -1.1248 C   0  0  0  0  0  0  0  0  0  0  0  0
   -1.7226   -1.8419   -0.7975 O   0  0  0  0  0  0  0  0  0  0  0  0
    0.5765    0.6158   -1.0848 C   0  0  0  0  0  0  0  0  0  0  0  0
    0.6590    1.4814   -1.9441 O   0  0  0  0  0  0  0  0  0  0  0  0
    1.5145   -0.3090   -0.4281 C   0  0  0  0  0  0  0  0  0  0  0  0
    1.6325   -0.1739    1.0470 C   0  0  0  0  0  0  0  0  0  0  0  0
    0.4369   -0.8020    0.4693 C   0  0  0  0  0  0  0  0  0  0  0  0
   -2.3001    1.0226    0.5124 H   0  0  0  0  0  0  0  0  0  0  0  0
   -1.0368    0.7442    1.7250 H   0  0  0  0  0  0  0  0  0  0  0  0
   -0.8699    2.0771    0.5496 H   0  0  0  0  0  0  0  0  0  0  0  0
   -1.9112   -0.2854   -2.0063 H   0  0  0  0  0  0  0  0  0  0  0  0
    2.0591   -1.0718   -0.9949 H   0  0  0  0  0  0  0  0  0  0  0  0
    2.3038   -0.8566    1.6239 H   0  0  0  0  0  0  0  0  0  0  0  0
    1.6179    0.8534    1.4782 H   0  0  0  0  0  0  0  0  0  0  0  0
    0.2316   -1.8749    0.5864 H   0  0  0  0  0  0  0  0  0  0  0  0
  1  2  1  0
  2  3  1  0
  3  4  2  0
  2  5  1  0
  5  6  2  0
  5  7  1  0
  7  8  1  0
  8  9  1  0
  9  2  1  0
  9  7  1  0
  1 10  1  0
  1 11  1  0
  1 12  1  0
  3 13  1  0
  7 14  1  0
  8 15  1  0
  8 16  1  0
  9 17  1  0
M  END
