
     RDKit          3D

 23 23  0  0  0  0  0  0  0  0999 V2000
   -2.6739    0.1019   -1.2288 C   0  0  0  0  0  0  0  0  0  0  0  0
   -1.7577    0.0243   -0.0211 C   0  0  0  0  0  0  0  0  0  0  0  0
   -0.3154    0.3005   -0.3472 C   0  0  0  0  0  0  0  0  0  0  0  0
    0.5535    0.2073    0.9077 C   0  0  0  0  0  0  0  0  0  0  0  0
    1.9900    0.4855    0.5718 C   0  0  0  0  0  0  0  0  0  0  0  0
    2.5614   -0.4671   -0.4241 C   0  0  0  0  0  0  0  0  0  0  0  0
    3.9056   -0.0796   -0.6343 O   0  0  0  0  0  0  0  0  0  0  0  0
   -2.3422    0.2722    1.2709 C   0  0  0  0  0  0  0  0  0  0  0  0
   -1.9915   -1.0895    0.8044 O   0  0  0  0  0  0  0  0  0  0  0  0
   -2.6105    1.1022   -1.6582 H   0  0  0  0  0  0  0  0  0  0  0  0
   -2.3708   -0.7152   -1.9194 H   0  0  0  0  0  0  0  0  0  0  0  0
   -3.7018   -0.1118   -0.8779 H   0  0  0  0  0  0  0  0  0  0  0  0
    0.0184   -0.5362   -1.0168 H   0  0  0  0  0  0  0  0  0  0  0  0
   -0.1887    1.2609   -0.8546 H   0  0  0  0  0  0  0  0  0  0  0  0
    0.1394    0.9388    1.6234 H   0  0  0  0  0  0  0  0  0  0  0  0
    0.4865   -0.8092    1.3415 H   0  0  0  0  0  0  0  0  0  0  0  0
    2.1041    1.5367    0.2417 H   0  0  0  0  0  0  0  0  0  0  0  0
    2.5730    0.3828    1.5107 H   0  0  0  0  0  0  0  0  0  0  0  0
    2.0220   -0.5069   -1.3836 H   0  0  0  0  0  0  0  0  0  0  0  0
    2.6329   -1.4789    0.0521 H   0  0  0  0  0  0  0  0  0  0  0  0
    4.1918   -0.4113   -1.5079 H   0  0  0  0  0  0  0  0  0  0  0  0
   -1.7945    0.4708    2.1960 H   0  0  0  0  0  0  0  0  0  0  0  0
   -3.4317    0.4313    1.3537 H   0  0  0  0  0  0  0  0  0  0  0  0
  1  2  1  0
  2  3  1  0
  3  4  1  0
  4  5  1  0
  5  6  1  0
  6  7  1  0
  2  8  1  0
  8  9  1  0
  9  2  1  0
  1 10  1  0
  1 11  1  0
  1 12  1  0
  3 13  1  0
  3 14  1  0
  4 15  1  0
  4 16  1  0
  5 17  1  0
  5 18  1  0
  6 19  1  0
  6 20  1  0
  7 21  1  0
  8 22  1  0
  8 23  1  0
M  END
