
     RDKit          3D

 21 21  0  0  0  0  0  0  0  0999 V2000
   -2.2795    0.4674   -0.0305 C   0  0  0  0  0  0  0  0  0  0  0  0
   -1.0068   -0.2361    0.2671 C   0  0  0  0  0  0  0  0  0  0  0  0
   -1.2612   -1.4658    0.8747 O   0  0  0  0  0  0  0  0  0  0  0  0
   -0.1507    0.6348    1.1513 C   0  0  0  0  0  0  0  0  0  0  0  0
    0.6984    1.3387    0.3158 O   0  0  0  0  0  0  0  0  0  0  0  0
    0.9769    0.5340   -0.7780 C   0  0  0  0  0  0  0  0  0  0  0  0
    2.3264   -0.1454   -0.5472 C   0  0  0  0  0  0  0  0  0  0  0  0
    2.2350   -0.9106    0.6137 O   0  0  0  0  0  0  0  0  0  0  0  0
   -0.1228   -0.4580   -0.9243 C   0  0  0  0  0  0  0  0  0  0  0  0
   -2.6074    1.0028    0.9026 H   0  0  0  0  0  0  0  0  0  0  0  0
   -3.1128   -0.2438   -0.2641 H   0  0  0  0  0  0  0  0  0  0  0  0
   -2.2341    1.2183   -0.8161 H   0  0  0  0  0  0  0  0  0  0  0  0
   -2.1751   -1.7625    0.6235 H   0  0  0  0  0  0  0  0  0  0  0  0
   -0.7682    1.3724    1.7008 H   0  0  0  0  0  0  0  0  0  0  0  0
    0.3603   -0.0145    1.8657 H   0  0  0  0  0  0  0  0  0  0  0  0
    1.0797    1.1330   -1.6973 H   0  0  0  0  0  0  0  0  0  0  0  0
    3.1186    0.6109   -0.3779 H   0  0  0  0  0  0  0  0  0  0  0  0
    2.5724   -0.7646   -1.4263 H   0  0  0  0  0  0  0  0  0  0  0  0
    2.6875   -0.4770    1.3622 H   0  0  0  0  0  0  0  0  0  0  0  0
   -0.6465   -0.3500   -1.8890 H   0  0  0  0  0  0  0  0  0  0  0  0
    0.3099   -1.4840   -0.9269 H   0  0  0  0  0  0  0  0  0  0  0  0
  1  2  1  0
  2  3  1  0
  2  4  1  0
  4  5  1  0
  5  6  1  0
  6  7  1  0
  7  8  1  0
  6  9  1  0
  9  2  1  0
  1 10  1  0
  1 11  1  0
  1 12  1  0
  3 13  1  0
  4 14  1  0
  4 15  1  0
  6 16  1  0
  7 17  1  0
  7 18  1  0
  8 19  1  0
  9 20  1  0
  9 21  1  0
M  END
