
     RDKit          3D

 19 20  0  0  0  0  0  0  0  0999 V2000
    1.8001   -0.5077    0.3846 C   0  0  0  0  0  0  0  0  0  0  0  0
    0.5099   -0.1711   -0.2889 C   0  0  0  0  0  0  0  0  0  0  0  0
    0.7230    0.1315   -1.6106 O   0  0  0  0  0  0  0  0  0  0  0  0
   -0.4976   -1.3199   -0.2272 C   0  0  0  0  0  0  0  0  0  0  0  0
   -1.7256   -0.4846   -0.3647 C   0  0  0  0  0  0  0  0  0  0  0  0
   -2.5912   -0.0046    0.4780 O   0  0  0  0  0  0  0  0  0  0  0  0
   -1.4161    0.2978    0.9539 C   0  0  0  0  0  0  0  0  0  0  0  0
   -0.2204    0.9861    0.4072 C   0  0  0  0  0  0  0  0  0  0  0  0
   -0.4719    2.0308   -0.4386 O   0  0  0  0  0  0  0  0  0  0  0  0
    2.3435   -1.2070   -0.2829 H   0  0  0  0  0  0  0  0  0  0  0  0
    2.4003    0.3952    0.4715 H   0  0  0  0  0  0  0  0  0  0  0  0
    1.6572   -0.9155    1.4043 H   0  0  0  0  0  0  0  0  0  0  0  0
    0.2553    0.9735   -1.8799 H   0  0  0  0  0  0  0  0  0  0  0  0
   -0.3462   -2.0603   -1.0018 H   0  0  0  0  0  0  0  0  0  0  0  0
   -0.4580   -1.8268    0.7628 H   0  0  0  0  0  0  0  0  0  0  0  0
   -1.6524    0.1378   -1.3124 H   0  0  0  0  0  0  0  0  0  0  0  0
   -1.1336   -0.3394    1.8473 H   0  0  0  0  0  0  0  0  0  0  0  0
    0.4373    1.3299    1.2227 H   0  0  0  0  0  0  0  0  0  0  0  0
    0.3865    2.5543   -0.5253 H   0  0  0  0  0  0  0  0  0  0  0  0
  1  2  1  0
  2  3  1  0
  2  4  1  0
  4  5  1  0
  5  6  1  0
  6  7  1  0
  7  8  1  0
  8  9  1  0
  8  2  1  0
  7  5  1  0
  1 10  1  0
  1 11  1  0
  1 12  1  0
  3 13  1  0
  4 14  1  0
  4 15  1  0
  5 16  1  0
  7 17  1  0
  8 18  1  0
  9 19  1  0
M  END
