
     RDKit          3D

 19 19  0  0  0  0  0  0  0  0999 V2000
   -1.2492    1.0521   -0.9697 C   0  0  0  0  0  0  0  0  0  0  0  0
   -0.5956   -0.0642   -0.1474 C   0  0  0  0  0  0  0  0  0  0  0  0
   -1.6196   -1.1028    0.2685 C   0  0  0  0  0  0  0  0  0  0  0  0
    0.0773    0.5921    1.0153 C   0  0  0  0  0  0  0  0  0  0  0  0
    1.2675    0.0309    1.3875 O   0  0  0  0  0  0  0  0  0  0  0  0
    2.2151   -0.0095    0.3861 C   0  0  0  0  0  0  0  0  0  0  0  0
    1.6803   -0.8171   -0.7316 C   0  0  0  0  0  0  0  0  0  0  0  0
    2.4596   -1.5373   -1.3950 O   0  0  0  0  0  0  0  0  0  0  0  0
    0.3283   -0.7445   -1.0025 O   0  0  0  0  0  0  0  0  0  0  0  0
   -1.3813    1.9744   -0.3565 H   0  0  0  0  0  0  0  0  0  0  0  0
   -2.2448    0.7710   -1.3306 H   0  0  0  0  0  0  0  0  0  0  0  0
   -0.5374    1.3289   -1.7801 H   0  0  0  0  0  0  0  0  0  0  0  0
   -1.4527   -1.4845    1.2864 H   0  0  0  0  0  0  0  0  0  0  0  0
   -2.6613   -0.7115    0.2147 H   0  0  0  0  0  0  0  0  0  0  0  0
   -1.6079   -1.9934   -0.4103 H   0  0  0  0  0  0  0  0  0  0  0  0
    0.2644    1.6859    0.8254 H   0  0  0  0  0  0  0  0  0  0  0  0
   -0.6152    0.5342    1.8810 H   0  0  0  0  0  0  0  0  0  0  0  0
    2.5438    0.9926    0.0436 H   0  0  0  0  0  0  0  0  0  0  0  0
    3.1289   -0.4974    0.8154 H   0  0  0  0  0  0  0  0  0  0  0  0
  1  2  1  0
  2  3  1  0
  2  4  1  0
  4  5  1  0
  5  6  1  0
  6  7  1  0
  7  8  2  0
  7  9  1  0
  9  2  1  0
  1 10  1  0
  1 11  1  0
  1 12  1  0
  3 13  1  0
  3 14  1  0
  3 15  1  0
  4 16  1  0
  4 17  1  0
  6 18  1  0
  6 19  1  0
M  END
