
     RDKit          3D

 23 24  0  0  0  0  0  0  0  0999 V2000
    1.0996   -0.3485    1.2922 C   0  0  0  0  0  0  0  0  0  0  0  0
    0.8616   -0.0916   -0.1769 C   0  0  0  0  0  0  0  0  0  0  0  0
    2.1526    0.1534   -0.9518 C   0  0  0  0  0  0  0  0  0  0  0  0
    2.7821    1.2731   -0.4011 O   0  0  0  0  0  0  0  0  0  0  0  0
   -0.2714    0.7645   -0.6137 C   0  0  0  0  0  0  0  0  0  0  0  0
   -1.3823    1.0191    0.3704 C   0  0  0  0  0  0  0  0  0  0  0  0
   -2.0707   -0.2841    0.6262 C   0  0  0  0  0  0  0  0  0  0  0  0
   -1.4453   -1.2961   -0.2911 C   0  0  0  0  0  0  0  0  0  0  0  0
   -0.2435   -0.6918   -0.9168 C   0  0  0  0  0  0  0  0  0  0  0  0
    0.2847    0.0015    1.9331 H   0  0  0  0  0  0  0  0  0  0  0  0
    2.0209    0.1680    1.6138 H   0  0  0  0  0  0  0  0  0  0  0  0
    1.2897   -1.4395    1.4591 H   0  0  0  0  0  0  0  0  0  0  0  0
    2.8512   -0.6891   -0.8400 H   0  0  0  0  0  0  0  0  0  0  0  0
    1.9492    0.3944   -2.0167 H   0  0  0  0  0  0  0  0  0  0  0  0
    2.1065    1.9256   -0.0400 H   0  0  0  0  0  0  0  0  0  0  0  0
   -0.1585    1.4286   -1.4962 H   0  0  0  0  0  0  0  0  0  0  0  0
   -1.0352    1.4814    1.3151 H   0  0  0  0  0  0  0  0  0  0  0  0
   -2.0705    1.7580   -0.1013 H   0  0  0  0  0  0  0  0  0  0  0  0
   -3.1700   -0.1414    0.4175 H   0  0  0  0  0  0  0  0  0  0  0  0
   -2.0280   -0.5944    1.6948 H   0  0  0  0  0  0  0  0  0  0  0  0
   -2.1997   -1.4893   -1.1091 H   0  0  0  0  0  0  0  0  0  0  0  0
   -1.2883   -2.2620    0.2002 H   0  0  0  0  0  0  0  0  0  0  0  0
   -0.0346   -1.0398   -1.9677 H   0  0  0  0  0  0  0  0  0  0  0  0
  1  2  1  0
  2  3  1  0
  3  4  1  0
  2  5  1  0
  5  6  1  0
  6  7  1  0
  7  8  1  0
  8  9  1  0
  9  2  1  0
  9  5  1  0
  1 10  1  0
  1 11  1  0
  1 12  1  0
  3 13  1  0
  3 14  1  0
  4 15  1  0
  5 16  1  0
  6 17  1  0
  6 18  1  0
  7 19  1  0
  7 20  1  0
  8 21  1  0
  8 22  1  0
  9 23  1  0
M  END
