
     RDKit          3D

 23 24  0  0  0  0  0  0  0  0999 V2000
    1.5227   -0.4800   -1.2806 C   0  0  0  0  0  0  0  0  0  0  0  0
    0.6010   -0.3192   -0.1103 C   0  0  0  0  0  0  0  0  0  0  0  0
    1.1608   -0.8682    1.1547 C   0  0  0  0  0  0  0  0  0  0  0  0
    0.0973    1.1066    0.0215 C   0  0  0  0  0  0  0  0  0  0  0  0
   -0.9280    0.9484    1.1133 C   0  0  0  0  0  0  0  0  0  0  0  0
   -1.5106   -0.4448    0.8263 C   0  0  0  0  0  0  0  0  0  0  0  0
   -0.7924   -0.8956   -0.4265 C   0  0  0  0  0  0  0  0  0  0  0  0
   -1.1403   -0.1086   -1.5303 O   0  0  0  0  0  0  0  0  0  0  0  0
   -0.7144    1.1800   -1.2755 C   0  0  0  0  0  0  0  0  0  0  0  0
    1.2414    0.1779   -2.1046 H   0  0  0  0  0  0  0  0  0  0  0  0
    1.5679   -1.5434   -1.5964 H   0  0  0  0  0  0  0  0  0  0  0  0
    2.5423   -0.2175   -0.9394 H   0  0  0  0  0  0  0  0  0  0  0  0
    2.2652   -1.0328    0.9824 H   0  0  0  0  0  0  0  0  0  0  0  0
    0.7713   -1.9013    1.3746 H   0  0  0  0  0  0  0  0  0  0  0  0
    1.0947   -0.2052    2.0243 H   0  0  0  0  0  0  0  0  0  0  0  0
    0.8329    1.8602    0.1429 H   0  0  0  0  0  0  0  0  0  0  0  0
   -0.5291    1.0282    2.1219 H   0  0  0  0  0  0  0  0  0  0  0  0
   -1.7444    1.6838    0.8966 H   0  0  0  0  0  0  0  0  0  0  0  0
   -1.1792   -1.1095    1.6436 H   0  0  0  0  0  0  0  0  0  0  0  0
   -2.6007   -0.3949    0.6976 H   0  0  0  0  0  0  0  0  0  0  0  0
   -0.7880   -1.9471   -0.6111 H   0  0  0  0  0  0  0  0  0  0  0  0
   -1.6015    1.8313   -1.0404 H   0  0  0  0  0  0  0  0  0  0  0  0
   -0.1690    1.6518   -2.0847 H   0  0  0  0  0  0  0  0  0  0  0  0
  1  2  1  0
  2  3  1  0
  2  4  1  0
  4  5  1  0
  5  6  1  0
  6  7  1  0
  7  8  1  0
  8  9  1  0
  7  2  1  0
  9  4  1  0
  1 10  1  0
  1 11  1  0
  1 12  1  0
  3 13  1  0
  3 14  1  0
  3 15  1  0
  4 16  1  0
  5 17  1  0
  5 18  1  0
  6 19  1  0
  6 20  1  0
  7 21  1  0
  9 22  1  0
  9 23  1  0
M  END
