
     RDKit          3D

 21 21  0  0  0  0  0  0  0  0999 V2000
   -2.0702   -0.0715   -0.5598 C   0  0  0  0  0  0  0  0  0  0  0  0
   -0.8492    0.0150    0.3581 C   0  0  0  0  0  0  0  0  0  0  0  0
   -1.3643   -0.0222    1.6753 O   0  0  0  0  0  0  0  0  0  0  0  0
    0.0576   -1.1464    0.2012 C   0  0  0  0  0  0  0  0  0  0  0  0
    1.1618   -0.9599   -0.7881 C   0  0  0  0  0  0  0  0  0  0  0  0
    2.0338    0.2382   -0.4486 C   0  0  0  0  0  0  0  0  0  0  0  0
    1.2512    1.3277    0.1461 C   0  0  0  0  0  0  0  0  0  0  0  0
    1.8565    2.2525    0.6697 O   0  0  0  0  0  0  0  0  0  0  0  0
   -0.2204    1.3505    0.1370 C   0  0  0  0  0  0  0  0  0  0  0  0
   -2.8139    0.6715   -0.1954 H   0  0  0  0  0  0  0  0  0  0  0  0
   -1.7900    0.2142   -1.6024 H   0  0  0  0  0  0  0  0  0  0  0  0
   -2.4712   -1.0972   -0.6128 H   0  0  0  0  0  0  0  0  0  0  0  0
   -1.7232   -0.9233    1.8548 H   0  0  0  0  0  0  0  0  0  0  0  0
   -0.5328   -2.0247   -0.1032 H   0  0  0  0  0  0  0  0  0  0  0  0
    0.5352   -1.3703    1.1985 H   0  0  0  0  0  0  0  0  0  0  0  0
    1.8426   -1.8556   -0.6828 H   0  0  0  0  0  0  0  0  0  0  0  0
    0.8381   -0.9575   -1.8339 H   0  0  0  0  0  0  0  0  0  0  0  0
    2.5509    0.5168   -1.3955 H   0  0  0  0  0  0  0  0  0  0  0  0
    2.8490   -0.0498    0.2611 H   0  0  0  0  0  0  0  0  0  0  0  0
   -0.5995    2.0807    0.9104 H   0  0  0  0  0  0  0  0  0  0  0  0
   -0.5418    1.8116   -0.8399 H   0  0  0  0  0  0  0  0  0  0  0  0
  1  2  1  0
  2  3  1  0
  2  4  1  0
  4  5  1  0
  5  6  1  0
  6  7  1  0
  7  8  2  0
  7  9  1  0
  9  2  1  0
  1 10  1  0
  1 11  1  0
  1 12  1  0
  3 13  1  0
  4 14  1  0
  4 15  1  0
  5 16  1  0
  5 17  1  0
  6 18  1  0
  6 19  1  0
  9 20  1  0
  9 21  1  0
M  END
