
     RDKit          3D

 23 24  0  0  0  0  0  0  0  0999 V2000
   -1.0368    0.0010    1.7974 C   0  0  0  0  0  0  0  0  0  0  0  0
   -0.5997    0.1786    0.3609 C   0  0  0  0  0  0  0  0  0  0  0  0
   -0.2014    1.5981    0.1066 C   0  0  0  0  0  0  0  0  0  0  0  0
   -1.6229   -0.2863   -0.6544 C   0  0  0  0  0  0  0  0  0  0  0  0
   -0.8032   -1.5145   -0.8858 C   0  0  0  0  0  0  0  0  0  0  0  0
    0.3182   -0.8893   -0.0987 C   0  0  0  0  0  0  0  0  0  0  0  0
    1.5025   -0.4346   -0.8936 C   0  0  0  0  0  0  0  0  0  0  0  0
    2.4404    0.4970   -0.2420 C   0  0  0  0  0  0  0  0  0  0  0  0
    2.7685   -0.8531   -0.5183 O   0  0  0  0  0  0  0  0  0  0  0  0
   -0.2864    0.4719    2.4477 H   0  0  0  0  0  0  0  0  0  0  0  0
   -1.0871   -1.0865    1.9882 H   0  0  0  0  0  0  0  0  0  0  0  0
   -2.0400    0.4897    1.9005 H   0  0  0  0  0  0  0  0  0  0  0  0
    0.3989    2.0600    0.8903 H   0  0  0  0  0  0  0  0  0  0  0  0
   -1.1595    2.1956    0.0583 H   0  0  0  0  0  0  0  0  0  0  0  0
    0.2608    1.7429   -0.9004 H   0  0  0  0  0  0  0  0  0  0  0  0
   -2.5943   -0.4463   -0.1554 H   0  0  0  0  0  0  0  0  0  0  0  0
   -1.7151    0.3825   -1.5342 H   0  0  0  0  0  0  0  0  0  0  0  0
   -0.5429   -1.6935   -1.9507 H   0  0  0  0  0  0  0  0  0  0  0  0
   -1.2715   -2.3912   -0.3879 H   0  0  0  0  0  0  0  0  0  0  0  0
    0.6342   -1.5854    0.7164 H   0  0  0  0  0  0  0  0  0  0  0  0
    1.3747   -0.3735   -2.0003 H   0  0  0  0  0  0  0  0  0  0  0  0
    2.9054    1.2635   -0.8908 H   0  0  0  0  0  0  0  0  0  0  0  0
    2.3572    0.6733    0.8463 H   0  0  0  0  0  0  0  0  0  0  0  0
  1  2  1  0
  2  3  1  0
  2  4  1  0
  4  5  1  0
  5  6  1  0
  6  7  1  0
  7  8  1  0
  8  9  1  0
  6  2  1  0
  9  7  1  0
  1 10  1  0
  1 11  1  0
  1 12  1  0
  3 13  1  0
  3 14  1  0
  3 15  1  0
  4 16  1  0
  4 17  1  0
  5 18  1  0
  5 19  1  0
  6 20  1  0
  7 21  1  0
  8 22  1  0
  8 23  1  0
M  END
