
     RDKit          3D

 22 22  0  0  0  0  0  0  0  0999 V2000
   -1.5019   -0.3376   -1.3592 C   0  0  0  0  0  0  0  0  0  0  0  0
   -0.6911   -0.0456   -0.0912 C   0  0  0  0  0  0  0  0  0  0  0  0
   -1.2291   -0.7938    1.0691 C   0  0  0  0  0  0  0  0  0  0  0  0
   -0.7125    1.4514    0.1783 C   0  0  0  0  0  0  0  0  0  0  0  0
    0.7809    1.4524   -0.0122 C   0  0  0  0  0  0  0  0  0  0  0  0
    0.7563   -0.0226   -0.3455 C   0  0  0  0  0  0  0  0  0  0  0  0
    1.6501   -0.8562    0.5191 C   0  0  0  0  0  0  0  0  0  0  0  0
    2.9825   -0.7101    0.1343 O   0  0  0  0  0  0  0  0  0  0  0  0
   -0.9208    0.1208   -2.1877 H   0  0  0  0  0  0  0  0  0  0  0  0
   -1.5593   -1.4244   -1.4508 H   0  0  0  0  0  0  0  0  0  0  0  0
   -2.4766    0.1634   -1.2391 H   0  0  0  0  0  0  0  0  0  0  0  0
   -1.1862   -0.1935    2.0167 H   0  0  0  0  0  0  0  0  0  0  0  0
   -2.3249   -0.9568    0.8940 H   0  0  0  0  0  0  0  0  0  0  0  0
   -0.8044   -1.8033    1.2189 H   0  0  0  0  0  0  0  0  0  0  0  0
   -1.2858    2.0486   -0.5569 H   0  0  0  0  0  0  0  0  0  0  0  0
   -1.0564    1.7297    1.2013 H   0  0  0  0  0  0  0  0  0  0  0  0
    1.3092    1.7157    0.9280 H   0  0  0  0  0  0  0  0  0  0  0  0
    1.0666    2.1229   -0.8451 H   0  0  0  0  0  0  0  0  0  0  0  0
    1.0159   -0.1610   -1.4180 H   0  0  0  0  0  0  0  0  0  0  0  0
    1.6143   -0.4836    1.5853 H   0  0  0  0  0  0  0  0  0  0  0  0
    1.4058   -1.9193    0.5226 H   0  0  0  0  0  0  0  0  0  0  0  0
    3.1676   -1.0970   -0.7620 H   0  0  0  0  0  0  0  0  0  0  0  0
  1  2  1  0
  2  3  1  0
  2  4  1  0
  4  5  1  0
  5  6  1  0
  6  7  1  0
  7  8  1  0
  6  2  1  0
  1  9  1  0
  1 10  1  0
  1 11  1  0
  3 12  1  0
  3 13  1  0
  3 14  1  0
  4 15  1  0
  4 16  1  0
  5 17  1  0
  5 18  1  0
  6 19  1  0
  7 20  1  0
  7 21  1  0
  8 22  1  0
M  END
