
     RDKit          3D

 21 22  0  0  0  0  0  0  0  0999 V2000
   -1.0008   -1.4226    0.6029 C   0  0  0  0  0  0  0  0  0  0  0  0
   -0.6995   -0.0499    0.1135 C   0  0  0  0  0  0  0  0  0  0  0  0
    0.4555    0.0302   -0.8410 C   0  0  0  0  0  0  0  0  0  0  0  0
    1.7136   -0.4640   -0.2100 C   0  0  0  0  0  0  0  0  0  0  0  0
    2.3123    0.1159    0.9768 C   0  0  0  0  0  0  0  0  0  0  0  0
    2.8321    0.4337   -0.3678 O   0  0  0  0  0  0  0  0  0  0  0  0
   -1.9332    0.7223   -0.2818 C   0  0  0  0  0  0  0  0  0  0  0  0
   -2.1474    0.9342    1.0901 O   0  0  0  0  0  0  0  0  0  0  0  0
   -0.7386    0.9917    1.1990 C   0  0  0  0  0  0  0  0  0  0  0  0
   -0.0368   -1.9592    0.8076 H   0  0  0  0  0  0  0  0  0  0  0  0
   -1.6312   -1.9771   -0.1228 H   0  0  0  0  0  0  0  0  0  0  0  0
   -1.5733   -1.3542    1.5699 H   0  0  0  0  0  0  0  0  0  0  0  0
    0.2094   -0.6205   -1.7045 H   0  0  0  0  0  0  0  0  0  0  0  0
    0.5529    1.0566   -1.2599 H   0  0  0  0  0  0  0  0  0  0  0  0
    1.9874   -1.5180   -0.4490 H   0  0  0  0  0  0  0  0  0  0  0  0
    1.8888    1.0441    1.4369 H   0  0  0  0  0  0  0  0  0  0  0  0
    2.9862   -0.4942    1.5781 H   0  0  0  0  0  0  0  0  0  0  0  0
   -1.6859    1.7194   -0.7359 H   0  0  0  0  0  0  0  0  0  0  0  0
   -2.7172    0.1568   -0.8003 H   0  0  0  0  0  0  0  0  0  0  0  0
   -0.3591    0.6644    2.1853 H   0  0  0  0  0  0  0  0  0  0  0  0
   -0.4152    1.9906    0.8549 H   0  0  0  0  0  0  0  0  0  0  0  0
  1  2  1  0
  2  3  1  0
  3  4  1  0
  4  5  1  0
  5  6  1  0
  2  7  1  0
  7  8  1  0
  8  9  1  0
  9  2  1  0
  6  4  1  0
  1 10  1  0
  1 11  1  0
  1 12  1  0
  3 13  1  0
  3 14  1  0
  4 15  1  0
  5 16  1  0
  5 17  1  0
  7 18  1  0
  7 19  1  0
  9 20  1  0
  9 21  1  0
M  END
