
     RDKit          3D

 21 21  0  0  0  0  0  0  0  0999 V2000
    1.7478    0.9346    0.3052 C   0  0  0  0  0  0  0  0  0  0  0  0
    0.6514   -0.0097   -0.0365 C   0  0  0  0  0  0  0  0  0  0  0  0
    1.1886   -1.3007   -0.5893 C   0  0  0  0  0  0  0  0  0  0  0  0
   -0.4376    0.6063   -0.9251 C   0  0  0  0  0  0  0  0  0  0  0  0
   -0.6656    1.9259   -0.5595 O   0  0  0  0  0  0  0  0  0  0  0  0
   -1.4024   -0.3157   -0.1626 C   0  0  0  0  0  0  0  0  0  0  0  0
   -2.6039    0.3234    0.0065 O   0  0  0  0  0  0  0  0  0  0  0  0
   -0.4261   -0.1949    1.0051 C   0  0  0  0  0  0  0  0  0  0  0  0
   -0.2898   -1.2989    1.7878 O   0  0  0  0  0  0  0  0  0  0  0  0
    2.5615    0.7983   -0.4452 H   0  0  0  0  0  0  0  0  0  0  0  0
    2.1446    0.7482    1.3137 H   0  0  0  0  0  0  0  0  0  0  0  0
    1.3743    1.9690    0.1549 H   0  0  0  0  0  0  0  0  0  0  0  0
    1.6719   -1.0736   -1.5616 H   0  0  0  0  0  0  0  0  0  0  0  0
    1.9953   -1.6373    0.1000 H   0  0  0  0  0  0  0  0  0  0  0  0
    0.4398   -2.1006   -0.6695 H   0  0  0  0  0  0  0  0  0  0  0  0
   -0.3428    0.3956   -1.9875 H   0  0  0  0  0  0  0  0  0  0  0  0
   -1.4156    2.0279    0.0859 H   0  0  0  0  0  0  0  0  0  0  0  0
   -1.4357   -1.2975   -0.6394 H   0  0  0  0  0  0  0  0  0  0  0  0
   -3.0187    0.4118   -0.9005 H   0  0  0  0  0  0  0  0  0  0  0  0
   -0.6465    0.7590    1.5384 H   0  0  0  0  0  0  0  0  0  0  0  0
   -1.0907   -1.6708    2.1792 H   0  0  0  0  0  0  0  0  0  0  0  0
  1  2  1  0
  2  3  1  0
  2  4  1  0
  4  5  1  0
  4  6  1  0
  6  7  1  0
  6  8  1  0
  8  9  1  0
  8  2  1  0
  1 10  1  0
  1 11  1  0
  1 12  1  0
  3 13  1  0
  3 14  1  0
  3 15  1  0
  4 16  1  0
  5 17  1  0
  6 18  1  0
  7 19  1  0
  8 20  1  0
  9 21  1  0
M  END
