
     RDKit          3D

 21 21  0  0  0  0  0  0  0  0999 V2000
    1.4875   -0.8164   -0.8036 C   0  0  0  0  0  0  0  0  0  0  0  0
    0.7662    0.0524    0.1623 C   0  0  0  0  0  0  0  0  0  0  0  0
    1.2911    1.4526    0.2967 C   0  0  0  0  0  0  0  0  0  0  0  0
    1.4883    2.1499   -0.6892 O   0  0  0  0  0  0  0  0  0  0  0  0
    0.4946   -0.5166    1.5220 C   0  0  0  0  0  0  0  0  0  0  0  0
   -0.7389    0.1438    1.5058 O   0  0  0  0  0  0  0  0  0  0  0  0
   -0.7221    0.0690    0.1085 C   0  0  0  0  0  0  0  0  0  0  0  0
   -1.3515    1.2819   -0.5286 C   0  0  0  0  0  0  0  0  0  0  0  0
   -1.4064   -1.1821   -0.3454 C   0  0  0  0  0  0  0  0  0  0  0  0
    2.2038   -1.4671   -0.2316 H   0  0  0  0  0  0  0  0  0  0  0  0
    2.0480   -0.1582   -1.5070 H   0  0  0  0  0  0  0  0  0  0  0  0
    0.8082   -1.4863   -1.3883 H   0  0  0  0  0  0  0  0  0  0  0  0
    1.5164    1.9046    1.2550 H   0  0  0  0  0  0  0  0  0  0  0  0
    1.1504   -0.0693    2.2972 H   0  0  0  0  0  0  0  0  0  0  0  0
    0.4496   -1.6011    1.6167 H   0  0  0  0  0  0  0  0  0  0  0  0
   -0.9396    2.1795   -0.0434 H   0  0  0  0  0  0  0  0  0  0  0  0
   -2.4436    1.2102   -0.3494 H   0  0  0  0  0  0  0  0  0  0  0  0
   -1.1453    1.3442   -1.5999 H   0  0  0  0  0  0  0  0  0  0  0  0
   -1.0456   -2.0896    0.1979 H   0  0  0  0  0  0  0  0  0  0  0  0
   -2.4890   -1.0883   -0.0391 H   0  0  0  0  0  0  0  0  0  0  0  0
   -1.4221   -1.3130   -1.4365 H   0  0  0  0  0  0  0  0  0  0  0  0
  1  2  1  0
  2  3  1  0
  3  4  2  0
  2  5  1  0
  5  6  1  0
  6  7  1  0
  7  8  1  0
  7  9  1  0
  7  2  1  0
  1 10  1  0
  1 11  1  0
  1 12  1  0
  3 13  1  0
  5 14  1  0
  5 15  1  0
  8 16  1  0
  8 17  1  0
  8 18  1  0
  9 19  1  0
  9 20  1  0
  9 21  1  0
M  END
