
     RDKit          3D

 23 23  0  0  0  0  0  0  0  0999 V2000
   -0.8322   -1.4272   -0.9884 C   0  0  0  0  0  0  0  0  0  0  0  0
   -0.5392   -0.2758   -0.0713 C   0  0  0  0  0  0  0  0  0  0  0  0
   -1.9040    0.2596    0.3886 C   0  0  0  0  0  0  0  0  0  0  0  0
   -1.7492    1.3401    1.2519 O   0  0  0  0  0  0  0  0  0  0  0  0
    0.1513    0.8715   -0.7357 C   0  0  0  0  0  0  0  0  0  0  0  0
    1.6534    0.7830   -0.6856 C   0  0  0  0  0  0  0  0  0  0  0  0
    2.1832    0.1951    0.5788 C   0  0  0  0  0  0  0  0  0  0  0  0
    1.1846    0.0754    1.5573 O   0  0  0  0  0  0  0  0  0  0  0  0
    0.2295   -0.8212    1.1162 C   0  0  0  0  0  0  0  0  0  0  0  0
   -1.0672   -2.3067   -0.3360 H   0  0  0  0  0  0  0  0  0  0  0  0
   -0.0015   -1.7275   -1.6277 H   0  0  0  0  0  0  0  0  0  0  0  0
   -1.7774   -1.2237   -1.5453 H   0  0  0  0  0  0  0  0  0  0  0  0
   -2.4012    0.6517   -0.5232 H   0  0  0  0  0  0  0  0  0  0  0  0
   -2.5230   -0.5499    0.8221 H   0  0  0  0  0  0  0  0  0  0  0  0
   -2.2582    2.1473    0.9408 H   0  0  0  0  0  0  0  0  0  0  0  0
   -0.1231    1.8026   -0.1622 H   0  0  0  0  0  0  0  0  0  0  0  0
   -0.1842    0.9823   -1.7753 H   0  0  0  0  0  0  0  0  0  0  0  0
    2.0538    1.8371   -0.7479 H   0  0  0  0  0  0  0  0  0  0  0  0
    1.9982    0.2768   -1.5954 H   0  0  0  0  0  0  0  0  0  0  0  0
    3.0125    0.7849    1.0256 H   0  0  0  0  0  0  0  0  0  0  0  0
    2.6250   -0.8102    0.3279 H   0  0  0  0  0  0  0  0  0  0  0  0
    0.7317   -1.7897    0.8246 H   0  0  0  0  0  0  0  0  0  0  0  0
   -0.4627   -1.0753    1.9606 H   0  0  0  0  0  0  0  0  0  0  0  0
  1  2  1  0
  2  3  1  0
  3  4  1  0
  2  5  1  0
  5  6  1  0
  6  7  1  0
  7  8  1  0
  8  9  1  0
  9  2  1  0
  1 10  1  0
  1 11  1  0
  1 12  1  0
  3 13  1  0
  3 14  1  0
  4 15  1  0
  5 16  1  0
  5 17  1  0
  6 18  1  0
  6 19  1  0
  7 20  1  0
  7 21  1  0
  9 22  1  0
  9 23  1  0
M  END
