
     RDKit          3D

 20 20  0  0  0  0  0  0  0  0999 V2000
    1.5360   -1.3834    0.3623 C   0  0  0  0  0  0  0  0  0  0  0  0
    0.7631   -0.0671    0.3852 C   0  0  0  0  0  0  0  0  0  0  0  0
    1.4238    1.1516   -0.1463 C   0  0  0  0  0  0  0  0  0  0  0  0
   -0.1548   -0.0148    1.4243 O   0  0  0  0  0  0  0  0  0  0  0  0
   -0.7334   -0.1332    0.1703 C   0  0  0  0  0  0  0  0  0  0  0  0
   -1.2172   -1.4750   -0.3101 C   0  0  0  0  0  0  0  0  0  0  0  0
   -1.5280    1.0459   -0.2479 C   0  0  0  0  0  0  0  0  0  0  0  0
   -0.8532    2.2309   -0.3247 O   0  0  0  0  0  0  0  0  0  0  0  0
    0.8626   -2.1917    0.6846 H   0  0  0  0  0  0  0  0  0  0  0  0
    2.3416   -1.3328    1.1486 H   0  0  0  0  0  0  0  0  0  0  0  0
    2.0396   -1.5651   -0.5867 H   0  0  0  0  0  0  0  0  0  0  0  0
    1.0944    1.3050   -1.1952 H   0  0  0  0  0  0  0  0  0  0  0  0
    1.3215    2.0579    0.4773 H   0  0  0  0  0  0  0  0  0  0  0  0
    2.5242    0.9023   -0.2493 H   0  0  0  0  0  0  0  0  0  0  0  0
   -0.5135   -1.8500   -1.0966 H   0  0  0  0  0  0  0  0  0  0  0  0
   -2.2139   -1.3696   -0.7832 H   0  0  0  0  0  0  0  0  0  0  0  0
   -1.3130   -2.2136    0.5007 H   0  0  0  0  0  0  0  0  0  0  0  0
   -2.3443    1.1862    0.5214 H   0  0  0  0  0  0  0  0  0  0  0  0
   -2.0765    0.9055   -1.2039 H   0  0  0  0  0  0  0  0  0  0  0  0
   -0.9591    2.8112    0.4692 H   0  0  0  0  0  0  0  0  0  0  0  0
  1  2  1  0
  2  3  1  0
  2  4  1  0
  4  5  1  0
  5  6  1  0
  5  7  1  0
  7  8  1  0
  5  2  1  0
  1  9  1  0
  1 10  1  0
  1 11  1  0
  3 12  1  0
  3 13  1  0
  3 14  1  0
  6 15  1  0
  6 16  1  0
  6 17  1  0
  7 18  1  0
  7 19  1  0
  8 20  1  0
M  END
