
     RDKit          3D

 18 18  0  0  0  0  0  0  0  0999 V2000
    1.5086   -0.5278    0.6261 C   0  0  0  0  0  0  0  0  0  0  0  0
    0.2269    0.0463    0.0662 C   0  0  0  0  0  0  0  0  0  0  0  0
    0.6235    1.1306   -0.9340 C   0  0  0  0  0  0  0  0  0  0  0  0
   -0.6735    0.6202    1.1099 C   0  0  0  0  0  0  0  0  0  0  0  0
   -1.8846   -0.0855    1.0052 O   0  0  0  0  0  0  0  0  0  0  0  0
   -1.9726   -0.6759   -0.2473 C   0  0  0  0  0  0  0  0  0  0  0  0
   -3.0449   -0.8437   -0.8828 O   0  0  0  0  0  0  0  0  0  0  0  0
   -0.5735   -1.0263   -0.6036 C   0  0  0  0  0  0  0  0  0  0  0  0
    1.8855   -1.2499   -0.1564 H   0  0  0  0  0  0  0  0  0  0  0  0
    1.3694   -1.0895    1.5536 H   0  0  0  0  0  0  0  0  0  0  0  0
    2.3098    0.2521    0.6957 H   0  0  0  0  0  0  0  0  0  0  0  0
    1.7127    1.1066   -1.1529 H   0  0  0  0  0  0  0  0  0  0  0  0
    0.4505    2.1303   -0.4431 H   0  0  0  0  0  0  0  0  0  0  0  0
   -0.0067    1.0408   -1.8187 H   0  0  0  0  0  0  0  0  0  0  0  0
   -0.2529    0.6242    2.1266 H   0  0  0  0  0  0  0  0  0  0  0  0
   -0.8833    1.7040    0.8706 H   0  0  0  0  0  0  0  0  0  0  0  0
   -0.4146   -1.1195   -1.6777 H   0  0  0  0  0  0  0  0  0  0  0  0
   -0.3801   -2.0370   -0.1375 H   0  0  0  0  0  0  0  0  0  0  0  0
  1  2  1  0
  2  3  1  0
  2  4  1  0
  4  5  1  0
  5  6  1  0
  6  7  2  0
  6  8  1  0
  8  2  1  0
  1  9  1  0
  1 10  1  0
  1 11  1  0
  3 12  1  0
  3 13  1  0
  3 14  1  0
  4 15  1  0
  4 16  1  0
  8 17  1  0
  8 18  1  0
M  END
