
     RDKit          3D

 23 25  0  0  0  0  0  0  0  0999 V2000
    1.8234    0.8176    0.0417 C   0  0  0  0  0  0  0  0  0  0  0  0
    0.6967   -0.1348   -0.2063 C   0  0  0  0  0  0  0  0  0  0  0  0
    1.1404   -1.3288   -0.9828 C   0  0  0  0  0  0  0  0  0  0  0  0
   -0.4779    0.5858   -0.8151 C   0  0  0  0  0  0  0  0  0  0  0  0
   -1.5610   -0.4584   -0.7163 C   0  0  0  0  0  0  0  0  0  0  0  0
   -1.3479   -0.8571    0.7512 C   0  0  0  0  0  0  0  0  0  0  0  0
   -0.9452    0.4097    1.4370 C   0  0  0  0  0  0  0  0  0  0  0  0
   -0.8635    1.4907    0.3551 C   0  0  0  0  0  0  0  0  0  0  0  0
    0.0447   -0.6005    1.1026 C   0  0  0  0  0  0  0  0  0  0  0  0
    1.7039    1.7465   -0.5850 H   0  0  0  0  0  0  0  0  0  0  0  0
    1.9716    1.0876    1.0940 H   0  0  0  0  0  0  0  0  0  0  0  0
    2.7929    0.3635   -0.3052 H   0  0  0  0  0  0  0  0  0  0  0  0
    2.2362   -1.4782   -0.7529 H   0  0  0  0  0  0  0  0  0  0  0  0
    0.6306   -2.2513   -0.5949 H   0  0  0  0  0  0  0  0  0  0  0  0
    1.0450   -1.2203   -2.0691 H   0  0  0  0  0  0  0  0  0  0  0  0
   -0.3372    1.0636   -1.7445 H   0  0  0  0  0  0  0  0  0  0  0  0
   -1.4233   -1.3011   -1.3933 H   0  0  0  0  0  0  0  0  0  0  0  0
   -2.5303    0.0741   -0.8348 H   0  0  0  0  0  0  0  0  0  0  0  0
   -2.0008   -1.5848    1.2101 H   0  0  0  0  0  0  0  0  0  0  0  0
   -1.3495    0.6374    2.4074 H   0  0  0  0  0  0  0  0  0  0  0  0
   -1.8165    1.9961    0.2023 H   0  0  0  0  0  0  0  0  0  0  0  0
   -0.0212    2.1766    0.6180 H   0  0  0  0  0  0  0  0  0  0  0  0
    0.5889   -1.2338    1.7808 H   0  0  0  0  0  0  0  0  0  0  0  0
  1  2  1  0
  2  3  1  0
  2  4  1  0
  4  5  1  0
  5  6  1  0
  6  7  1  0
  7  8  1  0
  7  9  1  0
  9  2  1  0
  8  4  1  0
  9  6  1  0
  1 10  1  0
  1 11  1  0
  1 12  1  0
  3 13  1  0
  3 14  1  0
  3 15  1  0
  4 16  1  0
  5 17  1  0
  5 18  1  0
  6 19  1  0
  7 20  1  0
  8 21  1  0
  8 22  1  0
  9 23  1  0
M  END
