
     RDKit          3D

 23 24  0  0  0  0  0  0  0  0999 V2000
   -1.5968   -0.9130   -0.6515 C   0  0  0  0  0  0  0  0  0  0  0  0
   -0.6108   -0.1476    0.1653 C   0  0  0  0  0  0  0  0  0  0  0  0
   -1.2978    0.4914    1.3130 C   0  0  0  0  0  0  0  0  0  0  0  0
    0.5701   -0.9889    0.5123 C   0  0  0  0  0  0  0  0  0  0  0  0
    1.2853   -1.0527   -0.8479 C   0  0  0  0  0  0  0  0  0  0  0  0
    1.4915    0.4417   -0.5849 C   0  0  0  0  0  0  0  0  0  0  0  0
    1.6295    0.0264    0.8798 C   0  0  0  0  0  0  0  0  0  0  0  0
    0.0865    0.9528   -0.6615 C   0  0  0  0  0  0  0  0  0  0  0  0
   -0.0335    2.1871   -0.0605 O   0  0  0  0  0  0  0  0  0  0  0  0
   -2.5048   -1.1826   -0.0435 H   0  0  0  0  0  0  0  0  0  0  0  0
   -1.1818   -1.9048   -0.9755 H   0  0  0  0  0  0  0  0  0  0  0  0
   -1.9477   -0.3447   -1.5419 H   0  0  0  0  0  0  0  0  0  0  0  0
   -2.0023   -0.1823    1.8229 H   0  0  0  0  0  0  0  0  0  0  0  0
   -0.6470    0.9528    2.0641 H   0  0  0  0  0  0  0  0  0  0  0  0
   -1.9346    1.3287    0.9003 H   0  0  0  0  0  0  0  0  0  0  0  0
    0.4810   -1.8840    1.0647 H   0  0  0  0  0  0  0  0  0  0  0  0
    0.5918   -1.1662   -1.7038 H   0  0  0  0  0  0  0  0  0  0  0  0
    2.1896   -1.6543   -0.8621 H   0  0  0  0  0  0  0  0  0  0  0  0
    2.2915    0.9339   -1.0545 H   0  0  0  0  0  0  0  0  0  0  0  0
    2.6380   -0.4076    1.0451 H   0  0  0  0  0  0  0  0  0  0  0  0
    1.3345    0.7970    1.5999 H   0  0  0  0  0  0  0  0  0  0  0  0
   -0.3181    0.9236   -1.6875 H   0  0  0  0  0  0  0  0  0  0  0  0
   -0.5139    2.7931   -0.6923 H   0  0  0  0  0  0  0  0  0  0  0  0
  1  2  1  0
  2  3  1  0
  2  4  1  0
  4  5  1  0
  5  6  1  0
  6  7  1  0
  6  8  1  0
  8  9  1  0
  8  2  1  0
  7  4  1  0
  1 10  1  0
  1 11  1  0
  1 12  1  0
  3 13  1  0
  3 14  1  0
  3 15  1  0
  4 16  1  0
  5 17  1  0
  5 18  1  0
  6 19  1  0
  7 20  1  0
  7 21  1  0
  8 22  1  0
  9 23  1  0
M  END
