
     RDKit          3D

 23 23  0  0  0  0  0  0  0  0999 V2000
    2.4389    0.0771    0.2289 C   0  0  0  0  0  0  0  0  0  0  0  0
    0.9806    0.0005   -0.0508 C   0  0  0  0  0  0  0  0  0  0  0  0
    0.7030    0.3847   -1.3712 O   0  0  0  0  0  0  0  0  0  0  0  0
    0.4110   -1.4041    0.1589 C   0  0  0  0  0  0  0  0  0  0  0  0
   -0.9274   -1.4105   -0.5859 C   0  0  0  0  0  0  0  0  0  0  0  0
   -1.8359   -0.4434    0.1219 C   0  0  0  0  0  0  0  0  0  0  0  0
   -1.2441    0.9340    0.2606 C   0  0  0  0  0  0  0  0  0  0  0  0
   -1.1847    1.5795   -0.9633 O   0  0  0  0  0  0  0  0  0  0  0  0
    0.1509    0.9169    0.8393 C   0  0  0  0  0  0  0  0  0  0  0  0
    2.7182    1.1299    0.4205 H   0  0  0  0  0  0  0  0  0  0  0  0
    2.9773   -0.2389   -0.7063 H   0  0  0  0  0  0  0  0  0  0  0  0
    2.7254   -0.5922    1.0534 H   0  0  0  0  0  0  0  0  0  0  0  0
    1.1156    1.2889   -1.4804 H   0  0  0  0  0  0  0  0  0  0  0  0
    1.0843   -2.1882   -0.1812 H   0  0  0  0  0  0  0  0  0  0  0  0
    0.1315   -1.5279    1.2427 H   0  0  0  0  0  0  0  0  0  0  0  0
   -0.7565   -1.1052   -1.6379 H   0  0  0  0  0  0  0  0  0  0  0  0
   -1.3952   -2.4124   -0.5142 H   0  0  0  0  0  0  0  0  0  0  0  0
   -2.0493   -0.8462    1.1405 H   0  0  0  0  0  0  0  0  0  0  0  0
   -2.7707   -0.3279   -0.4809 H   0  0  0  0  0  0  0  0  0  0  0  0
   -1.9322    1.5179    0.9108 H   0  0  0  0  0  0  0  0  0  0  0  0
   -1.9155    2.2247   -1.1113 H   0  0  0  0  0  0  0  0  0  0  0  0
    0.0551    0.4886    1.8692 H   0  0  0  0  0  0  0  0  0  0  0  0
    0.5196    1.9542    0.8367 H   0  0  0  0  0  0  0  0  0  0  0  0
  1  2  1  0
  2  3  1  0
  2  4  1  0
  4  5  1  0
  5  6  1  0
  6  7  1  0
  7  8  1  0
  7  9  1  0
  9  2  1  0
  1 10  1  0
  1 11  1  0
  1 12  1  0
  3 13  1  0
  4 14  1  0
  4 15  1  0
  5 16  1  0
  5 17  1  0
  6 18  1  0
  6 19  1  0
  7 20  1  0
  8 21  1  0
  9 22  1  0
  9 23  1  0
M  END
