
     RDKit          3D

 23 23  0  0  0  0  0  0  0  0999 V2000
   -0.8534    1.4942   -0.9438 C   0  0  0  0  0  0  0  0  0  0  0  0
   -0.2196    0.7331    0.1624 C   0  0  0  0  0  0  0  0  0  0  0  0
   -0.9416    1.0069    1.3385 O   0  0  0  0  0  0  0  0  0  0  0  0
    1.2255    1.1676    0.4034 C   0  0  0  0  0  0  0  0  0  0  0  0
    2.0504    0.0120   -0.0829 C   0  0  0  0  0  0  0  0  0  0  0  0
    1.2133   -0.9259   -0.6266 O   0  0  0  0  0  0  0  0  0  0  0  0
   -0.0595   -0.7318   -0.0880 C   0  0  0  0  0  0  0  0  0  0  0  0
   -0.1420   -1.4232    1.2760 C   0  0  0  0  0  0  0  0  0  0  0  0
   -1.0490   -1.2979   -1.0639 C   0  0  0  0  0  0  0  0  0  0  0  0
   -0.5773    1.1710   -1.9527 H   0  0  0  0  0  0  0  0  0  0  0  0
   -0.6384    2.5843   -0.7709 H   0  0  0  0  0  0  0  0  0  0  0  0
   -1.9641    1.3954   -0.8436 H   0  0  0  0  0  0  0  0  0  0  0  0
   -1.8775    0.7569    1.1322 H   0  0  0  0  0  0  0  0  0  0  0  0
    1.4439    1.3288    1.4649 H   0  0  0  0  0  0  0  0  0  0  0  0
    1.4749    2.0651   -0.1754 H   0  0  0  0  0  0  0  0  0  0  0  0
    2.7684    0.3560   -0.8742 H   0  0  0  0  0  0  0  0  0  0  0  0
    2.6155   -0.4943    0.7479 H   0  0  0  0  0  0  0  0  0  0  0  0
   -0.6432   -0.7652    2.0278 H   0  0  0  0  0  0  0  0  0  0  0  0
   -0.7601   -2.3226    1.1910 H   0  0  0  0  0  0  0  0  0  0  0  0
    0.8673   -1.6536    1.6757 H   0  0  0  0  0  0  0  0  0  0  0  0
   -1.6523   -0.5442   -1.5867 H   0  0  0  0  0  0  0  0  0  0  0  0
   -1.7230   -2.0032   -0.5389 H   0  0  0  0  0  0  0  0  0  0  0  0
   -0.5581   -1.9094   -1.8721 H   0  0  0  0  0  0  0  0  0  0  0  0
  1  2  1  0
  2  3  1  0
  2  4  1  0
  4  5  1  0
  5  6  1  0
  6  7  1  0
  7  8  1  0
  7  9  1  0
  7  2  1  0
  1 10  1  0
  1 11  1  0
  1 12  1  0
  3 13  1  0
  4 14  1  0
  4 15  1  0
  5 16  1  0
  5 17  1  0
  8 18  1  0
  8 19  1  0
  8 20  1  0
  9 21  1  0
  9 22  1  0
  9 23  1  0
M  END
