
     RDKit          3D

 23 25  0  0  0  0  0  0  0  0999 V2000
   -2.0919   -0.7977    0.5062 C   0  0  0  0  0  0  0  0  0  0  0  0
   -0.9158    0.0050   -0.0512 C   0  0  0  0  0  0  0  0  0  0  0  0
   -1.3134    1.3431   -0.5930 C   0  0  0  0  0  0  0  0  0  0  0  0
    0.1989   -0.0113    0.9459 C   0  0  0  0  0  0  0  0  0  0  0  0
    1.2775    1.0374    0.6925 C   0  0  0  0  0  0  0  0  0  0  0  0
    2.1868    0.3998   -0.3021 C   0  0  0  0  0  0  0  0  0  0  0  0
    1.4244   -0.7871   -0.8799 C   0  0  0  0  0  0  0  0  0  0  0  0
    0.6886   -1.2619    0.2673 C   0  0  0  0  0  0  0  0  0  0  0  0
   -0.0453   -0.7365   -1.0052 C   0  0  0  0  0  0  0  0  0  0  0  0
   -3.0607   -0.4069    0.1555 H   0  0  0  0  0  0  0  0  0  0  0  0
   -2.0992   -0.6680    1.6223 H   0  0  0  0  0  0  0  0  0  0  0  0
   -1.9541   -1.8803    0.3336 H   0  0  0  0  0  0  0  0  0  0  0  0
   -1.6191    1.9976    0.2483 H   0  0  0  0  0  0  0  0  0  0  0  0
   -0.5191    1.7670   -1.2077 H   0  0  0  0  0  0  0  0  0  0  0  0
   -2.1896    1.1751   -1.2677 H   0  0  0  0  0  0  0  0  0  0  0  0
   -0.0503   -0.1909    1.9903 H   0  0  0  0  0  0  0  0  0  0  0  0
    1.7563    1.2283    1.6825 H   0  0  0  0  0  0  0  0  0  0  0  0
    0.8462    1.9749    0.3002 H   0  0  0  0  0  0  0  0  0  0  0  0
    2.5837    1.0659   -1.0674 H   0  0  0  0  0  0  0  0  0  0  0  0
    3.0385   -0.0609    0.2804 H   0  0  0  0  0  0  0  0  0  0  0  0
    1.9742   -1.4556   -1.5340 H   0  0  0  0  0  0  0  0  0  0  0  0
    0.3909   -2.2449    0.5380 H   0  0  0  0  0  0  0  0  0  0  0  0
   -0.5076   -1.4920   -1.6549 H   0  0  0  0  0  0  0  0  0  0  0  0
  1  2  1  0
  2  3  1  0
  2  4  1  0
  4  5  1  0
  5  6  1  0
  6  7  1  0
  7  8  1  0
  8  9  1  0
  9  2  1  0
  8  4  1  0
  9  7  1  0
  1 10  1  0
  1 11  1  0
  1 12  1  0
  3 13  1  0
  3 14  1  0
  3 15  1  0
  4 16  1  0
  5 17  1  0
  5 18  1  0
  6 19  1  0
  6 20  1  0
  7 21  1  0
  8 22  1  0
  9 23  1  0
M  END
