
     RDKit          3D

 21 22  0  0  0  0  0  0  0  0999 V2000
   -1.2210   -1.2275   -1.3488 C   0  0  0  0  0  0  0  0  0  0  0  0
   -0.8301   -0.3359   -0.1711 C   0  0  0  0  0  0  0  0  0  0  0  0
   -1.4041   -0.7243    1.1629 C   0  0  0  0  0  0  0  0  0  0  0  0
   -0.5379    1.0992   -0.4876 C   0  0  0  0  0  0  0  0  0  0  0  0
   -0.9147    2.0942    0.4264 O   0  0  0  0  0  0  0  0  0  0  0  0
    0.5416    0.1651   -0.1853 C   0  0  0  0  0  0  0  0  0  0  0  0
    1.4329    0.2380    0.9871 C   0  0  0  0  0  0  0  0  0  0  0  0
    2.4721    0.1944   -0.1192 C   0  0  0  0  0  0  0  0  0  0  0  0
    1.5110   -0.2284   -1.0563 O   0  0  0  0  0  0  0  0  0  0  0  0
   -2.2550   -1.5822   -1.2514 H   0  0  0  0  0  0  0  0  0  0  0  0
   -1.0965   -0.6984   -2.3195 H   0  0  0  0  0  0  0  0  0  0  0  0
   -0.4761   -2.0636   -1.3752 H   0  0  0  0  0  0  0  0  0  0  0  0
   -2.0548    0.0370    1.6111 H   0  0  0  0  0  0  0  0  0  0  0  0
   -1.9433   -1.6983    1.0731 H   0  0  0  0  0  0  0  0  0  0  0  0
   -0.5659   -0.9080    1.8852 H   0  0  0  0  0  0  0  0  0  0  0  0
   -0.6155    1.4290   -1.5568 H   0  0  0  0  0  0  0  0  0  0  0  0
   -1.1138    2.9577   -0.0367 H   0  0  0  0  0  0  0  0  0  0  0  0
    1.4751   -0.6366    1.6544 H   0  0  0  0  0  0  0  0  0  0  0  0
    1.4910    1.2342    1.4890 H   0  0  0  0  0  0  0  0  0  0  0  0
    2.8295    1.2052   -0.4399 H   0  0  0  0  0  0  0  0  0  0  0  0
    3.2753   -0.5508    0.0586 H   0  0  0  0  0  0  0  0  0  0  0  0
  1  2  1  0
  2  3  1  0
  2  4  1  0
  4  5  1  0
  4  6  1  0
  6  7  1  0
  7  8  1  0
  8  9  1  0
  6  2  1  0
  9  6  1  0
  1 10  1  0
  1 11  1  0
  1 12  1  0
  3 13  1  0
  3 14  1  0
  3 15  1  0
  4 16  1  0
  5 17  1  0
  7 18  1  0
  7 19  1  0
  8 20  1  0
  8 21  1  0
M  END
