
     RDKit          3D

 19 19  0  0  0  0  0  0  0  0999 V2000
    1.4513   -0.7852   -0.3624 C   0  0  0  0  0  0  0  0  0  0  0  0
    0.1449   -0.2469    0.1209 C   0  0  0  0  0  0  0  0  0  0  0  0
   -0.9456   -1.2893    0.0322 C   0  0  0  0  0  0  0  0  0  0  0  0
    0.1942    0.2658    1.5269 C   0  0  0  0  0  0  0  0  0  0  0  0
   -0.6977    1.3635    1.5189 O   0  0  0  0  0  0  0  0  0  0  0  0
   -0.6893    1.9779    0.2741 C   0  0  0  0  0  0  0  0  0  0  0  0
   -1.0300    3.1529   -0.0168 O   0  0  0  0  0  0  0  0  0  0  0  0
   -0.1952    0.9814   -0.6806 C   0  0  0  0  0  0  0  0  0  0  0  0
   -1.1333    0.6137   -1.6405 O   0  0  0  0  0  0  0  0  0  0  0  0
    2.1783   -0.7594    0.4776 H   0  0  0  0  0  0  0  0  0  0  0  0
    1.9157   -0.1512   -1.1659 H   0  0  0  0  0  0  0  0  0  0  0  0
    1.3353   -1.8281   -0.7185 H   0  0  0  0  0  0  0  0  0  0  0  0
   -1.1239   -1.6397   -1.0010 H   0  0  0  0  0  0  0  0  0  0  0  0
   -0.6349   -2.1334    0.6825 H   0  0  0  0  0  0  0  0  0  0  0  0
   -1.8708   -0.8634    0.4239 H   0  0  0  0  0  0  0  0  0  0  0  0
   -0.1457   -0.4917    2.2269 H   0  0  0  0  0  0  0  0  0  0  0  0
    1.2266    0.5432    1.7604 H   0  0  0  0  0  0  0  0  0  0  0  0
    0.7034    1.3469   -1.2416 H   0  0  0  0  0  0  0  0  0  0  0  0
   -0.6834   -0.0569   -2.2170 H   0  0  0  0  0  0  0  0  0  0  0  0
  1  2  1  0
  2  3  1  0
  2  4  1  0
  4  5  1  0
  5  6  1  0
  6  7  2  0
  6  8  1  0
  8  9  1  0
  8  2  1  0
  1 10  1  0
  1 11  1  0
  1 12  1  0
  3 13  1  0
  3 14  1  0
  3 15  1  0
  4 16  1  0
  4 17  1  0
  8 18  1  0
  9 19  1  0
M  END
