
     RDKit          3D

 21 21  0  0  0  0  0  0  0  0999 V2000
   -1.3006   -1.3810   -0.2317 C   0  0  0  0  0  0  0  0  0  0  0  0
   -0.5757   -0.0678    0.0705 C   0  0  0  0  0  0  0  0  0  0  0  0
   -1.6966    0.9186    0.4243 C   0  0  0  0  0  0  0  0  0  0  0  0
    0.3307   -0.3192    1.2311 C   0  0  0  0  0  0  0  0  0  0  0  0
    1.3921    0.5527    1.3227 O   0  0  0  0  0  0  0  0  0  0  0  0
    2.3040    0.3445    0.2920 C   0  0  0  0  0  0  0  0  0  0  0  0
    1.5925    0.5070   -0.9894 C   0  0  0  0  0  0  0  0  0  0  0  0
    2.2651    0.7321   -1.9845 O   0  0  0  0  0  0  0  0  0  0  0  0
    0.1319    0.4179   -1.1569 C   0  0  0  0  0  0  0  0  0  0  0  0
   -2.2901   -1.1780   -0.7312 H   0  0  0  0  0  0  0  0  0  0  0  0
   -0.7205   -1.9802   -0.9522 H   0  0  0  0  0  0  0  0  0  0  0  0
   -1.5484   -1.9191    0.7010 H   0  0  0  0  0  0  0  0  0  0  0  0
   -2.5857    0.3800    0.8263 H   0  0  0  0  0  0  0  0  0  0  0  0
   -1.3791    1.6416    1.1792 H   0  0  0  0  0  0  0  0  0  0  0  0
   -1.9832    1.4158   -0.5260 H   0  0  0  0  0  0  0  0  0  0  0  0
   -0.2367   -0.2515    2.1954 H   0  0  0  0  0  0  0  0  0  0  0  0
    0.7570   -1.3462    1.1041 H   0  0  0  0  0  0  0  0  0  0  0  0
    3.1420    1.0525    0.3653 H   0  0  0  0  0  0  0  0  0  0  0  0
    2.7628   -0.6785    0.3383 H   0  0  0  0  0  0  0  0  0  0  0  0
   -0.1006   -0.2605   -2.0098 H   0  0  0  0  0  0  0  0  0  0  0  0
   -0.2609    1.4192   -1.4686 H   0  0  0  0  0  0  0  0  0  0  0  0
  1  2  1  0
  2  3  1  0
  2  4  1  0
  4  5  1  0
  5  6  1  0
  6  7  1  0
  7  8  2  0
  7  9  1  0
  9  2  1  0
  1 10  1  0
  1 11  1  0
  1 12  1  0
  3 13  1  0
  3 14  1  0
  3 15  1  0
  4 16  1  0
  4 17  1  0
  6 18  1  0
  6 19  1  0
  9 20  1  0
  9 21  1  0
M  END
