
     RDKit          3D

 19 20  0  0  0  0  0  0  0  0999 V2000
   -1.8711   -0.2381    0.2321 C   0  0  0  0  0  0  0  0  0  0  0  0
   -0.4920    0.3864    0.0467 C   0  0  0  0  0  0  0  0  0  0  0  0
   -0.5061    1.8559   -0.1862 C   0  0  0  0  0  0  0  0  0  0  0  0
    0.6601   -0.1236    0.8504 C   0  0  0  0  0  0  0  0  0  0  0  0
    0.8798   -1.5772    1.0783 C   0  0  0  0  0  0  0  0  0  0  0  0
    0.3867   -1.8623   -0.1749 O   0  0  0  0  0  0  0  0  0  0  0  0
    0.4980   -0.5223   -0.5520 C   0  0  0  0  0  0  0  0  0  0  0  0
    1.3972   -0.1793   -1.6296 C   0  0  0  0  0  0  0  0  0  0  0  0
    1.5549    0.9542   -2.0202 O   0  0  0  0  0  0  0  0  0  0  0  0
   -2.6798    0.5109    0.1751 H   0  0  0  0  0  0  0  0  0  0  0  0
   -1.9037   -0.8111    1.1611 H   0  0  0  0  0  0  0  0  0  0  0  0
   -2.0368   -0.9562   -0.6056 H   0  0  0  0  0  0  0  0  0  0  0  0
   -0.8235    2.3444    0.7819 H   0  0  0  0  0  0  0  0  0  0  0  0
   -1.2637    2.1924   -0.9287 H   0  0  0  0  0  0  0  0  0  0  0  0
    0.4973    2.2669   -0.4000 H   0  0  0  0  0  0  0  0  0  0  0  0
    1.4655    0.5608    1.1538 H   0  0  0  0  0  0  0  0  0  0  0  0
    0.3057   -2.0308    1.9072 H   0  0  0  0  0  0  0  0  0  0  0  0
    1.9694   -1.8165    1.2308 H   0  0  0  0  0  0  0  0  0  0  0  0
    1.9620   -0.9544   -2.1203 H   0  0  0  0  0  0  0  0  0  0  0  0
  1  2  1  0
  2  3  1  0
  2  4  1  0
  4  5  1  0
  5  6  1  0
  6  7  1  0
  7  8  1  0
  8  9  2  0
  7  2  1  0
  7  4  1  0
  1 10  1  0
  1 11  1  0
  1 12  1  0
  3 13  1  0
  3 14  1  0
  3 15  1  0
  4 16  1  0
  5 17  1  0
  5 18  1  0
  8 19  1  0
M  END
