
     RDKit          3D

 18 18  0  0  0  0  0  0  0  0999 V2000
   -0.8072    0.7595    1.1006 C   0  0  0  0  0  0  0  0  0  0  0  0
   -0.2160   -0.0971    0.0351 C   0  0  0  0  0  0  0  0  0  0  0  0
    1.2303   -0.4340    0.1370 C   0  0  0  0  0  0  0  0  0  0  0  0
    2.1120    0.7587    0.1269 C   0  0  0  0  0  0  0  0  0  0  0  0
    1.6703    1.8918    0.0422 O   0  0  0  0  0  0  0  0  0  0  0  0
   -1.0347   -1.3389   -0.2538 C   0  0  0  0  0  0  0  0  0  0  0  0
   -0.7839   -1.1509   -1.5931 O   0  0  0  0  0  0  0  0  0  0  0  0
   -0.7257    0.2197   -1.3516 C   0  0  0  0  0  0  0  0  0  0  0  0
   -1.9042    0.8424    0.8914 H   0  0  0  0  0  0  0  0  0  0  0  0
   -0.6794    0.2262    2.0752 H   0  0  0  0  0  0  0  0  0  0  0  0
   -0.4010    1.7702    1.1176 H   0  0  0  0  0  0  0  0  0  0  0  0
    1.3881   -0.9574    1.1195 H   0  0  0  0  0  0  0  0  0  0  0  0
    1.4803   -1.1496   -0.6673 H   0  0  0  0  0  0  0  0  0  0  0  0
    3.1822    0.5996    0.1979 H   0  0  0  0  0  0  0  0  0  0  0  0
   -0.5661   -2.2063    0.2280 H   0  0  0  0  0  0  0  0  0  0  0  0
   -2.0912   -1.1527    0.0524 H   0  0  0  0  0  0  0  0  0  0  0  0
   -0.0750    0.8078   -1.9942 H   0  0  0  0  0  0  0  0  0  0  0  0
   -1.7790    0.6110   -1.2638 H   0  0  0  0  0  0  0  0  0  0  0  0
  1  2  1  0
  2  3  1  0
  3  4  1  0
  4  5  2  0
  2  6  1  0
  6  7  1  0
  7  8  1  0
  8  2  1  0
  1  9  1  0
  1 10  1  0
  1 11  1  0
  3 12  1  0
  3 13  1  0
  4 14  1  0
  6 15  1  0
  6 16  1  0
  8 17  1  0
  8 18  1  0
M  END
