
     RDKit          3D

 23 24  0  0  0  0  0  0  0  0999 V2000
   -1.8126    0.9466    0.6257 C   0  0  0  0  0  0  0  0  0  0  0  0
   -0.9994   -0.2005    0.0081 C   0  0  0  0  0  0  0  0  0  0  0  0
   -1.5634   -0.6541   -1.3119 C   0  0  0  0  0  0  0  0  0  0  0  0
   -0.5401   -1.2013    1.0223 C   0  0  0  0  0  0  0  0  0  0  0  0
    0.4206   -0.3396    0.3491 C   0  0  0  0  0  0  0  0  0  0  0  0
    1.4541   -0.8632   -0.5756 C   0  0  0  0  0  0  0  0  0  0  0  0
    2.2019    0.3623   -0.9666 C   0  0  0  0  0  0  0  0  0  0  0  0
    2.0067    1.3076   -0.0517 C   0  0  0  0  0  0  0  0  0  0  0  0
    1.1161    0.8109    1.0324 C   0  0  0  0  0  0  0  0  0  0  0  0
   -2.8799    0.5762    0.5872 H   0  0  0  0  0  0  0  0  0  0  0  0
   -1.5813    1.0891    1.6816 H   0  0  0  0  0  0  0  0  0  0  0  0
   -1.7749    1.8405    0.0000 H   0  0  0  0  0  0  0  0  0  0  0  0
   -0.8534   -1.1911   -1.9454 H   0  0  0  0  0  0  0  0  0  0  0  0
   -2.5251   -1.2029   -1.2023 H   0  0  0  0  0  0  0  0  0  0  0  0
   -1.8374    0.2868   -1.8719 H   0  0  0  0  0  0  0  0  0  0  0  0
   -0.5789   -2.2715    0.6818 H   0  0  0  0  0  0  0  0  0  0  0  0
   -0.8336   -1.0922    2.0868 H   0  0  0  0  0  0  0  0  0  0  0  0
    2.1762   -1.4903    0.0215 H   0  0  0  0  0  0  0  0  0  0  0  0
    1.0999   -1.4510   -1.4166 H   0  0  0  0  0  0  0  0  0  0  0  0
    2.7946    0.4367   -1.8527 H   0  0  0  0  0  0  0  0  0  0  0  0
    2.4494    2.2936   -0.1158 H   0  0  0  0  0  0  0  0  0  0  0  0
    0.3661    1.5682    1.3069 H   0  0  0  0  0  0  0  0  0  0  0  0
    1.6947    0.4389    1.9072 H   0  0  0  0  0  0  0  0  0  0  0  0
  1  2  1  0
  2  3  1  0
  2  4  1  0
  4  5  1  0
  5  6  1  0
  6  7  1  0
  7  8  2  0
  8  9  1  0
  5  2  1  0
  9  5  1  0
  1 10  1  0
  1 11  1  0
  1 12  1  0
  3 13  1  0
  3 14  1  0
  3 15  1  0
  4 16  1  0
  4 17  1  0
  6 18  1  0
  6 19  1  0
  7 20  1  0
  8 21  1  0
  9 22  1  0
  9 23  1  0
M  END
