
     RDKit          3D

 16 16  0  0  0  0  0  0  0  0999 V2000
    0.8887   -0.7063   -1.0923 C   0  0  0  0  0  0  0  0  0  0  0  0
    0.5044    0.2377    0.0330 C   0  0  0  0  0  0  0  0  0  0  0  0
    1.7045    0.9049    0.6000 C   0  0  0  0  0  0  0  0  0  0  0  0
    2.6338    0.3294    1.0887 O   0  0  0  0  0  0  0  0  0  0  0  0
   -0.2379   -0.5402    1.0328 C   0  0  0  0  0  0  0  0  0  0  0  0
   -1.5183   -0.3656    0.8314 C   0  0  0  0  0  0  0  0  0  0  0  0
   -1.6566    0.5459   -0.3239 C   0  0  0  0  0  0  0  0  0  0  0  0
   -0.4008    1.1577   -0.4593 O   0  0  0  0  0  0  0  0  0  0  0  0
    0.5073   -0.3269   -2.0784 H   0  0  0  0  0  0  0  0  0  0  0  0
    1.9985   -0.8754   -1.1265 H   0  0  0  0  0  0  0  0  0  0  0  0
    0.4325   -1.7118   -0.9735 H   0  0  0  0  0  0  0  0  0  0  0  0
    1.7371    1.9871    0.5670 H   0  0  0  0  0  0  0  0  0  0  0  0
    0.1536   -1.1785    1.8371 H   0  0  0  0  0  0  0  0  0  0  0  0
   -2.3744   -0.7874    1.3808 H   0  0  0  0  0  0  0  0  0  0  0  0
   -2.4406    1.3072   -0.0514 H   0  0  0  0  0  0  0  0  0  0  0  0
   -1.9317    0.0222   -1.2655 H   0  0  0  0  0  0  0  0  0  0  0  0
  1  2  1  0
  2  3  1  0
  3  4  2  0
  2  5  1  0
  5  6  2  0
  6  7  1  0
  7  8  1  0
  8  2  1  0
  1  9  1  0
  1 10  1  0
  1 11  1  0
  3 12  1  0
  5 13  1  0
  6 14  1  0
  7 15  1  0
  7 16  1  0
M  END
