
     RDKit          3D

 17 17  0  0  0  0  0  0  0  0999 V2000
   -0.8075   -1.5156   -0.4211 C   0  0  0  0  0  0  0  0  0  0  0  0
   -0.7120   -0.0013   -0.4903 C   0  0  0  0  0  0  0  0  0  0  0  0
    0.4631    0.4599   -1.1279 O   0  0  0  0  0  0  0  0  0  0  0  0
    1.6795    0.0977   -0.5674 C   0  0  0  0  0  0  0  0  0  0  0  0
    1.7073   -0.6199    0.4766 O   0  0  0  0  0  0  0  0  0  0  0  0
    2.9443    0.5132   -1.1362 C   0  0  0  0  0  0  0  0  0  0  0  0
    2.9228    1.2201   -2.1646 O   0  0  0  0  0  0  0  0  0  0  0  0
   -1.9125    0.8400   -0.3694 C   0  0  0  0  0  0  0  0  0  0  0  0
   -1.0333    0.7449    0.8244 C   0  0  0  0  0  0  0  0  0  0  0  0
    0.0446   -2.0117   -0.9236 H   0  0  0  0  0  0  0  0  0  0  0  0
   -0.8825   -1.8138    0.6431 H   0  0  0  0  0  0  0  0  0  0  0  0
   -1.7272   -1.8894   -0.9526 H   0  0  0  0  0  0  0  0  0  0  0  0
    3.8883    0.2403   -0.7132 H   0  0  0  0  0  0  0  0  0  0  0  0
   -2.8903    0.2793   -0.3517 H   0  0  0  0  0  0  0  0  0  0  0  0
   -1.9712    1.7909   -0.9184 H   0  0  0  0  0  0  0  0  0  0  0  0
   -1.3219    0.0824    1.6866 H   0  0  0  0  0  0  0  0  0  0  0  0
   -0.3915    1.5830    1.0986 H   0  0  0  0  0  0  0  0  0  0  0  0
  1  2  1  0
  2  3  1  0
  3  4  1  0
  4  5  2  0
  4  6  1  0
  6  7  2  0
  2  8  1  0
  8  9  1  0
  9  2  1  0
  1 10  1  0
  1 11  1  0
  1 12  1  0
  6 13  1  0
  8 14  1  0
  8 15  1  0
  9 16  1  0
  9 17  1  0
M  END
