
     RDKit          3D

 17 17  0  0  0  0  0  0  0  0999 V2000
    0.4732   -0.5443    1.5486 C   0  0  0  0  0  0  0  0  0  0  0  0
    0.0172   -0.4520    0.1215 C   0  0  0  0  0  0  0  0  0  0  0  0
    1.1793   -0.2214   -0.8151 C   0  0  0  0  0  0  0  0  0  0  0  0
    1.8993    0.8667   -0.2946 O   0  0  0  0  0  0  0  0  0  0  0  0
   -0.8170   -1.5237   -0.2612 O   0  0  0  0  0  0  0  0  0  0  0  0
   -1.8592   -0.7058   -0.6604 C   0  0  0  0  0  0  0  0  0  0  0  0
   -2.9484   -0.8468   -1.2606 O   0  0  0  0  0  0  0  0  0  0  0  0
   -1.1657    0.4510   -0.0822 C   0  0  0  0  0  0  0  0  0  0  0  0
   -0.9601    1.5241   -0.9392 O   0  0  0  0  0  0  0  0  0  0  0  0
   -0.3997   -0.2529    2.1999 H   0  0  0  0  0  0  0  0  0  0  0  0
    0.7765   -1.5953    1.7574 H   0  0  0  0  0  0  0  0  0  0  0  0
    1.3462    0.1107    1.7261 H   0  0  0  0  0  0  0  0  0  0  0  0
    1.8430   -1.1076   -0.7329 H   0  0  0  0  0  0  0  0  0  0  0  0
    0.8633   -0.0385   -1.8568 H   0  0  0  0  0  0  0  0  0  0  0  0
    2.5045    1.2658   -0.9427 H   0  0  0  0  0  0  0  0  0  0  0  0
   -1.6200    0.7186    0.8949 H   0  0  0  0  0  0  0  0  0  0  0  0
   -1.1324    2.3515   -0.4028 H   0  0  0  0  0  0  0  0  0  0  0  0
  1  2  1  0
  2  3  1  0
  3  4  1  0
  2  5  1  0
  5  6  1  0
  6  7  2  0
  6  8  1  0
  8  9  1  0
  8  2  1  0
  1 10  1  0
  1 11  1  0
  1 12  1  0
  3 13  1  0
  3 14  1  0
  4 15  1  0
  8 16  1  0
  9 17  1  0
M  END
