
     RDKit          3D

 21 22  0  0  0  0  0  0  0  0999 V2000
   -1.6107    0.7376   -0.5825 C   0  0  0  0  0  0  0  0  0  0  0  0
   -0.6435    0.0026    0.3428 C   0  0  0  0  0  0  0  0  0  0  0  0
   -1.3326   -0.9267    1.2913 C   0  0  0  0  0  0  0  0  0  0  0  0
    0.2596    1.0247    1.0057 C   0  0  0  0  0  0  0  0  0  0  0  0
    1.2948    0.6748   -0.0684 C   0  0  0  0  0  0  0  0  0  0  0  0
    1.8551   -0.6781    0.0337 C   0  0  0  0  0  0  0  0  0  0  0  0
    2.8204   -1.0542   -0.8781 O   0  0  0  0  0  0  0  0  0  0  0  0
    0.4783   -0.5686   -0.4673 C   0  0  0  0  0  0  0  0  0  0  0  0
    0.2417   -0.7916   -1.8077 O   0  0  0  0  0  0  0  0  0  0  0  0
   -1.0817    1.6444   -0.9831 H   0  0  0  0  0  0  0  0  0  0  0  0
   -2.4708    1.1062   -0.0205 H   0  0  0  0  0  0  0  0  0  0  0  0
   -1.8826    0.1337   -1.4627 H   0  0  0  0  0  0  0  0  0  0  0  0
   -1.6597   -1.8544    0.8131 H   0  0  0  0  0  0  0  0  0  0  0  0
   -2.2400   -0.4142    1.6672 H   0  0  0  0  0  0  0  0  0  0  0  0
   -0.7194   -1.1756    2.1659 H   0  0  0  0  0  0  0  0  0  0  0  0
   -0.0910    2.0746    0.9420 H   0  0  0  0  0  0  0  0  0  0  0  0
    0.6451    0.7163    2.0029 H   0  0  0  0  0  0  0  0  0  0  0  0
    1.4867    1.3734   -0.8778 H   0  0  0  0  0  0  0  0  0  0  0  0
    1.9717   -1.1004    1.0571 H   0  0  0  0  0  0  0  0  0  0  0  0
    2.5137   -0.9309   -1.8155 H   0  0  0  0  0  0  0  0  0  0  0  0
    0.1649    0.0063   -2.3579 H   0  0  0  0  0  0  0  0  0  0  0  0
  1  2  1  0
  2  3  1  0
  2  4  1  0
  4  5  1  0
  5  6  1  0
  6  7  1  0
  6  8  1  0
  8  9  1  0
  8  2  1  0
  8  5  1  0
  1 10  1  0
  1 11  1  0
  1 12  1  0
  3 13  1  0
  3 14  1  0
  3 15  1  0
  4 16  1  0
  4 17  1  0
  5 18  1  0
  6 19  1  0
  7 20  1  0
  9 21  1  0
M  END
