
     RDKit          3D

 17 17  0  0  0  0  0  0  0  0999 V2000
   -1.3048   -1.1131   -0.7714 C   0  0  0  0  0  0  0  0  0  0  0  0
   -0.6215   -0.1625    0.1981 C   0  0  0  0  0  0  0  0  0  0  0  0
   -1.2777    1.1829    0.4010 C   0  0  0  0  0  0  0  0  0  0  0  0
    0.0869   -0.8125    1.1520 O   0  0  0  0  0  0  0  0  0  0  0  0
    0.8473   -0.0499    0.2385 C   0  0  0  0  0  0  0  0  0  0  0  0
    1.6707   -0.8297   -0.7512 C   0  0  0  0  0  0  0  0  0  0  0  0
    1.2146   -1.0146   -1.8492 O   0  0  0  0  0  0  0  0  0  0  0  0
    1.5917    0.9589    1.0902 C   0  0  0  0  0  0  0  0  0  0  0  0
    2.7771    0.8101    1.2227 O   0  0  0  0  0  0  0  0  0  0  0  0
   -0.9858   -1.0235   -1.8026 H   0  0  0  0  0  0  0  0  0  0  0  0
   -1.1312   -2.1833   -0.4757 H   0  0  0  0  0  0  0  0  0  0  0  0
   -2.3908   -0.9402   -0.7431 H   0  0  0  0  0  0  0  0  0  0  0  0
   -0.8018    1.8307   -0.4031 H   0  0  0  0  0  0  0  0  0  0  0  0
   -2.3414    1.1144    0.1449 H   0  0  0  0  0  0  0  0  0  0  0  0
   -1.0250    1.6684    1.3382 H   0  0  0  0  0  0  0  0  0  0  0  0
    2.6535   -1.2106   -0.4902 H   0  0  0  0  0  0  0  0  0  0  0  0
    1.0383    1.7744    1.5008 H   0  0  0  0  0  0  0  0  0  0  0  0
  1  2  1  0
  2  3  1  0
  2  4  1  0
  4  5  1  0
  5  6  1  0
  6  7  2  0
  5  8  1  0
  8  9  2  0
  5  2  1  0
  1 10  1  0
  1 11  1  0
  1 12  1  0
  3 13  1  0
  3 14  1  0
  3 15  1  0
  6 16  1  0
  8 17  1  0
M  END
