
     RDKit          3D

 21 21  0  0  0  0  0  0  0  0999 V2000
   -1.0998   -0.7558   -1.1868 C   0  0  0  0  0  0  0  0  0  0  0  0
   -0.4468    0.0903   -0.1007 C   0  0  0  0  0  0  0  0  0  0  0  0
   -1.5974    0.6726    0.7289 C   0  0  0  0  0  0  0  0  0  0  0  0
   -2.3205   -0.3377    1.3544 O   0  0  0  0  0  0  0  0  0  0  0  0
    0.3804   -0.7530    0.8232 C   0  0  0  0  0  0  0  0  0  0  0  0
    1.7013   -0.8612    0.4680 O   0  0  0  0  0  0  0  0  0  0  0  0
    2.2649    0.3541    0.1237 C   0  0  0  0  0  0  0  0  0  0  0  0
    1.4897    0.8478   -1.1054 C   0  0  0  0  0  0  0  0  0  0  0  0
    0.2158    1.1318   -0.6826 O   0  0  0  0  0  0  0  0  0  0  0  0
   -1.7148   -1.5768   -0.7297 H   0  0  0  0  0  0  0  0  0  0  0  0
   -1.7888   -0.0794   -1.7576 H   0  0  0  0  0  0  0  0  0  0  0  0
   -0.3677   -1.2052   -1.8619 H   0  0  0  0  0  0  0  0  0  0  0  0
   -2.2853    1.2695    0.0836 H   0  0  0  0  0  0  0  0  0  0  0  0
   -1.2020    1.3719    1.4955 H   0  0  0  0  0  0  0  0  0  0  0  0
   -2.4904   -0.0992    2.3075 H   0  0  0  0  0  0  0  0  0  0  0  0
    0.3279   -0.3479    1.8623 H   0  0  0  0  0  0  0  0  0  0  0  0
   -0.0709   -1.7869    0.8060 H   0  0  0  0  0  0  0  0  0  0  0  0
    3.2944    0.1814   -0.1980 H   0  0  0  0  0  0  0  0  0  0  0  0
    2.1548    1.1312    0.9014 H   0  0  0  0  0  0  0  0  0  0  0  0
    1.9932    1.7365   -1.4762 H   0  0  0  0  0  0  0  0  0  0  0  0
    1.5621    0.0503   -1.8555 H   0  0  0  0  0  0  0  0  0  0  0  0
  1  2  1  0
  2  3  1  0
  3  4  1  0
  2  5  1  0
  5  6  1  0
  6  7  1  0
  7  8  1  0
  8  9  1  0
  9  2  1  0
  1 10  1  0
  1 11  1  0
  1 12  1  0
  3 13  1  0
  3 14  1  0
  4 15  1  0
  5 16  1  0
  5 17  1  0
  7 18  1  0
  7 19  1  0
  8 20  1  0
  8 21  1  0
M  END
