
     RDKit          3D

 19 19  0  0  0  0  0  0  0  0999 V2000
    1.3775   -0.7079    1.0955 C   0  0  0  0  0  0  0  0  0  0  0  0
    0.7080   -0.1312   -0.1018 C   0  0  0  0  0  0  0  0  0  0  0  0
    0.8346   -0.9740   -1.2145 O   0  0  0  0  0  0  0  0  0  0  0  0
    1.0252    1.2866   -0.4545 C   0  0  0  0  0  0  0  0  0  0  0  0
   -0.4240    1.6266   -0.3709 C   0  0  0  0  0  0  0  0  0  0  0  0
   -1.1471    2.5858   -0.5868 O   0  0  0  0  0  0  0  0  0  0  0  0
   -0.7381    0.2531    0.1194 C   0  0  0  0  0  0  0  0  0  0  0  0
   -1.7068   -0.4388   -0.7792 C   0  0  0  0  0  0  0  0  0  0  0  0
   -1.0644    0.2817    1.4736 O   0  0  0  0  0  0  0  0  0  0  0  0
    0.6910   -1.4855    1.5226 H   0  0  0  0  0  0  0  0  0  0  0  0
    1.5938   -0.0087    1.9008 H   0  0  0  0  0  0  0  0  0  0  0  0
    2.2971   -1.2525    0.7892 H   0  0  0  0  0  0  0  0  0  0  0  0
    0.8713   -1.8868   -0.8684 H   0  0  0  0  0  0  0  0  0  0  0  0
    1.4725    1.4610   -1.4569 H   0  0  0  0  0  0  0  0  0  0  0  0
    1.5991    1.8571    0.2939 H   0  0  0  0  0  0  0  0  0  0  0  0
   -2.1366    0.2328   -1.5614 H   0  0  0  0  0  0  0  0  0  0  0  0
   -2.5837   -0.8793   -0.2409 H   0  0  0  0  0  0  0  0  0  0  0  0
   -1.1899   -1.2617   -1.2980 H   0  0  0  0  0  0  0  0  0  0  0  0
   -1.4797   -0.5584    1.7383 H   0  0  0  0  0  0  0  0  0  0  0  0
  1  2  1  0
  2  3  1  0
  2  4  1  0
  4  5  1  0
  5  6  2  0
  5  7  1  0
  7  8  1  0
  7  9  1  0
  7  2  1  0
  1 10  1  0
  1 11  1  0
  1 12  1  0
  3 13  1  0
  4 14  1  0
  4 15  1  0
  8 16  1  0
  8 17  1  0
  8 18  1  0
  9 19  1  0
M  END
