
     RDKit          3D

 19 19  0  0  0  0  0  0  0  0999 V2000
   -1.3351   -0.9211   -0.4911 C   0  0  0  0  0  0  0  0  0  0  0  0
   -0.7753    0.1383    0.4027 C   0  0  0  0  0  0  0  0  0  0  0  0
   -1.3619    1.4974    0.3078 C   0  0  0  0  0  0  0  0  0  0  0  0
   -0.6331   -0.3853    1.7297 O   0  0  0  0  0  0  0  0  0  0  0  0
    0.5450   -0.9862    1.2554 C   0  0  0  0  0  0  0  0  0  0  0  0
    1.0515   -2.0928    1.5326 O   0  0  0  0  0  0  0  0  0  0  0  0
    0.7442    0.2121    0.4379 C   0  0  0  0  0  0  0  0  0  0  0  0
    1.4122    0.0363   -0.8867 C   0  0  0  0  0  0  0  0  0  0  0  0
    2.7818    0.1269   -0.7007 O   0  0  0  0  0  0  0  0  0  0  0  0
   -1.2975   -0.6920   -1.5534 H   0  0  0  0  0  0  0  0  0  0  0  0
   -0.7658   -1.8628   -0.2821 H   0  0  0  0  0  0  0  0  0  0  0  0
   -2.3765   -1.1402   -0.1220 H   0  0  0  0  0  0  0  0  0  0  0  0
   -2.4473    1.5518    0.4270 H   0  0  0  0  0  0  0  0  0  0  0  0
   -1.0400    1.9344   -0.6823 H   0  0  0  0  0  0  0  0  0  0  0  0
   -0.9017    2.1403    1.0742 H   0  0  0  0  0  0  0  0  0  0  0  0
    1.0968    1.1036    0.9529 H   0  0  0  0  0  0  0  0  0  0  0  0
    1.1266    0.9251   -1.5187 H   0  0  0  0  0  0  0  0  0  0  0  0
    1.0928   -0.8454   -1.4535 H   0  0  0  0  0  0  0  0  0  0  0  0
    3.0830   -0.7404   -0.3401 H   0  0  0  0  0  0  0  0  0  0  0  0
  1  2  1  0
  2  3  1  0
  2  4  1  0
  4  5  1  0
  5  6  2  0
  5  7  1  0
  7  8  1  0
  8  9  1  0
  7  2  1  0
  1 10  1  0
  1 11  1  0
  1 12  1  0
  3 13  1  0
  3 14  1  0
  3 15  1  0
  7 16  1  0
  8 17  1  0
  8 18  1  0
  9 19  1  0
M  END
