
     RDKit          3D

 21 22  0  0  0  0  0  0  0  0999 V2000
   -1.6724   -1.1547   -0.9881 C   0  0  0  0  0  0  0  0  0  0  0  0
   -0.9799   -0.1251   -0.1830 C   0  0  0  0  0  0  0  0  0  0  0  0
   -1.8857    0.6086    0.7647 C   0  0  0  0  0  0  0  0  0  0  0  0
    0.2111   -0.6927    0.6048 C   0  0  0  0  0  0  0  0  0  0  0  0
    1.0233    0.4551    0.0148 C   0  0  0  0  0  0  0  0  0  0  0  0
    2.4615    0.2353   -0.3300 C   0  0  0  0  0  0  0  0  0  0  0  0
    3.2766    0.8694    0.6186 O   0  0  0  0  0  0  0  0  0  0  0  0
    0.5153    1.7397    0.0809 O   0  0  0  0  0  0  0  0  0  0  0  0
    0.0287    0.7431   -0.8707 C   0  0  0  0  0  0  0  0  0  0  0  0
   -2.5493   -0.7052   -1.4775 H   0  0  0  0  0  0  0  0  0  0  0  0
   -2.0504   -1.9639   -0.3205 H   0  0  0  0  0  0  0  0  0  0  0  0
   -1.0208   -1.5894   -1.7704 H   0  0  0  0  0  0  0  0  0  0  0  0
   -2.4139   -0.1662    1.3755 H   0  0  0  0  0  0  0  0  0  0  0  0
   -1.2239    1.1763    1.4737 H   0  0  0  0  0  0  0  0  0  0  0  0
   -2.5743    1.2637    0.2095 H   0  0  0  0  0  0  0  0  0  0  0  0
    0.5350   -1.6347    0.1424 H   0  0  0  0  0  0  0  0  0  0  0  0
    0.0834   -0.6760    1.6846 H   0  0  0  0  0  0  0  0  0  0  0  0
    2.6461   -0.8527   -0.3674 H   0  0  0  0  0  0  0  0  0  0  0  0
    2.6645    0.7183   -1.3078 H   0  0  0  0  0  0  0  0  0  0  0  0
    2.9811    0.6950    1.5400 H   0  0  0  0  0  0  0  0  0  0  0  0
   -0.0560    1.0559   -1.8959 H   0  0  0  0  0  0  0  0  0  0  0  0
  1  2  1  0
  2  3  1  0
  2  4  1  0
  4  5  1  0
  5  6  1  0
  6  7  1  0
  5  8  1  0
  8  9  1  0
  9  2  1  0
  9  5  1  0
  1 10  1  0
  1 11  1  0
  1 12  1  0
  3 13  1  0
  3 14  1  0
  3 15  1  0
  4 16  1  0
  4 17  1  0
  6 18  1  0
  6 19  1  0
  7 20  1  0
  9 21  1  0
M  END
