
     RDKit          3D

 21 22  0  0  0  0  0  0  0  0999 V2000
   -1.5362   -0.8269   -0.8312 C   0  0  0  0  0  0  0  0  0  0  0  0
   -0.6036   -0.0825    0.0857 C   0  0  0  0  0  0  0  0  0  0  0  0
   -1.3171    0.3995    1.3111 C   0  0  0  0  0  0  0  0  0  0  0  0
    0.0390    1.1102   -0.6535 C   0  0  0  0  0  0  0  0  0  0  0  0
    1.4810    0.7926   -0.3593 C   0  0  0  0  0  0  0  0  0  0  0  0
    1.5388   -0.6753   -0.8043 C   0  0  0  0  0  0  0  0  0  0  0  0
    0.6383   -0.8370    0.4282 C   0  0  0  0  0  0  0  0  0  0  0  0
    1.5015    0.2429    1.0251 C   0  0  0  0  0  0  0  0  0  0  0  0
    1.9910    0.5562    2.0758 O   0  0  0  0  0  0  0  0  0  0  0  0
   -2.4094   -0.1588   -1.0132 H   0  0  0  0  0  0  0  0  0  0  0  0
   -1.9102   -1.7009   -0.2961 H   0  0  0  0  0  0  0  0  0  0  0  0
   -1.0727   -1.0755   -1.7859 H   0  0  0  0  0  0  0  0  0  0  0  0
   -1.2118   -0.4012    2.0897 H   0  0  0  0  0  0  0  0  0  0  0  0
   -0.7630    1.3039    1.6757 H   0  0  0  0  0  0  0  0  0  0  0  0
   -2.3756    0.6292    1.1608 H   0  0  0  0  0  0  0  0  0  0  0  0
   -0.3095    2.0466   -0.2172 H   0  0  0  0  0  0  0  0  0  0  0  0
   -0.1121    1.0054   -1.7355 H   0  0  0  0  0  0  0  0  0  0  0  0
    2.2521    1.4382   -0.6803 H   0  0  0  0  0  0  0  0  0  0  0  0
    2.5196   -1.1228   -0.6188 H   0  0  0  0  0  0  0  0  0  0  0  0
    1.0521   -0.8658   -1.7594 H   0  0  0  0  0  0  0  0  0  0  0  0
    0.6077   -1.7778    0.9027 H   0  0  0  0  0  0  0  0  0  0  0  0
  1  2  1  0
  2  3  1  0
  2  4  1  0
  4  5  1  0
  5  6  1  0
  6  7  1  0
  7  8  1  0
  8  9  2  0
  7  2  1  0
  8  5  1  0
  1 10  1  0
  1 11  1  0
  1 12  1  0
  3 13  1  0
  3 14  1  0
  3 15  1  0
  4 16  1  0
  4 17  1  0
  5 18  1  0
  6 19  1  0
  6 20  1  0
  7 21  1  0
M  END
