
     RDKit          3D

 17 18  0  0  0  0  0  0  0  0999 V2000
    2.1673    0.8979   -0.0230 C   0  0  0  0  0  0  0  0  0  0  0  0
    1.0733   -0.0026   -0.5159 C   0  0  0  0  0  0  0  0  0  0  0  0
    1.0938   -1.4403   -0.0515 C   0  0  0  0  0  0  0  0  0  0  0  0
    1.0715   -2.2511   -0.9594 O   0  0  0  0  0  0  0  0  0  0  0  0
    0.3601    0.2103   -1.6581 O   0  0  0  0  0  0  0  0  0  0  0  0
   -0.3607    0.5969   -0.5479 C   0  0  0  0  0  0  0  0  0  0  0  0
   -1.3211   -0.3257    0.1581 C   0  0  0  0  0  0  0  0  0  0  0  0
   -2.7383    0.0723    0.2280 C   0  0  0  0  0  0  0  0  0  0  0  0
   -2.3083   -0.8485   -0.7421 O   0  0  0  0  0  0  0  0  0  0  0  0
    2.9809    0.2776    0.4790 H   0  0  0  0  0  0  0  0  0  0  0  0
    1.9131    1.7511    0.6498 H   0  0  0  0  0  0  0  0  0  0  0  0
    2.6962    1.2724   -0.9598 H   0  0  0  0  0  0  0  0  0  0  0  0
    1.1223   -1.6255    1.0030 H   0  0  0  0  0  0  0  0  0  0  0  0
   -0.3705    1.6724   -0.2792 H   0  0  0  0  0  0  0  0  0  0  0  0
   -0.9676   -0.9254    0.9809 H   0  0  0  0  0  0  0  0  0  0  0  0
   -3.3999   -0.4273    0.9547 H   0  0  0  0  0  0  0  0  0  0  0  0
   -3.0121    1.0955   -0.1416 H   0  0  0  0  0  0  0  0  0  0  0  0
  1  2  1  0
  2  3  1  0
  3  4  2  0
  2  5  1  0
  5  6  1  0
  6  7  1  0
  7  8  1  0
  8  9  1  0
  6  2  1  0
  9  7  1  0
  1 10  1  0
  1 11  1  0
  1 12  1  0
  3 13  1  0
  6 14  1  0
  7 15  1  0
  8 16  1  0
  8 17  1  0
M  END
