
     RDKit          3D

 19 20  0  0  0  0  0  0  0  0999 V2000
    1.7547    0.4345   -0.6953 C   0  0  0  0  0  0  0  0  0  0  0  0
    0.8506   -0.3890    0.1780 C   0  0  0  0  0  0  0  0  0  0  0  0
    1.2040   -1.7294    0.1048 O   0  0  0  0  0  0  0  0  0  0  0  0
    0.7674    0.1529    1.6046 C   0  0  0  0  0  0  0  0  0  0  0  0
   -0.5963   -0.1980    1.5876 O   0  0  0  0  0  0  0  0  0  0  0  0
   -0.5719   -0.0444    0.2323 C   0  0  0  0  0  0  0  0  0  0  0  0
   -1.2328    1.0386   -0.4733 C   0  0  0  0  0  0  0  0  0  0  0  0
   -1.6053   -0.4160   -0.6994 C   0  0  0  0  0  0  0  0  0  0  0  0
   -2.8057   -0.8927   -0.1916 O   0  0  0  0  0  0  0  0  0  0  0  0
    1.3228    1.4199   -0.9324 H   0  0  0  0  0  0  0  0  0  0  0  0
    2.6942    0.6047   -0.1204 H   0  0  0  0  0  0  0  0  0  0  0  0
    2.0571   -0.1365   -1.5987 H   0  0  0  0  0  0  0  0  0  0  0  0
    0.8310   -2.0842   -0.7487 H   0  0  0  0  0  0  0  0  0  0  0  0
    0.8619    1.2458    1.6388 H   0  0  0  0  0  0  0  0  0  0  0  0
    1.3987   -0.4394    2.2657 H   0  0  0  0  0  0  0  0  0  0  0  0
   -2.0098    1.6160    0.0793 H   0  0  0  0  0  0  0  0  0  0  0  0
   -0.7510    1.6093   -1.2850 H   0  0  0  0  0  0  0  0  0  0  0  0
   -1.3640   -0.7605   -1.7248 H   0  0  0  0  0  0  0  0  0  0  0  0
   -2.8057   -1.0316    0.7782 H   0  0  0  0  0  0  0  0  0  0  0  0
  1  2  1  0
  2  3  1  0
  2  4  1  0
  4  5  1  0
  5  6  1  0
  6  7  1  0
  7  8  1  0
  8  9  1  0
  6  2  1  0
  8  6  1  0
  1 10  1  0
  1 11  1  0
  1 12  1  0
  3 13  1  0
  4 14  1  0
  4 15  1  0
  7 16  1  0
  7 17  1  0
  8 18  1  0
  9 19  1  0
M  END
