
     RDKit          3D

 20 21  0  0  0  0  0  0  0  0999 V2000
   -0.4313    1.7671   -0.4260 C   0  0  0  0  0  0  0  0  0  0  0  0
    0.1755    0.3577   -0.3477 C   0  0  0  0  0  0  0  0  0  0  0  0
    1.6514    0.3601   -0.4193 C   0  0  0  0  0  0  0  0  0  0  0  0
    2.3188   -0.8266   -0.3661 O   0  0  0  0  0  0  0  0  0  0  0  0
   -0.5504   -0.3899    0.7055 C   0  0  0  0  0  0  0  0  0  0  0  0
   -0.2447   -1.6436   -0.0054 C   0  0  0  0  0  0  0  0  0  0  0  0
   -0.5185   -0.6795   -1.1191 C   0  0  0  0  0  0  0  0  0  0  0  0
   -1.7274   -0.3092   -0.2680 C   0  0  0  0  0  0  0  0  0  0  0  0
   -1.0244    2.0118    0.4731 H   0  0  0  0  0  0  0  0  0  0  0  0
    0.4576    2.4611   -0.3534 H   0  0  0  0  0  0  0  0  0  0  0  0
   -0.9717    1.9382   -1.3738 H   0  0  0  0  0  0  0  0  0  0  0  0
    2.0424    1.1025    0.3417 H   0  0  0  0  0  0  0  0  0  0  0  0
    1.9102    0.7974   -1.4401 H   0  0  0  0  0  0  0  0  0  0  0  0
    3.0611   -0.7933    0.2988 H   0  0  0  0  0  0  0  0  0  0  0  0
   -0.6124   -0.1986    1.6858 H   0  0  0  0  0  0  0  0  0  0  0  0
    0.6921   -2.1540    0.0739 H   0  0  0  0  0  0  0  0  0  0  0  0
   -1.1083   -2.3793    0.1642 H   0  0  0  0  0  0  0  0  0  0  0  0
   -0.5419   -0.8709   -2.0995 H   0  0  0  0  0  0  0  0  0  0  0  0
   -2.1838    0.6503   -0.4285 H   0  0  0  0  0  0  0  0  0  0  0  0
   -2.3942   -1.2013   -0.2152 H   0  0  0  0  0  0  0  0  0  0  0  0
  1  2  1  0
  2  3  1  0
  3  4  1  0
  2  5  1  0
  5  6  1  0
  6  7  1  0
  7  8  1  0
  7  2  1  0
  8  5  1  0
  1  9  1  0
  1 10  1  0
  1 11  1  0
  3 12  1  0
  3 13  1  0
  4 14  1  0
  5 15  1  0
  6 16  1  0
  6 17  1  0
  7 18  1  0
  8 19  1  0
  8 20  1  0
M  END
