
     RDKit          3D

 18 19  0  0  0  0  0  0  0  0999 V2000
    1.8572    0.3960   -0.7534 C   0  0  0  0  0  0  0  0  0  0  0  0
    0.7056   -0.2300    0.0083 C   0  0  0  0  0  0  0  0  0  0  0  0
   -0.6841    0.2868   -0.2715 C   0  0  0  0  0  0  0  0  0  0  0  0
   -1.6606   -0.5897   -1.0121 C   0  0  0  0  0  0  0  0  0  0  0  0
   -1.3002    1.1592    0.7966 C   0  0  0  0  0  0  0  0  0  0  0  0
   -0.7483    1.6621   -0.3937 O   0  0  0  0  0  0  0  0  0  0  0  0
    1.0306   -0.8395    1.2947 C   0  0  0  0  0  0  0  0  0  0  0  0
    0.7944   -1.6813    0.1409 O   0  0  0  0  0  0  0  0  0  0  0  0
    2.7246   -0.3145   -0.8104 H   0  0  0  0  0  0  0  0  0  0  0  0
    1.5616    0.7968   -1.7245 H   0  0  0  0  0  0  0  0  0  0  0  0
    2.2287    1.2405   -0.1048 H   0  0  0  0  0  0  0  0  0  0  0  0
   -1.5661   -0.5224   -2.1071 H   0  0  0  0  0  0  0  0  0  0  0  0
   -2.7129   -0.3600   -0.7530 H   0  0  0  0  0  0  0  0  0  0  0  0
   -1.4888   -1.6356   -0.6322 H   0  0  0  0  0  0  0  0  0  0  0  0
   -0.7232    1.2751    1.7393 H   0  0  0  0  0  0  0  0  0  0  0  0
   -2.4061    1.2318    0.8432 H   0  0  0  0  0  0  0  0  0  0  0  0
    2.0824   -0.9158    1.6141 H   0  0  0  0  0  0  0  0  0  0  0  0
    0.3052   -0.9595    2.1258 H   0  0  0  0  0  0  0  0  0  0  0  0
  1  2  1  0
  2  3  1  0
  3  4  1  0
  3  5  1  0
  5  6  1  0
  2  7  1  0
  7  8  1  0
  8  2  1  0
  6  3  1  0
  1  9  1  0
  1 10  1  0
  1 11  1  0
  4 12  1  0
  4 13  1  0
  4 14  1  0
  5 15  1  0
  5 16  1  0
  7 17  1  0
  7 18  1  0
M  END
