
     RDKit          3D

 21 22  0  0  0  0  0  0  0  0999 V2000
   -1.9353   -0.2983   -0.9526 C   0  0  0  0  0  0  0  0  0  0  0  0
   -1.0506   -0.0983    0.2783 C   0  0  0  0  0  0  0  0  0  0  0  0
   -1.3242   -0.9452    1.3236 O   0  0  0  0  0  0  0  0  0  0  0  0
   -1.1016    1.3825    0.6586 C   0  0  0  0  0  0  0  0  0  0  0  0
    0.0406    1.5940   -0.1486 O   0  0  0  0  0  0  0  0  0  0  0  0
    0.3230    0.2723   -0.0236 C   0  0  0  0  0  0  0  0  0  0  0  0
    1.4370   -0.1437    0.8706 C   0  0  0  0  0  0  0  0  0  0  0  0
    2.3221   -0.0442   -0.3819 C   0  0  0  0  0  0  0  0  0  0  0  0
    1.0404   -0.4076   -1.1489 C   0  0  0  0  0  0  0  0  0  0  0  0
   -1.4707    0.2563   -1.8019 H   0  0  0  0  0  0  0  0  0  0  0  0
   -2.9583    0.1139   -0.7413 H   0  0  0  0  0  0  0  0  0  0  0  0
   -1.9531   -1.3722   -1.1903 H   0  0  0  0  0  0  0  0  0  0  0  0
   -1.1834   -1.8692    1.0196 H   0  0  0  0  0  0  0  0  0  0  0  0
   -0.8872    1.5820    1.7104 H   0  0  0  0  0  0  0  0  0  0  0  0
   -1.9548    1.9357    0.2232 H   0  0  0  0  0  0  0  0  0  0  0  0
    1.7292    0.5146    1.6850 H   0  0  0  0  0  0  0  0  0  0  0  0
    1.3730   -1.2301    1.1344 H   0  0  0  0  0  0  0  0  0  0  0  0
    2.5715    1.0234   -0.5290 H   0  0  0  0  0  0  0  0  0  0  0  0
    3.1209   -0.7719   -0.4439 H   0  0  0  0  0  0  0  0  0  0  0  0
    0.9615    0.0317   -2.1428 H   0  0  0  0  0  0  0  0  0  0  0  0
    0.9002   -1.5260   -1.1054 H   0  0  0  0  0  0  0  0  0  0  0  0
  1  2  1  0
  2  3  1  0
  2  4  1  0
  4  5  1  0
  5  6  1  0
  6  7  1  0
  7  8  1  0
  8  9  1  0
  6  2  1  0
  9  6  1  0
  1 10  1  0
  1 11  1  0
  1 12  1  0
  3 13  1  0
  4 14  1  0
  4 15  1  0
  7 16  1  0
  7 17  1  0
  8 18  1  0
  8 19  1  0
  9 20  1  0
  9 21  1  0
M  END
