
     RDKit          3D

 19 19  0  0  0  0  0  0  0  0999 V2000
   -0.7749   -0.9607    1.1519 C   0  0  0  0  0  0  0  0  0  0  0  0
   -0.4149   -0.0154    0.0600 C   0  0  0  0  0  0  0  0  0  0  0  0
   -1.5959    0.6285   -0.6125 C   0  0  0  0  0  0  0  0  0  0  0  0
    0.4795    1.0766    0.5916 C   0  0  0  0  0  0  0  0  0  0  0  0
    1.8227    0.6008    0.2216 C   0  0  0  0  0  0  0  0  0  0  0  0
    1.7683   -0.3890   -0.6513 C   0  0  0  0  0  0  0  0  0  0  0  0
    0.3819   -0.7325   -1.0039 C   0  0  0  0  0  0  0  0  0  0  0  0
   -1.7416   -1.4827    1.0119 H   0  0  0  0  0  0  0  0  0  0  0  0
   -0.6793   -0.5026    2.1698 H   0  0  0  0  0  0  0  0  0  0  0  0
   -0.0001   -1.7843    1.1433 H   0  0  0  0  0  0  0  0  0  0  0  0
   -2.2147    1.1952    0.0853 H   0  0  0  0  0  0  0  0  0  0  0  0
   -1.1757    1.3653   -1.3496 H   0  0  0  0  0  0  0  0  0  0  0  0
   -2.1382   -0.1168   -1.2072 H   0  0  0  0  0  0  0  0  0  0  0  0
    0.3490    1.2085    1.6987 H   0  0  0  0  0  0  0  0  0  0  0  0
    0.2926    2.0470    0.0810 H   0  0  0  0  0  0  0  0  0  0  0  0
    2.7404    1.0223    0.6257 H   0  0  0  0  0  0  0  0  0  0  0  0
    2.6353   -0.8940   -1.0643 H   0  0  0  0  0  0  0  0  0  0  0  0
    0.0905   -0.4377   -2.0313 H   0  0  0  0  0  0  0  0  0  0  0  0
    0.1750   -1.8286   -0.9208 H   0  0  0  0  0  0  0  0  0  0  0  0
  1  2  1  0
  2  3  1  0
  2  4  1  0
  4  5  1  0
  5  6  2  0
  6  7  1  0
  7  2  1  0
  1  8  1  0
  1  9  1  0
  1 10  1  0
  3 11  1  0
  3 12  1  0
  3 13  1  0
  4 14  1  0
  4 15  1  0
  5 16  1  0
  6 17  1  0
  7 18  1  0
  7 19  1  0
M  END
