
     RDKit          3D

 17 17  0  0  0  0  0  0  0  0999 V2000
   -0.7614    0.3391    1.4654 C   0  0  0  0  0  0  0  0  0  0  0  0
   -0.5492   -0.1760    0.0583 C   0  0  0  0  0  0  0  0  0  0  0  0
   -1.2830   -1.4140   -0.3164 C   0  0  0  0  0  0  0  0  0  0  0  0
   -1.1760   -1.8966   -1.4256 O   0  0  0  0  0  0  0  0  0  0  0  0
   -0.4078    0.8035   -1.0698 C   0  0  0  0  0  0  0  0  0  0  0  0
    0.7735    0.0634   -0.5464 C   0  0  0  0  0  0  0  0  0  0  0  0
    1.2859   -1.0146   -1.2933 O   0  0  0  0  0  0  0  0  0  0  0  0
    1.8080    0.8799    0.1009 C   0  0  0  0  0  0  0  0  0  0  0  0
    2.9568    0.8323   -0.2711 O   0  0  0  0  0  0  0  0  0  0  0  0
   -0.7532    1.4355    1.5352 H   0  0  0  0  0  0  0  0  0  0  0  0
   -1.7191   -0.0960    1.8235 H   0  0  0  0  0  0  0  0  0  0  0  0
    0.0181   -0.0477    2.1672 H   0  0  0  0  0  0  0  0  0  0  0  0
   -1.9294   -1.9160    0.3869 H   0  0  0  0  0  0  0  0  0  0  0  0
   -0.7911    0.5556   -2.0864 H   0  0  0  0  0  0  0  0  0  0  0  0
   -0.5073    1.8595   -0.8003 H   0  0  0  0  0  0  0  0  0  0  0  0
    1.4659   -1.7455   -0.6465 H   0  0  0  0  0  0  0  0  0  0  0  0
    1.5693    1.5376    0.9184 H   0  0  0  0  0  0  0  0  0  0  0  0
  1  2  1  0
  2  3  1  0
  3  4  2  0
  2  5  1  0
  5  6  1  0
  6  7  1  0
  6  8  1  0
  8  9  2  0
  6  2  1  0
  1 10  1  0
  1 11  1  0
  1 12  1  0
  3 13  1  0
  5 14  1  0
  5 15  1  0
  7 16  1  0
  8 17  1  0
M  END
