
     RDKit          3D

 18 18  0  0  0  0  0  0  0  0999 V2000
   -2.0875   -0.3074   -0.0961 C   0  0  0  0  0  0  0  0  0  0  0  0
   -0.6270    0.1690    0.0649 C   0  0  0  0  0  0  0  0  0  0  0  0
   -0.5516    1.5000    0.7224 C   0  0  0  0  0  0  0  0  0  0  0  0
    0.0425    2.4348    0.0812 O   0  0  0  0  0  0  0  0  0  0  0  0
    0.0665   -0.9046    0.9510 C   0  0  0  0  0  0  0  0  0  0  0  0
    0.4728   -0.5649   -0.4978 C   0  0  0  0  0  0  0  0  0  0  0  0
    1.9172   -0.1392   -0.5365 C   0  0  0  0  0  0  0  0  0  0  0  0
    2.1331    1.0545   -1.2062 O   0  0  0  0  0  0  0  0  0  0  0  0
   -2.4706   -0.4836    0.9124 H   0  0  0  0  0  0  0  0  0  0  0  0
   -2.6891    0.4427   -0.5765 H   0  0  0  0  0  0  0  0  0  0  0  0
   -2.1250   -1.2840   -0.6562 H   0  0  0  0  0  0  0  0  0  0  0  0
   -0.9569    1.6682    1.6774 H   0  0  0  0  0  0  0  0  0  0  0  0
    0.6999   -0.5462    1.7787 H   0  0  0  0  0  0  0  0  0  0  0  0
   -0.4229   -1.8526    1.1369 H   0  0  0  0  0  0  0  0  0  0  0  0
    0.2292   -1.3787   -1.2282 H   0  0  0  0  0  0  0  0  0  0  0  0
    2.4094   -0.0952    0.4645 H   0  0  0  0  0  0  0  0  0  0  0  0
    2.5333   -0.9301   -1.0818 H   0  0  0  0  0  0  0  0  0  0  0  0
    1.4265    1.2174   -1.9101 H   0  0  0  0  0  0  0  0  0  0  0  0
  1  2  1  0
  2  3  1  0
  3  4  2  0
  2  5  1  0
  5  6  1  0
  6  7  1  0
  7  8  1  0
  6  2  1  0
  1  9  1  0
  1 10  1  0
  1 11  1  0
  3 12  1  0
  5 13  1  0
  5 14  1  0
  6 15  1  0
  7 16  1  0
  7 17  1  0
  8 18  1  0
M  END
