
     RDKit          3D

 21 22  0  0  0  0  0  0  0  0999 V2000
   -2.3288    0.0215   -0.1157 C   0  0  0  0  0  0  0  0  0  0  0  0
   -0.8611    0.0588    0.2394 C   0  0  0  0  0  0  0  0  0  0  0  0
   -0.6171   -0.0411    1.5870 O   0  0  0  0  0  0  0  0  0  0  0  0
   -0.2246   -1.1177   -0.5110 C   0  0  0  0  0  0  0  0  0  0  0  0
    1.1464   -1.3048    0.0897 C   0  0  0  0  0  0  0  0  0  0  0  0
    1.8978   -0.0241    0.1695 C   0  0  0  0  0  0  0  0  0  0  0  0
    1.2226    1.1571   -0.4156 C   0  0  0  0  0  0  0  0  0  0  0  0
    0.6009    2.0592    0.6192 O   0  0  0  0  0  0  0  0  0  0  0  0
   -0.1793    1.2879   -0.3198 C   0  0  0  0  0  0  0  0  0  0  0  0
   -2.8780    0.9129    0.1759 H   0  0  0  0  0  0  0  0  0  0  0  0
   -2.7636   -0.8779    0.3561 H   0  0  0  0  0  0  0  0  0  0  0  0
   -2.3709   -0.1739   -1.2223 H   0  0  0  0  0  0  0  0  0  0  0  0
   -0.6066    0.8859    1.9589 H   0  0  0  0  0  0  0  0  0  0  0  0
   -0.8627   -1.9908   -0.4103 H   0  0  0  0  0  0  0  0  0  0  0  0
   -0.0676   -0.8275   -1.5844 H   0  0  0  0  0  0  0  0  0  0  0  0
    1.6626   -2.0970   -0.5081 H   0  0  0  0  0  0  0  0  0  0  0  0
    1.0457   -1.7447    1.1180 H   0  0  0  0  0  0  0  0  0  0  0  0
    2.8672   -0.1729   -0.3917 H   0  0  0  0  0  0  0  0  0  0  0  0
    2.2409    0.1922    1.2251 H   0  0  0  0  0  0  0  0  0  0  0  0
    1.8166    1.8561   -1.0690 H   0  0  0  0  0  0  0  0  0  0  0  0
   -0.7404    1.9407   -0.9911 H   0  0  0  0  0  0  0  0  0  0  0  0
  1  2  1  0
  2  3  1  0
  2  4  1  0
  4  5  1  0
  5  6  1  0
  6  7  1  0
  7  8  1  0
  8  9  1  0
  9  2  1  0
  9  7  1  0
  1 10  1  0
  1 11  1  0
  1 12  1  0
  3 13  1  0
  4 14  1  0
  4 15  1  0
  5 16  1  0
  5 17  1  0
  6 18  1  0
  6 19  1  0
  7 20  1  0
  9 21  1  0
M  END
