
     RDKit          3D

 21 21  0  0  0  0  0  0  0  0999 V2000
   -1.7074    0.8591   -0.8669 C   0  0  0  0  0  0  0  0  0  0  0  0
   -1.0360    0.0618    0.2229 C   0  0  0  0  0  0  0  0  0  0  0  0
   -1.5403    0.3389    1.6011 C   0  0  0  0  0  0  0  0  0  0  0  0
   -0.7371   -1.3788   -0.1798 C   0  0  0  0  0  0  0  0  0  0  0  0
    0.3630   -0.4003    0.0954 C   0  0  0  0  0  0  0  0  0  0  0  0
    1.2071    0.1402   -1.0046 C   0  0  0  0  0  0  0  0  0  0  0  0
    2.5204   -0.3653   -1.0319 O   0  0  0  0  0  0  0  0  0  0  0  0
    3.3666   -0.1595    0.0399 C   0  0  0  0  0  0  0  0  0  0  0  0
    2.9236    0.4866    1.0182 O   0  0  0  0  0  0  0  0  0  0  0  0
   -1.2310    0.6662   -1.8313 H   0  0  0  0  0  0  0  0  0  0  0  0
   -2.7560    0.4477   -0.9509 H   0  0  0  0  0  0  0  0  0  0  0  0
   -1.8207    1.9189   -0.6312 H   0  0  0  0  0  0  0  0  0  0  0  0
   -0.7613    0.8359    2.2431 H   0  0  0  0  0  0  0  0  0  0  0  0
   -2.4224    0.9869    1.6439 H   0  0  0  0  0  0  0  0  0  0  0  0
   -1.7378   -0.6359    2.0929 H   0  0  0  0  0  0  0  0  0  0  0  0
   -1.0110   -2.1387    0.5693 H   0  0  0  0  0  0  0  0  0  0  0  0
   -0.9483   -1.6958   -1.2194 H   0  0  0  0  0  0  0  0  0  0  0  0
    0.9016   -0.6282    1.0379 H   0  0  0  0  0  0  0  0  0  0  0  0
    1.2739    1.2375   -0.8898 H   0  0  0  0  0  0  0  0  0  0  0  0
    0.7710   -0.0435   -2.0165 H   0  0  0  0  0  0  0  0  0  0  0  0
    4.3820   -0.5336    0.0578 H   0  0  0  0  0  0  0  0  0  0  0  0
  1  2  1  0
  2  3  1  0
  2  4  1  0
  4  5  1  0
  5  6  1  0
  6  7  1  0
  7  8  1  0
  8  9  2  0
  5  2  1  0
  1 10  1  0
  1 11  1  0
  1 12  1  0
  3 13  1  0
  3 14  1  0
  3 15  1  0
  4 16  1  0
  4 17  1  0
  5 18  1  0
  6 19  1  0
  6 20  1  0
  8 21  1  0
M  END
