
     RDKit          3D

 21 22  0  0  0  0  0  0  0  0999 V2000
    1.6114   -1.1408    0.8643 C   0  0  0  0  0  0  0  0  0  0  0  0
    0.7993   -0.1048    0.1129 C   0  0  0  0  0  0  0  0  0  0  0  0
    1.6887    0.9105   -0.5569 C   0  0  0  0  0  0  0  0  0  0  0  0
    2.3723    1.7109    0.3216 O   0  0  0  0  0  0  0  0  0  0  0  0
   -0.1811   -0.6670   -0.8859 C   0  0  0  0  0  0  0  0  0  0  0  0
   -1.1314   -0.0412    0.0503 C   0  0  0  0  0  0  0  0  0  0  0  0
   -2.2443    0.8280   -0.2974 C   0  0  0  0  0  0  0  0  0  0  0  0
   -2.4673   -0.5087    0.3522 C   0  0  0  0  0  0  0  0  0  0  0  0
   -0.1918    0.3854    0.9261 O   0  0  0  0  0  0  0  0  0  0  0  0
    1.0418   -2.0653    1.0551 H   0  0  0  0  0  0  0  0  0  0  0  0
    1.8359   -0.6975    1.8568 H   0  0  0  0  0  0  0  0  0  0  0  0
    2.5755   -1.3174    0.3495 H   0  0  0  0  0  0  0  0  0  0  0  0
    1.1271    1.5415   -1.2766 H   0  0  0  0  0  0  0  0  0  0  0  0
    2.4247    0.3188   -1.1731 H   0  0  0  0  0  0  0  0  0  0  0  0
    1.8019    1.9684    1.0895 H   0  0  0  0  0  0  0  0  0  0  0  0
   -0.1546   -1.7666   -0.9548 H   0  0  0  0  0  0  0  0  0  0  0  0
   -0.1630   -0.1904   -1.8928 H   0  0  0  0  0  0  0  0  0  0  0  0
   -2.4875    1.0018   -1.3424 H   0  0  0  0  0  0  0  0  0  0  0  0
   -2.4903    1.6868    0.3921 H   0  0  0  0  0  0  0  0  0  0  0  0
   -2.9059   -1.2672   -0.3610 H   0  0  0  0  0  0  0  0  0  0  0  0
   -2.8614   -0.5851    1.3706 H   0  0  0  0  0  0  0  0  0  0  0  0
  1  2  1  0
  2  3  1  0
  3  4  1  0
  2  5  1  0
  5  6  1  0
  6  7  1  0
  7  8  1  0
  6  9  1  0
  9  2  1  0
  8  6  1  0
  1 10  1  0
  1 11  1  0
  1 12  1  0
  3 13  1  0
  3 14  1  0
  4 15  1  0
  5 16  1  0
  5 17  1  0
  7 18  1  0
  7 19  1  0
  8 20  1  0
  8 21  1  0
M  END
