
     RDKit          3D

 23 24  0  0  0  0  0  0  0  0999 V2000
   -0.8696   -0.6118   -1.5219 C   0  0  0  0  0  0  0  0  0  0  0  0
   -0.6683   -0.1718   -0.1192 C   0  0  0  0  0  0  0  0  0  0  0  0
   -1.4806   -0.9572    0.8848 C   0  0  0  0  0  0  0  0  0  0  0  0
   -1.0643    1.2979    0.0943 C   0  0  0  0  0  0  0  0  0  0  0  0
   -0.5403    1.5459    1.3382 O   0  0  0  0  0  0  0  0  0  0  0  0
    0.6867    0.9001    1.4275 C   0  0  0  0  0  0  0  0  0  0  0  0
    0.7642   -0.0408    0.2979 C   0  0  0  0  0  0  0  0  0  0  0  0
    1.8474   -0.8874   -0.0895 C   0  0  0  0  0  0  0  0  0  0  0  0
    1.6830    0.4091   -0.8414 C   0  0  0  0  0  0  0  0  0  0  0  0
   -1.9113   -1.0340   -1.6052 H   0  0  0  0  0  0  0  0  0  0  0  0
   -0.6990    0.1771   -2.2550 H   0  0  0  0  0  0  0  0  0  0  0  0
   -0.2038   -1.5016   -1.7010 H   0  0  0  0  0  0  0  0  0  0  0  0
   -1.3228   -0.4397    1.8754 H   0  0  0  0  0  0  0  0  0  0  0  0
   -2.5548   -0.7629    0.6432 H   0  0  0  0  0  0  0  0  0  0  0  0
   -1.2286   -2.0178    0.9220 H   0  0  0  0  0  0  0  0  0  0  0  0
   -0.5268    1.8825   -0.6793 H   0  0  0  0  0  0  0  0  0  0  0  0
   -2.1453    1.4281    0.0782 H   0  0  0  0  0  0  0  0  0  0  0  0
    0.6803    0.3014    2.3851 H   0  0  0  0  0  0  0  0  0  0  0  0
    1.4878    1.6446    1.5015 H   0  0  0  0  0  0  0  0  0  0  0  0
    2.7270   -0.9883    0.5573 H   0  0  0  0  0  0  0  0  0  0  0  0
    1.6393   -1.7947   -0.6910 H   0  0  0  0  0  0  0  0  0  0  0  0
    1.3048    0.3881   -1.8634 H   0  0  0  0  0  0  0  0  0  0  0  0
    2.3950    1.2331   -0.6386 H   0  0  0  0  0  0  0  0  0  0  0  0
  1  2  1  0
  2  3  1  0
  2  4  1  0
  4  5  1  0
  5  6  1  0
  6  7  1  0
  7  8  1  0
  8  9  1  0
  7  2  1  0
  9  7  1  0
  1 10  1  0
  1 11  1  0
  1 12  1  0
  3 13  1  0
  3 14  1  0
  3 15  1  0
  4 16  1  0
  4 17  1  0
  6 18  1  0
  6 19  1  0
  8 20  1  0
  8 21  1  0
  9 22  1  0
  9 23  1  0
M  END
