
     RDKit          3D

 21 22  0  0  0  0  0  0  0  0999 V2000
    1.6948    1.1018    0.3696 C   0  0  0  0  0  0  0  0  0  0  0  0
    1.2178   -0.1544   -0.3026 C   0  0  0  0  0  0  0  0  0  0  0  0
   -0.0274   -0.8170    0.1502 C   0  0  0  0  0  0  0  0  0  0  0  0
   -1.2442    0.0401    0.0083 C   0  0  0  0  0  0  0  0  0  0  0  0
   -2.4955   -0.7194    0.5093 C   0  0  0  0  0  0  0  0  0  0  0  0
   -1.3457    1.4242   -0.0962 C   0  0  0  0  0  0  0  0  0  0  0  0
   -1.3675    0.6280   -1.2572 O   0  0  0  0  0  0  0  0  0  0  0  0
    2.3468   -1.0560   -0.8234 C   0  0  0  0  0  0  0  0  0  0  0  0
    1.5139   -0.3494   -1.6523 O   0  0  0  0  0  0  0  0  0  0  0  0
    2.7312    0.8858    0.7830 H   0  0  0  0  0  0  0  0  0  0  0  0
    1.0935    1.3106    1.2666 H   0  0  0  0  0  0  0  0  0  0  0  0
    1.7189    1.9932   -0.2615 H   0  0  0  0  0  0  0  0  0  0  0  0
   -0.1907   -1.7231   -0.4963 H   0  0  0  0  0  0  0  0  0  0  0  0
    0.0512   -1.1901    1.2219 H   0  0  0  0  0  0  0  0  0  0  0  0
   -2.3905   -1.8056    0.3228 H   0  0  0  0  0  0  0  0  0  0  0  0
   -2.4718   -0.5891    1.6167 H   0  0  0  0  0  0  0  0  0  0  0  0
   -3.4041   -0.3107    0.0665 H   0  0  0  0  0  0  0  0  0  0  0  0
   -2.3800    1.8922    0.0335 H   0  0  0  0  0  0  0  0  0  0  0  0
   -0.6047    2.2433   -0.0532 H   0  0  0  0  0  0  0  0  0  0  0  0
    2.1746   -2.1410   -0.6458 H   0  0  0  0  0  0  0  0  0  0  0  0
    3.3793   -0.6633   -0.7600 H   0  0  0  0  0  0  0  0  0  0  0  0
  1  2  1  0
  2  3  1  0
  3  4  1  0
  4  5  1  0
  4  6  1  0
  6  7  1  0
  2  8  1  0
  8  9  1  0
  9  2  1  0
  7  4  1  0
  1 10  1  0
  1 11  1  0
  1 12  1  0
  3 13  1  0
  3 14  1  0
  5 15  1  0
  5 16  1  0
  5 17  1  0
  6 18  1  0
  6 19  1  0
  8 20  1  0
  8 21  1  0
M  END
