
     RDKit          3D

 19 19  0  0  0  0  0  0  0  0999 V2000
   -0.8410   -1.3535    0.8778 C   0  0  0  0  0  0  0  0  0  0  0  0
   -0.8114   -0.2380   -0.1356 C   0  0  0  0  0  0  0  0  0  0  0  0
   -1.5544   -0.5774   -1.2697 O   0  0  0  0  0  0  0  0  0  0  0  0
   -1.2480    1.1111    0.3976 C   0  0  0  0  0  0  0  0  0  0  0  0
    0.0213    1.6925   -0.2370 C   0  0  0  0  0  0  0  0  0  0  0  0
    0.5278    0.3003   -0.4886 C   0  0  0  0  0  0  0  0  0  0  0  0
    1.6115   -0.1216    0.2994 O   0  0  0  0  0  0  0  0  0  0  0  0
    2.8091   -0.5760   -0.1511 C   0  0  0  0  0  0  0  0  0  0  0  0
    3.0061   -0.6404   -1.3884 O   0  0  0  0  0  0  0  0  0  0  0  0
   -1.7968   -1.9147    0.8170 H   0  0  0  0  0  0  0  0  0  0  0  0
   -0.0319   -2.1027    0.6376 H   0  0  0  0  0  0  0  0  0  0  0  0
   -0.7612   -0.9903    1.9261 H   0  0  0  0  0  0  0  0  0  0  0  0
   -2.2758   -1.1911   -0.9717 H   0  0  0  0  0  0  0  0  0  0  0  0
   -1.2528    1.2064    1.4989 H   0  0  0  0  0  0  0  0  0  0  0  0
   -2.1853    1.5038   -0.0436 H   0  0  0  0  0  0  0  0  0  0  0  0
   -0.2260    2.2743   -1.1542 H   0  0  0  0  0  0  0  0  0  0  0  0
    0.5779    2.3081    0.4622 H   0  0  0  0  0  0  0  0  0  0  0  0
    0.8119    0.2011   -1.5627 H   0  0  0  0  0  0  0  0  0  0  0  0
    3.6188   -0.8916    0.4860 H   0  0  0  0  0  0  0  0  0  0  0  0
  1  2  1  0
  2  3  1  0
  2  4  1  0
  4  5  1  0
  5  6  1  0
  6  7  1  0
  7  8  1  0
  8  9  2  0
  6  2  1  0
  1 10  1  0
  1 11  1  0
  1 12  1  0
  3 13  1  0
  4 14  1  0
  4 15  1  0
  5 16  1  0
  5 17  1  0
  6 18  1  0
  8 19  1  0
M  END
