
     RDKit          3D

 21 22  0  0  0  0  0  0  0  0999 V2000
   -2.4379    0.5203    0.8411 C   0  0  0  0  0  0  0  0  0  0  0  0
   -1.1468    0.1001    0.1344 C   0  0  0  0  0  0  0  0  0  0  0  0
   -1.4194   -0.4320   -1.2674 C   0  0  0  0  0  0  0  0  0  0  0  0
   -0.2534   -0.7053    1.0086 C   0  0  0  0  0  0  0  0  0  0  0  0
    0.8553   -1.2549    0.3694 O   0  0  0  0  0  0  0  0  0  0  0  0
    1.4430    0.0088    0.4421 C   0  0  0  0  0  0  0  0  0  0  0  0
    2.3660    0.3369   -0.6844 C   0  0  0  0  0  0  0  0  0  0  0  0
    3.3965   -0.6331   -0.6640 O   0  0  0  0  0  0  0  0  0  0  0  0
    0.1325    0.7109    0.4892 C   0  0  0  0  0  0  0  0  0  0  0  0
   -2.9164    1.3764    0.3756 H   0  0  0  0  0  0  0  0  0  0  0  0
   -3.1171   -0.3762    0.7385 H   0  0  0  0  0  0  0  0  0  0  0  0
   -2.2661    0.6192    1.9320 H   0  0  0  0  0  0  0  0  0  0  0  0
   -0.5805   -0.1951   -1.9636 H   0  0  0  0  0  0  0  0  0  0  0  0
   -2.3086    0.1051   -1.6896 H   0  0  0  0  0  0  0  0  0  0  0  0
   -1.6213   -1.5136   -1.2653 H   0  0  0  0  0  0  0  0  0  0  0  0
   -0.3723   -0.7687    2.0890 H   0  0  0  0  0  0  0  0  0  0  0  0
    2.0081    0.0728    1.4150 H   0  0  0  0  0  0  0  0  0  0  0  0
    2.8901    1.2974   -0.4073 H   0  0  0  0  0  0  0  0  0  0  0  0
    1.8940    0.3859   -1.6647 H   0  0  0  0  0  0  0  0  0  0  0  0
    3.3690   -1.1856   -1.4822 H   0  0  0  0  0  0  0  0  0  0  0  0
    0.0854    1.5305    1.2538 H   0  0  0  0  0  0  0  0  0  0  0  0
  1  2  1  0
  2  3  1  0
  2  4  1  0
  4  5  1  0
  5  6  1  0
  6  7  1  0
  7  8  1  0
  6  9  1  0
  9  2  1  0
  9  4  1  0
  1 10  1  0
  1 11  1  0
  1 12  1  0
  3 13  1  0
  3 14  1  0
  3 15  1  0
  4 16  1  0
  6 17  1  0
  7 18  1  0
  7 19  1  0
  8 20  1  0
  9 21  1  0
M  END
