
     RDKit          3D

 19 20  0  0  0  0  0  0  0  0999 V2000
   -1.7715   -0.0878   -0.6139 C   0  0  0  0  0  0  0  0  0  0  0  0
   -0.7072    0.2878    0.4253 C   0  0  0  0  0  0  0  0  0  0  0  0
   -1.0234   -0.3546    1.7033 C   0  0  0  0  0  0  0  0  0  0  0  0
   -1.1523    0.2467    2.7517 O   0  0  0  0  0  0  0  0  0  0  0  0
   -0.5496    1.6558    0.4295 O   0  0  0  0  0  0  0  0  0  0  0  0
    0.4083    1.5032   -0.5941 C   0  0  0  0  0  0  0  0  0  0  0  0
    0.6522    0.1473   -0.1132 C   0  0  0  0  0  0  0  0  0  0  0  0
    1.8125   -0.4000    0.5062 C   0  0  0  0  0  0  0  0  0  0  0  0
    1.2146   -0.9757   -0.8077 C   0  0  0  0  0  0  0  0  0  0  0  0
   -1.3926   -0.9896   -1.1408 H   0  0  0  0  0  0  0  0  0  0  0  0
   -2.7375   -0.2851   -0.0961 H   0  0  0  0  0  0  0  0  0  0  0  0
   -1.9622    0.7508   -1.3146 H   0  0  0  0  0  0  0  0  0  0  0  0
   -1.1501   -1.4283    1.7166 H   0  0  0  0  0  0  0  0  0  0  0  0
   -0.0594    1.4967   -1.6230 H   0  0  0  0  0  0  0  0  0  0  0  0
    1.2250    2.2419   -0.5733 H   0  0  0  0  0  0  0  0  0  0  0  0
    1.8277   -1.0833    1.3791 H   0  0  0  0  0  0  0  0  0  0  0  0
    2.8143    0.0950    0.3542 H   0  0  0  0  0  0  0  0  0  0  0  0
    0.7391   -1.9773   -0.6700 H   0  0  0  0  0  0  0  0  0  0  0  0
    1.8120   -0.8434   -1.7190 H   0  0  0  0  0  0  0  0  0  0  0  0
  1  2  1  0
  2  3  1  0
  3  4  2  0
  2  5  1  0
  5  6  1  0
  6  7  1  0
  7  8  1  0
  8  9  1  0
  7  2  1  0
  9  7  1  0
  1 10  1  0
  1 11  1  0
  1 12  1  0
  3 13  1  0
  6 14  1  0
  6 15  1  0
  8 16  1  0
  8 17  1  0
  9 18  1  0
  9 19  1  0
M  END
