
     RDKit          3D

 21 22  0  0  0  0  0  0  0  0999 V2000
   -1.7983   -1.0664    0.6675 C   0  0  0  0  0  0  0  0  0  0  0  0
   -0.8887   -0.0606    0.0388 C   0  0  0  0  0  0  0  0  0  0  0  0
   -1.7245    0.9909   -0.6468 C   0  0  0  0  0  0  0  0  0  0  0  0
    0.0580    0.5650    1.0766 C   0  0  0  0  0  0  0  0  0  0  0  0
    1.2453    0.6561    0.1906 C   0  0  0  0  0  0  0  0  0  0  0  0
    2.3165   -0.1914   -0.1100 C   0  0  0  0  0  0  0  0  0  0  0  0
    3.1891   -0.5417    0.9485 O   0  0  0  0  0  0  0  0  0  0  0  0
    1.0879   -0.8556   -0.2582 C   0  0  0  0  0  0  0  0  0  0  0  0
   -0.0608   -0.6341   -0.9469 O   0  0  0  0  0  0  0  0  0  0  0  0
   -1.2598   -1.9013    1.1576 H   0  0  0  0  0  0  0  0  0  0  0  0
   -2.4811   -1.4372   -0.1132 H   0  0  0  0  0  0  0  0  0  0  0  0
   -2.4261   -0.5246    1.4043 H   0  0  0  0  0  0  0  0  0  0  0  0
   -2.6868    1.0684   -0.1237 H   0  0  0  0  0  0  0  0  0  0  0  0
   -1.8970    0.6841   -1.7143 H   0  0  0  0  0  0  0  0  0  0  0  0
   -1.1886    1.9618   -0.7099 H   0  0  0  0  0  0  0  0  0  0  0  0
   -0.3146    1.5108    1.4598 H   0  0  0  0  0  0  0  0  0  0  0  0
    0.2136   -0.2198    1.8390 H   0  0  0  0  0  0  0  0  0  0  0  0
    0.9927    1.4138   -0.6212 H   0  0  0  0  0  0  0  0  0  0  0  0
    2.9355   -0.0161   -1.0305 H   0  0  0  0  0  0  0  0  0  0  0  0
    3.8318    0.1900    1.1157 H   0  0  0  0  0  0  0  0  0  0  0  0
    0.8557   -1.5923    0.5725 H   0  0  0  0  0  0  0  0  0  0  0  0
  1  2  1  0
  2  3  1  0
  2  4  1  0
  4  5  1  0
  5  6  1  0
  6  7  1  0
  6  8  1  0
  8  9  1  0
  9  2  1  0
  8  5  1  0
  1 10  1  0
  1 11  1  0
  1 12  1  0
  3 13  1  0
  3 14  1  0
  3 15  1  0
  4 16  1  0
  4 17  1  0
  5 18  1  0
  6 19  1  0
  7 20  1  0
  8 21  1  0
M  END
