
     RDKit          3D

 23 24  0  0  0  0  0  0  0  0999 V2000
   -1.9668    0.3806   -1.5707 C   0  0  0  0  0  0  0  0  0  0  0  0
   -1.2019   -0.0136   -0.3005 C   0  0  0  0  0  0  0  0  0  0  0  0
    0.2081    0.4605   -0.2968 C   0  0  0  0  0  0  0  0  0  0  0  0
    0.9906    0.1001    0.9183 C   0  0  0  0  0  0  0  0  0  0  0  0
    2.4147    0.6442    0.7947 C   0  0  0  0  0  0  0  0  0  0  0  0
    2.7158   -0.7517    0.2810 C   0  0  0  0  0  0  0  0  0  0  0  0
    1.5528   -1.1779    0.9182 O   0  0  0  0  0  0  0  0  0  0  0  0
   -1.9816    0.1971    1.0095 C   0  0  0  0  0  0  0  0  0  0  0  0
   -1.6686   -1.1727    0.4766 C   0  0  0  0  0  0  0  0  0  0  0  0
   -1.4048   -0.0709   -2.4166 H   0  0  0  0  0  0  0  0  0  0  0  0
   -1.8765    1.4793   -1.6384 H   0  0  0  0  0  0  0  0  0  0  0  0
   -3.0169    0.0641   -1.5155 H   0  0  0  0  0  0  0  0  0  0  0  0
    0.7310    0.0501   -1.1795 H   0  0  0  0  0  0  0  0  0  0  0  0
    0.2089    1.5731   -0.4019 H   0  0  0  0  0  0  0  0  0  0  0  0
    0.5917    0.3913    1.8966 H   0  0  0  0  0  0  0  0  0  0  0  0
    2.5552    1.3734   -0.0124 H   0  0  0  0  0  0  0  0  0  0  0  0
    2.8949    0.8948    1.7427 H   0  0  0  0  0  0  0  0  0  0  0  0
    3.6592   -1.1097    0.7158 H   0  0  0  0  0  0  0  0  0  0  0  0
    2.6253   -0.8692   -0.8144 H   0  0  0  0  0  0  0  0  0  0  0  0
   -3.0042    0.6104    0.9043 H   0  0  0  0  0  0  0  0  0  0  0  0
   -1.4436    0.4971    1.9055 H   0  0  0  0  0  0  0  0  0  0  0  0
   -2.5822   -1.6953    0.0729 H   0  0  0  0  0  0  0  0  0  0  0  0
   -1.0011   -1.8553    1.0076 H   0  0  0  0  0  0  0  0  0  0  0  0
  1  2  1  0
  2  3  1  0
  3  4  1  0
  4  5  1  0
  5  6  1  0
  6  7  1  0
  2  8  1  0
  8  9  1  0
  9  2  1  0
  7  4  1  0
  1 10  1  0
  1 11  1  0
  1 12  1  0
  3 13  1  0
  3 14  1  0
  4 15  1  0
  5 16  1  0
  5 17  1  0
  6 18  1  0
  6 19  1  0
  8 20  1  0
  8 21  1  0
  9 22  1  0
  9 23  1  0
M  END
