
     RDKit          3D

 21 21  0  0  0  0  0  0  0  0999 V2000
   -0.5392   -1.1554    1.1162 C   0  0  0  0  0  0  0  0  0  0  0  0
   -0.3589   -0.1830   -0.0127 C   0  0  0  0  0  0  0  0  0  0  0  0
   -1.3873   -0.4653   -1.0611 C   0  0  0  0  0  0  0  0  0  0  0  0
   -0.6014    1.2212    0.5205 C   0  0  0  0  0  0  0  0  0  0  0  0
    0.5748    2.0130   -0.0212 C   0  0  0  0  0  0  0  0  0  0  0  0
    1.5928    1.0600    0.0316 O   0  0  0  0  0  0  0  0  0  0  0  0
    1.0410   -0.0985   -0.5288 C   0  0  0  0  0  0  0  0  0  0  0  0
    1.9036   -1.2235   -0.1739 C   0  0  0  0  0  0  0  0  0  0  0  0
    2.9037   -1.0986    0.4912 O   0  0  0  0  0  0  0  0  0  0  0  0
    0.2906   -1.8793    1.1695 H   0  0  0  0  0  0  0  0  0  0  0  0
   -0.5930   -0.6412    2.0971 H   0  0  0  0  0  0  0  0  0  0  0  0
   -1.4779   -1.7452    1.0312 H   0  0  0  0  0  0  0  0  0  0  0  0
   -1.9130   -1.4405   -0.8598 H   0  0  0  0  0  0  0  0  0  0  0  0
   -0.9920   -0.5268   -2.0862 H   0  0  0  0  0  0  0  0  0  0  0  0
   -2.2173    0.2976   -1.0308 H   0  0  0  0  0  0  0  0  0  0  0  0
   -0.5232    1.2190    1.6288 H   0  0  0  0  0  0  0  0  0  0  0  0
   -1.5727    1.6289    0.2081 H   0  0  0  0  0  0  0  0  0  0  0  0
    0.4412    2.3148   -1.0639 H   0  0  0  0  0  0  0  0  0  0  0  0
    0.7958    2.8180    0.6759 H   0  0  0  0  0  0  0  0  0  0  0  0
    0.9814    0.0962   -1.6199 H   0  0  0  0  0  0  0  0  0  0  0  0
    1.6509   -2.2114   -0.5118 H   0  0  0  0  0  0  0  0  0  0  0  0
  1  2  1  0
  2  3  1  0
  2  4  1  0
  4  5  1  0
  5  6  1  0
  6  7  1  0
  7  8  1  0
  8  9  2  0
  7  2  1  0
  1 10  1  0
  1 11  1  0
  1 12  1  0
  3 13  1  0
  3 14  1  0
  3 15  1  0
  4 16  1  0
  4 17  1  0
  5 18  1  0
  5 19  1  0
  7 20  1  0
  8 21  1  0
M  END
