
     RDKit          3D

 21 23  0  0  0  0  0  0  0  0999 V2000
   -1.0311    1.4651    0.4456 C   0  0  0  0  0  0  0  0  0  0  0  0
   -0.6719    0.0179    0.1765 C   0  0  0  0  0  0  0  0  0  0  0  0
   -1.5443   -0.6006   -0.9075 C   0  0  0  0  0  0  0  0  0  0  0  0
   -0.6294   -0.8776    1.3703 C   0  0  0  0  0  0  0  0  0  0  0  0
    0.4482   -1.0064    2.1867 O   0  0  0  0  0  0  0  0  0  0  0  0
    0.7456   -1.3448    0.8842 C   0  0  0  0  0  0  0  0  0  0  0  0
    0.7670   -0.1617   -0.0276 C   0  0  0  0  0  0  0  0  0  0  0  0
    1.5482   -0.0103   -1.2094 C   0  0  0  0  0  0  0  0  0  0  0  0
    1.7807    0.8846    0.0192 C   0  0  0  0  0  0  0  0  0  0  0  0
   -0.9943    1.9914   -0.5312 H   0  0  0  0  0  0  0  0  0  0  0  0
   -0.2369    1.9090    1.0719 H   0  0  0  0  0  0  0  0  0  0  0  0
   -1.9796    1.5834    0.9735 H   0  0  0  0  0  0  0  0  0  0  0  0
   -2.4077    0.0496   -1.1555 H   0  0  0  0  0  0  0  0  0  0  0  0
   -0.9156   -0.8211   -1.7974 H   0  0  0  0  0  0  0  0  0  0  0  0
   -1.9734   -1.5742   -0.5915 H   0  0  0  0  0  0  0  0  0  0  0  0
   -1.4269   -1.6190    1.5019 H   0  0  0  0  0  0  0  0  0  0  0  0
    0.7330   -2.3685    0.5240 H   0  0  0  0  0  0  0  0  0  0  0  0
    1.1611    0.5559   -2.0942 H   0  0  0  0  0  0  0  0  0  0  0  0
    2.3965   -0.7147   -1.4058 H   0  0  0  0  0  0  0  0  0  0  0  0
    2.6861    0.6854    0.6323 H   0  0  0  0  0  0  0  0  0  0  0  0
    1.5446    1.9566   -0.0660 H   0  0  0  0  0  0  0  0  0  0  0  0
  1  2  1  0
  2  3  1  0
  2  4  1  0
  4  5  1  0
  5  6  1  0
  6  7  1  0
  7  8  1  0
  8  9  1  0
  7  2  1  0
  6  4  1  0
  9  7  1  0
  1 10  1  0
  1 11  1  0
  1 12  1  0
  3 13  1  0
  3 14  1  0
  3 15  1  0
  4 16  1  0
  6 17  1  0
  8 18  1  0
  8 19  1  0
  9 20  1  0
  9 21  1  0
M  END
