
     RDKit          3D

 17 18  0  0  0  0  0  0  0  0999 V2000
   -1.3765    0.7720    0.5715 C   0  0  0  0  0  0  0  0  0  0  0  0
   -0.6339   -0.0008   -0.4769 C   0  0  0  0  0  0  0  0  0  0  0  0
   -1.2476   -0.1047   -1.7038 O   0  0  0  0  0  0  0  0  0  0  0  0
    0.8591    0.2477   -0.5283 C   0  0  0  0  0  0  0  0  0  0  0  0
    1.3839    1.2327    0.4211 C   0  0  0  0  0  0  0  0  0  0  0  0
    2.5571    1.1784    0.7425 O   0  0  0  0  0  0  0  0  0  0  0  0
    1.0124   -1.1681    0.0443 C   0  0  0  0  0  0  0  0  0  0  0  0
    0.4000   -1.2578    1.3364 O   0  0  0  0  0  0  0  0  0  0  0  0
   -0.3047   -1.3888    0.0825 C   0  0  0  0  0  0  0  0  0  0  0  0
   -0.9733    0.5517    1.5752 H   0  0  0  0  0  0  0  0  0  0  0  0
   -2.4287    0.4445    0.5495 H   0  0  0  0  0  0  0  0  0  0  0  0
   -1.3589    1.8586    0.4327 H   0  0  0  0  0  0  0  0  0  0  0  0
   -0.7926   -0.7814   -2.2495 H   0  0  0  0  0  0  0  0  0  0  0  0
    1.2268    0.3025   -1.5717 H   0  0  0  0  0  0  0  0  0  0  0  0
    0.7561    2.0016    0.8397 H   0  0  0  0  0  0  0  0  0  0  0  0
    1.9440   -1.6992   -0.0715 H   0  0  0  0  0  0  0  0  0  0  0  0
   -1.0232   -2.1888    0.0065 H   0  0  0  0  0  0  0  0  0  0  0  0
  1  2  1  0
  2  3  1  0
  2  4  1  0
  4  5  1  0
  5  6  2  0
  4  7  1  0
  7  8  1  0
  8  9  1  0
  9  2  1  0
  9  7  1  0
  1 10  1  0
  1 11  1  0
  1 12  1  0
  3 13  1  0
  4 14  1  0
  5 15  1  0
  7 16  1  0
  9 17  1  0
M  END
