
     RDKit          3D

 18 19  0  0  0  0  0  0  0  0999 V2000
    1.7524   -0.5185   -0.7489 C   0  0  0  0  0  0  0  0  0  0  0  0
    0.6974    0.1473    0.0399 C   0  0  0  0  0  0  0  0  0  0  0  0
    1.1563    1.1686    0.8321 O   0  0  0  0  0  0  0  0  0  0  0  0
   -0.5635    0.5475   -0.6873 C   0  0  0  0  0  0  0  0  0  0  0  0
   -1.3344    1.1500    0.4545 C   0  0  0  0  0  0  0  0  0  0  0  0
   -1.1343    0.2609    1.4299 C   0  0  0  0  0  0  0  0  0  0  0  0
   -0.2588   -0.7458    0.7960 C   0  0  0  0  0  0  0  0  0  0  0  0
   -0.9803   -0.9122   -0.5480 C   0  0  0  0  0  0  0  0  0  0  0  0
    2.4856    0.2220   -1.0867 H   0  0  0  0  0  0  0  0  0  0  0  0
    1.4043   -1.0650   -1.6472 H   0  0  0  0  0  0  0  0  0  0  0  0
    2.2232   -1.3109   -0.0949 H   0  0  0  0  0  0  0  0  0  0  0  0
    0.9623    2.0243    0.3533 H   0  0  0  0  0  0  0  0  0  0  0  0
   -0.5429    1.0090   -1.6198 H   0  0  0  0  0  0  0  0  0  0  0  0
   -1.8884    2.0702    0.4292 H   0  0  0  0  0  0  0  0  0  0  0  0
   -1.4838    0.2124    2.4483 H   0  0  0  0  0  0  0  0  0  0  0  0
    0.0768   -1.5939    1.3021 H   0  0  0  0  0  0  0  0  0  0  0  0
   -0.5192   -1.6090   -1.2397 H   0  0  0  0  0  0  0  0  0  0  0  0
   -2.0527   -1.0569   -0.4128 H   0  0  0  0  0  0  0  0  0  0  0  0
  1  2  1  0
  2  3  1  0
  2  4  1  0
  4  5  1  0
  5  6  2  0
  6  7  1  0
  7  8  1  0
  7  2  1  0
  8  4  1  0
  1  9  1  0
  1 10  1  0
  1 11  1  0
  3 12  1  0
  4 13  1  0
  5 14  1  0
  6 15  1  0
  7 16  1  0
  8 17  1  0
  8 18  1  0
M  END
