
     RDKit          3D

 19 20  0  0  0  0  0  0  0  0999 V2000
    1.3844   -0.9924   -0.8289 C   0  0  0  0  0  0  0  0  0  0  0  0
    0.4084   -0.3055    0.0784 C   0  0  0  0  0  0  0  0  0  0  0  0
   -0.6963   -1.1612    0.6366 C   0  0  0  0  0  0  0  0  0  0  0  0
   -1.7061   -0.1299    0.1871 C   0  0  0  0  0  0  0  0  0  0  0  0
   -0.6343    0.4920   -0.6764 C   0  0  0  0  0  0  0  0  0  0  0  0
   -0.3209    1.9032   -0.3942 C   0  0  0  0  0  0  0  0  0  0  0  0
   -1.0048    2.8793   -0.7518 O   0  0  0  0  0  0  0  0  0  0  0  0
    0.8438    1.9333    0.3226 O   0  0  0  0  0  0  0  0  0  0  0  0
    1.0107    0.6968    0.9946 C   0  0  0  0  0  0  0  0  0  0  0  0
    0.8404   -1.8040   -1.3679 H   0  0  0  0  0  0  0  0  0  0  0  0
    1.7761   -0.2404   -1.5496 H   0  0  0  0  0  0  0  0  0  0  0  0
    2.2524   -1.3801   -0.2635 H   0  0  0  0  0  0  0  0  0  0  0  0
   -0.6469   -1.3639    1.7040 H   0  0  0  0  0  0  0  0  0  0  0  0
   -0.8215   -2.0926    0.0527 H   0  0  0  0  0  0  0  0  0  0  0  0
   -2.5288   -0.5389   -0.4540 H   0  0  0  0  0  0  0  0  0  0  0  0
   -2.0876    0.5363    0.9827 H   0  0  0  0  0  0  0  0  0  0  0  0
   -0.6860    0.2199   -1.7564 H   0  0  0  0  0  0  0  0  0  0  0  0
    0.5039    0.7895    1.9742 H   0  0  0  0  0  0  0  0  0  0  0  0
    2.1131    0.5586    1.1098 H   0  0  0  0  0  0  0  0  0  0  0  0
  1  2  1  0
  2  3  1  0
  3  4  1  0
  4  5  1  0
  5  6  1  0
  6  7  2  0
  6  8  1  0
  8  9  1  0
  5  2  1  0
  9  2  1  0
  1 10  1  0
  1 11  1  0
  1 12  1  0
  3 13  1  0
  3 14  1  0
  4 15  1  0
  4 16  1  0
  5 17  1  0
  9 18  1  0
  9 19  1  0
M  END
