
     RDKit          3D

 21 23  0  0  0  0  0  0  0  0999 V2000
    1.8108    0.6760    0.7388 C   0  0  0  0  0  0  0  0  0  0  0  0
    0.6553   -0.0443    0.2128 C   0  0  0  0  0  0  0  0  0  0  0  0
    0.7936   -1.4962   -0.1521 C   0  0  0  0  0  0  0  0  0  0  0  0
   -0.1346   -1.7677   -1.1577 O   0  0  0  0  0  0  0  0  0  0  0  0
   -1.0020   -0.6953   -1.1627 C   0  0  0  0  0  0  0  0  0  0  0  0
   -1.6153   -0.6479    0.2475 C   0  0  0  0  0  0  0  0  0  0  0  0
   -0.6519    0.3282    0.8737 C   0  0  0  0  0  0  0  0  0  0  0  0
   -0.7285    1.4561   -0.1421 C   0  0  0  0  0  0  0  0  0  0  0  0
   -0.0311    0.4725   -1.0313 C   0  0  0  0  0  0  0  0  0  0  0  0
    2.7932    0.2378    0.5087 H   0  0  0  0  0  0  0  0  0  0  0  0
    1.7779    1.7455    0.4581 H   0  0  0  0  0  0  0  0  0  0  0  0
    1.7437    0.6744    1.8680 H   0  0  0  0  0  0  0  0  0  0  0  0
    1.7975   -1.6178   -0.6187 H   0  0  0  0  0  0  0  0  0  0  0  0
    0.6838   -2.1685    0.7137 H   0  0  0  0  0  0  0  0  0  0  0  0
   -1.7014   -0.6268   -1.9552 H   0  0  0  0  0  0  0  0  0  0  0  0
   -1.5011   -1.6085    0.7683 H   0  0  0  0  0  0  0  0  0  0  0  0
   -2.6541   -0.2792    0.2216 H   0  0  0  0  0  0  0  0  0  0  0  0
   -0.6895    0.5463    1.9014 H   0  0  0  0  0  0  0  0  0  0  0  0
   -1.7217    1.6919   -0.5180 H   0  0  0  0  0  0  0  0  0  0  0  0
   -0.1574    2.3458    0.0889 H   0  0  0  0  0  0  0  0  0  0  0  0
    0.5328    0.7777   -1.8636 H   0  0  0  0  0  0  0  0  0  0  0  0
  1  2  1  0
  2  3  1  0
  3  4  1  0
  4  5  1  0
  5  6  1  0
  6  7  1  0
  7  8  1  0
  8  9  1  0
  7  2  1  0
  9  2  1  0
  9  5  1  0
  1 10  1  0
  1 11  1  0
  1 12  1  0
  3 13  1  0
  3 14  1  0
  5 15  1  0
  6 16  1  0
  6 17  1  0
  7 18  1  0
  8 19  1  0
  8 20  1  0
  9 21  1  0
M  END
