
     RDKit          3D

 19 21  0  0  0  0  0  0  0  0999 V2000
   -2.1953    0.2329   -0.1062 C   0  0  0  0  0  0  0  0  0  0  0  0
   -0.7341   -0.0610   -0.1991 C   0  0  0  0  0  0  0  0  0  0  0  0
   -0.2209   -1.4292    0.2159 C   0  0  0  0  0  0  0  0  0  0  0  0
    1.0579   -0.7339    0.6610 C   0  0  0  0  0  0  0  0  0  0  0  0
    1.9405   -0.5680   -0.5205 C   0  0  0  0  0  0  0  0  0  0  0  0
    1.4772    0.3850   -1.3060 C   0  0  0  0  0  0  0  0  0  0  0  0
    0.2150    0.9566   -0.7100 C   0  0  0  0  0  0  0  0  0  0  0  0
    0.2692    0.5428    0.6749 C   0  0  0  0  0  0  0  0  0  0  0  0
    0.0432    1.2715    1.7779 O   0  0  0  0  0  0  0  0  0  0  0  0
   -2.6957   -0.3247   -0.9451 H   0  0  0  0  0  0  0  0  0  0  0  0
   -2.3327    1.3291   -0.2402 H   0  0  0  0  0  0  0  0  0  0  0  0
   -2.6688   -0.1352    0.8228 H   0  0  0  0  0  0  0  0  0  0  0  0
   -0.7269   -1.8390    1.1096 H   0  0  0  0  0  0  0  0  0  0  0  0
   -0.0515   -2.1451   -0.5848 H   0  0  0  0  0  0  0  0  0  0  0  0
    1.5030   -1.0750    1.5804 H   0  0  0  0  0  0  0  0  0  0  0  0
    2.8250   -1.1459   -0.6989 H   0  0  0  0  0  0  0  0  0  0  0  0
    1.9328    0.7008   -2.2266 H   0  0  0  0  0  0  0  0  0  0  0  0
   -0.1586    1.9059   -1.0510 H   0  0  0  0  0  0  0  0  0  0  0  0
    0.5207    2.1324    1.7459 H   0  0  0  0  0  0  0  0  0  0  0  0
  1  2  1  0
  2  3  1  0
  3  4  1  0
  4  5  1  0
  5  6  2  0
  6  7  1  0
  7  8  1  0
  8  9  1  0
  7  2  1  0
  8  2  1  0
  8  4  1  0
  1 10  1  0
  1 11  1  0
  1 12  1  0
  3 13  1  0
  3 14  1  0
  4 15  1  0
  5 16  1  0
  6 17  1  0
  7 18  1  0
  9 19  1  0
M  END
