
     RDKit          3D

 21 22  0  0  0  0  0  0  0  0999 V2000
    2.2989   -0.6567   -0.0241 C   0  0  0  0  0  0  0  0  0  0  0  0
    0.8638   -0.2515   -0.0516 C   0  0  0  0  0  0  0  0  0  0  0  0
    0.8303    1.2471   -0.3760 C   0  0  0  0  0  0  0  0  0  0  0  0
   -0.5948    1.5738    0.0240 C   0  0  0  0  0  0  0  0  0  0  0  0
   -0.9358    0.4547    0.9610 C   0  0  0  0  0  0  0  0  0  0  0  0
   -1.8887   -0.4765    0.2151 C   0  0  0  0  0  0  0  0  0  0  0  0
   -1.0102   -1.5429   -0.4267 C   0  0  0  0  0  0  0  0  0  0  0  0
    0.1131   -0.9499   -0.9833 O   0  0  0  0  0  0  0  0  0  0  0  0
    0.2553   -0.2531    1.1996 O   0  0  0  0  0  0  0  0  0  0  0  0
    2.7551   -0.3056   -0.9968 H   0  0  0  0  0  0  0  0  0  0  0  0
    2.4821   -1.7275    0.0248 H   0  0  0  0  0  0  0  0  0  0  0  0
    2.8084   -0.0580    0.7568 H   0  0  0  0  0  0  0  0  0  0  0  0
    1.5302    1.7604    0.3263 H   0  0  0  0  0  0  0  0  0  0  0  0
    1.0439    1.4260   -1.4289 H   0  0  0  0  0  0  0  0  0  0  0  0
   -0.6040    2.5697    0.4902 H   0  0  0  0  0  0  0  0  0  0  0  0
   -1.1903    1.5471   -0.9246 H   0  0  0  0  0  0  0  0  0  0  0  0
   -1.4008    0.8175    1.8932 H   0  0  0  0  0  0  0  0  0  0  0  0
   -2.3743    0.0724   -0.6386 H   0  0  0  0  0  0  0  0  0  0  0  0
   -2.6603   -0.8967    0.8592 H   0  0  0  0  0  0  0  0  0  0  0  0
   -1.5908   -2.0262   -1.2194 H   0  0  0  0  0  0  0  0  0  0  0  0
   -0.7308   -2.3240    0.3197 H   0  0  0  0  0  0  0  0  0  0  0  0
  1  2  1  0
  2  3  1  0
  3  4  1  0
  4  5  1  0
  5  6  1  0
  6  7  1  0
  7  8  1  0
  5  9  1  0
  8  2  1  0
  9  2  1  0
  1 10  1  0
  1 11  1  0
  1 12  1  0
  3 13  1  0
  3 14  1  0
  4 15  1  0
  4 16  1  0
  5 17  1  0
  6 18  1  0
  6 19  1  0
  7 20  1  0
  7 21  1  0
M  END
