
     RDKit          3D

 19 21  0  0  0  0  0  0  0  0999 V2000
   -2.0278   -0.7505    0.1859 C   0  0  0  0  0  0  0  0  0  0  0  0
   -0.6668   -0.1934    0.0492 C   0  0  0  0  0  0  0  0  0  0  0  0
    0.3832   -1.1758   -0.3771 C   0  0  0  0  0  0  0  0  0  0  0  0
    1.6129   -0.6404    0.3619 C   0  0  0  0  0  0  0  0  0  0  0  0
    1.1037    0.7459    0.7586 C   0  0  0  0  0  0  0  0  0  0  0  0
   -0.1702    0.3689    1.2499 O   0  0  0  0  0  0  0  0  0  0  0  0
    0.7644    1.6012   -0.4000 C   0  0  0  0  0  0  0  0  0  0  0  0
    0.5269    1.1277   -1.6516 O   0  0  0  0  0  0  0  0  0  0  0  0
   -0.5788    1.0201   -0.8531 C   0  0  0  0  0  0  0  0  0  0  0  0
   -2.0777   -1.6984   -0.4179 H   0  0  0  0  0  0  0  0  0  0  0  0
   -2.1962   -0.9897    1.2771 H   0  0  0  0  0  0  0  0  0  0  0  0
   -2.8369   -0.0481   -0.1017 H   0  0  0  0  0  0  0  0  0  0  0  0
    0.6040   -1.0201   -1.4623 H   0  0  0  0  0  0  0  0  0  0  0  0
    0.1437   -2.1991   -0.1118 H   0  0  0  0  0  0  0  0  0  0  0  0
    1.7433   -1.1998    1.3191 H   0  0  0  0  0  0  0  0  0  0  0  0
    2.4989   -0.6045   -0.2634 H   0  0  0  0  0  0  0  0  0  0  0  0
    1.7229    1.2161    1.5152 H   0  0  0  0  0  0  0  0  0  0  0  0
    0.8354    2.6940   -0.2410 H   0  0  0  0  0  0  0  0  0  0  0  0
   -1.3849    1.7459   -0.8371 H   0  0  0  0  0  0  0  0  0  0  0  0
  1  2  1  0
  2  3  1  0
  3  4  1  0
  4  5  1  0
  5  6  1  0
  5  7  1  0
  7  8  1  0
  8  9  1  0
  6  2  1  0
  9  7  1  0
  9  2  1  0
  1 10  1  0
  1 11  1  0
  1 12  1  0
  3 13  1  0
  3 14  1  0
  4 15  1  0
  4 16  1  0
  5 17  1  0
  7 18  1  0
  9 19  1  0
M  END
