
     RDKit          3D

 23 25  0  0  0  0  0  0  0  0999 V2000
    1.8630   -0.5064   -0.6644 C   0  0  0  0  0  0  0  0  0  0  0  0
    0.5204   -0.4891   -0.1397 C   0  0  0  0  0  0  0  0  0  0  0  0
    0.1910   -1.3888    1.0606 C   0  0  0  0  0  0  0  0  0  0  0  0
   -1.2328   -1.2516    0.5283 C   0  0  0  0  0  0  0  0  0  0  0  0
   -0.5618   -1.3002   -0.8517 C   0  0  0  0  0  0  0  0  0  0  0  0
   -1.5084    0.2049    0.7238 C   0  0  0  0  0  0  0  0  0  0  0  0
   -0.2115    0.7754    0.1211 C   0  0  0  0  0  0  0  0  0  0  0  0
    0.3418    2.0340    0.5258 C   0  0  0  0  0  0  0  0  0  0  0  0
   -0.2847    1.8372   -0.8886 C   0  0  0  0  0  0  0  0  0  0  0  0
    2.4399   -1.3764   -0.2310 H   0  0  0  0  0  0  0  0  0  0  0  0
    2.4223    0.3913   -0.3559 H   0  0  0  0  0  0  0  0  0  0  0  0
    1.9791   -0.6110   -1.7615 H   0  0  0  0  0  0  0  0  0  0  0  0
    0.5857   -2.4013    0.9566 H   0  0  0  0  0  0  0  0  0  0  0  0
    0.3790   -0.8786    2.0165 H   0  0  0  0  0  0  0  0  0  0  0  0
   -1.9418   -1.9914    0.7659 H   0  0  0  0  0  0  0  0  0  0  0  0
   -1.1599   -0.7169   -1.5599 H   0  0  0  0  0  0  0  0  0  0  0  0
   -0.2434   -2.3014   -1.1653 H   0  0  0  0  0  0  0  0  0  0  0  0
   -2.3846    0.5664    0.1666 H   0  0  0  0  0  0  0  0  0  0  0  0
   -1.5126    0.4346    1.7887 H   0  0  0  0  0  0  0  0  0  0  0  0
   -0.2889    2.6844    1.2015 H   0  0  0  0  0  0  0  0  0  0  0  0
    1.4218    2.2082    0.5508 H   0  0  0  0  0  0  0  0  0  0  0  0
   -1.2588    2.3155   -1.0582 H   0  0  0  0  0  0  0  0  0  0  0  0
    0.4452    1.7614   -1.7301 H   0  0  0  0  0  0  0  0  0  0  0  0
  1  2  1  0
  2  3  1  0
  3  4  1  0
  4  5  1  0
  4  6  1  0
  6  7  1  0
  7  8  1  0
  8  9  1  0
  5  2  1  0
  9  7  1  0
  7  2  1  0
  1 10  1  0
  1 11  1  0
  1 12  1  0
  3 13  1  0
  3 14  1  0
  4 15  1  0
  5 16  1  0
  5 17  1  0
  6 18  1  0
  6 19  1  0
  8 20  1  0
  8 21  1  0
  9 22  1  0
  9 23  1  0
M  END
