
     RDKit          3D

 19 21  0  0  0  0  0  0  0  0999 V2000
    1.6811   -0.9590    0.6169 C   0  0  0  0  0  0  0  0  0  0  0  0
    0.8075   -0.2525   -0.3032 C   0  0  0  0  0  0  0  0  0  0  0  0
    0.8903   -0.5459   -1.6602 O   0  0  0  0  0  0  0  0  0  0  0  0
   -0.4327   -0.0381   -1.7590 C   0  0  0  0  0  0  0  0  0  0  0  0
   -0.5777    1.1460   -0.8832 C   0  0  0  0  0  0  0  0  0  0  0  0
    0.6620    1.2409    0.0289 C   0  0  0  0  0  0  0  0  0  0  0  0
    0.3502    1.3657    1.3635 O   0  0  0  0  0  0  0  0  0  0  0  0
   -0.6119   -0.3369   -0.3696 C   0  0  0  0  0  0  0  0  0  0  0  0
   -1.6823   -0.8419    0.3968 C   0  0  0  0  0  0  0  0  0  0  0  0
    1.4812   -0.6573    1.6510 H   0  0  0  0  0  0  0  0  0  0  0  0
    1.6707   -2.0536    0.4659 H   0  0  0  0  0  0  0  0  0  0  0  0
    2.7517   -0.6515    0.4175 H   0  0  0  0  0  0  0  0  0  0  0  0
   -1.0602   -0.2907   -2.5896 H   0  0  0  0  0  0  0  0  0  0  0  0
   -1.4946    1.6402   -0.6188 H   0  0  0  0  0  0  0  0  0  0  0  0
    1.4609    1.8660   -0.3668 H   0  0  0  0  0  0  0  0  0  0  0  0
    0.2453    2.3019    1.6628 H   0  0  0  0  0  0  0  0  0  0  0  0
   -1.3920   -1.2261    1.3955 H   0  0  0  0  0  0  0  0  0  0  0  0
   -2.3004   -1.6702   -0.0598 H   0  0  0  0  0  0  0  0  0  0  0  0
   -2.4494   -0.0369    0.6113 H   0  0  0  0  0  0  0  0  0  0  0  0
  1  2  1  0
  2  3  1  0
  3  4  1  0
  4  5  1  0
  5  6  1  0
  6  7  1  0
  5  8  1  0
  8  9  1  0
  6  2  1  0
  8  2  1  0
  8  4  1  0
  1 10  1  0
  1 11  1  0
  1 12  1  0
  4 13  1  0
  5 14  1  0
  6 15  1  0
  7 16  1  0
  9 17  1  0
  9 18  1  0
  9 19  1  0
M  END
