
     RDKit          3D

 21 23  0  0  0  0  0  0  0  0999 V2000
    0.1084   -1.6345   -0.6088 C   0  0  0  0  0  0  0  0  0  0  0  0
   -0.0043   -0.3914    0.2872 C   0  0  0  0  0  0  0  0  0  0  0  0
    1.2622   -0.0984    1.0077 C   0  0  0  0  0  0  0  0  0  0  0  0
    2.0830    0.4418   -0.1847 C   0  0  0  0  0  0  0  0  0  0  0  0
    1.0538    1.2460   -0.9459 C   0  0  0  0  0  0  0  0  0  0  0  0
   -0.1423    0.7801   -0.6785 C   0  0  0  0  0  0  0  0  0  0  0  0
   -1.6135    0.4834   -0.5610 C   0  0  0  0  0  0  0  0  0  0  0  0
   -2.1866    1.0422    0.6861 C   0  0  0  0  0  0  0  0  0  0  0  0
   -1.3309   -0.1494    0.8544 C   0  0  0  0  0  0  0  0  0  0  0  0
    0.6744   -1.3928   -1.5311 H   0  0  0  0  0  0  0  0  0  0  0  0
    0.6006   -2.4131    0.0072 H   0  0  0  0  0  0  0  0  0  0  0  0
   -0.9524   -1.9110   -0.8511 H   0  0  0  0  0  0  0  0  0  0  0  0
    1.1495    0.6640    1.7908 H   0  0  0  0  0  0  0  0  0  0  0  0
    1.7105   -1.0502    1.3460 H   0  0  0  0  0  0  0  0  0  0  0  0
    2.4006   -0.3966   -0.8210 H   0  0  0  0  0  0  0  0  0  0  0  0
    2.9355    1.0167    0.1445 H   0  0  0  0  0  0  0  0  0  0  0  0
    1.3244    2.0601   -1.5894 H   0  0  0  0  0  0  0  0  0  0  0  0
   -2.1066   -0.1948   -1.2390 H   0  0  0  0  0  0  0  0  0  0  0  0
   -3.2539    0.9419    0.8634 H   0  0  0  0  0  0  0  0  0  0  0  0
   -1.8048    2.0636    0.9612 H   0  0  0  0  0  0  0  0  0  0  0  0
   -1.9078   -1.1076    1.0618 H   0  0  0  0  0  0  0  0  0  0  0  0
  1  2  1  0
  2  3  1  0
  3  4  1  0
  4  5  1  0
  5  6  2  0
  6  7  1  0
  7  8  1  0
  8  9  1  0
  6  2  1  0
  9  7  1  0
  9  2  1  0
  1 10  1  0
  1 11  1  0
  1 12  1  0
  3 13  1  0
  3 14  1  0
  4 15  1  0
  4 16  1  0
  5 17  1  0
  7 18  1  0
  8 19  1  0
  8 20  1  0
  9 21  1  0
M  END
