
     RDKit          3D

 21 24  0  0  0  0  0  0  0  0999 V2000
    2.0459   -0.2520    0.6523 C   0  0  0  0  0  0  0  0  0  0  0  0
    0.7510   -0.1362    0.0163 C   0  0  0  0  0  0  0  0  0  0  0  0
    0.4528   -1.1833   -1.0708 C   0  0  0  0  0  0  0  0  0  0  0  0
   -0.9916   -0.7679   -0.7423 C   0  0  0  0  0  0  0  0  0  0  0  0
   -1.1299    0.6831   -1.0621 C   0  0  0  0  0  0  0  0  0  0  0  0
   -1.0643    1.4686    0.1512 C   0  0  0  0  0  0  0  0  0  0  0  0
   -1.2263    0.4264    1.2684 C   0  0  0  0  0  0  0  0  0  0  0  0
   -0.4704   -0.7066    0.7018 C   0  0  0  0  0  0  0  0  0  0  0  0
    0.2311    1.1844   -0.4464 C   0  0  0  0  0  0  0  0  0  0  0  0
    2.5150   -1.2323    0.3435 H   0  0  0  0  0  0  0  0  0  0  0  0
    2.0131   -0.2108    1.7562 H   0  0  0  0  0  0  0  0  0  0  0  0
    2.7412    0.5241    0.2812 H   0  0  0  0  0  0  0  0  0  0  0  0
    0.7749   -0.9025   -2.0698 H   0  0  0  0  0  0  0  0  0  0  0  0
    0.6770   -2.1775   -0.6949 H   0  0  0  0  0  0  0  0  0  0  0  0
   -1.7620   -1.4608   -0.9573 H   0  0  0  0  0  0  0  0  0  0  0  0
   -1.3493    1.0432   -2.0647 H   0  0  0  0  0  0  0  0  0  0  0  0
   -1.4571    2.4615    0.2943 H   0  0  0  0  0  0  0  0  0  0  0  0
   -2.3210    0.1803    1.2812 H   0  0  0  0  0  0  0  0  0  0  0  0
   -0.8601    0.8346    2.2129 H   0  0  0  0  0  0  0  0  0  0  0  0
   -0.3794   -1.6386    1.2175 H   0  0  0  0  0  0  0  0  0  0  0  0
    0.8093    1.8624   -1.0686 H   0  0  0  0  0  0  0  0  0  0  0  0
  1  2  1  0
  2  3  1  0
  3  4  1  0
  4  5  1  0
  5  6  1  0
  6  7  1  0
  7  8  1  0
  6  9  1  0
  8  2  1  0
  9  2  1  0
  8  4  1  0
  9  5  1  0
  1 10  1  0
  1 11  1  0
  1 12  1  0
  3 13  1  0
  3 14  1  0
  4 15  1  0
  5 16  1  0
  6 17  1  0
  7 18  1  0
  7 19  1  0
  8 20  1  0
  9 21  1  0
M  END
