
     RDKit          3D

 21 22  0  0  0  0  0  0  0  0999 V2000
    1.9292   -0.8112   -0.5277 C   0  0  0  0  0  0  0  0  0  0  0  0
    0.6371   -0.3505    0.0522 C   0  0  0  0  0  0  0  0  0  0  0  0
    0.8705    0.7938    1.0253 C   0  0  0  0  0  0  0  0  0  0  0  0
   -0.1038    1.6576    0.2656 C   0  0  0  0  0  0  0  0  0  0  0  0
   -0.1757    0.6024   -0.7863 C   0  0  0  0  0  0  0  0  0  0  0  0
   -1.5716    0.0305   -0.8771 C   0  0  0  0  0  0  0  0  0  0  0  0
   -1.6713   -0.7943    0.3881 C   0  0  0  0  0  0  0  0  0  0  0  0
   -0.3109   -1.3694    0.5013 C   0  0  0  0  0  0  0  0  0  0  0  0
   -0.0355   -2.4804    0.8942 O   0  0  0  0  0  0  0  0  0  0  0  0
    2.7357   -0.0344   -0.3800 H   0  0  0  0  0  0  0  0  0  0  0  0
    2.2585   -1.7092    0.0661 H   0  0  0  0  0  0  0  0  0  0  0  0
    1.8924   -1.0860   -1.5901 H   0  0  0  0  0  0  0  0  0  0  0  0
    0.5355    0.4767    2.0308 H   0  0  0  0  0  0  0  0  0  0  0  0
    1.8913    1.2220    0.9954 H   0  0  0  0  0  0  0  0  0  0  0  0
   -1.0270    1.7993    0.8860 H   0  0  0  0  0  0  0  0  0  0  0  0
    0.2874    2.6258   -0.0978 H   0  0  0  0  0  0  0  0  0  0  0  0
    0.2372    0.8496   -1.7763 H   0  0  0  0  0  0  0  0  0  0  0  0
   -2.3403    0.8445   -0.8649 H   0  0  0  0  0  0  0  0  0  0  0  0
   -1.6816   -0.6060   -1.7635 H   0  0  0  0  0  0  0  0  0  0  0  0
   -2.4696   -1.5370    0.3160 H   0  0  0  0  0  0  0  0  0  0  0  0
   -1.8873   -0.1238    1.2427 H   0  0  0  0  0  0  0  0  0  0  0  0
  1  2  1  0
  2  3  1  0
  3  4  1  0
  4  5  1  0
  5  6  1  0
  6  7  1  0
  7  8  1  0
  8  9  2  0
  5  2  1  0
  8  2  1  0
  1 10  1  0
  1 11  1  0
  1 12  1  0
  3 13  1  0
  3 14  1  0
  4 15  1  0
  4 16  1  0
  5 17  1  0
  6 18  1  0
  6 19  1  0
  7 20  1  0
  7 21  1  0
M  END
