
     RDKit          3D

 21 23  0  0  0  0  0  0  0  0999 V2000
    1.6597    0.7815   -0.5867 C   0  0  0  0  0  0  0  0  0  0  0  0
    0.7078   -0.1516   -0.0294 C   0  0  0  0  0  0  0  0  0  0  0  0
    0.9916   -0.9238    1.2005 C   0  0  0  0  0  0  0  0  0  0  0  0
   -0.2016   -1.6751    1.3480 O   0  0  0  0  0  0  0  0  0  0  0  0
   -0.9369   -1.2606    0.2589 C   0  0  0  0  0  0  0  0  0  0  0  0
    0.0013   -1.1372   -0.9109 C   0  0  0  0  0  0  0  0  0  0  0  0
   -0.8512    0.0060   -1.3668 C   0  0  0  0  0  0  0  0  0  0  0  0
   -0.7355    0.2262    0.1134 C   0  0  0  0  0  0  0  0  0  0  0  0
   -1.2843    1.2224    0.8694 C   0  0  0  0  0  0  0  0  0  0  0  0
    2.0164    0.4247   -1.5898 H   0  0  0  0  0  0  0  0  0  0  0  0
    1.1894    1.7721   -0.7873 H   0  0  0  0  0  0  0  0  0  0  0  0
    2.5402    1.0063    0.0667 H   0  0  0  0  0  0  0  0  0  0  0  0
    1.2035   -0.3462    2.0956 H   0  0  0  0  0  0  0  0  0  0  0  0
    1.7774   -1.7066    0.9832 H   0  0  0  0  0  0  0  0  0  0  0  0
   -1.9188   -1.6639    0.0937 H   0  0  0  0  0  0  0  0  0  0  0  0
    0.3975   -1.8748   -1.4536 H   0  0  0  0  0  0  0  0  0  0  0  0
   -0.2954    0.8022   -1.9089 H   0  0  0  0  0  0  0  0  0  0  0  0
   -1.8446   -0.2396   -1.7514 H   0  0  0  0  0  0  0  0  0  0  0  0
   -1.6758    0.9165    1.8674 H   0  0  0  0  0  0  0  0  0  0  0  0
   -2.1612    1.7474    0.3843 H   0  0  0  0  0  0  0  0  0  0  0  0
   -0.5794    2.0742    1.1035 H   0  0  0  0  0  0  0  0  0  0  0  0
  1  2  1  0
  2  3  1  0
  3  4  1  0
  4  5  1  0
  5  6  1  0
  6  7  1  0
  7  8  1  0
  8  9  1  0
  6  2  1  0
  8  2  1  0
  8  5  1  0
  1 10  1  0
  1 11  1  0
  1 12  1  0
  3 13  1  0
  3 14  1  0
  5 15  1  0
  6 16  1  0
  7 17  1  0
  7 18  1  0
  9 19  1  0
  9 20  1  0
  9 21  1  0
M  END
