
     RDKit          3D

 18 20  0  0  0  0  0  0  0  0999 V2000
    2.0150   -0.0869   -0.1040 C   0  0  0  0  0  0  0  0  0  0  0  0
    0.5471    0.0281   -0.1828 C   0  0  0  0  0  0  0  0  0  0  0  0
   -0.0141    1.3209   -0.6566 C   0  0  0  0  0  0  0  0  0  0  0  0
   -1.2164    1.5252   -0.1377 C   0  0  0  0  0  0  0  0  0  0  0  0
   -1.5666    0.3715    0.7380 C   0  0  0  0  0  0  0  0  0  0  0  0
   -1.2081   -1.0045    0.2935 C   0  0  0  0  0  0  0  0  0  0  0  0
   -0.1521   -1.1593   -0.8088 C   0  0  0  0  0  0  0  0  0  0  0  0
   -0.2543   -0.2103    1.0549 C   0  0  0  0  0  0  0  0  0  0  0  0
    2.4586    0.9297   -0.2653 H   0  0  0  0  0  0  0  0  0  0  0  0
    2.4137   -0.5830    0.7857 H   0  0  0  0  0  0  0  0  0  0  0  0
    2.3660   -0.6810   -0.9980 H   0  0  0  0  0  0  0  0  0  0  0  0
    0.4887    1.9856   -1.3222 H   0  0  0  0  0  0  0  0  0  0  0  0
   -1.8578    2.3725   -0.3019 H   0  0  0  0  0  0  0  0  0  0  0  0
   -2.3619    0.4507    1.4677 H   0  0  0  0  0  0  0  0  0  0  0  0
   -1.7711   -1.8593    0.6372 H   0  0  0  0  0  0  0  0  0  0  0  0
    0.4544   -2.0770   -0.6884 H   0  0  0  0  0  0  0  0  0  0  0  0
   -0.4916   -0.9155   -1.8130 H   0  0  0  0  0  0  0  0  0  0  0  0
    0.1507   -0.4077    2.0218 H   0  0  0  0  0  0  0  0  0  0  0  0
  1  2  1  0
  2  3  1  0
  3  4  2  0
  4  5  1  0
  5  6  1  0
  6  7  1  0
  6  8  1  0
  7  2  1  0
  8  2  1  0
  8  5  1  0
  1  9  1  0
  1 10  1  0
  1 11  1  0
  3 12  1  0
  4 13  1  0
  5 14  1  0
  6 15  1  0
  7 16  1  0
  7 17  1  0
  8 18  1  0
M  END
