
     RDKit          3D

 17 19  0  0  0  0  0  0  0  0999 V2000
    2.4409    0.4537    0.0990 C   0  0  0  0  0  0  0  0  0  0  0  0
    1.1545   -0.2887   -0.2416 C   0  0  0  0  0  0  0  0  0  0  0  0
    1.3542   -1.5517   -0.7087 O   0  0  0  0  0  0  0  0  0  0  0  0
    0.5601   -1.3039    0.4691 C   0  0  0  0  0  0  0  0  0  0  0  0
   -0.7876   -0.9041    0.0364 C   0  0  0  0  0  0  0  0  0  0  0  0
   -1.7945   -0.5398    0.8779 O   0  0  0  0  0  0  0  0  0  0  0  0
   -2.4147    0.4613    0.0389 C   0  0  0  0  0  0  0  0  0  0  0  0
   -1.1569    1.2198   -0.3516 C   0  0  0  0  0  0  0  0  0  0  0  0
   -0.1068    0.4497   -0.2779 C   0  0  0  0  0  0  0  0  0  0  0  0
    3.1922    0.1518   -0.6605 H   0  0  0  0  0  0  0  0  0  0  0  0
    2.7576    0.1911    1.1211 H   0  0  0  0  0  0  0  0  0  0  0  0
    2.3134    1.5501    0.0506 H   0  0  0  0  0  0  0  0  0  0  0  0
    0.7952   -1.8623    1.3646 H   0  0  0  0  0  0  0  0  0  0  0  0
   -1.1291   -1.3418   -0.9365 H   0  0  0  0  0  0  0  0  0  0  0  0
   -2.8916   -0.0142   -0.8359 H   0  0  0  0  0  0  0  0  0  0  0  0
   -3.0776    1.0476    0.6727 H   0  0  0  0  0  0  0  0  0  0  0  0
   -1.2092    2.2814   -0.6467 H   0  0  0  0  0  0  0  0  0  0  0  0
  1  2  1  0
  2  3  1  0
  3  4  1  0
  4  5  1  0
  5  6  1  0
  6  7  1  0
  7  8  1  0
  8  9  2  0
  4  2  1  0
  9  5  1  0
  9  2  1  0
  1 10  1  0
  1 11  1  0
  1 12  1  0
  4 13  1  0
  5 14  1  0
  7 15  1  0
  7 16  1  0
  8 17  1  0
M  END
