
     RDKit          3D

 21 22  0  0  0  0  0  0  0  0999 V2000
   -2.2515    0.7935   -0.4538 C   0  0  0  0  0  0  0  0  0  0  0  0
   -0.9659    0.1188   -0.1437 C   0  0  0  0  0  0  0  0  0  0  0  0
   -1.1754   -1.2898    0.3391 C   0  0  0  0  0  0  0  0  0  0  0  0
   -0.0077   -2.0150    0.4601 O   0  0  0  0  0  0  0  0  0  0  0  0
    1.1373   -1.2572    0.4699 C   0  0  0  0  0  0  0  0  0  0  0  0
    0.9624    0.0615   -0.2305 C   0  0  0  0  0  0  0  0  0  0  0  0
    2.2464    0.7004   -0.6197 C   0  0  0  0  0  0  0  0  0  0  0  0
    0.0404    0.8877    0.6464 C   0  0  0  0  0  0  0  0  0  0  0  0
   -0.0332    0.0521   -1.1889 O   0  0  0  0  0  0  0  0  0  0  0  0
   -3.1156    0.2088   -0.0214 H   0  0  0  0  0  0  0  0  0  0  0  0
   -2.3071    1.7853    0.0434 H   0  0  0  0  0  0  0  0  0  0  0  0
   -2.4311    0.8762   -1.5256 H   0  0  0  0  0  0  0  0  0  0  0  0
   -1.7805   -1.8050   -0.4652 H   0  0  0  0  0  0  0  0  0  0  0  0
   -1.7940   -1.3435    1.2456 H   0  0  0  0  0  0  0  0  0  0  0  0
    1.9753   -1.8027    0.0246 H   0  0  0  0  0  0  0  0  0  0  0  0
    1.4627   -1.0090    1.5238 H   0  0  0  0  0  0  0  0  0  0  0  0
    2.9949   -0.1294   -0.7833 H   0  0  0  0  0  0  0  0  0  0  0  0
    2.2160    1.2423   -1.5904 H   0  0  0  0  0  0  0  0  0  0  0  0
    2.6845    1.3174    0.1924 H   0  0  0  0  0  0  0  0  0  0  0  0
   -0.0039    1.9617    0.4101 H   0  0  0  0  0  0  0  0  0  0  0  0
    0.1461    0.6457    1.7036 H   0  0  0  0  0  0  0  0  0  0  0  0
  1  2  1  0
  2  3  1  0
  3  4  1  0
  4  5  1  0
  5  6  1  0
  6  7  1  0
  6  8  1  0
  6  9  1  0
  8  2  1  0
  9  2  1  0
  1 10  1  0
  1 11  1  0
  1 12  1  0
  3 13  1  0
  3 14  1  0
  5 15  1  0
  5 16  1  0
  7 17  1  0
  7 18  1  0
  7 19  1  0
  8 20  1  0
  8 21  1  0
M  END
