
     RDKit          3D

 19 21  0  0  0  0  0  0  0  0999 V2000
   -1.4497   -1.4153    0.0874 C   0  0  0  0  0  0  0  0  0  0  0  0
   -0.7673   -0.1673   -0.3511 C   0  0  0  0  0  0  0  0  0  0  0  0
   -1.3584    1.1812   -0.0549 C   0  0  0  0  0  0  0  0  0  0  0  0
   -0.2456    0.7290    0.8193 C   0  0  0  0  0  0  0  0  0  0  0  0
    1.1499    0.9866    0.3543 C   0  0  0  0  0  0  0  0  0  0  0  0
    1.9934   -0.2831    0.3528 C   0  0  0  0  0  0  0  0  0  0  0  0
    1.3914   -1.0121   -0.6658 O   0  0  0  0  0  0  0  0  0  0  0  0
    0.4287   -0.1969   -1.2491 C   0  0  0  0  0  0  0  0  0  0  0  0
    0.9532    1.1044   -1.0454 O   0  0  0  0  0  0  0  0  0  0  0  0
   -2.2958   -1.1060    0.7646 H   0  0  0  0  0  0  0  0  0  0  0  0
   -1.9225   -1.9086   -0.7700 H   0  0  0  0  0  0  0  0  0  0  0  0
   -0.8277   -2.0956    0.6948 H   0  0  0  0  0  0  0  0  0  0  0  0
   -1.1309    1.9547   -0.8323 H   0  0  0  0  0  0  0  0  0  0  0  0
   -2.4005    1.1656    0.2617 H   0  0  0  0  0  0  0  0  0  0  0  0
   -0.4186    0.3694    1.8309 H   0  0  0  0  0  0  0  0  0  0  0  0
    1.6482    1.8436    0.7848 H   0  0  0  0  0  0  0  0  0  0  0  0
    3.0077    0.0420   -0.0050 H   0  0  0  0  0  0  0  0  0  0  0  0
    2.0180   -0.7850    1.3160 H   0  0  0  0  0  0  0  0  0  0  0  0
    0.2265   -0.4066   -2.2930 H   0  0  0  0  0  0  0  0  0  0  0  0
  1  2  1  0
  2  3  1  0
  3  4  1  0
  4  5  1  0
  5  6  1  0
  6  7  1  0
  7  8  1  0
  8  9  1  0
  4  2  1  0
  9  5  1  0
  8  2  1  0
  1 10  1  0
  1 11  1  0
  1 12  1  0
  3 13  1  0
  3 14  1  0
  4 15  1  0
  5 16  1  0
  6 17  1  0
  6 18  1  0
  8 19  1  0
M  END
