
     RDKit          3D

 17 19  0  0  0  0  0  0  0  0999 V2000
    2.1748   -0.2779   -0.1416 C   0  0  0  0  0  0  0  0  0  0  0  0
    0.6878   -0.0240    0.0502 C   0  0  0  0  0  0  0  0  0  0  0  0
    0.3116    1.2748   -0.0739 O   0  0  0  0  0  0  0  0  0  0  0  0
   -1.0238    1.5274   -0.1279 C   0  0  0  0  0  0  0  0  0  0  0  0
   -1.7851    0.2446    0.1036 C   0  0  0  0  0  0  0  0  0  0  0  0
   -1.4387   -0.6269   -0.9251 O   0  0  0  0  0  0  0  0  0  0  0  0
   -0.1842   -1.0393   -0.5598 C   0  0  0  0  0  0  0  0  0  0  0  0
   -0.1133   -0.8813    0.9264 C   0  0  0  0  0  0  0  0  0  0  0  0
   -1.3057   -0.3145    1.2842 O   0  0  0  0  0  0  0  0  0  0  0  0
    2.5061   -1.2385    0.2415 H   0  0  0  0  0  0  0  0  0  0  0  0
    2.7544    0.5881    0.2420 H   0  0  0  0  0  0  0  0  0  0  0  0
    2.3313   -0.2553   -1.2600 H   0  0  0  0  0  0  0  0  0  0  0  0
   -1.2601    2.0087   -1.0925 H   0  0  0  0  0  0  0  0  0  0  0  0
   -1.2866    2.2290    0.6885 H   0  0  0  0  0  0  0  0  0  0  0  0
   -2.8768    0.4137    0.1144 H   0  0  0  0  0  0  0  0  0  0  0  0
    0.2181   -1.9606   -1.0426 H   0  0  0  0  0  0  0  0  0  0  0  0
    0.2900   -1.6680    1.5723 H   0  0  0  0  0  0  0  0  0  0  0  0
  1  2  1  0
  2  3  1  0
  3  4  1  0
  4  5  1  0
  5  6  1  0
  6  7  1  0
  7  8  1  0
  8  9  1  0
  7  2  1  0
  8  2  1  0
  9  5  1  0
  1 10  1  0
  1 11  1  0
  1 12  1  0
  4 13  1  0
  4 14  1  0
  5 15  1  0
  7 16  1  0
  8 17  1  0
M  END
