
     RDKit          3D

 19 21  0  0  0  0  0  0  0  0999 V2000
    1.8954   -0.9381   -0.9313 C   0  0  0  0  0  0  0  0  0  0  0  0
    0.7798   -0.0682   -0.4631 C   0  0  0  0  0  0  0  0  0  0  0  0
    0.9559    1.2959   -0.3239 O   0  0  0  0  0  0  0  0  0  0  0  0
    0.2646    1.7358    0.7740 C   0  0  0  0  0  0  0  0  0  0  0  0
   -0.7608    0.6607    1.1025 C   0  0  0  0  0  0  0  0  0  0  0  0
   -1.6885    0.4572   -0.0858 C   0  0  0  0  0  0  0  0  0  0  0  0
   -0.6510   -0.4863   -0.6476 C   0  0  0  0  0  0  0  0  0  0  0  0
   -1.0017   -1.5567   -1.4166 O   0  0  0  0  0  0  0  0  0  0  0  0
   -0.0187   -0.5618    0.6595 C   0  0  0  0  0  0  0  0  0  0  0  0
    2.4390   -0.4724   -1.7599 H   0  0  0  0  0  0  0  0  0  0  0  0
    1.5010   -1.9419   -1.1385 H   0  0  0  0  0  0  0  0  0  0  0  0
    2.6032   -1.0667   -0.0601 H   0  0  0  0  0  0  0  0  0  0  0  0
    0.9980    1.7866    1.6258 H   0  0  0  0  0  0  0  0  0  0  0  0
   -0.2419    2.7147    0.6316 H   0  0  0  0  0  0  0  0  0  0  0  0
   -1.2041    0.6823    2.0814 H   0  0  0  0  0  0  0  0  0  0  0  0
   -2.6296   -0.0183    0.2544 H   0  0  0  0  0  0  0  0  0  0  0  0
   -1.8150    1.4118   -0.6200 H   0  0  0  0  0  0  0  0  0  0  0  0
   -1.5857   -2.2156   -0.9478 H   0  0  0  0  0  0  0  0  0  0  0  0
    0.1600   -1.4192    1.2654 H   0  0  0  0  0  0  0  0  0  0  0  0
  1  2  1  0
  2  3  1  0
  3  4  1  0
  4  5  1  0
  5  6  1  0
  6  7  1  0
  7  8  1  0
  7  9  1  0
  7  2  1  0
  9  2  1  0
  9  5  1  0
  1 10  1  0
  1 11  1  0
  1 12  1  0
  4 13  1  0
  4 14  1  0
  5 15  1  0
  6 16  1  0
  6 17  1  0
  8 18  1  0
  9 19  1  0
M  END
