
     RDKit          3D

 21 23  0  0  0  0  0  0  0  0999 V2000
   -1.2078    1.7090    0.2241 C   0  0  0  0  0  0  0  0  0  0  0  0
   -0.6888    0.3267    0.2133 C   0  0  0  0  0  0  0  0  0  0  0  0
   -1.5206   -0.8351    0.7136 C   0  0  0  0  0  0  0  0  0  0  0  0
   -1.2134   -1.9349   -0.0390 O   0  0  0  0  0  0  0  0  0  0  0  0
   -0.1519   -1.6487   -0.8630 C   0  0  0  0  0  0  0  0  0  0  0  0
    1.1178   -1.4577   -0.0219 C   0  0  0  0  0  0  0  0  0  0  0  0
    0.7568   -0.0031    0.1007 C   0  0  0  0  0  0  0  0  0  0  0  0
    1.7971    1.0440    0.2353 C   0  0  0  0  0  0  0  0  0  0  0  0
   -0.1292   -0.1622   -1.0450 C   0  0  0  0  0  0  0  0  0  0  0  0
   -1.3541    2.1615    1.2119 H   0  0  0  0  0  0  0  0  0  0  0  0
   -2.2131    1.7148   -0.2908 H   0  0  0  0  0  0  0  0  0  0  0  0
   -0.5605    2.3362   -0.4315 H   0  0  0  0  0  0  0  0  0  0  0  0
   -1.1858   -1.0210    1.7739 H   0  0  0  0  0  0  0  0  0  0  0  0
   -2.5879   -0.5986    0.7714 H   0  0  0  0  0  0  0  0  0  0  0  0
   -0.0403   -2.2764   -1.7397 H   0  0  0  0  0  0  0  0  0  0  0  0
    1.0970   -2.0611    0.8801 H   0  0  0  0  0  0  0  0  0  0  0  0
    1.9895   -1.5808   -0.6921 H   0  0  0  0  0  0  0  0  0  0  0  0
    2.3386    0.8666    1.2075 H   0  0  0  0  0  0  0  0  0  0  0  0
    2.5421    1.0634   -0.5757 H   0  0  0  0  0  0  0  0  0  0  0  0
    1.3041    2.0233    0.3533 H   0  0  0  0  0  0  0  0  0  0  0  0
   -0.0895    0.3341   -1.9864 H   0  0  0  0  0  0  0  0  0  0  0  0
  1  2  1  0
  2  3  1  0
  3  4  1  0
  4  5  1  0
  5  6  1  0
  6  7  1  0
  7  8  1  0
  7  9  1  0
  7  2  1  0
  9  2  1  0
  9  5  1  0
  1 10  1  0
  1 11  1  0
  1 12  1  0
  3 13  1  0
  3 14  1  0
  5 15  1  0
  6 16  1  0
  6 17  1  0
  8 18  1  0
  8 19  1  0
  8 20  1  0
  9 21  1  0
M  END
