
     RDKit          3D

 22 23  0  0  0  0  0  0  0  0999 V2000
   -1.9360   -1.1733   -0.2927 C   0  0  0  0  0  0  0  0  0  0  0  0
   -0.6749   -0.4502   -0.0082 C   0  0  0  0  0  0  0  0  0  0  0  0
    0.5937   -1.1944   -0.2826 C   0  0  0  0  0  0  0  0  0  0  0  0
    1.7964   -0.2949   -0.2769 C   0  0  0  0  0  0  0  0  0  0  0  0
    1.5649    1.0335    0.3538 C   0  0  0  0  0  0  0  0  0  0  0  0
    0.1206    1.4393    0.3539 C   0  0  0  0  0  0  0  0  0  0  0  0
   -0.6254    0.4113    1.2157 C   0  0  0  0  0  0  0  0  0  0  0  0
   -0.6148    0.8442   -0.8327 C   0  0  0  0  0  0  0  0  0  0  0  0
   -1.7778   -2.1882   -0.7507 H   0  0  0  0  0  0  0  0  0  0  0  0
   -2.6596   -0.6061   -0.9211 H   0  0  0  0  0  0  0  0  0  0  0  0
   -2.4633   -1.3641    0.6713 H   0  0  0  0  0  0  0  0  0  0  0  0
    0.7346   -2.0825    0.3664 H   0  0  0  0  0  0  0  0  0  0  0  0
    0.5024   -1.6118   -1.3261 H   0  0  0  0  0  0  0  0  0  0  0  0
    2.1937   -0.1209   -1.3110 H   0  0  0  0  0  0  0  0  0  0  0  0
    2.6312   -0.8124    0.2708 H   0  0  0  0  0  0  0  0  0  0  0  0
    1.8845    0.9747    1.4249 H   0  0  0  0  0  0  0  0  0  0  0  0
    2.1501    1.8587   -0.1103 H   0  0  0  0  0  0  0  0  0  0  0  0
   -0.0828    2.4768    0.5852 H   0  0  0  0  0  0  0  0  0  0  0  0
   -1.6170    0.8199    1.4523 H   0  0  0  0  0  0  0  0  0  0  0  0
   -0.0596    0.0434    2.0738 H   0  0  0  0  0  0  0  0  0  0  0  0
   -1.6255    1.2634   -0.9039 H   0  0  0  0  0  0  0  0  0  0  0  0
   -0.0353    0.7338   -1.7518 H   0  0  0  0  0  0  0  0  0  0  0  0
  1  2  1  0
  2  3  1  0
  3  4  1  0
  4  5  1  0
  5  6  1  0
  6  7  1  0
  6  8  1  0
  7  2  1  0
  8  2  1  0
  1  9  1  0
  1 10  1  0
  1 11  1  0
  3 12  1  0
  3 13  1  0
  4 14  1  0
  4 15  1  0
  5 16  1  0
  5 17  1  0
  6 18  1  0
  7 19  1  0
  7 20  1  0
  8 21  1  0
  8 22  1  0
M  END
