
     RDKit          3D

 21 22  0  0  0  0  0  0  0  0999 V2000
    1.6501    1.0792    1.6644 C   0  0  0  0  0  0  0  0  0  0  0  0
    0.9825    0.4699    0.4706 C   0  0  0  0  0  0  0  0  0  0  0  0
    1.8551    0.0203   -0.6425 C   0  0  0  0  0  0  0  0  0  0  0  0
    1.0999   -0.9776    0.1659 C   0  0  0  0  0  0  0  0  0  0  0  0
   -0.3079   -1.3113   -0.3465 C   0  0  0  0  0  0  0  0  0  0  0  0
   -1.1268   -0.2638    0.3556 C   0  0  0  0  0  0  0  0  0  0  0  0
   -2.4192    0.0335   -0.3619 C   0  0  0  0  0  0  0  0  0  0  0  0
   -2.1695    0.3167   -1.7032 O   0  0  0  0  0  0  0  0  0  0  0  0
   -0.3155    0.8646    0.2483 O   0  0  0  0  0  0  0  0  0  0  0  0
    1.2265    0.7402    2.6305 H   0  0  0  0  0  0  0  0  0  0  0  0
    1.4635    2.1854    1.6262 H   0  0  0  0  0  0  0  0  0  0  0  0
    2.7543    0.9571    1.6296 H   0  0  0  0  0  0  0  0  0  0  0  0
    1.5053    0.2499   -1.6670 H   0  0  0  0  0  0  0  0  0  0  0  0
    2.9419    0.0852   -0.4812 H   0  0  0  0  0  0  0  0  0  0  0  0
    1.6013   -1.6870    0.8240 H   0  0  0  0  0  0  0  0  0  0  0  0
   -0.3609   -1.1628   -1.4606 H   0  0  0  0  0  0  0  0  0  0  0  0
   -0.5993   -2.3373   -0.1204 H   0  0  0  0  0  0  0  0  0  0  0  0
   -1.2871   -0.5850    1.4026 H   0  0  0  0  0  0  0  0  0  0  0  0
   -2.8905    0.9000    0.1451 H   0  0  0  0  0  0  0  0  0  0  0  0
   -3.1276   -0.8165   -0.3419 H   0  0  0  0  0  0  0  0  0  0  0  0
   -2.4761    1.2394   -1.9427 H   0  0  0  0  0  0  0  0  0  0  0  0
  1  2  1  0
  2  3  1  0
  3  4  1  0
  4  5  1  0
  5  6  1  0
  6  7  1  0
  7  8  1  0
  6  9  1  0
  4  2  1  0
  9  2  1  0
  1 10  1  0
  1 11  1  0
  1 12  1  0
  3 13  1  0
  3 14  1  0
  4 15  1  0
  5 16  1  0
  5 17  1  0
  6 18  1  0
  7 19  1  0
  7 20  1  0
  8 21  1  0
M  END
