
     RDKit          3D

 21 22  0  0  0  0  0  0  0  0999 V2000
    2.1464    0.2959   -0.3466 C   0  0  0  0  0  0  0  0  0  0  0  0
    0.7598   -0.1683    0.1091 C   0  0  0  0  0  0  0  0  0  0  0  0
    0.6433   -1.3725    0.9799 C   0  0  0  0  0  0  0  0  0  0  0  0
    0.2440   -1.3711   -0.4780 C   0  0  0  0  0  0  0  0  0  0  0  0
   -1.0697   -1.4977   -0.7664 O   0  0  0  0  0  0  0  0  0  0  0  0
   -1.9279   -0.6048   -0.2084 C   0  0  0  0  0  0  0  0  0  0  0  0
   -1.4391    0.8093   -0.4094 C   0  0  0  0  0  0  0  0  0  0  0  0
   -0.1773    0.9477    0.4045 C   0  0  0  0  0  0  0  0  0  0  0  0
    0.3674    2.2103    0.0762 O   0  0  0  0  0  0  0  0  0  0  0  0
    2.1669    0.1213   -1.4563 H   0  0  0  0  0  0  0  0  0  0  0  0
    2.9531   -0.2093    0.1851 H   0  0  0  0  0  0  0  0  0  0  0  0
    2.2759    1.3857   -0.2133 H   0  0  0  0  0  0  0  0  0  0  0  0
   -0.1907   -1.4142    1.7102 H   0  0  0  0  0  0  0  0  0  0  0  0
    1.4971   -1.9931    1.2509 H   0  0  0  0  0  0  0  0  0  0  0  0
    0.9211   -1.9511   -1.1693 H   0  0  0  0  0  0  0  0  0  0  0  0
   -2.1426   -0.8252    0.8455 H   0  0  0  0  0  0  0  0  0  0  0  0
   -2.9040   -0.6739   -0.7672 H   0  0  0  0  0  0  0  0  0  0  0  0
   -1.1787    0.9614   -1.4640 H   0  0  0  0  0  0  0  0  0  0  0  0
   -2.1870    1.5064   -0.0096 H   0  0  0  0  0  0  0  0  0  0  0  0
   -0.4445    0.9548    1.4809 H   0  0  0  0  0  0  0  0  0  0  0  0
   -0.3133    2.8885    0.2461 H   0  0  0  0  0  0  0  0  0  0  0  0
  1  2  1  0
  2  3  1  0
  3  4  1  0
  4  5  1  0
  5  6  1  0
  6  7  1  0
  7  8  1  0
  8  9  1  0
  4  2  1  0
  8  2  1  0
  1 10  1  0
  1 11  1  0
  1 12  1  0
  3 13  1  0
  3 14  1  0
  4 15  1  0
  6 16  1  0
  6 17  1  0
  7 18  1  0
  7 19  1  0
  8 20  1  0
  9 21  1  0
M  END
