
     RDKit          3D

 16 18  0  0  0  0  0  0  0  0999 V2000
    1.9728   -0.4815    0.4464 C   0  0  0  0  0  0  0  0  0  0  0  0
    0.6126    0.0566    0.3128 C   0  0  0  0  0  0  0  0  0  0  0  0
   -0.2529    0.1730    1.3990 O   0  0  0  0  0  0  0  0  0  0  0  0
   -1.4017    0.6011    0.7830 C   0  0  0  0  0  0  0  0  0  0  0  0
   -1.5805   -0.4842   -0.2907 C   0  0  0  0  0  0  0  0  0  0  0  0
   -0.1805   -0.3699   -0.8724 C   0  0  0  0  0  0  0  0  0  0  0  0
    0.1568    1.0398   -0.6498 C   0  0  0  0  0  0  0  0  0  0  0  0
   -0.9513    1.6452   -0.0085 O   0  0  0  0  0  0  0  0  0  0  0  0
    2.3851   -0.4452    1.4570 H   0  0  0  0  0  0  0  0  0  0  0  0
    2.6436    0.0507   -0.2882 H   0  0  0  0  0  0  0  0  0  0  0  0
    1.9509   -1.5697    0.1426 H   0  0  0  0  0  0  0  0  0  0  0  0
   -2.2620    0.7765    1.3795 H   0  0  0  0  0  0  0  0  0  0  0  0
   -1.7538   -1.4408    0.1986 H   0  0  0  0  0  0  0  0  0  0  0  0
   -2.2960   -0.1920   -1.0555 H   0  0  0  0  0  0  0  0  0  0  0  0
    0.1712   -1.0047   -1.6551 H   0  0  0  0  0  0  0  0  0  0  0  0
    0.7857    1.6450   -1.2988 H   0  0  0  0  0  0  0  0  0  0  0  0
  1  2  1  0
  2  3  1  0
  3  4  1  0
  4  5  1  0
  5  6  1  0
  6  7  1  0
  7  8  1  0
  6  2  1  0
  7  2  1  0
  8  4  1  0
  1  9  1  0
  1 10  1  0
  1 11  1  0
  4 12  1  0
  5 13  1  0
  5 14  1  0
  6 15  1  0
  7 16  1  0
M  END
