
     RDKit          3D

 19 21  0  0  0  0  0  0  0  0999 V2000
   -2.0971   -0.4695    0.5082 C   0  0  0  0  0  0  0  0  0  0  0  0
   -0.6844   -0.0878    0.2666 C   0  0  0  0  0  0  0  0  0  0  0  0
    0.3244   -1.1977    0.1700 C   0  0  0  0  0  0  0  0  0  0  0  0
    1.5950   -0.4455   -0.2074 C   0  0  0  0  0  0  0  0  0  0  0  0
    2.1420    0.0001    1.0180 O   0  0  0  0  0  0  0  0  0  0  0  0
    1.0788    0.7701   -0.9934 C   0  0  0  0  0  0  0  0  0  0  0  0
    0.2782    1.6692   -0.1096 C   0  0  0  0  0  0  0  0  0  0  0  0
   -0.2513    1.0270    1.0150 O   0  0  0  0  0  0  0  0  0  0  0  0
   -0.3760    0.7001   -0.9674 C   0  0  0  0  0  0  0  0  0  0  0  0
   -2.7446    0.1256   -0.1949 H   0  0  0  0  0  0  0  0  0  0  0  0
   -2.3892   -0.0863    1.5289 H   0  0  0  0  0  0  0  0  0  0  0  0
   -2.3103   -1.5488    0.4660 H   0  0  0  0  0  0  0  0  0  0  0  0
    0.0685   -1.8097   -0.7407 H   0  0  0  0  0  0  0  0  0  0  0  0
    0.4323   -1.7933    1.0718 H   0  0  0  0  0  0  0  0  0  0  0  0
    2.2936   -1.0441   -0.7861 H   0  0  0  0  0  0  0  0  0  0  0  0
    1.8081   -0.5448    1.7795 H   0  0  0  0  0  0  0  0  0  0  0  0
    1.6361    1.1250   -1.8515 H   0  0  0  0  0  0  0  0  0  0  0  0
    0.2595    2.7426   -0.2088 H   0  0  0  0  0  0  0  0  0  0  0  0
   -1.0635    0.8678   -1.7639 H   0  0  0  0  0  0  0  0  0  0  0  0
  1  2  1  0
  2  3  1  0
  3  4  1  0
  4  5  1  0
  4  6  1  0
  6  7  1  0
  7  8  1  0
  7  9  1  0
  8  2  1  0
  9  2  1  0
  9  6  1  0
  1 10  1  0
  1 11  1  0
  1 12  1  0
  3 13  1  0
  3 14  1  0
  4 15  1  0
  5 16  1  0
  6 17  1  0
  7 18  1  0
  9 19  1  0
M  END
