
     RDKit          3D

 23 25  0  0  0  0  0  0  0  0999 V2000
    1.7820   -0.9751   -0.9624 C   0  0  0  0  0  0  0  0  0  0  0  0
    0.6907   -0.3657   -0.2680 C   0  0  0  0  0  0  0  0  0  0  0  0
    0.0881   -1.1835    0.8962 C   0  0  0  0  0  0  0  0  0  0  0  0
   -1.0626   -0.1738    1.1165 C   0  0  0  0  0  0  0  0  0  0  0  0
   -1.6995   -0.4759   -0.2597 C   0  0  0  0  0  0  0  0  0  0  0  0
   -0.4951    0.1165   -1.0289 C   0  0  0  0  0  0  0  0  0  0  0  0
   -0.7531    1.5516   -0.5126 C   0  0  0  0  0  0  0  0  0  0  0  0
   -0.4285    1.1566    0.9471 C   0  0  0  0  0  0  0  0  0  0  0  0
    1.0503    0.8405    0.6303 C   0  0  0  0  0  0  0  0  0  0  0  0
    1.8231   -0.6678   -2.0282 H   0  0  0  0  0  0  0  0  0  0  0  0
    1.6651   -2.0972   -0.9929 H   0  0  0  0  0  0  0  0  0  0  0  0
    2.7918   -0.7196   -0.5360 H   0  0  0  0  0  0  0  0  0  0  0  0
   -0.2944   -2.1427    0.5548 H   0  0  0  0  0  0  0  0  0  0  0  0
    0.7479   -1.1977    1.7576 H   0  0  0  0  0  0  0  0  0  0  0  0
   -1.6754   -0.3712    1.9438 H   0  0  0  0  0  0  0  0  0  0  0  0
   -1.7860   -1.5528   -0.4246 H   0  0  0  0  0  0  0  0  0  0  0  0
   -2.6019    0.1097   -0.4227 H   0  0  0  0  0  0  0  0  0  0  0  0
   -0.5336    0.0041   -2.0700 H   0  0  0  0  0  0  0  0  0  0  0  0
   -1.8006    1.8246   -0.6155 H   0  0  0  0  0  0  0  0  0  0  0  0
   -0.0242    2.2571   -0.9080 H   0  0  0  0  0  0  0  0  0  0  0  0
   -0.5811    1.9140    1.6568 H   0  0  0  0  0  0  0  0  0  0  0  0
    1.5989    0.5349    1.5144 H   0  0  0  0  0  0  0  0  0  0  0  0
    1.4982    1.6133    0.0122 H   0  0  0  0  0  0  0  0  0  0  0  0
  1  2  1  0
  2  3  1  0
  3  4  1  0
  4  5  1  0
  5  6  1  0
  6  7  1  0
  7  8  1  0
  8  9  1  0
  6  2  1  0
  9  2  1  0
  8  4  1  0
  1 10  1  0
  1 11  1  0
  1 12  1  0
  3 13  1  0
  3 14  1  0
  4 15  1  0
  5 16  1  0
  5 17  1  0
  6 18  1  0
  7 19  1  0
  7 20  1  0
  8 21  1  0
  9 22  1  0
  9 23  1  0
M  END
