
     RDKit          3D

 19 21  0  0  0  0  0  0  0  0999 V2000
    2.2597   -0.8645    0.0444 C   0  0  0  0  0  0  0  0  0  0  0  0
    0.7648   -0.5376    0.2147 C   0  0  0  0  0  0  0  0  0  0  0  0
    0.0593   -1.7305    0.4969 O   0  0  0  0  0  0  0  0  0  0  0  0
   -1.2578   -1.6039   -0.0634 C   0  0  0  0  0  0  0  0  0  0  0  0
   -1.4578   -0.1333    0.0201 C   0  0  0  0  0  0  0  0  0  0  0  0
   -1.7208    1.1379    0.1027 C   0  0  0  0  0  0  0  0  0  0  0  0
   -0.4429    1.9514    0.0143 C   0  0  0  0  0  0  0  0  0  0  0  0
    0.4803    0.8266    0.5683 C   0  0  0  0  0  0  0  0  0  0  0  0
   -0.0292    0.0705   -0.6674 C   0  0  0  0  0  0  0  0  0  0  0  0
    2.4117   -1.6349   -0.7295 H   0  0  0  0  0  0  0  0  0  0  0  0
    2.5927   -1.1966    1.0573 H   0  0  0  0  0  0  0  0  0  0  0  0
    2.7847    0.0626   -0.2677 H   0  0  0  0  0  0  0  0  0  0  0  0
   -1.9875   -2.1885    0.4688 H   0  0  0  0  0  0  0  0  0  0  0  0
   -1.2390   -1.8921   -1.1174 H   0  0  0  0  0  0  0  0  0  0  0  0
   -2.7058    1.5470    0.2199 H   0  0  0  0  0  0  0  0  0  0  0  0
   -0.4062    2.7930    0.6790 H   0  0  0  0  0  0  0  0  0  0  0  0
   -0.1849    2.2566   -0.9867 H   0  0  0  0  0  0  0  0  0  0  0  0
    0.0716    0.7267    1.5911 H   0  0  0  0  0  0  0  0  0  0  0  0
    0.0071    0.4097   -1.6452 H   0  0  0  0  0  0  0  0  0  0  0  0
  1  2  1  0
  2  3  1  0
  3  4  1  0
  4  5  1  0
  5  6  2  0
  6  7  1  0
  7  8  1  0
  8  9  1  0
  8  2  1  0
  9  2  1  0
  9  5  1  0
  1 10  1  0
  1 11  1  0
  1 12  1  0
  4 13  1  0
  4 14  1  0
  6 15  1  0
  7 16  1  0
  7 17  1  0
  8 18  1  0
  9 19  1  0
M  END
