
     RDKit          3D

 19 21  0  0  0  0  0  0  0  0999 V2000
    2.2080    0.2668    0.0740 C   0  0  0  0  0  0  0  0  0  0  0  0
    0.7691    0.0439   -0.0892 C   0  0  0  0  0  0  0  0  0  0  0  0
    0.3447   -0.9277   -0.9824 O   0  0  0  0  0  0  0  0  0  0  0  0
   -1.0488   -0.8732   -0.7690 C   0  0  0  0  0  0  0  0  0  0  0  0
   -1.3204    0.5874   -1.0046 C   0  0  0  0  0  0  0  0  0  0  0  0
   -0.1420    1.2073   -0.2370 C   0  0  0  0  0  0  0  0  0  0  0  0
   -0.4337    1.1986    1.1222 O   0  0  0  0  0  0  0  0  0  0  0  0
   -0.0307   -0.1306    1.1788 C   0  0  0  0  0  0  0  0  0  0  0  0
   -1.0816   -1.1245    0.7210 C   0  0  0  0  0  0  0  0  0  0  0  0
    2.6872    0.9493   -0.6508 H   0  0  0  0  0  0  0  0  0  0  0  0
    2.7459   -0.6975    0.0019 H   0  0  0  0  0  0  0  0  0  0  0  0
    2.3984    0.6289    1.1269 H   0  0  0  0  0  0  0  0  0  0  0  0
   -1.6137   -1.5609   -1.3667 H   0  0  0  0  0  0  0  0  0  0  0  0
   -2.2566    0.9376   -0.5447 H   0  0  0  0  0  0  0  0  0  0  0  0
   -1.2920    0.8634   -2.0590 H   0  0  0  0  0  0  0  0  0  0  0  0
    0.2415    2.1309   -0.6581 H   0  0  0  0  0  0  0  0  0  0  0  0
    0.5163   -0.3805    2.0825 H   0  0  0  0  0  0  0  0  0  0  0  0
   -2.0540   -0.9815    1.1741 H   0  0  0  0  0  0  0  0  0  0  0  0
   -0.6377   -2.1377    0.8801 H   0  0  0  0  0  0  0  0  0  0  0  0
  1  2  1  0
  2  3  1  0
  3  4  1  0
  4  5  1  0
  5  6  1  0
  6  7  1  0
  7  8  1  0
  8  9  1  0
  6  2  1  0
  8  2  1  0
  9  4  1  0
  1 10  1  0
  1 11  1  0
  1 12  1  0
  4 13  1  0
  5 14  1  0
  5 15  1  0
  6 16  1  0
  8 17  1  0
  9 18  1  0
  9 19  1  0
M  END
