
     RDKit          3D

 19 21  0  0  0  0  0  0  0  0999 V2000
    1.7525   -0.6547   -0.4191 C   0  0  0  0  0  0  0  0  0  0  0  0
    0.3728   -0.3720   -0.0588 C   0  0  0  0  0  0  0  0  0  0  0  0
   -0.5755   -1.5146    0.1966 C   0  0  0  0  0  0  0  0  0  0  0  0
   -1.8057   -0.7008    0.5503 C   0  0  0  0  0  0  0  0  0  0  0  0
   -2.8529   -1.1452    0.9162 O   0  0  0  0  0  0  0  0  0  0  0  0
   -1.3218    0.6791    0.3142 C   0  0  0  0  0  0  0  0  0  0  0  0
   -0.4224    0.6053   -0.8772 C   0  0  0  0  0  0  0  0  0  0  0  0
    0.3945    1.6755   -0.2060 C   0  0  0  0  0  0  0  0  0  0  0  0
    0.0578    0.7214    0.9098 C   0  0  0  0  0  0  0  0  0  0  0  0
    2.4368   -0.3676    0.4250 H   0  0  0  0  0  0  0  0  0  0  0  0
    1.8929   -1.7722   -0.5083 H   0  0  0  0  0  0  0  0  0  0  0  0
    2.1183   -0.1818   -1.3606 H   0  0  0  0  0  0  0  0  0  0  0  0
   -0.2755   -2.1567    1.0230 H   0  0  0  0  0  0  0  0  0  0  0  0
   -0.7172   -2.0388   -0.7711 H   0  0  0  0  0  0  0  0  0  0  0  0
   -1.9817    1.5040    0.4459 H   0  0  0  0  0  0  0  0  0  0  0  0
   -0.6676    0.5392   -1.8428 H   0  0  0  0  0  0  0  0  0  0  0  0
    1.4460    1.7524   -0.4885 H   0  0  0  0  0  0  0  0  0  0  0  0
   -0.1586    2.6297   -0.1208 H   0  0  0  0  0  0  0  0  0  0  0  0
    0.3073    0.7978    1.8722 H   0  0  0  0  0  0  0  0  0  0  0  0
  1  2  1  0
  2  3  1  0
  3  4  1  0
  4  5  2  0
  4  6  1  0
  6  7  1  0
  7  8  1  0
  8  9  1  0
  7  2  1  0
  9  2  1  0
  9  6  1  0
  1 10  1  0
  1 11  1  0
  1 12  1  0
  3 13  1  0
  3 14  1  0
  6 15  1  0
  7 16  1  0
  8 17  1  0
  8 18  1  0
  9 19  1  0
M  END
