
     RDKit          3D

 18 20  0  0  0  0  0  0  0  0999 V2000
    1.5477   -1.3490   -0.4792 C   0  0  0  0  0  0  0  0  0  0  0  0
    0.6248   -0.1651   -0.5020 C   0  0  0  0  0  0  0  0  0  0  0  0
    1.2085    1.1851   -0.3566 C   0  0  0  0  0  0  0  0  0  0  0  0
    0.4620    0.6493    0.7977 C   0  0  0  0  0  0  0  0  0  0  0  0
   -1.0217    0.4620    0.7281 C   0  0  0  0  0  0  0  0  0  0  0  0
   -1.6842    0.0588    1.8586 O   0  0  0  0  0  0  0  0  0  0  0  0
   -1.7849    0.7249   -0.5153 C   0  0  0  0  0  0  0  0  0  0  0  0
   -0.8439   -0.4168   -0.4552 C   0  0  0  0  0  0  0  0  0  0  0  0
    1.2638   -2.0959   -1.2282 H   0  0  0  0  0  0  0  0  0  0  0  0
    1.6357   -1.7791    0.5470 H   0  0  0  0  0  0  0  0  0  0  0  0
    2.5764   -0.9830   -0.7326 H   0  0  0  0  0  0  0  0  0  0  0  0
    2.3089    1.2187   -0.2425 H   0  0  0  0  0  0  0  0  0  0  0  0
    0.7823    2.0798   -0.8363 H   0  0  0  0  0  0  0  0  0  0  0  0
    0.9621    0.2905    1.7007 H   0  0  0  0  0  0  0  0  0  0  0  0
   -2.4376   -0.5462    1.7175 H   0  0  0  0  0  0  0  0  0  0  0  0
   -1.5699    1.6525   -1.0604 H   0  0  0  0  0  0  0  0  0  0  0  0
   -2.8533    0.4655   -0.4813 H   0  0  0  0  0  0  0  0  0  0  0  0
   -1.1765   -1.4521   -0.4601 H   0  0  0  0  0  0  0  0  0  0  0  0
  1  2  1  0
  2  3  1  0
  3  4  1  0
  4  5  1  0
  5  6  1  0
  5  7  1  0
  7  8  1  0
  4  2  1  0
  8  5  1  0
  8  2  1  0
  1  9  1  0
  1 10  1  0
  1 11  1  0
  3 12  1  0
  3 13  1  0
  4 14  1  0
  6 15  1  0
  7 16  1  0
  7 17  1  0
  8 18  1  0
M  END
