
     RDKit          3D

 18 19  0  0  0  0  0  0  0  0999 V2000
    2.0599   -0.4728    0.3826 C   0  0  0  0  0  0  0  0  0  0  0  0
    0.6694   -0.2893    0.0102 C   0  0  0  0  0  0  0  0  0  0  0  0
    0.4173    0.6131   -1.1667 C   0  0  0  0  0  0  0  0  0  0  0  0
   -0.8091    1.0970   -1.0712 C   0  0  0  0  0  0  0  0  0  0  0  0
   -1.4107    0.4711    0.1227 C   0  0  0  0  0  0  0  0  0  0  0  0
   -1.4436   -1.0135   -0.1529 C   0  0  0  0  0  0  0  0  0  0  0  0
   -0.1056   -1.4326   -0.1077 O   0  0  0  0  0  0  0  0  0  0  0  0
   -0.1743    0.4848    1.0476 C   0  0  0  0  0  0  0  0  0  0  0  0
    2.1500   -0.4714    1.5092 H   0  0  0  0  0  0  0  0  0  0  0  0
    2.7477    0.2801   -0.0285 H   0  0  0  0  0  0  0  0  0  0  0  0
    2.4220   -1.4725    0.0725 H   0  0  0  0  0  0  0  0  0  0  0  0
    1.1144    0.8327   -1.9580 H   0  0  0  0  0  0  0  0  0  0  0  0
   -1.2653    1.7961   -1.7253 H   0  0  0  0  0  0  0  0  0  0  0  0
   -2.2763    0.9099    0.5374 H   0  0  0  0  0  0  0  0  0  0  0  0
   -1.8657   -1.1733   -1.1619 H   0  0  0  0  0  0  0  0  0  0  0  0
   -2.0740   -1.5644    0.5668 H   0  0  0  0  0  0  0  0  0  0  0  0
   -0.3410   -0.0952    1.9494 H   0  0  0  0  0  0  0  0  0  0  0  0
    0.1852    1.5002    1.1738 H   0  0  0  0  0  0  0  0  0  0  0  0
  1  2  1  0
  2  3  1  0
  3  4  2  0
  4  5  1  0
  5  6  1  0
  6  7  1  0
  5  8  1  0
  7  2  1  0
  8  2  1  0
  1  9  1  0
  1 10  1  0
  1 11  1  0
  3 12  1  0
  4 13  1  0
  5 14  1  0
  6 15  1  0
  6 16  1  0
  8 17  1  0
  8 18  1  0
M  END
