
     RDKit          3D

 14 15  0  0  0  0  0  0  0  0999 V2000
   -0.6301    1.2492    0.4334 C   0  0  0  0  0  0  0  0  0  0  0  0
   -0.3096   -0.2542    0.5158 C   0  0  0  0  0  0  0  0  0  0  0  0
   -1.1047   -1.0552   -0.3089 C   0  0  0  0  0  0  0  0  0  0  0  0
    0.1837   -0.9033   -0.8484 C   0  0  0  0  0  0  0  0  0  0  0  0
    1.0592    0.1620   -1.0451 O   0  0  0  0  0  0  0  0  0  0  0  0
    1.7992    0.2071    0.1505 C   0  0  0  0  0  0  0  0  0  0  0  0
    2.9578    0.6995    0.3540 O   0  0  0  0  0  0  0  0  0  0  0  0
    0.9551   -0.4281    1.0960 O   0  0  0  0  0  0  0  0  0  0  0  0
   -1.0483    1.4880   -0.5712 H   0  0  0  0  0  0  0  0  0  0  0  0
    0.2087    1.9015    0.6234 H   0  0  0  0  0  0  0  0  0  0  0  0
   -1.4782    1.4241    1.1459 H   0  0  0  0  0  0  0  0  0  0  0  0
   -1.9586   -0.6107   -0.8977 H   0  0  0  0  0  0  0  0  0  0  0  0
   -1.4545   -2.0420    0.0994 H   0  0  0  0  0  0  0  0  0  0  0  0
    0.8204   -1.8378   -0.7471 H   0  0  0  0  0  0  0  0  0  0  0  0
  1  2  1  0
  2  3  1  0
  3  4  1  0
  4  5  1  0
  5  6  1  0
  6  7  2  0
  6  8  1  0
  4  2  1  0
  8  2  1  0
  1  9  1  0
  1 10  1  0
  1 11  1  0
  3 12  1  0
  3 13  1  0
  4 14  1  0
M  END
