
     RDKit          3D

 17 19  0  0  0  0  0  0  0  0999 V2000
   -1.8754   -0.6705    0.0627 C   0  0  0  0  0  0  0  0  0  0  0  0
   -0.4499   -0.3602    0.0417 C   0  0  0  0  0  0  0  0  0  0  0  0
    0.2735    0.4538    1.0525 C   0  0  0  0  0  0  0  0  0  0  0  0
    1.6777   -0.0924    0.9372 C   0  0  0  0  0  0  0  0  0  0  0  0
    1.8230   -0.7289   -0.2096 C   0  0  0  0  0  0  0  0  0  0  0  0
    0.5450   -0.6710   -0.9632 C   0  0  0  0  0  0  0  0  0  0  0  0
   -0.0617    0.7098   -1.0029 C   0  0  0  0  0  0  0  0  0  0  0  0
    0.1097    1.6272    0.1428 C   0  0  0  0  0  0  0  0  0  0  0  0
    0.1174    2.8199    0.2989 O   0  0  0  0  0  0  0  0  0  0  0  0
   -2.2073   -1.4508    0.7437 H   0  0  0  0  0  0  0  0  0  0  0  0
   -2.4535    0.2589    0.3432 H   0  0  0  0  0  0  0  0  0  0  0  0
   -2.2205   -0.8925   -0.9878 H   0  0  0  0  0  0  0  0  0  0  0  0
   -0.1111    0.5411    2.0546 H   0  0  0  0  0  0  0  0  0  0  0  0
    2.4603    0.0170    1.6828 H   0  0  0  0  0  0  0  0  0  0  0  0
    2.7229   -1.2076   -0.5359 H   0  0  0  0  0  0  0  0  0  0  0  0
    0.4148   -1.2728   -1.8519 H   0  0  0  0  0  0  0  0  0  0  0  0
   -0.7649    0.9190   -1.8088 H   0  0  0  0  0  0  0  0  0  0  0  0
  1  2  1  0
  2  3  1  0
  3  4  1  0
  4  5  2  0
  5  6  1  0
  6  7  1  0
  7  8  1  0
  8  9  2  0
  6  2  1  0
  7  2  1  0
  8  3  1  0
  1 10  1  0
  1 11  1  0
  1 12  1  0
  3 13  1  0
  4 14  1  0
  5 15  1  0
  6 16  1  0
  7 17  1  0
M  END
