
     RDKit          3D

 21 23  0  0  0  0  0  0  0  0999 V2000
    2.0653   -0.3611    0.1672 C   0  0  0  0  0  0  0  0  0  0  0  0
    0.7147    0.2430    0.1154 C   0  0  0  0  0  0  0  0  0  0  0  0
    0.4628    1.5173   -0.6753 C   0  0  0  0  0  0  0  0  0  0  0  0
   -1.0226    1.6282   -0.7629 C   0  0  0  0  0  0  0  0  0  0  0  0
   -1.6066    0.3722   -0.1263 C   0  0  0  0  0  0  0  0  0  0  0  0
   -1.5018    0.4798    1.2551 O   0  0  0  0  0  0  0  0  0  0  0  0
   -0.1849    0.0920    1.2995 C   0  0  0  0  0  0  0  0  0  0  0  0
   -0.4526   -0.5758   -0.0721 C   0  0  0  0  0  0  0  0  0  0  0  0
   -0.5872   -2.0292    0.0187 C   0  0  0  0  0  0  0  0  0  0  0  0
    2.6007    0.0199    1.0587 H   0  0  0  0  0  0  0  0  0  0  0  0
    2.6328   -0.2045   -0.7643 H   0  0  0  0  0  0  0  0  0  0  0  0
    1.9674   -1.4741    0.2775 H   0  0  0  0  0  0  0  0  0  0  0  0
    0.9045    1.4701   -1.6824 H   0  0  0  0  0  0  0  0  0  0  0  0
    0.8971    2.3471   -0.0634 H   0  0  0  0  0  0  0  0  0  0  0  0
   -1.4206    1.8245   -1.7594 H   0  0  0  0  0  0  0  0  0  0  0  0
   -1.3722    2.4746   -0.1096 H   0  0  0  0  0  0  0  0  0  0  0  0
   -2.5486    0.0214   -0.5333 H   0  0  0  0  0  0  0  0  0  0  0  0
    0.1959   -0.5303    2.1085 H   0  0  0  0  0  0  0  0  0  0  0  0
   -1.5793   -2.3764    0.4160 H   0  0  0  0  0  0  0  0  0  0  0  0
    0.1651   -2.4186    0.7664 H   0  0  0  0  0  0  0  0  0  0  0  0
   -0.3301   -2.5201   -0.9340 H   0  0  0  0  0  0  0  0  0  0  0  0
  1  2  1  0
  2  3  1  0
  3  4  1  0
  4  5  1  0
  5  6  1  0
  6  7  1  0
  7  8  1  0
  8  9  1  0
  7  2  1  0
  8  2  1  0
  8  5  1  0
  1 10  1  0
  1 11  1  0
  1 12  1  0
  3 13  1  0
  3 14  1  0
  4 15  1  0
  4 16  1  0
  5 17  1  0
  7 18  1  0
  9 19  1  0
  9 20  1  0
  9 21  1  0
M  END
