
     RDKit          3D

 23 24  0  0  0  0  0  0  0  0999 V2000
   -1.1635   -1.3143   -0.8104 C   0  0  0  0  0  0  0  0  0  0  0  0
   -0.7112   -0.1802    0.0360 C   0  0  0  0  0  0  0  0  0  0  0  0
   -1.0126    1.1797   -0.5632 C   0  0  0  0  0  0  0  0  0  0  0  0
    0.4221    1.1669   -1.1077 C   0  0  0  0  0  0  0  0  0  0  0  0
    0.7520    0.1822   -0.0383 C   0  0  0  0  0  0  0  0  0  0  0  0
    1.7066   -0.8990   -0.3393 C   0  0  0  0  0  0  0  0  0  0  0  0
    0.9567    0.8523    1.3093 C   0  0  0  0  0  0  0  0  0  0  0  0
    0.2491   -0.0300    2.1503 O   0  0  0  0  0  0  0  0  0  0  0  0
   -0.9420   -0.3089    1.5073 C   0  0  0  0  0  0  0  0  0  0  0  0
   -2.2497   -1.1673   -1.0708 H   0  0  0  0  0  0  0  0  0  0  0  0
   -0.6361   -1.3929   -1.7701 H   0  0  0  0  0  0  0  0  0  0  0  0
   -1.1420   -2.2539   -0.2125 H   0  0  0  0  0  0  0  0  0  0  0  0
   -1.7548    1.1328   -1.3942 H   0  0  0  0  0  0  0  0  0  0  0  0
   -1.2226    1.9843    0.1477 H   0  0  0  0  0  0  0  0  0  0  0  0
    0.9121    2.1579   -0.9864 H   0  0  0  0  0  0  0  0  0  0  0  0
    0.4504    0.7957   -2.1381 H   0  0  0  0  0  0  0  0  0  0  0  0
    1.8764   -1.0780   -1.4189 H   0  0  0  0  0  0  0  0  0  0  0  0
    2.7032   -0.6647    0.1002 H   0  0  0  0  0  0  0  0  0  0  0  0
    1.3673   -1.8435    0.1436 H   0  0  0  0  0  0  0  0  0  0  0  0
    0.4131    1.8138    1.3585 H   0  0  0  0  0  0  0  0  0  0  0  0
    2.0008    0.9175    1.6042 H   0  0  0  0  0  0  0  0  0  0  0  0
   -1.7753    0.3397    1.7926 H   0  0  0  0  0  0  0  0  0  0  0  0
   -1.1999   -1.3902    1.7002 H   0  0  0  0  0  0  0  0  0  0  0  0
  1  2  1  0
  2  3  1  0
  3  4  1  0
  4  5  1  0
  5  6  1  0
  5  7  1  0
  7  8  1  0
  8  9  1  0
  5  2  1  0
  9  2  1  0
  1 10  1  0
  1 11  1  0
  1 12  1  0
  3 13  1  0
  3 14  1  0
  4 15  1  0
  4 16  1  0
  6 17  1  0
  6 18  1  0
  6 19  1  0
  7 20  1  0
  7 21  1  0
  9 22  1  0
  9 23  1  0
M  END
