
     RDKit          3D

 19 21  0  0  0  0  0  0  0  0999 V2000
    1.9904   -0.0451   -0.2333 C   0  0  0  0  0  0  0  0  0  0  0  0
    0.6528   -0.2117   -0.0461 C   0  0  0  0  0  0  0  0  0  0  0  0
   -0.0845   -1.4513    0.3890 C   0  0  0  0  0  0  0  0  0  0  0  0
   -1.1852   -0.4527    0.1867 C   0  0  0  0  0  0  0  0  0  0  0  0
   -2.4206   -0.5984    0.3309 O   0  0  0  0  0  0  0  0  0  0  0  0
   -0.2855    0.5659    0.8251 C   0  0  0  0  0  0  0  0  0  0  0  0
   -0.5505    1.7964    0.0384 C   0  0  0  0  0  0  0  0  0  0  0  0
   -0.6671    1.2691   -1.2738 O   0  0  0  0  0  0  0  0  0  0  0  0
   -0.4498   -0.0694   -1.0770 C   0  0  0  0  0  0  0  0  0  0  0  0
    2.5958   -0.9962   -0.3003 H   0  0  0  0  0  0  0  0  0  0  0  0
    2.5252    0.5382    0.5767 H   0  0  0  0  0  0  0  0  0  0  0  0
    2.2842    0.5091   -1.1754 H   0  0  0  0  0  0  0  0  0  0  0  0
    0.0140   -2.2355   -0.3760 H   0  0  0  0  0  0  0  0  0  0  0  0
    0.0858   -1.7792    1.4178 H   0  0  0  0  0  0  0  0  0  0  0  0
   -2.7920   -1.4991    0.4559 H   0  0  0  0  0  0  0  0  0  0  0  0
   -0.1577    0.5854    1.8753 H   0  0  0  0  0  0  0  0  0  0  0  0
   -1.4477    2.3545    0.3163 H   0  0  0  0  0  0  0  0  0  0  0  0
    0.3529    2.4718   -0.0298 H   0  0  0  0  0  0  0  0  0  0  0  0
   -0.4606   -0.7519   -1.9005 H   0  0  0  0  0  0  0  0  0  0  0  0
  1  2  1  0
  2  3  1  0
  3  4  1  0
  4  5  1  0
  4  6  1  0
  6  7  1  0
  7  8  1  0
  8  9  1  0
  6  2  1  0
  9  2  1  0
  9  4  1  0
  1 10  1  0
  1 11  1  0
  1 12  1  0
  3 13  1  0
  3 14  1  0
  5 15  1  0
  6 16  1  0
  7 17  1  0
  7 18  1  0
  9 19  1  0
M  END
