
     RDKit          3D

 17 19  0  0  0  0  0  0  0  0999 V2000
    1.7542   -0.5087    0.8324 C   0  0  0  0  0  0  0  0  0  0  0  0
    0.5757    0.0687    0.1577 C   0  0  0  0  0  0  0  0  0  0  0  0
    0.3898    1.5299    0.0176 C   0  0  0  0  0  0  0  0  0  0  0  0
   -0.8323    1.7474   -0.4396 C   0  0  0  0  0  0  0  0  0  0  0  0
   -1.5657    0.4710   -0.6444 C   0  0  0  0  0  0  0  0  0  0  0  0
   -1.0361   -0.1753   -1.7595 O   0  0  0  0  0  0  0  0  0  0  0  0
   -0.0105   -0.7201   -1.0100 C   0  0  0  0  0  0  0  0  0  0  0  0
   -0.7784   -0.4673    0.2084 C   0  0  0  0  0  0  0  0  0  0  0  0
   -1.2876   -1.3707    1.0513 O   0  0  0  0  0  0  0  0  0  0  0  0
    2.6652   -0.2641    0.2175 H   0  0  0  0  0  0  0  0  0  0  0  0
    1.6724   -1.6053    0.8346 H   0  0  0  0  0  0  0  0  0  0  0  0
    1.8857   -0.1897    1.8899 H   0  0  0  0  0  0  0  0  0  0  0  0
    1.1116    2.2771    0.2443 H   0  0  0  0  0  0  0  0  0  0  0  0
   -1.2636    2.7122   -0.6449 H   0  0  0  0  0  0  0  0  0  0  0  0
   -2.6416    0.4913   -0.5431 H   0  0  0  0  0  0  0  0  0  0  0  0
    0.4462   -1.6755   -1.2679 H   0  0  0  0  0  0  0  0  0  0  0  0
   -1.0849   -2.3209    0.8559 H   0  0  0  0  0  0  0  0  0  0  0  0
  1  2  1  0
  2  3  1  0
  3  4  2  0
  4  5  1  0
  5  6  1  0
  6  7  1  0
  7  8  1  0
  8  9  1  0
  7  2  1  0
  8  2  1  0
  8  5  1  0
  1 10  1  0
  1 11  1  0
  1 12  1  0
  3 13  1  0
  4 14  1  0
  5 15  1  0
  7 16  1  0
  9 17  1  0
M  END
