
     RDKit          3D

 19 21  0  0  0  0  0  0  0  0999 V2000
   -1.5100    1.4863   -0.1070 C   0  0  0  0  0  0  0  0  0  0  0  0
   -0.5072    0.3689   -0.2966 C   0  0  0  0  0  0  0  0  0  0  0  0
   -0.9509   -0.9126   -0.8594 C   0  0  0  0  0  0  0  0  0  0  0  0
   -0.7245   -0.8889    0.5854 C   0  0  0  0  0  0  0  0  0  0  0  0
    0.6834   -1.0674    1.1245 C   0  0  0  0  0  0  0  0  0  0  0  0
    1.5203   -1.4452    0.0777 O   0  0  0  0  0  0  0  0  0  0  0  0
    1.9105   -0.2638   -0.5650 C   0  0  0  0  0  0  0  0  0  0  0  0
    0.8995    0.7143    0.0126 C   0  0  0  0  0  0  0  0  0  0  0  0
    0.9912    0.2943    1.3670 O   0  0  0  0  0  0  0  0  0  0  0  0
   -1.3898    1.8235    0.9648 H   0  0  0  0  0  0  0  0  0  0  0  0
   -2.5453    1.1546   -0.2719 H   0  0  0  0  0  0  0  0  0  0  0  0
   -1.2152    2.3010   -0.7833 H   0  0  0  0  0  0  0  0  0  0  0  0
   -2.0090   -0.9471   -1.1929 H   0  0  0  0  0  0  0  0  0  0  0  0
   -0.2963   -1.5727   -1.4569 H   0  0  0  0  0  0  0  0  0  0  0  0
   -1.5714   -0.8409    1.2926 H   0  0  0  0  0  0  0  0  0  0  0  0
    0.7490   -1.6819    2.0065 H   0  0  0  0  0  0  0  0  0  0  0  0
    2.8948    0.0470   -0.1392 H   0  0  0  0  0  0  0  0  0  0  0  0
    1.8925   -0.3258   -1.6427 H   0  0  0  0  0  0  0  0  0  0  0  0
    1.1785    1.7566   -0.1162 H   0  0  0  0  0  0  0  0  0  0  0  0
  1  2  1  0
  2  3  1  0
  3  4  1  0
  4  5  1  0
  5  6  1  0
  6  7  1  0
  7  8  1  0
  8  9  1  0
  4  2  1  0
  9  5  1  0
  8  2  1  0
  1 10  1  0
  1 11  1  0
  1 12  1  0
  3 13  1  0
  3 14  1  0
  4 15  1  0
  5 16  1  0
  7 17  1  0
  7 18  1  0
  8 19  1  0
M  END
