
     RDKit          3D

 21 22  0  0  0  0  0  0  0  0999 V2000
   -1.0026   -1.6315   -0.2522 C   0  0  0  0  0  0  0  0  0  0  0  0
   -0.1994   -0.4214    0.1534 C   0  0  0  0  0  0  0  0  0  0  0  0
    0.7255   -0.6725    1.3107 C   0  0  0  0  0  0  0  0  0  0  0  0
    1.9306    0.0745    0.9053 C   0  0  0  0  0  0  0  0  0  0  0  0
    1.8956    0.4894   -0.3440 C   0  0  0  0  0  0  0  0  0  0  0  0
    0.6441    0.0762   -0.9705 C   0  0  0  0  0  0  0  0  0  0  0  0
   -0.3810    1.1932   -1.1734 C   0  0  0  0  0  0  0  0  0  0  0  0
   -0.9346    0.8742    0.2015 C   0  0  0  0  0  0  0  0  0  0  0  0
   -2.3232    0.7792    0.2504 O   0  0  0  0  0  0  0  0  0  0  0  0
   -1.1133   -2.2541    0.6827 H   0  0  0  0  0  0  0  0  0  0  0  0
   -1.9890   -1.3811   -0.6604 H   0  0  0  0  0  0  0  0  0  0  0  0
   -0.4374   -2.1874   -1.0309 H   0  0  0  0  0  0  0  0  0  0  0  0
    0.3033   -0.2874    2.2651 H   0  0  0  0  0  0  0  0  0  0  0  0
    0.8904   -1.7638    1.4037 H   0  0  0  0  0  0  0  0  0  0  0  0
    2.7729    0.2665    1.5758 H   0  0  0  0  0  0  0  0  0  0  0  0
    2.6907    1.0717   -0.8697 H   0  0  0  0  0  0  0  0  0  0  0  0
    0.7069   -0.5689   -1.8689 H   0  0  0  0  0  0  0  0  0  0  0  0
    0.1747    2.1618   -1.2373 H   0  0  0  0  0  0  0  0  0  0  0  0
   -1.1084    0.9919   -1.9566 H   0  0  0  0  0  0  0  0  0  0  0  0
   -0.5476    1.6093    0.9459 H   0  0  0  0  0  0  0  0  0  0  0  0
   -2.6981    1.5801    0.6692 H   0  0  0  0  0  0  0  0  0  0  0  0
  1  2  1  0
  2  3  1  0
  3  4  1  0
  4  5  2  0
  5  6  1  0
  6  7  1  0
  7  8  1  0
  8  9  1  0
  6  2  1  0
  8  2  1  0
  1 10  1  0
  1 11  1  0
  1 12  1  0
  3 13  1  0
  3 14  1  0
  4 15  1  0
  5 16  1  0
  6 17  1  0
  7 18  1  0
  7 19  1  0
  8 20  1  0
  9 21  1  0
M  END
