
     RDKit          3D

 21 23  0  0  0  0  0  0  0  0999 V2000
   -0.3980    1.9760   -0.1690 C   0  0  0  0  0  0  0  0  0  0  0  0
   -0.3160    0.5404   -0.0740 C   0  0  0  0  0  0  0  0  0  0  0  0
   -1.4291   -0.3025   -0.7182 C   0  0  0  0  0  0  0  0  0  0  0  0
   -0.9830   -1.3371    0.2990 C   0  0  0  0  0  0  0  0  0  0  0  0
   -0.7658   -0.1357    1.2299 C   0  0  0  0  0  0  0  0  0  0  0  0
    0.4118   -1.6455   -0.1400 C   0  0  0  0  0  0  0  0  0  0  0  0
    0.9279   -0.2102   -0.3658 C   0  0  0  0  0  0  0  0  0  0  0  0
    2.2245    0.1353    0.0319 C   0  0  0  0  0  0  0  0  0  0  0  0
    1.7635    0.0594   -1.3892 O   0  0  0  0  0  0  0  0  0  0  0  0
    0.5576    2.5071   -0.3145 H   0  0  0  0  0  0  0  0  0  0  0  0
   -0.9327    2.3988    0.7157 H   0  0  0  0  0  0  0  0  0  0  0  0
   -1.0358    2.2717   -1.0531 H   0  0  0  0  0  0  0  0  0  0  0  0
   -1.2420   -0.5530   -1.7610 H   0  0  0  0  0  0  0  0  0  0  0  0
   -2.4167    0.1331   -0.4644 H   0  0  0  0  0  0  0  0  0  0  0  0
   -1.6526   -2.0900    0.6056 H   0  0  0  0  0  0  0  0  0  0  0  0
   -1.6747    0.2998    1.6308 H   0  0  0  0  0  0  0  0  0  0  0  0
    0.0934   -0.2791    1.8967 H   0  0  0  0  0  0  0  0  0  0  0  0
    1.0321   -2.1473    0.6163 H   0  0  0  0  0  0  0  0  0  0  0  0
    0.3574   -2.1883   -1.1041 H   0  0  0  0  0  0  0  0  0  0  0  0
    2.4827    1.2060    0.2745 H   0  0  0  0  0  0  0  0  0  0  0  0
    2.9955   -0.6389    0.2527 H   0  0  0  0  0  0  0  0  0  0  0  0
  1  2  1  0
  2  3  1  0
  3  4  1  0
  4  5  1  0
  4  6  1  0
  6  7  1  0
  7  8  1  0
  8  9  1  0
  5  2  1  0
  9  7  1  0
  7  2  1  0
  1 10  1  0
  1 11  1  0
  1 12  1  0
  3 13  1  0
  3 14  1  0
  4 15  1  0
  5 16  1  0
  5 17  1  0
  6 18  1  0
  6 19  1  0
  8 20  1  0
  8 21  1  0
M  END
