
     RDKit          3D

 21 22  0  0  0  0  0  0  0  0999 V2000
   -2.2760    0.0194   -0.0748 C   0  0  0  0  0  0  0  0  0  0  0  0
   -0.7924   -0.0621   -0.0232 C   0  0  0  0  0  0  0  0  0  0  0  0
   -0.1049    1.2574   -0.3092 C   0  0  0  0  0  0  0  0  0  0  0  0
    1.2657    1.2145    0.3254 C   0  0  0  0  0  0  0  0  0  0  0  0
    1.8949   -0.1187   -0.0210 C   0  0  0  0  0  0  0  0  0  0  0  0
    0.8830   -1.2093    0.3007 C   0  0  0  0  0  0  0  0  0  0  0  0
   -0.1601   -1.1892   -0.8286 C   0  0  0  0  0  0  0  0  0  0  0  0
   -0.1985   -0.7007    1.1770 C   0  0  0  0  0  0  0  0  0  0  0  0
   -0.4755   -0.7727    2.3481 O   0  0  0  0  0  0  0  0  0  0  0  0
   -2.7491   -0.6903   -0.7940 H   0  0  0  0  0  0  0  0  0  0  0  0
   -2.7002   -0.1001    0.9546 H   0  0  0  0  0  0  0  0  0  0  0  0
   -2.5864    1.0388   -0.4426 H   0  0  0  0  0  0  0  0  0  0  0  0
    0.0406    1.4208   -1.3993 H   0  0  0  0  0  0  0  0  0  0  0  0
   -0.6878    2.0471    0.1829 H   0  0  0  0  0  0  0  0  0  0  0  0
    1.8828    2.0528   -0.1086 H   0  0  0  0  0  0  0  0  0  0  0  0
    1.1981    1.3878    1.4106 H   0  0  0  0  0  0  0  0  0  0  0  0
    1.9946   -0.1307   -1.1372 H   0  0  0  0  0  0  0  0  0  0  0  0
    2.8523   -0.2685    0.4788 H   0  0  0  0  0  0  0  0  0  0  0  0
    1.2915   -2.1903    0.5291 H   0  0  0  0  0  0  0  0  0  0  0  0
    0.2270   -0.9178   -1.8070 H   0  0  0  0  0  0  0  0  0  0  0  0
   -0.7997   -2.0880   -0.7615 H   0  0  0  0  0  0  0  0  0  0  0  0
  1  2  1  0
  2  3  1  0
  3  4  1  0
  4  5  1  0
  5  6  1  0
  6  7  1  0
  6  8  1  0
  8  9  2  0
  7  2  1  0
  8  2  1  0
  1 10  1  0
  1 11  1  0
  1 12  1  0
  3 13  1  0
  3 14  1  0
  4 15  1  0
  4 16  1  0
  5 17  1  0
  5 18  1  0
  6 19  1  0
  7 20  1  0
  7 21  1  0
M  END
