
     RDKit          3D

 25 26  0  0  0  0  0  0  0  0999 V2000
   -0.6894   -1.9173    0.4439 C   0  0  0  0  0  0  0  0  0  0  0  0
   -0.6084   -0.5114    0.1522 C   0  0  0  0  0  0  0  0  0  0  0  0
   -1.4230    0.0849   -0.9741 C   0  0  0  0  0  0  0  0  0  0  0  0
   -0.9268    1.5401   -0.8760 C   0  0  0  0  0  0  0  0  0  0  0  0
   -0.0002    1.4043    0.2929 C   0  0  0  0  0  0  0  0  0  0  0  0
   -0.8363    0.5209    1.2336 C   0  0  0  0  0  0  0  0  0  0  0  0
    0.7780    0.1354    0.0169 C   0  0  0  0  0  0  0  0  0  0  0  0
    1.3426   -0.0181   -1.3437 C   0  0  0  0  0  0  0  0  0  0  0  0
    1.6754   -0.1877    1.1638 C   0  0  0  0  0  0  0  0  0  0  0  0
   -1.4258   -2.2009    1.2518 H   0  0  0  0  0  0  0  0  0  0  0  0
    0.2802   -2.4350    0.6871 H   0  0  0  0  0  0  0  0  0  0  0  0
   -1.0661   -2.4834   -0.4601 H   0  0  0  0  0  0  0  0  0  0  0  0
   -2.4893    0.0311   -0.6498 H   0  0  0  0  0  0  0  0  0  0  0  0
   -1.2258   -0.3517   -1.9485 H   0  0  0  0  0  0  0  0  0  0  0  0
   -0.3913    1.7506   -1.8168 H   0  0  0  0  0  0  0  0  0  0  0  0
   -1.7499    2.2398   -0.7139 H   0  0  0  0  0  0  0  0  0  0  0  0
    0.4893    2.2422    0.7094 H   0  0  0  0  0  0  0  0  0  0  0  0
   -1.8647    0.9472    1.2658 H   0  0  0  0  0  0  0  0  0  0  0  0
   -0.3457    0.3469    2.1881 H   0  0  0  0  0  0  0  0  0  0  0  0
    1.4723    0.8956   -1.9218 H   0  0  0  0  0  0  0  0  0  0  0  0
    2.3713   -0.4741   -1.2437 H   0  0  0  0  0  0  0  0  0  0  0  0
    0.7627   -0.8047   -1.9096 H   0  0  0  0  0  0  0  0  0  0  0  0
    2.7393   -0.3009    0.8184 H   0  0  0  0  0  0  0  0  0  0  0  0
    1.4247   -1.0958    1.7154 H   0  0  0  0  0  0  0  0  0  0  0  0
    1.7068    0.6417    1.9183 H   0  0  0  0  0  0  0  0  0  0  0  0
  1  2  1  0
  2  3  1  0
  3  4  1  0
  4  5  1  0
  5  6  1  0
  5  7  1  0
  7  8  1  0
  7  9  1  0
  6  2  1  0
  7  2  1  0
  1 10  1  0
  1 11  1  0
  1 12  1  0
  3 13  1  0
  3 14  1  0
  4 15  1  0
  4 16  1  0
  5 17  1  0
  6 18  1  0
  6 19  1  0
  8 20  1  0
  8 21  1  0
  8 22  1  0
  9 23  1  0
  9 24  1  0
  9 25  1  0
M  END
