
     RDKit          3D

 21 23  0  0  0  0  0  0  0  0999 V2000
    2.4736    0.3087   -0.2912 C   0  0  0  0  0  0  0  0  0  0  0  0
    0.9846    0.2024   -0.0374 C   0  0  0  0  0  0  0  0  0  0  0  0
    0.2846    1.3856    0.5359 C   0  0  0  0  0  0  0  0  0  0  0  0
   -1.0117    1.5645    0.3644 C   0  0  0  0  0  0  0  0  0  0  0  0
   -1.8990    0.6493   -0.3888 C   0  0  0  0  0  0  0  0  0  0  0  0
   -1.2714   -0.7175   -0.4835 C   0  0  0  0  0  0  0  0  0  0  0  0
   -0.8409   -1.3006    0.8553 C   0  0  0  0  0  0  0  0  0  0  0  0
    0.5704   -1.1816    0.3816 C   0  0  0  0  0  0  0  0  0  0  0  0
    0.1435   -0.5959   -0.9211 C   0  0  0  0  0  0  0  0  0  0  0  0
    2.9791   -0.2974    0.5009 H   0  0  0  0  0  0  0  0  0  0  0  0
    2.8441    1.3468   -0.2002 H   0  0  0  0  0  0  0  0  0  0  0  0
    2.7018   -0.1557   -1.2574 H   0  0  0  0  0  0  0  0  0  0  0  0
    0.8228    2.1445    1.1174 H   0  0  0  0  0  0  0  0  0  0  0  0
   -1.4966    2.4506    0.8023 H   0  0  0  0  0  0  0  0  0  0  0  0
   -2.0402    1.0177   -1.4208 H   0  0  0  0  0  0  0  0  0  0  0  0
   -2.8918    0.6206    0.1085 H   0  0  0  0  0  0  0  0  0  0  0  0
   -1.8779   -1.4539   -1.0218 H   0  0  0  0  0  0  0  0  0  0  0  0
   -1.0261   -0.6511    1.7195 H   0  0  0  0  0  0  0  0  0  0  0  0
   -1.2184   -2.3182    1.0599 H   0  0  0  0  0  0  0  0  0  0  0  0
    1.2889   -1.9944    0.4568 H   0  0  0  0  0  0  0  0  0  0  0  0
    0.4806   -1.0244   -1.8801 H   0  0  0  0  0  0  0  0  0  0  0  0
  1  2  1  0
  2  3  1  0
  3  4  2  0
  4  5  1  0
  5  6  1  0
  6  7  1  0
  7  8  1  0
  8  9  1  0
  8  2  1  0
  9  2  1  0
  9  6  1  0
  1 10  1  0
  1 11  1  0
  1 12  1  0
  3 13  1  0
  4 14  1  0
  5 15  1  0
  5 16  1  0
  6 17  1  0
  7 18  1  0
  7 19  1  0
  8 20  1  0
  9 21  1  0
M  END
