
     RDKit          3D

 19 20  0  0  0  0  0  0  0  0999 V2000
    2.2988    0.9015    0.3472 C   0  0  0  0  0  0  0  0  0  0  0  0
    1.0746    0.2038   -0.0853 C   0  0  0  0  0  0  0  0  0  0  0  0
    1.0072   -1.2603   -0.3278 C   0  0  0  0  0  0  0  0  0  0  0  0
    0.2007   -0.6093    0.7286 C   0  0  0  0  0  0  0  0  0  0  0  0
   -0.9462    0.2935    0.3322 C   0  0  0  0  0  0  0  0  0  0  0  0
   -2.0607   -0.5480   -0.2332 C   0  0  0  0  0  0  0  0  0  0  0  0
   -3.1599    0.1781   -0.6277 O   0  0  0  0  0  0  0  0  0  0  0  0
   -0.0808    0.9657   -0.6550 C   0  0  0  0  0  0  0  0  0  0  0  0
   -0.1215    1.7744   -1.5645 O   0  0  0  0  0  0  0  0  0  0  0  0
    3.1569    0.5327   -0.2652 H   0  0  0  0  0  0  0  0  0  0  0  0
    2.5673    0.7900    1.4054 H   0  0  0  0  0  0  0  0  0  0  0  0
    2.1701    1.9955    0.1668 H   0  0  0  0  0  0  0  0  0  0  0  0
    1.8330   -1.9026   -0.0057 H   0  0  0  0  0  0  0  0  0  0  0  0
    0.5453   -1.5668   -1.3043 H   0  0  0  0  0  0  0  0  0  0  0  0
    0.3494   -0.8898    1.7731 H   0  0  0  0  0  0  0  0  0  0  0  0
   -1.2764    0.9240    1.1956 H   0  0  0  0  0  0  0  0  0  0  0  0
   -2.3783   -1.2473    0.5695 H   0  0  0  0  0  0  0  0  0  0  0  0
   -1.6548   -1.1650   -1.0588 H   0  0  0  0  0  0  0  0  0  0  0  0
   -3.5247    0.6301    0.1742 H   0  0  0  0  0  0  0  0  0  0  0  0
  1  2  1  0
  2  3  1  0
  3  4  1  0
  4  5  1  0
  5  6  1  0
  6  7  1  0
  5  8  1  0
  8  9  2  0
  4  2  1  0
  8  2  1  0
  1 10  1  0
  1 11  1  0
  1 12  1  0
  3 13  1  0
  3 14  1  0
  4 15  1  0
  5 16  1  0
  6 17  1  0
  6 18  1  0
  7 19  1  0
M  END
