
     RDKit          3D

 17 18  0  0  0  0  0  0  0  0999 V2000
    1.8234    0.5247    0.2185 C   0  0  0  0  0  0  0  0  0  0  0  0
    0.4083    0.3004    0.1102 C   0  0  0  0  0  0  0  0  0  0  0  0
   -0.2397   -0.4521    1.2461 C   0  0  0  0  0  0  0  0  0  0  0  0
   -1.3548   -0.9999    0.7705 C   0  0  0  0  0  0  0  0  0  0  0  0
   -1.5112   -0.5370   -0.6300 C   0  0  0  0  0  0  0  0  0  0  0  0
   -0.0362   -0.5878   -1.0722 C   0  0  0  0  0  0  0  0  0  0  0  0
   -1.6650    0.8964   -0.5944 O   0  0  0  0  0  0  0  0  0  0  0  0
   -0.4762    1.4459   -0.1447 C   0  0  0  0  0  0  0  0  0  0  0  0
   -0.2271    2.6440    0.0052 O   0  0  0  0  0  0  0  0  0  0  0  0
    2.2755   -0.1394    1.0119 H   0  0  0  0  0  0  0  0  0  0  0  0
    2.3405    0.1999   -0.7313 H   0  0  0  0  0  0  0  0  0  0  0  0
    2.1767    1.5491    0.4640 H   0  0  0  0  0  0  0  0  0  0  0  0
    0.1665   -0.5061    2.2439 H   0  0  0  0  0  0  0  0  0  0  0  0
   -1.9701   -1.6544    1.3787 H   0  0  0  0  0  0  0  0  0  0  0  0
   -2.1861   -1.0543   -1.2533 H   0  0  0  0  0  0  0  0  0  0  0  0
    0.3792   -1.5838   -1.0156 H   0  0  0  0  0  0  0  0  0  0  0  0
    0.0964   -0.0457   -2.0075 H   0  0  0  0  0  0  0  0  0  0  0  0
  1  2  1  0
  2  3  1  0
  3  4  2  0
  4  5  1  0
  5  6  1  0
  5  7  1  0
  7  8  1  0
  8  9  2  0
  6  2  1  0
  8  2  1  0
  1 10  1  0
  1 11  1  0
  1 12  1  0
  3 13  1  0
  4 14  1  0
  5 15  1  0
  6 16  1  0
  6 17  1  0
M  END
