
     RDKit          3D

 21 22  0  0  0  0  0  0  0  0999 V2000
    2.0190    0.4050    0.3165 C   0  0  0  0  0  0  0  0  0  0  0  0
    0.6574    0.0261   -0.0218 C   0  0  0  0  0  0  0  0  0  0  0  0
    0.5139   -1.3201   -0.6843 C   0  0  0  0  0  0  0  0  0  0  0  0
   -0.6821   -1.8249   -0.4036 C   0  0  0  0  0  0  0  0  0  0  0  0
   -1.4095   -0.7509    0.3198 C   0  0  0  0  0  0  0  0  0  0  0  0
   -1.5580    0.3958   -0.6491 C   0  0  0  0  0  0  0  0  0  0  0  0
   -0.1868    1.0603   -0.7103 C   0  0  0  0  0  0  0  0  0  0  0  0
   -0.2815    2.2007    0.0608 O   0  0  0  0  0  0  0  0  0  0  0  0
   -0.2535   -0.2304    1.1958 C   0  0  0  0  0  0  0  0  0  0  0  0
    2.7268   -0.0140   -0.4582 H   0  0  0  0  0  0  0  0  0  0  0  0
    2.1878    1.4779    0.3368 H   0  0  0  0  0  0  0  0  0  0  0  0
    2.3558   -0.0336    1.2850 H   0  0  0  0  0  0  0  0  0  0  0  0
    1.2526   -1.8189   -1.2965 H   0  0  0  0  0  0  0  0  0  0  0  0
   -1.0944   -2.7946   -0.6252 H   0  0  0  0  0  0  0  0  0  0  0  0
   -2.2742   -1.0377    0.8621 H   0  0  0  0  0  0  0  0  0  0  0  0
   -1.7434   -0.0408   -1.6711 H   0  0  0  0  0  0  0  0  0  0  0  0
   -2.3605    1.0869   -0.4049 H   0  0  0  0  0  0  0  0  0  0  0  0
    0.1199    1.2595   -1.7525 H   0  0  0  0  0  0  0  0  0  0  0  0
    0.3632    2.2774    0.7764 H   0  0  0  0  0  0  0  0  0  0  0  0
    0.1703   -1.0145    1.8191 H   0  0  0  0  0  0  0  0  0  0  0  0
   -0.5228    0.6908    1.7052 H   0  0  0  0  0  0  0  0  0  0  0  0
  1  2  1  0
  2  3  1  0
  3  4  2  0
  4  5  1  0
  5  6  1  0
  6  7  1  0
  7  8  1  0
  5  9  1  0
  7  2  1  0
  9  2  1  0
  1 10  1  0
  1 11  1  0
  1 12  1  0
  3 13  1  0
  4 14  1  0
  5 15  1  0
  6 16  1  0
  6 17  1  0
  7 18  1  0
  8 19  1  0
  9 20  1  0
  9 21  1  0
M  END
