
     RDKit          3D

 21 24  0  0  0  0  0  0  0  0999 V2000
   -0.1819    1.9510   -0.7379 C   0  0  0  0  0  0  0  0  0  0  0  0
   -0.4979    0.5634   -0.4935 C   0  0  0  0  0  0  0  0  0  0  0  0
   -1.0545    0.1819    0.9644 C   0  0  0  0  0  0  0  0  0  0  0  0
    0.1349    0.3117    1.0170 C   0  0  0  0  0  0  0  0  0  0  0  0
    0.1221   -0.8729    1.1595 C   0  0  0  0  0  0  0  0  0  0  0  0
    0.7197   -0.5052   -0.2893 C   0  0  0  0  0  0  0  0  0  0  0  0
    2.0854   -0.0257   -0.3454 C   0  0  0  0  0  0  0  0  0  0  0  0
   -0.4534   -0.5964   -0.2707 C   0  0  0  0  0  0  0  0  0  0  0  0
   -1.4406   -1.6150   -0.1267 C   0  0  0  0  0  0  0  0  0  0  0  0
   -0.6516    2.5942    0.0655 H   0  0  0  0  0  0  0  0  0  0  0  0
    0.8372    2.2933   -0.8409 H   0  0  0  0  0  0  0  0  0  0  0  0
   -0.7215    2.2873   -1.6755 H   0  0  0  0  0  0  0  0  0  0  0  0
   -2.0588   -0.0309    1.0759 H   0  0  0  0  0  0  0  0  0  0  0  0
    0.8417    1.1011    0.8121 H   0  0  0  0  0  0  0  0  0  0  0  0
   -0.0094   -1.8680    1.4032 H   0  0  0  0  0  0  0  0  0  0  0  0
    2.5400   -0.0170    0.6905 H   0  0  0  0  0  0  0  0  0  0  0  0
    2.7142   -0.8017   -0.8829 H   0  0  0  0  0  0  0  0  0  0  0  0
    2.3246    0.9158   -0.8160 H   0  0  0  0  0  0  0  0  0  0  0  0
   -1.8983   -2.0010    0.7599 H   0  0  0  0  0  0  0  0  0  0  0  0
   -2.3154   -1.3319   -0.8021 H   0  0  0  0  0  0  0  0  0  0  0  0
   -1.0364   -2.5340   -0.6671 H   0  0  0  0  0  0  0  0  0  0  0  0
  1  2  1  0
  2  3  1  0
  3  4  1  0
  4  5  1  0
  5  6  1  0
  6  7  1  0
  6  8  1  0
  8  9  1  0
  6  2  1  0
  8  2  1  0
  5  3  1  0
  8  4  1  0
  1 10  1  0
  1 11  1  0
  1 12  1  0
  3 13  1  0
  4 14  1  0
  5 15  1  0
  7 16  1  0
  7 17  1  0
  7 18  1  0
  9 19  1  0
  9 20  1  0
  9 21  1  0
M  END
