
     RDKit          3D

 19 20  0  0  0  0  0  0  0  0999 V2000
    0.8444   -1.5592   -0.1539 C   0  0  0  0  0  0  0  0  0  0  0  0
    0.2014   -0.3338    0.4083 C   0  0  0  0  0  0  0  0  0  0  0  0
    0.9006    0.6182    1.2826 C   0  0  0  0  0  0  0  0  0  0  0  0
    0.8024    0.9762   -0.1328 C   0  0  0  0  0  0  0  0  0  0  0  0
    1.9717    0.8823   -0.8879 O   0  0  0  0  0  0  0  0  0  0  0  0
   -0.3585    1.5487   -0.7966 C   0  0  0  0  0  0  0  0  0  0  0  0
   -1.5024    0.9592   -0.5558 C   0  0  0  0  0  0  0  0  0  0  0  0
   -1.2898   -0.1696    0.3612 C   0  0  0  0  0  0  0  0  0  0  0  0
   -1.9238   -1.3354   -0.0748 O   0  0  0  0  0  0  0  0  0  0  0  0
    0.9866   -1.3761   -1.2590 H   0  0  0  0  0  0  0  0  0  0  0  0
    0.1600   -2.4282   -0.0943 H   0  0  0  0  0  0  0  0  0  0  0  0
    1.8097   -1.7549    0.3350 H   0  0  0  0  0  0  0  0  0  0  0  0
    1.8779    0.3146    1.6635 H   0  0  0  0  0  0  0  0  0  0  0  0
    0.2995    1.1657    2.0527 H   0  0  0  0  0  0  0  0  0  0  0  0
    1.8121    0.6367   -1.8172 H   0  0  0  0  0  0  0  0  0  0  0  0
   -0.2921    2.4273   -1.4655 H   0  0  0  0  0  0  0  0  0  0  0  0
   -2.5080    1.2204   -0.9496 H   0  0  0  0  0  0  0  0  0  0  0  0
   -1.7211    0.0929    1.3521 H   0  0  0  0  0  0  0  0  0  0  0  0
   -2.0707   -1.8849    0.7319 H   0  0  0  0  0  0  0  0  0  0  0  0
  1  2  1  0
  2  3  1  0
  3  4  1  0
  4  5  1  0
  4  6  1  0
  6  7  2  0
  7  8  1  0
  8  9  1  0
  4  2  1  0
  8  2  1  0
  1 10  1  0
  1 11  1  0
  1 12  1  0
  3 13  1  0
  3 14  1  0
  5 15  1  0
  6 16  1  0
  7 17  1  0
  8 18  1  0
  9 19  1  0
M  END
