
     RDKit          3D

 21 22  0  0  0  0  0  0  0  0999 V2000
   -1.3436    1.5485    0.3992 C   0  0  0  0  0  0  0  0  0  0  0  0
   -0.1737    0.7141    0.3447 C   0  0  0  0  0  0  0  0  0  0  0  0
    1.0034    1.1601   -0.5381 C   0  0  0  0  0  0  0  0  0  0  0  0
    1.2973   -0.3483   -0.4966 C   0  0  0  0  0  0  0  0  0  0  0  0
    1.5412   -0.5059    0.9755 C   0  0  0  0  0  0  0  0  0  0  0  0
    0.4229    0.2147    1.4746 O   0  0  0  0  0  0  0  0  0  0  0  0
   -0.1987   -0.5210   -0.5720 C   0  0  0  0  0  0  0  0  0  0  0  0
   -0.6986   -1.7690    0.0947 C   0  0  0  0  0  0  0  0  0  0  0  0
   -0.7676   -0.2881   -1.8080 O   0  0  0  0  0  0  0  0  0  0  0  0
   -1.1734    2.5144   -0.1539 H   0  0  0  0  0  0  0  0  0  0  0  0
   -1.7183    1.8336    1.4060 H   0  0  0  0  0  0  0  0  0  0  0  0
   -2.2252    1.0838   -0.1268 H   0  0  0  0  0  0  0  0  0  0  0  0
    1.7324    1.7222    0.0576 H   0  0  0  0  0  0  0  0  0  0  0  0
    0.7214    1.5453   -1.5165 H   0  0  0  0  0  0  0  0  0  0  0  0
    1.9332   -0.7593   -1.2191 H   0  0  0  0  0  0  0  0  0  0  0  0
    1.5396   -1.5383    1.3255 H   0  0  0  0  0  0  0  0  0  0  0  0
    2.4278    0.0836    1.3126 H   0  0  0  0  0  0  0  0  0  0  0  0
   -0.2745   -2.6706   -0.3940 H   0  0  0  0  0  0  0  0  0  0  0  0
   -1.7974   -1.8373   -0.0337 H   0  0  0  0  0  0  0  0  0  0  0  0
   -0.5066   -1.7424    1.1806 H   0  0  0  0  0  0  0  0  0  0  0  0
   -1.7415   -0.4401   -1.7122 H   0  0  0  0  0  0  0  0  0  0  0  0
  1  2  1  0
  2  3  1  0
  3  4  1  0
  4  5  1  0
  5  6  1  0
  4  7  1  0
  7  8  1  0
  7  9  1  0
  6  2  1  0
  7  2  1  0
  1 10  1  0
  1 11  1  0
  1 12  1  0
  3 13  1  0
  3 14  1  0
  4 15  1  0
  5 16  1  0
  5 17  1  0
  8 18  1  0
  8 19  1  0
  8 20  1  0
  9 21  1  0
M  END
