
     RDKit          3D

 19 21  0  0  0  0  0  0  0  0999 V2000
   -2.1270   -0.5840    0.3228 C   0  0  0  0  0  0  0  0  0  0  0  0
   -0.6954   -0.0821    0.2355 C   0  0  0  0  0  0  0  0  0  0  0  0
   -0.5283    1.2682   -0.3595 C   0  0  0  0  0  0  0  0  0  0  0  0
    0.8636    1.7592   -0.1887 C   0  0  0  0  0  0  0  0  0  0  0  0
    1.8346    0.8630   -0.1797 C   0  0  0  0  0  0  0  0  0  0  0  0
    1.6384   -0.5931   -0.3270 C   0  0  0  0  0  0  0  0  0  0  0  0
    0.8591   -1.2132    0.8196 C   0  0  0  0  0  0  0  0  0  0  0  0
   -0.0461   -0.3602    1.4294 O   0  0  0  0  0  0  0  0  0  0  0  0
    0.2397   -1.0167   -0.4878 C   0  0  0  0  0  0  0  0  0  0  0  0
   -2.1282   -1.6880    0.4407 H   0  0  0  0  0  0  0  0  0  0  0  0
   -2.5504   -0.1182    1.2544 H   0  0  0  0  0  0  0  0  0  0  0  0
   -2.7185   -0.3177   -0.5779 H   0  0  0  0  0  0  0  0  0  0  0  0
   -1.2781    2.0107   -0.0281 H   0  0  0  0  0  0  0  0  0  0  0  0
   -0.6739    1.1602   -1.4749 H   0  0  0  0  0  0  0  0  0  0  0  0
    1.0233    2.8299   -0.0788 H   0  0  0  0  0  0  0  0  0  0  0  0
    2.8446    1.2176   -0.0561 H   0  0  0  0  0  0  0  0  0  0  0  0
    2.4005   -1.1777   -0.8516 H   0  0  0  0  0  0  0  0  0  0  0  0
    1.1556   -2.1602    1.2538 H   0  0  0  0  0  0  0  0  0  0  0  0
   -0.1135   -1.7976   -1.1461 H   0  0  0  0  0  0  0  0  0  0  0  0
  1  2  1  0
  2  3  1  0
  3  4  1  0
  4  5  2  0
  5  6  1  0
  6  7  1  0
  7  8  1  0
  7  9  1  0
  8  2  1  0
  9  2  1  0
  9  6  1  0
  1 10  1  0
  1 11  1  0
  1 12  1  0
  3 13  1  0
  3 14  1  0
  4 15  1  0
  5 16  1  0
  6 17  1  0
  7 18  1  0
  9 19  1  0
M  END
