
     RDKit          3D

 17 18  0  0  0  0  0  0  0  0999 V2000
   -0.9387   -1.2916    0.5223 C   0  0  0  0  0  0  0  0  0  0  0  0
   -0.5050   -0.1509   -0.4100 C   0  0  0  0  0  0  0  0  0  0  0  0
   -1.2764    1.0279   -0.2383 C   0  0  0  0  0  0  0  0  0  0  0  0
    0.0266    1.1461    0.3249 C   0  0  0  0  0  0  0  0  0  0  0  0
    0.8615    1.9959   -0.4524 O   0  0  0  0  0  0  0  0  0  0  0  0
    0.9604    0.0955    0.8255 C   0  0  0  0  0  0  0  0  0  0  0  0
    1.4716   -0.3099    1.8235 O   0  0  0  0  0  0  0  0  0  0  0  0
    0.9802   -0.2742   -0.6463 C   0  0  0  0  0  0  0  0  0  0  0  0
    1.4087   -1.5783   -0.7785 O   0  0  0  0  0  0  0  0  0  0  0  0
   -1.6644   -0.9713    1.2907 H   0  0  0  0  0  0  0  0  0  0  0  0
   -1.5313   -1.9696   -0.1611 H   0  0  0  0  0  0  0  0  0  0  0  0
   -0.1348   -1.8053    1.0284 H   0  0  0  0  0  0  0  0  0  0  0  0
   -2.1392    1.0918    0.4916 H   0  0  0  0  0  0  0  0  0  0  0  0
   -1.5912    1.5634   -1.1844 H   0  0  0  0  0  0  0  0  0  0  0  0
    0.3512    2.7224   -0.8617 H   0  0  0  0  0  0  0  0  0  0  0  0
    1.4673    0.4068   -1.3174 H   0  0  0  0  0  0  0  0  0  0  0  0
    2.2535   -1.6985   -0.2568 H   0  0  0  0  0  0  0  0  0  0  0  0
  1  2  1  0
  2  3  1  0
  3  4  1  0
  4  5  1  0
  4  6  1  0
  6  7  2  0
  6  8  1  0
  8  9  1  0
  4  2  1  0
  8  2  1  0
  1 10  1  0
  1 11  1  0
  1 12  1  0
  3 13  1  0
  3 14  1  0
  5 15  1  0
  8 16  1  0
  9 17  1  0
M  END
