
     RDKit          3D

 21 22  0  0  0  0  0  0  0  0999 V2000
   -0.2091    1.8471   -0.2637 C   0  0  0  0  0  0  0  0  0  0  0  0
   -0.2014    0.3999    0.0395 C   0  0  0  0  0  0  0  0  0  0  0  0
    0.8710    0.0010    1.0272 C   0  0  0  0  0  0  0  0  0  0  0  0
    2.0584   -0.0867    0.0900 C   0  0  0  0  0  0  0  0  0  0  0  0
    1.5956   -0.3769   -1.1604 O   0  0  0  0  0  0  0  0  0  0  0  0
    0.2313   -0.4626   -1.1493 C   0  0  0  0  0  0  0  0  0  0  0  0
   -0.1487   -1.7188   -0.7627 O   0  0  0  0  0  0  0  0  0  0  0  0
   -1.3071   -1.6530   -0.0426 C   0  0  0  0  0  0  0  0  0  0  0  0
   -1.5331   -0.2006    0.3383 C   0  0  0  0  0  0  0  0  0  0  0  0
    0.7479    2.3062    0.1154 H   0  0  0  0  0  0  0  0  0  0  0  0
   -0.2381    2.0658   -1.3603 H   0  0  0  0  0  0  0  0  0  0  0  0
   -1.0228    2.4194    0.2360 H   0  0  0  0  0  0  0  0  0  0  0  0
    1.0078    0.7207    1.8345 H   0  0  0  0  0  0  0  0  0  0  0  0
    0.6229   -1.0273    1.3997 H   0  0  0  0  0  0  0  0  0  0  0  0
    2.7738   -0.8253    0.4868 H   0  0  0  0  0  0  0  0  0  0  0  0
    2.5077    0.9481    0.0461 H   0  0  0  0  0  0  0  0  0  0  0  0
   -0.2602   -0.1273   -2.0846 H   0  0  0  0  0  0  0  0  0  0  0  0
   -1.2578   -2.2984    0.8555 H   0  0  0  0  0  0  0  0  0  0  0  0
   -2.1355   -2.0419   -0.6834 H   0  0  0  0  0  0  0  0  0  0  0  0
   -1.8326   -0.0923    1.3956 H   0  0  0  0  0  0  0  0  0  0  0  0
   -2.2699    0.2028   -0.3575 H   0  0  0  0  0  0  0  0  0  0  0  0
  1  2  1  0
  2  3  1  0
  3  4  1  0
  4  5  1  0
  5  6  1  0
  6  7  1  0
  7  8  1  0
  8  9  1  0
  6  2  1  0
  9  2  1  0
  1 10  1  0
  1 11  1  0
  1 12  1  0
  3 13  1  0
  3 14  1  0
  4 15  1  0
  4 16  1  0
  6 17  1  0
  8 18  1  0
  8 19  1  0
  9 20  1  0
  9 21  1  0
M  END
