
     RDKit          3D

 21 22  0  0  0  0  0  0  0  0999 V2000
    2.1344   -0.2868   -0.4561 C   0  0  0  0  0  0  0  0  0  0  0  0
    0.7056   -0.0206   -0.1554 C   0  0  0  0  0  0  0  0  0  0  0  0
   -0.0046    0.7351   -1.2457 C   0  0  0  0  0  0  0  0  0  0  0  0
   -1.2576    1.0487   -0.9255 C   0  0  0  0  0  0  0  0  0  0  0  0
   -1.6620    0.5763    0.4422 C   0  0  0  0  0  0  0  0  0  0  0  0
   -1.4897   -0.9407    0.5244 C   0  0  0  0  0  0  0  0  0  0  0  0
   -0.1219   -1.3029    0.0233 C   0  0  0  0  0  0  0  0  0  0  0  0
   -0.7625    1.0940    1.4018 O   0  0  0  0  0  0  0  0  0  0  0  0
    0.5454    0.8623    1.0913 C   0  0  0  0  0  0  0  0  0  0  0  0
    2.5403    0.3486   -1.2881 H   0  0  0  0  0  0  0  0  0  0  0  0
    2.7698   -0.0575    0.4345 H   0  0  0  0  0  0  0  0  0  0  0  0
    2.2619   -1.3786   -0.6962 H   0  0  0  0  0  0  0  0  0  0  0  0
    0.4545    0.9953   -2.1881 H   0  0  0  0  0  0  0  0  0  0  0  0
   -1.9502    1.5878   -1.5551 H   0  0  0  0  0  0  0  0  0  0  0  0
   -2.6732    0.9065    0.6407 H   0  0  0  0  0  0  0  0  0  0  0  0
   -1.5082   -1.1691    1.6265 H   0  0  0  0  0  0  0  0  0  0  0  0
   -2.3114   -1.4338   -0.0066 H   0  0  0  0  0  0  0  0  0  0  0  0
   -0.2143   -1.7174   -1.0239 H   0  0  0  0  0  0  0  0  0  0  0  0
    0.3944   -2.0446    0.6339 H   0  0  0  0  0  0  0  0  0  0  0  0
    1.1225    0.3614    1.8990 H   0  0  0  0  0  0  0  0  0  0  0  0
    1.0267    1.8360    0.8233 H   0  0  0  0  0  0  0  0  0  0  0  0
  1  2  1  0
  2  3  1  0
  3  4  2  0
  4  5  1  0
  5  6  1  0
  6  7  1  0
  5  8  1  0
  8  9  1  0
  7  2  1  0
  9  2  1  0
  1 10  1  0
  1 11  1  0
  1 12  1  0
  3 13  1  0
  4 14  1  0
  5 15  1  0
  6 16  1  0
  6 17  1  0
  7 18  1  0
  7 19  1  0
  9 20  1  0
  9 21  1  0
M  END
