
     RDKit          3D

 19 20  0  0  0  0  0  0  0  0999 V2000
    2.2353    0.2846   -0.4885 C   0  0  0  0  0  0  0  0  0  0  0  0
    0.8812   -0.2430   -0.0889 C   0  0  0  0  0  0  0  0  0  0  0  0
    0.7734   -1.1148    1.1035 C   0  0  0  0  0  0  0  0  0  0  0  0
   -0.5014   -1.1842    1.4598 C   0  0  0  0  0  0  0  0  0  0  0  0
   -1.3556   -0.3766    0.5524 C   0  0  0  0  0  0  0  0  0  0  0  0
   -2.2235   -1.2570   -0.0967 O   0  0  0  0  0  0  0  0  0  0  0  0
   -0.3672    0.1864   -0.4302 C   0  0  0  0  0  0  0  0  0  0  0  0
   -0.6728    1.5660   -0.9300 C   0  0  0  0  0  0  0  0  0  0  0  0
    0.1832   -0.7633   -1.2845 O   0  0  0  0  0  0  0  0  0  0  0  0
    2.6467    0.9968    0.2445 H   0  0  0  0  0  0  0  0  0  0  0  0
    2.1034    0.8388   -1.4424 H   0  0  0  0  0  0  0  0  0  0  0  0
    2.9176   -0.5900   -0.6710 H   0  0  0  0  0  0  0  0  0  0  0  0
    1.5890   -1.6185    1.6110 H   0  0  0  0  0  0  0  0  0  0  0  0
   -0.8669   -1.7693    2.3206 H   0  0  0  0  0  0  0  0  0  0  0  0
   -1.9027    0.4164    1.1003 H   0  0  0  0  0  0  0  0  0  0  0  0
   -3.1553   -1.1561    0.1563 H   0  0  0  0  0  0  0  0  0  0  0  0
   -0.7006    2.2482   -0.0368 H   0  0  0  0  0  0  0  0  0  0  0  0
    0.0844    1.9059   -1.6650 H   0  0  0  0  0  0  0  0  0  0  0  0
   -1.6684    1.6298   -1.4144 H   0  0  0  0  0  0  0  0  0  0  0  0
  1  2  1  0
  2  3  1  0
  3  4  2  0
  4  5  1  0
  5  6  1  0
  5  7  1  0
  7  8  1  0
  7  9  1  0
  7  2  1  0
  9  2  1  0
  1 10  1  0
  1 11  1  0
  1 12  1  0
  3 13  1  0
  4 14  1  0
  5 15  1  0
  6 16  1  0
  8 17  1  0
  8 18  1  0
  8 19  1  0
M  END
