
     RDKit          3D

 21 24  0  0  0  0  0  0  0  0999 V2000
   -1.3764   -1.3014    0.8982 C   0  0  0  0  0  0  0  0  0  0  0  0
   -0.1998   -0.5897    0.3896 C   0  0  0  0  0  0  0  0  0  0  0  0
    0.8243    0.0659    1.2275 C   0  0  0  0  0  0  0  0  0  0  0  0
    1.9444    0.3890    0.3516 C   0  0  0  0  0  0  0  0  0  0  0  0
    1.7988   -0.5280   -0.8313 C   0  0  0  0  0  0  0  0  0  0  0  0
    0.2816   -0.6034   -0.9900 C   0  0  0  0  0  0  0  0  0  0  0  0
   -0.2650    0.6218   -0.4694 C   0  0  0  0  0  0  0  0  0  0  0  0
   -1.5881    1.2015   -0.7292 C   0  0  0  0  0  0  0  0  0  0  0  0
    0.7810    1.2669    0.3608 C   0  0  0  0  0  0  0  0  0  0  0  0
   -1.3521   -1.3560    2.0051 H   0  0  0  0  0  0  0  0  0  0  0  0
   -1.3303   -2.3707    0.5361 H   0  0  0  0  0  0  0  0  0  0  0  0
   -2.3329   -0.8628    0.5261 H   0  0  0  0  0  0  0  0  0  0  0  0
    0.8109    0.1091    2.3046 H   0  0  0  0  0  0  0  0  0  0  0  0
    2.9338    0.6610    0.7300 H   0  0  0  0  0  0  0  0  0  0  0  0
    2.1074   -1.5472   -0.4875 H   0  0  0  0  0  0  0  0  0  0  0  0
    2.3040   -0.1922   -1.7347 H   0  0  0  0  0  0  0  0  0  0  0  0
   -0.1362   -1.2063   -1.7958 H   0  0  0  0  0  0  0  0  0  0  0  0
   -1.6125    2.2034   -1.1775 H   0  0  0  0  0  0  0  0  0  0  0  0
   -2.1664    0.5320   -1.3894 H   0  0  0  0  0  0  0  0  0  0  0  0
   -2.1642    1.2253    0.2414 H   0  0  0  0  0  0  0  0  0  0  0  0
    0.7375    2.2819    0.7205 H   0  0  0  0  0  0  0  0  0  0  0  0
  1  2  1  0
  2  3  1  0
  3  4  1  0
  4  5  1  0
  5  6  1  0
  6  7  1  0
  7  8  1  0
  7  9  1  0
  6  2  1  0
  7  2  1  0
  9  3  1  0
  9  4  1  0
  1 10  1  0
  1 11  1  0
  1 12  1  0
  3 13  1  0
  4 14  1  0
  5 15  1  0
  5 16  1  0
  6 17  1  0
  8 18  1  0
  8 19  1  0
  8 20  1  0
  9 21  1  0
M  END
