
     RDKit          3D

 18 19  0  0  0  0  0  0  0  0999 V2000
   -1.9579   -0.3535   -0.1898 C   0  0  0  0  0  0  0  0  0  0  0  0
   -0.5095   -0.2867   -0.1939 C   0  0  0  0  0  0  0  0  0  0  0  0
    0.2886   -0.9548    0.8746 C   0  0  0  0  0  0  0  0  0  0  0  0
    1.2840   -0.9311   -0.2530 C   0  0  0  0  0  0  0  0  0  0  0  0
    1.6072    0.5365   -0.4435 C   0  0  0  0  0  0  0  0  0  0  0  0
    0.1671    1.0719   -0.2964 C   0  0  0  0  0  0  0  0  0  0  0  0
    0.1338    1.7587    0.9045 O   0  0  0  0  0  0  0  0  0  0  0  0
    0.1952   -1.1003   -1.1135 O   0  0  0  0  0  0  0  0  0  0  0  0
   -2.2862   -1.3195   -0.6781 H   0  0  0  0  0  0  0  0  0  0  0  0
   -2.4511   -0.3731    0.8109 H   0  0  0  0  0  0  0  0  0  0  0  0
   -2.3978    0.4463   -0.8059 H   0  0  0  0  0  0  0  0  0  0  0  0
    0.5498   -0.2521    1.6727 H   0  0  0  0  0  0  0  0  0  0  0  0
   -0.0050   -1.9708    1.1641 H   0  0  0  0  0  0  0  0  0  0  0  0
    2.0752   -1.6428   -0.2765 H   0  0  0  0  0  0  0  0  0  0  0  0
    2.2704    0.9330    0.3182 H   0  0  0  0  0  0  0  0  0  0  0  0
    1.9242    0.6874   -1.4830 H   0  0  0  0  0  0  0  0  0  0  0  0
   -0.1425    1.6447   -1.1642 H   0  0  0  0  0  0  0  0  0  0  0  0
   -0.7457    2.1060    1.1528 H   0  0  0  0  0  0  0  0  0  0  0  0
  1  2  1  0
  2  3  1  0
  3  4  1  0
  4  5  1  0
  5  6  1  0
  6  7  1  0
  4  8  1  0
  6  2  1  0
  8  2  1  0
  1  9  1  0
  1 10  1  0
  1 11  1  0
  3 12  1  0
  3 13  1  0
  4 14  1  0
  5 15  1  0
  5 16  1  0
  6 17  1  0
  7 18  1  0
M  END
