
     RDKit          3D

 21 23  0  0  0  0  0  0  0  0999 V2000
    1.9186   -0.5453    0.5464 C   0  0  0  0  0  0  0  0  0  0  0  0
    0.4618   -0.2529    0.4489 C   0  0  0  0  0  0  0  0  0  0  0  0
   -0.4076   -1.3335    0.9362 C   0  0  0  0  0  0  0  0  0  0  0  0
   -1.2655   -1.6307   -0.0324 C   0  0  0  0  0  0  0  0  0  0  0  0
   -1.0266   -0.7660   -1.2351 C   0  0  0  0  0  0  0  0  0  0  0  0
   -1.0766    0.7040   -1.1447 C   0  0  0  0  0  0  0  0  0  0  0  0
   -0.3721    1.7550   -0.3668 C   0  0  0  0  0  0  0  0  0  0  0  0
    0.0436    1.0806    0.9515 C   0  0  0  0  0  0  0  0  0  0  0  0
    0.1171   -0.1242   -1.0379 C   0  0  0  0  0  0  0  0  0  0  0  0
    2.4410    0.2638    1.0649 H   0  0  0  0  0  0  0  0  0  0  0  0
    2.4033   -0.6571   -0.4508 H   0  0  0  0  0  0  0  0  0  0  0  0
    2.0400   -1.5330    1.0474 H   0  0  0  0  0  0  0  0  0  0  0  0
   -0.3212   -1.7765    1.9248 H   0  0  0  0  0  0  0  0  0  0  0  0
   -2.0195   -2.3901    0.0547 H   0  0  0  0  0  0  0  0  0  0  0  0
   -1.3986   -1.1796   -2.1871 H   0  0  0  0  0  0  0  0  0  0  0  0
   -2.1035    0.7741   -0.8436 H   0  0  0  0  0  0  0  0  0  0  0  0
   -0.9350    2.6390   -0.1321 H   0  0  0  0  0  0  0  0  0  0  0  0
    0.5907    2.1037   -0.8447 H   0  0  0  0  0  0  0  0  0  0  0  0
    0.8444    1.6530    1.4495 H   0  0  0  0  0  0  0  0  0  0  0  0
   -0.8596    1.0749    1.5935 H   0  0  0  0  0  0  0  0  0  0  0  0
    0.9252    0.1407   -1.7428 H   0  0  0  0  0  0  0  0  0  0  0  0
  1  2  1  0
  2  3  1  0
  3  4  2  0
  4  5  1  0
  5  6  1  0
  6  7  1  0
  7  8  1  0
  6  9  1  0
  8  2  1  0
  9  2  1  0
  9  5  1  0
  1 10  1  0
  1 11  1  0
  1 12  1  0
  3 13  1  0
  4 14  1  0
  5 15  1  0
  6 16  1  0
  7 17  1  0
  7 18  1  0
  8 19  1  0
  8 20  1  0
  9 21  1  0
M  END
