
     RDKit          3D

 19 22  0  0  0  0  0  0  0  0999 V2000
   -1.4795    1.3545   -0.5277 C   0  0  0  0  0  0  0  0  0  0  0  0
   -0.7229    0.1816   -0.1497 C   0  0  0  0  0  0  0  0  0  0  0  0
   -1.1647   -0.8609    0.8059 C   0  0  0  0  0  0  0  0  0  0  0  0
   -0.3759   -1.8863   -0.0563 C   0  0  0  0  0  0  0  0  0  0  0  0
    0.1893   -1.2295    1.0682 C   0  0  0  0  0  0  0  0  0  0  0  0
    0.6075   -0.0635    0.2323 C   0  0  0  0  0  0  0  0  0  0  0  0
    1.9091    0.4302   -0.0182 C   0  0  0  0  0  0  0  0  0  0  0  0
    2.0968    1.7595    0.3091 O   0  0  0  0  0  0  0  0  0  0  0  0
   -0.0829   -0.8044   -0.9662 C   0  0  0  0  0  0  0  0  0  0  0  0
   -2.5164    1.2859   -0.0810 H   0  0  0  0  0  0  0  0  0  0  0  0
   -1.6678    1.3501   -1.6353 H   0  0  0  0  0  0  0  0  0  0  0  0
   -1.0976    2.3399   -0.2040 H   0  0  0  0  0  0  0  0  0  0  0  0
   -2.0968   -1.0724    1.1959 H   0  0  0  0  0  0  0  0  0  0  0  0
   -0.8969   -2.7934   -0.1990 H   0  0  0  0  0  0  0  0  0  0  0  0
    0.6761   -1.5749    1.9419 H   0  0  0  0  0  0  0  0  0  0  0  0
    2.6961   -0.1455    0.5513 H   0  0  0  0  0  0  0  0  0  0  0  0
    2.2288    0.3220   -1.0933 H   0  0  0  0  0  0  0  0  0  0  0  0
    1.3212    2.1816    0.7365 H   0  0  0  0  0  0  0  0  0  0  0  0
    0.3764   -0.7744   -1.9104 H   0  0  0  0  0  0  0  0  0  0  0  0
  1  2  1  0
  2  3  1  0
  3  4  1  0
  4  5  1  0
  5  6  1  0
  6  7  1  0
  7  8  1  0
  6  9  1  0
  6  2  1  0
  9  2  1  0
  5  3  1  0
  9  4  1  0
  1 10  1  0
  1 11  1  0
  1 12  1  0
  3 13  1  0
  4 14  1  0
  5 15  1  0
  7 16  1  0
  7 17  1  0
  8 18  1  0
  9 19  1  0
M  END
