
     RDKit          3D

 21 23  0  0  0  0  0  0  0  0999 V2000
   -0.9780    1.7525   -0.7691 C   0  0  0  0  0  0  0  0  0  0  0  0
   -0.6621    0.3939   -0.4051 C   0  0  0  0  0  0  0  0  0  0  0  0
   -1.3929   -0.2202    0.8040 C   0  0  0  0  0  0  0  0  0  0  0  0
   -0.1995   -1.1825    0.7213 C   0  0  0  0  0  0  0  0  0  0  0  0
   -0.4905   -1.8091   -0.6259 C   0  0  0  0  0  0  0  0  0  0  0  0
   -0.8414   -0.6330   -1.3415 O   0  0  0  0  0  0  0  0  0  0  0  0
    0.5801    0.0064    0.2751 C   0  0  0  0  0  0  0  0  0  0  0  0
    1.5715    0.7285    0.9471 C   0  0  0  0  0  0  0  0  0  0  0  0
    1.8991   -0.1163   -0.3304 C   0  0  0  0  0  0  0  0  0  0  0  0
   -1.8133    1.7706   -1.5064 H   0  0  0  0  0  0  0  0  0  0  0  0
   -1.3390    2.3313    0.1064 H   0  0  0  0  0  0  0  0  0  0  0  0
   -0.1219    2.2444   -1.2745 H   0  0  0  0  0  0  0  0  0  0  0  0
   -2.3242   -0.7250    0.5000 H   0  0  0  0  0  0  0  0  0  0  0  0
   -1.4107    0.4101    1.6861 H   0  0  0  0  0  0  0  0  0  0  0  0
    0.0522   -1.7601    1.5513 H   0  0  0  0  0  0  0  0  0  0  0  0
   -1.3139   -2.5184   -0.6170 H   0  0  0  0  0  0  0  0  0  0  0  0
    0.4453   -2.2104   -1.0739 H   0  0  0  0  0  0  0  0  0  0  0  0
    2.0249    0.3250    1.8973 H   0  0  0  0  0  0  0  0  0  0  0  0
    1.7280    1.8057    0.8336 H   0  0  0  0  0  0  0  0  0  0  0  0
    2.4966   -1.0372   -0.1299 H   0  0  0  0  0  0  0  0  0  0  0  0
    2.0896    0.4439   -1.2483 H   0  0  0  0  0  0  0  0  0  0  0  0
  1  2  1  0
  2  3  1  0
  3  4  1  0
  4  5  1  0
  5  6  1  0
  4  7  1  0
  7  8  1  0
  8  9  1  0
  6  2  1  0
  9  7  1  0
  7  2  1  0
  1 10  1  0
  1 11  1  0
  1 12  1  0
  3 13  1  0
  3 14  1  0
  4 15  1  0
  5 16  1  0
  5 17  1  0
  8 18  1  0
  8 19  1  0
  9 20  1  0
  9 21  1  0
M  END
