
     RDKit          3D

 21 22  0  0  0  0  0  0  0  0999 V2000
    1.5523   -0.8965    0.8759 C   0  0  0  0  0  0  0  0  0  0  0  0
    0.7645   -0.0654   -0.0914 C   0  0  0  0  0  0  0  0  0  0  0  0
    1.3090    1.2579   -0.3992 C   0  0  0  0  0  0  0  0  0  0  0  0
    0.3086    2.1119   -0.5333 C   0  0  0  0  0  0  0  0  0  0  0  0
   -0.9915    1.4560   -0.3316 C   0  0  0  0  0  0  0  0  0  0  0  0
   -0.6834    0.0137   -0.1060 C   0  0  0  0  0  0  0  0  0  0  0  0
   -1.5639   -0.6679    0.9122 C   0  0  0  0  0  0  0  0  0  0  0  0
   -0.0189   -0.7269   -1.1804 C   0  0  0  0  0  0  0  0  0  0  0  0
    0.0720   -2.0993   -1.2239 O   0  0  0  0  0  0  0  0  0  0  0  0
    1.4363   -0.6024    1.9224 H   0  0  0  0  0  0  0  0  0  0  0  0
    1.3700   -1.9843    0.7663 H   0  0  0  0  0  0  0  0  0  0  0  0
    2.6350   -0.7519    0.6187 H   0  0  0  0  0  0  0  0  0  0  0  0
    2.3463    1.5353   -0.5077 H   0  0  0  0  0  0  0  0  0  0  0  0
    0.3863    3.1895   -0.7665 H   0  0  0  0  0  0  0  0  0  0  0  0
   -1.5788    1.9124    0.4998 H   0  0  0  0  0  0  0  0  0  0  0  0
   -1.5507    1.5326   -1.3001 H   0  0  0  0  0  0  0  0  0  0  0  0
   -1.3275   -1.7178    1.0797 H   0  0  0  0  0  0  0  0  0  0  0  0
   -1.5704   -0.0594    1.8573 H   0  0  0  0  0  0  0  0  0  0  0  0
   -2.6066   -0.6186    0.5254 H   0  0  0  0  0  0  0  0  0  0  0  0
   -0.0637   -0.2555   -2.2003 H   0  0  0  0  0  0  0  0  0  0  0  0
   -0.2250   -2.5634   -0.4175 H   0  0  0  0  0  0  0  0  0  0  0  0
  1  2  1  0
  2  3  1  0
  3  4  2  0
  4  5  1  0
  5  6  1  0
  6  7  1  0
  6  8  1  0
  8  9  1  0
  6  2  1  0
  8  2  1  0
  1 10  1  0
  1 11  1  0
  1 12  1  0
  3 13  1  0
  4 14  1  0
  5 15  1  0
  5 16  1  0
  7 17  1  0
  7 18  1  0
  7 19  1  0
  8 20  1  0
  9 21  1  0
M  END
