
     RDKit          3D

 17 19  0  0  0  0  0  0  0  0999 V2000
    2.0235    0.0866    0.2996 C   0  0  0  0  0  0  0  0  0  0  0  0
    0.8245   -0.7161   -0.1091 C   0  0  0  0  0  0  0  0  0  0  0  0
    0.7060   -2.0346    0.2851 O   0  0  0  0  0  0  0  0  0  0  0  0
   -0.1319   -1.2134    0.9811 C   0  0  0  0  0  0  0  0  0  0  0  0
   -1.3189   -0.7001    0.1837 C   0  0  0  0  0  0  0  0  0  0  0  0
   -2.0690    0.1649    0.9653 O   0  0  0  0  0  0  0  0  0  0  0  0
   -0.3231    0.0434   -0.6646 C   0  0  0  0  0  0  0  0  0  0  0  0
   -0.4344    1.3440   -1.0895 C   0  0  0  0  0  0  0  0  0  0  0  0
   -0.5190    0.2291   -2.0020 O   0  0  0  0  0  0  0  0  0  0  0  0
    2.0747    1.0081   -0.3286 H   0  0  0  0  0  0  0  0  0  0  0  0
    1.9910    0.4211    1.3610 H   0  0  0  0  0  0  0  0  0  0  0  0
    2.9536   -0.4998    0.0780 H   0  0  0  0  0  0  0  0  0  0  0  0
    0.0295   -0.9008    2.0047 H   0  0  0  0  0  0  0  0  0  0  0  0
   -1.8979   -1.4948   -0.3441 H   0  0  0  0  0  0  0  0  0  0  0  0
   -2.9724    0.3162    0.6148 H   0  0  0  0  0  0  0  0  0  0  0  0
    0.4478    2.0120   -1.2561 H   0  0  0  0  0  0  0  0  0  0  0  0
   -1.3840    1.9341   -0.9792 H   0  0  0  0  0  0  0  0  0  0  0  0
  1  2  1  0
  2  3  1  0
  3  4  1  0
  4  5  1  0
  5  6  1  0
  5  7  1  0
  7  8  1  0
  8  9  1  0
  4  2  1  0
  9  7  1  0
  7  2  1  0
  1 10  1  0
  1 11  1  0
  1 12  1  0
  4 13  1  0
  5 14  1  0
  6 15  1  0
  8 16  1  0
  8 17  1  0
M  END
