
     RDKit          3D

 21 22  0  0  0  0  0  0  0  0999 V2000
    2.1365    0.2908   -0.6692 C   0  0  0  0  0  0  0  0  0  0  0  0
    0.7370    0.0403   -0.1988 C   0  0  0  0  0  0  0  0  0  0  0  0
    0.0007    1.3521    0.1068 C   0  0  0  0  0  0  0  0  0  0  0  0
   -1.4765    0.9679    0.1067 C   0  0  0  0  0  0  0  0  0  0  0  0
   -1.5165   -0.5082    0.4831 C   0  0  0  0  0  0  0  0  0  0  0  0
   -1.0871   -1.2659   -0.7754 C   0  0  0  0  0  0  0  0  0  0  0  0
    0.0775   -0.6678   -1.2152 O   0  0  0  0  0  0  0  0  0  0  0  0
   -0.6338   -0.8324    1.4790 O   0  0  0  0  0  0  0  0  0  0  0  0
    0.7000   -0.7493    1.1108 C   0  0  0  0  0  0  0  0  0  0  0  0
    2.2475    1.3135   -1.0935 H   0  0  0  0  0  0  0  0  0  0  0  0
    2.8436    0.1277    0.1687 H   0  0  0  0  0  0  0  0  0  0  0  0
    2.4182   -0.4232   -1.4893 H   0  0  0  0  0  0  0  0  0  0  0  0
    0.2380    2.1349   -0.6116 H   0  0  0  0  0  0  0  0  0  0  0  0
    0.2203    1.6514    1.1684 H   0  0  0  0  0  0  0  0  0  0  0  0
   -2.0775    1.5887    0.7726 H   0  0  0  0  0  0  0  0  0  0  0  0
   -1.8061    1.0531   -0.9565 H   0  0  0  0  0  0  0  0  0  0  0  0
   -2.5216   -0.8237    0.7859 H   0  0  0  0  0  0  0  0  0  0  0  0
   -0.9583   -2.3385   -0.5558 H   0  0  0  0  0  0  0  0  0  0  0  0
   -1.9327   -1.1335   -1.5027 H   0  0  0  0  0  0  0  0  0  0  0  0
    1.1845   -0.0657    1.8661 H   0  0  0  0  0  0  0  0  0  0  0  0
    1.2064   -1.7120    1.0199 H   0  0  0  0  0  0  0  0  0  0  0  0
  1  2  1  0
  2  3  1  0
  3  4  1  0
  4  5  1  0
  5  6  1  0
  6  7  1  0
  5  8  1  0
  8  9  1  0
  7  2  1  0
  9  2  1  0
  1 10  1  0
  1 11  1  0
  1 12  1  0
  3 13  1  0
  3 14  1  0
  4 15  1  0
  4 16  1  0
  5 17  1  0
  6 18  1  0
  6 19  1  0
  9 20  1  0
  9 21  1  0
M  END
