
     RDKit          3D

 21 22  0  0  0  0  0  0  0  0999 V2000
   -1.5779    0.1452    1.1014 C   0  0  0  0  0  0  0  0  0  0  0  0
   -0.6972    0.0260   -0.0983 C   0  0  0  0  0  0  0  0  0  0  0  0
   -0.0708    1.2906   -0.5530 C   0  0  0  0  0  0  0  0  0  0  0  0
    1.2717    1.4681    0.0067 C   0  0  0  0  0  0  0  0  0  0  0  0
    1.9924    0.4381    0.4035 C   0  0  0  0  0  0  0  0  0  0  0  0
    1.5667   -0.9657    0.3414 C   0  0  0  0  0  0  0  0  0  0  0  0
    0.1900   -1.1789   -0.1619 C   0  0  0  0  0  0  0  0  0  0  0  0
    0.0156   -1.1579   -1.5475 O   0  0  0  0  0  0  0  0  0  0  0  0
   -1.3049   -0.7228   -1.2778 C   0  0  0  0  0  0  0  0  0  0  0  0
   -2.3421   -0.6351    1.1466 H   0  0  0  0  0  0  0  0  0  0  0  0
   -0.9032    0.1277    2.0043 H   0  0  0  0  0  0  0  0  0  0  0  0
   -2.0543    1.1362    1.0993 H   0  0  0  0  0  0  0  0  0  0  0  0
   -0.7122    2.1393   -0.1756 H   0  0  0  0  0  0  0  0  0  0  0  0
   -0.0189    1.3990   -1.6500 H   0  0  0  0  0  0  0  0  0  0  0  0
    1.6609    2.4868    0.0862 H   0  0  0  0  0  0  0  0  0  0  0  0
    2.9769    0.6516    0.8069 H   0  0  0  0  0  0  0  0  0  0  0  0
    1.6068   -1.3632    1.3977 H   0  0  0  0  0  0  0  0  0  0  0  0
    2.3399   -1.5369   -0.2275 H   0  0  0  0  0  0  0  0  0  0  0  0
   -0.2787   -2.0608    0.2633 H   0  0  0  0  0  0  0  0  0  0  0  0
   -1.9090   -1.5812   -0.9143 H   0  0  0  0  0  0  0  0  0  0  0  0
   -1.7513   -0.1060   -2.0513 H   0  0  0  0  0  0  0  0  0  0  0  0
  1  2  1  0
  2  3  1  0
  3  4  1  0
  4  5  2  0
  5  6  1  0
  6  7  1  0
  7  8  1  0
  8  9  1  0
  7  2  1  0
  9  2  1  0
  1 10  1  0
  1 11  1  0
  1 12  1  0
  3 13  1  0
  3 14  1  0
  4 15  1  0
  5 16  1  0
  6 17  1  0
  6 18  1  0
  7 19  1  0
  9 20  1  0
  9 21  1  0
M  END
