
     RDKit          3D

 21 22  0  0  0  0  0  0  0  0999 V2000
    2.8373    0.6826    0.3004 C   0  0  0  0  0  0  0  0  0  0  0  0
    1.7844   -0.3433    0.0067 C   0  0  0  0  0  0  0  0  0  0  0  0
    0.5004   -0.3720    0.7582 C   0  0  0  0  0  0  0  0  0  0  0  0
   -0.2666   -0.5653   -0.5153 C   0  0  0  0  0  0  0  0  0  0  0  0
   -1.4644    0.3214   -0.7086 C   0  0  0  0  0  0  0  0  0  0  0  0
   -2.4960    0.1460    0.3717 C   0  0  0  0  0  0  0  0  0  0  0  0
   -2.9821   -1.1524    0.4358 O   0  0  0  0  0  0  0  0  0  0  0  0
    0.9574   -0.2030   -1.2758 C   0  0  0  0  0  0  0  0  0  0  0  0
    2.0060   -1.0923   -1.1152 O   0  0  0  0  0  0  0  0  0  0  0  0
    3.8308    0.1790    0.1150 H   0  0  0  0  0  0  0  0  0  0  0  0
    2.7219    1.5182   -0.4239 H   0  0  0  0  0  0  0  0  0  0  0  0
    2.8480    1.0143    1.3427 H   0  0  0  0  0  0  0  0  0  0  0  0
    0.4018   -1.1897    1.5060 H   0  0  0  0  0  0  0  0  0  0  0  0
    0.3073    0.6277    1.2379 H   0  0  0  0  0  0  0  0  0  0  0  0
   -0.5158   -1.6498   -0.6531 H   0  0  0  0  0  0  0  0  0  0  0  0
   -1.1441    1.3677   -0.7453 H   0  0  0  0  0  0  0  0  0  0  0  0
   -1.9129    0.0818   -1.6953 H   0  0  0  0  0  0  0  0  0  0  0  0
   -2.1136    0.5101    1.3440 H   0  0  0  0  0  0  0  0  0  0  0  0
   -3.3649    0.7962    0.0907 H   0  0  0  0  0  0  0  0  0  0  0  0
   -3.0331   -1.4468    1.3717 H   0  0  0  0  0  0  0  0  0  0  0  0
    1.0984    0.7693   -1.7483 H   0  0  0  0  0  0  0  0  0  0  0  0
  1  2  1  0
  2  3  1  0
  3  4  1  0
  4  5  1  0
  5  6  1  0
  6  7  1  0
  4  8  1  0
  8  9  1  0
  8  2  1  0
  9  2  1  0
  1 10  1  0
  1 11  1  0
  1 12  1  0
  3 13  1  0
  3 14  1  0
  4 15  1  0
  5 16  1  0
  5 17  1  0
  6 18  1  0
  6 19  1  0
  7 20  1  0
  8 21  1  0
M  END
