
     RDKit          3D

 21 23  0  0  0  0  0  0  0  0999 V2000
    1.1985    1.2334   -0.8608 C   0  0  0  0  0  0  0  0  0  0  0  0
    0.7533    0.0373   -0.0359 C   0  0  0  0  0  0  0  0  0  0  0  0
    1.7791   -0.6636    0.7472 C   0  0  0  0  0  0  0  0  0  0  0  0
    1.0996   -1.3384   -0.4509 C   0  0  0  0  0  0  0  0  0  0  0  0
    0.0960   -2.2005   -0.0853 O   0  0  0  0  0  0  0  0  0  0  0  0
   -1.0020   -1.4921    0.3006 C   0  0  0  0  0  0  0  0  0  0  0  0
   -0.7082   -0.0399    0.2718 C   0  0  0  0  0  0  0  0  0  0  0  0
   -1.4578    0.9874    0.9692 C   0  0  0  0  0  0  0  0  0  0  0  0
   -1.6045    0.8396   -0.4970 C   0  0  0  0  0  0  0  0  0  0  0  0
    2.2975    1.4117   -0.7543 H   0  0  0  0  0  0  0  0  0  0  0  0
    0.7132    2.1316   -0.4205 H   0  0  0  0  0  0  0  0  0  0  0  0
    0.8886    1.0350   -1.8957 H   0  0  0  0  0  0  0  0  0  0  0  0
    1.5963   -1.0841    1.7547 H   0  0  0  0  0  0  0  0  0  0  0  0
    2.8210   -0.3561    0.5879 H   0  0  0  0  0  0  0  0  0  0  0  0
    1.6595   -1.4486   -1.3848 H   0  0  0  0  0  0  0  0  0  0  0  0
   -1.4013   -1.8554    1.2868 H   0  0  0  0  0  0  0  0  0  0  0  0
   -1.8291   -1.7321   -0.4286 H   0  0  0  0  0  0  0  0  0  0  0  0
   -2.3182    0.6783    1.6030 H   0  0  0  0  0  0  0  0  0  0  0  0
   -0.8738    1.8511    1.3846 H   0  0  0  0  0  0  0  0  0  0  0  0
   -1.1382    1.5670   -1.2056 H   0  0  0  0  0  0  0  0  0  0  0  0
   -2.5694    0.4383   -0.8864 H   0  0  0  0  0  0  0  0  0  0  0  0
  1  2  1  0
  2  3  1  0
  3  4  1  0
  4  5  1  0
  5  6  1  0
  6  7  1  0
  7  8  1  0
  8  9  1  0
  4  2  1  0
  9  7  1  0
  7  2  1  0
  1 10  1  0
  1 11  1  0
  1 12  1  0
  3 13  1  0
  3 14  1  0
  4 15  1  0
  6 16  1  0
  6 17  1  0
  8 18  1  0
  8 19  1  0
  9 20  1  0
  9 21  1  0
M  END
