
     RDKit          3D

 21 22  0  0  0  0  0  0  0  0999 V2000
   -1.6018   -1.1538    0.4763 C   0  0  0  0  0  0  0  0  0  0  0  0
   -0.6054   -0.2522   -0.1620 C   0  0  0  0  0  0  0  0  0  0  0  0
   -1.1579    1.0612   -0.7067 C   0  0  0  0  0  0  0  0  0  0  0  0
   -1.0906    1.8557    0.4508 O   0  0  0  0  0  0  0  0  0  0  0  0
    0.2796    1.7154    0.7597 C   0  0  0  0  0  0  0  0  0  0  0  0
    0.4342    0.2199    0.8294 C   0  0  0  0  0  0  0  0  0  0  0  0
    1.5128   -0.3106   -0.0826 C   0  0  0  0  0  0  0  0  0  0  0  0
    2.2996   -1.3289    0.4827 O   0  0  0  0  0  0  0  0  0  0  0  0
    0.4479   -0.8779   -1.0153 C   0  0  0  0  0  0  0  0  0  0  0  0
   -2.6143   -0.6747    0.3767 H   0  0  0  0  0  0  0  0  0  0  0  0
   -1.4547   -1.2744    1.5785 H   0  0  0  0  0  0  0  0  0  0  0  0
   -1.6434   -2.1528    0.0089 H   0  0  0  0  0  0  0  0  0  0  0  0
   -0.4332    1.4650   -1.4499 H   0  0  0  0  0  0  0  0  0  0  0  0
   -2.1737    0.9504   -1.0914 H   0  0  0  0  0  0  0  0  0  0  0  0
    0.8146    2.0755   -0.1559 H   0  0  0  0  0  0  0  0  0  0  0  0
    0.5609    2.2419    1.6697 H   0  0  0  0  0  0  0  0  0  0  0  0
    0.3805   -0.2314    1.8305 H   0  0  0  0  0  0  0  0  0  0  0  0
    2.1094    0.4894   -0.5642 H   0  0  0  0  0  0  0  0  0  0  0  0
    3.0529   -1.4563   -0.1612 H   0  0  0  0  0  0  0  0  0  0  0  0
    0.4456   -0.3854   -2.0300 H   0  0  0  0  0  0  0  0  0  0  0  0
    0.4370   -1.9759   -1.0443 H   0  0  0  0  0  0  0  0  0  0  0  0
  1  2  1  0
  2  3  1  0
  3  4  1  0
  4  5  1  0
  5  6  1  0
  6  7  1  0
  7  8  1  0
  7  9  1  0
  6  2  1  0
  9  2  1  0
  1 10  1  0
  1 11  1  0
  1 12  1  0
  3 13  1  0
  3 14  1  0
  5 15  1  0
  5 16  1  0
  6 17  1  0
  7 18  1  0
  8 19  1  0
  9 20  1  0
  9 21  1  0
M  END
