
     RDKit          3D

 21 22  0  0  0  0  0  0  0  0999 V2000
   -2.0444   -0.6470   -0.2314 C   0  0  0  0  0  0  0  0  0  0  0  0
   -0.6386   -0.4099    0.2256 C   0  0  0  0  0  0  0  0  0  0  0  0
   -0.5232    0.8945    0.9717 C   0  0  0  0  0  0  0  0  0  0  0  0
    0.2746    1.4867   -0.1776 C   0  0  0  0  0  0  0  0  0  0  0  0
   -0.3929    2.4085   -0.9522 O   0  0  0  0  0  0  0  0  0  0  0  0
    0.3382    0.0877   -0.7683 C   0  0  0  0  0  0  0  0  0  0  0  0
    1.6420   -0.5640   -0.3497 C   0  0  0  0  0  0  0  0  0  0  0  0
    1.2519   -1.4617    0.7868 C   0  0  0  0  0  0  0  0  0  0  0  0
   -0.1186   -1.5201    0.8440 O   0  0  0  0  0  0  0  0  0  0  0  0
   -2.0424   -1.3420   -1.1027 H   0  0  0  0  0  0  0  0  0  0  0  0
   -2.6325    0.2639   -0.3937 H   0  0  0  0  0  0  0  0  0  0  0  0
   -2.5745   -1.2138    0.5852 H   0  0  0  0  0  0  0  0  0  0  0  0
    0.0659    0.8595    1.9004 H   0  0  0  0  0  0  0  0  0  0  0  0
   -1.4651    1.4672    1.0822 H   0  0  0  0  0  0  0  0  0  0  0  0
    1.2599    1.9022    0.1341 H   0  0  0  0  0  0  0  0  0  0  0  0
   -0.2727    2.2319   -1.9204 H   0  0  0  0  0  0  0  0  0  0  0  0
    0.0951    0.0273   -1.8284 H   0  0  0  0  0  0  0  0  0  0  0  0
    2.3708    0.1801    0.0445 H   0  0  0  0  0  0  0  0  0  0  0  0
    2.0517   -1.1167   -1.2042 H   0  0  0  0  0  0  0  0  0  0  0  0
    1.7363   -2.4534    0.5980 H   0  0  0  0  0  0  0  0  0  0  0  0
    1.6186   -1.0809    1.7561 H   0  0  0  0  0  0  0  0  0  0  0  0
  1  2  1  0
  2  3  1  0
  3  4  1  0
  4  5  1  0
  4  6  1  0
  6  7  1  0
  7  8  1  0
  8  9  1  0
  6  2  1  0
  9  2  1  0
  1 10  1  0
  1 11  1  0
  1 12  1  0
  3 13  1  0
  3 14  1  0
  4 15  1  0
  5 16  1  0
  6 17  1  0
  7 18  1  0
  7 19  1  0
  8 20  1  0
  8 21  1  0
M  END
