
     RDKit          3D

 21 22  0  0  0  0  0  0  0  0999 V2000
   -2.6454    0.1365    0.1653 C   0  0  0  0  0  0  0  0  0  0  0  0
   -1.2102   -0.1480   -0.1779 C   0  0  0  0  0  0  0  0  0  0  0  0
   -0.5737   -1.4086    0.3692 C   0  0  0  0  0  0  0  0  0  0  0  0
   -0.1338   -0.0933    0.8287 C   0  0  0  0  0  0  0  0  0  0  0  0
    0.9831    0.6323    0.1617 C   0  0  0  0  0  0  0  0  0  0  0  0
    2.0878   -0.2831   -0.3273 C   0  0  0  0  0  0  0  0  0  0  0  0
    2.6675   -1.0088    0.7130 O   0  0  0  0  0  0  0  0  0  0  0  0
    0.3154    1.2080   -1.0709 C   0  0  0  0  0  0  0  0  0  0  0  0
   -0.7215    0.3021   -1.3824 O   0  0  0  0  0  0  0  0  0  0  0  0
   -2.8701    1.2037    0.0024 H   0  0  0  0  0  0  0  0  0  0  0  0
   -3.2731   -0.4660   -0.5249 H   0  0  0  0  0  0  0  0  0  0  0  0
   -2.8913   -0.1770    1.1813 H   0  0  0  0  0  0  0  0  0  0  0  0
    0.0433   -2.0208   -0.3270 H   0  0  0  0  0  0  0  0  0  0  0  0
   -1.2180   -1.9997    1.0458 H   0  0  0  0  0  0  0  0  0  0  0  0
   -0.4114    0.2487    1.8596 H   0  0  0  0  0  0  0  0  0  0  0  0
    1.4048    1.4619    0.7280 H   0  0  0  0  0  0  0  0  0  0  0  0
    1.7457   -0.9814   -1.1084 H   0  0  0  0  0  0  0  0  0  0  0  0
    2.8700    0.4031   -0.7685 H   0  0  0  0  0  0  0  0  0  0  0  0
    2.9759   -0.3786    1.4126 H   0  0  0  0  0  0  0  0  0  0  0  0
    1.0208    1.2038   -1.9122 H   0  0  0  0  0  0  0  0  0  0  0  0
   -0.1658    2.1651   -0.8681 H   0  0  0  0  0  0  0  0  0  0  0  0
  1  2  1  0
  2  3  1  0
  3  4  1  0
  4  5  1  0
  5  6  1  0
  6  7  1  0
  5  8  1  0
  8  9  1  0
  4  2  1  0
  9  2  1  0
  1 10  1  0
  1 11  1  0
  1 12  1  0
  3 13  1  0
  3 14  1  0
  4 15  1  0
  5 16  1  0
  6 17  1  0
  6 18  1  0
  7 19  1  0
  8 20  1  0
  8 21  1  0
M  END
