
     RDKit          3D

 17 18  0  0  0  0  0  0  0  0999 V2000
   -1.9278   -0.9765   -0.2147 C   0  0  0  0  0  0  0  0  0  0  0  0
   -0.6083   -0.3562    0.2296 C   0  0  0  0  0  0  0  0  0  0  0  0
   -0.7080    0.8852    1.0750 C   0  0  0  0  0  0  0  0  0  0  0  0
   -0.2147    0.9481   -0.3077 C   0  0  0  0  0  0  0  0  0  0  0  0
    1.2143    1.1004   -0.6223 C   0  0  0  0  0  0  0  0  0  0  0  0
    2.1414    0.1941   -0.4405 C   0  0  0  0  0  0  0  0  0  0  0  0
    1.7430   -1.0882    0.1231 C   0  0  0  0  0  0  0  0  0  0  0  0
    2.6001   -1.9938    0.3172 O   0  0  0  0  0  0  0  0  0  0  0  0
    0.4238   -1.2749    0.4313 O   0  0  0  0  0  0  0  0  0  0  0  0
   -2.6238   -1.1163    0.6443 H   0  0  0  0  0  0  0  0  0  0  0  0
   -2.3672   -0.3191   -1.0058 H   0  0  0  0  0  0  0  0  0  0  0  0
   -1.7445   -1.9932   -0.6233 H   0  0  0  0  0  0  0  0  0  0  0  0
   -1.7353    1.2866    1.2756 H   0  0  0  0  0  0  0  0  0  0  0  0
   -0.0201    0.9014    1.9351 H   0  0  0  0  0  0  0  0  0  0  0  0
   -0.9063    1.3845   -1.0758 H   0  0  0  0  0  0  0  0  0  0  0  0
    1.5447    2.0521   -1.0469 H   0  0  0  0  0  0  0  0  0  0  0  0
    3.1887    0.3657   -0.6942 H   0  0  0  0  0  0  0  0  0  0  0  0
  1  2  1  0
  2  3  1  0
  3  4  1  0
  4  5  1  0
  5  6  2  0
  6  7  1  0
  7  8  2  0
  7  9  1  0
  4  2  1  0
  9  2  1  0
  1 10  1  0
  1 11  1  0
  1 12  1  0
  3 13  1  0
  3 14  1  0
  4 15  1  0
  5 16  1  0
  6 17  1  0
M  END
