
     RDKit          3D

 23 24  0  0  0  0  0  0  0  0999 V2000
    2.5594   -0.6776   -0.5220 C   0  0  0  0  0  0  0  0  0  0  0  0
    1.2477   -0.0968   -0.3180 C   0  0  0  0  0  0  0  0  0  0  0  0
    1.0837    1.1517    0.4880 C   0  0  0  0  0  0  0  0  0  0  0  0
   -0.1433    1.2111   -0.3832 C   0  0  0  0  0  0  0  0  0  0  0  0
    0.6486    0.6065   -1.3886 O   0  0  0  0  0  0  0  0  0  0  0  0
   -0.9993    0.0558    0.0437 C   0  0  0  0  0  0  0  0  0  0  0  0
   -1.9505   -0.3595   -1.0189 C   0  0  0  0  0  0  0  0  0  0  0  0
   -1.6840    0.2482    1.3493 C   0  0  0  0  0  0  0  0  0  0  0  0
    0.1325   -0.9728    0.2356 C   0  0  0  0  0  0  0  0  0  0  0  0
    2.6662   -1.7187   -0.0975 H   0  0  0  0  0  0  0  0  0  0  0  0
    3.4268   -0.1077   -0.1060 H   0  0  0  0  0  0  0  0  0  0  0  0
    2.7408   -0.8262   -1.6265 H   0  0  0  0  0  0  0  0  0  0  0  0
    1.7989    1.9616    0.2622 H   0  0  0  0  0  0  0  0  0  0  0  0
    0.9086    0.9691    1.5521 H   0  0  0  0  0  0  0  0  0  0  0  0
   -0.5855    2.1534   -0.6073 H   0  0  0  0  0  0  0  0  0  0  0  0
   -2.9223    0.1237   -0.8705 H   0  0  0  0  0  0  0  0  0  0  0  0
   -2.0575   -1.4589   -1.0844 H   0  0  0  0  0  0  0  0  0  0  0  0
   -1.5558    0.0077   -1.9960 H   0  0  0  0  0  0  0  0  0  0  0  0
   -0.9760    0.4930    2.1682 H   0  0  0  0  0  0  0  0  0  0  0  0
   -2.1371   -0.7350    1.6381 H   0  0  0  0  0  0  0  0  0  0  0  0
   -2.5000    0.9699    1.3008 H   0  0  0  0  0  0  0  0  0  0  0  0
   -0.0333   -1.8792   -0.3292 H   0  0  0  0  0  0  0  0  0  0  0  0
    0.3313   -1.1194    1.3103 H   0  0  0  0  0  0  0  0  0  0  0  0
  1  2  1  0
  2  3  1  0
  3  4  1  0
  4  5  1  0
  4  6  1  0
  6  7  1  0
  6  8  1  0
  6  9  1  0
  5  2  1  0
  9  2  1  0
  1 10  1  0
  1 11  1  0
  1 12  1  0
  3 13  1  0
  3 14  1  0
  4 15  1  0
  7 16  1  0
  7 17  1  0
  7 18  1  0
  8 19  1  0
  8 20  1  0
  8 21  1  0
  9 22  1  0
  9 23  1  0
M  END
