
     RDKit          3D

 19 22  0  0  0  0  0  0  0  0999 V2000
    2.3209   -0.4372   -0.0608 C   0  0  0  0  0  0  0  0  0  0  0  0
    0.8889   -0.1171    0.1405 C   0  0  0  0  0  0  0  0  0  0  0  0
    0.4354    1.2940    0.4385 C   0  0  0  0  0  0  0  0  0  0  0  0
   -1.0591    1.1382    0.5045 C   0  0  0  0  0  0  0  0  0  0  0  0
   -1.3768   -0.2550    0.8159 C   0  0  0  0  0  0  0  0  0  0  0  0
   -0.1150   -1.0189    0.6661 C   0  0  0  0  0  0  0  0  0  0  0  0
   -0.1100   -0.5882   -0.8270 C   0  0  0  0  0  0  0  0  0  0  0  0
   -1.3333    0.1825   -0.5888 C   0  0  0  0  0  0  0  0  0  0  0  0
   -2.3988    0.2490   -1.4168 O   0  0  0  0  0  0  0  0  0  0  0  0
    2.6524   -1.3453    0.4723 H   0  0  0  0  0  0  0  0  0  0  0  0
    2.4985   -0.5114   -1.1740 H   0  0  0  0  0  0  0  0  0  0  0  0
    2.9353    0.4404    0.2599 H   0  0  0  0  0  0  0  0  0  0  0  0
    0.8896    1.7331    1.3214 H   0  0  0  0  0  0  0  0  0  0  0  0
    0.6757    1.8909   -0.4908 H   0  0  0  0  0  0  0  0  0  0  0  0
   -1.7091    1.9819    0.7512 H   0  0  0  0  0  0  0  0  0  0  0  0
   -2.2586   -0.6171    1.3139 H   0  0  0  0  0  0  0  0  0  0  0  0
   -0.0030   -2.0656    0.8903 H   0  0  0  0  0  0  0  0  0  0  0  0
    0.0132   -1.3911   -1.5293 H   0  0  0  0  0  0  0  0  0  0  0  0
   -2.9464   -0.5633   -1.4868 H   0  0  0  0  0  0  0  0  0  0  0  0
  1  2  1  0
  2  3  1  0
  3  4  1  0
  4  5  1  0
  5  6  1  0
  6  7  1  0
  7  8  1  0
  8  9  1  0
  6  2  1  0
  7  2  1  0
  8  4  1  0
  8  5  1  0
  1 10  1  0
  1 11  1  0
  1 12  1  0
  3 13  1  0
  3 14  1  0
  4 15  1  0
  5 16  1  0
  6 17  1  0
  7 18  1  0
  9 19  1  0
M  END
