
     RDKit          3D

 18 19  0  0  0  0  0  0  0  0999 V2000
   -1.9466   -0.8058   -0.1672 C   0  0  0  0  0  0  0  0  0  0  0  0
   -0.8393    0.1243    0.2377 C   0  0  0  0  0  0  0  0  0  0  0  0
    0.3405   -0.5116    0.8697 C   0  0  0  0  0  0  0  0  0  0  0  0
    1.3083    0.3358    0.0906 C   0  0  0  0  0  0  0  0  0  0  0  0
    2.4558   -0.3498   -0.5082 C   0  0  0  0  0  0  0  0  0  0  0  0
    3.5237    0.2498   -0.5985 O   0  0  0  0  0  0  0  0  0  0  0  0
    0.1403    0.5987   -0.8608 C   0  0  0  0  0  0  0  0  0  0  0  0
   -0.8746    1.4871   -0.3040 C   0  0  0  0  0  0  0  0  0  0  0  0
   -1.8474   -1.7801    0.3537 H   0  0  0  0  0  0  0  0  0  0  0  0
   -2.0370   -0.9181   -1.2596 H   0  0  0  0  0  0  0  0  0  0  0  0
   -2.9026   -0.3577    0.2207 H   0  0  0  0  0  0  0  0  0  0  0  0
    0.4254   -0.4803    1.9619 H   0  0  0  0  0  0  0  0  0  0  0  0
    0.4620   -1.5841    0.5356 H   0  0  0  0  0  0  0  0  0  0  0  0
    1.5761    1.2625    0.6286 H   0  0  0  0  0  0  0  0  0  0  0  0
    2.4120   -1.3628   -0.8775 H   0  0  0  0  0  0  0  0  0  0  0  0
    0.0513    0.0139   -1.7685 H   0  0  0  0  0  0  0  0  0  0  0  0
   -1.7433    1.7763   -0.8886 H   0  0  0  0  0  0  0  0  0  0  0  0
   -0.5046    2.3020    0.3699 H   0  0  0  0  0  0  0  0  0  0  0  0
  1  2  1  0
  2  3  1  0
  3  4  1  0
  4  5  1  0
  5  6  2  0
  4  7  1  0
  7  8  1  0
  7  2  1  0
  8  2  1  0
  1  9  1  0
  1 10  1  0
  1 11  1  0
  3 12  1  0
  3 13  1  0
  4 14  1  0
  5 15  1  0
  7 16  1  0
  8 17  1  0
  8 18  1  0
M  END
