
     RDKit          3D

 21 23  0  0  0  0  0  0  0  0999 V2000
    2.3572    0.3075    0.2123 C   0  0  0  0  0  0  0  0  0  0  0  0
    1.0340   -0.0708   -0.2401 C   0  0  0  0  0  0  0  0  0  0  0  0
    0.3049   -1.2108    0.4329 C   0  0  0  0  0  0  0  0  0  0  0  0
   -1.0118   -1.0704   -0.3555 C   0  0  0  0  0  0  0  0  0  0  0  0
   -1.9301   -0.1752    0.4062 C   0  0  0  0  0  0  0  0  0  0  0  0
   -1.0037    1.0198    0.6742 C   0  0  0  0  0  0  0  0  0  0  0  0
   -0.0193    0.9898   -0.4539 C   0  0  0  0  0  0  0  0  0  0  0  0
   -0.4728   -0.1047   -1.4070 C   0  0  0  0  0  0  0  0  0  0  0  0
    0.8523   -0.4109   -1.5980 O   0  0  0  0  0  0  0  0  0  0  0  0
    2.7012   -0.2534    1.1293 H   0  0  0  0  0  0  0  0  0  0  0  0
    2.3463    1.3845    0.5542 H   0  0  0  0  0  0  0  0  0  0  0  0
    3.1456    0.2741   -0.5723 H   0  0  0  0  0  0  0  0  0  0  0  0
    0.7776   -2.1628    0.1362 H   0  0  0  0  0  0  0  0  0  0  0  0
    0.1559   -1.0772    1.5017 H   0  0  0  0  0  0  0  0  0  0  0  0
   -1.3969   -1.9863   -0.7319 H   0  0  0  0  0  0  0  0  0  0  0  0
   -2.3364   -0.5930    1.3249 H   0  0  0  0  0  0  0  0  0  0  0  0
   -2.7210    0.2343   -0.2862 H   0  0  0  0  0  0  0  0  0  0  0  0
   -1.5494    1.9550    0.7644 H   0  0  0  0  0  0  0  0  0  0  0  0
   -0.4308    0.8730    1.6192 H   0  0  0  0  0  0  0  0  0  0  0  0
    0.3007    1.9189   -0.8909 H   0  0  0  0  0  0  0  0  0  0  0  0
   -1.1032    0.1585   -2.2197 H   0  0  0  0  0  0  0  0  0  0  0  0
  1  2  1  0
  2  3  1  0
  3  4  1  0
  4  5  1  0
  5  6  1  0
  6  7  1  0
  7  8  1  0
  8  9  1  0
  7  2  1  0
  9  2  1  0
  8  4  1  0
  1 10  1  0
  1 11  1  0
  1 12  1  0
  3 13  1  0
  3 14  1  0
  4 15  1  0
  5 16  1  0
  5 17  1  0
  6 18  1  0
  6 19  1  0
  7 20  1  0
  8 21  1  0
M  END
