
     RDKit          3D

 19 20  0  0  0  0  0  0  0  0999 V2000
   -2.0592    0.5374    0.4866 C   0  0  0  0  0  0  0  0  0  0  0  0
   -0.6046    0.2948    0.2295 C   0  0  0  0  0  0  0  0  0  0  0  0
   -0.3667   -0.7374   -0.8720 C   0  0  0  0  0  0  0  0  0  0  0  0
    0.8633   -1.1437   -0.0454 C   0  0  0  0  0  0  0  0  0  0  0  0
    0.0264   -0.7430    1.1700 C   0  0  0  0  0  0  0  0  0  0  0  0
    1.8778   -0.1036   -0.2993 C   0  0  0  0  0  0  0  0  0  0  0  0
    3.0655   -0.2491   -0.2824 O   0  0  0  0  0  0  0  0  0  0  0  0
    1.3270    1.2686   -0.6078 C   0  0  0  0  0  0  0  0  0  0  0  0
    0.1575    1.4163    0.0932 O   0  0  0  0  0  0  0  0  0  0  0  0
   -2.6305   -0.3958    0.5429 H   0  0  0  0  0  0  0  0  0  0  0  0
   -2.1757    1.2028    1.3572 H   0  0  0  0  0  0  0  0  0  0  0  0
   -2.4580    1.0942   -0.4005 H   0  0  0  0  0  0  0  0  0  0  0  0
   -0.1252   -0.3226   -1.8549 H   0  0  0  0  0  0  0  0  0  0  0  0
   -1.1237   -1.5287   -0.8165 H   0  0  0  0  0  0  0  0  0  0  0  0
    1.1518   -2.1786   -0.1095 H   0  0  0  0  0  0  0  0  0  0  0  0
   -0.6869   -1.5273    1.4188 H   0  0  0  0  0  0  0  0  0  0  0  0
    0.6338   -0.3234    1.9739 H   0  0  0  0  0  0  0  0  0  0  0  0
    1.1063    1.3795   -1.6827 H   0  0  0  0  0  0  0  0  0  0  0  0
    2.0211    2.0597   -0.3013 H   0  0  0  0  0  0  0  0  0  0  0  0
  1  2  1  0
  2  3  1  0
  3  4  1  0
  4  5  1  0
  4  6  1  0
  6  7  2  0
  6  8  1  0
  8  9  1  0
  5  2  1  0
  9  2  1  0
  1 10  1  0
  1 11  1  0
  1 12  1  0
  3 13  1  0
  3 14  1  0
  4 15  1  0
  5 16  1  0
  5 17  1  0
  8 18  1  0
  8 19  1  0
M  END
