
     RDKit          3D

 19 20  0  0  0  0  0  0  0  0999 V2000
   -1.9191    0.2673    0.4039 C   0  0  0  0  0  0  0  0  0  0  0  0
   -0.5423    0.1006   -0.1142 C   0  0  0  0  0  0  0  0  0  0  0  0
    0.1507    1.4274   -0.2778 C   0  0  0  0  0  0  0  0  0  0  0  0
    1.3427    1.2013   -0.9316 O   0  0  0  0  0  0  0  0  0  0  0  0
    2.1584    0.4695   -0.0663 C   0  0  0  0  0  0  0  0  0  0  0  0
    1.6659   -0.7494    0.2675 O   0  0  0  0  0  0  0  0  0  0  0  0
    0.3628   -0.8240    0.6385 C   0  0  0  0  0  0  0  0  0  0  0  0
   -0.3671   -1.8157   -0.2755 C   0  0  0  0  0  0  0  0  0  0  0  0
   -0.4913   -0.7568   -1.1883 O   0  0  0  0  0  0  0  0  0  0  0  0
   -2.4283   -0.6373    0.7329 H   0  0  0  0  0  0  0  0  0  0  0  0
   -1.9873    1.0574    1.2055 H   0  0  0  0  0  0  0  0  0  0  0  0
   -2.5480    0.6901   -0.4346 H   0  0  0  0  0  0  0  0  0  0  0  0
   -0.4777    2.1945   -0.7313 H   0  0  0  0  0  0  0  0  0  0  0  0
    0.4241    1.7704    0.7640 H   0  0  0  0  0  0  0  0  0  0  0  0
    2.3639    1.1070    0.8037 H   0  0  0  0  0  0  0  0  0  0  0  0
    3.1165    0.3031   -0.6426 H   0  0  0  0  0  0  0  0  0  0  0  0
    0.1637   -0.9619    1.7050 H   0  0  0  0  0  0  0  0  0  0  0  0
    0.3066   -2.6241   -0.5861 H   0  0  0  0  0  0  0  0  0  0  0  0
   -1.2944   -2.2191    0.1223 H   0  0  0  0  0  0  0  0  0  0  0  0
  1  2  1  0
  2  3  1  0
  3  4  1  0
  4  5  1  0
  5  6  1  0
  6  7  1  0
  7  8  1  0
  8  9  1  0
  7  2  1  0
  9  2  1  0
  1 10  1  0
  1 11  1  0
  1 12  1  0
  3 13  1  0
  3 14  1  0
  5 15  1  0
  5 16  1  0
  7 17  1  0
  8 18  1  0
  8 19  1  0
M  END
