
     RDKit          3D

 19 21  0  0  0  0  0  0  0  0999 V2000
    2.0855    0.1039   -0.5335 C   0  0  0  0  0  0  0  0  0  0  0  0
    0.6932    0.1256   -0.1009 C   0  0  0  0  0  0  0  0  0  0  0  0
    0.2856    1.0285    0.9889 C   0  0  0  0  0  0  0  0  0  0  0  0
   -0.7868    0.5293    1.5918 C   0  0  0  0  0  0  0  0  0  0  0  0
   -1.2898   -0.5415    0.7434 C   0  0  0  0  0  0  0  0  0  0  0  0
   -1.6657    0.1181   -0.5986 C   0  0  0  0  0  0  0  0  0  0  0  0
   -0.2921   -0.0522   -1.2354 C   0  0  0  0  0  0  0  0  0  0  0  0
   -0.1100   -1.4216   -1.0762 O   0  0  0  0  0  0  0  0  0  0  0  0
    0.0215   -1.1724    0.2731 C   0  0  0  0  0  0  0  0  0  0  0  0
    2.2042    0.8218   -1.3988 H   0  0  0  0  0  0  0  0  0  0  0  0
    2.3930   -0.8808   -0.9450 H   0  0  0  0  0  0  0  0  0  0  0  0
    2.7956    0.4855    0.2385 H   0  0  0  0  0  0  0  0  0  0  0  0
    0.7751    1.9557    1.2647 H   0  0  0  0  0  0  0  0  0  0  0  0
   -1.2043    0.8553    2.5299 H   0  0  0  0  0  0  0  0  0  0  0  0
   -2.0115   -1.2161    1.1209 H   0  0  0  0  0  0  0  0  0  0  0  0
   -1.8717    1.1798   -0.4882 H   0  0  0  0  0  0  0  0  0  0  0  0
   -2.4321   -0.4678   -1.1195 H   0  0  0  0  0  0  0  0  0  0  0  0
   -0.1017    0.4046   -2.1712 H   0  0  0  0  0  0  0  0  0  0  0  0
    0.5121   -1.8556    0.9160 H   0  0  0  0  0  0  0  0  0  0  0  0
  1  2  1  0
  2  3  1  0
  3  4  2  0
  4  5  1  0
  5  6  1  0
  6  7  1  0
  7  8  1  0
  8  9  1  0
  7  2  1  0
  9  2  1  0
  9  5  1  0
  1 10  1  0
  1 11  1  0
  1 12  1  0
  3 13  1  0
  4 14  1  0
  5 15  1  0
  6 16  1  0
  6 17  1  0
  7 18  1  0
  9 19  1  0
M  END
