
     RDKit          3D

 19 20  0  0  0  0  0  0  0  0999 V2000
   -0.7911    1.5970   -0.5002 C   0  0  0  0  0  0  0  0  0  0  0  0
   -0.3549    0.3201   -0.0325 C   0  0  0  0  0  0  0  0  0  0  0  0
    0.0865   -0.7449   -1.0471 C   0  0  0  0  0  0  0  0  0  0  0  0
   -0.2036   -1.6609    0.1522 C   0  0  0  0  0  0  0  0  0  0  0  0
   -1.3900   -0.7187    0.4139 C   0  0  0  0  0  0  0  0  0  0  0  0
    0.6707   -1.2759    1.1272 O   0  0  0  0  0  0  0  0  0  0  0  0
    0.7024    0.1389    1.0006 C   0  0  0  0  0  0  0  0  0  0  0  0
    2.0564    0.4625    0.4729 C   0  0  0  0  0  0  0  0  0  0  0  0
    2.9068   -0.3749    0.2265 O   0  0  0  0  0  0  0  0  0  0  0  0
   -0.9673    1.5705   -1.6166 H   0  0  0  0  0  0  0  0  0  0  0  0
   -0.0347    2.3778   -0.3384 H   0  0  0  0  0  0  0  0  0  0  0  0
   -1.7972    1.8985   -0.0848 H   0  0  0  0  0  0  0  0  0  0  0  0
    1.1415   -0.6189   -1.2850 H   0  0  0  0  0  0  0  0  0  0  0  0
   -0.6040   -0.8588   -1.8752 H   0  0  0  0  0  0  0  0  0  0  0  0
   -0.4213   -2.6753   -0.0482 H   0  0  0  0  0  0  0  0  0  0  0  0
   -1.6044   -0.7023    1.4785 H   0  0  0  0  0  0  0  0  0  0  0  0
   -2.2265   -0.8591   -0.2873 H   0  0  0  0  0  0  0  0  0  0  0  0
    0.4864    0.6243    1.9619 H   0  0  0  0  0  0  0  0  0  0  0  0
    2.3441    1.5001    0.2816 H   0  0  0  0  0  0  0  0  0  0  0  0
  1  2  1  0
  2  3  1  0
  3  4  1  0
  4  5  1  0
  4  6  1  0
  6  7  1  0
  7  8  1  0
  8  9  2  0
  5  2  1  0
  7  2  1  0
  1 10  1  0
  1 11  1  0
  1 12  1  0
  3 13  1  0
  3 14  1  0
  4 15  1  0
  5 16  1  0
  5 17  1  0
  7 18  1  0
  8 19  1  0
M  END
