
     RDKit          3D

 19 20  0  0  0  0  0  0  0  0999 V2000
   -1.9897    0.3506    0.5065 C   0  0  0  0  0  0  0  0  0  0  0  0
   -0.6356    0.0385    0.1750 C   0  0  0  0  0  0  0  0  0  0  0  0
    0.0158    0.6835   -1.0501 C   0  0  0  0  0  0  0  0  0  0  0  0
    0.9469   -0.5282   -0.9412 C   0  0  0  0  0  0  0  0  0  0  0  0
   -0.3340   -1.2849   -0.5593 C   0  0  0  0  0  0  0  0  0  0  0  0
    1.6421   -0.2118    0.3669 C   0  0  0  0  0  0  0  0  0  0  0  0
    2.2648    1.0451    0.2542 O   0  0  0  0  0  0  0  0  0  0  0  0
    0.4301   -0.0146    1.1944 C   0  0  0  0  0  0  0  0  0  0  0  0
    0.3213    0.0786    2.3643 O   0  0  0  0  0  0  0  0  0  0  0  0
   -2.2422    1.4136    0.2164 H   0  0  0  0  0  0  0  0  0  0  0  0
   -2.1725    0.2821    1.6072 H   0  0  0  0  0  0  0  0  0  0  0  0
   -2.7912   -0.2860    0.0389 H   0  0  0  0  0  0  0  0  0  0  0  0
   -0.6261    0.5601   -1.9239 H   0  0  0  0  0  0  0  0  0  0  0  0
    0.4926    1.6410   -0.8756 H   0  0  0  0  0  0  0  0  0  0  0  0
    1.4893   -0.8362   -1.7865 H   0  0  0  0  0  0  0  0  0  0  0  0
   -0.9376   -1.4502   -1.4515 H   0  0  0  0  0  0  0  0  0  0  0  0
   -0.1762   -2.1248    0.1279 H   0  0  0  0  0  0  0  0  0  0  0  0
    2.3070   -0.9930    0.7143 H   0  0  0  0  0  0  0  0  0  0  0  0
    1.9949    1.6365    1.0221 H   0  0  0  0  0  0  0  0  0  0  0  0
  1  2  1  0
  2  3  1  0
  3  4  1  0
  4  5  1  0
  4  6  1  0
  6  7  1  0
  6  8  1  0
  8  9  2  0
  5  2  1  0
  8  2  1  0
  1 10  1  0
  1 11  1  0
  1 12  1  0
  3 13  1  0
  3 14  1  0
  4 15  1  0
  5 16  1  0
  5 17  1  0
  6 18  1  0
  7 19  1  0
M  END
