
     RDKit          3D

 18 20  0  0  0  0  0  0  0  0999 V2000
    1.9338    0.0107    0.4233 C   0  0  0  0  0  0  0  0  0  0  0  0
    0.6313    0.1609   -0.2973 C   0  0  0  0  0  0  0  0  0  0  0  0
    0.0850    1.4345   -0.7413 C   0  0  0  0  0  0  0  0  0  0  0  0
   -0.4297    0.8825    0.5210 C   0  0  0  0  0  0  0  0  0  0  0  0
   -1.5633   -0.0652    0.6132 C   0  0  0  0  0  0  0  0  0  0  0  0
   -1.1943   -1.3091   -0.1628 C   0  0  0  0  0  0  0  0  0  0  0  0
   -1.1457   -1.0282   -1.5879 O   0  0  0  0  0  0  0  0  0  0  0  0
   -0.0058   -1.1046   -0.8027 C   0  0  0  0  0  0  0  0  0  0  0  0
    2.7479   -0.4021   -0.1606 H   0  0  0  0  0  0  0  0  0  0  0  0
    1.7371   -0.6340    1.3244 H   0  0  0  0  0  0  0  0  0  0  0  0
    2.2051    1.0331    0.8179 H   0  0  0  0  0  0  0  0  0  0  0  0
    0.7292    2.3279   -0.6816 H   0  0  0  0  0  0  0  0  0  0  0  0
   -0.5451    1.4436   -1.6745 H   0  0  0  0  0  0  0  0  0  0  0  0
   -0.1274    1.3936    1.4573 H   0  0  0  0  0  0  0  0  0  0  0  0
   -2.5045    0.3907    0.2962 H   0  0  0  0  0  0  0  0  0  0  0  0
   -1.6753   -0.3887    1.6800 H   0  0  0  0  0  0  0  0  0  0  0  0
   -1.6248   -2.2817    0.1139 H   0  0  0  0  0  0  0  0  0  0  0  0
    0.7464   -1.8637   -1.1385 H   0  0  0  0  0  0  0  0  0  0  0  0
  1  2  1  0
  2  3  1  0
  3  4  1  0
  4  5  1  0
  5  6  1  0
  6  7  1  0
  7  8  1  0
  4  2  1  0
  8  6  1  0
  8  2  1  0
  1  9  1  0
  1 10  1  0
  1 11  1  0
  3 12  1  0
  3 13  1  0
  4 14  1  0
  5 15  1  0
  5 16  1  0
  6 17  1  0
  8 18  1  0
M  END
