
     RDKit          3D

 21 22  0  0  0  0  0  0  0  0999 V2000
    2.0313    0.5589    0.5346 C   0  0  0  0  0  0  0  0  0  0  0  0
    0.6344    0.1656    0.2514 C   0  0  0  0  0  0  0  0  0  0  0  0
   -0.1065   -0.4032    1.3767 C   0  0  0  0  0  0  0  0  0  0  0  0
   -1.0918   -1.1332    0.8838 C   0  0  0  0  0  0  0  0  0  0  0  0
   -0.9003   -1.3511   -0.5855 C   0  0  0  0  0  0  0  0  0  0  0  0
    0.5902   -1.0150   -0.7324 C   0  0  0  0  0  0  0  0  0  0  0  0
   -1.5800   -0.4136   -1.3403 O   0  0  0  0  0  0  0  0  0  0  0  0
   -1.5557    0.8083   -0.7280 C   0  0  0  0  0  0  0  0  0  0  0  0
   -0.1990    1.2948   -0.3317 C   0  0  0  0  0  0  0  0  0  0  0  0
    2.2529    1.4977   -0.0403 H   0  0  0  0  0  0  0  0  0  0  0  0
    2.2725    0.7614    1.5777 H   0  0  0  0  0  0  0  0  0  0  0  0
    2.7269   -0.2197    0.1350 H   0  0  0  0  0  0  0  0  0  0  0  0
    0.0970   -0.2651    2.4231 H   0  0  0  0  0  0  0  0  0  0  0  0
   -1.9270   -1.5311    1.4270 H   0  0  0  0  0  0  0  0  0  0  0  0
   -1.1186   -2.3816   -0.8890 H   0  0  0  0  0  0  0  0  0  0  0  0
    1.1985   -1.8267   -0.3310 H   0  0  0  0  0  0  0  0  0  0  0  0
    0.8368   -0.6755   -1.7335 H   0  0  0  0  0  0  0  0  0  0  0  0
   -1.9728    1.5548   -1.4577 H   0  0  0  0  0  0  0  0  0  0  0  0
   -2.2141    0.7640    0.1715 H   0  0  0  0  0  0  0  0  0  0  0  0
   -0.3427    2.0228    0.5157 H   0  0  0  0  0  0  0  0  0  0  0  0
    0.3680    1.7877   -1.1270 H   0  0  0  0  0  0  0  0  0  0  0  0
  1  2  1  0
  2  3  1  0
  3  4  2  0
  4  5  1  0
  5  6  1  0
  5  7  1  0
  7  8  1  0
  8  9  1  0
  6  2  1  0
  9  2  1  0
  1 10  1  0
  1 11  1  0
  1 12  1  0
  3 13  1  0
  4 14  1  0
  5 15  1  0
  6 16  1  0
  6 17  1  0
  8 18  1  0
  8 19  1  0
  9 20  1  0
  9 21  1  0
M  END
