
     RDKit          3D

 17 19  0  0  0  0  0  0  0  0999 V2000
    1.7454   -0.4898   -0.6729 C   0  0  0  0  0  0  0  0  0  0  0  0
    0.4579   -0.2137   -0.0733 C   0  0  0  0  0  0  0  0  0  0  0  0
   -0.5392    0.7826   -0.5588 C   0  0  0  0  0  0  0  0  0  0  0  0
   -1.5979   -0.3144   -0.4239 C   0  0  0  0  0  0  0  0  0  0  0  0
   -0.5760   -1.0900    0.3894 C   0  0  0  0  0  0  0  0  0  0  0  0
    0.1672   -0.3051    1.3848 C   0  0  0  0  0  0  0  0  0  0  0  0
   -0.2992    0.9972    1.7223 O   0  0  0  0  0  0  0  0  0  0  0  0
   -0.6046    1.7183    0.5883 C   0  0  0  0  0  0  0  0  0  0  0  0
   -0.8887    2.9353    0.5046 O   0  0  0  0  0  0  0  0  0  0  0  0
    1.9863    0.2898   -1.4528 H   0  0  0  0  0  0  0  0  0  0  0  0
    1.9221   -1.5079   -1.0716 H   0  0  0  0  0  0  0  0  0  0  0  0
    2.5532   -0.3410    0.1033 H   0  0  0  0  0  0  0  0  0  0  0  0
   -0.4208    1.2070   -1.5461 H   0  0  0  0  0  0  0  0  0  0  0  0
   -1.8268   -0.7732   -1.4061 H   0  0  0  0  0  0  0  0  0  0  0  0
   -2.4781    0.0132    0.1608 H   0  0  0  0  0  0  0  0  0  0  0  0
   -0.5928   -2.1850    0.3649 H   0  0  0  0  0  0  0  0  0  0  0  0
    0.9920   -0.7232    1.9870 H   0  0  0  0  0  0  0  0  0  0  0  0
  1  2  1  0
  2  3  1  0
  3  4  1  0
  4  5  1  0
  5  6  1  0
  6  7  1  0
  7  8  1  0
  8  9  2  0
  5  2  1  0
  6  2  1  0
  8  3  1  0
  1 10  1  0
  1 11  1  0
  1 12  1  0
  3 13  1  0
  4 14  1  0
  4 15  1  0
  5 16  1  0
  6 17  1  0
M  END
