
     RDKit          3D

 21 23  0  0  0  0  0  0  0  0999 V2000
   -2.0441   -0.4425   -0.4267 C   0  0  0  0  0  0  0  0  0  0  0  0
   -0.5871   -0.6036   -0.1713 C   0  0  0  0  0  0  0  0  0  0  0  0
   -0.2201   -1.0677    1.2459 C   0  0  0  0  0  0  0  0  0  0  0  0
    0.8406    0.0352    1.2319 C   0  0  0  0  0  0  0  0  0  0  0  0
    1.6161    0.1241   -0.0336 C   0  0  0  0  0  0  0  0  0  0  0  0
    1.4509   -1.0577   -0.9817 C   0  0  0  0  0  0  0  0  0  0  0  0
    0.1124   -1.2633   -1.1657 O   0  0  0  0  0  0  0  0  0  0  0  0
    0.2242    0.6112    0.0723 C   0  0  0  0  0  0  0  0  0  0  0  0
   -0.1536    1.9793   -0.2107 C   0  0  0  0  0  0  0  0  0  0  0  0
   -2.2270    0.2565   -1.2481 H   0  0  0  0  0  0  0  0  0  0  0  0
   -2.5126   -1.4142   -0.5812 H   0  0  0  0  0  0  0  0  0  0  0  0
   -2.4986    0.0089    0.5022 H   0  0  0  0  0  0  0  0  0  0  0  0
    0.1926   -2.0937    1.2803 H   0  0  0  0  0  0  0  0  0  0  0  0
   -1.0514   -0.8673    1.9444 H   0  0  0  0  0  0  0  0  0  0  0  0
    1.1229    0.5321    2.1509 H   0  0  0  0  0  0  0  0  0  0  0  0
    2.4330    0.8282   -0.1695 H   0  0  0  0  0  0  0  0  0  0  0  0
    1.9423   -1.9189   -0.5274 H   0  0  0  0  0  0  0  0  0  0  0  0
    1.9789   -0.7650   -1.9199 H   0  0  0  0  0  0  0  0  0  0  0  0
    0.5155    2.6847    0.3531 H   0  0  0  0  0  0  0  0  0  0  0  0
   -1.1985    2.2186   -0.0509 H   0  0  0  0  0  0  0  0  0  0  0  0
    0.0635    2.2150   -1.2944 H   0  0  0  0  0  0  0  0  0  0  0  0
  1  2  1  0
  2  3  1  0
  3  4  1  0
  4  5  1  0
  5  6  1  0
  6  7  1  0
  5  8  1  0
  8  9  1  0
  7  2  1  0
  8  2  1  0
  8  4  1  0
  1 10  1  0
  1 11  1  0
  1 12  1  0
  3 13  1  0
  3 14  1  0
  4 15  1  0
  5 16  1  0
  6 17  1  0
  6 18  1  0
  9 19  1  0
  9 20  1  0
  9 21  1  0
M  END
