
     RDKit          3D

 19 21  0  0  0  0  0  0  0  0999 V2000
   -0.8408    1.8092   -0.0887 C   0  0  0  0  0  0  0  0  0  0  0  0
   -0.4723    0.4385   -0.3362 C   0  0  0  0  0  0  0  0  0  0  0  0
   -1.5604   -0.5789   -0.5116 C   0  0  0  0  0  0  0  0  0  0  0  0
   -0.8772   -1.7868   -0.4007 O   0  0  0  0  0  0  0  0  0  0  0  0
    0.3415   -1.5596    0.1875 C   0  0  0  0  0  0  0  0  0  0  0  0
    1.2852   -0.7418   -0.7120 C   0  0  0  0  0  0  0  0  0  0  0  0
    1.6480    0.0149    0.5785 C   0  0  0  0  0  0  0  0  0  0  0  0
    0.2160   -0.2087    0.8725 C   0  0  0  0  0  0  0  0  0  0  0  0
    0.4825    0.1855   -1.3268 O   0  0  0  0  0  0  0  0  0  0  0  0
   -0.1199    2.2599    0.6568 H   0  0  0  0  0  0  0  0  0  0  0  0
   -0.7944    2.4820   -0.9699 H   0  0  0  0  0  0  0  0  0  0  0  0
   -1.8763    1.8394    0.3436 H   0  0  0  0  0  0  0  0  0  0  0  0
   -2.0030   -0.5518   -1.5337 H   0  0  0  0  0  0  0  0  0  0  0  0
   -2.3128   -0.4372    0.2888 H   0  0  0  0  0  0  0  0  0  0  0  0
    0.8035   -2.3535    0.7474 H   0  0  0  0  0  0  0  0  0  0  0  0
    2.0544   -1.2532   -1.2162 H   0  0  0  0  0  0  0  0  0  0  0  0
    2.3836   -0.5183    1.2114 H   0  0  0  0  0  0  0  0  0  0  0  0
    1.8575    1.0897    0.3940 H   0  0  0  0  0  0  0  0  0  0  0  0
   -0.2151   -0.1294    1.8152 H   0  0  0  0  0  0  0  0  0  0  0  0
  1  2  1  0
  2  3  1  0
  3  4  1  0
  4  5  1  0
  5  6  1  0
  6  7  1  0
  7  8  1  0
  6  9  1  0
  8  2  1  0
  9  2  1  0
  8  5  1  0
  1 10  1  0
  1 11  1  0
  1 12  1  0
  3 13  1  0
  3 14  1  0
  5 15  1  0
  6 16  1  0
  7 17  1  0
  7 18  1  0
  8 19  1  0
M  END
