
     RDKit          3D

 21 23  0  0  0  0  0  0  0  0999 V2000
   -1.6236    0.9373    0.9448 C   0  0  0  0  0  0  0  0  0  0  0  0
   -0.9140    0.0989    0.1295 C   0  0  0  0  0  0  0  0  0  0  0  0
   -1.4896   -0.6191   -1.1036 C   0  0  0  0  0  0  0  0  0  0  0  0
   -0.0297   -1.1013   -0.9654 C   0  0  0  0  0  0  0  0  0  0  0  0
   -0.3610   -1.2467    0.4536 C   0  0  0  0  0  0  0  0  0  0  0  0
    0.2311    0.3499   -0.7507 C   0  0  0  0  0  0  0  0  0  0  0  0
    1.5319    0.8364   -0.2970 C   0  0  0  0  0  0  0  0  0  0  0  0
    2.5240    0.2940    0.5607 C   0  0  0  0  0  0  0  0  0  0  0  0
    2.6283   -0.0197   -0.8015 O   0  0  0  0  0  0  0  0  0  0  0  0
   -1.4096    0.7902    2.0463 H   0  0  0  0  0  0  0  0  0  0  0  0
   -1.4677    2.0220    0.7732 H   0  0  0  0  0  0  0  0  0  0  0  0
   -2.7443    0.8005    0.8836 H   0  0  0  0  0  0  0  0  0  0  0  0
   -1.6190    0.1107   -1.8995 H   0  0  0  0  0  0  0  0  0  0  0  0
   -2.2489   -1.3672   -0.8989 H   0  0  0  0  0  0  0  0  0  0  0  0
    0.4038   -1.7227   -1.6158 H   0  0  0  0  0  0  0  0  0  0  0  0
   -1.2142   -2.0178    0.5319 H   0  0  0  0  0  0  0  0  0  0  0  0
    0.3683   -1.3411    1.2384 H   0  0  0  0  0  0  0  0  0  0  0  0
   -0.1072    0.8714   -1.7300 H   0  0  0  0  0  0  0  0  0  0  0  0
    1.7553    1.8885   -0.7256 H   0  0  0  0  0  0  0  0  0  0  0  0
    3.3395    0.9988    0.9009 H   0  0  0  0  0  0  0  0  0  0  0  0
    2.4466   -0.5629    1.2086 H   0  0  0  0  0  0  0  0  0  0  0  0
  1  2  1  0
  2  3  1  0
  3  4  1  0
  4  5  1  0
  4  6  1  0
  6  7  1  0
  7  8  1  0
  8  9  1  0
  5  2  1  0
  9  7  1  0
  6  2  1  0
  1 10  1  0
  1 11  1  0
  1 12  1  0
  3 13  1  0
  3 14  1  0
  4 15  1  0
  5 16  1  0
  5 17  1  0
  6 18  1  0
  7 19  1  0
  8 20  1  0
  8 21  1  0
M  END
