
     RDKit          3D

 19 21  0  0  0  0  0  0  0  0999 V2000
   -1.8300    1.4281    0.0030 C   0  0  0  0  0  0  0  0  0  0  0  0
   -0.6678    0.4854   -0.2913 C   0  0  0  0  0  0  0  0  0  0  0  0
   -1.1982   -0.9828   -0.3154 C   0  0  0  0  0  0  0  0  0  0  0  0
    0.0941   -1.7874   -0.1888 C   0  0  0  0  0  0  0  0  0  0  0  0
    1.1063   -1.0249    0.0768 C   0  0  0  0  0  0  0  0  0  0  0  0
    2.3162   -0.2301    0.3786 C   0  0  0  0  0  0  0  0  0  0  0  0
    1.9225    1.0856   -0.0877 O   0  0  0  0  0  0  0  0  0  0  0  0
    0.6488    0.9557   -0.6234 C   0  0  0  0  0  0  0  0  0  0  0  0
    0.2559    0.2046    0.6596 C   0  0  0  0  0  0  0  0  0  0  0  0
   -2.5212    1.3905   -0.8672 H   0  0  0  0  0  0  0  0  0  0  0  0
   -2.3851    0.9782    0.8514 H   0  0  0  0  0  0  0  0  0  0  0  0
   -1.5130    2.4462    0.2185 H   0  0  0  0  0  0  0  0  0  0  0  0
   -1.5646   -1.1946   -1.3163 H   0  0  0  0  0  0  0  0  0  0  0  0
   -1.8704   -1.1689    0.5144 H   0  0  0  0  0  0  0  0  0  0  0  0
    0.2177   -2.8640   -0.2986 H   0  0  0  0  0  0  0  0  0  0  0  0
    2.4648   -0.1926    1.4515 H   0  0  0  0  0  0  0  0  0  0  0  0
    3.2085   -0.5474   -0.1861 H   0  0  0  0  0  0  0  0  0  0  0  0
    0.8708    0.4918   -1.6036 H   0  0  0  0  0  0  0  0  0  0  0  0
    0.4445    0.5266    1.6245 H   0  0  0  0  0  0  0  0  0  0  0  0
  1  2  1  0
  2  3  1  0
  3  4  1  0
  4  5  2  0
  5  6  1  0
  6  7  1  0
  7  8  1  0
  8  9  1  0
  8  2  1  0
  9  2  1  0
  9  5  1  0
  1 10  1  0
  1 11  1  0
  1 12  1  0
  3 13  1  0
  3 14  1  0
  4 15  1  0
  6 16  1  0
  6 17  1  0
  8 18  1  0
  9 19  1  0
M  END
