
     RDKit          3D

 21 22  0  0  0  0  0  0  0  0999 V2000
   -1.9843    0.7960   -0.0199 C   0  0  0  0  0  0  0  0  0  0  0  0
   -0.6897    0.1762    0.0922 C   0  0  0  0  0  0  0  0  0  0  0  0
    0.0330    0.0933    1.3999 C   0  0  0  0  0  0  0  0  0  0  0  0
    1.2865   -0.6757    0.9335 C   0  0  0  0  0  0  0  0  0  0  0  0
    2.4341    0.0402    1.1262 O   0  0  0  0  0  0  0  0  0  0  0  0
    0.9900   -0.7621   -0.5247 C   0  0  0  0  0  0  0  0  0  0  0  0
   -0.4662   -1.2030   -0.5166 C   0  0  0  0  0  0  0  0  0  0  0  0
    0.4374    0.6352   -0.8399 C   0  0  0  0  0  0  0  0  0  0  0  0
    0.0461    0.8113   -2.1492 O   0  0  0  0  0  0  0  0  0  0  0  0
   -2.1089    1.2977   -1.0006 H   0  0  0  0  0  0  0  0  0  0  0  0
   -2.7962    0.0099    0.0017 H   0  0  0  0  0  0  0  0  0  0  0  0
   -2.1609    1.5182    0.7985 H   0  0  0  0  0  0  0  0  0  0  0  0
   -0.4658   -0.5160    2.1611 H   0  0  0  0  0  0  0  0  0  0  0  0
    0.4032    1.0661    1.7672 H   0  0  0  0  0  0  0  0  0  0  0  0
    1.3339   -1.6716    1.4430 H   0  0  0  0  0  0  0  0  0  0  0  0
    3.1005   -0.2490    0.4449 H   0  0  0  0  0  0  0  0  0  0  0  0
    1.6588   -1.1999   -1.2107 H   0  0  0  0  0  0  0  0  0  0  0  0
   -0.8770   -1.2963   -1.5239 H   0  0  0  0  0  0  0  0  0  0  0  0
   -0.7214   -1.9734    0.2162 H   0  0  0  0  0  0  0  0  0  0  0  0
    1.0026    1.4582   -0.3905 H   0  0  0  0  0  0  0  0  0  0  0  0
   -0.4557    1.6446   -2.2082 H   0  0  0  0  0  0  0  0  0  0  0  0
  1  2  1  0
  2  3  1  0
  3  4  1  0
  4  5  1  0
  4  6  1  0
  6  7  1  0
  6  8  1  0
  8  9  1  0
  7  2  1  0
  8  2  1  0
  1 10  1  0
  1 11  1  0
  1 12  1  0
  3 13  1  0
  3 14  1  0
  4 15  1  0
  5 16  1  0
  6 17  1  0
  7 18  1  0
  7 19  1  0
  8 20  1  0
  9 21  1  0
M  END
