
     RDKit          3D

 19 20  0  0  0  0  0  0  0  0999 V2000
   -1.1289   -0.9487   -1.1708 C   0  0  0  0  0  0  0  0  0  0  0  0
   -0.7674   -0.0996   -0.0588 C   0  0  0  0  0  0  0  0  0  0  0  0
   -1.5761    1.1343    0.2107 C   0  0  0  0  0  0  0  0  0  0  0  0
   -0.9597    1.5774    1.3327 C   0  0  0  0  0  0  0  0  0  0  0  0
    0.0809    0.5155    1.5064 C   0  0  0  0  0  0  0  0  0  0  0  0
   -0.6362   -0.6680    1.2226 O   0  0  0  0  0  0  0  0  0  0  0  0
    0.6305    0.3917    0.1157 C   0  0  0  0  0  0  0  0  0  0  0  0
    1.7053   -0.6672    0.0045 C   0  0  0  0  0  0  0  0  0  0  0  0
    1.6493   -1.2581   -1.2550 O   0  0  0  0  0  0  0  0  0  0  0  0
   -0.6442   -0.5631   -2.1107 H   0  0  0  0  0  0  0  0  0  0  0  0
   -0.7571   -1.9723   -1.0270 H   0  0  0  0  0  0  0  0  0  0  0  0
   -2.2179   -0.9079   -1.3693 H   0  0  0  0  0  0  0  0  0  0  0  0
   -2.4095    1.5611   -0.3219 H   0  0  0  0  0  0  0  0  0  0  0  0
   -1.1741    2.4563    1.9241 H   0  0  0  0  0  0  0  0  0  0  0  0
    0.7151    0.5373    2.3460 H   0  0  0  0  0  0  0  0  0  0  0  0
    0.9101    1.3195   -0.3872 H   0  0  0  0  0  0  0  0  0  0  0  0
    1.5902   -1.4528    0.7521 H   0  0  0  0  0  0  0  0  0  0  0  0
    2.6866   -0.1305    0.1149 H   0  0  0  0  0  0  0  0  0  0  0  0
    2.3033   -0.8249   -1.8289 H   0  0  0  0  0  0  0  0  0  0  0  0
  1  2  1  0
  2  3  1  0
  3  4  2  0
  4  5  1  0
  5  6  1  0
  5  7  1  0
  7  8  1  0
  8  9  1  0
  6  2  1  0
  7  2  1  0
  1 10  1  0
  1 11  1  0
  1 12  1  0
  3 13  1  0
  4 14  1  0
  5 15  1  0
  7 16  1  0
  8 17  1  0
  8 18  1  0
  9 19  1  0
M  END
