
     RDKit          3D

 19 21  0  0  0  0  0  0  0  0999 V2000
    2.3377    0.0217   -0.3062 C   0  0  0  0  0  0  0  0  0  0  0  0
    0.9078    0.0272    0.1362 C   0  0  0  0  0  0  0  0  0  0  0  0
    0.3274    1.3904    0.1089 C   0  0  0  0  0  0  0  0  0  0  0  0
   -0.9684    1.5618    0.0548 C   0  0  0  0  0  0  0  0  0  0  0  0
   -1.9765    0.4723    0.0156 C   0  0  0  0  0  0  0  0  0  0  0  0
   -1.3809   -0.8890   -0.0828 C   0  0  0  0  0  0  0  0  0  0  0  0
   -0.3560   -1.3886    0.8601 C   0  0  0  0  0  0  0  0  0  0  0  0
    0.6462   -0.5925    1.3529 O   0  0  0  0  0  0  0  0  0  0  0  0
    0.0069   -0.9529   -0.5272 C   0  0  0  0  0  0  0  0  0  0  0  0
    2.7297   -0.9861   -0.5418 H   0  0  0  0  0  0  0  0  0  0  0  0
    2.9525    0.4553    0.5234 H   0  0  0  0  0  0  0  0  0  0  0  0
    2.4499    0.6629   -1.1808 H   0  0  0  0  0  0  0  0  0  0  0  0
    0.9784    2.2460    0.1337 H   0  0  0  0  0  0  0  0  0  0  0  0
   -1.3524    2.5788    0.0364 H   0  0  0  0  0  0  0  0  0  0  0  0
   -2.5997    0.5640    0.9152 H   0  0  0  0  0  0  0  0  0  0  0  0
   -2.6398    0.6403   -0.8597 H   0  0  0  0  0  0  0  0  0  0  0  0
   -2.0697   -1.6631   -0.4816 H   0  0  0  0  0  0  0  0  0  0  0  0
   -0.3500   -2.4793    1.1183 H   0  0  0  0  0  0  0  0  0  0  0  0
    0.3571   -1.6695   -1.2753 H   0  0  0  0  0  0  0  0  0  0  0  0
  1  2  1  0
  2  3  1  0
  3  4  2  0
  4  5  1  0
  5  6  1  0
  6  7  1  0
  7  8  1  0
  7  9  1  0
  8  2  1  0
  9  2  1  0
  9  6  1  0
  1 10  1  0
  1 11  1  0
  1 12  1  0
  3 13  1  0
  4 14  1  0
  5 15  1  0
  5 16  1  0
  6 17  1  0
  7 18  1  0
  9 19  1  0
M  END
