
     RDKit          3D

 23 25  0  0  0  0  0  0  0  0999 V2000
    1.4490    1.6417    0.5658 C   0  0  0  0  0  0  0  0  0  0  0  0
    1.2655    0.2571    0.0895 C   0  0  0  0  0  0  0  0  0  0  0  0
    1.4791   -0.0936   -1.3701 C   0  0  0  0  0  0  0  0  0  0  0  0
    0.3412   -1.1011   -1.2291 C   0  0  0  0  0  0  0  0  0  0  0  0
    0.1001   -0.5573    0.1373 C   0  0  0  0  0  0  0  0  0  0  0  0
   -1.2187   -0.3238    0.7109 C   0  0  0  0  0  0  0  0  0  0  0  0
   -2.1413    0.7643    0.3289 C   0  0  0  0  0  0  0  0  0  0  0  0
   -2.4298   -0.6017   -0.1434 C   0  0  0  0  0  0  0  0  0  0  0  0
    1.2607   -0.8364    1.1089 C   0  0  0  0  0  0  0  0  0  0  0  0
    1.4059    1.6728    1.6548 H   0  0  0  0  0  0  0  0  0  0  0  0
    0.7932    2.3927    0.0754 H   0  0  0  0  0  0  0  0  0  0  0  0
    2.4978    1.9635    0.2895 H   0  0  0  0  0  0  0  0  0  0  0  0
    1.1672    0.7062   -2.0614 H   0  0  0  0  0  0  0  0  0  0  0  0
    2.4580   -0.5535   -1.5976 H   0  0  0  0  0  0  0  0  0  0  0  0
    0.7318   -2.1442   -1.1678 H   0  0  0  0  0  0  0  0  0  0  0  0
   -0.4473   -1.0159   -1.9711 H   0  0  0  0  0  0  0  0  0  0  0  0
   -1.3419   -0.6913    1.7702 H   0  0  0  0  0  0  0  0  0  0  0  0
   -2.8486    1.1703    1.1011 H   0  0  0  0  0  0  0  0  0  0  0  0
   -1.8693    1.5255   -0.4157 H   0  0  0  0  0  0  0  0  0  0  0  0
   -3.2908   -1.1699    0.3020 H   0  0  0  0  0  0  0  0  0  0  0  0
   -2.3298   -0.7817   -1.2206 H   0  0  0  0  0  0  0  0  0  0  0  0
    1.0617   -0.5167    2.1367 H   0  0  0  0  0  0  0  0  0  0  0  0
    1.9064   -1.7069    0.9058 H   0  0  0  0  0  0  0  0  0  0  0  0
  1  2  1  0
  2  3  1  0
  3  4  1  0
  4  5  1  0
  5  6  1  0
  6  7  1  0
  7  8  1  0
  5  9  1  0
  5  2  1  0
  8  6  1  0
  9  2  1  0
  1 10  1  0
  1 11  1  0
  1 12  1  0
  3 13  1  0
  3 14  1  0
  4 15  1  0
  4 16  1  0
  6 17  1  0
  7 18  1  0
  7 19  1  0
  8 20  1  0
  8 21  1  0
  9 22  1  0
  9 23  1  0
M  END
