
     RDKit          3D

 19 20  0  0  0  0  0  0  0  0999 V2000
   -2.0441   -0.6399   -0.8096 C   0  0  0  0  0  0  0  0  0  0  0  0
   -0.6764   -0.2043   -0.2605 C   0  0  0  0  0  0  0  0  0  0  0  0
    0.1686   -1.2464   -0.0555 O   0  0  0  0  0  0  0  0  0  0  0  0
    1.4499   -0.9572    0.2712 C   0  0  0  0  0  0  0  0  0  0  0  0
    2.0393    0.2419   -0.3527 C   0  0  0  0  0  0  0  0  0  0  0  0
    1.2133    1.2188   -0.7563 O   0  0  0  0  0  0  0  0  0  0  0  0
   -0.1151    1.0921   -0.5929 C   0  0  0  0  0  0  0  0  0  0  0  0
   -0.7860    0.9327    0.7179 C   0  0  0  0  0  0  0  0  0  0  0  0
   -0.0625    0.7407    1.8864 O   0  0  0  0  0  0  0  0  0  0  0  0
   -2.3420   -1.4995   -0.1380 H   0  0  0  0  0  0  0  0  0  0  0  0
   -1.9867   -0.9394   -1.8557 H   0  0  0  0  0  0  0  0  0  0  0  0
   -2.8104    0.1339   -0.6441 H   0  0  0  0  0  0  0  0  0  0  0  0
    2.0793   -1.8603    0.0126 H   0  0  0  0  0  0  0  0  0  0  0  0
    1.5344   -0.8935    1.3937 H   0  0  0  0  0  0  0  0  0  0  0  0
    2.7891    0.6788    0.3708 H   0  0  0  0  0  0  0  0  0  0  0  0
    2.6775   -0.0761   -1.2290 H   0  0  0  0  0  0  0  0  0  0  0  0
   -0.7132    1.7134   -1.3273 H   0  0  0  0  0  0  0  0  0  0  0  0
   -1.7739    1.4151    0.9023 H   0  0  0  0  0  0  0  0  0  0  0  0
   -0.6411    0.1492    2.4667 H   0  0  0  0  0  0  0  0  0  0  0  0
  1  2  1  0
  2  3  1  0
  3  4  1  0
  4  5  1  0
  5  6  1  0
  6  7  1  0
  7  8  1  0
  8  9  1  0
  7  2  1  0
  8  2  1  0
  1 10  1  0
  1 11  1  0
  1 12  1  0
  4 13  1  0
  4 14  1  0
  5 15  1  0
  5 16  1  0
  7 17  1  0
  8 18  1  0
  9 19  1  0
M  END
