
     RDKit          3D

 17 19  0  0  0  0  0  0  0  0999 V2000
   -1.9454    0.8278   -0.5827 C   0  0  0  0  0  0  0  0  0  0  0  0
   -0.7985   -0.1749   -0.8387 C   0  0  0  0  0  0  0  0  0  0  0  0
   -1.4051   -1.4067   -0.9638 O   0  0  0  0  0  0  0  0  0  0  0  0
   -0.6166   -1.3520    0.1360 C   0  0  0  0  0  0  0  0  0  0  0  0
    0.8658   -1.2356   -0.1638 C   0  0  0  0  0  0  0  0  0  0  0  0
    1.7612   -0.0899   -0.2621 C   0  0  0  0  0  0  0  0  0  0  0  0
    2.3470    0.3402   -1.4796 O   0  0  0  0  0  0  0  0  0  0  0  0
    0.4174    0.1874   -0.0925 C   0  0  0  0  0  0  0  0  0  0  0  0
    0.0694    0.5390    1.2550 O   0  0  0  0  0  0  0  0  0  0  0  0
   -2.4770    0.4640    0.3156 H   0  0  0  0  0  0  0  0  0  0  0  0
   -1.5430    1.8248   -0.3549 H   0  0  0  0  0  0  0  0  0  0  0  0
   -2.6243    0.8171   -1.4507 H   0  0  0  0  0  0  0  0  0  0  0  0
   -0.9916   -1.2421    1.1491 H   0  0  0  0  0  0  0  0  0  0  0  0
    1.1026   -1.8808   -0.9978 H   0  0  0  0  0  0  0  0  0  0  0  0
    2.5122   -0.0162    0.5627 H   0  0  0  0  0  0  0  0  0  0  0  0
    3.1344    0.8799   -1.3518 H   0  0  0  0  0  0  0  0  0  0  0  0
    0.1915    1.5180    1.2810 H   0  0  0  0  0  0  0  0  0  0  0  0
  1  2  1  0
  2  3  1  0
  3  4  1  0
  4  5  1  0
  5  6  1  0
  6  7  1  0
  6  8  1  0
  8  9  1  0
  4  2  1  0
  8  5  1  0
  8  2  1  0
  1 10  1  0
  1 11  1  0
  1 12  1  0
  4 13  1  0
  5 14  1  0
  6 15  1  0
  7 16  1  0
  9 17  1  0
M  END
