
     RDKit          3D

 17 18  0  0  0  0  0  0  0  0999 V2000
    2.0892    0.2499    0.4512 C   0  0  0  0  0  0  0  0  0  0  0  0
    0.6612    0.2736    0.1156 C   0  0  0  0  0  0  0  0  0  0  0  0
    0.1552   -0.9296   -0.6420 C   0  0  0  0  0  0  0  0  0  0  0  0
   -1.2866   -1.0137   -0.1171 C   0  0  0  0  0  0  0  0  0  0  0  0
   -1.4141    0.3516    0.5204 C   0  0  0  0  0  0  0  0  0  0  0  0
   -0.1917    0.3820    1.2422 O   0  0  0  0  0  0  0  0  0  0  0  0
   -1.1332    1.4305   -0.4517 C   0  0  0  0  0  0  0  0  0  0  0  0
   -1.9829    2.1582   -0.9933 O   0  0  0  0  0  0  0  0  0  0  0  0
    0.2417    1.4335   -0.6052 O   0  0  0  0  0  0  0  0  0  0  0  0
    2.6476    0.9210   -0.2633 H   0  0  0  0  0  0  0  0  0  0  0  0
    2.4925   -0.7825    0.3232 H   0  0  0  0  0  0  0  0  0  0  0  0
    2.3262    0.5230    1.5119 H   0  0  0  0  0  0  0  0  0  0  0  0
    0.1915   -0.7391   -1.7131 H   0  0  0  0  0  0  0  0  0  0  0  0
    0.7538   -1.7969   -0.3079 H   0  0  0  0  0  0  0  0  0  0  0  0
   -2.0055   -1.1993   -0.9071 H   0  0  0  0  0  0  0  0  0  0  0  0
   -1.2654   -1.7546    0.6972 H   0  0  0  0  0  0  0  0  0  0  0  0
   -2.2796    0.4923    1.1391 H   0  0  0  0  0  0  0  0  0  0  0  0
  1  2  1  0
  2  3  1  0
  3  4  1  0
  4  5  1  0
  5  6  1  0
  5  7  1  0
  7  8  2  0
  7  9  1  0
  6  2  1  0
  9  2  1  0
  1 10  1  0
  1 11  1  0
  1 12  1  0
  3 13  1  0
  3 14  1  0
  4 15  1  0
  4 16  1  0
  5 17  1  0
M  END
