
     RDKit          3D

 19 21  0  0  0  0  0  0  0  0999 V2000
    1.9111    1.2582   -0.1548 C   0  0  0  0  0  0  0  0  0  0  0  0
    0.7160    0.3406   -0.2843 C   0  0  0  0  0  0  0  0  0  0  0  0
    1.1092   -1.1217   -0.4923 C   0  0  0  0  0  0  0  0  0  0  0  0
    0.4340   -0.6264    0.7633 C   0  0  0  0  0  0  0  0  0  0  0  0
   -0.9851   -1.0456    0.9305 C   0  0  0  0  0  0  0  0  0  0  0  0
   -1.6351   -1.5667   -0.2499 O   0  0  0  0  0  0  0  0  0  0  0  0
   -1.9508   -0.2958    0.3219 C   0  0  0  0  0  0  0  0  0  0  0  0
   -1.5329    0.8509   -0.5378 C   0  0  0  0  0  0  0  0  0  0  0  0
   -0.2926    0.7736   -1.0690 O   0  0  0  0  0  0  0  0  0  0  0  0
    2.2019    1.5376   -1.2078 H   0  0  0  0  0  0  0  0  0  0  0  0
    2.8158    0.7047    0.2320 H   0  0  0  0  0  0  0  0  0  0  0  0
    1.6621    2.1250    0.4607 H   0  0  0  0  0  0  0  0  0  0  0  0
    2.1586   -1.4090   -0.3945 H   0  0  0  0  0  0  0  0  0  0  0  0
    0.5092   -1.7227   -1.2059 H   0  0  0  0  0  0  0  0  0  0  0  0
    1.0515   -0.5888    1.6756 H   0  0  0  0  0  0  0  0  0  0  0  0
   -1.1718   -1.6918    1.8230 H   0  0  0  0  0  0  0  0  0  0  0  0
   -3.0020   -0.2124    0.6959 H   0  0  0  0  0  0  0  0  0  0  0  0
   -2.2664    0.8966   -1.3967 H   0  0  0  0  0  0  0  0  0  0  0  0
   -1.7328    1.7937    0.0408 H   0  0  0  0  0  0  0  0  0  0  0  0
  1  2  1  0
  2  3  1  0
  3  4  1  0
  4  5  1  0
  5  6  1  0
  6  7  1  0
  7  8  1  0
  8  9  1  0
  4  2  1  0
  7  5  1  0
  9  2  1  0
  1 10  1  0
  1 11  1  0
  1 12  1  0
  3 13  1  0
  3 14  1  0
  4 15  1  0
  5 16  1  0
  7 17  1  0
  8 18  1  0
  8 19  1  0
M  END
