
     RDKit          3D

 17 19  0  0  0  0  0  0  0  0999 V2000
    2.0531   -0.4325   -0.6542 C   0  0  0  0  0  0  0  0  0  0  0  0
    0.5799   -0.2180   -0.5544 C   0  0  0  0  0  0  0  0  0  0  0  0
   -0.3003   -1.0338   -1.2622 O   0  0  0  0  0  0  0  0  0  0  0  0
   -1.1402   -1.1528   -0.1773 C   0  0  0  0  0  0  0  0  0  0  0  0
   -2.0945    0.0167   -0.1492 C   0  0  0  0  0  0  0  0  0  0  0  0
   -1.4366    1.1237    0.1653 C   0  0  0  0  0  0  0  0  0  0  0  0
    0.0042    0.7966    0.3733 C   0  0  0  0  0  0  0  0  0  0  0  0
    0.8330    1.6623    1.0192 O   0  0  0  0  0  0  0  0  0  0  0  0
   -0.0528   -0.6349    0.6989 C   0  0  0  0  0  0  0  0  0  0  0  0
    2.2537   -1.5265   -0.4580 H   0  0  0  0  0  0  0  0  0  0  0  0
    2.4381   -0.1318   -1.6419 H   0  0  0  0  0  0  0  0  0  0  0  0
    2.5529    0.0961    0.1875 H   0  0  0  0  0  0  0  0  0  0  0  0
   -1.5757   -2.1177    0.0379 H   0  0  0  0  0  0  0  0  0  0  0  0
   -3.1597   -0.0163   -0.3515 H   0  0  0  0  0  0  0  0  0  0  0  0
   -1.8813    2.0996    0.2541 H   0  0  0  0  0  0  0  0  0  0  0  0
    0.5369    2.6107    0.9931 H   0  0  0  0  0  0  0  0  0  0  0  0
    0.3892   -1.1414    1.5195 H   0  0  0  0  0  0  0  0  0  0  0  0
  1  2  1  0
  2  3  1  0
  3  4  1  0
  4  5  1  0
  5  6  2  0
  6  7  1  0
  7  8  1  0
  7  9  1  0
  7  2  1  0
  9  2  1  0
  9  4  1  0
  1 10  1  0
  1 11  1  0
  1 12  1  0
  4 13  1  0
  5 14  1  0
  6 15  1  0
  8 16  1  0
  9 17  1  0
M  END
