
     RDKit          3D

 21 23  0  0  0  0  0  0  0  0999 V2000
    2.2111    0.1899   -1.0361 C   0  0  0  0  0  0  0  0  0  0  0  0
    1.2987    0.3252    0.1051 C   0  0  0  0  0  0  0  0  0  0  0  0
    1.5741   -0.0453    1.5054 C   0  0  0  0  0  0  0  0  0  0  0  0
    0.7308   -0.9917    0.7534 C   0  0  0  0  0  0  0  0  0  0  0  0
   -0.4275   -0.7024   -0.0824 C   0  0  0  0  0  0  0  0  0  0  0  0
   -1.8299   -0.7255    0.3801 C   0  0  0  0  0  0  0  0  0  0  0  0
   -2.4536    0.5118   -0.3390 C   0  0  0  0  0  0  0  0  0  0  0  0
   -1.2587    1.4168   -0.2843 C   0  0  0  0  0  0  0  0  0  0  0  0
   -0.1268    0.7854   -0.0992 C   0  0  0  0  0  0  0  0  0  0  0  0
    2.8732    1.0859   -1.0847 H   0  0  0  0  0  0  0  0  0  0  0  0
    2.7779   -0.7576   -1.0915 H   0  0  0  0  0  0  0  0  0  0  0  0
    1.6043    0.2285   -1.9887 H   0  0  0  0  0  0  0  0  0  0  0  0
    1.1345    0.6496    2.2713 H   0  0  0  0  0  0  0  0  0  0  0  0
    2.6089   -0.3221    1.7432 H   0  0  0  0  0  0  0  0  0  0  0  0
    1.2963   -1.9394    0.4600 H   0  0  0  0  0  0  0  0  0  0  0  0
   -0.3220   -1.1247   -1.1205 H   0  0  0  0  0  0  0  0  0  0  0  0
   -2.3813   -1.5926   -0.0354 H   0  0  0  0  0  0  0  0  0  0  0  0
   -2.0037   -0.6876    1.4482 H   0  0  0  0  0  0  0  0  0  0  0  0
   -3.2696    0.9230    0.2608 H   0  0  0  0  0  0  0  0  0  0  0  0
   -2.6919    0.2734   -1.3746 H   0  0  0  0  0  0  0  0  0  0  0  0
   -1.3448    2.4993   -0.3909 H   0  0  0  0  0  0  0  0  0  0  0  0
  1  2  1  0
  2  3  1  0
  3  4  1  0
  4  5  1  0
  5  6  1  0
  6  7  1  0
  7  8  1  0
  8  9  2  0
  4  2  1  0
  9  5  1  0
  9  2  1  0
  1 10  1  0
  1 11  1  0
  1 12  1  0
  3 13  1  0
  3 14  1  0
  4 15  1  0
  5 16  1  0
  6 17  1  0
  6 18  1  0
  7 19  1  0
  7 20  1  0
  8 21  1  0
M  END
