
     RDKit          3D

 14 15  0  0  0  0  0  0  0  0999 V2000
   -1.7097    0.1886    0.1330 C   0  0  0  0  0  0  0  0  0  0  0  0
   -0.3904   -0.4020   -0.2269 C   0  0  0  0  0  0  0  0  0  0  0  0
   -0.2959   -1.7694   -0.3732 O   0  0  0  0  0  0  0  0  0  0  0  0
    0.5326   -1.0909    0.4951 C   0  0  0  0  0  0  0  0  0  0  0  0
    1.6770   -0.4257   -0.1780 C   0  0  0  0  0  0  0  0  0  0  0  0
    2.8671   -0.6271   -0.1670 O   0  0  0  0  0  0  0  0  0  0  0  0
    0.6903    0.4947   -0.7870 C   0  0  0  0  0  0  0  0  0  0  0  0
    0.6206    1.7430   -0.1288 O   0  0  0  0  0  0  0  0  0  0  0  0
   -1.5069    1.1371    0.6979 H   0  0  0  0  0  0  0  0  0  0  0  0
   -2.3236    0.3961   -0.7870 H   0  0  0  0  0  0  0  0  0  0  0  0
   -2.2951   -0.4466    0.7931 H   0  0  0  0  0  0  0  0  0  0  0  0
    0.6131   -1.3862    1.5514 H   0  0  0  0  0  0  0  0  0  0  0  0
    0.7186    0.6032   -1.8675 H   0  0  0  0  0  0  0  0  0  0  0  0
    0.8024    1.5853    0.8449 H   0  0  0  0  0  0  0  0  0  0  0  0
  1  2  1  0
  2  3  1  0
  3  4  1  0
  4  5  1  0
  5  6  2  0
  5  7  1  0
  7  8  1  0
  4  2  1  0
  7  2  1  0
  1  9  1  0
  1 10  1  0
  1 11  1  0
  4 12  1  0
  7 13  1  0
  8 14  1  0
M  END
