
     RDKit          3D

 19 20  0  0  0  0  0  0  0  0999 V2000
   -1.1943   -1.3555    0.5472 C   0  0  0  0  0  0  0  0  0  0  0  0
   -0.4395   -0.2238    0.1090 C   0  0  0  0  0  0  0  0  0  0  0  0
   -0.7675    0.4295   -1.2410 C   0  0  0  0  0  0  0  0  0  0  0  0
    0.0221    1.5848   -0.6077 C   0  0  0  0  0  0  0  0  0  0  0  0
    1.3284    0.9643   -0.4228 C   0  0  0  0  0  0  0  0  0  0  0  0
    1.0423   -0.2456    0.0593 C   0  0  0  0  0  0  0  0  0  0  0  0
    1.9675   -1.2979    0.4325 C   0  0  0  0  0  0  0  0  0  0  0  0
    3.2011   -1.1499    0.3265 O   0  0  0  0  0  0  0  0  0  0  0  0
   -0.7053    1.1575    0.6770 C   0  0  0  0  0  0  0  0  0  0  0  0
   -1.5394   -1.9726   -0.3306 H   0  0  0  0  0  0  0  0  0  0  0  0
   -0.5987   -1.9797    1.2447 H   0  0  0  0  0  0  0  0  0  0  0  0
   -2.1129   -1.0584    1.0904 H   0  0  0  0  0  0  0  0  0  0  0  0
   -1.8412    0.6023   -1.3022 H   0  0  0  0  0  0  0  0  0  0  0  0
   -0.2659   -0.0666   -2.0700 H   0  0  0  0  0  0  0  0  0  0  0  0
   -0.1184    2.5539   -0.9706 H   0  0  0  0  0  0  0  0  0  0  0  0
    2.2763    1.4284   -0.6437 H   0  0  0  0  0  0  0  0  0  0  0  0
    1.6004   -2.2353    0.8118 H   0  0  0  0  0  0  0  0  0  0  0  0
   -0.1006    1.4182    1.5643 H   0  0  0  0  0  0  0  0  0  0  0  0
   -1.7545    1.4463    0.7257 H   0  0  0  0  0  0  0  0  0  0  0  0
  1  2  1  0
  2  3  1  0
  3  4  1  0
  4  5  1  0
  5  6  2  0
  6  7  1  0
  7  8  2  0
  4  9  1  0
  6  2  1  0
  9  2  1  0
  1 10  1  0
  1 11  1  0
  1 12  1  0
  3 13  1  0
  3 14  1  0
  4 15  1  0
  5 16  1  0
  7 17  1  0
  9 18  1  0
  9 19  1  0
M  END
