
     RDKit          3D

 19 20  0  0  0  0  0  0  0  0999 V2000
    2.3287    0.2091    0.2214 C   0  0  0  0  0  0  0  0  0  0  0  0
    0.8760   -0.0184   -0.1464 C   0  0  0  0  0  0  0  0  0  0  0  0
   -0.0870    0.8655    0.6100 C   0  0  0  0  0  0  0  0  0  0  0  0
   -1.5042    0.6923    0.1816 C   0  0  0  0  0  0  0  0  0  0  0  0
   -1.6884    1.3560   -1.0496 O   0  0  0  0  0  0  0  0  0  0  0  0
   -1.9227   -0.7275    0.0565 C   0  0  0  0  0  0  0  0  0  0  0  0
   -1.0067   -1.6290   -0.2330 C   0  0  0  0  0  0  0  0  0  0  0  0
    0.4292   -1.3414   -0.4476 C   0  0  0  0  0  0  0  0  0  0  0  0
    0.6413   -0.3476   -1.4592 O   0  0  0  0  0  0  0  0  0  0  0  0
    2.4924    0.0353    1.3075 H   0  0  0  0  0  0  0  0  0  0  0  0
    2.5976    1.2692    0.0287 H   0  0  0  0  0  0  0  0  0  0  0  0
    2.9915   -0.4543   -0.3824 H   0  0  0  0  0  0  0  0  0  0  0  0
    0.0707    0.6748    1.6905 H   0  0  0  0  0  0  0  0  0  0  0  0
    0.2086    1.9244    0.3603 H   0  0  0  0  0  0  0  0  0  0  0  0
   -2.1475    1.2395    0.9048 H   0  0  0  0  0  0  0  0  0  0  0  0
   -1.1108    2.1397   -1.1140 H   0  0  0  0  0  0  0  0  0  0  0  0
   -2.9614   -1.0356    0.1978 H   0  0  0  0  0  0  0  0  0  0  0  0
   -1.3488   -2.6734   -0.3190 H   0  0  0  0  0  0  0  0  0  0  0  0
    1.1416   -2.1787   -0.4080 H   0  0  0  0  0  0  0  0  0  0  0  0
  1  2  1  0
  2  3  1  0
  3  4  1  0
  4  5  1  0
  4  6  1  0
  6  7  2  0
  7  8  1  0
  8  9  1  0
  8  2  1  0
  9  2  1  0
  1 10  1  0
  1 11  1  0
  1 12  1  0
  3 13  1  0
  3 14  1  0
  4 15  1  0
  5 16  1  0
  6 17  1  0
  7 18  1  0
  8 19  1  0
M  END
