
     RDKit          3D

 20 21  0  0  0  0  0  0  0  0999 V2000
    2.1881    0.2185    0.0464 C   0  0  0  0  0  0  0  0  0  0  0  0
    0.7413    0.1119   -0.1419 C   0  0  0  0  0  0  0  0  0  0  0  0
    0.2400   -1.3149   -0.3671 C   0  0  0  0  0  0  0  0  0  0  0  0
   -1.2655   -1.0974   -0.2126 C   0  0  0  0  0  0  0  0  0  0  0  0
   -1.4087    0.2551    0.3921 C   0  0  0  0  0  0  0  0  0  0  0  0
   -1.1030    1.2731   -0.7065 C   0  0  0  0  0  0  0  0  0  0  0  0
    0.1779    0.8982   -1.1102 O   0  0  0  0  0  0  0  0  0  0  0  0
   -0.0695    0.4123    1.1348 C   0  0  0  0  0  0  0  0  0  0  0  0
    2.7051   -0.4743   -0.6699 H   0  0  0  0  0  0  0  0  0  0  0  0
    2.4798   -0.0281    1.0709 H   0  0  0  0  0  0  0  0  0  0  0  0
    2.5347    1.2377   -0.2403 H   0  0  0  0  0  0  0  0  0  0  0  0
    0.6066   -1.9018    0.4969 H   0  0  0  0  0  0  0  0  0  0  0  0
    0.5138   -1.7056   -1.3418 H   0  0  0  0  0  0  0  0  0  0  0  0
   -1.6570   -1.0381   -1.2672 H   0  0  0  0  0  0  0  0  0  0  0  0
   -1.7266   -1.9163    0.3498 H   0  0  0  0  0  0  0  0  0  0  0  0
   -2.2662    0.4633    0.9808 H   0  0  0  0  0  0  0  0  0  0  0  0
   -1.8418    1.2370   -1.5090 H   0  0  0  0  0  0  0  0  0  0  0  0
   -0.9908    2.2986   -0.2626 H   0  0  0  0  0  0  0  0  0  0  0  0
    0.0854    1.4341    1.4727 H   0  0  0  0  0  0  0  0  0  0  0  0
    0.0562   -0.3633    1.8848 H   0  0  0  0  0  0  0  0  0  0  0  0
  1  2  1  0
  2  3  1  0
  3  4  1  0
  4  5  1  0
  5  6  1  0
  6  7  1  0
  5  8  1  0
  7  2  1  0
  8  2  1  0
  1  9  1  0
  1 10  1  0
  1 11  1  0
  3 12  1  0
  3 13  1  0
  4 14  1  0
  4 15  1  0
  5 16  1  0
  6 17  1  0
  6 18  1  0
  8 19  1  0
  8 20  1  0
M  END
