
     RDKit          3D

 18 20  0  0  0  0  0  0  0  0999 V2000
   -1.3994   -0.7218    0.8090 C   0  0  0  0  0  0  0  0  0  0  0  0
   -0.6393    0.0348   -0.2137 C   0  0  0  0  0  0  0  0  0  0  0  0
   -1.4496    0.9084   -1.1239 C   0  0  0  0  0  0  0  0  0  0  0  0
   -0.5220    1.5275   -0.1767 C   0  0  0  0  0  0  0  0  0  0  0  0
    0.8400    1.4855   -0.5383 O   0  0  0  0  0  0  0  0  0  0  0  0
    0.8189    0.1399   -0.2578 C   0  0  0  0  0  0  0  0  0  0  0  0
    1.7726   -0.3823    0.7032 C   0  0  0  0  0  0  0  0  0  0  0  0
    1.7528   -0.8368   -0.7785 C   0  0  0  0  0  0  0  0  0  0  0  0
   -0.8028   -1.1467    1.6290 H   0  0  0  0  0  0  0  0  0  0  0  0
   -2.1956   -0.0956    1.3005 H   0  0  0  0  0  0  0  0  0  0  0  0
   -1.9839   -1.5231    0.2750 H   0  0  0  0  0  0  0  0  0  0  0  0
   -1.0983    0.8603   -2.1934 H   0  0  0  0  0  0  0  0  0  0  0  0
   -2.5305    1.0695   -0.9402 H   0  0  0  0  0  0  0  0  0  0  0  0
   -0.8111    1.9874    0.7743 H   0  0  0  0  0  0  0  0  0  0  0  0
    1.5747   -1.1842    1.4303 H   0  0  0  0  0  0  0  0  0  0  0  0
    2.6404    0.2926    0.9578 H   0  0  0  0  0  0  0  0  0  0  0  0
    2.6145   -0.5295   -1.4031 H   0  0  0  0  0  0  0  0  0  0  0  0
    1.4188   -1.8858   -0.9624 H   0  0  0  0  0  0  0  0  0  0  0  0
  1  2  1  0
  2  3  1  0
  3  4  1  0
  4  5  1  0
  5  6  1  0
  6  7  1  0
  7  8  1  0
  4  2  1  0
  8  6  1  0
  6  2  1  0
  1  9  1  0
  1 10  1  0
  1 11  1  0
  3 12  1  0
  3 13  1  0
  4 14  1  0
  7 15  1  0
  7 16  1  0
  8 17  1  0
  8 18  1  0
M  END
