
     RDKit          3D

 19 20  0  0  0  0  0  0  0  0999 V2000
   -1.2041   -0.8150    1.1988 C   0  0  0  0  0  0  0  0  0  0  0  0
   -0.9944   -0.8361   -0.3022 C   0  0  0  0  0  0  0  0  0  0  0  0
   -1.3101    0.4403   -0.9426 C   0  0  0  0  0  0  0  0  0  0  0  0
   -0.5150    1.5269   -0.8632 C   0  0  0  0  0  0  0  0  0  0  0  0
    0.7715    1.6835   -0.1640 C   0  0  0  0  0  0  0  0  0  0  0  0
    1.5080    0.6900    0.3113 C   0  0  0  0  0  0  0  0  0  0  0  0
    1.3160   -0.7965    0.3081 C   0  0  0  0  0  0  0  0  0  0  0  0
    0.4305   -1.1427   -0.8102 C   0  0  0  0  0  0  0  0  0  0  0  0
   -0.6066   -1.9744   -0.8676 O   0  0  0  0  0  0  0  0  0  0  0  0
   -1.0811   -1.8076    1.6643 H   0  0  0  0  0  0  0  0  0  0  0  0
   -0.6040   -0.0229    1.6913 H   0  0  0  0  0  0  0  0  0  0  0  0
   -2.2646   -0.5241    1.3539 H   0  0  0  0  0  0  0  0  0  0  0  0
   -2.2185    0.5641   -1.5199 H   0  0  0  0  0  0  0  0  0  0  0  0
   -0.8695    2.4244   -1.3911 H   0  0  0  0  0  0  0  0  0  0  0  0
    1.1264    2.7027   -0.0388 H   0  0  0  0  0  0  0  0  0  0  0  0
    2.4133    1.0309    0.7874 H   0  0  0  0  0  0  0  0  0  0  0  0
    2.3349   -1.2365    0.0917 H   0  0  0  0  0  0  0  0  0  0  0  0
    1.0196   -1.1886    1.2839 H   0  0  0  0  0  0  0  0  0  0  0  0
    0.7478   -0.7187   -1.7910 H   0  0  0  0  0  0  0  0  0  0  0  0
  1  2  1  0
  2  3  1  0
  3  4  2  0
  4  5  1  0
  5  6  2  0
  6  7  1  0
  7  8  1  0
  8  9  1  0
  8  2  1  0
  9  2  1  0
  1 10  1  0
  1 11  1  0
  1 12  1  0
  3 13  1  0
  4 14  1  0
  5 15  1  0
  6 16  1  0
  7 17  1  0
  7 18  1  0
  8 19  1  0
M  END
