
     RDKit          3D

 17 20  0  0  0  0  0  0  0  0999 V2000
    2.1320    0.1177   -0.1099 C   0  0  0  0  0  0  0  0  0  0  0  0
    0.7224   -0.2833    0.0004 C   0  0  0  0  0  0  0  0  0  0  0  0
    0.3350   -1.3501    0.8088 O   0  0  0  0  0  0  0  0  0  0  0  0
   -1.0546   -1.3356    0.8445 C   0  0  0  0  0  0  0  0  0  0  0  0
   -1.5208   -0.7851   -0.4270 C   0  0  0  0  0  0  0  0  0  0  0  0
   -1.4599    0.0753    0.7537 C   0  0  0  0  0  0  0  0  0  0  0  0
   -0.2763    0.7696    0.2054 C   0  0  0  0  0  0  0  0  0  0  0  0
   -0.0775    2.0927    0.1729 O   0  0  0  0  0  0  0  0  0  0  0  0
   -0.3149   -0.1156   -0.9936 C   0  0  0  0  0  0  0  0  0  0  0  0
    2.7905   -0.5227   -0.6888 H   0  0  0  0  0  0  0  0  0  0  0  0
    2.5451    0.2512    0.9312 H   0  0  0  0  0  0  0  0  0  0  0  0
    2.1784    1.1472   -0.5531 H   0  0  0  0  0  0  0  0  0  0  0  0
   -1.5499   -2.0931    1.4326 H   0  0  0  0  0  0  0  0  0  0  0  0
   -2.3878   -1.0655   -0.9849 H   0  0  0  0  0  0  0  0  0  0  0  0
   -2.2829    0.5380    1.2619 H   0  0  0  0  0  0  0  0  0  0  0  0
    0.4500    2.3291   -0.6488 H   0  0  0  0  0  0  0  0  0  0  0  0
   -0.2288    0.2303   -2.0052 H   0  0  0  0  0  0  0  0  0  0  0  0
  1  2  1  0
  2  3  1  0
  3  4  1  0
  4  5  1  0
  5  6  1  0
  6  7  1  0
  7  8  1  0
  7  9  1  0
  7  2  1  0
  9  2  1  0
  6  4  1  0
  9  5  1  0
  1 10  1  0
  1 11  1  0
  1 12  1  0
  4 13  1  0
  5 14  1  0
  6 15  1  0
  8 16  1  0
  9 17  1  0
M  END
