
     RDKit          3D

 23 24  0  0  0  0  0  0  0  0999 V2000
    2.5286    0.1177   -0.7215 C   0  0  0  0  0  0  0  0  0  0  0  0
    1.2229    0.2145    0.0683 C   0  0  0  0  0  0  0  0  0  0  0  0
    0.6865   -1.1062    0.4848 C   0  0  0  0  0  0  0  0  0  0  0  0
   -0.5466   -1.5274   -0.2888 C   0  0  0  0  0  0  0  0  0  0  0  0
   -1.7298   -0.8585    0.3658 C   0  0  0  0  0  0  0  0  0  0  0  0
   -1.9056    0.4834   -0.2795 C   0  0  0  0  0  0  0  0  0  0  0  0
   -0.9477    1.4605    0.3800 C   0  0  0  0  0  0  0  0  0  0  0  0
    0.4475    1.3309   -0.0578 C   0  0  0  0  0  0  0  0  0  0  0  0
    1.3661    1.2181    1.1088 O   0  0  0  0  0  0  0  0  0  0  0  0
    3.4046    0.2891   -0.0442 H   0  0  0  0  0  0  0  0  0  0  0  0
    2.5378    0.9253   -1.4931 H   0  0  0  0  0  0  0  0  0  0  0  0
    2.6692   -0.8747   -1.1702 H   0  0  0  0  0  0  0  0  0  0  0  0
    1.4250   -1.9383    0.3520 H   0  0  0  0  0  0  0  0  0  0  0  0
    0.4625   -1.1172    1.5921 H   0  0  0  0  0  0  0  0  0  0  0  0
   -0.6784   -2.6175   -0.3180 H   0  0  0  0  0  0  0  0  0  0  0  0
   -0.3879   -1.1898   -1.3395 H   0  0  0  0  0  0  0  0  0  0  0  0
   -2.6443   -1.4509    0.3208 H   0  0  0  0  0  0  0  0  0  0  0  0
   -1.5012   -0.6747    1.4435 H   0  0  0  0  0  0  0  0  0  0  0  0
   -2.9387    0.8405   -0.0324 H   0  0  0  0  0  0  0  0  0  0  0  0
   -1.8223    0.4805   -1.3700 H   0  0  0  0  0  0  0  0  0  0  0  0
   -1.3764    2.4632    0.1618 H   0  0  0  0  0  0  0  0  0  0  0  0
   -1.1069    1.3281    1.4904 H   0  0  0  0  0  0  0  0  0  0  0  0
    0.8352    2.2034   -0.6533 H   0  0  0  0  0  0  0  0  0  0  0  0
  1  2  1  0
  2  3  1  0
  3  4  1  0
  4  5  1  0
  5  6  1  0
  6  7  1  0
  7  8  1  0
  8  9  1  0
  8  2  1  0
  9  2  1  0
  1 10  1  0
  1 11  1  0
  1 12  1  0
  3 13  1  0
  3 14  1  0
  4 15  1  0
  4 16  1  0
  5 17  1  0
  5 18  1  0
  6 19  1  0
  6 20  1  0
  7 21  1  0
  7 22  1  0
  8 23  1  0
M  END
