
     RDKit          3D

 16 17  0  0  0  0  0  0  0  0999 V2000
    1.8633    0.3115    0.4366 C   0  0  0  0  0  0  0  0  0  0  0  0
    0.4026    0.3292    0.2597 C   0  0  0  0  0  0  0  0  0  0  0  0
   -0.2739    1.4263    0.8926 O   0  0  0  0  0  0  0  0  0  0  0  0
   -0.6685    0.1157    1.0434 C   0  0  0  0  0  0  0  0  0  0  0  0
   -1.5329   -0.3673   -0.1312 C   0  0  0  0  0  0  0  0  0  0  0  0
   -2.4977    0.5619   -0.5261 O   0  0  0  0  0  0  0  0  0  0  0  0
   -0.2622   -0.2214   -0.9776 C   0  0  0  0  0  0  0  0  0  0  0  0
    0.2114   -1.4446   -1.3449 O   0  0  0  0  0  0  0  0  0  0  0  0
    2.2170    1.1981    1.0397 H   0  0  0  0  0  0  0  0  0  0  0  0
    2.2532   -0.5833    0.9546 H   0  0  0  0  0  0  0  0  0  0  0  0
    2.4366    0.3537   -0.5322 H   0  0  0  0  0  0  0  0  0  0  0  0
   -0.7603   -0.3693    2.0062 H   0  0  0  0  0  0  0  0  0  0  0  0
   -1.8717   -1.3888    0.0243 H   0  0  0  0  0  0  0  0  0  0  0  0
   -2.0085    1.4295   -0.6232 H   0  0  0  0  0  0  0  0  0  0  0  0
   -0.3598    0.5166   -1.7716 H   0  0  0  0  0  0  0  0  0  0  0  0
    0.8515   -1.8680   -0.7503 H   0  0  0  0  0  0  0  0  0  0  0  0
  1  2  1  0
  2  3  1  0
  3  4  1  0
  4  5  1  0
  5  6  1  0
  5  7  1  0
  7  8  1  0
  4  2  1  0
  7  2  1  0
  1  9  1  0
  1 10  1  0
  1 11  1  0
  4 12  1  0
  5 13  1  0
  6 14  1  0
  7 15  1  0
  8 16  1  0
M  END
