
     RDKit          3D

 17 18  0  0  0  0  0  0  0  0999 V2000
   -1.4693   -0.8951    0.1934 C   0  0  0  0  0  0  0  0  0  0  0  0
   -0.7427    0.2258   -0.5648 C   0  0  0  0  0  0  0  0  0  0  0  0
   -1.0598    1.5466   -0.1861 C   0  0  0  0  0  0  0  0  0  0  0  0
    0.2163    1.1267    0.2832 C   0  0  0  0  0  0  0  0  0  0  0  0
    0.6216    0.2684    1.2312 O   0  0  0  0  0  0  0  0  0  0  0  0
    1.5103   -0.6452    0.6127 C   0  0  0  0  0  0  0  0  0  0  0  0
    1.3671   -0.6713   -0.8615 C   0  0  0  0  0  0  0  0  0  0  0  0
    2.3740   -1.0389   -1.5302 O   0  0  0  0  0  0  0  0  0  0  0  0
    0.1505   -0.2992   -1.4914 O   0  0  0  0  0  0  0  0  0  0  0  0
   -1.0375   -1.0422    1.2023 H   0  0  0  0  0  0  0  0  0  0  0  0
   -2.5316   -0.5220    0.2865 H   0  0  0  0  0  0  0  0  0  0  0  0
   -1.5225   -1.8183   -0.3875 H   0  0  0  0  0  0  0  0  0  0  0  0
   -1.1053    2.3396   -0.9829 H   0  0  0  0  0  0  0  0  0  0  0  0
   -1.8708    1.7195    0.5504 H   0  0  0  0  0  0  0  0  0  0  0  0
    1.1099    1.5738   -0.2497 H   0  0  0  0  0  0  0  0  0  0  0  0
    1.4545   -1.6340    1.0758 H   0  0  0  0  0  0  0  0  0  0  0  0
    2.5352   -0.2342    0.8187 H   0  0  0  0  0  0  0  0  0  0  0  0
  1  2  1  0
  2  3  1  0
  3  4  1  0
  4  5  1  0
  5  6  1  0
  6  7  1  0
  7  8  2  0
  7  9  1  0
  4  2  1  0
  9  2  1  0
  1 10  1  0
  1 11  1  0
  1 12  1  0
  3 13  1  0
  3 14  1  0
  4 15  1  0
  6 16  1  0
  6 17  1  0
M  END
