
     RDKit          3D

 15 17  0  0  0  0  0  0  0  0999 V2000
    1.9208    0.2367    0.4994 C   0  0  0  0  0  0  0  0  0  0  0  0
    0.5010    0.2568    0.1339 C   0  0  0  0  0  0  0  0  0  0  0  0
   -0.0396    1.2238   -0.7251 O   0  0  0  0  0  0  0  0  0  0  0  0
   -1.2639    0.6362   -1.0458 C   0  0  0  0  0  0  0  0  0  0  0  0
   -0.8111   -0.6034   -1.4896 O   0  0  0  0  0  0  0  0  0  0  0  0
   -0.0653   -1.0396   -0.3976 C   0  0  0  0  0  0  0  0  0  0  0  0
   -0.5966   -0.4065    0.8393 C   0  0  0  0  0  0  0  0  0  0  0  0
   -1.7838    0.2774    0.2829 C   0  0  0  0  0  0  0  0  0  0  0  0
   -2.8247    0.4664    0.7760 O   0  0  0  0  0  0  0  0  0  0  0  0
    2.1087   -0.5990    1.1890 H   0  0  0  0  0  0  0  0  0  0  0  0
    2.5260   -0.0068   -0.4234 H   0  0  0  0  0  0  0  0  0  0  0  0
    2.2832    1.1816    0.9528 H   0  0  0  0  0  0  0  0  0  0  0  0
   -1.8971    1.1793   -1.6992 H   0  0  0  0  0  0  0  0  0  0  0  0
    0.5103   -1.9528   -0.4156 H   0  0  0  0  0  0  0  0  0  0  0  0
   -0.5680   -0.8501    1.8108 H   0  0  0  0  0  0  0  0  0  0  0  0
  1  2  1  0
  2  3  1  0
  3  4  1  0
  4  5  1  0
  5  6  1  0
  6  7  1  0
  7  8  1  0
  8  9  2  0
  6  2  1  0
  7  2  1  0
  8  4  1  0
  1 10  1  0
  1 11  1  0
  1 12  1  0
  4 13  1  0
  6 14  1  0
  7 15  1  0
M  END
