
     RDKit          3D

 19 21  0  0  0  0  0  0  0  0999 V2000
    1.9542    0.3965    0.4438 C   0  0  0  0  0  0  0  0  0  0  0  0
    0.6500    0.1264   -0.2174 C   0  0  0  0  0  0  0  0  0  0  0  0
    0.1390    1.0746   -1.0498 O   0  0  0  0  0  0  0  0  0  0  0  0
   -1.0028    1.6120   -0.4743 C   0  0  0  0  0  0  0  0  0  0  0  0
   -1.6658    0.3429    0.0799 C   0  0  0  0  0  0  0  0  0  0  0  0
   -0.4772   -0.3247    0.7141 C   0  0  0  0  0  0  0  0  0  0  0  0
   -0.2474   -1.7085    0.1843 C   0  0  0  0  0  0  0  0  0  0  0  0
   -0.5970   -1.7751   -1.2272 O   0  0  0  0  0  0  0  0  0  0  0  0
    0.6254   -1.3109   -0.7602 C   0  0  0  0  0  0  0  0  0  0  0  0
    1.7755    0.9543    1.3793 H   0  0  0  0  0  0  0  0  0  0  0  0
    2.5614    1.0306   -0.2567 H   0  0  0  0  0  0  0  0  0  0  0  0
    2.5659   -0.4955    0.6444 H   0  0  0  0  0  0  0  0  0  0  0  0
   -0.7730    2.2292    0.4243 H   0  0  0  0  0  0  0  0  0  0  0  0
   -1.6804    2.0770   -1.1821 H   0  0  0  0  0  0  0  0  0  0  0  0
   -2.4830    0.5638    0.7613 H   0  0  0  0  0  0  0  0  0  0  0  0
   -2.0229   -0.2798   -0.7912 H   0  0  0  0  0  0  0  0  0  0  0  0
   -0.3105   -0.1625    1.7704 H   0  0  0  0  0  0  0  0  0  0  0  0
   -0.5574   -2.5993    0.6962 H   0  0  0  0  0  0  0  0  0  0  0  0
    1.5461   -1.7510   -1.1389 H   0  0  0  0  0  0  0  0  0  0  0  0
  1  2  1  0
  2  3  1  0
  3  4  1  0
  4  5  1  0
  5  6  1  0
  6  7  1  0
  7  8  1  0
  8  9  1  0
  6  2  1  0
  9  7  1  0
  9  2  1  0
  1 10  1  0
  1 11  1  0
  1 12  1  0
  4 13  1  0
  4 14  1  0
  5 15  1  0
  5 16  1  0
  6 17  1  0
  7 18  1  0
  9 19  1  0
M  END
