
     RDKit          3D

 19 20  0  0  0  0  0  0  0  0999 V2000
    1.7337    0.6280    0.6087 C   0  0  0  0  0  0  0  0  0  0  0  0
    1.0369    0.3079   -0.6945 C   0  0  0  0  0  0  0  0  0  0  0  0
    1.8451   -0.4643   -1.4304 O   0  0  0  0  0  0  0  0  0  0  0  0
    0.8229   -1.1990   -1.0475 C   0  0  0  0  0  0  0  0  0  0  0  0
   -0.1072   -1.0824    0.1255 C   0  0  0  0  0  0  0  0  0  0  0  0
   -1.2187   -1.8839    0.0733 O   0  0  0  0  0  0  0  0  0  0  0  0
   -0.4374    0.2571   -0.5782 C   0  0  0  0  0  0  0  0  0  0  0  0
   -1.0714    1.1879    0.3938 C   0  0  0  0  0  0  0  0  0  0  0  0
   -2.4794    1.0075    0.3689 O   0  0  0  0  0  0  0  0  0  0  0  0
    2.2269   -0.2557    1.0712 H   0  0  0  0  0  0  0  0  0  0  0  0
    2.6185    1.2675    0.2979 H   0  0  0  0  0  0  0  0  0  0  0  0
    1.1613    1.1864    1.3351 H   0  0  0  0  0  0  0  0  0  0  0  0
    0.1728   -1.3828   -1.9669 H   0  0  0  0  0  0  0  0  0  0  0  0
    0.3096   -0.9041    1.1120 H   0  0  0  0  0  0  0  0  0  0  0  0
   -1.1967   -2.6416    0.7278 H   0  0  0  0  0  0  0  0  0  0  0  0
   -1.0103    0.1151   -1.5104 H   0  0  0  0  0  0  0  0  0  0  0  0
   -0.8259    0.9170    1.4659 H   0  0  0  0  0  0  0  0  0  0  0  0
   -0.8895    2.2466    0.2087 H   0  0  0  0  0  0  0  0  0  0  0  0
   -2.6911    0.6928   -0.5609 H   0  0  0  0  0  0  0  0  0  0  0  0
  1  2  1  0
  2  3  1  0
  3  4  1  0
  4  5  1  0
  5  6  1  0
  5  7  1  0
  7  8  1  0
  8  9  1  0
  4  2  1  0
  7  2  1  0
  1 10  1  0
  1 11  1  0
  1 12  1  0
  4 13  1  0
  5 14  1  0
  6 15  1  0
  7 16  1  0
  8 17  1  0
  8 18  1  0
  9 19  1  0
M  END
