
     RDKit          3D

 19 22  0  0  0  0  0  0  0  0999 V2000
    2.2974    0.5431   -0.1147 C   0  0  0  0  0  0  0  0  0  0  0  0
    0.9314    0.1394   -0.2290 C   0  0  0  0  0  0  0  0  0  0  0  0
   -0.2899    0.9283   -0.2923 C   0  0  0  0  0  0  0  0  0  0  0  0
   -0.8518    0.1356    0.8599 C   0  0  0  0  0  0  0  0  0  0  0  0
   -2.1521   -0.3138    0.2437 C   0  0  0  0  0  0  0  0  0  0  0  0
   -2.0369   -0.2309   -1.1165 O   0  0  0  0  0  0  0  0  0  0  0  0
   -0.7527    0.0779   -1.4680 C   0  0  0  0  0  0  0  0  0  0  0  0
    0.3070   -0.9265   -0.9725 C   0  0  0  0  0  0  0  0  0  0  0  0
    0.2210   -0.9070    0.5083 C   0  0  0  0  0  0  0  0  0  0  0  0
    2.8921   -0.2033    0.4899 H   0  0  0  0  0  0  0  0  0  0  0  0
    2.3975    1.4980    0.4578 H   0  0  0  0  0  0  0  0  0  0  0  0
    2.8339    0.6541   -1.0683 H   0  0  0  0  0  0  0  0  0  0  0  0
   -0.3586    1.9690   -0.3322 H   0  0  0  0  0  0  0  0  0  0  0  0
   -0.8380    0.5441    1.8404 H   0  0  0  0  0  0  0  0  0  0  0  0
   -2.3205   -1.3894    0.5041 H   0  0  0  0  0  0  0  0  0  0  0  0
   -3.0140    0.2755    0.6371 H   0  0  0  0  0  0  0  0  0  0  0  0
   -0.5931    0.4786   -2.4529 H   0  0  0  0  0  0  0  0  0  0  0  0
    0.7100   -1.6802   -1.5902 H   0  0  0  0  0  0  0  0  0  0  0  0
    0.6175   -1.5926    1.2000 H   0  0  0  0  0  0  0  0  0  0  0  0
  1  2  1  0
  2  3  1  0
  3  4  1  0
  4  5  1  0
  5  6  1  0
  6  7  1  0
  7  8  1  0
  8  9  1  0
  8  2  1  0
  9  2  1  0
  7  3  1  0
  9  4  1  0
  1 10  1  0
  1 11  1  0
  1 12  1  0
  3 13  1  0
  4 14  1  0
  5 15  1  0
  5 16  1  0
  7 17  1  0
  8 18  1  0
  9 19  1  0
M  END
