
     RDKit          3D

 21 22  0  0  0  0  0  0  0  0999 V2000
   -2.0369   -0.8944   -0.3403 C   0  0  0  0  0  0  0  0  0  0  0  0
   -0.8944    0.0015    0.1470 C   0  0  0  0  0  0  0  0  0  0  0  0
    0.2096   -0.7416    0.8120 C   0  0  0  0  0  0  0  0  0  0  0  0
    1.5799   -0.3312    0.4295 C   0  0  0  0  0  0  0  0  0  0  0  0
    2.5062   -1.3416    0.3651 O   0  0  0  0  0  0  0  0  0  0  0  0
    1.5163    0.3904   -0.9184 C   0  0  0  0  0  0  0  0  0  0  0  0
    0.7662    1.5561   -0.6661 O   0  0  0  0  0  0  0  0  0  0  0  0
   -0.5526    1.1707   -0.6315 C   0  0  0  0  0  0  0  0  0  0  0  0
   -1.2425    1.3358    0.6785 C   0  0  0  0  0  0  0  0  0  0  0  0
   -2.9602   -0.3382   -0.5094 H   0  0  0  0  0  0  0  0  0  0  0  0
   -1.7125   -1.3290   -1.2965 H   0  0  0  0  0  0  0  0  0  0  0  0
   -2.1786   -1.7273    0.3923 H   0  0  0  0  0  0  0  0  0  0  0  0
    0.1298   -1.8567    0.6480 H   0  0  0  0  0  0  0  0  0  0  0  0
    0.0600   -0.6302    1.9264 H   0  0  0  0  0  0  0  0  0  0  0  0
    1.9618    0.4297    1.1493 H   0  0  0  0  0  0  0  0  0  0  0  0
    3.3886   -0.9252    0.1751 H   0  0  0  0  0  0  0  0  0  0  0  0
    0.9328   -0.1939   -1.6634 H   0  0  0  0  0  0  0  0  0  0  0  0
    2.5233    0.6043   -1.2736 H   0  0  0  0  0  0  0  0  0  0  0  0
   -1.0952    1.3569   -1.5914 H   0  0  0  0  0  0  0  0  0  0  0  0
   -0.6515    1.7000    1.5400 H   0  0  0  0  0  0  0  0  0  0  0  0
   -2.2502    1.7642    0.6274 H   0  0  0  0  0  0  0  0  0  0  0  0
  1  2  1  0
  2  3  1  0
  3  4  1  0
  4  5  1  0
  4  6  1  0
  6  7  1  0
  7  8  1  0
  8  9  1  0
  8  2  1  0
  9  2  1  0
  1 10  1  0
  1 11  1  0
  1 12  1  0
  3 13  1  0
  3 14  1  0
  4 15  1  0
  5 16  1  0
  6 17  1  0
  6 18  1  0
  8 19  1  0
  9 20  1  0
  9 21  1  0
M  END
