
     RDKit          3D

 18 20  0  0  0  0  0  0  0  0999 V2000
   -1.2052    1.2972    0.8102 C   0  0  0  0  0  0  0  0  0  0  0  0
   -0.5737    0.3428   -0.1164 C   0  0  0  0  0  0  0  0  0  0  0  0
   -1.3659   -0.8619   -0.5208 C   0  0  0  0  0  0  0  0  0  0  0  0
   -0.2589   -1.1010    0.4163 C   0  0  0  0  0  0  0  0  0  0  0  0
    1.1604   -1.1592   -0.0891 C   0  0  0  0  0  0  0  0  0  0  0  0
    1.8001    0.1576    0.2179 C   0  0  0  0  0  0  0  0  0  0  0  0
    0.7571    0.5883   -0.7645 C   0  0  0  0  0  0  0  0  0  0  0  0
    0.9808   -0.6569   -1.4007 O   0  0  0  0  0  0  0  0  0  0  0  0
   -0.5605    2.0334    1.2780 H   0  0  0  0  0  0  0  0  0  0  0  0
   -2.0181    1.8446    0.2468 H   0  0  0  0  0  0  0  0  0  0  0  0
   -1.7081    0.7085    1.6317 H   0  0  0  0  0  0  0  0  0  0  0  0
   -2.3853   -0.9672   -0.1603 H   0  0  0  0  0  0  0  0  0  0  0  0
   -1.2660   -1.0832   -1.6180 H   0  0  0  0  0  0  0  0  0  0  0  0
   -0.4983   -1.2856    1.4610 H   0  0  0  0  0  0  0  0  0  0  0  0
    1.7158   -2.0643    0.0135 H   0  0  0  0  0  0  0  0  0  0  0  0
    2.8129    0.2078   -0.1824 H   0  0  0  0  0  0  0  0  0  0  0  0
    1.7061    0.5313    1.2465 H   0  0  0  0  0  0  0  0  0  0  0  0
    0.9069    1.4677   -1.3542 H   0  0  0  0  0  0  0  0  0  0  0  0
  1  2  1  0
  2  3  1  0
  3  4  1  0
  4  5  1  0
  5  6  1  0
  6  7  1  0
  7  8  1  0
  4  2  1  0
  8  5  1  0
  7  2  1  0
  1  9  1  0
  1 10  1  0
  1 11  1  0
  3 12  1  0
  3 13  1  0
  4 14  1  0
  5 15  1  0
  6 16  1  0
  6 17  1  0
  7 18  1  0
M  END
