
     RDKit          3D

 21 22  0  0  0  0  0  0  0  0999 V2000
   -1.2122   -1.4473   -0.5332 C   0  0  0  0  0  0  0  0  0  0  0  0
   -0.2208   -0.5668    0.1758 C   0  0  0  0  0  0  0  0  0  0  0  0
    1.0599   -1.1970    0.4481 C   0  0  0  0  0  0  0  0  0  0  0  0
    2.0436   -0.4005    0.0723 C   0  0  0  0  0  0  0  0  0  0  0  0
    1.5606    0.8781   -0.5061 C   0  0  0  0  0  0  0  0  0  0  0  0
    0.0999    0.5904   -0.7424 C   0  0  0  0  0  0  0  0  0  0  0  0
   -0.7969    1.6576   -0.1498 C   0  0  0  0  0  0  0  0  0  0  0  0
   -0.7596    1.4398    1.2265 O   0  0  0  0  0  0  0  0  0  0  0  0
   -0.8546    0.0755    1.3910 C   0  0  0  0  0  0  0  0  0  0  0  0
   -0.6749   -2.2445   -1.0422 H   0  0  0  0  0  0  0  0  0  0  0  0
   -1.7660   -0.8689   -1.3129 H   0  0  0  0  0  0  0  0  0  0  0  0
   -1.9784   -1.7987    0.1852 H   0  0  0  0  0  0  0  0  0  0  0  0
    1.2159   -2.1817    0.8960 H   0  0  0  0  0  0  0  0  0  0  0  0
    3.1205   -0.6189    0.1590 H   0  0  0  0  0  0  0  0  0  0  0  0
    1.7556    1.7096    0.1651 H   0  0  0  0  0  0  0  0  0  0  0  0
    2.0803    1.0199   -1.4925 H   0  0  0  0  0  0  0  0  0  0  0  0
   -0.1196    0.3890   -1.7915 H   0  0  0  0  0  0  0  0  0  0  0  0
   -1.8298    1.4361   -0.5131 H   0  0  0  0  0  0  0  0  0  0  0  0
   -0.5218    2.6701   -0.4187 H   0  0  0  0  0  0  0  0  0  0  0  0
   -1.9016   -0.2841    1.4737 H   0  0  0  0  0  0  0  0  0  0  0  0
   -0.3001   -0.2578    2.3096 H   0  0  0  0  0  0  0  0  0  0  0  0
  1  2  1  0
  2  3  1  0
  3  4  2  0
  4  5  1  0
  5  6  1  0
  6  7  1  0
  7  8  1  0
  8  9  1  0
  6  2  1  0
  9  2  1  0
  1 10  1  0
  1 11  1  0
  1 12  1  0
  3 13  1  0
  4 14  1  0
  5 15  1  0
  5 16  1  0
  6 17  1  0
  7 18  1  0
  7 19  1  0
  9 20  1  0
  9 21  1  0
M  END
