
     RDKit          3D

 21 23  0  0  0  0  0  0  0  0999 V2000
   -1.2123    1.4833    0.7649 C   0  0  0  0  0  0  0  0  0  0  0  0
   -0.2215    0.4956    0.2200 C   0  0  0  0  0  0  0  0  0  0  0  0
    1.1765    1.0010    0.4163 C   0  0  0  0  0  0  0  0  0  0  0  0
    2.2026    0.0621   -0.0904 C   0  0  0  0  0  0  0  0  0  0  0  0
    1.7499   -1.0706   -0.6010 C   0  0  0  0  0  0  0  0  0  0  0  0
    0.3215   -1.3045   -0.6483 C   0  0  0  0  0  0  0  0  0  0  0  0
   -0.4308   -0.9338    0.5963 C   0  0  0  0  0  0  0  0  0  0  0  0
   -1.6220   -0.9124   -0.3383 C   0  0  0  0  0  0  0  0  0  0  0  0
   -0.5579   -0.1514   -1.0750 C   0  0  0  0  0  0  0  0  0  0  0  0
   -0.7505    2.4903    0.8385 H   0  0  0  0  0  0  0  0  0  0  0  0
   -1.5212    1.2345    1.8222 H   0  0  0  0  0  0  0  0  0  0  0  0
   -2.1066    1.6077    0.1222 H   0  0  0  0  0  0  0  0  0  0  0  0
    1.3493    1.2212    1.4773 H   0  0  0  0  0  0  0  0  0  0  0  0
    1.2564    1.9683   -0.1275 H   0  0  0  0  0  0  0  0  0  0  0  0
    3.2308    0.3139   -0.0320 H   0  0  0  0  0  0  0  0  0  0  0  0
    2.4479   -1.8040   -0.9748 H   0  0  0  0  0  0  0  0  0  0  0  0
   -0.0082   -2.2747   -1.0788 H   0  0  0  0  0  0  0  0  0  0  0  0
   -0.3875   -1.3644    1.4952 H   0  0  0  0  0  0  0  0  0  0  0  0
   -2.5028   -0.3874   -0.0123 H   0  0  0  0  0  0  0  0  0  0  0  0
   -1.7986   -1.9200   -0.7839 H   0  0  0  0  0  0  0  0  0  0  0  0
   -0.6151    0.2454   -1.9908 H   0  0  0  0  0  0  0  0  0  0  0  0
  1  2  1  0
  2  3  1  0
  3  4  1  0
  4  5  2  0
  5  6  1  0
  6  7  1  0
  7  8  1  0
  8  9  1  0
  7  2  1  0
  9  2  1  0
  9  6  1  0
  1 10  1  0
  1 11  1  0
  1 12  1  0
  3 13  1  0
  3 14  1  0
  4 15  1  0
  5 16  1  0
  6 17  1  0
  7 18  1  0
  8 19  1  0
  8 20  1  0
  9 21  1  0
M  END
