
     RDKit          3D

 17 18  0  0  0  0  0  0  0  0999 V2000
    1.9576   -0.1200    0.0372 C   0  0  0  0  0  0  0  0  0  0  0  0
    0.5107    0.0225   -0.3165 C   0  0  0  0  0  0  0  0  0  0  0  0
   -0.2418   -1.2440   -0.5087 C   0  0  0  0  0  0  0  0  0  0  0  0
   -1.5718   -1.0890    0.1264 C   0  0  0  0  0  0  0  0  0  0  0  0
   -1.6090    0.0752    0.7460 C   0  0  0  0  0  0  0  0  0  0  0  0
   -0.3391    0.8328    0.6096 C   0  0  0  0  0  0  0  0  0  0  0  0
   -0.3720    1.8540   -0.4582 C   0  0  0  0  0  0  0  0  0  0  0  0
   -0.8423    3.0013   -0.5709 O   0  0  0  0  0  0  0  0  0  0  0  0
    0.3370    1.0249   -1.3021 O   0  0  0  0  0  0  0  0  0  0  0  0
    2.5370   -0.0615   -0.9205 H   0  0  0  0  0  0  0  0  0  0  0  0
    2.3101    0.6819    0.7090 H   0  0  0  0  0  0  0  0  0  0  0  0
    2.1211   -1.1403    0.4446 H   0  0  0  0  0  0  0  0  0  0  0  0
    0.2923   -2.0487    0.0569 H   0  0  0  0  0  0  0  0  0  0  0  0
   -0.3469   -1.5263   -1.5726 H   0  0  0  0  0  0  0  0  0  0  0  0
   -2.3571   -1.8300    0.0692 H   0  0  0  0  0  0  0  0  0  0  0  0
   -2.4972    0.4130    1.2917 H   0  0  0  0  0  0  0  0  0  0  0  0
    0.1112    1.1543    1.5590 H   0  0  0  0  0  0  0  0  0  0  0  0
  1  2  1  0
  2  3  1  0
  3  4  1  0
  4  5  2  0
  5  6  1  0
  6  7  1  0
  7  8  2  0
  7  9  1  0
  6  2  1  0
  9  2  1  0
  1 10  1  0
  1 11  1  0
  1 12  1  0
  3 13  1  0
  3 14  1  0
  4 15  1  0
  5 16  1  0
  6 17  1  0
M  END
