
     RDKit          3D

 21 22  0  0  0  0  0  0  0  0999 V2000
    2.5572   -0.3400    0.1565 C   0  0  0  0  0  0  0  0  0  0  0  0
    1.0435   -0.1270    0.2447 C   0  0  0  0  0  0  0  0  0  0  0  0
    0.2651   -0.5654   -0.9129 C   0  0  0  0  0  0  0  0  0  0  0  0
   -1.0791   -1.1559   -0.6775 C   0  0  0  0  0  0  0  0  0  0  0  0
   -1.9216   -0.5112    0.3459 C   0  0  0  0  0  0  0  0  0  0  0  0
   -1.8146    0.9813    0.1744 C   0  0  0  0  0  0  0  0  0  0  0  0
   -0.6917    1.6592    0.3794 C   0  0  0  0  0  0  0  0  0  0  0  0
    0.6568    1.1975    0.7962 C   0  0  0  0  0  0  0  0  0  0  0  0
    0.5836   -0.1137    1.5389 O   0  0  0  0  0  0  0  0  0  0  0  0
    2.7847   -1.1207   -0.6193 H   0  0  0  0  0  0  0  0  0  0  0  0
    3.0689    0.5786   -0.1891 H   0  0  0  0  0  0  0  0  0  0  0  0
    2.9971   -0.6257    1.1133 H   0  0  0  0  0  0  0  0  0  0  0  0
    0.1883    0.2999   -1.6365 H   0  0  0  0  0  0  0  0  0  0  0  0
    0.8551   -1.3324   -1.4860 H   0  0  0  0  0  0  0  0  0  0  0  0
   -1.6400   -1.0977   -1.6575 H   0  0  0  0  0  0  0  0  0  0  0  0
   -1.0416   -2.2624   -0.4629 H   0  0  0  0  0  0  0  0  0  0  0  0
   -1.7170   -0.8113    1.3893 H   0  0  0  0  0  0  0  0  0  0  0  0
   -2.9874   -0.7816    0.1542 H   0  0  0  0  0  0  0  0  0  0  0  0
   -2.7050    1.5177   -0.1318 H   0  0  0  0  0  0  0  0  0  0  0  0
   -0.7632    2.7274    0.2180 H   0  0  0  0  0  0  0  0  0  0  0  0
    1.3607    1.8834    1.2626 H   0  0  0  0  0  0  0  0  0  0  0  0
  1  2  1  0
  2  3  1  0
  3  4  1  0
  4  5  1  0
  5  6  1  0
  6  7  2  0
  7  8  1  0
  8  9  1  0
  8  2  1  0
  9  2  1  0
  1 10  1  0
  1 11  1  0
  1 12  1  0
  3 13  1  0
  3 14  1  0
  4 15  1  0
  4 16  1  0
  5 17  1  0
  5 18  1  0
  6 19  1  0
  7 20  1  0
  8 21  1  0
M  END
