
     RDKit          3D

 21 22  0  0  0  0  0  0  0  0999 V2000
   -1.8511    1.2206    0.2180 C   0  0  0  0  0  0  0  0  0  0  0  0
   -0.7111    0.3673   -0.2318 C   0  0  0  0  0  0  0  0  0  0  0  0
    0.4483    1.0758   -0.8193 C   0  0  0  0  0  0  0  0  0  0  0  0
    1.6884    0.6522   -0.6711 C   0  0  0  0  0  0  0  0  0  0  0  0
    2.0191   -0.5710    0.0983 C   0  0  0  0  0  0  0  0  0  0  0  0
    1.0035   -0.7437    1.2315 C   0  0  0  0  0  0  0  0  0  0  0  0
   -0.3501   -0.8005    0.6094 C   0  0  0  0  0  0  0  0  0  0  0  0
   -0.3174   -1.6326   -0.5309 O   0  0  0  0  0  0  0  0  0  0  0  0
   -1.1974   -0.7434   -1.1463 C   0  0  0  0  0  0  0  0  0  0  0  0
   -2.5137    1.3842   -0.6777 H   0  0  0  0  0  0  0  0  0  0  0  0
   -1.4994    2.2346    0.5557 H   0  0  0  0  0  0  0  0  0  0  0  0
   -2.3972    0.7233    1.0236 H   0  0  0  0  0  0  0  0  0  0  0  0
    0.2452    1.9732   -1.3878 H   0  0  0  0  0  0  0  0  0  0  0  0
    2.4704    1.2442   -1.1423 H   0  0  0  0  0  0  0  0  0  0  0  0
    1.9261   -1.4873   -0.5260 H   0  0  0  0  0  0  0  0  0  0  0  0
    3.0451   -0.5064    0.5107 H   0  0  0  0  0  0  0  0  0  0  0  0
    1.2137   -1.7443    1.6756 H   0  0  0  0  0  0  0  0  0  0  0  0
    1.1120    0.0417    2.0005 H   0  0  0  0  0  0  0  0  0  0  0  0
   -1.1634   -1.1027    1.2930 H   0  0  0  0  0  0  0  0  0  0  0  0
   -2.2351   -1.0410   -0.9614 H   0  0  0  0  0  0  0  0  0  0  0  0
   -0.9356   -0.5443   -2.2038 H   0  0  0  0  0  0  0  0  0  0  0  0
  1  2  1  0
  2  3  1  0
  3  4  2  0
  4  5  1  0
  5  6  1  0
  6  7  1  0
  7  8  1  0
  8  9  1  0
  7  2  1  0
  9  2  1  0
  1 10  1  0
  1 11  1  0
  1 12  1  0
  3 13  1  0
  4 14  1  0
  5 15  1  0
  5 16  1  0
  6 17  1  0
  6 18  1  0
  7 19  1  0
  9 20  1  0
  9 21  1  0
M  END
