
     RDKit          3D

 20 21  0  0  0  0  0  0  0  0999 V2000
    1.9675    0.1291    0.0968 C   0  0  0  0  0  0  0  0  0  0  0  0
    0.5397   -0.0497    0.0711 C   0  0  0  0  0  0  0  0  0  0  0  0
   -0.0712   -0.9418   -1.0208 C   0  0  0  0  0  0  0  0  0  0  0  0
   -1.2197   -1.0388   -0.0130 C   0  0  0  0  0  0  0  0  0  0  0  0
   -1.7260    0.3636   -0.0301 C   0  0  0  0  0  0  0  0  0  0  0  0
   -0.3953    1.1191    0.1508 C   0  0  0  0  0  0  0  0  0  0  0  0
   -0.2023    2.0438   -0.8486 O   0  0  0  0  0  0  0  0  0  0  0  0
   -0.1123   -1.0232    1.0435 C   0  0  0  0  0  0  0  0  0  0  0  0
    2.5005   -0.3245    0.9732 H   0  0  0  0  0  0  0  0  0  0  0  0
    2.4823   -0.2736   -0.8149 H   0  0  0  0  0  0  0  0  0  0  0  0
    2.2575    1.2183    0.1259 H   0  0  0  0  0  0  0  0  0  0  0  0
   -0.4102   -0.4001   -1.9051 H   0  0  0  0  0  0  0  0  0  0  0  0
    0.4940   -1.8655   -1.1598 H   0  0  0  0  0  0  0  0  0  0  0  0
   -1.8627   -1.8711   -0.0598 H   0  0  0  0  0  0  0  0  0  0  0  0
   -2.0606    0.5965   -1.0579 H   0  0  0  0  0  0  0  0  0  0  0  0
   -2.4422    0.6117    0.7514 H   0  0  0  0  0  0  0  0  0  0  0  0
   -0.3507    1.5518    1.1772 H   0  0  0  0  0  0  0  0  0  0  0  0
    0.5122    2.6573   -0.5556 H   0  0  0  0  0  0  0  0  0  0  0  0
    0.4818   -1.9422    1.0815 H   0  0  0  0  0  0  0  0  0  0  0  0
   -0.3824   -0.5607    1.9940 H   0  0  0  0  0  0  0  0  0  0  0  0
  1  2  1  0
  2  3  1  0
  3  4  1  0
  4  5  1  0
  5  6  1  0
  6  7  1  0
  4  8  1  0
  6  2  1  0
  8  2  1  0
  1  9  1  0
  1 10  1  0
  1 11  1  0
  3 12  1  0
  3 13  1  0
  4 14  1  0
  5 15  1  0
  5 16  1  0
  6 17  1  0
  7 18  1  0
  8 19  1  0
  8 20  1  0
M  END
