
     RDKit          3D

 21 22  0  0  0  0  0  0  0  0999 V2000
    1.6969    1.1108    0.7302 C   0  0  0  0  0  0  0  0  0  0  0  0
    0.5669    0.2487    0.2799 C   0  0  0  0  0  0  0  0  0  0  0  0
    0.9287   -0.9268   -0.5759 C   0  0  0  0  0  0  0  0  0  0  0  0
   -0.2669   -1.8427   -0.6375 C   0  0  0  0  0  0  0  0  0  0  0  0
   -1.4579   -1.2793   -0.4610 C   0  0  0  0  0  0  0  0  0  0  0  0
   -1.5010   -0.0327    0.3492 C   0  0  0  0  0  0  0  0  0  0  0  0
   -0.3937   -0.1758    1.3991 C   0  0  0  0  0  0  0  0  0  0  0  0
   -0.6239    1.0056   -0.3116 C   0  0  0  0  0  0  0  0  0  0  0  0
   -0.6608    1.0352   -1.6907 O   0  0  0  0  0  0  0  0  0  0  0  0
    1.4944    1.5239    1.7245 H   0  0  0  0  0  0  0  0  0  0  0  0
    2.6241    0.4989    0.7062 H   0  0  0  0  0  0  0  0  0  0  0  0
    1.8420    1.9157   -0.0286 H   0  0  0  0  0  0  0  0  0  0  0  0
    1.2373   -0.6188   -1.5955 H   0  0  0  0  0  0  0  0  0  0  0  0
    1.7932   -1.4329   -0.1167 H   0  0  0  0  0  0  0  0  0  0  0  0
   -0.1247   -2.9056   -0.8191 H   0  0  0  0  0  0  0  0  0  0  0  0
   -2.3305   -1.7429   -0.9061 H   0  0  0  0  0  0  0  0  0  0  0  0
   -2.4618    0.2879    0.7205 H   0  0  0  0  0  0  0  0  0  0  0  0
   -0.4654    0.5770    2.1840 H   0  0  0  0  0  0  0  0  0  0  0  0
   -0.2835   -1.2285    1.6971 H   0  0  0  0  0  0  0  0  0  0  0  0
   -0.7007    2.0080    0.1822 H   0  0  0  0  0  0  0  0  0  0  0  0
   -0.9127    1.9743   -1.9562 H   0  0  0  0  0  0  0  0  0  0  0  0
  1  2  1  0
  2  3  1  0
  3  4  1  0
  4  5  2  0
  5  6  1  0
  6  7  1  0
  6  8  1  0
  8  9  1  0
  7  2  1  0
  8  2  1  0
  1 10  1  0
  1 11  1  0
  1 12  1  0
  3 13  1  0
  3 14  1  0
  4 15  1  0
  5 16  1  0
  6 17  1  0
  7 18  1  0
  7 19  1  0
  8 20  1  0
  9 21  1  0
M  END
