
     RDKit          3D

 21 24  0  0  0  0  0  0  0  0999 V2000
   -2.2538   -0.7466   -0.0206 C   0  0  0  0  0  0  0  0  0  0  0  0
   -1.0253    0.0010    0.2488 C   0  0  0  0  0  0  0  0  0  0  0  0
   -0.7537    1.3834   -0.1394 C   0  0  0  0  0  0  0  0  0  0  0  0
    0.3506    1.7880    0.8234 C   0  0  0  0  0  0  0  0  0  0  0  0
    1.1846    0.5384    0.9013 C   0  0  0  0  0  0  0  0  0  0  0  0
    0.1950   -0.5487    0.8640 C   0  0  0  0  0  0  0  0  0  0  0  0
    0.9847   -0.2041   -0.3290 C   0  0  0  0  0  0  0  0  0  0  0  0
    1.8955   -1.1968   -0.9114 C   0  0  0  0  0  0  0  0  0  0  0  0
   -0.1988    0.3563   -1.0076 C   0  0  0  0  0  0  0  0  0  0  0  0
   -2.1184   -1.8370   -0.0707 H   0  0  0  0  0  0  0  0  0  0  0  0
   -2.7207   -0.3566   -0.9645 H   0  0  0  0  0  0  0  0  0  0  0  0
   -2.9946   -0.5423    0.7985 H   0  0  0  0  0  0  0  0  0  0  0  0
   -1.5625    2.0640   -0.3759 H   0  0  0  0  0  0  0  0  0  0  0  0
    0.8903    2.6795    0.5199 H   0  0  0  0  0  0  0  0  0  0  0  0
   -0.1620    1.9206    1.8189 H   0  0  0  0  0  0  0  0  0  0  0  0
    2.1067    0.5108    1.4950 H   0  0  0  0  0  0  0  0  0  0  0  0
    0.2551   -1.4742    1.4117 H   0  0  0  0  0  0  0  0  0  0  0  0
    1.3692   -1.9532   -1.5394 H   0  0  0  0  0  0  0  0  0  0  0  0
    2.4170   -1.7427   -0.0803 H   0  0  0  0  0  0  0  0  0  0  0  0
    2.7163   -0.6840   -1.4760 H   0  0  0  0  0  0  0  0  0  0  0  0
   -0.5751    0.0441   -1.9665 H   0  0  0  0  0  0  0  0  0  0  0  0
  1  2  1  0
  2  3  1  0
  3  4  1  0
  4  5  1  0
  5  6  1  0
  6  7  1  0
  7  8  1  0
  7  9  1  0
  6  2  1  0
  9  2  1  0
  9  3  1  0
  7  5  1  0
  1 10  1  0
  1 11  1  0
  1 12  1  0
  3 13  1  0
  4 14  1  0
  4 15  1  0
  5 16  1  0
  6 17  1  0
  8 18  1  0
  8 19  1  0
  8 20  1  0
  9 21  1  0
M  END
