
     RDKit          3D

 21 22  0  0  0  0  0  0  0  0999 V2000
   -1.7316    0.0527    0.7930 C   0  0  0  0  0  0  0  0  0  0  0  0
   -1.0908    0.2345   -0.5516 C   0  0  0  0  0  0  0  0  0  0  0  0
   -0.4448   -0.9419   -1.1371 C   0  0  0  0  0  0  0  0  0  0  0  0
    0.9723   -1.0344   -0.6717 C   0  0  0  0  0  0  0  0  0  0  0  0
    1.2331   -0.7195    0.7415 C   0  0  0  0  0  0  0  0  0  0  0  0
    0.5701    0.2984    1.3310 O   0  0  0  0  0  0  0  0  0  0  0  0
    0.5370    1.4973    0.6550 C   0  0  0  0  0  0  0  0  0  0  0  0
   -0.0319    1.3447   -0.7018 C   0  0  0  0  0  0  0  0  0  0  0  0
   -1.3131    1.4431   -1.0817 O   0  0  0  0  0  0  0  0  0  0  0  0
   -1.4455   -0.8792    1.3086 H   0  0  0  0  0  0  0  0  0  0  0  0
   -2.8405   -0.0592    0.5946 H   0  0  0  0  0  0  0  0  0  0  0  0
   -1.6667    0.9573    1.4415 H   0  0  0  0  0  0  0  0  0  0  0  0
   -0.4351   -0.9686   -2.2510 H   0  0  0  0  0  0  0  0  0  0  0  0
   -0.9755   -1.8839   -0.8231 H   0  0  0  0  0  0  0  0  0  0  0  0
    1.6877   -0.4678   -1.3352 H   0  0  0  0  0  0  0  0  0  0  0  0
    1.2825   -2.1111   -0.8421 H   0  0  0  0  0  0  0  0  0  0  0  0
    1.0736   -1.6366    1.3502 H   0  0  0  0  0  0  0  0  0  0  0  0
    2.3396   -0.5104    0.8433 H   0  0  0  0  0  0  0  0  0  0  0  0
    1.5860    1.8537    0.5787 H   0  0  0  0  0  0  0  0  0  0  0  0
    0.0107    2.2404    1.2908 H   0  0  0  0  0  0  0  0  0  0  0  0
    0.6829    1.2904   -1.5328 H   0  0  0  0  0  0  0  0  0  0  0  0
  1  2  1  0
  2  3  1  0
  3  4  1  0
  4  5  1  0
  5  6  1  0
  6  7  1  0
  7  8  1  0
  8  9  1  0
  8  2  1  0
  9  2  1  0
  1 10  1  0
  1 11  1  0
  1 12  1  0
  3 13  1  0
  3 14  1  0
  4 15  1  0
  4 16  1  0
  5 17  1  0
  5 18  1  0
  7 19  1  0
  7 20  1  0
  8 21  1  0
M  END
