
     RDKit          3D

 17 20  0  0  0  0  0  0  0  0999 V2000
    2.2266   -0.2535    0.1119 C   0  0  0  0  0  0  0  0  0  0  0  0
    0.8127    0.0654    0.2352 C   0  0  0  0  0  0  0  0  0  0  0  0
    0.4540    1.3711   -0.1707 O   0  0  0  0  0  0  0  0  0  0  0  0
   -0.9397    1.2537    0.0456 C   0  0  0  0  0  0  0  0  0  0  0  0
   -1.0384    0.3835    1.2433 C   0  0  0  0  0  0  0  0  0  0  0  0
    0.3148    0.1045    1.5535 O   0  0  0  0  0  0  0  0  0  0  0  0
   -1.3535   -0.7744    0.3523 C   0  0  0  0  0  0  0  0  0  0  0  0
   -1.2393    0.0622   -0.8160 C   0  0  0  0  0  0  0  0  0  0  0  0
   -0.1444   -0.8595   -0.4835 C   0  0  0  0  0  0  0  0  0  0  0  0
    2.6777    0.2908   -0.7379 H   0  0  0  0  0  0  0  0  0  0  0  0
    2.3654   -1.3468    0.0552 H   0  0  0  0  0  0  0  0  0  0  0  0
    2.7662    0.1034    1.0258 H   0  0  0  0  0  0  0  0  0  0  0  0
   -1.5259    2.1369   -0.0478 H   0  0  0  0  0  0  0  0  0  0  0  0
   -1.6839    0.6294    2.0544 H   0  0  0  0  0  0  0  0  0  0  0  0
   -2.0498   -1.5472    0.5667 H   0  0  0  0  0  0  0  0  0  0  0  0
   -1.8213    0.0866   -1.7044 H   0  0  0  0  0  0  0  0  0  0  0  0
    0.1787   -1.7059   -1.0543 H   0  0  0  0  0  0  0  0  0  0  0  0
  1  2  1  0
  2  3  1  0
  3  4  1  0
  4  5  1  0
  5  6  1  0
  5  7  1  0
  7  8  1  0
  8  9  1  0
  6  2  1  0
  9  7  1  0
  9  2  1  0
  8  4  1  0
  1 10  1  0
  1 11  1  0
  1 12  1  0
  4 13  1  0
  5 14  1  0
  7 15  1  0
  8 16  1  0
  9 17  1  0
M  END
