
     RDKit          3D

 19 20  0  0  0  0  0  0  0  0999 V2000
   -1.9292   -0.2947   -0.3964 C   0  0  0  0  0  0  0  0  0  0  0  0
   -0.5146   -0.2035   -0.1419 C   0  0  0  0  0  0  0  0  0  0  0  0
    0.0804   -1.0463    1.0003 C   0  0  0  0  0  0  0  0  0  0  0  0
    1.3490   -0.8575    0.1762 C   0  0  0  0  0  0  0  0  0  0  0  0
    1.5948    0.6223    0.2913 C   0  0  0  0  0  0  0  0  0  0  0  0
    0.1435    1.1200    0.1309 C   0  0  0  0  0  0  0  0  0  0  0  0
    0.0340    2.0192   -0.8957 O   0  0  0  0  0  0  0  0  0  0  0  0
    0.4550   -0.9213   -1.0086 C   0  0  0  0  0  0  0  0  0  0  0  0
    0.5137   -1.3574   -2.1344 O   0  0  0  0  0  0  0  0  0  0  0  0
   -2.3573   -1.2213    0.0895 H   0  0  0  0  0  0  0  0  0  0  0  0
   -2.1939   -0.3211   -1.4951 H   0  0  0  0  0  0  0  0  0  0  0  0
   -2.4777    0.5650    0.0164 H   0  0  0  0  0  0  0  0  0  0  0  0
    0.0762   -0.5366    1.9715 H   0  0  0  0  0  0  0  0  0  0  0  0
   -0.2949   -2.0772    0.9613 H   0  0  0  0  0  0  0  0  0  0  0  0
    2.1383   -1.5492    0.2851 H   0  0  0  0  0  0  0  0  0  0  0  0
    2.0228    0.9325    1.2451 H   0  0  0  0  0  0  0  0  0  0  0  0
    2.2048    0.9226   -0.5976 H   0  0  0  0  0  0  0  0  0  0  0  0
   -0.2162    1.4829    1.1084 H   0  0  0  0  0  0  0  0  0  0  0  0
   -0.6286    2.7216   -0.6062 H   0  0  0  0  0  0  0  0  0  0  0  0
  1  2  1  0
  2  3  1  0
  3  4  1  0
  4  5  1  0
  5  6  1  0
  6  7  1  0
  4  8  1  0
  8  9  2  0
  6  2  1  0
  8  2  1  0
  1 10  1  0
  1 11  1  0
  1 12  1  0
  3 13  1  0
  3 14  1  0
  4 15  1  0
  5 16  1  0
  5 17  1  0
  6 18  1  0
  7 19  1  0
M  END
