
     RDKit          3D

 23 25  0  0  0  0  0  0  0  0999 V2000
    2.1535   -0.7993   -0.5576 C   0  0  0  0  0  0  0  0  0  0  0  0
    0.9291   -0.1384    0.0819 C   0  0  0  0  0  0  0  0  0  0  0  0
    1.2124    1.0251    0.9183 C   0  0  0  0  0  0  0  0  0  0  0  0
    0.4911    1.1693   -0.3962 C   0  0  0  0  0  0  0  0  0  0  0  0
   -0.9877    1.4200   -0.3657 C   0  0  0  0  0  0  0  0  0  0  0  0
   -1.7773    0.1884   -0.0451 C   0  0  0  0  0  0  0  0  0  0  0  0
   -1.1693   -0.9768   -0.8391 C   0  0  0  0  0  0  0  0  0  0  0  0
   -0.1908   -1.0954    0.3399 C   0  0  0  0  0  0  0  0  0  0  0  0
   -1.2879   -0.5269    1.1901 C   0  0  0  0  0  0  0  0  0  0  0  0
    2.4027   -1.7450   -0.0343 H   0  0  0  0  0  0  0  0  0  0  0  0
    3.0276   -0.1101   -0.5101 H   0  0  0  0  0  0  0  0  0  0  0  0
    1.9644   -1.0701   -1.6136 H   0  0  0  0  0  0  0  0  0  0  0  0
    2.2571    1.4075    0.9742 H   0  0  0  0  0  0  0  0  0  0  0  0
    0.6418    1.2568    1.8455 H   0  0  0  0  0  0  0  0  0  0  0  0
    1.0914    1.6604   -1.2077 H   0  0  0  0  0  0  0  0  0  0  0  0
   -1.1840    2.2304    0.3611 H   0  0  0  0  0  0  0  0  0  0  0  0
   -1.2815    1.7322   -1.4029 H   0  0  0  0  0  0  0  0  0  0  0  0
   -2.8510    0.3126   -0.1551 H   0  0  0  0  0  0  0  0  0  0  0  0
   -1.8327   -1.8779   -0.8559 H   0  0  0  0  0  0  0  0  0  0  0  0
   -0.7105   -0.6960   -1.7881 H   0  0  0  0  0  0  0  0  0  0  0  0
    0.1153   -2.1255    0.5399 H   0  0  0  0  0  0  0  0  0  0  0  0
   -1.0127    0.0802    2.0434 H   0  0  0  0  0  0  0  0  0  0  0  0
   -2.0011   -1.3216    1.4770 H   0  0  0  0  0  0  0  0  0  0  0  0
  1  2  1  0
  2  3  1  0
  3  4  1  0
  4  5  1  0
  5  6  1  0
  6  7  1  0
  7  8  1  0
  8  9  1  0
  4  2  1  0
  9  6  1  0
  8  2  1  0
  1 10  1  0
  1 11  1  0
  1 12  1  0
  3 13  1  0
  3 14  1  0
  4 15  1  0
  5 16  1  0
  5 17  1  0
  6 18  1  0
  7 19  1  0
  7 20  1  0
  8 21  1  0
  9 22  1  0
  9 23  1  0
M  END
