
     RDKit          3D

 17 19  0  0  0  0  0  0  0  0999 V2000
   -2.0918   -0.2288   -0.0887 C   0  0  0  0  0  0  0  0  0  0  0  0
   -0.6148   -0.1100   -0.2345 C   0  0  0  0  0  0  0  0  0  0  0  0
    0.0495    1.2499   -0.2411 C   0  0  0  0  0  0  0  0  0  0  0  0
    1.1746    0.6387    0.5649 C   0  0  0  0  0  0  0  0  0  0  0  0
    2.1684    0.0375   -0.3732 C   0  0  0  0  0  0  0  0  0  0  0  0
    3.3512    0.4586   -0.4529 O   0  0  0  0  0  0  0  0  0  0  0  0
    1.5161   -0.9746   -1.0406 O   0  0  0  0  0  0  0  0  0  0  0  0
    0.2685   -1.2824   -0.4013 C   0  0  0  0  0  0  0  0  0  0  0  0
    0.2799   -0.5284    0.8412 C   0  0  0  0  0  0  0  0  0  0  0  0
   -2.5384    0.7578    0.0095 H   0  0  0  0  0  0  0  0  0  0  0  0
   -2.3675   -0.9156    0.7610 H   0  0  0  0  0  0  0  0  0  0  0  0
   -2.4995   -0.7173   -0.9984 H   0  0  0  0  0  0  0  0  0  0  0  0
    0.3478    1.5085   -1.2813 H   0  0  0  0  0  0  0  0  0  0  0  0
   -0.5015    2.0495    0.2531 H   0  0  0  0  0  0  0  0  0  0  0  0
    1.5634    1.2082    1.3954 H   0  0  0  0  0  0  0  0  0  0  0  0
   -0.1129   -2.2909   -0.5363 H   0  0  0  0  0  0  0  0  0  0  0  0
    0.0069   -0.8606    1.8231 H   0  0  0  0  0  0  0  0  0  0  0  0
  1  2  1  0
  2  3  1  0
  3  4  1  0
  4  5  1  0
  5  6  2  0
  5  7  1  0
  7  8  1  0
  8  9  1  0
  8  2  1  0
  9  2  1  0
  9  4  1  0
  1 10  1  0
  1 11  1  0
  1 12  1  0
  3 13  1  0
  3 14  1  0
  4 15  1  0
  8 16  1  0
  9 17  1  0
M  END
