
     RDKit          3D

 17 20  0  0  0  0  0  0  0  0999 V2000
    2.0308    0.0793    0.5300 C   0  0  0  0  0  0  0  0  0  0  0  0
    0.6281   -0.1615    0.2144 C   0  0  0  0  0  0  0  0  0  0  0  0
    0.0642   -1.3918    0.6265 O   0  0  0  0  0  0  0  0  0  0  0  0
   -1.1551   -1.2883   -0.0856 C   0  0  0  0  0  0  0  0  0  0  0  0
   -0.6204   -1.1439   -1.3876 O   0  0  0  0  0  0  0  0  0  0  0  0
    0.1350    0.0199   -1.1832 C   0  0  0  0  0  0  0  0  0  0  0  0
   -0.9170    0.9521   -0.6490 C   0  0  0  0  0  0  0  0  0  0  0  0
   -1.6772    0.0703    0.2436 C   0  0  0  0  0  0  0  0  0  0  0  0
   -0.4196    0.7893    0.6791 C   0  0  0  0  0  0  0  0  0  0  0  0
    2.4952    0.7762   -0.1715 H   0  0  0  0  0  0  0  0  0  0  0  0
    2.1203    0.4460    1.5848 H   0  0  0  0  0  0  0  0  0  0  0  0
    2.5946   -0.8966    0.4713 H   0  0  0  0  0  0  0  0  0  0  0  0
   -1.8126   -2.1180    0.0362 H   0  0  0  0  0  0  0  0  0  0  0  0
    0.7897    0.3460   -1.9535 H   0  0  0  0  0  0  0  0  0  0  0  0
   -1.2731    1.8119   -1.1685 H   0  0  0  0  0  0  0  0  0  0  0  0
   -2.6199    0.2709    0.7039 H   0  0  0  0  0  0  0  0  0  0  0  0
   -0.3631    1.4381    1.5093 H   0  0  0  0  0  0  0  0  0  0  0  0
  1  2  1  0
  2  3  1  0
  3  4  1  0
  4  5  1  0
  5  6  1  0
  6  7  1  0
  7  8  1  0
  8  9  1  0
  6  2  1  0
  9  7  1  0
  9  2  1  0
  8  4  1  0
  1 10  1  0
  1 11  1  0
  1 12  1  0
  4 13  1  0
  6 14  1  0
  7 15  1  0
  8 16  1  0
  9 17  1  0
M  END
