
     RDKit          3D

 19 21  0  0  0  0  0  0  0  0999 V2000
   -2.4086    0.2868    0.0931 C   0  0  0  0  0  0  0  0  0  0  0  0
   -0.9633    0.2277   -0.2802 C   0  0  0  0  0  0  0  0  0  0  0  0
   -0.5564   -0.2162   -1.5194 O   0  0  0  0  0  0  0  0  0  0  0  0
   -0.3664   -1.1616   -0.5366 C   0  0  0  0  0  0  0  0  0  0  0  0
    0.8574   -1.1542    0.3258 C   0  0  0  0  0  0  0  0  0  0  0  0
    1.9726   -0.2857   -0.2611 C   0  0  0  0  0  0  0  0  0  0  0  0
    1.3092    1.0896   -0.1686 C   0  0  0  0  0  0  0  0  0  0  0  0
    0.0725    0.8173    0.6389 C   0  0  0  0  0  0  0  0  0  0  0  0
    0.4437   -0.3198    1.3916 O   0  0  0  0  0  0  0  0  0  0  0  0
   -2.8026    1.3150   -0.0735 H   0  0  0  0  0  0  0  0  0  0  0  0
   -2.4677    0.1335    1.2039 H   0  0  0  0  0  0  0  0  0  0  0  0
   -3.0171   -0.5007   -0.3611 H   0  0  0  0  0  0  0  0  0  0  0  0
   -1.0305   -2.0253   -0.5857 H   0  0  0  0  0  0  0  0  0  0  0  0
    1.2031   -2.1244    0.6581 H   0  0  0  0  0  0  0  0  0  0  0  0
    2.2117   -0.5699   -1.2863 H   0  0  0  0  0  0  0  0  0  0  0  0
    2.8238   -0.3298    0.4416 H   0  0  0  0  0  0  0  0  0  0  0  0
    1.9741    1.8375    0.2865 H   0  0  0  0  0  0  0  0  0  0  0  0
    1.0159    1.3406   -1.2183 H   0  0  0  0  0  0  0  0  0  0  0  0
   -0.2713    1.6397    1.2514 H   0  0  0  0  0  0  0  0  0  0  0  0
  1  2  1  0
  2  3  1  0
  3  4  1  0
  4  5  1  0
  5  6  1  0
  6  7  1  0
  7  8  1  0
  8  9  1  0
  4  2  1  0
  9  5  1  0
  8  2  1  0
  1 10  1  0
  1 11  1  0
  1 12  1  0
  4 13  1  0
  5 14  1  0
  6 15  1  0
  6 16  1  0
  7 17  1  0
  7 18  1  0
  8 19  1  0
M  END
