
     RDKit          3D

 19 21  0  0  0  0  0  0  0  0999 V2000
   -2.2317   -0.2075    0.4282 C   0  0  0  0  0  0  0  0  0  0  0  0
   -0.7293   -0.1940    0.3975 C   0  0  0  0  0  0  0  0  0  0  0  0
   -0.0658   -1.2517   -0.4314 C   0  0  0  0  0  0  0  0  0  0  0  0
    0.7225   -0.1683   -1.1274 C   0  0  0  0  0  0  0  0  0  0  0  0
    1.9992    0.0229   -0.7254 O   0  0  0  0  0  0  0  0  0  0  0  0
    2.2312    0.2416    0.5868 C   0  0  0  0  0  0  0  0  0  0  0  0
    1.3201    0.8752    1.3336 O   0  0  0  0  0  0  0  0  0  0  0  0
    0.0414    0.9658    0.9073 C   0  0  0  0  0  0  0  0  0  0  0  0
   -0.1583    0.8924   -0.5367 C   0  0  0  0  0  0  0  0  0  0  0  0
   -2.5769    0.6188    1.0805 H   0  0  0  0  0  0  0  0  0  0  0  0
   -2.5814    0.0384   -0.6071 H   0  0  0  0  0  0  0  0  0  0  0  0
   -2.6503   -1.1697    0.7454 H   0  0  0  0  0  0  0  0  0  0  0  0
   -0.7573   -1.7759   -1.1511 H   0  0  0  0  0  0  0  0  0  0  0  0
    0.5396   -1.9811    0.1204 H   0  0  0  0  0  0  0  0  0  0  0  0
    0.6277   -0.1847   -2.2249 H   0  0  0  0  0  0  0  0  0  0  0  0
    3.2069    0.8114    0.6634 H   0  0  0  0  0  0  0  0  0  0  0  0
    2.4778   -0.7520    1.0669 H   0  0  0  0  0  0  0  0  0  0  0  0
   -0.5809    1.7272    1.4467 H   0  0  0  0  0  0  0  0  0  0  0  0
   -0.8345    1.4914   -1.1262 H   0  0  0  0  0  0  0  0  0  0  0  0
  1  2  1  0
  2  3  1  0
  3  4  1  0
  4  5  1  0
  5  6  1  0
  6  7  1  0
  7  8  1  0
  8  9  1  0
  8  2  1  0
  9  2  1  0
  9  4  1  0
  1 10  1  0
  1 11  1  0
  1 12  1  0
  3 13  1  0
  3 14  1  0
  4 15  1  0
  6 16  1  0
  6 17  1  0
  8 18  1  0
  9 19  1  0
M  END
