
     RDKit          3D

 21 22  0  0  0  0  0  0  0  0999 V2000
   -1.7184   -1.3702   -0.0228 C   0  0  0  0  0  0  0  0  0  0  0  0
   -0.5970   -0.4192    0.0489 C   0  0  0  0  0  0  0  0  0  0  0  0
   -0.8103    0.9039   -0.5912 C   0  0  0  0  0  0  0  0  0  0  0  0
   -0.0196    1.8336    0.3376 C   0  0  0  0  0  0  0  0  0  0  0  0
    0.6874    0.8240    1.2127 C   0  0  0  0  0  0  0  0  0  0  0  0
    1.6679   -0.0261    0.4330 C   0  0  0  0  0  0  0  0  0  0  0  0
    0.7409   -0.9526   -0.3679 C   0  0  0  0  0  0  0  0  0  0  0  0
    0.9474   -0.6332   -1.7222 O   0  0  0  0  0  0  0  0  0  0  0  0
   -0.3537   -0.1136    1.4100 O   0  0  0  0  0  0  0  0  0  0  0  0
   -1.4026   -2.3392    0.4026 H   0  0  0  0  0  0  0  0  0  0  0  0
   -2.1852   -1.4848   -1.0112 H   0  0  0  0  0  0  0  0  0  0  0  0
   -2.5353   -0.9995    0.6651 H   0  0  0  0  0  0  0  0  0  0  0  0
   -1.8416    1.2173   -0.7185 H   0  0  0  0  0  0  0  0  0  0  0  0
   -0.2762    0.9688   -1.5819 H   0  0  0  0  0  0  0  0  0  0  0  0
    0.6695    2.4776   -0.1990 H   0  0  0  0  0  0  0  0  0  0  0  0
   -0.7677    2.3421    0.9611 H   0  0  0  0  0  0  0  0  0  0  0  0
    1.0746    1.2209    2.1394 H   0  0  0  0  0  0  0  0  0  0  0  0
    2.2915    0.5922   -0.2105 H   0  0  0  0  0  0  0  0  0  0  0  0
    2.2208   -0.6373    1.1704 H   0  0  0  0  0  0  0  0  0  0  0  0
    0.9103   -2.0008   -0.1486 H   0  0  0  0  0  0  0  0  0  0  0  0
    1.2970   -1.4037   -2.2069 H   0  0  0  0  0  0  0  0  0  0  0  0
  1  2  1  0
  2  3  1  0
  3  4  1  0
  4  5  1  0
  5  6  1  0
  6  7  1  0
  7  8  1  0
  5  9  1  0
  7  2  1  0
  9  2  1  0
  1 10  1  0
  1 11  1  0
  1 12  1  0
  3 13  1  0
  3 14  1  0
  4 15  1  0
  4 16  1  0
  5 17  1  0
  6 18  1  0
  6 19  1  0
  7 20  1  0
  8 21  1  0
M  END
