
     RDKit          3D

 21 23  0  0  0  0  0  0  0  0999 V2000
   -1.4360   -0.5323    1.5116 C   0  0  0  0  0  0  0  0  0  0  0  0
   -0.7571   -0.5468    0.2124 C   0  0  0  0  0  0  0  0  0  0  0  0
   -1.4843    0.0231   -0.8559 O   0  0  0  0  0  0  0  0  0  0  0  0
   -0.3489    0.7628   -0.4805 C   0  0  0  0  0  0  0  0  0  0  0  0
   -0.5425    2.0533    0.2082 C   0  0  0  0  0  0  0  0  0  0  0  0
    0.9981    0.3441   -0.9978 C   0  0  0  0  0  0  0  0  0  0  0  0
    0.6663   -1.0352   -1.5854 C   0  0  0  0  0  0  0  0  0  0  0  0
    0.4328   -1.3761   -0.1024 C   0  0  0  0  0  0  0  0  0  0  0  0
    1.6353   -0.4508    0.1259 C   0  0  0  0  0  0  0  0  0  0  0  0
   -1.4013    0.4138    2.0781 H   0  0  0  0  0  0  0  0  0  0  0  0
   -1.1234   -1.3300    2.2216 H   0  0  0  0  0  0  0  0  0  0  0  0
   -2.5361   -0.7275    1.3365 H   0  0  0  0  0  0  0  0  0  0  0  0
   -0.7490    2.8436   -0.5717 H   0  0  0  0  0  0  0  0  0  0  0  0
    0.4316    2.3747    0.6635 H   0  0  0  0  0  0  0  0  0  0  0  0
   -1.3773    2.0825    0.9054 H   0  0  0  0  0  0  0  0  0  0  0  0
    1.5889    0.9998   -1.5749 H   0  0  0  0  0  0  0  0  0  0  0  0
   -0.2918   -1.0814   -2.1102 H   0  0  0  0  0  0  0  0  0  0  0  0
    1.5253   -1.5472   -2.0231 H   0  0  0  0  0  0  0  0  0  0  0  0
    0.5189   -2.3876    0.1884 H   0  0  0  0  0  0  0  0  0  0  0  0
    1.6775    0.0249    1.0979 H   0  0  0  0  0  0  0  0  0  0  0  0
    2.5731   -0.9076   -0.2477 H   0  0  0  0  0  0  0  0  0  0  0  0
  1  2  1  0
  2  3  1  0
  3  4  1  0
  4  5  1  0
  4  6  1  0
  6  7  1  0
  7  8  1  0
  8  9  1  0
  4  2  1  0
  9  6  1  0
  8  2  1  0
  1 10  1  0
  1 11  1  0
  1 12  1  0
  5 13  1  0
  5 14  1  0
  5 15  1  0
  6 16  1  0
  7 17  1  0
  7 18  1  0
  8 19  1  0
  9 20  1  0
  9 21  1  0
M  END
