
     RDKit          3D

 17 18  0  0  0  0  0  0  0  0999 V2000
    1.6419   -1.1336   -0.1544 C   0  0  0  0  0  0  0  0  0  0  0  0
    0.5464   -0.1491    0.1924 C   0  0  0  0  0  0  0  0  0  0  0  0
    0.9146    1.2775    0.1910 C   0  0  0  0  0  0  0  0  0  0  0  0
   -0.0601    0.7017   -0.8541 C   0  0  0  0  0  0  0  0  0  0  0  0
   -1.5061    0.8035   -0.5818 C   0  0  0  0  0  0  0  0  0  0  0  0
   -2.2384    1.6495   -1.0366 O   0  0  0  0  0  0  0  0  0  0  0  0
   -1.8612   -0.3046    0.3303 C   0  0  0  0  0  0  0  0  0  0  0  0
   -0.5745   -0.6429    1.0127 C   0  0  0  0  0  0  0  0  0  0  0  0
   -0.5218   -1.2355    2.0789 O   0  0  0  0  0  0  0  0  0  0  0  0
    2.5403   -0.8166    0.4299 H   0  0  0  0  0  0  0  0  0  0  0  0
    1.8859   -0.9895   -1.2162 H   0  0  0  0  0  0  0  0  0  0  0  0
    1.3279   -2.1662    0.0812 H   0  0  0  0  0  0  0  0  0  0  0  0
    0.4848    2.0248    0.8595 H   0  0  0  0  0  0  0  0  0  0  0  0
    1.9184    1.5403   -0.2121 H   0  0  0  0  0  0  0  0  0  0  0  0
    0.2914    0.6989   -1.9002 H   0  0  0  0  0  0  0  0  0  0  0  0
   -2.6534   -0.0448    1.0551 H   0  0  0  0  0  0  0  0  0  0  0  0
   -2.1361   -1.2136   -0.2756 H   0  0  0  0  0  0  0  0  0  0  0  0
  1  2  1  0
  2  3  1  0
  3  4  1  0
  4  5  1  0
  5  6  2  0
  5  7  1  0
  7  8  1  0
  8  9  2  0
  4  2  1  0
  8  2  1  0
  1 10  1  0
  1 11  1  0
  1 12  1  0
  3 13  1  0
  3 14  1  0
  4 15  1  0
  7 16  1  0
  7 17  1  0
M  END
