
     RDKit          3D

 21 22  0  0  0  0  0  0  0  0999 V2000
   -0.2120    1.5802   -1.3092 C   0  0  0  0  0  0  0  0  0  0  0  0
   -0.3919    0.5851   -0.1909 C   0  0  0  0  0  0  0  0  0  0  0  0
   -1.6419    0.7559    0.5776 C   0  0  0  0  0  0  0  0  0  0  0  0
   -2.1647   -0.4182    0.9072 C   0  0  0  0  0  0  0  0  0  0  0  0
   -1.3539   -1.5562    0.4156 C   0  0  0  0  0  0  0  0  0  0  0  0
   -0.2884   -0.8581   -0.3951 C   0  0  0  0  0  0  0  0  0  0  0  0
    0.7243   -0.1212    0.4236 C   0  0  0  0  0  0  0  0  0  0  0  0
    2.1143   -0.1102   -0.0923 C   0  0  0  0  0  0  0  0  0  0  0  0
    2.9656   -0.8833    0.7127 O   0  0  0  0  0  0  0  0  0  0  0  0
   -0.1850    2.5955   -0.8155 H   0  0  0  0  0  0  0  0  0  0  0  0
   -1.0316    1.5721   -2.0416 H   0  0  0  0  0  0  0  0  0  0  0  0
    0.7296    1.4711   -1.8486 H   0  0  0  0  0  0  0  0  0  0  0  0
   -2.1023    1.7271    0.8548 H   0  0  0  0  0  0  0  0  0  0  0  0
   -3.0886   -0.5087    1.4766 H   0  0  0  0  0  0  0  0  0  0  0  0
   -1.9407   -2.2555   -0.2086 H   0  0  0  0  0  0  0  0  0  0  0  0
   -0.8706   -2.1166    1.2638 H   0  0  0  0  0  0  0  0  0  0  0  0
   -0.0019   -1.2985   -1.3725 H   0  0  0  0  0  0  0  0  0  0  0  0
    0.6765   -0.2160    1.5492 H   0  0  0  0  0  0  0  0  0  0  0  0
    2.1296   -0.5649   -1.1015 H   0  0  0  0  0  0  0  0  0  0  0  0
    2.5586    0.8969   -0.2008 H   0  0  0  0  0  0  0  0  0  0  0  0
    3.3749   -0.2763    1.3955 H   0  0  0  0  0  0  0  0  0  0  0  0
  1  2  1  0
  2  3  1  0
  3  4  2  0
  4  5  1  0
  5  6  1  0
  6  7  1  0
  7  8  1  0
  8  9  1  0
  6  2  1  0
  7  2  1  0
  1 10  1  0
  1 11  1  0
  1 12  1  0
  3 13  1  0
  4 14  1  0
  5 15  1  0
  5 16  1  0
  6 17  1  0
  7 18  1  0
  8 19  1  0
  8 20  1  0
  9 21  1  0
M  END
