
     RDKit          3D

 21 23  0  0  0  0  0  0  0  0999 V2000
   -2.3393    0.4216   -0.2955 C   0  0  0  0  0  0  0  0  0  0  0  0
   -0.8691    0.1514   -0.2511 C   0  0  0  0  0  0  0  0  0  0  0  0
   -0.4222   -1.2102   -0.6252 C   0  0  0  0  0  0  0  0  0  0  0  0
    0.6001   -1.1716    0.4909 C   0  0  0  0  0  0  0  0  0  0  0  0
    1.9400   -0.7591   -0.0344 C   0  0  0  0  0  0  0  0  0  0  0  0
    1.7121    0.2514   -0.9910 O   0  0  0  0  0  0  0  0  0  0  0  0
    1.3532    1.3887   -0.2426 C   0  0  0  0  0  0  0  0  0  0  0  0
   -0.0111    1.1797    0.3340 C   0  0  0  0  0  0  0  0  0  0  0  0
   -0.1896   -0.0607    1.1023 C   0  0  0  0  0  0  0  0  0  0  0  0
   -2.7002    0.9908    0.5794 H   0  0  0  0  0  0  0  0  0  0  0  0
   -2.5315    0.9964   -1.2489 H   0  0  0  0  0  0  0  0  0  0  0  0
   -2.9549   -0.4938   -0.3889 H   0  0  0  0  0  0  0  0  0  0  0  0
   -0.0465   -1.3921   -1.6287 H   0  0  0  0  0  0  0  0  0  0  0  0
   -1.2053   -1.9746   -0.3471 H   0  0  0  0  0  0  0  0  0  0  0  0
    0.6351   -2.0829    1.1289 H   0  0  0  0  0  0  0  0  0  0  0  0
    2.3908   -1.6424   -0.5310 H   0  0  0  0  0  0  0  0  0  0  0  0
    2.6001   -0.3027    0.7291 H   0  0  0  0  0  0  0  0  0  0  0  0
    2.1084    1.5916    0.5303 H   0  0  0  0  0  0  0  0  0  0  0  0
    1.2840    2.2335   -0.9729 H   0  0  0  0  0  0  0  0  0  0  0  0
   -0.4898    2.0805    0.7295 H   0  0  0  0  0  0  0  0  0  0  0  0
   -0.8643   -0.1956    1.9328 H   0  0  0  0  0  0  0  0  0  0  0  0
  1  2  1  0
  2  3  1  0
  3  4  1  0
  4  5  1  0
  5  6  1  0
  6  7  1  0
  7  8  1  0
  8  9  1  0
  8  2  1  0
  9  2  1  0
  9  4  1  0
  1 10  1  0
  1 11  1  0
  1 12  1  0
  3 13  1  0
  3 14  1  0
  4 15  1  0
  5 16  1  0
  5 17  1  0
  7 18  1  0
  7 19  1  0
  8 20  1  0
  9 21  1  0
M  END
