
     RDKit          3D

 18 19  0  0  0  0  0  0  0  0999 V2000
    1.7329   -0.8305   -0.2805 C   0  0  0  0  0  0  0  0  0  0  0  0
    0.5571    0.0916   -0.3503 C   0  0  0  0  0  0  0  0  0  0  0  0
    0.8155    1.5504   -0.2078 C   0  0  0  0  0  0  0  0  0  0  0  0
    0.1131    1.5721    1.0062 O   0  0  0  0  0  0  0  0  0  0  0  0
   -0.1224    0.2129    0.9731 C   0  0  0  0  0  0  0  0  0  0  0  0
   -1.5256   -0.2185    0.7091 C   0  0  0  0  0  0  0  0  0  0  0  0
   -1.5589   -0.5173   -0.7425 C   0  0  0  0  0  0  0  0  0  0  0  0
   -0.3636   -0.1871   -1.3121 O   0  0  0  0  0  0  0  0  0  0  0  0
    1.7999   -1.3323    0.7162 H   0  0  0  0  0  0  0  0  0  0  0  0
    1.5470   -1.6692   -1.0053 H   0  0  0  0  0  0  0  0  0  0  0  0
    2.6990   -0.3659   -0.4872 H   0  0  0  0  0  0  0  0  0  0  0  0
    0.2328    2.1790   -0.9411 H   0  0  0  0  0  0  0  0  0  0  0  0
    1.8436    1.8987   -0.1615 H   0  0  0  0  0  0  0  0  0  0  0  0
    0.3738   -0.3045    1.8325 H   0  0  0  0  0  0  0  0  0  0  0  0
   -2.2186    0.5816    1.0206 H   0  0  0  0  0  0  0  0  0  0  0  0
   -1.7726   -1.1061    1.3413 H   0  0  0  0  0  0  0  0  0  0  0  0
   -1.7338   -1.6107   -0.9221 H   0  0  0  0  0  0  0  0  0  0  0  0
   -2.4192    0.0559   -1.1885 H   0  0  0  0  0  0  0  0  0  0  0  0
  1  2  1  0
  2  3  1  0
  3  4  1  0
  4  5  1  0
  5  6  1  0
  6  7  1  0
  7  8  1  0
  5  2  1  0
  8  2  1  0
  1  9  1  0
  1 10  1  0
  1 11  1  0
  3 12  1  0
  3 13  1  0
  5 14  1  0
  6 15  1  0
  6 16  1  0
  7 17  1  0
  7 18  1  0
M  END
