
     RDKit          3D

 23 24  0  0  0  0  0  0  0  0999 V2000
   -1.7468   -1.1232   -0.5709 C   0  0  0  0  0  0  0  0  0  0  0  0
   -0.5894   -0.2789   -0.3202 C   0  0  0  0  0  0  0  0  0  0  0  0
    0.6851   -0.6689   -1.0340 C   0  0  0  0  0  0  0  0  0  0  0  0
    1.8120   -0.2813   -0.0749 C   0  0  0  0  0  0  0  0  0  0  0  0
    1.0848    0.6522    0.8703 C   0  0  0  0  0  0  0  0  0  0  0  0
    0.4441    1.7886    0.1182 C   0  0  0  0  0  0  0  0  0  0  0  0
   -0.7831    1.2016   -0.5864 C   0  0  0  0  0  0  0  0  0  0  0  0
   -0.1613   -0.2077    1.1558 C   0  0  0  0  0  0  0  0  0  0  0  0
    0.1696   -1.4361    1.6597 O   0  0  0  0  0  0  0  0  0  0  0  0
   -1.7008   -1.5325   -1.6181 H   0  0  0  0  0  0  0  0  0  0  0  0
   -2.6853   -0.6050   -0.3550 H   0  0  0  0  0  0  0  0  0  0  0  0
   -1.7285   -2.0206    0.1151 H   0  0  0  0  0  0  0  0  0  0  0  0
    0.7268   -1.7086   -1.3402 H   0  0  0  0  0  0  0  0  0  0  0  0
    0.8076   -0.0268   -1.9561 H   0  0  0  0  0  0  0  0  0  0  0  0
    2.0612   -1.2163    0.4760 H   0  0  0  0  0  0  0  0  0  0  0  0
    2.6582    0.1788   -0.5848 H   0  0  0  0  0  0  0  0  0  0  0  0
    1.6264    0.9211    1.7564 H   0  0  0  0  0  0  0  0  0  0  0  0
    0.0722    2.5124    0.8788 H   0  0  0  0  0  0  0  0  0  0  0  0
    1.1189    2.2721   -0.5972 H   0  0  0  0  0  0  0  0  0  0  0  0
   -1.7162    1.5895   -0.1576 H   0  0  0  0  0  0  0  0  0  0  0  0
   -0.6820    1.4301   -1.6620 H   0  0  0  0  0  0  0  0  0  0  0  0
   -0.8457    0.3893    1.7534 H   0  0  0  0  0  0  0  0  0  0  0  0
   -0.6277   -1.8300    2.0738 H   0  0  0  0  0  0  0  0  0  0  0  0
  1  2  1  0
  2  3  1  0
  3  4  1  0
  4  5  1  0
  5  6  1  0
  6  7  1  0
  5  8  1  0
  8  9  1  0
  7  2  1  0
  8  2  1  0
  1 10  1  0
  1 11  1  0
  1 12  1  0
  3 13  1  0
  3 14  1  0
  4 15  1  0
  4 16  1  0
  5 17  1  0
  6 18  1  0
  6 19  1  0
  7 20  1  0
  7 21  1  0
  8 22  1  0
  9 23  1  0
M  END
