
     RDKit          3D

 19 20  0  0  0  0  0  0  0  0999 V2000
   -2.2130   -0.0334   -0.1981 C   0  0  0  0  0  0  0  0  0  0  0  0
   -0.7425    0.0738   -0.0919 C   0  0  0  0  0  0  0  0  0  0  0  0
   -0.1925    1.2128    0.6759 C   0  0  0  0  0  0  0  0  0  0  0  0
    1.1271    1.3570    0.6689 C   0  0  0  0  0  0  0  0  0  0  0  0
    1.9067    0.1390    0.2966 C   0  0  0  0  0  0  0  0  0  0  0  0
    1.0784   -0.7398   -0.5746 C   0  0  0  0  0  0  0  0  0  0  0  0
   -0.0836   -1.2415    0.2963 C   0  0  0  0  0  0  0  0  0  0  0  0
    0.0346    0.0005   -1.3583 C   0  0  0  0  0  0  0  0  0  0  0  0
   -0.0567    0.3446   -2.5087 O   0  0  0  0  0  0  0  0  0  0  0  0
   -2.4448   -0.9834   -0.7444 H   0  0  0  0  0  0  0  0  0  0  0  0
   -2.7016    0.8370   -0.6388 H   0  0  0  0  0  0  0  0  0  0  0  0
   -2.6266   -0.1495    0.8307 H   0  0  0  0  0  0  0  0  0  0  0  0
   -0.8554    1.8747    1.2040 H   0  0  0  0  0  0  0  0  0  0  0  0
    1.6242    2.2895    0.9143 H   0  0  0  0  0  0  0  0  0  0  0  0
    2.9007    0.3735   -0.0981 H   0  0  0  0  0  0  0  0  0  0  0  0
    2.0702   -0.4132    1.2675 H   0  0  0  0  0  0  0  0  0  0  0  0
    1.5984   -1.5309   -1.1317 H   0  0  0  0  0  0  0  0  0  0  0  0
    0.1982   -1.3331    1.3474 H   0  0  0  0  0  0  0  0  0  0  0  0
   -0.6215   -2.0775   -0.1570 H   0  0  0  0  0  0  0  0  0  0  0  0
  1  2  1  0
  2  3  1  0
  3  4  2  0
  4  5  1  0
  5  6  1  0
  6  7  1  0
  6  8  1  0
  8  9  2  0
  7  2  1  0
  8  2  1  0
  1 10  1  0
  1 11  1  0
  1 12  1  0
  3 13  1  0
  4 14  1  0
  5 15  1  0
  5 16  1  0
  6 17  1  0
  7 18  1  0
  7 19  1  0
M  END
