
     RDKit          3D

 21 23  0  0  0  0  0  0  0  0999 V2000
   -1.5424    1.3961   -0.5695 C   0  0  0  0  0  0  0  0  0  0  0  0
   -1.0002    0.2554    0.2236 C   0  0  0  0  0  0  0  0  0  0  0  0
   -1.6282   -0.1877    1.3712 O   0  0  0  0  0  0  0  0  0  0  0  0
   -1.6570   -1.4762    0.8246 C   0  0  0  0  0  0  0  0  0  0  0  0
   -0.7689   -1.0818   -0.3200 C   0  0  0  0  0  0  0  0  0  0  0  0
    0.3440   -0.2065   -0.0552 C   0  0  0  0  0  0  0  0  0  0  0  0
    1.4076   -0.4223    0.9562 C   0  0  0  0  0  0  0  0  0  0  0  0
    2.3172    0.4535    0.0818 C   0  0  0  0  0  0  0  0  0  0  0  0
    1.2781    0.3670   -1.0375 C   0  0  0  0  0  0  0  0  0  0  0  0
   -0.7320    2.1601   -0.6987 H   0  0  0  0  0  0  0  0  0  0  0  0
   -1.9947    1.1141   -1.5329 H   0  0  0  0  0  0  0  0  0  0  0  0
   -2.3083    1.9133    0.0736 H   0  0  0  0  0  0  0  0  0  0  0  0
   -1.2536   -2.2664    1.4998 H   0  0  0  0  0  0  0  0  0  0  0  0
   -2.6924   -1.7623    0.5372 H   0  0  0  0  0  0  0  0  0  0  0  0
   -1.0502   -1.3951   -1.3405 H   0  0  0  0  0  0  0  0  0  0  0  0
    1.7639   -1.4538    1.0887 H   0  0  0  0  0  0  0  0  0  0  0  0
    1.1865    0.0823    1.9154 H   0  0  0  0  0  0  0  0  0  0  0  0
    2.4086    1.4936    0.4232 H   0  0  0  0  0  0  0  0  0  0  0  0
    3.2657   -0.0583   -0.1294 H   0  0  0  0  0  0  0  0  0  0  0  0
    1.6626   -0.2821   -1.8473 H   0  0  0  0  0  0  0  0  0  0  0  0
    0.9940    1.3570   -1.4644 H   0  0  0  0  0  0  0  0  0  0  0  0
  1  2  1  0
  2  3  1  0
  3  4  1  0
  4  5  1  0
  5  6  1  0
  6  7  1  0
  7  8  1  0
  8  9  1  0
  5  2  1  0
  9  6  1  0
  6  2  1  0
  1 10  1  0
  1 11  1  0
  1 12  1  0
  4 13  1  0
  4 14  1  0
  5 15  1  0
  7 16  1  0
  7 17  1  0
  8 18  1  0
  8 19  1  0
  9 20  1  0
  9 21  1  0
M  END
