
     RDKit          3D

 19 21  0  0  0  0  0  0  0  0999 V2000
    2.3060    0.1122    0.1562 C   0  0  0  0  0  0  0  0  0  0  0  0
    0.8688   -0.0217   -0.2111 C   0  0  0  0  0  0  0  0  0  0  0  0
    0.4789   -0.8541   -1.2556 O   0  0  0  0  0  0  0  0  0  0  0  0
   -0.7687   -1.3545   -0.9785 C   0  0  0  0  0  0  0  0  0  0  0  0
   -1.4214   -0.3396   -0.0301 C   0  0  0  0  0  0  0  0  0  0  0  0
   -1.4359    1.0701   -0.6004 C   0  0  0  0  0  0  0  0  0  0  0  0
   -0.0147    1.2114   -0.1063 C   0  0  0  0  0  0  0  0  0  0  0  0
   -0.2152    0.0646    0.7629 C   0  0  0  0  0  0  0  0  0  0  0  0
   -0.1260    0.0103    2.0946 O   0  0  0  0  0  0  0  0  0  0  0  0
    2.3721    0.0576    1.2745 H   0  0  0  0  0  0  0  0  0  0  0  0
    2.9365   -0.6642   -0.3170 H   0  0  0  0  0  0  0  0  0  0  0  0
    2.6339    1.1402   -0.1068 H   0  0  0  0  0  0  0  0  0  0  0  0
   -1.3855   -1.5559   -1.8548 H   0  0  0  0  0  0  0  0  0  0  0  0
   -0.6126   -2.2780   -0.3474 H   0  0  0  0  0  0  0  0  0  0  0  0
   -2.3027   -0.6732    0.4918 H   0  0  0  0  0  0  0  0  0  0  0  0
   -2.1594    1.6758    0.0191 H   0  0  0  0  0  0  0  0  0  0  0  0
   -1.5915    1.1496   -1.6767 H   0  0  0  0  0  0  0  0  0  0  0  0
    0.3760    2.1527    0.2580 H   0  0  0  0  0  0  0  0  0  0  0  0
    0.0614   -0.9032    2.4276 H   0  0  0  0  0  0  0  0  0  0  0  0
  1  2  1  0
  2  3  1  0
  3  4  1  0
  4  5  1  0
  5  6  1  0
  6  7  1  0
  7  8  1  0
  8  9  1  0
  7  2  1  0
  8  2  1  0
  8  5  1  0
  1 10  1  0
  1 11  1  0
  1 12  1  0
  4 13  1  0
  4 14  1  0
  5 15  1  0
  6 16  1  0
  6 17  1  0
  7 18  1  0
  9 19  1  0
M  END
