
     RDKit          3D

 18 20  0  0  0  0  0  0  0  0999 V2000
    1.9455    0.0934   -0.4051 C   0  0  0  0  0  0  0  0  0  0  0  0
    0.5506    0.3819   -0.0786 C   0  0  0  0  0  0  0  0  0  0  0  0
    0.1107    1.6855   -0.0424 O   0  0  0  0  0  0  0  0  0  0  0  0
   -1.2560    1.5349    0.3000 C   0  0  0  0  0  0  0  0  0  0  0  0
   -1.3626    0.0628    0.4311 C   0  0  0  0  0  0  0  0  0  0  0  0
   -0.0843   -0.3359    1.0829 C   0  0  0  0  0  0  0  0  0  0  0  0
   -0.1136   -1.5511    0.1970 C   0  0  0  0  0  0  0  0  0  0  0  0
   -0.5305   -0.4484   -0.7136 C   0  0  0  0  0  0  0  0  0  0  0  0
    2.5773   -0.0032    0.5029 H   0  0  0  0  0  0  0  0  0  0  0  0
    2.3871    0.9491   -0.9792 H   0  0  0  0  0  0  0  0  0  0  0  0
    2.1101   -0.8228   -0.9997 H   0  0  0  0  0  0  0  0  0  0  0  0
   -1.4450    1.9809    1.3184 H   0  0  0  0  0  0  0  0  0  0  0  0
   -1.9103    1.9602   -0.4734 H   0  0  0  0  0  0  0  0  0  0  0  0
   -2.2777   -0.4168    0.6750 H   0  0  0  0  0  0  0  0  0  0  0  0
    0.1789   -0.2856    2.0444 H   0  0  0  0  0  0  0  0  0  0  0  0
   -0.9310   -2.2492    0.4868 H   0  0  0  0  0  0  0  0  0  0  0  0
    0.8336   -2.0514    0.0120 H   0  0  0  0  0  0  0  0  0  0  0  0
   -0.7829   -0.4843   -1.6794 H   0  0  0  0  0  0  0  0  0  0  0  0
  1  2  1  0
  2  3  1  0
  3  4  1  0
  4  5  1  0
  5  6  1  0
  6  7  1  0
  7  8  1  0
  6  2  1  0
  8  2  1  0
  8  5  1  0
  1  9  1  0
  1 10  1  0
  1 11  1  0
  4 12  1  0
  4 13  1  0
  5 14  1  0
  6 15  1  0
  7 16  1  0
  7 17  1  0
  8 18  1  0
M  END
