
     RDKit          3D

 17 19  0  0  0  0  0  0  0  0999 V2000
    2.3302    0.0882    0.1458 C   0  0  0  0  0  0  0  0  0  0  0  0
    0.8545    0.1395    0.2290 C   0  0  0  0  0  0  0  0  0  0  0  0
    0.1773    1.2991    0.5825 O   0  0  0  0  0  0  0  0  0  0  0  0
   -0.8485    1.0683   -0.3653 C   0  0  0  0  0  0  0  0  0  0  0  0
   -2.0127    0.2895    0.2033 C   0  0  0  0  0  0  0  0  0  0  0  0
   -1.3345   -0.9186    0.7379 C   0  0  0  0  0  0  0  0  0  0  0  0
   -1.7770   -1.6718    1.5756 O   0  0  0  0  0  0  0  0  0  0  0  0
   -0.0090   -1.0664    0.0790 C   0  0  0  0  0  0  0  0  0  0  0  0
   -0.0043   -0.0124   -0.9358 C   0  0  0  0  0  0  0  0  0  0  0  0
    2.6928   -0.8234    0.6800 H   0  0  0  0  0  0  0  0  0  0  0  0
    2.7424    0.0642   -0.8847 H   0  0  0  0  0  0  0  0  0  0  0  0
    2.7984    0.9463    0.6717 H   0  0  0  0  0  0  0  0  0  0  0  0
   -1.0843    1.9318   -0.9775 H   0  0  0  0  0  0  0  0  0  0  0  0
   -2.6512   -0.0384   -0.6304 H   0  0  0  0  0  0  0  0  0  0  0  0
   -2.5666    0.8548    0.9751 H   0  0  0  0  0  0  0  0  0  0  0  0
    0.4069   -2.0545   -0.1239 H   0  0  0  0  0  0  0  0  0  0  0  0
    0.2854   -0.0963   -1.9624 H   0  0  0  0  0  0  0  0  0  0  0  0
  1  2  1  0
  2  3  1  0
  3  4  1  0
  4  5  1  0
  5  6  1  0
  6  7  2  0
  6  8  1  0
  8  9  1  0
  8  2  1  0
  9  2  1  0
  9  4  1  0
  1 10  1  0
  1 11  1  0
  1 12  1  0
  4 13  1  0
  5 14  1  0
  5 15  1  0
  8 16  1  0
  9 17  1  0
M  END
