
     RDKit          3D

 19 21  0  0  0  0  0  0  0  0999 V2000
    2.1965   -0.7799    0.0490 C   0  0  0  0  0  0  0  0  0  0  0  0
    1.0748   -0.0064    0.6417 C   0  0  0  0  0  0  0  0  0  0  0  0
    0.7322   -0.0845    1.9590 O   0  0  0  0  0  0  0  0  0  0  0  0
   -0.0628   -0.8881    1.1841 C   0  0  0  0  0  0  0  0  0  0  0  0
   -0.9034   -0.3395    0.0822 C   0  0  0  0  0  0  0  0  0  0  0  0
   -2.3683   -0.4030    0.0659 C   0  0  0  0  0  0  0  0  0  0  0  0
   -0.3445   -0.4714   -1.2717 O   0  0  0  0  0  0  0  0  0  0  0  0
    0.0438    0.5023   -0.3744 C   0  0  0  0  0  0  0  0  0  0  0  0
    0.0531    1.9427   -0.7399 C   0  0  0  0  0  0  0  0  0  0  0  0
    1.9581   -1.8651   -0.0756 H   0  0  0  0  0  0  0  0  0  0  0  0
    3.1373   -0.7255    0.6216 H   0  0  0  0  0  0  0  0  0  0  0  0
    2.4067   -0.3960   -0.9655 H   0  0  0  0  0  0  0  0  0  0  0  0
    0.1108   -1.9652    1.2777 H   0  0  0  0  0  0  0  0  0  0  0  0
   -2.6780   -1.4877    0.0001 H   0  0  0  0  0  0  0  0  0  0  0  0
   -2.7574    0.0665   -0.8470 H   0  0  0  0  0  0  0  0  0  0  0  0
   -2.8811    0.0074    0.9311 H   0  0  0  0  0  0  0  0  0  0  0  0
   -0.0881    2.5935    0.1600 H   0  0  0  0  0  0  0  0  0  0  0  0
    1.0535    2.1787   -1.1767 H   0  0  0  0  0  0  0  0  0  0  0  0
   -0.6832    2.1213   -1.5219 H   0  0  0  0  0  0  0  0  0  0  0  0
  1  2  1  0
  2  3  1  0
  3  4  1  0
  4  5  1  0
  5  6  1  0
  5  7  1  0
  7  8  1  0
  8  9  1  0
  4  2  1  0
  8  5  1  0
  8  2  1  0
  1 10  1  0
  1 11  1  0
  1 12  1  0
  4 13  1  0
  6 14  1  0
  6 15  1  0
  6 16  1  0
  9 17  1  0
  9 18  1  0
  9 19  1  0
M  END
