
     RDKit          3D

 17 19  0  0  0  0  0  0  0  0999 V2000
   -1.5839   -0.9245    0.0532 C   0  0  0  0  0  0  0  0  0  0  0  0
   -0.3641   -0.3229   -0.3671 C   0  0  0  0  0  0  0  0  0  0  0  0
    0.9383   -0.9494   -0.6728 C   0  0  0  0  0  0  0  0  0  0  0  0
    1.7149   -0.5796    0.5710 C   0  0  0  0  0  0  0  0  0  0  0  0
    1.2101    0.5361    1.0768 C   0  0  0  0  0  0  0  0  0  0  0  0
    0.0767    1.0222    0.2547 C   0  0  0  0  0  0  0  0  0  0  0  0
   -0.9029    1.8112    0.7842 O   0  0  0  0  0  0  0  0  0  0  0  0
    0.0242    0.7408   -1.2012 C   0  0  0  0  0  0  0  0  0  0  0  0
    1.1176   -0.0114   -1.6918 O   0  0  0  0  0  0  0  0  0  0  0  0
   -1.4002   -1.7112    0.8458 H   0  0  0  0  0  0  0  0  0  0  0  0
   -2.1378   -1.4624   -0.7471 H   0  0  0  0  0  0  0  0  0  0  0  0
   -2.2426   -0.1776    0.5818 H   0  0  0  0  0  0  0  0  0  0  0  0
    0.9798   -1.9914   -0.9550 H   0  0  0  0  0  0  0  0  0  0  0  0
    2.5432   -1.1120    0.9994 H   0  0  0  0  0  0  0  0  0  0  0  0
    1.5589    1.0383    1.9621 H   0  0  0  0  0  0  0  0  0  0  0  0
   -0.9980    2.6994    0.3619 H   0  0  0  0  0  0  0  0  0  0  0  0
   -0.5343    1.3943   -1.8560 H   0  0  0  0  0  0  0  0  0  0  0  0
  1  2  1  0
  2  3  1  0
  3  4  1  0
  4  5  2  0
  5  6  1  0
  6  7  1  0
  6  8  1  0
  8  9  1  0
  6  2  1  0
  8  2  1  0
  9  3  1  0
  1 10  1  0
  1 11  1  0
  1 12  1  0
  3 13  1  0
  4 14  1  0
  5 15  1  0
  7 16  1  0
  8 17  1  0
M  END
