
     RDKit          3D

 17 18  0  0  0  0  0  0  0  0999 V2000
   -1.6766   -1.1352   -0.1615 C   0  0  0  0  0  0  0  0  0  0  0  0
   -0.4874   -0.3007    0.0175 C   0  0  0  0  0  0  0  0  0  0  0  0
   -0.7323    1.1657    0.0673 C   0  0  0  0  0  0  0  0  0  0  0  0
    0.2956    1.6685    0.7497 C   0  0  0  0  0  0  0  0  0  0  0  0
    1.1742    0.5003    1.0444 C   0  0  0  0  0  0  0  0  0  0  0  0
    0.1660   -0.4766    1.2634 O   0  0  0  0  0  0  0  0  0  0  0  0
    1.7856   -0.0556   -0.1826 C   0  0  0  0  0  0  0  0  0  0  0  0
    2.9469   -0.0841   -0.4616 O   0  0  0  0  0  0  0  0  0  0  0  0
    0.6375   -0.5597   -0.9695 C   0  0  0  0  0  0  0  0  0  0  0  0
   -1.9852   -1.7110    0.7567 H   0  0  0  0  0  0  0  0  0  0  0  0
   -2.5392   -0.5750   -0.5880 H   0  0  0  0  0  0  0  0  0  0  0  0
   -1.4593   -1.9389   -0.9251 H   0  0  0  0  0  0  0  0  0  0  0  0
   -1.5822    1.7160   -0.3677 H   0  0  0  0  0  0  0  0  0  0  0  0
    0.4280    2.7163    1.0151 H   0  0  0  0  0  0  0  0  0  0  0  0
    1.8325    0.6266    1.8818 H   0  0  0  0  0  0  0  0  0  0  0  0
    0.4772    0.0520   -1.8846 H   0  0  0  0  0  0  0  0  0  0  0  0
    0.7189   -1.6086   -1.2555 H   0  0  0  0  0  0  0  0  0  0  0  0
  1  2  1  0
  2  3  1  0
  3  4  2  0
  4  5  1  0
  5  6  1  0
  5  7  1  0
  7  8  2  0
  7  9  1  0
  6  2  1  0
  9  2  1  0
  1 10  1  0
  1 11  1  0
  1 12  1  0
  3 13  1  0
  4 14  1  0
  5 15  1  0
  9 16  1  0
  9 17  1  0
M  END
