
     RDKit          3D

 19 21  0  0  0  0  0  0  0  0999 V2000
   -2.2294    0.2696    0.1441 C   0  0  0  0  0  0  0  0  0  0  0  0
   -0.7516    0.1729    0.2441 C   0  0  0  0  0  0  0  0  0  0  0  0
   -0.2265   -1.2599    0.4017 C   0  0  0  0  0  0  0  0  0  0  0  0
    0.9015   -0.8528   -0.5130 C   0  0  0  0  0  0  0  0  0  0  0  0
    1.9059   -0.0151    0.2729 C   0  0  0  0  0  0  0  0  0  0  0  0
    1.1105    1.2929    0.3803 C   0  0  0  0  0  0  0  0  0  0  0  0
    0.6911    1.4062   -0.9680 O   0  0  0  0  0  0  0  0  0  0  0  0
    0.0092    0.2065   -1.0780 C   0  0  0  0  0  0  0  0  0  0  0  0
   -0.0967    1.1103    1.0167 O   0  0  0  0  0  0  0  0  0  0  0  0
   -2.7186   -0.3682    0.8998 H   0  0  0  0  0  0  0  0  0  0  0  0
   -2.5245   -0.1406   -0.8659 H   0  0  0  0  0  0  0  0  0  0  0  0
   -2.5365    1.3129    0.1572 H   0  0  0  0  0  0  0  0  0  0  0  0
    0.0190   -1.4295    1.4493 H   0  0  0  0  0  0  0  0  0  0  0  0
   -0.9302   -2.0006    0.0137 H   0  0  0  0  0  0  0  0  0  0  0  0
    1.3100   -1.5993   -1.1760 H   0  0  0  0  0  0  0  0  0  0  0  0
    2.1439   -0.4380    1.2481 H   0  0  0  0  0  0  0  0  0  0  0  0
    2.7681    0.2003   -0.3715 H   0  0  0  0  0  0  0  0  0  0  0  0
    1.7065    2.1275    0.7129 H   0  0  0  0  0  0  0  0  0  0  0  0
   -0.5518    0.0048   -1.9686 H   0  0  0  0  0  0  0  0  0  0  0  0
  1  2  1  0
  2  3  1  0
  3  4  1  0
  4  5  1  0
  5  6  1  0
  6  7  1  0
  7  8  1  0
  6  9  1  0
  8  2  1  0
  9  2  1  0
  8  4  1  0
  1 10  1  0
  1 11  1  0
  1 12  1  0
  3 13  1  0
  3 14  1  0
  4 15  1  0
  5 16  1  0
  5 17  1  0
  6 18  1  0
  8 19  1  0
M  END
