
     RDKit          3D

 19 21  0  0  0  0  0  0  0  0999 V2000
    2.0880   -0.1814   -0.0409 C   0  0  0  0  0  0  0  0  0  0  0  0
    0.6135   -0.2064   -0.2606 C   0  0  0  0  0  0  0  0  0  0  0  0
   -0.1735   -1.4710    0.0333 C   0  0  0  0  0  0  0  0  0  0  0  0
   -1.5732   -1.0203    0.4053 C   0  0  0  0  0  0  0  0  0  0  0  0
   -1.5730    0.5019    0.2149 C   0  0  0  0  0  0  0  0  0  0  0  0
   -1.4450    0.7763   -1.1376 O   0  0  0  0  0  0  0  0  0  0  0  0
   -0.0635    0.7614   -1.1527 C   0  0  0  0  0  0  0  0  0  0  0  0
   -0.1536    0.8418    0.4063 C   0  0  0  0  0  0  0  0  0  0  0  0
    0.3196    1.9880    0.9261 O   0  0  0  0  0  0  0  0  0  0  0  0
    2.6159   -1.0973   -0.2949 H   0  0  0  0  0  0  0  0  0  0  0  0
    2.2455    0.0118    1.0613 H   0  0  0  0  0  0  0  0  0  0  0  0
    2.4885    0.7320   -0.5512 H   0  0  0  0  0  0  0  0  0  0  0  0
    0.3208   -2.0469    0.8176 H   0  0  0  0  0  0  0  0  0  0  0  0
   -0.2202   -2.1435   -0.8675 H   0  0  0  0  0  0  0  0  0  0  0  0
   -1.8387   -1.3004    1.4395 H   0  0  0  0  0  0  0  0  0  0  0  0
   -2.2943   -1.4211   -0.3359 H   0  0  0  0  0  0  0  0  0  0  0  0
   -2.3298    1.0414    0.7722 H   0  0  0  0  0  0  0  0  0  0  0  0
    0.5008    1.5439   -1.6554 H   0  0  0  0  0  0  0  0  0  0  0  0
    0.4724    2.6898    0.2203 H   0  0  0  0  0  0  0  0  0  0  0  0
  1  2  1  0
  2  3  1  0
  3  4  1  0
  4  5  1  0
  5  6  1  0
  6  7  1  0
  7  8  1  0
  8  9  1  0
  7  2  1  0
  8  2  1  0
  8  5  1  0
  1 10  1  0
  1 11  1  0
  1 12  1  0
  3 13  1  0
  3 14  1  0
  4 15  1  0
  4 16  1  0
  5 17  1  0
  7 18  1  0
  9 19  1  0
M  END
