
     RDKit          3D

 21 22  0  0  0  0  0  0  0  0999 V2000
    1.5921    1.0418   -0.1288 C   0  0  0  0  0  0  0  0  0  0  0  0
    0.6865   -0.0776    0.1416 C   0  0  0  0  0  0  0  0  0  0  0  0
    0.6854   -1.2272   -0.8409 C   0  0  0  0  0  0  0  0  0  0  0  0
   -0.7698   -0.9114   -1.1395 C   0  0  0  0  0  0  0  0  0  0  0  0
   -0.7572    0.0356    0.0386 C   0  0  0  0  0  0  0  0  0  0  0  0
   -1.4452    1.2946   -0.2316 C   0  0  0  0  0  0  0  0  0  0  0  0
   -0.9243   -0.5901    1.3584 C   0  0  0  0  0  0  0  0  0  0  0  0
   -1.8702   -0.9645    2.0167 O   0  0  0  0  0  0  0  0  0  0  0  0
    0.5512   -0.5710    1.5464 C   0  0  0  0  0  0  0  0  0  0  0  0
    2.4686    1.0870    0.5821 H   0  0  0  0  0  0  0  0  0  0  0  0
    1.1716    2.0422   -0.1577 H   0  0  0  0  0  0  0  0  0  0  0  0
    2.0783    0.8741   -1.1348 H   0  0  0  0  0  0  0  0  0  0  0  0
    0.7646   -2.2337   -0.3587 H   0  0  0  0  0  0  0  0  0  0  0  0
    1.3696   -1.0870   -1.6928 H   0  0  0  0  0  0  0  0  0  0  0  0
   -1.4683   -1.7368   -1.0075 H   0  0  0  0  0  0  0  0  0  0  0  0
   -0.8317   -0.3424   -2.0768 H   0  0  0  0  0  0  0  0  0  0  0  0
   -0.8581    2.2013   -0.2991 H   0  0  0  0  0  0  0  0  0  0  0  0
   -2.0324    1.2198   -1.1932 H   0  0  0  0  0  0  0  0  0  0  0  0
   -2.2402    1.4794    0.5479 H   0  0  0  0  0  0  0  0  0  0  0  0
    0.9165    0.0831    2.3472 H   0  0  0  0  0  0  0  0  0  0  0  0
    0.9130   -1.6174    1.6827 H   0  0  0  0  0  0  0  0  0  0  0  0
  1  2  1  0
  2  3  1  0
  3  4  1  0
  4  5  1  0
  5  6  1  0
  5  7  1  0
  7  8  2  0
  7  9  1  0
  5  2  1  0
  9  2  1  0
  1 10  1  0
  1 11  1  0
  1 12  1  0
  3 13  1  0
  3 14  1  0
  4 15  1  0
  4 16  1  0
  6 17  1  0
  6 18  1  0
  6 19  1  0
  9 20  1  0
  9 21  1  0
M  END
