
     RDKit          3D

 17 19  0  0  0  0  0  0  0  0999 V2000
    2.0573    0.5167   -0.2411 C   0  0  0  0  0  0  0  0  0  0  0  0
    0.6170    0.4998    0.1074 C   0  0  0  0  0  0  0  0  0  0  0  0
   -0.1962    1.5808   -0.0993 O   0  0  0  0  0  0  0  0  0  0  0  0
   -1.5063    1.1893   -0.1029 C   0  0  0  0  0  0  0  0  0  0  0  0
   -1.5410   -0.3178    0.1251 C   0  0  0  0  0  0  0  0  0  0  0  0
   -1.1898   -0.5964    1.4521 O   0  0  0  0  0  0  0  0  0  0  0  0
    0.1813   -0.5201    1.1377 C   0  0  0  0  0  0  0  0  0  0  0  0
   -0.1523   -0.6889   -0.2667 C   0  0  0  0  0  0  0  0  0  0  0  0
    0.1990   -1.6700   -1.0927 O   0  0  0  0  0  0  0  0  0  0  0  0
    2.6824    1.1339    0.4339 H   0  0  0  0  0  0  0  0  0  0  0  0
    2.2500    0.8359   -1.2975 H   0  0  0  0  0  0  0  0  0  0  0  0
    2.4441   -0.5398   -0.1656 H   0  0  0  0  0  0  0  0  0  0  0  0
   -2.1261    1.6841    0.6589 H   0  0  0  0  0  0  0  0  0  0  0  0
   -1.9889    1.3631   -1.0972 H   0  0  0  0  0  0  0  0  0  0  0  0
   -2.3765   -0.8573   -0.2929 H   0  0  0  0  0  0  0  0  0  0  0  0
    0.9057   -1.1022    1.6985 H   0  0  0  0  0  0  0  0  0  0  0  0
   -0.2597   -2.5109   -0.9576 H   0  0  0  0  0  0  0  0  0  0  0  0
  1  2  1  0
  2  3  1  0
  3  4  1  0
  4  5  1  0
  5  6  1  0
  6  7  1  0
  7  8  1  0
  8  9  1  0
  7  2  1  0
  8  2  1  0
  8  5  1  0
  1 10  1  0
  1 11  1  0
  1 12  1  0
  4 13  1  0
  4 14  1  0
  5 15  1  0
  7 16  1  0
  9 17  1  0
M  END
