
     RDKit          3D

 15 17  0  0  0  0  0  0  0  0999 V2000
    2.0119    0.2058    0.0674 C   0  0  0  0  0  0  0  0  0  0  0  0
    0.5391   -0.0519    0.1017 C   0  0  0  0  0  0  0  0  0  0  0  0
    0.1385   -0.7695    1.3638 O   0  0  0  0  0  0  0  0  0  0  0  0
   -0.1603   -1.2200    0.0067 C   0  0  0  0  0  0  0  0  0  0  0  0
   -1.5748   -0.9347   -0.3200 C   0  0  0  0  0  0  0  0  0  0  0  0
   -2.4747   -1.6800   -0.6197 O   0  0  0  0  0  0  0  0  0  0  0  0
   -1.7313    0.5402   -0.2131 C   0  0  0  0  0  0  0  0  0  0  0  0
   -1.1386    1.2587   -1.2207 O   0  0  0  0  0  0  0  0  0  0  0  0
   -0.3467    1.1221   -0.1065 C   0  0  0  0  0  0  0  0  0  0  0  0
    2.4068   -0.1390   -0.9050 H   0  0  0  0  0  0  0  0  0  0  0  0
    2.2742    1.2868    0.1962 H   0  0  0  0  0  0  0  0  0  0  0  0
    2.5599   -0.3886    0.8523 H   0  0  0  0  0  0  0  0  0  0  0  0
    0.1555   -2.2503   -0.1978 H   0  0  0  0  0  0  0  0  0  0  0  0
   -2.4581    0.9785    0.4765 H   0  0  0  0  0  0  0  0  0  0  0  0
   -0.2015    2.0419    0.5180 H   0  0  0  0  0  0  0  0  0  0  0  0
  1  2  1  0
  2  3  1  0
  3  4  1  0
  4  5  1  0
  5  6  2  0
  5  7  1  0
  7  8  1  0
  8  9  1  0
  4  2  1  0
  9  7  1  0
  9  2  1  0
  1 10  1  0
  1 11  1  0
  1 12  1  0
  4 13  1  0
  7 14  1  0
  9 15  1  0
M  END
