
     RDKit          3D

 18 19  0  0  0  0  0  0  0  0999 V2000
   -1.6680   -0.7328   -0.4495 C   0  0  0  0  0  0  0  0  0  0  0  0
   -0.4649   -0.0021    0.0309 C   0  0  0  0  0  0  0  0  0  0  0  0
    0.1664   -0.4823    1.3007 C   0  0  0  0  0  0  0  0  0  0  0  0
    1.3714    0.2606    1.2988 O   0  0  0  0  0  0  0  0  0  0  0  0
    1.8789   -0.0909    0.0448 C   0  0  0  0  0  0  0  0  0  0  0  0
    0.7050    0.0695   -0.9147 C   0  0  0  0  0  0  0  0  0  0  0  0
    0.3544    1.3661   -1.2054 O   0  0  0  0  0  0  0  0  0  0  0  0
   -0.5092    1.4886   -0.1052 C   0  0  0  0  0  0  0  0  0  0  0  0
   -1.3626   -1.7007   -0.8943 H   0  0  0  0  0  0  0  0  0  0  0  0
   -2.1107   -0.1196   -1.2868 H   0  0  0  0  0  0  0  0  0  0  0  0
   -2.3936   -0.8272    0.3533 H   0  0  0  0  0  0  0  0  0  0  0  0
    0.4383   -1.5546    1.1923 H   0  0  0  0  0  0  0  0  0  0  0  0
   -0.4402   -0.2707    2.1965 H   0  0  0  0  0  0  0  0  0  0  0  0
    2.7520    0.4941   -0.2477 H   0  0  0  0  0  0  0  0  0  0  0  0
    2.1017   -1.1888    0.0860 H   0  0  0  0  0  0  0  0  0  0  0  0
    0.6979   -0.6171   -1.7658 H   0  0  0  0  0  0  0  0  0  0  0  0
   -1.5193    1.8506   -0.3377 H   0  0  0  0  0  0  0  0  0  0  0  0
    0.0025    2.0574    0.7039 H   0  0  0  0  0  0  0  0  0  0  0  0
  1  2  1  0
  2  3  1  0
  3  4  1  0
  4  5  1  0
  5  6  1  0
  6  7  1  0
  7  8  1  0
  6  2  1  0
  8  2  1  0
  1  9  1  0
  1 10  1  0
  1 11  1  0
  3 12  1  0
  3 13  1  0
  5 14  1  0
  5 15  1  0
  6 16  1  0
  8 17  1  0
  8 18  1  0
M  END
