
     RDKit          3D

 19 20  0  0  0  0  0  0  0  0999 V2000
   -0.4010    1.7421    0.6514 C   0  0  0  0  0  0  0  0  0  0  0  0
   -0.3580    0.4610   -0.1400 C   0  0  0  0  0  0  0  0  0  0  0  0
    0.7232    0.5774   -1.1264 C   0  0  0  0  0  0  0  0  0  0  0  0
    1.7704   -0.0879   -0.7241 C   0  0  0  0  0  0  0  0  0  0  0  0
    1.4844   -0.7176    0.5800 C   0  0  0  0  0  0  0  0  0  0  0  0
   -0.0317   -0.7371    0.6674 C   0  0  0  0  0  0  0  0  0  0  0  0
   -0.6040   -1.7645   -0.0468 O   0  0  0  0  0  0  0  0  0  0  0  0
   -1.7710   -1.2166   -0.5786 C   0  0  0  0  0  0  0  0  0  0  0  0
   -1.5864    0.1457   -0.7045 O   0  0  0  0  0  0  0  0  0  0  0  0
    0.2941    2.5125    0.2574 H   0  0  0  0  0  0  0  0  0  0  0  0
   -1.4245    2.1662    0.5242 H   0  0  0  0  0  0  0  0  0  0  0  0
   -0.1979    1.6072    1.7151 H   0  0  0  0  0  0  0  0  0  0  0  0
    0.6503    1.1493   -2.0718 H   0  0  0  0  0  0  0  0  0  0  0  0
    2.7383   -0.2072   -1.2160 H   0  0  0  0  0  0  0  0  0  0  0  0
    1.8355   -1.7783    0.6212 H   0  0  0  0  0  0  0  0  0  0  0  0
    1.9228   -0.1186    1.3742 H   0  0  0  0  0  0  0  0  0  0  0  0
   -0.3698   -0.7304    1.7022 H   0  0  0  0  0  0  0  0  0  0  0  0
   -2.6461   -1.3702    0.0865 H   0  0  0  0  0  0  0  0  0  0  0  0
   -2.0287   -1.6333   -1.5715 H   0  0  0  0  0  0  0  0  0  0  0  0
  1  2  1  0
  2  3  1  0
  3  4  2  0
  4  5  1  0
  5  6  1  0
  6  7  1  0
  7  8  1  0
  8  9  1  0
  6  2  1  0
  9  2  1  0
  1 10  1  0
  1 11  1  0
  1 12  1  0
  3 13  1  0
  4 14  1  0
  5 15  1  0
  5 16  1  0
  6 17  1  0
  8 18  1  0
  8 19  1  0
M  END
