
     RDKit          3D

 21 23  0  0  0  0  0  0  0  0999 V2000
    2.3605   -0.8255    0.2210 C   0  0  0  0  0  0  0  0  0  0  0  0
    0.9088   -0.5098    0.1455 C   0  0  0  0  0  0  0  0  0  0  0  0
    0.2284   -0.3733    1.3120 O   0  0  0  0  0  0  0  0  0  0  0  0
   -0.7807    0.5521    1.1619 C   0  0  0  0  0  0  0  0  0  0  0  0
   -1.9501   -0.0545    0.3782 C   0  0  0  0  0  0  0  0  0  0  0  0
   -1.3749   -0.8504   -0.7393 C   0  0  0  0  0  0  0  0  0  0  0  0
    0.0642   -0.6167   -1.0160 C   0  0  0  0  0  0  0  0  0  0  0  0
    0.5988    0.7108   -0.7224 C   0  0  0  0  0  0  0  0  0  0  0  0
   -0.1473    1.5662    0.2323 C   0  0  0  0  0  0  0  0  0  0  0  0
    2.8473   -0.0192    0.8382 H   0  0  0  0  0  0  0  0  0  0  0  0
    2.5534   -1.7690    0.7460 H   0  0  0  0  0  0  0  0  0  0  0  0
    2.8644   -0.7703   -0.7730 H   0  0  0  0  0  0  0  0  0  0  0  0
   -1.0878    0.9628    2.1219 H   0  0  0  0  0  0  0  0  0  0  0  0
   -2.5209    0.8050   -0.0777 H   0  0  0  0  0  0  0  0  0  0  0  0
   -2.6500   -0.5900    1.0243 H   0  0  0  0  0  0  0  0  0  0  0  0
   -1.4987   -1.9355   -0.4765 H   0  0  0  0  0  0  0  0  0  0  0  0
   -1.9709   -0.7047   -1.6612 H   0  0  0  0  0  0  0  0  0  0  0  0
    0.4063   -1.0625   -1.9937 H   0  0  0  0  0  0  0  0  0  0  0  0
    1.3987    1.1297   -1.3542 H   0  0  0  0  0  0  0  0  0  0  0  0
   -0.8656    2.2445   -0.2296 H   0  0  0  0  0  0  0  0  0  0  0  0
    0.6161    2.1103    0.8625 H   0  0  0  0  0  0  0  0  0  0  0  0
  1  2  1  0
  2  3  1  0
  3  4  1  0
  4  5  1  0
  5  6  1  0
  6  7  1  0
  7  8  1  0
  8  9  1  0
  7  2  1  0
  8  2  1  0
  9  4  1  0
  1 10  1  0
  1 11  1  0
  1 12  1  0
  4 13  1  0
  5 14  1  0
  5 15  1  0
  6 16  1  0
  6 17  1  0
  7 18  1  0
  8 19  1  0
  9 20  1  0
  9 21  1  0
M  END
