
     RDKit          3D

 19 20  0  0  0  0  0  0  0  0999 V2000
   -2.4991    0.1838    0.1311 C   0  0  0  0  0  0  0  0  0  0  0  0
   -1.0890   -0.1044    0.0609 C   0  0  0  0  0  0  0  0  0  0  0  0
   -0.6041   -1.5123    0.0751 C   0  0  0  0  0  0  0  0  0  0  0  0
    0.7369   -1.3095    0.0614 C   0  0  0  0  0  0  0  0  0  0  0  0
    0.7781    0.1901    0.0649 C   0  0  0  0  0  0  0  0  0  0  0  0
    2.0501    0.8604    0.1631 C   0  0  0  0  0  0  0  0  0  0  0  0
    2.8828    0.4325   -0.8760 O   0  0  0  0  0  0  0  0  0  0  0  0
   -0.2196    0.5726   -0.9726 C   0  0  0  0  0  0  0  0  0  0  0  0
   -0.2189    0.4681    1.0154 O   0  0  0  0  0  0  0  0  0  0  0  0
   -2.7344    1.1222   -0.4320 H   0  0  0  0  0  0  0  0  0  0  0  0
   -2.8822    0.3312    1.1640 H   0  0  0  0  0  0  0  0  0  0  0  0
   -3.0994   -0.6357   -0.3054 H   0  0  0  0  0  0  0  0  0  0  0  0
   -1.1575   -2.4405    0.0916 H   0  0  0  0  0  0  0  0  0  0  0  0
    1.5393   -2.0355    0.0511 H   0  0  0  0  0  0  0  0  0  0  0  0
    1.9001    1.9622   -0.0348 H   0  0  0  0  0  0  0  0  0  0  0  0
    2.5938    0.7518    1.1022 H   0  0  0  0  0  0  0  0  0  0  0  0
    2.6081   -0.4923   -1.1288 H   0  0  0  0  0  0  0  0  0  0  0  0
   -0.4531    1.6361   -1.0542 H   0  0  0  0  0  0  0  0  0  0  0  0
   -0.1316    0.0191   -1.9288 H   0  0  0  0  0  0  0  0  0  0  0  0
  1  2  1  0
  2  3  1  0
  3  4  2  0
  4  5  1  0
  5  6  1  0
  6  7  1  0
  5  8  1  0
  5  9  1  0
  8  2  1  0
  9  2  1  0
  1 10  1  0
  1 11  1  0
  1 12  1  0
  3 13  1  0
  4 14  1  0
  6 15  1  0
  6 16  1  0
  7 17  1  0
  8 18  1  0
  8 19  1  0
M  END
