
     RDKit          3D

 17 18  0  0  0  0  0  0  0  0999 V2000
    0.4758    1.5271    0.1110 C   0  0  0  0  0  0  0  0  0  0  0  0
    0.4503   -0.0036    0.1915 C   0  0  0  0  0  0  0  0  0  0  0  0
   -0.9129   -0.4035    0.6807 C   0  0  0  0  0  0  0  0  0  0  0  0
   -1.3962    0.3814    1.6919 O   0  0  0  0  0  0  0  0  0  0  0  0
   -1.2985    0.1275   -0.6890 C   0  0  0  0  0  0  0  0  0  0  0  0
   -2.0893    0.8561   -1.2076 O   0  0  0  0  0  0  0  0  0  0  0  0
   -0.1580   -0.7464   -1.0697 C   0  0  0  0  0  0  0  0  0  0  0  0
    1.2392   -0.6055   -0.8419 C   0  0  0  0  0  0  0  0  0  0  0  0
    2.0513   -1.6979   -0.4505 O   0  0  0  0  0  0  0  0  0  0  0  0
    1.5368    1.8959    0.1170 H   0  0  0  0  0  0  0  0  0  0  0  0
   -0.1050    1.9390   -0.7048 H   0  0  0  0  0  0  0  0  0  0  0  0
    0.0587    1.9132    1.0644 H   0  0  0  0  0  0  0  0  0  0  0  0
   -1.1032   -1.4731    0.8034 H   0  0  0  0  0  0  0  0  0  0  0  0
   -2.0894   -0.0743    2.2486 H   0  0  0  0  0  0  0  0  0  0  0  0
   -0.5214   -1.8032   -0.8434 H   0  0  0  0  0  0  0  0  0  0  0  0
    1.8072   -0.0135   -1.6222 H   0  0  0  0  0  0  0  0  0  0  0  0
    2.0546   -1.8191    0.5206 H   0  0  0  0  0  0  0  0  0  0  0  0
  1  2  1  0
  2  3  1  0
  3  4  1  0
  3  5  1  0
  5  6  2  0
  5  7  1  0
  7  8  1  0
  8  9  1  0
  7  2  1  0
  8  2  1  0
  1 10  1  0
  1 11  1  0
  1 12  1  0
  3 13  1  0
  4 14  1  0
  7 15  1  0
  8 16  1  0
  9 17  1  0
M  END
