
     RDKit          3D

 18 19  0  0  0  0  0  0  0  0999 V2000
   -2.0194   -0.4400   -0.3241 C   0  0  0  0  0  0  0  0  0  0  0  0
   -0.9579    0.4621    0.1656 C   0  0  0  0  0  0  0  0  0  0  0  0
   -0.2380    0.1402    1.4126 C   0  0  0  0  0  0  0  0  0  0  0  0
    0.4675    0.2408    0.0929 C   0  0  0  0  0  0  0  0  0  0  0  0
    1.1386   -0.9375   -0.5004 C   0  0  0  0  0  0  0  0  0  0  0  0
    2.5317   -0.7713   -0.3725 O   0  0  0  0  0  0  0  0  0  0  0  0
    0.6016    1.6131   -0.4709 C   0  0  0  0  0  0  0  0  0  0  0  0
   -0.8003    1.7403   -0.3725 O   0  0  0  0  0  0  0  0  0  0  0  0
   -2.4628   -0.0153   -1.2590 H   0  0  0  0  0  0  0  0  0  0  0  0
   -2.8699   -0.4232    0.4194 H   0  0  0  0  0  0  0  0  0  0  0  0
   -1.7409   -1.4891   -0.4470 H   0  0  0  0  0  0  0  0  0  0  0  0
   -0.3299   -0.8943    1.8002 H   0  0  0  0  0  0  0  0  0  0  0  0
   -0.0788    0.9834    2.1082 H   0  0  0  0  0  0  0  0  0  0  0  0
    0.9257   -1.1177   -1.5602 H   0  0  0  0  0  0  0  0  0  0  0  0
    0.8934   -1.8303    0.1164 H   0  0  0  0  0  0  0  0  0  0  0  0
    2.9003   -1.2812    0.3836 H   0  0  0  0  0  0  0  0  0  0  0  0
    1.0479    2.2992    0.2908 H   0  0  0  0  0  0  0  0  0  0  0  0
    0.9910    1.7209   -1.4831 H   0  0  0  0  0  0  0  0  0  0  0  0
  1  2  1  0
  2  3  1  0
  3  4  1  0
  4  5  1  0
  5  6  1  0
  4  7  1  0
  7  8  1  0
  4  2  1  0
  8  2  1  0
  1  9  1  0
  1 10  1  0
  1 11  1  0
  3 12  1  0
  3 13  1  0
  5 14  1  0
  5 15  1  0
  6 16  1  0
  7 17  1  0
  7 18  1  0
M  END
