
     RDKit          3D

 21 22  0  0  0  0  0  0  0  0999 V2000
   -1.9074   -1.3139    0.0458 C   0  0  0  0  0  0  0  0  0  0  0  0
   -0.8835   -0.4031    0.0035 C   0  0  0  0  0  0  0  0  0  0  0  0
   -0.1125    0.1608    1.1649 C   0  0  0  0  0  0  0  0  0  0  0  0
    0.4972    0.8205   -0.0400 C   0  0  0  0  0  0  0  0  0  0  0  0
    1.5154    1.7301   -0.0790 C   0  0  0  0  0  0  0  0  0  0  0  0
   -0.9174    0.9977   -0.5256 C   0  0  0  0  0  0  0  0  0  0  0  0
    0.4364   -0.5314   -0.6917 C   0  0  0  0  0  0  0  0  0  0  0  0
    1.3368   -1.5629   -0.1263 C   0  0  0  0  0  0  0  0  0  0  0  0
    2.4913   -1.6512   -0.4339 O   0  0  0  0  0  0  0  0  0  0  0  0
   -1.9337   -1.9925   -0.8448 H   0  0  0  0  0  0  0  0  0  0  0  0
   -1.8765   -1.9686    0.9637 H   0  0  0  0  0  0  0  0  0  0  0  0
   -2.9235   -0.8271    0.1031 H   0  0  0  0  0  0  0  0  0  0  0  0
   -0.6742    0.9064    1.7655 H   0  0  0  0  0  0  0  0  0  0  0  0
    0.5327   -0.5333    1.7138 H   0  0  0  0  0  0  0  0  0  0  0  0
    2.4020    1.4163   -0.6705 H   0  0  0  0  0  0  0  0  0  0  0  0
    1.9274    1.9973    0.9341 H   0  0  0  0  0  0  0  0  0  0  0  0
    1.2194    2.7253   -0.5166 H   0  0  0  0  0  0  0  0  0  0  0  0
   -1.4549    1.7445    0.0576 H   0  0  0  0  0  0  0  0  0  0  0  0
   -1.0215    1.0336   -1.6260 H   0  0  0  0  0  0  0  0  0  0  0  0
    0.4136   -0.4865   -1.7897 H   0  0  0  0  0  0  0  0  0  0  0  0
    0.9327   -2.2618    0.5921 H   0  0  0  0  0  0  0  0  0  0  0  0
  1  2  1  0
  2  3  1  0
  3  4  1  0
  4  5  1  0
  4  6  1  0
  4  7  1  0
  7  8  1  0
  8  9  2  0
  6  2  1  0
  7  2  1  0
  1 10  1  0
  1 11  1  0
  1 12  1  0
  3 13  1  0
  3 14  1  0
  5 15  1  0
  5 16  1  0
  5 17  1  0
  6 18  1  0
  6 19  1  0
  7 20  1  0
  8 21  1  0
M  END
