
     RDKit          3D

 17 18  0  0  0  0  0  0  0  0999 V2000
   -1.9774    0.6250    0.0242 C   0  0  0  0  0  0  0  0  0  0  0  0
   -0.5914    0.2996    0.0616 C   0  0  0  0  0  0  0  0  0  0  0  0
    0.4506    1.3478    0.2952 C   0  0  0  0  0  0  0  0  0  0  0  0
    1.5850    0.6578    0.1892 C   0  0  0  0  0  0  0  0  0  0  0  0
    1.1001   -0.7360   -0.0444 C   0  0  0  0  0  0  0  0  0  0  0  0
    1.9448   -1.7330   -0.1885 O   0  0  0  0  0  0  0  0  0  0  0  0
    0.0443   -0.4671   -1.1138 C   0  0  0  0  0  0  0  0  0  0  0  0
   -0.0579   -0.8151    0.8712 C   0  0  0  0  0  0  0  0  0  0  0  0
   -0.4119   -1.4566    1.8115 O   0  0  0  0  0  0  0  0  0  0  0  0
   -2.1907    1.6564    0.4163 H   0  0  0  0  0  0  0  0  0  0  0  0
   -2.3743    0.6231   -1.0332 H   0  0  0  0  0  0  0  0  0  0  0  0
   -2.6278   -0.0519    0.6077 H   0  0  0  0  0  0  0  0  0  0  0  0
    0.2717    2.3950    0.4965 H   0  0  0  0  0  0  0  0  0  0  0  0
    2.6215    0.9396    0.2430 H   0  0  0  0  0  0  0  0  0  0  0  0
    2.2709   -2.0896    0.6537 H   0  0  0  0  0  0  0  0  0  0  0  0
    0.4531    0.1677   -1.8945 H   0  0  0  0  0  0  0  0  0  0  0  0
   -0.5106   -1.3625   -1.3958 H   0  0  0  0  0  0  0  0  0  0  0  0
  1  2  1  0
  2  3  1  0
  3  4  2  0
  4  5  1  0
  5  6  1  0
  5  7  1  0
  5  8  1  0
  8  9  2  0
  7  2  1  0
  8  2  1  0
  1 10  1  0
  1 11  1  0
  1 12  1  0
  3 13  1  0
  4 14  1  0
  6 15  1  0
  7 16  1  0
  7 17  1  0
M  END
