
     RDKit          3D

 19 21  0  0  0  0  0  0  0  0999 V2000
   -1.1593   -0.0058    1.6622 C   0  0  0  0  0  0  0  0  0  0  0  0
   -0.7670    0.2728    0.2566 C   0  0  0  0  0  0  0  0  0  0  0  0
   -1.6721    0.7459   -0.6734 O   0  0  0  0  0  0  0  0  0  0  0  0
   -1.4402   -0.2939   -1.5914 C   0  0  0  0  0  0  0  0  0  0  0  0
   -0.3751   -0.8345   -0.6820 C   0  0  0  0  0  0  0  0  0  0  0  0
    0.6023    0.0780   -0.1492 C   0  0  0  0  0  0  0  0  0  0  0  0
    1.7433   -0.2526    0.7200 C   0  0  0  0  0  0  0  0  0  0  0  0
    2.5590    0.5222   -0.1306 O   0  0  0  0  0  0  0  0  0  0  0  0
    1.4615    1.0114   -0.8790 C   0  0  0  0  0  0  0  0  0  0  0  0
   -2.2364    0.1089    1.8560 H   0  0  0  0  0  0  0  0  0  0  0  0
   -0.8207   -0.9962    2.0466 H   0  0  0  0  0  0  0  0  0  0  0  0
   -0.6442    0.7483    2.3142 H   0  0  0  0  0  0  0  0  0  0  0  0
   -2.2771   -1.0210   -1.6616 H   0  0  0  0  0  0  0  0  0  0  0  0
   -1.1046    0.0669   -2.5766 H   0  0  0  0  0  0  0  0  0  0  0  0
   -0.4006   -1.8838   -0.3404 H   0  0  0  0  0  0  0  0  0  0  0  0
    1.6167    0.1851    1.7397 H   0  0  0  0  0  0  0  0  0  0  0  0
    1.9930   -1.3366    0.7031 H   0  0  0  0  0  0  0  0  0  0  0  0
    1.5441    0.7811   -1.9635 H   0  0  0  0  0  0  0  0  0  0  0  0
    1.3774    2.1039   -0.6507 H   0  0  0  0  0  0  0  0  0  0  0  0
  1  2  1  0
  2  3  1  0
  3  4  1  0
  4  5  1  0
  5  6  1  0
  6  7  1  0
  7  8  1  0
  8  9  1  0
  5  2  1  0
  9  6  1  0
  6  2  1  0
  1 10  1  0
  1 11  1  0
  1 12  1  0
  4 13  1  0
  4 14  1  0
  5 15  1  0
  7 16  1  0
  7 17  1  0
  9 18  1  0
  9 19  1  0
M  END
