
     RDKit          3D

 18 20  0  0  0  0  0  0  0  0999 V2000
   -2.0919   -0.0759    0.2486 C   0  0  0  0  0  0  0  0  0  0  0  0
   -0.6674   -0.1890    0.0168 C   0  0  0  0  0  0  0  0  0  0  0  0
   -0.0642    0.8984   -0.8848 C   0  0  0  0  0  0  0  0  0  0  0  0
    1.3675    0.3740   -0.8620 C   0  0  0  0  0  0  0  0  0  0  0  0
    1.5609   -0.2350    0.5158 C   0  0  0  0  0  0  0  0  0  0  0  0
    0.2260   -0.0473    1.2341 C   0  0  0  0  0  0  0  0  0  0  0  0
    1.2098   -1.0555   -0.6398 C   0  0  0  0  0  0  0  0  0  0  0  0
   -0.1806   -1.3242   -0.5682 O   0  0  0  0  0  0  0  0  0  0  0  0
   -2.6620   -0.5709   -0.5587 H   0  0  0  0  0  0  0  0  0  0  0  0
   -2.3801   -0.5495    1.2034 H   0  0  0  0  0  0  0  0  0  0  0  0
   -2.3642    1.0124    0.3278 H   0  0  0  0  0  0  0  0  0  0  0  0
   -0.1520    1.8800   -0.3704 H   0  0  0  0  0  0  0  0  0  0  0  0
   -0.5032    0.8943   -1.8853 H   0  0  0  0  0  0  0  0  0  0  0  0
    2.1584    0.8775   -1.3776 H   0  0  0  0  0  0  0  0  0  0  0  0
    2.4908   -0.1930    1.0358 H   0  0  0  0  0  0  0  0  0  0  0  0
    0.0458   -0.8384    1.9661 H   0  0  0  0  0  0  0  0  0  0  0  0
    0.1539    0.9756    1.6560 H   0  0  0  0  0  0  0  0  0  0  0  0
    1.8527   -1.8336   -1.0577 H   0  0  0  0  0  0  0  0  0  0  0  0
  1  2  1  0
  2  3  1  0
  3  4  1  0
  4  5  1  0
  5  6  1  0
  5  7  1  0
  7  8  1  0
  6  2  1  0
  8  2  1  0
  7  4  1  0
  1  9  1  0
  1 10  1  0
  1 11  1  0
  3 12  1  0
  3 13  1  0
  4 14  1  0
  5 15  1  0
  6 16  1  0
  6 17  1  0
  7 18  1  0
M  END
