
     RDKit          3D

 19 20  0  0  0  0  0  0  0  0999 V2000
   -2.4307    0.0405   -0.4376 C   0  0  0  0  0  0  0  0  0  0  0  0
   -1.0434    0.0374    0.0060 C   0  0  0  0  0  0  0  0  0  0  0  0
   -0.6295   -1.1520    0.8125 C   0  0  0  0  0  0  0  0  0  0  0  0
    0.7044   -1.2154    0.6436 C   0  0  0  0  0  0  0  0  0  0  0  0
    1.0401   -0.0450   -0.1850 C   0  0  0  0  0  0  0  0  0  0  0  0
    2.3246   -0.0801   -0.8811 C   0  0  0  0  0  0  0  0  0  0  0  0
    0.7683    1.1784    0.6133 C   0  0  0  0  0  0  0  0  0  0  0  0
   -0.5789    1.2821    0.6839 C   0  0  0  0  0  0  0  0  0  0  0  0
   -0.0901   -0.0397   -1.0415 O   0  0  0  0  0  0  0  0  0  0  0  0
   -2.8308   -1.0044   -0.4377 H   0  0  0  0  0  0  0  0  0  0  0  0
   -3.0802    0.6002    0.2748 H   0  0  0  0  0  0  0  0  0  0  0  0
   -2.5579    0.4239   -1.4822 H   0  0  0  0  0  0  0  0  0  0  0  0
   -1.2763   -1.7989    1.3920 H   0  0  0  0  0  0  0  0  0  0  0  0
    1.3149   -2.0037    1.0694 H   0  0  0  0  0  0  0  0  0  0  0  0
    3.1054   -0.4990   -0.2246 H   0  0  0  0  0  0  0  0  0  0  0  0
    2.6413    0.9617   -1.1207 H   0  0  0  0  0  0  0  0  0  0  0  0
    2.2409   -0.6021   -1.8526 H   0  0  0  0  0  0  0  0  0  0  0  0
    1.5014    1.8345    1.0396 H   0  0  0  0  0  0  0  0  0  0  0  0
   -1.1238    2.0817    1.1279 H   0  0  0  0  0  0  0  0  0  0  0  0
  1  2  1  0
  2  3  1  0
  3  4  2  0
  4  5  1  0
  5  6  1  0
  5  7  1  0
  7  8  2  0
  5  9  1  0
  8  2  1  0
  9  2  1  0
  1 10  1  0
  1 11  1  0
  1 12  1  0
  3 13  1  0
  4 14  1  0
  6 15  1  0
  6 16  1  0
  6 17  1  0
  7 18  1  0
  8 19  1  0
M  END
