
     RDKit          3D

 19 21  0  0  0  0  0  0  0  0999 V2000
   -1.1429   -1.2816    0.0301 C   0  0  0  0  0  0  0  0  0  0  0  0
   -0.9371    0.1192   -0.5705 C   0  0  0  0  0  0  0  0  0  0  0  0
    0.1835    0.1196   -1.3725 O   0  0  0  0  0  0  0  0  0  0  0  0
    0.8487   -0.0196   -0.1780 C   0  0  0  0  0  0  0  0  0  0  0  0
    1.4102   -1.1056    0.4848 C   0  0  0  0  0  0  0  0  0  0  0  0
    2.2849    0.0862   -0.0130 C   0  0  0  0  0  0  0  0  0  0  0  0
   -0.0509    1.0747    0.3137 C   0  0  0  0  0  0  0  0  0  0  0  0
   -1.4995    1.1498    0.2155 C   0  0  0  0  0  0  0  0  0  0  0  0
   -2.1952    2.1753   -0.4700 O   0  0  0  0  0  0  0  0  0  0  0  0
   -2.2564   -1.4533   -0.0876 H   0  0  0  0  0  0  0  0  0  0  0  0
   -0.6652   -2.0714   -0.5327 H   0  0  0  0  0  0  0  0  0  0  0  0
   -0.9781   -1.2849    1.1180 H   0  0  0  0  0  0  0  0  0  0  0  0
    1.3657   -1.1961    1.5968 H   0  0  0  0  0  0  0  0  0  0  0  0
    1.6718   -2.0376   -0.0071 H   0  0  0  0  0  0  0  0  0  0  0  0
    2.9605   -0.0903   -0.8476 H   0  0  0  0  0  0  0  0  0  0  0  0
    2.6706    0.7589    0.7823 H   0  0  0  0  0  0  0  0  0  0  0  0
    0.3767    1.9891   -0.2048 H   0  0  0  0  0  0  0  0  0  0  0  0
   -2.0351    0.9444    1.1881 H   0  0  0  0  0  0  0  0  0  0  0  0
   -2.0123    2.1232   -1.4455 H   0  0  0  0  0  0  0  0  0  0  0  0
  1  2  1  0
  2  3  1  0
  3  4  1  0
  4  5  1  0
  5  6  1  0
  4  7  1  0
  7  8  1  0
  8  9  1  0
  7  2  1  0
  8  2  1  0
  6  4  1  0
  1 10  1  0
  1 11  1  0
  1 12  1  0
  5 13  1  0
  5 14  1  0
  6 15  1  0
  6 16  1  0
  7 17  1  0
  8 18  1  0
  9 19  1  0
M  END
