
     RDKit          3D

 19 21  0  0  0  0  0  0  0  0999 V2000
   -1.0245    1.5329   -0.0689 C   0  0  0  0  0  0  0  0  0  0  0  0
   -0.5038    0.2170    0.0648 C   0  0  0  0  0  0  0  0  0  0  0  0
   -0.6200   -0.5557    1.3688 C   0  0  0  0  0  0  0  0  0  0  0  0
   -0.0036   -1.7670    0.9646 O   0  0  0  0  0  0  0  0  0  0  0  0
    0.3868   -1.5163   -0.3380 C   0  0  0  0  0  0  0  0  0  0  0  0
   -0.9035   -0.8907   -0.9134 C   0  0  0  0  0  0  0  0  0  0  0  0
    0.9081   -0.1326   -0.3349 C   0  0  0  0  0  0  0  0  0  0  0  0
    2.0452    0.4648    0.0397 C   0  0  0  0  0  0  0  0  0  0  0  0
    1.5476    0.4648   -1.3657 O   0  0  0  0  0  0  0  0  0  0  0  0
   -1.7822    1.7594    0.7386 H   0  0  0  0  0  0  0  0  0  0  0  0
   -0.2276    2.3163    0.0958 H   0  0  0  0  0  0  0  0  0  0  0  0
   -1.5273    1.7905   -1.0149 H   0  0  0  0  0  0  0  0  0  0  0  0
   -0.0444   -0.0797    2.1790 H   0  0  0  0  0  0  0  0  0  0  0  0
   -1.6727   -0.7014    1.6159 H   0  0  0  0  0  0  0  0  0  0  0  0
    0.8357   -2.2858   -0.9151 H   0  0  0  0  0  0  0  0  0  0  0  0
   -1.7750   -1.4843   -0.6010 H   0  0  0  0  0  0  0  0  0  0  0  0
   -0.8104   -0.6272   -1.9672 H   0  0  0  0  0  0  0  0  0  0  0  0
    2.1179    1.5255    0.3746 H   0  0  0  0  0  0  0  0  0  0  0  0
    3.0536   -0.0304    0.0772 H   0  0  0  0  0  0  0  0  0  0  0  0
  1  2  1  0
  2  3  1  0
  3  4  1  0
  4  5  1  0
  5  6  1  0
  5  7  1  0
  7  8  1  0
  8  9  1  0
  6  2  1  0
  9  7  1  0
  7  2  1  0
  1 10  1  0
  1 11  1  0
  1 12  1  0
  3 13  1  0
  3 14  1  0
  5 15  1  0
  6 16  1  0
  6 17  1  0
  8 18  1  0
  8 19  1  0
M  END
