
     RDKit          3D

 16 18  0  0  0  0  0  0  0  0999 V2000
    1.7642   -0.1708    0.3908 C   0  0  0  0  0  0  0  0  0  0  0  0
    0.3286    0.0230    0.3324 C   0  0  0  0  0  0  0  0  0  0  0  0
   -0.3443    1.0458   -0.5993 C   0  0  0  0  0  0  0  0  0  0  0  0
   -0.9069    2.1042    0.1012 O   0  0  0  0  0  0  0  0  0  0  0  0
   -1.4131   -0.0473   -0.7610 C   0  0  0  0  0  0  0  0  0  0  0  0
   -1.9948   -0.3952    0.4637 O   0  0  0  0  0  0  0  0  0  0  0  0
   -0.7189   -0.8907    0.8506 C   0  0  0  0  0  0  0  0  0  0  0  0
   -0.3978   -1.0410   -0.5215 C   0  0  0  0  0  0  0  0  0  0  0  0
    2.1280   -1.1320   -0.0704 H   0  0  0  0  0  0  0  0  0  0  0  0
    2.1590   -0.1945    1.4328 H   0  0  0  0  0  0  0  0  0  0  0  0
    2.2889    0.6354   -0.1390 H   0  0  0  0  0  0  0  0  0  0  0  0
    0.2147    1.2701   -1.4926 H   0  0  0  0  0  0  0  0  0  0  0  0
   -0.5733    2.0668    1.0492 H   0  0  0  0  0  0  0  0  0  0  0  0
   -2.0300    0.0047   -1.6231 H   0  0  0  0  0  0  0  0  0  0  0  0
   -0.6171   -1.5463    1.6888 H   0  0  0  0  0  0  0  0  0  0  0  0
    0.1128   -1.7321   -1.1028 H   0  0  0  0  0  0  0  0  0  0  0  0
  1  2  1  0
  2  3  1  0
  3  4  1  0
  3  5  1  0
  5  6  1  0
  6  7  1  0
  7  8  1  0
  7  2  1  0
  8  2  1  0
  8  5  1  0
  1  9  1  0
  1 10  1  0
  1 11  1  0
  3 12  1  0
  4 13  1  0
  5 14  1  0
  7 15  1  0
  8 16  1  0
M  END
