
     RDKit          3D

 19 22  0  0  0  0  0  0  0  0999 V2000
   -2.0582    0.2426   -0.8480 C   0  0  0  0  0  0  0  0  0  0  0  0
   -0.7690    0.3023   -0.1378 C   0  0  0  0  0  0  0  0  0  0  0  0
   -0.3840    1.5302    0.3714 O   0  0  0  0  0  0  0  0  0  0  0  0
    0.9447    1.4934    0.6903 C   0  0  0  0  0  0  0  0  0  0  0  0
    1.5547    0.2616    0.0642 C   0  0  0  0  0  0  0  0  0  0  0  0
    1.0867   -0.9562    0.8538 C   0  0  0  0  0  0  0  0  0  0  0  0
    0.3756   -1.4357   -0.2761 C   0  0  0  0  0  0  0  0  0  0  0  0
    0.4641   -0.1086   -0.9100 C   0  0  0  0  0  0  0  0  0  0  0  0
   -0.4408   -0.8833    0.7672 C   0  0  0  0  0  0  0  0  0  0  0  0
   -2.8233    0.7811   -0.2513 H   0  0  0  0  0  0  0  0  0  0  0  0
   -2.4019   -0.8325   -0.8754 H   0  0  0  0  0  0  0  0  0  0  0  0
   -2.0394    0.5863   -1.9028 H   0  0  0  0  0  0  0  0  0  0  0  0
    1.0076    1.3318    1.8055 H   0  0  0  0  0  0  0  0  0  0  0  0
    1.5090    2.4078    0.4888 H   0  0  0  0  0  0  0  0  0  0  0  0
    2.5670    0.2876   -0.2680 H   0  0  0  0  0  0  0  0  0  0  0  0
    1.6052   -1.3892    1.6507 H   0  0  0  0  0  0  0  0  0  0  0  0
    0.3383   -2.3822   -0.7580 H   0  0  0  0  0  0  0  0  0  0  0  0
    0.5537    0.0623   -1.9353 H   0  0  0  0  0  0  0  0  0  0  0  0
   -1.0901   -1.2991    1.4708 H   0  0  0  0  0  0  0  0  0  0  0  0
  1  2  1  0
  2  3  1  0
  3  4  1  0
  4  5  1  0
  5  6  1  0
  6  7  1  0
  7  8  1  0
  7  9  1  0
  8  2  1  0
  9  2  1  0
  8  5  1  0
  9  6  1  0
  1 10  1  0
  1 11  1  0
  1 12  1  0
  4 13  1  0
  4 14  1  0
  5 15  1  0
  6 16  1  0
  7 17  1  0
  8 18  1  0
  9 19  1  0
M  END
