
     RDKit          3D

 21 23  0  0  0  0  0  0  0  0999 V2000
   -0.8499   -1.9375   -0.0669 C   0  0  0  0  0  0  0  0  0  0  0  0
   -0.3834   -0.5287   -0.0224 C   0  0  0  0  0  0  0  0  0  0  0  0
   -0.6485    0.2447    1.2386 C   0  0  0  0  0  0  0  0  0  0  0  0
   -0.8271    1.4666    0.3256 C   0  0  0  0  0  0  0  0  0  0  0  0
   -1.2948    0.4844   -0.7319 C   0  0  0  0  0  0  0  0  0  0  0  0
    0.4194    1.9744    0.0887 O   0  0  0  0  0  0  0  0  0  0  0  0
    1.2948    1.1515   -0.5501 C   0  0  0  0  0  0  0  0  0  0  0  0
    2.1197    0.1475    0.2602 C   0  0  0  0  0  0  0  0  0  0  0  0
    0.9966   -0.2781   -0.5672 C   0  0  0  0  0  0  0  0  0  0  0  0
   -1.3613   -2.2407   -0.9844 H   0  0  0  0  0  0  0  0  0  0  0  0
   -1.4319   -2.1414    0.8573 H   0  0  0  0  0  0  0  0  0  0  0  0
    0.0657   -2.5952    0.0040 H   0  0  0  0  0  0  0  0  0  0  0  0
    0.1584    0.3233    1.9624 H   0  0  0  0  0  0  0  0  0  0  0  0
   -1.6583   -0.0187    1.6337 H   0  0  0  0  0  0  0  0  0  0  0  0
   -1.5480    2.1957    0.6701 H   0  0  0  0  0  0  0  0  0  0  0  0
   -0.9774    0.7103   -1.7619 H   0  0  0  0  0  0  0  0  0  0  0  0
   -2.3434    0.2187   -0.6097 H   0  0  0  0  0  0  0  0  0  0  0  0
    1.8219    1.5729   -1.4514 H   0  0  0  0  0  0  0  0  0  0  0  0
    3.1436   -0.1079   -0.1418 H   0  0  0  0  0  0  0  0  0  0  0  0
    2.1017    0.2109    1.3523 H   0  0  0  0  0  0  0  0  0  0  0  0
    1.2022   -0.8527   -1.5052 H   0  0  0  0  0  0  0  0  0  0  0  0
  1  2  1  0
  2  3  1  0
  3  4  1  0
  4  5  1  0
  4  6  1  0
  6  7  1  0
  7  8  1  0
  8  9  1  0
  5  2  1  0
  9  7  1  0
  9  2  1  0
  1 10  1  0
  1 11  1  0
  1 12  1  0
  3 13  1  0
  3 14  1  0
  4 15  1  0
  5 16  1  0
  5 17  1  0
  7 18  1  0
  8 19  1  0
  8 20  1  0
  9 21  1  0
M  END
