
     RDKit          3D

 17 19  0  0  0  0  0  0  0  0999 V2000
    1.3819   -1.0481    0.7105 C   0  0  0  0  0  0  0  0  0  0  0  0
    0.3922   -0.4187   -0.2019 C   0  0  0  0  0  0  0  0  0  0  0  0
    0.7801    0.8001   -1.0090 C   0  0  0  0  0  0  0  0  0  0  0  0
    1.1153    1.9454   -0.1670 O   0  0  0  0  0  0  0  0  0  0  0  0
   -0.2239    1.5613   -0.5040 C   0  0  0  0  0  0  0  0  0  0  0  0
   -0.7286    0.4469    0.3872 C   0  0  0  0  0  0  0  0  0  0  0  0
   -0.7420    0.7127    1.7261 O   0  0  0  0  0  0  0  0  0  0  0  0
   -1.0082   -0.8921   -0.1767 C   0  0  0  0  0  0  0  0  0  0  0  0
   -1.6193   -1.0604   -1.4061 O   0  0  0  0  0  0  0  0  0  0  0  0
    2.3359   -1.1921    0.1245 H   0  0  0  0  0  0  0  0  0  0  0  0
    1.0262   -2.0959    0.9225 H   0  0  0  0  0  0  0  0  0  0  0  0
    1.5985   -0.4950    1.6247 H   0  0  0  0  0  0  0  0  0  0  0  0
    1.3246    0.7154   -1.9402 H   0  0  0  0  0  0  0  0  0  0  0  0
   -0.8784    2.3492   -0.8515 H   0  0  0  0  0  0  0  0  0  0  0  0
   -1.6723    0.5835    2.0800 H   0  0  0  0  0  0  0  0  0  0  0  0
   -1.2376   -1.6811    0.5509 H   0  0  0  0  0  0  0  0  0  0  0  0
   -1.8447   -0.2310   -1.8700 H   0  0  0  0  0  0  0  0  0  0  0  0
  1  2  1  0
  2  3  1  0
  3  4  1  0
  4  5  1  0
  5  6  1  0
  6  7  1  0
  6  8  1  0
  8  9  1  0
  6  2  1  0
  8  2  1  0
  5  3  1  0
  1 10  1  0
  1 11  1  0
  1 12  1  0
  3 13  1  0
  5 14  1  0
  7 15  1  0
  8 16  1  0
  9 17  1  0
M  END
