
     RDKit          3D

 21 23  0  0  0  0  0  0  0  0999 V2000
    2.0523    0.0137   -0.7368 C   0  0  0  0  0  0  0  0  0  0  0  0
    0.6112   -0.2621   -0.5105 C   0  0  0  0  0  0  0  0  0  0  0  0
    0.0252   -1.4517   -1.1640 C   0  0  0  0  0  0  0  0  0  0  0  0
   -0.9739   -1.9480   -0.4453 C   0  0  0  0  0  0  0  0  0  0  0  0
   -1.1358   -1.0969    0.7856 C   0  0  0  0  0  0  0  0  0  0  0  0
   -1.7181    0.2649    0.3910 C   0  0  0  0  0  0  0  0  0  0  0  0
   -0.2960    0.7115    0.1323 C   0  0  0  0  0  0  0  0  0  0  0  0
    0.0835    2.1313    0.3650 C   0  0  0  0  0  0  0  0  0  0  0  0
    0.1878   -0.4196    0.8955 C   0  0  0  0  0  0  0  0  0  0  0  0
    2.2511    0.1369   -1.8174 H   0  0  0  0  0  0  0  0  0  0  0  0
    2.4018    0.8719   -0.1344 H   0  0  0  0  0  0  0  0  0  0  0  0
    2.6309   -0.8734   -0.3592 H   0  0  0  0  0  0  0  0  0  0  0  0
    0.3573   -1.8715   -2.1027 H   0  0  0  0  0  0  0  0  0  0  0  0
   -1.6158   -2.8036   -0.6257 H   0  0  0  0  0  0  0  0  0  0  0  0
   -1.5688   -1.5718    1.6521 H   0  0  0  0  0  0  0  0  0  0  0  0
   -2.3495    0.2472   -0.5074 H   0  0  0  0  0  0  0  0  0  0  0  0
   -2.2249    0.7921    1.2340 H   0  0  0  0  0  0  0  0  0  0  0  0
   -0.5712    2.5978    1.1372 H   0  0  0  0  0  0  0  0  0  0  0  0
    1.1397    2.2701    0.6500 H   0  0  0  0  0  0  0  0  0  0  0  0
   -0.1079    2.6961   -0.5925 H   0  0  0  0  0  0  0  0  0  0  0  0
    0.8211   -0.4348    1.7533 H   0  0  0  0  0  0  0  0  0  0  0  0
  1  2  1  0
  2  3  1  0
  3  4  2  0
  4  5  1  0
  5  6  1  0
  6  7  1  0
  7  8  1  0
  7  9  1  0
  7  2  1  0
  9  2  1  0
  9  5  1  0
  1 10  1  0
  1 11  1  0
  1 12  1  0
  3 13  1  0
  4 14  1  0
  5 15  1  0
  6 16  1  0
  6 17  1  0
  8 18  1  0
  8 19  1  0
  8 20  1  0
  9 21  1  0
M  END
