
     RDKit          3D

 19 22  0  0  0  0  0  0  0  0999 V2000
    2.3220   -0.0611   -0.6077 C   0  0  0  0  0  0  0  0  0  0  0  0
    0.9119   -0.1235   -0.3487 C   0  0  0  0  0  0  0  0  0  0  0  0
    0.0262    0.9304    0.1630 C   0  0  0  0  0  0  0  0  0  0  0  0
   -1.0027    0.5248   -0.8742 C   0  0  0  0  0  0  0  0  0  0  0  0
   -2.1994    0.3739   -0.0046 C   0  0  0  0  0  0  0  0  0  0  0  0
   -1.8375    0.0933    1.2382 C   0  0  0  0  0  0  0  0  0  0  0  0
   -0.3353    0.0289    1.3195 C   0  0  0  0  0  0  0  0  0  0  0  0
    0.1878   -1.0986    0.4747 C   0  0  0  0  0  0  0  0  0  0  0  0
   -0.1786   -0.7678   -0.9751 C   0  0  0  0  0  0  0  0  0  0  0  0
    2.8910   -0.9629   -0.2956 H   0  0  0  0  0  0  0  0  0  0  0  0
    2.8037    0.7893   -0.0410 H   0  0  0  0  0  0  0  0  0  0  0  0
    2.6106    0.1344   -1.6765 H   0  0  0  0  0  0  0  0  0  0  0  0
    0.2906    1.9296    0.3039 H   0  0  0  0  0  0  0  0  0  0  0  0
   -1.0833    1.1144   -1.7633 H   0  0  0  0  0  0  0  0  0  0  0  0
   -3.2113    0.4806   -0.3506 H   0  0  0  0  0  0  0  0  0  0  0  0
   -2.4883   -0.0700    2.0851 H   0  0  0  0  0  0  0  0  0  0  0  0
    0.1102    0.2177    2.2748 H   0  0  0  0  0  0  0  0  0  0  0  0
    0.4890   -2.0478    0.8019 H   0  0  0  0  0  0  0  0  0  0  0  0
   -0.3067   -1.4857   -1.7237 H   0  0  0  0  0  0  0  0  0  0  0  0
  1  2  1  0
  2  3  1  0
  3  4  1  0
  4  5  1  0
  5  6  2  0
  6  7  1  0
  7  8  1  0
  8  9  1  0
  8  2  1  0
  9  2  1  0
  7  3  1  0
  9  4  1  0
  1 10  1  0
  1 11  1  0
  1 12  1  0
  3 13  1  0
  4 14  1  0
  5 15  1  0
  6 16  1  0
  7 17  1  0
  8 18  1  0
  9 19  1  0
M  END
