
     RDKit          3D

 21 22  0  0  0  0  0  0  0  0999 V2000
   -2.3413    0.0396    0.3097 C   0  0  0  0  0  0  0  0  0  0  0  0
   -0.8473    0.0361    0.2077 C   0  0  0  0  0  0  0  0  0  0  0  0
   -0.3155   -1.3409   -0.0592 C   0  0  0  0  0  0  0  0  0  0  0  0
    1.1695   -1.3742   -0.2971 C   0  0  0  0  0  0  0  0  0  0  0  0
    1.9019   -0.6732    0.6207 O   0  0  0  0  0  0  0  0  0  0  0  0
    1.9366    0.6868    0.4236 C   0  0  0  0  0  0  0  0  0  0  0  0
    0.5782    1.3360    0.4072 C   0  0  0  0  0  0  0  0  0  0  0  0
   -0.2450    0.9856   -0.7831 C   0  0  0  0  0  0  0  0  0  0  0  0
   -0.2417    0.6567    1.2828 O   0  0  0  0  0  0  0  0  0  0  0  0
   -2.7084   -0.9845    0.5426 H   0  0  0  0  0  0  0  0  0  0  0  0
   -2.7264    0.6841    1.1390 H   0  0  0  0  0  0  0  0  0  0  0  0
   -2.7837    0.3327   -0.6780 H   0  0  0  0  0  0  0  0  0  0  0  0
   -0.8034   -1.7025   -0.9971 H   0  0  0  0  0  0  0  0  0  0  0  0
   -0.5988   -2.0154    0.7647 H   0  0  0  0  0  0  0  0  0  0  0  0
    1.4311   -1.1121   -1.3598 H   0  0  0  0  0  0  0  0  0  0  0  0
    1.4782   -2.4576   -0.2084 H   0  0  0  0  0  0  0  0  0  0  0  0
    2.5627    0.9911   -0.4555 H   0  0  0  0  0  0  0  0  0  0  0  0
    2.4787    1.1250    1.3100 H   0  0  0  0  0  0  0  0  0  0  0  0
    0.6996    2.4323    0.6046 H   0  0  0  0  0  0  0  0  0  0  0  0
   -0.9079    1.8044   -1.1344 H   0  0  0  0  0  0  0  0  0  0  0  0
    0.2828    0.5497   -1.6398 H   0  0  0  0  0  0  0  0  0  0  0  0
  1  2  1  0
  2  3  1  0
  3  4  1  0
  4  5  1  0
  5  6  1  0
  6  7  1  0
  7  8  1  0
  7  9  1  0
  8  2  1  0
  9  2  1  0
  1 10  1  0
  1 11  1  0
  1 12  1  0
  3 13  1  0
  3 14  1  0
  4 15  1  0
  4 16  1  0
  6 17  1  0
  6 18  1  0
  7 19  1  0
  8 20  1  0
  8 21  1  0
M  END
