
     RDKit          3D

 16 19  0  0  0  0  0  0  0  0999 V2000
   -1.8505   -0.0769    0.6238 C   0  0  0  0  0  0  0  0  0  0  0  0
   -0.4215    0.1513    0.4536 C   0  0  0  0  0  0  0  0  0  0  0  0
    0.2684    1.3730    0.1109 C   0  0  0  0  0  0  0  0  0  0  0  0
    1.6249    1.1638    0.4109 O   0  0  0  0  0  0  0  0  0  0  0  0
    1.8672   -0.1847    0.1838 C   0  0  0  0  0  0  0  0  0  0  0  0
    0.9967   -0.5893   -0.9248 C   0  0  0  0  0  0  0  0  0  0  0  0
    0.6246   -0.9041    0.4580 C   0  0  0  0  0  0  0  0  0  0  0  0
   -0.0124    0.4730   -1.0154 C   0  0  0  0  0  0  0  0  0  0  0  0
   -2.4279    0.6417   -0.0016 H   0  0  0  0  0  0  0  0  0  0  0  0
   -2.1944   -0.0626    1.6644 H   0  0  0  0  0  0  0  0  0  0  0  0
   -2.1125   -1.0959    0.2131 H   0  0  0  0  0  0  0  0  0  0  0  0
   -0.1201    2.3758    0.0724 H   0  0  0  0  0  0  0  0  0  0  0  0
    2.8699   -0.5590    0.2924 H   0  0  0  0  0  0  0  0  0  0  0  0
    1.1590   -1.3862   -1.6202 H   0  0  0  0  0  0  0  0  0  0  0  0
    0.5076   -1.8984    0.8316 H   0  0  0  0  0  0  0  0  0  0  0  0
   -0.7789    0.5785   -1.7530 H   0  0  0  0  0  0  0  0  0  0  0  0
  1  2  1  0
  2  3  1  0
  3  4  1  0
  4  5  1  0
  5  6  1  0
  6  7  1  0
  6  8  1  0
  7  2  1  0
  8  2  1  0
  8  3  1  0
  7  5  1  0
  1  9  1  0
  1 10  1  0
  1 11  1  0
  3 12  1  0
  5 13  1  0
  6 14  1  0
  7 15  1  0
  8 16  1  0
M  END
