
     RDKit          3D

 21 23  0  0  0  0  0  0  0  0999 V2000
    2.0498    0.3094    0.6108 C   0  0  0  0  0  0  0  0  0  0  0  0
    0.6835    0.0984    0.1373 C   0  0  0  0  0  0  0  0  0  0  0  0
    0.1608    1.0884   -0.8609 C   0  0  0  0  0  0  0  0  0  0  0  0
   -1.3095    0.6582   -0.9615 C   0  0  0  0  0  0  0  0  0  0  0  0
   -1.4501   -0.5526   -1.6588 O   0  0  0  0  0  0  0  0  0  0  0  0
   -1.1587   -1.2038   -0.4707 C   0  0  0  0  0  0  0  0  0  0  0  0
    0.3681   -1.3152   -0.3250 C   0  0  0  0  0  0  0  0  0  0  0  0
   -1.5820   -0.0192    0.3318 C   0  0  0  0  0  0  0  0  0  0  0  0
   -0.3882    0.2232    1.2350 C   0  0  0  0  0  0  0  0  0  0  0  0
    2.6258   -0.6216    0.8182 H   0  0  0  0  0  0  0  0  0  0  0  0
    2.0661    1.0218    1.4619 H   0  0  0  0  0  0  0  0  0  0  0  0
    2.6392    0.8262   -0.2031 H   0  0  0  0  0  0  0  0  0  0  0  0
    0.1325    2.0860   -0.3583 H   0  0  0  0  0  0  0  0  0  0  0  0
    0.6643    1.0856   -1.8241 H   0  0  0  0  0  0  0  0  0  0  0  0
   -1.9937    1.4337   -1.2978 H   0  0  0  0  0  0  0  0  0  0  0  0
   -1.7094   -2.1137   -0.2504 H   0  0  0  0  0  0  0  0  0  0  0  0
    0.8539   -1.5777   -1.2647 H   0  0  0  0  0  0  0  0  0  0  0  0
    0.5355   -2.0412    0.4974 H   0  0  0  0  0  0  0  0  0  0  0  0
   -2.5560    0.0113    0.7676 H   0  0  0  0  0  0  0  0  0  0  0  0
   -0.2601   -0.6136    1.9319 H   0  0  0  0  0  0  0  0  0  0  0  0
   -0.3716    1.2165    1.6831 H   0  0  0  0  0  0  0  0  0  0  0  0
  1  2  1  0
  2  3  1  0
  3  4  1  0
  4  5  1  0
  5  6  1  0
  6  7  1  0
  6  8  1  0
  8  9  1  0
  7  2  1  0
  9  2  1  0
  8  4  1  0
  1 10  1  0
  1 11  1  0
  1 12  1  0
  3 13  1  0
  3 14  1  0
  4 15  1  0
  6 16  1  0
  7 17  1  0
  7 18  1  0
  8 19  1  0
  9 20  1  0
  9 21  1  0
M  END
