
     RDKit          3D

 17 19  0  0  0  0  0  0  0  0999 V2000
   -1.4233   -0.8930    0.5923 C   0  0  0  0  0  0  0  0  0  0  0  0
   -0.4654   -0.1406   -0.2663 C   0  0  0  0  0  0  0  0  0  0  0  0
   -1.0594    0.7902   -1.3087 C   0  0  0  0  0  0  0  0  0  0  0  0
   -0.4111    1.3946   -0.1379 C   0  0  0  0  0  0  0  0  0  0  0  0
    1.0670    1.3299   -0.0773 C   0  0  0  0  0  0  0  0  0  0  0  0
    1.9456    2.1547   -0.1101 O   0  0  0  0  0  0  0  0  0  0  0  0
    0.9784   -0.1151    0.0345 C   0  0  0  0  0  0  0  0  0  0  0  0
    1.9321   -1.0766    0.1515 C   0  0  0  0  0  0  0  0  0  0  0  0
    1.2611   -0.5796    1.3951 O   0  0  0  0  0  0  0  0  0  0  0  0
   -2.1304   -0.2636    1.1588 H   0  0  0  0  0  0  0  0  0  0  0  0
   -2.0250   -1.6448    0.0181 H   0  0  0  0  0  0  0  0  0  0  0  0
   -0.8277   -1.5045    1.3179 H   0  0  0  0  0  0  0  0  0  0  0  0
   -0.4734    0.8562   -2.2686 H   0  0  0  0  0  0  0  0  0  0  0  0
   -2.1522    0.8246   -1.3476 H   0  0  0  0  0  0  0  0  0  0  0  0
   -0.9768    1.8609    0.6871 H   0  0  0  0  0  0  0  0  0  0  0  0
    3.0179   -0.8381    0.1481 H   0  0  0  0  0  0  0  0  0  0  0  0
    1.7426   -2.1553    0.0132 H   0  0  0  0  0  0  0  0  0  0  0  0
  1  2  1  0
  2  3  1  0
  3  4  1  0
  4  5  1  0
  5  6  2  0
  5  7  1  0
  7  8  1  0
  8  9  1  0
  4  2  1  0
  9  7  1  0
  7  2  1  0
  1 10  1  0
  1 11  1  0
  1 12  1  0
  3 13  1  0
  3 14  1  0
  4 15  1  0
  8 16  1  0
  8 17  1  0
M  END
