
     RDKit          3D

 21 22  0  0  0  0  0  0  0  0999 V2000
    2.1385   -0.3892    0.5343 C   0  0  0  0  0  0  0  0  0  0  0  0
    0.7129   -0.3208    0.1608 C   0  0  0  0  0  0  0  0  0  0  0  0
    0.1452   -1.3800   -0.6708 C   0  0  0  0  0  0  0  0  0  0  0  0
   -1.1271   -1.2822   -1.0301 C   0  0  0  0  0  0  0  0  0  0  0  0
   -1.9186   -0.0848   -0.5832 C   0  0  0  0  0  0  0  0  0  0  0  0
   -1.0548    0.7772    0.2895 C   0  0  0  0  0  0  0  0  0  0  0  0
   -0.2782   -0.0767    1.2899 C   0  0  0  0  0  0  0  0  0  0  0  0
    0.2955    1.0633   -0.3605 C   0  0  0  0  0  0  0  0  0  0  0  0
    0.9841    2.0321    0.3636 O   0  0  0  0  0  0  0  0  0  0  0  0
    2.6162    0.6224    0.6008 H   0  0  0  0  0  0  0  0  0  0  0  0
    2.6951   -0.9159   -0.2799 H   0  0  0  0  0  0  0  0  0  0  0  0
    2.3622   -0.9113    1.4735 H   0  0  0  0  0  0  0  0  0  0  0  0
    0.7333   -2.2136   -0.9847 H   0  0  0  0  0  0  0  0  0  0  0  0
   -1.6544   -2.0068   -1.6302 H   0  0  0  0  0  0  0  0  0  0  0  0
   -2.2997    0.4765   -1.4382 H   0  0  0  0  0  0  0  0  0  0  0  0
   -2.7729   -0.4479    0.0087 H   0  0  0  0  0  0  0  0  0  0  0  0
   -1.5326    1.6285    0.7632 H   0  0  0  0  0  0  0  0  0  0  0  0
    0.1129    0.4924    2.1399 H   0  0  0  0  0  0  0  0  0  0  0  0
   -0.8595   -0.9985    1.5385 H   0  0  0  0  0  0  0  0  0  0  0  0
    0.2916    1.1663   -1.4407 H   0  0  0  0  0  0  0  0  0  0  0  0
    0.4104    2.7692    0.6362 H   0  0  0  0  0  0  0  0  0  0  0  0
  1  2  1  0
  2  3  1  0
  3  4  2  0
  4  5  1  0
  5  6  1  0
  6  7  1  0
  6  8  1  0
  8  9  1  0
  7  2  1  0
  8  2  1  0
  1 10  1  0
  1 11  1  0
  1 12  1  0
  3 13  1  0
  4 14  1  0
  5 15  1  0
  5 16  1  0
  6 17  1  0
  7 18  1  0
  7 19  1  0
  8 20  1  0
  9 21  1  0
M  END
