
     RDKit          3D

 19 21  0  0  0  0  0  0  0  0999 V2000
    2.0778   -0.2581    0.5978 C   0  0  0  0  0  0  0  0  0  0  0  0
    0.8581   -0.1860   -0.2566 C   0  0  0  0  0  0  0  0  0  0  0  0
   -0.1325   -1.3088   -0.2156 C   0  0  0  0  0  0  0  0  0  0  0  0
   -1.2365   -0.3229   -0.1743 C   0  0  0  0  0  0  0  0  0  0  0  0
   -2.4991   -0.3824    0.3343 C   0  0  0  0  0  0  0  0  0  0  0  0
   -2.2246   -0.2657   -1.1226 O   0  0  0  0  0  0  0  0  0  0  0  0
   -0.2376    0.7786   -0.0055 C   0  0  0  0  0  0  0  0  0  0  0  0
   -0.2708    1.5817    1.1000 O   0  0  0  0  0  0  0  0  0  0  0  0
    0.6920    0.9823   -1.1351 C   0  0  0  0  0  0  0  0  0  0  0  0
    2.6649    0.6751    0.4855 H   0  0  0  0  0  0  0  0  0  0  0  0
    1.8866   -0.5437    1.6382 H   0  0  0  0  0  0  0  0  0  0  0  0
    2.7342   -1.0647    0.1548 H   0  0  0  0  0  0  0  0  0  0  0  0
   -0.0915   -1.8908    0.7441 H   0  0  0  0  0  0  0  0  0  0  0  0
   -0.0542   -1.9242   -1.1256 H   0  0  0  0  0  0  0  0  0  0  0  0
   -3.0623    0.5126    0.6682 H   0  0  0  0  0  0  0  0  0  0  0  0
   -3.0639   -1.3230    0.5079 H   0  0  0  0  0  0  0  0  0  0  0  0
    0.2717    2.3791    1.0050 H   0  0  0  0  0  0  0  0  0  0  0  0
    0.2725    0.7734   -2.1615 H   0  0  0  0  0  0  0  0  0  0  0  0
    1.4154    1.7874   -1.0391 H   0  0  0  0  0  0  0  0  0  0  0  0
  1  2  1  0
  2  3  1  0
  3  4  1  0
  4  5  1  0
  5  6  1  0
  4  7  1  0
  7  8  1  0
  7  9  1  0
  7  2  1  0
  9  2  1  0
  6  4  1  0
  1 10  1  0
  1 11  1  0
  1 12  1  0
  3 13  1  0
  3 14  1  0
  5 15  1  0
  5 16  1  0
  8 17  1  0
  9 18  1  0
  9 19  1  0
M  END
