
     RDKit          3D

 17 18  0  0  0  0  0  0  0  0999 V2000
   -1.6496    0.0803   -0.6054 C   0  0  0  0  0  0  0  0  0  0  0  0
   -0.9470   -0.0491    0.7537 C   0  0  0  0  0  0  0  0  0  0  0  0
   -0.0976    1.0888    1.0370 C   0  0  0  0  0  0  0  0  0  0  0  0
    1.0194    1.1508    0.2721 C   0  0  0  0  0  0  0  0  0  0  0  0
    1.3161    0.1190   -0.7620 C   0  0  0  0  0  0  0  0  0  0  0  0
    0.6574   -1.2002   -0.4164 C   0  0  0  0  0  0  0  0  0  0  0  0
    0.6834   -2.0921   -1.2288 O   0  0  0  0  0  0  0  0  0  0  0  0
    0.0544   -1.2206    0.9046 C   0  0  0  0  0  0  0  0  0  0  0  0
   -1.1720   -1.1871    1.3505 O   0  0  0  0  0  0  0  0  0  0  0  0
   -1.7190    1.1225   -0.9353 H   0  0  0  0  0  0  0  0  0  0  0  0
   -1.2178   -0.6108   -1.3507 H   0  0  0  0  0  0  0  0  0  0  0  0
   -2.7109   -0.2456   -0.3967 H   0  0  0  0  0  0  0  0  0  0  0  0
   -0.2614    1.8629    1.7703 H   0  0  0  0  0  0  0  0  0  0  0  0
    1.7388    1.9506    0.3817 H   0  0  0  0  0  0  0  0  0  0  0  0
    1.0636    0.4411   -1.7792 H   0  0  0  0  0  0  0  0  0  0  0  0
    2.4043   -0.0847   -0.7105 H   0  0  0  0  0  0  0  0  0  0  0  0
    0.8379   -1.1258    1.7150 H   0  0  0  0  0  0  0  0  0  0  0  0
  1  2  1  0
  2  3  1  0
  3  4  2  0
  4  5  1  0
  5  6  1  0
  6  7  2  0
  6  8  1  0
  8  9  1  0
  8  2  1  0
  9  2  1  0
  1 10  1  0
  1 11  1  0
  1 12  1  0
  3 13  1  0
  4 14  1  0
  5 15  1  0
  5 16  1  0
  8 17  1  0
M  END
