
     RDKit          3D

 23 25  0  0  0  0  0  0  0  0999 V2000
    2.2825   -0.1456   -0.4732 C   0  0  0  0  0  0  0  0  0  0  0  0
    0.8226    0.0233   -0.2153 C   0  0  0  0  0  0  0  0  0  0  0  0
   -0.0398    0.3843   -1.3848 C   0  0  0  0  0  0  0  0  0  0  0  0
   -0.8133    1.2749   -0.4359 C   0  0  0  0  0  0  0  0  0  0  0  0
   -1.7410    0.5151    0.4587 C   0  0  0  0  0  0  0  0  0  0  0  0
   -1.1360   -0.6959    1.0705 C   0  0  0  0  0  0  0  0  0  0  0  0
   -0.8557   -1.9190    0.2450 C   0  0  0  0  0  0  0  0  0  0  0  0
    0.2256   -1.0335    0.6612 C   0  0  0  0  0  0  0  0  0  0  0  0
    0.5096    1.4284    0.3230 C   0  0  0  0  0  0  0  0  0  0  0  0
    2.4880   -1.1245   -0.9308 H   0  0  0  0  0  0  0  0  0  0  0  0
    2.7985   -0.1637    0.5266 H   0  0  0  0  0  0  0  0  0  0  0  0
    2.6982    0.6735   -1.0655 H   0  0  0  0  0  0  0  0  0  0  0  0
   -0.5889   -0.4000   -1.8847 H   0  0  0  0  0  0  0  0  0  0  0  0
    0.5303    1.0100   -2.0981 H   0  0  0  0  0  0  0  0  0  0  0  0
   -1.2318    2.1847   -0.8405 H   0  0  0  0  0  0  0  0  0  0  0  0
   -2.7241    0.3175   -0.0450 H   0  0  0  0  0  0  0  0  0  0  0  0
   -2.0086    1.2130    1.3078 H   0  0  0  0  0  0  0  0  0  0  0  0
   -1.4545   -0.9443    2.1259 H   0  0  0  0  0  0  0  0  0  0  0  0
   -0.9100   -2.9333    0.7362 H   0  0  0  0  0  0  0  0  0  0  0  0
   -1.3306   -1.9187   -0.7421 H   0  0  0  0  0  0  0  0  0  0  0  0
    0.9104   -1.3899    1.4620 H   0  0  0  0  0  0  0  0  0  0  0  0
    1.1514    2.1447   -0.2029 H   0  0  0  0  0  0  0  0  0  0  0  0
    0.4172    1.4988    1.4019 H   0  0  0  0  0  0  0  0  0  0  0  0
  1  2  1  0
  2  3  1  0
  3  4  1  0
  4  5  1  0
  5  6  1  0
  6  7  1  0
  7  8  1  0
  4  9  1  0
  8  2  1  0
  9  2  1  0
  8  6  1  0
  1 10  1  0
  1 11  1  0
  1 12  1  0
  3 13  1  0
  3 14  1  0
  4 15  1  0
  5 16  1  0
  5 17  1  0
  6 18  1  0
  7 19  1  0
  7 20  1  0
  8 21  1  0
  9 22  1  0
  9 23  1  0
M  END
