
     RDKit          3D

 19 21  0  0  0  0  0  0  0  0999 V2000
    2.7191    0.1073    0.2328 C   0  0  0  0  0  0  0  0  0  0  0  0
    1.3171    0.5256    0.0829 C   0  0  0  0  0  0  0  0  0  0  0  0
    0.3478    0.5692    1.2171 C   0  0  0  0  0  0  0  0  0  0  0  0
   -0.8187    0.1270    0.8432 C   0  0  0  0  0  0  0  0  0  0  0  0
   -2.2884   -0.3235    0.7325 C   0  0  0  0  0  0  0  0  0  0  0  0
   -2.0831   -0.1523   -0.7942 C   0  0  0  0  0  0  0  0  0  0  0  0
   -0.6467   -0.5027   -0.5212 C   0  0  0  0  0  0  0  0  0  0  0  0
    0.4764    0.1980   -1.1161 C   0  0  0  0  0  0  0  0  0  0  0  0
    0.9351    1.4632   -0.8846 O   0  0  0  0  0  0  0  0  0  0  0  0
    3.1417   -0.0760   -0.7773 H   0  0  0  0  0  0  0  0  0  0  0  0
    2.7997   -0.8169    0.8198 H   0  0  0  0  0  0  0  0  0  0  0  0
    3.3827    0.8974    0.6833 H   0  0  0  0  0  0  0  0  0  0  0  0
    0.5565    0.9212    2.2430 H   0  0  0  0  0  0  0  0  0  0  0  0
   -2.4632   -1.3278    1.0734 H   0  0  0  0  0  0  0  0  0  0  0  0
   -3.0035    0.4175    1.0892 H   0  0  0  0  0  0  0  0  0  0  0  0
   -2.2933    0.8373   -1.1799 H   0  0  0  0  0  0  0  0  0  0  0  0
   -2.5907   -0.9688   -1.3136 H   0  0  0  0  0  0  0  0  0  0  0  0
   -0.4941   -1.6338   -0.4144 H   0  0  0  0  0  0  0  0  0  0  0  0
    1.0056   -0.2621   -2.0158 H   0  0  0  0  0  0  0  0  0  0  0  0
  1  2  1  0
  2  3  1  0
  3  4  2  0
  4  5  1  0
  5  6  1  0
  6  7  1  0
  7  8  1  0
  8  9  1  0
  8  2  1  0
  9  2  1  0
  7  4  1  0
  1 10  1  0
  1 11  1  0
  1 12  1  0
  3 13  1  0
  5 14  1  0
  5 15  1  0
  6 16  1  0
  6 17  1  0
  7 18  1  0
  8 19  1  0
M  END
