
     RDKit          3D

 18 20  0  0  0  0  0  0  0  0999 V2000
   -2.5422   -0.4196   -0.2727 C   0  0  0  0  0  0  0  0  0  0  0  0
   -1.1904    0.1862   -0.1982 C   0  0  0  0  0  0  0  0  0  0  0  0
   -0.2847   -0.1365    1.0029 C   0  0  0  0  0  0  0  0  0  0  0  0
    0.8565    0.0633    0.0404 C   0  0  0  0  0  0  0  0  0  0  0  0
    2.1001   -0.6320    0.0673 C   0  0  0  0  0  0  0  0  0  0  0  0
    1.9957    0.9125    0.2916 C   0  0  0  0  0  0  0  0  0  0  0  0
   -0.1252    0.1882   -1.0432 C   0  0  0  0  0  0  0  0  0  0  0  0
   -0.9727    1.3977   -0.8551 O   0  0  0  0  0  0  0  0  0  0  0  0
   -3.2812    0.3511    0.0752 H   0  0  0  0  0  0  0  0  0  0  0  0
   -2.5990   -1.3256    0.3479 H   0  0  0  0  0  0  0  0  0  0  0  0
   -2.8639   -0.7018   -1.2984 H   0  0  0  0  0  0  0  0  0  0  0  0
   -0.4749   -1.2158    1.2630 H   0  0  0  0  0  0  0  0  0  0  0  0
   -0.3519    0.5700    1.8285 H   0  0  0  0  0  0  0  0  0  0  0  0
    2.6043   -0.9310   -0.8754 H   0  0  0  0  0  0  0  0  0  0  0  0
    2.4869   -1.1737    0.9464 H   0  0  0  0  0  0  0  0  0  0  0  0
    2.1685    1.2621    1.3272 H   0  0  0  0  0  0  0  0  0  0  0  0
    2.4093    1.5333   -0.5546 H   0  0  0  0  0  0  0  0  0  0  0  0
    0.0649    0.0716   -2.0928 H   0  0  0  0  0  0  0  0  0  0  0  0
  1  2  1  0
  2  3  1  0
  3  4  1  0
  4  5  1  0
  5  6  1  0
  4  7  1  0
  7  8  1  0
  7  2  1  0
  8  2  1  0
  6  4  1  0
  1  9  1  0
  1 10  1  0
  1 11  1  0
  3 12  1  0
  3 13  1  0
  5 14  1  0
  5 15  1  0
  6 16  1  0
  6 17  1  0
  7 18  1  0
M  END
