
     RDKit          3D

 17 18  0  0  0  0  0  0  0  0999 V2000
    2.1323    0.0018   -0.2632 C   0  0  0  0  0  0  0  0  0  0  0  0
    0.6517    0.0586   -0.4252 C   0  0  0  0  0  0  0  0  0  0  0  0
   -0.0590    0.9791    0.5535 C   0  0  0  0  0  0  0  0  0  0  0  0
   -1.4890    0.5615    0.5948 C   0  0  0  0  0  0  0  0  0  0  0  0
   -1.4583   -0.8387    0.0660 C   0  0  0  0  0  0  0  0  0  0  0  0
   -0.2114   -0.9571   -0.7728 C   0  0  0  0  0  0  0  0  0  0  0  0
    0.0720    0.0939   -1.6876 O   0  0  0  0  0  0  0  0  0  0  0  0
    2.6989    0.5173   -1.0549 H   0  0  0  0  0  0  0  0  0  0  0  0
    2.4536    0.4729    0.6993 H   0  0  0  0  0  0  0  0  0  0  0  0
    2.4204   -1.0787   -0.1744 H   0  0  0  0  0  0  0  0  0  0  0  0
    0.4220    0.8992    1.5236 H   0  0  0  0  0  0  0  0  0  0  0  0
    0.0859    2.0137    0.1622 H   0  0  0  0  0  0  0  0  0  0  0  0
   -1.8249    0.6212    1.6635 H   0  0  0  0  0  0  0  0  0  0  0  0
   -2.1395    1.2074   -0.0215 H   0  0  0  0  0  0  0  0  0  0  0  0
   -1.3409   -1.5714    0.9068 H   0  0  0  0  0  0  0  0  0  0  0  0
   -2.3443   -1.0423   -0.5410 H   0  0  0  0  0  0  0  0  0  0  0  0
   -0.0695   -1.9382   -1.2291 H   0  0  0  0  0  0  0  0  0  0  0  0
  1  2  1  0
  2  3  1  0
  3  4  1  0
  4  5  1  0
  5  6  1  0
  6  7  1  0
  6  2  1  0
  7  2  1  0
  1  8  1  0
  1  9  1  0
  1 10  1  0
  3 11  1  0
  3 12  1  0
  4 13  1  0
  4 14  1  0
  5 15  1  0
  5 16  1  0
  6 17  1  0
M  END
