
     RDKit          3D

 16 17  0  0  0  0  0  0  0  0999 V2000
   -1.3631   -1.0944   -0.5217 C   0  0  0  0  0  0  0  0  0  0  0  0
   -0.4707   -0.1805    0.2553 C   0  0  0  0  0  0  0  0  0  0  0  0
    0.6881   -0.8074    0.9287 C   0  0  0  0  0  0  0  0  0  0  0  0
    1.7922   -0.2984    0.4657 C   0  0  0  0  0  0  0  0  0  0  0  0
    1.4809    0.7006   -0.5443 C   0  0  0  0  0  0  0  0  0  0  0  0
    2.3535    1.2253   -1.2691 O   0  0  0  0  0  0  0  0  0  0  0  0
    0.0555    0.9794   -0.5752 C   0  0  0  0  0  0  0  0  0  0  0  0
   -0.7782    1.1895    0.6202 C   0  0  0  0  0  0  0  0  0  0  0  0
   -2.1202   -0.4848   -1.0495 H   0  0  0  0  0  0  0  0  0  0  0  0
   -1.7979   -1.8933    0.0935 H   0  0  0  0  0  0  0  0  0  0  0  0
   -0.7421   -1.5728   -1.3097 H   0  0  0  0  0  0  0  0  0  0  0  0
    0.5753   -1.5616    1.6775 H   0  0  0  0  0  0  0  0  0  0  0  0
    2.7991   -0.6025    0.8105 H   0  0  0  0  0  0  0  0  0  0  0  0
   -0.4257    1.1970   -1.5615 H   0  0  0  0  0  0  0  0  0  0  0  0
   -1.7870    1.5818    0.4784 H   0  0  0  0  0  0  0  0  0  0  0  0
   -0.2595    1.6221    1.5012 H   0  0  0  0  0  0  0  0  0  0  0  0
  1  2  1  0
  2  3  1  0
  3  4  2  0
  4  5  1  0
  5  6  2  0
  5  7  1  0
  7  8  1  0
  7  2  1  0
  8  2  1  0
  1  9  1  0
  1 10  1  0
  1 11  1  0
  3 12  1  0
  4 13  1  0
  7 14  1  0
  8 15  1  0
  8 16  1  0
M  END
