
     RDKit          3D

 14 15  0  0  0  0  0  0  0  0999 V2000
    1.4631   -0.6770   -0.3343 C   0  0  0  0  0  0  0  0  0  0  0  0
    0.2575   -0.1408    0.2952 C   0  0  0  0  0  0  0  0  0  0  0  0
    0.1539    1.3711    0.3642 C   0  0  0  0  0  0  0  0  0  0  0  0
   -0.8323    0.5713   -0.3530 C   0  0  0  0  0  0  0  0  0  0  0  0
   -1.6350   -0.5227    0.2489 C   0  0  0  0  0  0  0  0  0  0  0  0
   -0.5748   -0.8456    1.1154 O   0  0  0  0  0  0  0  0  0  0  0  0
    1.8579   -1.5231    0.2875 H   0  0  0  0  0  0  0  0  0  0  0  0
    2.3238    0.0436   -0.3967 H   0  0  0  0  0  0  0  0  0  0  0  0
    1.3524   -1.0864   -1.3556 H   0  0  0  0  0  0  0  0  0  0  0  0
    0.0407    1.7117    1.4113 H   0  0  0  0  0  0  0  0  0  0  0  0
    0.8670    1.9572   -0.2470 H   0  0  0  0  0  0  0  0  0  0  0  0
   -0.9370    0.6908   -1.4455 H   0  0  0  0  0  0  0  0  0  0  0  0
   -1.8184   -1.3791   -0.4135 H   0  0  0  0  0  0  0  0  0  0  0  0
   -2.5187   -0.1711    0.8231 H   0  0  0  0  0  0  0  0  0  0  0  0
  1  2  1  0
  2  3  1  0
  3  4  1  0
  4  5  1  0
  5  6  1  0
  4  2  1  0
  6  2  1  0
  1  7  1  0
  1  8  1  0
  1  9  1  0
  3 10  1  0
  3 11  1  0
  4 12  1  0
  5 13  1  0
  5 14  1  0
M  END
