
     RDKit          3D

 23 25  0  0  0  0  0  0  0  0999 V2000
   -1.5512   -1.6244    0.7164 C   0  0  0  0  0  0  0  0  0  0  0  0
   -0.8398   -0.4301    0.1867 C   0  0  0  0  0  0  0  0  0  0  0  0
   -1.6442    0.8391    0.0628 C   0  0  0  0  0  0  0  0  0  0  0  0
   -0.5783    1.8656   -0.2852 C   0  0  0  0  0  0  0  0  0  0  0  0
    0.7209    1.3163    0.3156 C   0  0  0  0  0  0  0  0  0  0  0  0
    0.3744    0.0349    0.9219 C   0  0  0  0  0  0  0  0  0  0  0  0
    1.1457    0.0471   -0.3081 C   0  0  0  0  0  0  0  0  0  0  0  0
    2.5581   -0.3801   -0.4247 C   0  0  0  0  0  0  0  0  0  0  0  0
    0.0560   -0.7312   -1.0085 C   0  0  0  0  0  0  0  0  0  0  0  0
   -2.4904   -1.2974    1.2158 H   0  0  0  0  0  0  0  0  0  0  0  0
   -1.8769   -2.2504   -0.1480 H   0  0  0  0  0  0  0  0  0  0  0  0
   -0.8997   -2.2272    1.3800 H   0  0  0  0  0  0  0  0  0  0  0  0
   -2.4386    0.7698   -0.6784 H   0  0  0  0  0  0  0  0  0  0  0  0
   -2.0014    1.1039    1.0816 H   0  0  0  0  0  0  0  0  0  0  0  0
   -0.7664    2.8466    0.1503 H   0  0  0  0  0  0  0  0  0  0  0  0
   -0.5027    1.9681   -1.3860 H   0  0  0  0  0  0  0  0  0  0  0  0
    1.3828    1.9835    0.8617 H   0  0  0  0  0  0  0  0  0  0  0  0
    0.6746   -0.3348    1.8816 H   0  0  0  0  0  0  0  0  0  0  0  0
    2.6596   -1.4784   -0.2691 H   0  0  0  0  0  0  0  0  0  0  0  0
    3.1979    0.2156    0.2231 H   0  0  0  0  0  0  0  0  0  0  0  0
    2.8861   -0.2115   -1.4872 H   0  0  0  0  0  0  0  0  0  0  0  0
    0.2388   -1.8134   -1.0927 H   0  0  0  0  0  0  0  0  0  0  0  0
   -0.3054   -0.2116   -1.9095 H   0  0  0  0  0  0  0  0  0  0  0  0
  1  2  1  0
  2  3  1  0
  3  4  1  0
  4  5  1  0
  5  6  1  0
  6  7  1  0
  7  8  1  0
  7  9  1  0
  6  2  1  0
  9  2  1  0
  7  5  1  0
  1 10  1  0
  1 11  1  0
  1 12  1  0
  3 13  1  0
  3 14  1  0
  4 15  1  0
  4 16  1  0
  5 17  1  0
  6 18  1  0
  8 19  1  0
  8 20  1  0
  8 21  1  0
  9 22  1  0
  9 23  1  0
M  END
