
     RDKit          3D

 17 19  0  0  0  0  0  0  0  0999 V2000
    1.9700   -0.1879   -0.5621 C   0  0  0  0  0  0  0  0  0  0  0  0
    0.6884    0.2047    0.0767 C   0  0  0  0  0  0  0  0  0  0  0  0
    0.4870   -0.1491    1.4871 C   0  0  0  0  0  0  0  0  0  0  0  0
   -0.8144   -0.2360    1.7201 C   0  0  0  0  0  0  0  0  0  0  0  0
   -1.5792    0.0548    0.4703 C   0  0  0  0  0  0  0  0  0  0  0  0
   -1.0203    1.1263   -0.4311 C   0  0  0  0  0  0  0  0  0  0  0  0
    0.2733    1.5225   -0.2354 O   0  0  0  0  0  0  0  0  0  0  0  0
   -0.5782   -0.2553   -0.5613 C   0  0  0  0  0  0  0  0  0  0  0  0
   -0.6923   -1.0739   -1.5998 O   0  0  0  0  0  0  0  0  0  0  0  0
    1.9957    0.2473   -1.5827 H   0  0  0  0  0  0  0  0  0  0  0  0
    2.0732   -1.2778   -0.6641 H   0  0  0  0  0  0  0  0  0  0  0  0
    2.7998    0.2795    0.0056 H   0  0  0  0  0  0  0  0  0  0  0  0
    1.2709   -0.3120    2.2164 H   0  0  0  0  0  0  0  0  0  0  0  0
   -1.2275   -0.4869    2.6997 H   0  0  0  0  0  0  0  0  0  0  0  0
   -2.6284   -0.2304    0.4056 H   0  0  0  0  0  0  0  0  0  0  0  0
   -1.6825    1.6406   -1.1463 H   0  0  0  0  0  0  0  0  0  0  0  0
   -1.3354   -0.8664   -2.2987 H   0  0  0  0  0  0  0  0  0  0  0  0
  1  2  1  0
  2  3  1  0
  3  4  2  0
  4  5  1  0
  5  6  1  0
  6  7  1  0
  6  8  1  0
  8  9  1  0
  7  2  1  0
  8  2  1  0
  8  5  1  0
  1 10  1  0
  1 11  1  0
  1 12  1  0
  3 13  1  0
  4 14  1  0
  5 15  1  0
  6 16  1  0
  9 17  1  0
M  END
