
     RDKit          3D

 19 21  0  0  0  0  0  0  0  0999 V2000
    1.8520   -0.1026   -0.6863 C   0  0  0  0  0  0  0  0  0  0  0  0
    0.5557   -0.1319   -0.0474 C   0  0  0  0  0  0  0  0  0  0  0  0
   -0.6923   -0.0761   -0.8766 C   0  0  0  0  0  0  0  0  0  0  0  0
   -1.2858    1.2092   -0.4722 C   0  0  0  0  0  0  0  0  0  0  0  0
   -0.7539    1.6637    0.6545 C   0  0  0  0  0  0  0  0  0  0  0  0
    0.2837    0.7160    1.1521 C   0  0  0  0  0  0  0  0  0  0  0  0
   -0.2245   -0.3797    1.8446 O   0  0  0  0  0  0  0  0  0  0  0  0
    0.0395   -1.1925    0.7744 C   0  0  0  0  0  0  0  0  0  0  0  0
   -1.1918   -1.2909   -0.1336 C   0  0  0  0  0  0  0  0  0  0  0  0
    2.6352    0.2376    0.0436 H   0  0  0  0  0  0  0  0  0  0  0  0
    2.1376   -1.0254   -1.1999 H   0  0  0  0  0  0  0  0  0  0  0  0
    1.8622    0.7023   -1.4813 H   0  0  0  0  0  0  0  0  0  0  0  0
   -0.5831   -0.2720   -1.9456 H   0  0  0  0  0  0  0  0  0  0  0  0
   -2.0601    1.7204   -1.0250 H   0  0  0  0  0  0  0  0  0  0  0  0
   -0.9940    2.5785    1.1841 H   0  0  0  0  0  0  0  0  0  0  0  0
    1.1684    1.1521    1.6101 H   0  0  0  0  0  0  0  0  0  0  0  0
    0.5621   -2.1252    0.9412 H   0  0  0  0  0  0  0  0  0  0  0  0
   -1.1635   -2.2196   -0.7302 H   0  0  0  0  0  0  0  0  0  0  0  0
   -2.1474   -1.1639    0.3932 H   0  0  0  0  0  0  0  0  0  0  0  0
  1  2  1  0
  2  3  1  0
  3  4  1  0
  4  5  2  0
  5  6  1  0
  6  7  1  0
  7  8  1  0
  8  9  1  0
  6  2  1  0
  8  2  1  0
  9  3  1  0
  1 10  1  0
  1 11  1  0
  1 12  1  0
  3 13  1  0
  4 14  1  0
  5 15  1  0
  6 16  1  0
  8 17  1  0
  9 18  1  0
  9 19  1  0
M  END
