
     RDKit          3D

 19 21  0  0  0  0  0  0  0  0999 V2000
   -2.3469    0.0240   -0.2675 C   0  0  0  0  0  0  0  0  0  0  0  0
   -1.0102   -0.0761    0.4211 C   0  0  0  0  0  0  0  0  0  0  0  0
   -0.1529    1.1301    0.3359 C   0  0  0  0  0  0  0  0  0  0  0  0
    1.2957    0.8854    0.6520 C   0  0  0  0  0  0  0  0  0  0  0  0
    1.8500    0.0519   -0.5088 C   0  0  0  0  0  0  0  0  0  0  0  0
    1.3009   -1.0282    0.3861 C   0  0  0  0  0  0  0  0  0  0  0  0
    1.5268   -0.1838    1.4691 O   0  0  0  0  0  0  0  0  0  0  0  0
   -0.1480   -1.2965    0.2000 C   0  0  0  0  0  0  0  0  0  0  0  0
   -0.9323   -0.9975    1.4199 O   0  0  0  0  0  0  0  0  0  0  0  0
   -2.4587   -0.7267   -1.0566 H   0  0  0  0  0  0  0  0  0  0  0  0
   -2.5666    1.0234   -0.6610 H   0  0  0  0  0  0  0  0  0  0  0  0
   -3.1314   -0.2242    0.5051 H   0  0  0  0  0  0  0  0  0  0  0  0
   -0.5669    2.0167    0.8971 H   0  0  0  0  0  0  0  0  0  0  0  0
   -0.1782    1.4653   -0.7452 H   0  0  0  0  0  0  0  0  0  0  0  0
    1.8754    1.7658    0.9086 H   0  0  0  0  0  0  0  0  0  0  0  0
    1.3302    0.2333   -1.4480 H   0  0  0  0  0  0  0  0  0  0  0  0
    2.9579    0.0221   -0.5366 H   0  0  0  0  0  0  0  0  0  0  0  0
    1.8849   -1.9513    0.4569 H   0  0  0  0  0  0  0  0  0  0  0  0
   -0.5298   -2.1337   -0.3726 H   0  0  0  0  0  0  0  0  0  0  0  0
  1  2  1  0
  2  3  1  0
  3  4  1  0
  4  5  1  0
  5  6  1  0
  6  7  1  0
  6  8  1  0
  8  9  1  0
  8  2  1  0
  9  2  1  0
  7  4  1  0
  1 10  1  0
  1 11  1  0
  1 12  1  0
  3 13  1  0
  3 14  1  0
  4 15  1  0
  5 16  1  0
  5 17  1  0
  6 18  1  0
  8 19  1  0
M  END
