
     RDKit          3D

 15 18  0  0  0  0  0  0  0  0999 V2000
   -1.7754    0.3998   -0.2720 C   0  0  0  0  0  0  0  0  0  0  0  0
   -0.4327    0.1873   -0.2482 C   0  0  0  0  0  0  0  0  0  0  0  0
    0.5160   -0.9428   -0.7252 C   0  0  0  0  0  0  0  0  0  0  0  0
    1.1370    0.0659   -0.6781 C   0  0  0  0  0  0  0  0  0  0  0  0
    1.7303   -0.3380    0.2375 C   0  0  0  0  0  0  0  0  0  0  0  0
    0.6984    0.8094    0.7353 C   0  0  0  0  0  0  0  0  0  0  0  0
    0.2205   -0.2477    0.6969 C   0  0  0  0  0  0  0  0  0  0  0  0
   -2.1208    0.9795    0.6373 H   0  0  0  0  0  0  0  0  0  0  0  0
   -2.4172   -0.5310   -0.2200 H   0  0  0  0  0  0  0  0  0  0  0  0
   -2.1866    0.9906   -1.1402 H   0  0  0  0  0  0  0  0  0  0  0  0
    0.2624   -1.9707   -0.4406 H   0  0  0  0  0  0  0  0  0  0  0  0
    1.0461    1.0421   -1.1521 H   0  0  0  0  0  0  0  0  0  0  0  0
    2.0443   -1.0471    1.0050 H   0  0  0  0  0  0  0  0  0  0  0  0
    0.9837    1.8150    0.3946 H   0  0  0  0  0  0  0  0  0  0  0  0
    0.2939   -1.2122    1.1695 H   0  0  0  0  0  0  0  0  0  0  0  0
  1  2  1  0
  2  3  1  0
  3  4  1  0
  4  5  1  0
  5  6  1  0
  6  7  1  0
  6  2  1  0
  7  2  1  0
  5  3  1  0
  7  4  1  0
  1  8  1  0
  1  9  1  0
  1 10  1  0
  3 11  1  0
  4 12  1  0
  5 13  1  0
  6 14  1  0
  7 15  1  0
M  END
