
     RDKit          3D

 16 17  0  0  0  0  0  0  0  0999 V2000
    1.8685   -0.0220   -0.4164 C   0  0  0  0  0  0  0  0  0  0  0  0
    0.4459   -0.1787   -0.2735 C   0  0  0  0  0  0  0  0  0  0  0  0
   -0.1087   -1.3401    0.4926 C   0  0  0  0  0  0  0  0  0  0  0  0
   -1.4144   -1.1780    0.2867 C   0  0  0  0  0  0  0  0  0  0  0  0
   -1.4089    0.0806   -0.5451 C   0  0  0  0  0  0  0  0  0  0  0  0
   -0.3598   -0.2568   -1.4368 O   0  0  0  0  0  0  0  0  0  0  0  0
   -0.4281    0.9914    0.1007 C   0  0  0  0  0  0  0  0  0  0  0  0
   -0.5626    1.2478    1.4366 O   0  0  0  0  0  0  0  0  0  0  0  0
    2.4147   -0.7879    0.2049 H   0  0  0  0  0  0  0  0  0  0  0  0
    2.1980   -0.2398   -1.4693 H   0  0  0  0  0  0  0  0  0  0  0  0
    2.2042    0.9866   -0.0825 H   0  0  0  0  0  0  0  0  0  0  0  0
    0.4654   -2.0689    1.0392 H   0  0  0  0  0  0  0  0  0  0  0  0
   -2.2770   -1.7463    0.5972 H   0  0  0  0  0  0  0  0  0  0  0  0
   -2.3205    0.4228   -0.9526 H   0  0  0  0  0  0  0  0  0  0  0  0
   -0.1949    1.8499   -0.5583 H   0  0  0  0  0  0  0  0  0  0  0  0
   -0.5219    2.2392    1.5768 H   0  0  0  0  0  0  0  0  0  0  0  0
  1  2  1  0
  2  3  1  0
  3  4  2  0
  4  5  1  0
  5  6  1  0
  5  7  1  0
  7  8  1  0
  6  2  1  0
  7  2  1  0
  1  9  1  0
  1 10  1  0
  1 11  1  0
  3 12  1  0
  4 13  1  0
  5 14  1  0
  7 15  1  0
  8 16  1  0
M  END
