
     RDKit          3D

 21 23  0  0  0  0  0  0  0  0999 V2000
    0.7000   -1.2135    0.6831 C   0  0  0  0  0  0  0  0  0  0  0  0
    0.5341   -0.2335   -0.4984 C   0  0  0  0  0  0  0  0  0  0  0  0
    1.7364    0.3033   -0.9890 C   0  0  0  0  0  0  0  0  0  0  0  0
    1.0366    1.2428   -0.2173 C   0  0  0  0  0  0  0  0  0  0  0  0
    0.4324    1.2552    1.1338 C   0  0  0  0  0  0  0  0  0  0  0  0
   -0.9943    0.7939    0.7853 C   0  0  0  0  0  0  0  0  0  0  0  0
   -1.4445    1.3387   -0.3730 O   0  0  0  0  0  0  0  0  0  0  0  0
   -0.8777    0.1339   -0.6074 C   0  0  0  0  0  0  0  0  0  0  0  0
   -1.8379   -0.9900   -0.9168 C   0  0  0  0  0  0  0  0  0  0  0  0
   -0.0462   -1.0874    1.4613 H   0  0  0  0  0  0  0  0  0  0  0  0
    1.7440   -1.2328    1.0538 H   0  0  0  0  0  0  0  0  0  0  0  0
    0.5295   -2.2110    0.2194 H   0  0  0  0  0  0  0  0  0  0  0  0
    1.8286    0.4413   -2.1068 H   0  0  0  0  0  0  0  0  0  0  0  0
    2.7218   -0.0779   -0.6120 H   0  0  0  0  0  0  0  0  0  0  0  0
    0.5054    2.0473   -0.8252 H   0  0  0  0  0  0  0  0  0  0  0  0
    0.3646    2.3069    1.5261 H   0  0  0  0  0  0  0  0  0  0  0  0
    0.9011    0.6604    1.8985 H   0  0  0  0  0  0  0  0  0  0  0  0
   -1.6044    0.3278    1.5390 H   0  0  0  0  0  0  0  0  0  0  0  0
   -1.6577   -1.2707   -1.9752 H   0  0  0  0  0  0  0  0  0  0  0  0
   -1.6679   -1.8851   -0.3070 H   0  0  0  0  0  0  0  0  0  0  0  0
   -2.9038   -0.6496   -0.8721 H   0  0  0  0  0  0  0  0  0  0  0  0
  1  2  1  0
  2  3  1  0
  3  4  1  0
  4  5  1  0
  5  6  1  0
  6  7  1  0
  7  8  1  0
  8  9  1  0
  4  2  1  0
  8  6  1  0
  8  2  1  0
  1 10  1  0
  1 11  1  0
  1 12  1  0
  3 13  1  0
  3 14  1  0
  4 15  1  0
  5 16  1  0
  5 17  1  0
  6 18  1  0
  9 19  1  0
  9 20  1  0
  9 21  1  0
M  END
