
     RDKit          3D

 19 20  0  0  0  0  0  0  0  0999 V2000
   -0.9701    1.7988   -0.3004 C   0  0  0  0  0  0  0  0  0  0  0  0
   -0.2829    0.5017    0.0728 C   0  0  0  0  0  0  0  0  0  0  0  0
   -0.6796   -0.0347    1.2679 O   0  0  0  0  0  0  0  0  0  0  0  0
   -1.5403   -1.0524    0.8841 C   0  0  0  0  0  0  0  0  0  0  0  0
   -0.7843   -1.7135   -0.0836 O   0  0  0  0  0  0  0  0  0  0  0  0
   -0.4178   -0.6609   -0.9256 C   0  0  0  0  0  0  0  0  0  0  0  0
    0.8688    0.0456   -0.6974 C   0  0  0  0  0  0  0  0  0  0  0  0
    2.0212   -0.7027   -0.0646 C   0  0  0  0  0  0  0  0  0  0  0  0
    2.6525    0.0266    0.9253 O   0  0  0  0  0  0  0  0  0  0  0  0
   -1.8717    1.9906    0.2973 H   0  0  0  0  0  0  0  0  0  0  0  0
   -1.1848    1.7436   -1.3977 H   0  0  0  0  0  0  0  0  0  0  0  0
   -0.2399    2.6070   -0.1279 H   0  0  0  0  0  0  0  0  0  0  0  0
   -2.4589   -0.5955    0.4220 H   0  0  0  0  0  0  0  0  0  0  0  0
   -1.8007   -1.7242    1.7338 H   0  0  0  0  0  0  0  0  0  0  0  0
   -1.0666   -0.4481   -1.7741 H   0  0  0  0  0  0  0  0  0  0  0  0
    1.1950    0.7067   -1.5302 H   0  0  0  0  0  0  0  0  0  0  0  0
    1.6736   -1.6642    0.3703 H   0  0  0  0  0  0  0  0  0  0  0  0
    2.7842   -0.9539   -0.8251 H   0  0  0  0  0  0  0  0  0  0  0  0
    2.1023    0.1296    1.7530 H   0  0  0  0  0  0  0  0  0  0  0  0
  1  2  1  0
  2  3  1  0
  3  4  1  0
  4  5  1  0
  5  6  1  0
  6  7  1  0
  7  8  1  0
  8  9  1  0
  6  2  1  0
  7  2  1  0
  1 10  1  0
  1 11  1  0
  1 12  1  0
  4 13  1  0
  4 14  1  0
  6 15  1  0
  7 16  1  0
  8 17  1  0
  8 18  1  0
  9 19  1  0
M  END
