
     RDKit          3D

 21 23  0  0  0  0  0  0  0  0999 V2000
    1.6803    1.3171   -0.3357 C   0  0  0  0  0  0  0  0  0  0  0  0
    0.9224    0.1336    0.0179 C   0  0  0  0  0  0  0  0  0  0  0  0
    1.5647   -1.0643    0.2674 O   0  0  0  0  0  0  0  0  0  0  0  0
    0.3398   -1.6799   -0.0137 C   0  0  0  0  0  0  0  0  0  0  0  0
   -0.4745   -1.2419    1.1920 C   0  0  0  0  0  0  0  0  0  0  0  0
   -0.1774    0.2647    1.0730 C   0  0  0  0  0  0  0  0  0  0  0  0
   -1.2635    0.9061    0.2820 C   0  0  0  0  0  0  0  0  0  0  0  0
   -1.2535    0.0556   -0.9965 C   0  0  0  0  0  0  0  0  0  0  0  0
    0.1237   -0.5884   -1.0352 C   0  0  0  0  0  0  0  0  0  0  0  0
    2.0016    1.2654   -1.4009 H   0  0  0  0  0  0  0  0  0  0  0  0
    2.5889    1.3908    0.3325 H   0  0  0  0  0  0  0  0  0  0  0  0
    1.1019    2.2352   -0.1319 H   0  0  0  0  0  0  0  0  0  0  0  0
    0.3223   -2.6948   -0.3115 H   0  0  0  0  0  0  0  0  0  0  0  0
   -0.0245   -1.6507    2.1087 H   0  0  0  0  0  0  0  0  0  0  0  0
   -1.5376   -1.4578    1.0620 H   0  0  0  0  0  0  0  0  0  0  0  0
    0.1252    0.7241    1.9834 H   0  0  0  0  0  0  0  0  0  0  0  0
   -2.2546    0.8921    0.7696 H   0  0  0  0  0  0  0  0  0  0  0  0
   -0.9804    1.9267    0.0053 H   0  0  0  0  0  0  0  0  0  0  0  0
   -2.0560   -0.7022   -0.9683 H   0  0  0  0  0  0  0  0  0  0  0  0
   -1.3178    0.7068   -1.8992 H   0  0  0  0  0  0  0  0  0  0  0  0
    0.5692   -0.7381   -2.0013 H   0  0  0  0  0  0  0  0  0  0  0  0
  1  2  1  0
  2  3  1  0
  3  4  1  0
  4  5  1  0
  5  6  1  0
  6  7  1  0
  7  8  1  0
  8  9  1  0
  6  2  1  0
  9  2  1  0
  9  4  1  0
  1 10  1  0
  1 11  1  0
  1 12  1  0
  4 13  1  0
  5 14  1  0
  5 15  1  0
  6 16  1  0
  7 17  1  0
  7 18  1  0
  8 19  1  0
  8 20  1  0
  9 21  1  0
M  END
