
     RDKit          3D

 19 20  0  0  0  0  0  0  0  0999 V2000
   -1.9841   -0.4421   -0.8675 C   0  0  0  0  0  0  0  0  0  0  0  0
   -0.8456   -0.0563    0.0872 C   0  0  0  0  0  0  0  0  0  0  0  0
   -0.1382   -1.1736    0.7773 C   0  0  0  0  0  0  0  0  0  0  0  0
    1.2968   -1.1030    0.3215 C   0  0  0  0  0  0  0  0  0  0  0  0
    2.0600   -2.0170    0.1590 O   0  0  0  0  0  0  0  0  0  0  0  0
    1.5451    0.3553    0.1210 C   0  0  0  0  0  0  0  0  0  0  0  0
    2.6349    0.5816   -0.7070 O   0  0  0  0  0  0  0  0  0  0  0  0
    0.2473    0.8320   -0.4487 C   0  0  0  0  0  0  0  0  0  0  0  0
   -0.7526    1.3447    0.5150 C   0  0  0  0  0  0  0  0  0  0  0  0
   -1.7489   -1.4698   -1.2575 H   0  0  0  0  0  0  0  0  0  0  0  0
   -2.9450   -0.4142   -0.3201 H   0  0  0  0  0  0  0  0  0  0  0  0
   -1.9498    0.2350   -1.7338 H   0  0  0  0  0  0  0  0  0  0  0  0
   -0.1883   -1.1389    1.8779 H   0  0  0  0  0  0  0  0  0  0  0  0
   -0.5466   -2.1514    0.4384 H   0  0  0  0  0  0  0  0  0  0  0  0
    1.7213    0.7970    1.1434 H   0  0  0  0  0  0  0  0  0  0  0  0
    3.3262    1.0783   -0.1785 H   0  0  0  0  0  0  0  0  0  0  0  0
    0.1595    1.0535   -1.5274 H   0  0  0  0  0  0  0  0  0  0  0  0
   -1.5320    2.0287    0.1012 H   0  0  0  0  0  0  0  0  0  0  0  0
   -0.3599    1.6603    1.4984 H   0  0  0  0  0  0  0  0  0  0  0  0
  1  2  1  0
  2  3  1  0
  3  4  1  0
  4  5  2  0
  4  6  1  0
  6  7  1  0
  6  8  1  0
  8  9  1  0
  8  2  1  0
  9  2  1  0
  1 10  1  0
  1 11  1  0
  1 12  1  0
  3 13  1  0
  3 14  1  0
  6 15  1  0
  7 16  1  0
  8 17  1  0
  9 18  1  0
  9 19  1  0
M  END
