
     RDKit          3D

 22 23  0  0  0  0  0  0  0  0999 V2000
   -1.7575    0.9299   -0.3235 C   0  0  0  0  0  0  0  0  0  0  0  0
   -0.4389    0.7685    0.4491 C   0  0  0  0  0  0  0  0  0  0  0  0
   -0.4252   -0.5275    1.1658 C   0  0  0  0  0  0  0  0  0  0  0  0
   -0.4802   -1.4863   -0.0362 C   0  0  0  0  0  0  0  0  0  0  0  0
    0.0461   -0.6176   -1.1940 C   0  0  0  0  0  0  0  0  0  0  0  0
    0.8259    0.3714   -0.4190 C   0  0  0  0  0  0  0  0  0  0  0  0
    1.9596   -0.3405    0.3351 C   0  0  0  0  0  0  0  0  0  0  0  0
    0.5643    1.6726    0.0486 C   0  0  0  0  0  0  0  0  0  0  0  0
   -2.3726    1.5969    0.3537 H   0  0  0  0  0  0  0  0  0  0  0  0
   -1.6360    1.5110   -1.2489 H   0  0  0  0  0  0  0  0  0  0  0  0
   -2.3253    0.0240   -0.4513 H   0  0  0  0  0  0  0  0  0  0  0  0
   -1.4016   -0.6802    1.6910 H   0  0  0  0  0  0  0  0  0  0  0  0
    0.4079   -0.7252    1.8241 H   0  0  0  0  0  0  0  0  0  0  0  0
   -1.5043   -1.8176   -0.2574 H   0  0  0  0  0  0  0  0  0  0  0  0
    0.1161   -2.3858    0.1168 H   0  0  0  0  0  0  0  0  0  0  0  0
    0.7277   -1.2301   -1.8163 H   0  0  0  0  0  0  0  0  0  0  0  0
   -0.7756   -0.2498   -1.7980 H   0  0  0  0  0  0  0  0  0  0  0  0
    2.1816    0.1286    1.2995 H   0  0  0  0  0  0  0  0  0  0  0  0
    2.8662   -0.1343   -0.3094 H   0  0  0  0  0  0  0  0  0  0  0  0
    1.8683   -1.4089    0.4046 H   0  0  0  0  0  0  0  0  0  0  0  0
    1.1898    2.1320    0.8699 H   0  0  0  0  0  0  0  0  0  0  0  0
    0.3635    2.4690   -0.7041 H   0  0  0  0  0  0  0  0  0  0  0  0
  1  2  1  0
  2  3  1  0
  3  4  1  0
  4  5  1  0
  5  6  1  0
  6  7  1  0
  6  8  1  0
  6  2  1  0
  8  2  1  0
  1  9  1  0
  1 10  1  0
  1 11  1  0
  3 12  1  0
  3 13  1  0
  4 14  1  0
  4 15  1  0
  5 16  1  0
  5 17  1  0
  7 18  1  0
  7 19  1  0
  7 20  1  0
  8 21  1  0
  8 22  1  0
M  END
