
     RDKit          3D

 19 21  0  0  0  0  0  0  0  0999 V2000
   -1.7563    1.1674    0.2729 C   0  0  0  0  0  0  0  0  0  0  0  0
   -0.6850    0.2336   -0.1769 C   0  0  0  0  0  0  0  0  0  0  0  0
   -0.7239   -0.2270   -1.5345 O   0  0  0  0  0  0  0  0  0  0  0  0
   -1.0040   -1.1289   -0.5486 C   0  0  0  0  0  0  0  0  0  0  0  0
    0.0466   -1.9779    0.0865 C   0  0  0  0  0  0  0  0  0  0  0  0
    1.2105   -1.0593    0.3127 C   0  0  0  0  0  0  0  0  0  0  0  0
    1.1415   -0.2935    1.4585 O   0  0  0  0  0  0  0  0  0  0  0  0
    0.7136    0.3423    0.3269 C   0  0  0  0  0  0  0  0  0  0  0  0
    1.5952    1.4419   -0.2155 C   0  0  0  0  0  0  0  0  0  0  0  0
   -1.3875    1.8093    1.0974 H   0  0  0  0  0  0  0  0  0  0  0  0
   -2.0282    1.8163   -0.5828 H   0  0  0  0  0  0  0  0  0  0  0  0
   -2.6641    0.5868    0.5749 H   0  0  0  0  0  0  0  0  0  0  0  0
   -2.0336   -1.5038   -0.5278 H   0  0  0  0  0  0  0  0  0  0  0  0
    0.3156   -2.8808   -0.4560 H   0  0  0  0  0  0  0  0  0  0  0  0
   -0.3469   -2.2752    1.1035 H   0  0  0  0  0  0  0  0  0  0  0  0
    2.1571   -1.2199   -0.2183 H   0  0  0  0  0  0  0  0  0  0  0  0
    2.6316    1.2908    0.1211 H   0  0  0  0  0  0  0  0  0  0  0  0
    1.5951    1.4849   -1.3270 H   0  0  0  0  0  0  0  0  0  0  0  0
    1.2227    2.3930    0.2332 H   0  0  0  0  0  0  0  0  0  0  0  0
  1  2  1  0
  2  3  1  0
  3  4  1  0
  4  5  1  0
  5  6  1  0
  6  7  1  0
  7  8  1  0
  8  9  1  0
  4  2  1  0
  8  6  1  0
  8  2  1  0
  1 10  1  0
  1 11  1  0
  1 12  1  0
  4 13  1  0
  5 14  1  0
  5 15  1  0
  6 16  1  0
  9 17  1  0
  9 18  1  0
  9 19  1  0
M  END
