
     RDKit          3D

 18 19  0  0  0  0  0  0  0  0999 V2000
   -0.6284    1.3427   -0.2692 C   0  0  0  0  0  0  0  0  0  0  0  0
   -0.1364    0.2341    0.6843 C   0  0  0  0  0  0  0  0  0  0  0  0
    1.3729    0.2892    0.7227 C   0  0  0  0  0  0  0  0  0  0  0  0
    1.4852    0.1168   -0.7972 C   0  0  0  0  0  0  0  0  0  0  0  0
    0.5723   -0.7929   -1.1246 C   0  0  0  0  0  0  0  0  0  0  0  0
   -0.0971   -1.2079    0.0721 C   0  0  0  0  0  0  0  0  0  0  0  0
   -1.0813   -0.7575    0.9570 C   0  0  0  0  0  0  0  0  0  0  0  0
   -2.3974   -0.6264    0.4717 O   0  0  0  0  0  0  0  0  0  0  0  0
   -0.0035    2.2262   -0.2389 H   0  0  0  0  0  0  0  0  0  0  0  0
   -0.6632    0.9750   -1.3078 H   0  0  0  0  0  0  0  0  0  0  0  0
   -1.6705    1.5733    0.0663 H   0  0  0  0  0  0  0  0  0  0  0  0
    1.7045    1.3000    1.0263 H   0  0  0  0  0  0  0  0  0  0  0  0
    1.8550   -0.5287    1.2477 H   0  0  0  0  0  0  0  0  0  0  0  0
    2.1918    0.6627   -1.4113 H   0  0  0  0  0  0  0  0  0  0  0  0
    0.4540   -1.0890   -2.1829 H   0  0  0  0  0  0  0  0  0  0  0  0
    0.6093   -1.9564    0.5790 H   0  0  0  0  0  0  0  0  0  0  0  0
   -1.1442   -1.1362    2.0174 H   0  0  0  0  0  0  0  0  0  0  0  0
   -2.4230   -0.6251   -0.5127 H   0  0  0  0  0  0  0  0  0  0  0  0
  1  2  1  0
  2  3  1  0
  3  4  1  0
  4  5  2  0
  5  6  1  0
  6  7  1  0
  7  8  1  0
  6  2  1  0
  7  2  1  0
  1  9  1  0
  1 10  1  0
  1 11  1  0
  3 12  1  0
  3 13  1  0
  4 14  1  0
  5 15  1  0
  6 16  1  0
  7 17  1  0
  8 18  1  0
M  END
