
     RDKit          3D

 19 22  0  0  0  0  0  0  0  0999 V2000
   -1.7964    0.9755    0.3125 C   0  0  0  0  0  0  0  0  0  0  0  0
   -0.7358    0.2404   -0.3373 C   0  0  0  0  0  0  0  0  0  0  0  0
   -0.9338   -1.3299   -0.6277 C   0  0  0  0  0  0  0  0  0  0  0  0
    0.0236   -2.0934    0.0625 O   0  0  0  0  0  0  0  0  0  0  0  0
    0.9667   -1.2806    0.7162 C   0  0  0  0  0  0  0  0  0  0  0  0
    0.0281   -0.4534    0.8629 C   0  0  0  0  0  0  0  0  0  0  0  0
   -0.0049   -0.4962   -0.8089 C   0  0  0  0  0  0  0  0  0  0  0  0
    0.7330    0.2788    0.3545 C   0  0  0  0  0  0  0  0  0  0  0  0
    1.7747    0.9949   -0.3705 C   0  0  0  0  0  0  0  0  0  0  0  0
   -2.1037    1.8038   -0.3915 H   0  0  0  0  0  0  0  0  0  0  0  0
   -2.6854    0.3146    0.3721 H   0  0  0  0  0  0  0  0  0  0  0  0
   -1.6368    1.4219    1.2835 H   0  0  0  0  0  0  0  0  0  0  0  0
   -1.9939   -1.5588   -0.5067 H   0  0  0  0  0  0  0  0  0  0  0  0
    2.0324   -1.4906    0.5835 H   0  0  0  0  0  0  0  0  0  0  0  0
   -0.8597   -0.4572    1.4508 H   0  0  0  0  0  0  0  0  0  0  0  0
    0.8860   -0.5040   -1.3945 H   0  0  0  0  0  0  0  0  0  0  0  0
    1.4653    1.5757   -1.2544 H   0  0  0  0  0  0  0  0  0  0  0  0
    2.5981    0.3034   -0.6311 H   0  0  0  0  0  0  0  0  0  0  0  0
    2.2425    1.7552    0.3241 H   0  0  0  0  0  0  0  0  0  0  0  0
  1  2  1  0
  2  3  1  0
  3  4  1  0
  4  5  1  0
  5  6  1  0
  6  7  1  0
  6  8  1  0
  8  9  1  0
  7  2  1  0
  8  2  1  0
  7  3  1  0
  8  5  1  0
  1 10  1  0
  1 11  1  0
  1 12  1  0
  3 13  1  0
  5 14  1  0
  6 15  1  0
  7 16  1  0
  9 17  1  0
  9 18  1  0
  9 19  1  0
M  END
