
     RDKit          3D

 19 21  0  0  0  0  0  0  0  0999 V2000
    2.3744   -0.1230   -0.2198 C   0  0  0  0  0  0  0  0  0  0  0  0
    0.9180   -0.2530   -0.3820 C   0  0  0  0  0  0  0  0  0  0  0  0
    0.1685   -1.4541    0.2137 C   0  0  0  0  0  0  0  0  0  0  0  0
   -1.0364   -0.5656    0.2371 C   0  0  0  0  0  0  0  0  0  0  0  0
   -2.3400   -0.8304   -0.0509 C   0  0  0  0  0  0  0  0  0  0  0  0
   -1.8640   -0.4661    1.3125 O   0  0  0  0  0  0  0  0  0  0  0  0
   -0.1477    0.5578   -0.2108 C   0  0  0  0  0  0  0  0  0  0  0  0
   -0.3468    1.9488    0.2220 C   0  0  0  0  0  0  0  0  0  0  0  0
    0.3763    0.3165   -1.5375 O   0  0  0  0  0  0  0  0  0  0  0  0
    2.8124   -0.7952    0.5455 H   0  0  0  0  0  0  0  0  0  0  0  0
    2.6802    0.9340   -0.0599 H   0  0  0  0  0  0  0  0  0  0  0  0
    2.8647   -0.4348   -1.1887 H   0  0  0  0  0  0  0  0  0  0  0  0
    0.0818   -2.3157   -0.4456 H   0  0  0  0  0  0  0  0  0  0  0  0
    0.5774   -1.6334    1.2282 H   0  0  0  0  0  0  0  0  0  0  0  0
   -2.7719   -1.8539   -0.0874 H   0  0  0  0  0  0  0  0  0  0  0  0
   -3.0486   -0.0740   -0.4630 H   0  0  0  0  0  0  0  0  0  0  0  0
    0.1518    2.6407   -0.5051 H   0  0  0  0  0  0  0  0  0  0  0  0
   -1.4431    2.2014    0.1590 H   0  0  0  0  0  0  0  0  0  0  0  0
   -0.0068    2.2001    1.2325 H   0  0  0  0  0  0  0  0  0  0  0  0
  1  2  1  0
  2  3  1  0
  3  4  1  0
  4  5  1  0
  5  6  1  0
  4  7  1  0
  7  8  1  0
  7  9  1  0
  7  2  1  0
  9  2  1  0
  6  4  1  0
  1 10  1  0
  1 11  1  0
  1 12  1  0
  3 13  1  0
  3 14  1  0
  5 15  1  0
  5 16  1  0
  8 17  1  0
  8 18  1  0
  8 19  1  0
M  END
