
     RDKit          3D

 19 21  0  0  0  0  0  0  0  0999 V2000
    1.7866   -0.2856   -0.4888 C   0  0  0  0  0  0  0  0  0  0  0  0
    0.4387   -0.3249   -0.0364 C   0  0  0  0  0  0  0  0  0  0  0  0
   -0.3325   -1.6406    0.0114 C   0  0  0  0  0  0  0  0  0  0  0  0
   -1.5130   -0.6629    0.1308 C   0  0  0  0  0  0  0  0  0  0  0  0
   -1.2888   -0.1317    1.3695 O   0  0  0  0  0  0  0  0  0  0  0  0
    0.0184    0.3944    1.2411 C   0  0  0  0  0  0  0  0  0  0  0  0
   -0.1623    1.7732    0.7190 C   0  0  0  0  0  0  0  0  0  0  0  0
   -0.7853    1.6028   -0.4671 C   0  0  0  0  0  0  0  0  0  0  0  0
   -0.7098    0.1949   -0.8633 C   0  0  0  0  0  0  0  0  0  0  0  0
    2.4240    0.3505    0.1941 H   0  0  0  0  0  0  0  0  0  0  0  0
    2.2640   -1.3063   -0.4431 H   0  0  0  0  0  0  0  0  0  0  0  0
    2.0011    0.0857   -1.5177 H   0  0  0  0  0  0  0  0  0  0  0  0
   -0.3014   -2.1846   -0.9338 H   0  0  0  0  0  0  0  0  0  0  0  0
   -0.1057   -2.1798    0.9332 H   0  0  0  0  0  0  0  0  0  0  0  0
   -2.4638   -1.0049   -0.1779 H   0  0  0  0  0  0  0  0  0  0  0  0
    0.6520    0.2663    2.0797 H   0  0  0  0  0  0  0  0  0  0  0  0
    0.1227    2.7255    1.1527 H   0  0  0  0  0  0  0  0  0  0  0  0
   -1.2611    2.4158   -1.0166 H   0  0  0  0  0  0  0  0  0  0  0  0
   -0.7837   -0.0878   -1.8870 H   0  0  0  0  0  0  0  0  0  0  0  0
  1  2  1  0
  2  3  1  0
  3  4  1  0
  4  5  1  0
  5  6  1  0
  6  7  1  0
  7  8  2  0
  8  9  1  0
  6  2  1  0
  9  2  1  0
  9  4  1  0
  1 10  1  0
  1 11  1  0
  1 12  1  0
  3 13  1  0
  3 14  1  0
  4 15  1  0
  6 16  1  0
  7 17  1  0
  8 18  1  0
  9 19  1  0
M  END
