
     RDKit          3D

 17 20  0  0  0  0  0  0  0  0999 V2000
    2.0569   -0.2386    0.0160 C   0  0  0  0  0  0  0  0  0  0  0  0
    0.6598    0.1532   -0.0203 C   0  0  0  0  0  0  0  0  0  0  0  0
   -0.0918    0.5872   -1.2232 C   0  0  0  0  0  0  0  0  0  0  0  0
   -0.9877    1.5404   -0.6799 O   0  0  0  0  0  0  0  0  0  0  0  0
   -1.5125    0.7842    0.3681 C   0  0  0  0  0  0  0  0  0  0  0  0
   -1.5422   -0.6035   -0.2075 C   0  0  0  0  0  0  0  0  0  0  0  0
   -1.0333   -0.4284   -1.5140 O   0  0  0  0  0  0  0  0  0  0  0  0
   -0.3151   -0.9144    0.5553 C   0  0  0  0  0  0  0  0  0  0  0  0
   -0.2491    0.3927    1.1011 C   0  0  0  0  0  0  0  0  0  0  0  0
    2.1864   -1.1891   -0.5831 H   0  0  0  0  0  0  0  0  0  0  0  0
    2.4052   -0.3792    1.0434 H   0  0  0  0  0  0  0  0  0  0  0  0
    2.6925    0.5085   -0.5338 H   0  0  0  0  0  0  0  0  0  0  0  0
    0.4598    0.9338   -2.0679 H   0  0  0  0  0  0  0  0  0  0  0  0
   -2.3409    1.1524    0.9180 H   0  0  0  0  0  0  0  0  0  0  0  0
   -2.4278   -1.1946   -0.1037 H   0  0  0  0  0  0  0  0  0  0  0  0
    0.0428   -1.8583    0.8557 H   0  0  0  0  0  0  0  0  0  0  0  0
   -0.0028    0.7536    2.0756 H   0  0  0  0  0  0  0  0  0  0  0  0
  1  2  1  0
  2  3  1  0
  3  4  1  0
  4  5  1  0
  5  6  1  0
  6  7  1  0
  6  8  1  0
  8  9  1  0
  8  2  1  0
  9  2  1  0
  7  3  1  0
  9  5  1  0
  1 10  1  0
  1 11  1  0
  1 12  1  0
  3 13  1  0
  5 14  1  0
  6 15  1  0
  8 16  1  0
  9 17  1  0
M  END
