
     RDKit          3D

 17 18  0  0  0  0  0  0  0  0999 V2000
   -0.8385   -1.1264   -1.2029 C   0  0  0  0  0  0  0  0  0  0  0  0
   -0.1258   -0.4684   -0.0810 C   0  0  0  0  0  0  0  0  0  0  0  0
   -1.0971    0.2513    0.8470 C   0  0  0  0  0  0  0  0  0  0  0  0
   -0.1841    1.4415    0.8647 C   0  0  0  0  0  0  0  0  0  0  0  0
    0.5290    0.8449   -0.3440 C   0  0  0  0  0  0  0  0  0  0  0  0
    1.9026    0.6761   -0.0218 O   0  0  0  0  0  0  0  0  0  0  0  0
    2.1202   -0.6548    0.3163 C   0  0  0  0  0  0  0  0  0  0  0  0
    3.2571   -1.1649    0.3585 O   0  0  0  0  0  0  0  0  0  0  0  0
    0.8772   -1.2052    0.5668 O   0  0  0  0  0  0  0  0  0  0  0  0
   -1.9332   -1.2228   -0.9665 H   0  0  0  0  0  0  0  0  0  0  0  0
   -0.7991   -0.5808   -2.1671 H   0  0  0  0  0  0  0  0  0  0  0  0
   -0.4960   -2.1969   -1.3206 H   0  0  0  0  0  0  0  0  0  0  0  0
   -1.2129   -0.3067    1.7821 H   0  0  0  0  0  0  0  0  0  0  0  0
   -2.0631    0.4710    0.3238 H   0  0  0  0  0  0  0  0  0  0  0  0
    0.4211    1.5326    1.7697 H   0  0  0  0  0  0  0  0  0  0  0  0
   -0.6964    2.3714    0.5698 H   0  0  0  0  0  0  0  0  0  0  0  0
    0.3390    1.3381   -1.2947 H   0  0  0  0  0  0  0  0  0  0  0  0
  1  2  1  0
  2  3  1  0
  3  4  1  0
  4  5  1  0
  5  6  1  0
  6  7  1  0
  7  8  2  0
  7  9  1  0
  5  2  1  0
  9  2  1  0
  1 10  1  0
  1 11  1  0
  1 12  1  0
  3 13  1  0
  3 14  1  0
  4 15  1  0
  4 16  1  0
  5 17  1  0
M  END
