
     RDKit          3D

 17 18  0  0  0  0  0  0  0  0999 V2000
   -1.9244   -0.6516    0.1306 C   0  0  0  0  0  0  0  0  0  0  0  0
   -0.6023   -0.0150    0.4166 C   0  0  0  0  0  0  0  0  0  0  0  0
   -0.4072    1.4411    0.4775 C   0  0  0  0  0  0  0  0  0  0  0  0
    0.0740    0.6910   -0.6848 C   0  0  0  0  0  0  0  0  0  0  0  0
    1.4313    0.0581   -0.7507 C   0  0  0  0  0  0  0  0  0  0  0  0
    1.4775   -0.8397    0.4335 C   0  0  0  0  0  0  0  0  0  0  0  0
    0.2960   -0.7969    1.0982 O   0  0  0  0  0  0  0  0  0  0  0  0
   -2.6969    0.0164   -0.2404 H   0  0  0  0  0  0  0  0  0  0  0  0
   -1.7407   -1.4716   -0.6115 H   0  0  0  0  0  0  0  0  0  0  0  0
   -2.2648   -1.1810    1.0582 H   0  0  0  0  0  0  0  0  0  0  0  0
   -1.2202    2.1712    0.3009 H   0  0  0  0  0  0  0  0  0  0  0  0
    0.3190    1.8231    1.2512 H   0  0  0  0  0  0  0  0  0  0  0  0
   -0.4554    0.8485   -1.6610 H   0  0  0  0  0  0  0  0  0  0  0  0
    1.4926   -0.5210   -1.6890 H   0  0  0  0  0  0  0  0  0  0  0  0
    2.2166    0.8261   -0.7848 H   0  0  0  0  0  0  0  0  0  0  0  0
    1.6975   -1.9017    0.1457 H   0  0  0  0  0  0  0  0  0  0  0  0
    2.3075   -0.4969    1.1098 H   0  0  0  0  0  0  0  0  0  0  0  0
  1  2  1  0
  2  3  1  0
  3  4  1  0
  4  5  1  0
  5  6  1  0
  6  7  1  0
  4  2  1  0
  7  2  1  0
  1  8  1  0
  1  9  1  0
  1 10  1  0
  3 11  1  0
  3 12  1  0
  4 13  1  0
  5 14  1  0
  5 15  1  0
  6 16  1  0
  6 17  1  0
M  END
