
     RDKit          3D

 19 21  0  0  0  0  0  0  0  0999 V2000
    0.5116    1.6355    0.7939 C   0  0  0  0  0  0  0  0  0  0  0  0
   -0.1141    0.5497   -0.0363 C   0  0  0  0  0  0  0  0  0  0  0  0
    0.9494   -0.0664   -0.9279 C   0  0  0  0  0  0  0  0  0  0  0  0
    1.3022   -1.3690   -0.2901 C   0  0  0  0  0  0  0  0  0  0  0  0
    0.4208   -1.6879    0.6372 C   0  0  0  0  0  0  0  0  0  0  0  0
   -0.6067   -0.6486    0.7228 C   0  0  0  0  0  0  0  0  0  0  0  0
   -1.4991   -0.6848   -0.4920 C   0  0  0  0  0  0  0  0  0  0  0  0
   -2.5984   -0.0608   -0.6250 O   0  0  0  0  0  0  0  0  0  0  0  0
   -1.4350    0.8203   -0.6473 C   0  0  0  0  0  0  0  0  0  0  0  0
    0.7863    2.4593    0.0758 H   0  0  0  0  0  0  0  0  0  0  0  0
   -0.1919    2.0309    1.5699 H   0  0  0  0  0  0  0  0  0  0  0  0
    1.4388    1.2593    1.2374 H   0  0  0  0  0  0  0  0  0  0  0  0
    0.6061   -0.1508   -1.9556 H   0  0  0  0  0  0  0  0  0  0  0  0
    1.8879    0.5321   -0.9427 H   0  0  0  0  0  0  0  0  0  0  0  0
    2.1590   -1.9786   -0.5426 H   0  0  0  0  0  0  0  0  0  0  0  0
    0.4640   -2.5772    1.2300 H   0  0  0  0  0  0  0  0  0  0  0  0
   -1.1099   -0.4839    1.6643 H   0  0  0  0  0  0  0  0  0  0  0  0
   -1.0600   -1.1857   -1.4083 H   0  0  0  0  0  0  0  0  0  0  0  0
   -1.9108    1.6064   -0.0634 H   0  0  0  0  0  0  0  0  0  0  0  0
  1  2  1  0
  2  3  1  0
  3  4  1  0
  4  5  2  0
  5  6  1  0
  6  7  1  0
  7  8  1  0
  8  9  1  0
  6  2  1  0
  9  7  1  0
  9  2  1  0
  1 10  1  0
  1 11  1  0
  1 12  1  0
  3 13  1  0
  3 14  1  0
  4 15  1  0
  5 16  1  0
  6 17  1  0
  7 18  1  0
  9 19  1  0
M  END
