
     RDKit          3D

 21 22  0  0  0  0  0  0  0  0999 V2000
   -1.2309   -1.1486   -0.7466 C   0  0  0  0  0  0  0  0  0  0  0  0
   -0.7211   -0.4362    0.4567 C   0  0  0  0  0  0  0  0  0  0  0  0
   -1.5987    0.1571    1.4807 C   0  0  0  0  0  0  0  0  0  0  0  0
   -1.0515    1.0788    0.4809 C   0  0  0  0  0  0  0  0  0  0  0  0
    0.4026    1.3071    0.2611 C   0  0  0  0  0  0  0  0  0  0  0  0
    0.6790    1.6148   -1.0911 O   0  0  0  0  0  0  0  0  0  0  0  0
    0.7505   -0.1199    0.5993 C   0  0  0  0  0  0  0  0  0  0  0  0
    1.5996   -0.8505   -0.3852 C   0  0  0  0  0  0  0  0  0  0  0  0
    2.9457   -0.5063   -0.1907 O   0  0  0  0  0  0  0  0  0  0  0  0
   -1.0621   -0.5678   -1.6962 H   0  0  0  0  0  0  0  0  0  0  0  0
   -0.6701   -2.1047   -0.8915 H   0  0  0  0  0  0  0  0  0  0  0  0
   -2.2904   -1.3875   -0.5960 H   0  0  0  0  0  0  0  0  0  0  0  0
   -1.1955    0.2143    2.5182 H   0  0  0  0  0  0  0  0  0  0  0  0
   -2.6638   -0.0837    1.4118 H   0  0  0  0  0  0  0  0  0  0  0  0
   -1.7300    1.4564   -0.3025 H   0  0  0  0  0  0  0  0  0  0  0  0
    0.8473    2.0512    0.9321 H   0  0  0  0  0  0  0  0  0  0  0  0
   -0.1806    1.8999   -1.5393 H   0  0  0  0  0  0  0  0  0  0  0  0
    1.1593   -0.1949    1.6247 H   0  0  0  0  0  0  0  0  0  0  0  0
    1.5362   -1.9400   -0.1400 H   0  0  0  0  0  0  0  0  0  0  0  0
    1.2910   -0.7038   -1.4277 H   0  0  0  0  0  0  0  0  0  0  0  0
    3.1837    0.2644   -0.7588 H   0  0  0  0  0  0  0  0  0  0  0  0
  1  2  1  0
  2  3  1  0
  3  4  1  0
  4  5  1  0
  5  6  1  0
  5  7  1  0
  7  8  1  0
  8  9  1  0
  4  2  1  0
  7  2  1  0
  1 10  1  0
  1 11  1  0
  1 12  1  0
  3 13  1  0
  3 14  1  0
  4 15  1  0
  5 16  1  0
  6 17  1  0
  7 18  1  0
  8 19  1  0
  8 20  1  0
  9 21  1  0
M  END
