
     RDKit          3D

 21 22  0  0  0  0  0  0  0  0999 V2000
   -1.9750   -0.0683    0.6112 C   0  0  0  0  0  0  0  0  0  0  0  0
   -0.6136   -0.1010   -0.0108 C   0  0  0  0  0  0  0  0  0  0  0  0
   -0.4355    0.8152   -1.2039 C   0  0  0  0  0  0  0  0  0  0  0  0
    0.5835    1.5817   -0.4106 C   0  0  0  0  0  0  0  0  0  0  0  0
    0.4609    0.6138    0.7346 C   0  0  0  0  0  0  0  0  0  0  0  0
    1.5979   -0.3672    0.8677 C   0  0  0  0  0  0  0  0  0  0  0  0
    1.3741   -1.2695   -0.2869 C   0  0  0  0  0  0  0  0  0  0  0  0
    2.1763   -1.7544   -1.0369 O   0  0  0  0  0  0  0  0  0  0  0  0
   -0.0940   -1.4806   -0.3583 C   0  0  0  0  0  0  0  0  0  0  0  0
   -2.6686   -0.6094   -0.0703 H   0  0  0  0  0  0  0  0  0  0  0  0
   -2.2609    0.9869    0.7491 H   0  0  0  0  0  0  0  0  0  0  0  0
   -1.9124   -0.5428    1.6185 H   0  0  0  0  0  0  0  0  0  0  0  0
   -1.3433    1.3468   -1.4965 H   0  0  0  0  0  0  0  0  0  0  0  0
    0.0454    0.3536   -2.0878 H   0  0  0  0  0  0  0  0  0  0  0  0
    1.5827    1.6856   -0.8484 H   0  0  0  0  0  0  0  0  0  0  0  0
    0.1771    2.5720   -0.1255 H   0  0  0  0  0  0  0  0  0  0  0  0
    0.1933    1.0504    1.7099 H   0  0  0  0  0  0  0  0  0  0  0  0
    2.5809    0.1049    0.8873 H   0  0  0  0  0  0  0  0  0  0  0  0
    1.3893   -0.9710    1.7855 H   0  0  0  0  0  0  0  0  0  0  0  0
   -0.4285   -1.6998   -1.3947 H   0  0  0  0  0  0  0  0  0  0  0  0
   -0.4296   -2.2469    0.3668 H   0  0  0  0  0  0  0  0  0  0  0  0
  1  2  1  0
  2  3  1  0
  3  4  1  0
  4  5  1  0
  5  6  1  0
  6  7  1  0
  7  8  2  0
  7  9  1  0
  5  2  1  0
  9  2  1  0
  1 10  1  0
  1 11  1  0
  1 12  1  0
  3 13  1  0
  3 14  1  0
  4 15  1  0
  4 16  1  0
  5 17  1  0
  6 18  1  0
  6 19  1  0
  9 20  1  0
  9 21  1  0
M  END
