
     RDKit          3D

 17 18  0  0  0  0  0  0  0  0999 V2000
   -0.8385    1.6068   -0.3875 C   0  0  0  0  0  0  0  0  0  0  0  0
   -0.3389    0.2448    0.0256 C   0  0  0  0  0  0  0  0  0  0  0  0
    0.4688    0.2150    1.2552 C   0  0  0  0  0  0  0  0  0  0  0  0
    1.5936   -0.4570    1.0707 C   0  0  0  0  0  0  0  0  0  0  0  0
    1.6185   -0.9275   -0.3041 C   0  0  0  0  0  0  0  0  0  0  0  0
    2.5593   -1.5928   -0.7900 O   0  0  0  0  0  0  0  0  0  0  0  0
    0.4089   -0.5162   -1.0146 C   0  0  0  0  0  0  0  0  0  0  0  0
   -0.6333   -1.4414   -1.0443 O   0  0  0  0  0  0  0  0  0  0  0  0
   -1.3522   -0.8591   -0.0100 C   0  0  0  0  0  0  0  0  0  0  0  0
   -0.6764    1.7190   -1.4801 H   0  0  0  0  0  0  0  0  0  0  0  0
   -1.9091    1.6951   -0.1902 H   0  0  0  0  0  0  0  0  0  0  0  0
   -0.2214    2.3463    0.1930 H   0  0  0  0  0  0  0  0  0  0  0  0
    0.1681    0.6885    2.1885 H   0  0  0  0  0  0  0  0  0  0  0  0
    2.3316   -0.5930    1.8667 H   0  0  0  0  0  0  0  0  0  0  0  0
    0.5368   -0.0328   -2.0001 H   0  0  0  0  0  0  0  0  0  0  0  0
   -1.3351   -1.5533    0.8776 H   0  0  0  0  0  0  0  0  0  0  0  0
   -2.3807   -0.5423   -0.2564 H   0  0  0  0  0  0  0  0  0  0  0  0
  1  2  1  0
  2  3  1  0
  3  4  2  0
  4  5  1  0
  5  6  2  0
  5  7  1  0
  7  8  1  0
  8  9  1  0
  7  2  1  0
  9  2  1  0
  1 10  1  0
  1 11  1  0
  1 12  1  0
  3 13  1  0
  4 14  1  0
  7 15  1  0
  9 16  1  0
  9 17  1  0
M  END
