
     RDKit          3D

 20 21  0  0  0  0  0  0  0  0999 V2000
    2.1733    0.3838    0.0713 C   0  0  0  0  0  0  0  0  0  0  0  0
    0.7470    0.2026    0.0531 C   0  0  0  0  0  0  0  0  0  0  0  0
   -0.1851    1.2789    0.5187 C   0  0  0  0  0  0  0  0  0  0  0  0
   -1.5300    0.5824    0.2251 C   0  0  0  0  0  0  0  0  0  0  0  0
   -1.0259   -0.7259   -0.2740 C   0  0  0  0  0  0  0  0  0  0  0  0
   -1.8330   -1.7069   -0.6373 O   0  0  0  0  0  0  0  0  0  0  0  0
    0.1356   -1.0379    0.6804 C   0  0  0  0  0  0  0  0  0  0  0  0
    0.0803   -0.2822   -1.2425 C   0  0  0  0  0  0  0  0  0  0  0  0
    2.4704    1.4234   -0.0335 H   0  0  0  0  0  0  0  0  0  0  0  0
    2.6564   -0.2093   -0.7603 H   0  0  0  0  0  0  0  0  0  0  0  0
    2.6182   -0.0553    1.0042 H   0  0  0  0  0  0  0  0  0  0  0  0
   -0.1183    1.3459    1.6216 H   0  0  0  0  0  0  0  0  0  0  0  0
   -0.0967    2.2277   -0.0067 H   0  0  0  0  0  0  0  0  0  0  0  0
   -2.1682    0.5434    1.1037 H   0  0  0  0  0  0  0  0  0  0  0  0
   -2.0340    1.1594   -0.5994 H   0  0  0  0  0  0  0  0  0  0  0  0
   -2.7371   -1.6123   -0.2384 H   0  0  0  0  0  0  0  0  0  0  0  0
    0.6576   -1.9867    0.4005 H   0  0  0  0  0  0  0  0  0  0  0  0
   -0.1303   -0.9400    1.7366 H   0  0  0  0  0  0  0  0  0  0  0  0
    0.6053   -1.1182   -1.7319 H   0  0  0  0  0  0  0  0  0  0  0  0
   -0.2856    0.5272   -1.8913 H   0  0  0  0  0  0  0  0  0  0  0  0
  1  2  1  0
  2  3  1  0
  3  4  1  0
  4  5  1  0
  5  6  1  0
  5  7  1  0
  5  8  1  0
  7  2  1  0
  8  2  1  0
  1  9  1  0
  1 10  1  0
  1 11  1  0
  3 12  1  0
  3 13  1  0
  4 14  1  0
  4 15  1  0
  6 16  1  0
  7 17  1  0
  7 18  1  0
  8 19  1  0
  8 20  1  0
M  END
