
     RDKit          3D

 17 19  0  0  0  0  0  0  0  0999 V2000
   -1.7764   -0.9991   -0.7960 C   0  0  0  0  0  0  0  0  0  0  0  0
   -0.5689   -0.3982   -0.1911 C   0  0  0  0  0  0  0  0  0  0  0  0
    0.1421   -1.2082    0.6593 O   0  0  0  0  0  0  0  0  0  0  0  0
    1.4810   -0.7777    0.6227 C   0  0  0  0  0  0  0  0  0  0  0  0
    1.3665    0.4582   -0.2462 C   0  0  0  0  0  0  0  0  0  0  0  0
    0.3861   -0.0017   -1.1596 O   0  0  0  0  0  0  0  0  0  0  0  0
    0.6156    1.5019    0.5027 C   0  0  0  0  0  0  0  0  0  0  0  0
   -0.1046    1.1817    1.6457 O   0  0  0  0  0  0  0  0  0  0  0  0
   -0.8100    0.9299    0.4948 C   0  0  0  0  0  0  0  0  0  0  0  0
   -2.5249   -0.2540   -1.0715 H   0  0  0  0  0  0  0  0  0  0  0  0
   -1.4589   -1.5238   -1.7448 H   0  0  0  0  0  0  0  0  0  0  0  0
   -2.2402   -1.8030   -0.1797 H   0  0  0  0  0  0  0  0  0  0  0  0
    1.8718   -0.5064    1.6021 H   0  0  0  0  0  0  0  0  0  0  0  0
    2.1411   -1.5510    0.1720 H   0  0  0  0  0  0  0  0  0  0  0  0
    2.2830    0.7632   -0.7206 H   0  0  0  0  0  0  0  0  0  0  0  0
    0.7578    2.5645    0.2905 H   0  0  0  0  0  0  0  0  0  0  0  0
   -1.5611    1.6238    0.1198 H   0  0  0  0  0  0  0  0  0  0  0  0
  1  2  1  0
  2  3  1  0
  3  4  1  0
  4  5  1  0
  5  6  1  0
  5  7  1  0
  7  8  1  0
  8  9  1  0
  6  2  1  0
  9  7  1  0
  9  2  1  0
  1 10  1  0
  1 11  1  0
  1 12  1  0
  4 13  1  0
  4 14  1  0
  5 15  1  0
  7 16  1  0
  9 17  1  0
M  END
