
     RDKit          3D

 17 18  0  0  0  0  0  0  0  0999 V2000
    2.0595   -0.4833    0.4298 C   0  0  0  0  0  0  0  0  0  0  0  0
    0.7076   -0.2109   -0.2203 C   0  0  0  0  0  0  0  0  0  0  0  0
    0.4770    1.1253   -0.7612 C   0  0  0  0  0  0  0  0  0  0  0  0
   -0.2262    0.7655    0.4771 C   0  0  0  0  0  0  0  0  0  0  0  0
   -1.6237    0.1818    0.3123 C   0  0  0  0  0  0  0  0  0  0  0  0
   -2.1864    0.6203   -0.8921 O   0  0  0  0  0  0  0  0  0  0  0  0
   -1.2881   -1.2815    0.1926 C   0  0  0  0  0  0  0  0  0  0  0  0
   -1.9804   -2.2186    0.6701 O   0  0  0  0  0  0  0  0  0  0  0  0
   -0.1104   -1.3133   -0.5248 O   0  0  0  0  0  0  0  0  0  0  0  0
    2.0926   -0.1579    1.4762 H   0  0  0  0  0  0  0  0  0  0  0  0
    2.8580    0.0114   -0.1640 H   0  0  0  0  0  0  0  0  0  0  0  0
    2.2197   -1.5804    0.4116 H   0  0  0  0  0  0  0  0  0  0  0  0
    1.3410    1.8256   -0.7696 H   0  0  0  0  0  0  0  0  0  0  0  0
   -0.1831    1.3038   -1.6613 H   0  0  0  0  0  0  0  0  0  0  0  0
    0.0989    1.0471    1.4766 H   0  0  0  0  0  0  0  0  0  0  0  0
   -2.2705    0.3818    1.1749 H   0  0  0  0  0  0  0  0  0  0  0  0
   -1.9855   -0.0166   -1.6280 H   0  0  0  0  0  0  0  0  0  0  0  0
  1  2  1  0
  2  3  1  0
  3  4  1  0
  4  5  1  0
  5  6  1  0
  5  7  1  0
  7  8  2  0
  7  9  1  0
  4  2  1  0
  9  2  1  0
  1 10  1  0
  1 11  1  0
  1 12  1  0
  3 13  1  0
  3 14  1  0
  4 15  1  0
  5 16  1  0
  6 17  1  0
M  END
