
     RDKit          3D

 21 23  0  0  0  0  0  0  0  0999 V2000
    2.0461    0.6423   -0.7577 C   0  0  0  0  0  0  0  0  0  0  0  0
    0.8715   -0.0602   -0.1310 C   0  0  0  0  0  0  0  0  0  0  0  0
    0.0697    0.8146    0.7999 C   0  0  0  0  0  0  0  0  0  0  0  0
   -1.2702    0.2257    0.9101 C   0  0  0  0  0  0  0  0  0  0  0  0
   -2.5253    0.5522    0.3318 C   0  0  0  0  0  0  0  0  0  0  0  0
   -1.6316   -0.0354   -0.5910 C   0  0  0  0  0  0  0  0  0  0  0  0
   -1.1531   -1.2817   -0.7697 O   0  0  0  0  0  0  0  0  0  0  0  0
    0.2387   -1.1818   -0.7630 C   0  0  0  0  0  0  0  0  0  0  0  0
    1.0621   -1.4733    0.3960 C   0  0  0  0  0  0  0  0  0  0  0  0
    2.7844    0.8368    0.0391 H   0  0  0  0  0  0  0  0  0  0  0  0
    1.6775    1.6452   -1.0848 H   0  0  0  0  0  0  0  0  0  0  0  0
    2.4652    0.0905   -1.6203 H   0  0  0  0  0  0  0  0  0  0  0  0
    0.0220    1.8471    0.4515 H   0  0  0  0  0  0  0  0  0  0  0  0
    0.5606    0.8419    1.8148 H   0  0  0  0  0  0  0  0  0  0  0  0
   -1.2556   -0.6749    1.5900 H   0  0  0  0  0  0  0  0  0  0  0  0
   -3.4306   -0.0103    0.6500 H   0  0  0  0  0  0  0  0  0  0  0  0
   -2.7858    1.6395    0.2241 H   0  0  0  0  0  0  0  0  0  0  0  0
   -1.1713    0.6648   -1.3517 H   0  0  0  0  0  0  0  0  0  0  0  0
    0.6635   -1.4901   -1.7650 H   0  0  0  0  0  0  0  0  0  0  0  0
    2.0946   -1.8555    0.2349 H   0  0  0  0  0  0  0  0  0  0  0  0
    0.6676   -1.7376    1.3919 H   0  0  0  0  0  0  0  0  0  0  0  0
  1  2  1  0
  2  3  1  0
  3  4  1  0
  4  5  1  0
  5  6  1  0
  6  7  1  0
  7  8  1  0
  8  9  1  0
  8  2  1  0
  9  2  1  0
  6  4  1  0
  1 10  1  0
  1 11  1  0
  1 12  1  0
  3 13  1  0
  3 14  1  0
  4 15  1  0
  5 16  1  0
  5 17  1  0
  6 18  1  0
  8 19  1  0
  9 20  1  0
  9 21  1  0
M  END
