
     RDKit          3D

 21 23  0  0  0  0  0  0  0  0999 V2000
   -1.3292   -0.4952    1.7372 C   0  0  0  0  0  0  0  0  0  0  0  0
   -0.5709   -0.3274    0.4129 C   0  0  0  0  0  0  0  0  0  0  0  0
   -1.3593   -0.0407   -0.7833 C   0  0  0  0  0  0  0  0  0  0  0  0
   -0.9728   -0.4915   -2.0522 O   0  0  0  0  0  0  0  0  0  0  0  0
   -0.6601    1.0777   -0.1224 C   0  0  0  0  0  0  0  0  0  0  0  0
    0.7142    1.4872   -0.5195 C   0  0  0  0  0  0  0  0  0  0  0  0
    1.6456    0.4578    0.0259 C   0  0  0  0  0  0  0  0  0  0  0  0
    1.7043   -0.8191   -0.7547 C   0  0  0  0  0  0  0  0  0  0  0  0
    0.8444   -0.7446    0.4250 C   0  0  0  0  0  0  0  0  0  0  0  0
   -2.4071   -0.5348    1.5464 H   0  0  0  0  0  0  0  0  0  0  0  0
   -0.9276   -1.4363    2.1838 H   0  0  0  0  0  0  0  0  0  0  0  0
   -1.0426    0.3604    2.4154 H   0  0  0  0  0  0  0  0  0  0  0  0
   -2.4735   -0.0862   -0.6603 H   0  0  0  0  0  0  0  0  0  0  0  0
   -1.2002   -1.4612   -2.0665 H   0  0  0  0  0  0  0  0  0  0  0  0
   -1.2872    1.8312    0.3882 H   0  0  0  0  0  0  0  0  0  0  0  0
    0.7499    1.4902   -1.6461 H   0  0  0  0  0  0  0  0  0  0  0  0
    0.9504    2.4816   -0.1254 H   0  0  0  0  0  0  0  0  0  0  0  0
    2.4402    0.7349    0.7324 H   0  0  0  0  0  0  0  0  0  0  0  0
    1.3294   -0.7961   -1.7977 H   0  0  0  0  0  0  0  0  0  0  0  0
    2.6624   -1.3584   -0.6692 H   0  0  0  0  0  0  0  0  0  0  0  0
    1.1897   -1.3296    1.3301 H   0  0  0  0  0  0  0  0  0  0  0  0
  1  2  1  0
  2  3  1  0
  3  4  1  0
  3  5  1  0
  5  6  1  0
  6  7  1  0
  7  8  1  0
  8  9  1  0
  5  2  1  0
  9  7  1  0
  9  2  1  0
  1 10  1  0
  1 11  1  0
  1 12  1  0
  3 13  1  0
  4 14  1  0
  5 15  1  0
  6 16  1  0
  6 17  1  0
  7 18  1  0
  8 19  1  0
  8 20  1  0
  9 21  1  0
M  END
