
     RDKit          3D

 21 22  0  0  0  0  0  0  0  0999 V2000
   -0.8972    1.8476   -0.0170 C   0  0  0  0  0  0  0  0  0  0  0  0
   -0.7659    0.4083   -0.2723 C   0  0  0  0  0  0  0  0  0  0  0  0
   -1.9225   -0.5413   -0.0049 C   0  0  0  0  0  0  0  0  0  0  0  0
   -0.9266   -1.5312    0.5007 C   0  0  0  0  0  0  0  0  0  0  0  0
    0.1637   -0.5472    0.1963 C   0  0  0  0  0  0  0  0  0  0  0  0
    1.4461   -0.5125    0.8638 C   0  0  0  0  0  0  0  0  0  0  0  0
    2.4681    0.2052    0.0569 C   0  0  0  0  0  0  0  0  0  0  0  0
    2.6081    1.4088    0.0362 O   0  0  0  0  0  0  0  0  0  0  0  0
    0.1845   -0.0636   -1.2886 C   0  0  0  0  0  0  0  0  0  0  0  0
    0.0541    2.3595   -0.2520 H   0  0  0  0  0  0  0  0  0  0  0  0
   -1.6487    2.2731   -0.7462 H   0  0  0  0  0  0  0  0  0  0  0  0
   -1.2028    2.1199    1.0269 H   0  0  0  0  0  0  0  0  0  0  0  0
   -2.3983   -0.8162   -0.9846 H   0  0  0  0  0  0  0  0  0  0  0  0
   -2.6603   -0.1605    0.7092 H   0  0  0  0  0  0  0  0  0  0  0  0
   -1.0810   -1.7591    1.5445 H   0  0  0  0  0  0  0  0  0  0  0  0
   -0.8552   -2.3991   -0.1993 H   0  0  0  0  0  0  0  0  0  0  0  0
    1.8330   -1.5530    1.0200 H   0  0  0  0  0  0  0  0  0  0  0  0
    1.4709   -0.0635    1.8806 H   0  0  0  0  0  0  0  0  0  0  0  0
    3.1349   -0.3748   -0.5545 H   0  0  0  0  0  0  0  0  0  0  0  0
    1.0124    0.6055   -1.5544 H   0  0  0  0  0  0  0  0  0  0  0  0
   -0.0173   -0.9060   -1.9616 H   0  0  0  0  0  0  0  0  0  0  0  0
  1  2  1  0
  2  3  1  0
  3  4  1  0
  4  5  1  0
  5  6  1  0
  6  7  1  0
  7  8  2  0
  5  9  1  0
  5  2  1  0
  9  2  1  0
  1 10  1  0
  1 11  1  0
  1 12  1  0
  3 13  1  0
  3 14  1  0
  4 15  1  0
  4 16  1  0
  6 17  1  0
  6 18  1  0
  7 19  1  0
  9 20  1  0
  9 21  1  0
M  END
