
     RDKit          3D

 16 17  0  0  0  0  0  0  0  0999 V2000
    1.9105   -0.5835    0.0216 C   0  0  0  0  0  0  0  0  0  0  0  0
    0.4916   -0.2992   -0.0818 C   0  0  0  0  0  0  0  0  0  0  0  0
    0.0713    1.1688   -0.2453 C   0  0  0  0  0  0  0  0  0  0  0  0
   -1.2143    0.5933    0.3428 C   0  0  0  0  0  0  0  0  0  0  0  0
   -1.5805   -0.4045   -0.7139 C   0  0  0  0  0  0  0  0  0  0  0  0
   -0.2928   -0.9196   -1.0161 O   0  0  0  0  0  0  0  0  0  0  0  0
   -0.3117   -0.2434    1.1896 C   0  0  0  0  0  0  0  0  0  0  0  0
   -0.3229   -0.6214    2.3208 O   0  0  0  0  0  0  0  0  0  0  0  0
    2.4828    0.3391    0.2447 H   0  0  0  0  0  0  0  0  0  0  0  0
    2.3064   -0.9898   -0.9188 H   0  0  0  0  0  0  0  0  0  0  0  0
    2.0908   -1.3643    0.8021 H   0  0  0  0  0  0  0  0  0  0  0  0
   -0.1240    1.4645   -1.2943 H   0  0  0  0  0  0  0  0  0  0  0  0
    0.5998    1.8747    0.3868 H   0  0  0  0  0  0  0  0  0  0  0  0
   -1.9160    1.2307    0.7824 H   0  0  0  0  0  0  0  0  0  0  0  0
   -2.0734    0.0053   -1.5905 H   0  0  0  0  0  0  0  0  0  0  0  0
   -2.1177   -1.2508   -0.2299 H   0  0  0  0  0  0  0  0  0  0  0  0
  1  2  1  0
  2  3  1  0
  3  4  1  0
  4  5  1  0
  5  6  1  0
  4  7  1  0
  7  8  2  0
  6  2  1  0
  7  2  1  0
  1  9  1  0
  1 10  1  0
  1 11  1  0
  3 12  1  0
  3 13  1  0
  4 14  1  0
  5 15  1  0
  5 16  1  0
M  END
