
     RDKit          3D

 23 24  0  0  0  0  0  0  0  0999 V2000
   -2.0187   -0.7073   -0.9906 C   0  0  0  0  0  0  0  0  0  0  0  0
   -0.6926   -0.5086   -0.6806 C   0  0  0  0  0  0  0  0  0  0  0  0
    0.2614   -1.5258   -0.1190 C   0  0  0  0  0  0  0  0  0  0  0  0
    1.0203   -0.2632   -0.3481 C   0  0  0  0  0  0  0  0  0  0  0  0
    2.3700   -0.0466   -0.1539 C   0  0  0  0  0  0  0  0  0  0  0  0
    0.3308   -0.1599   -1.5552 O   0  0  0  0  0  0  0  0  0  0  0  0
   -0.1149    0.4859    0.2711 C   0  0  0  0  0  0  0  0  0  0  0  0
   -0.1507    1.9177   -0.1218 C   0  0  0  0  0  0  0  0  0  0  0  0
   -0.4548    0.1498    1.6885 C   0  0  0  0  0  0  0  0  0  0  0  0
   -2.4770   -1.6238   -0.5145 H   0  0  0  0  0  0  0  0  0  0  0  0
   -2.2313   -0.8519   -2.0903 H   0  0  0  0  0  0  0  0  0  0  0  0
   -2.7111    0.1243   -0.6832 H   0  0  0  0  0  0  0  0  0  0  0  0
    0.5667   -2.3226   -0.8117 H   0  0  0  0  0  0  0  0  0  0  0  0
    0.0991   -1.8437    0.9105 H   0  0  0  0  0  0  0  0  0  0  0  0
    2.6083    1.0044    0.1809 H   0  0  0  0  0  0  0  0  0  0  0  0
    2.8279   -0.6954    0.6217 H   0  0  0  0  0  0  0  0  0  0  0  0
    2.9939   -0.1883   -1.0685 H   0  0  0  0  0  0  0  0  0  0  0  0
    0.6412    2.1618   -0.8720 H   0  0  0  0  0  0  0  0  0  0  0  0
   -1.1329    2.1553   -0.5954 H   0  0  0  0  0  0  0  0  0  0  0  0
    0.0659    2.5520    0.7581 H   0  0  0  0  0  0  0  0  0  0  0  0
   -0.8693    1.0740    2.1599 H   0  0  0  0  0  0  0  0  0  0  0  0
   -1.3022   -0.5947    1.7499 H   0  0  0  0  0  0  0  0  0  0  0  0
    0.3699   -0.2934    2.2640 H   0  0  0  0  0  0  0  0  0  0  0  0
  1  2  1  0
  2  3  1  0
  3  4  1  0
  4  5  1  0
  4  6  1  0
  4  7  1  0
  7  8  1  0
  7  9  1  0
  6  2  1  0
  7  2  1  0
  1 10  1  0
  1 11  1  0
  1 12  1  0
  3 13  1  0
  3 14  1  0
  5 15  1  0
  5 16  1  0
  5 17  1  0
  8 18  1  0
  8 19  1  0
  8 20  1  0
  9 21  1  0
  9 22  1  0
  9 23  1  0
M  END
