
     RDKit          3D

 19 22  0  0  0  0  0  0  0  0999 V2000
   -2.1458   -0.8395    0.1005 C   0  0  0  0  0  0  0  0  0  0  0  0
   -0.8214   -0.2103    0.0497 C   0  0  0  0  0  0  0  0  0  0  0  0
   -0.4613    0.9729   -0.7205 C   0  0  0  0  0  0  0  0  0  0  0  0
    0.5561    1.6875    0.1317 C   0  0  0  0  0  0  0  0  0  0  0  0
    1.2656    0.5334    0.8214 C   0  0  0  0  0  0  0  0  0  0  0  0
    0.2866   -0.5264    0.9872 C   0  0  0  0  0  0  0  0  0  0  0  0
    1.2329   -0.5523   -0.1485 C   0  0  0  0  0  0  0  0  0  0  0  0
    2.1851   -1.4925   -0.3344 O   0  0  0  0  0  0  0  0  0  0  0  0
    0.1112   -0.3051   -1.0917 C   0  0  0  0  0  0  0  0  0  0  0  0
   -2.5397   -1.2430   -0.8435 H   0  0  0  0  0  0  0  0  0  0  0  0
   -2.8925   -0.0678    0.4528 H   0  0  0  0  0  0  0  0  0  0  0  0
   -2.1605   -1.6292    0.8721 H   0  0  0  0  0  0  0  0  0  0  0  0
   -1.2082    1.5317   -1.2962 H   0  0  0  0  0  0  0  0  0  0  0  0
    1.2991    2.2548   -0.4461 H   0  0  0  0  0  0  0  0  0  0  0  0
   -0.0050    2.3214    0.8524 H   0  0  0  0  0  0  0  0  0  0  0  0
    2.1010    0.7235    1.4901 H   0  0  0  0  0  0  0  0  0  0  0  0
    0.2350   -1.2593    1.7695 H   0  0  0  0  0  0  0  0  0  0  0  0
    3.0231   -1.0305   -0.6565 H   0  0  0  0  0  0  0  0  0  0  0  0
   -0.0615   -0.8693   -1.9899 H   0  0  0  0  0  0  0  0  0  0  0  0
  1  2  1  0
  2  3  1  0
  3  4  1  0
  4  5  1  0
  5  6  1  0
  6  7  1  0
  7  8  1  0
  7  9  1  0
  6  2  1  0
  9  2  1  0
  9  3  1  0
  7  5  1  0
  1 10  1  0
  1 11  1  0
  1 12  1  0
  3 13  1  0
  4 14  1  0
  4 15  1  0
  5 16  1  0
  6 17  1  0
  8 18  1  0
  9 19  1  0
M  END
