
     RDKit          3D

 21 23  0  0  0  0  0  0  0  0999 V2000
   -2.0646   -1.2854    0.8532 C   0  0  0  0  0  0  0  0  0  0  0  0
   -1.1282   -0.0927    0.7948 C   0  0  0  0  0  0  0  0  0  0  0  0
   -1.4789    1.0186    1.5216 O   0  0  0  0  0  0  0  0  0  0  0  0
   -1.7724    1.1466    0.1903 C   0  0  0  0  0  0  0  0  0  0  0  0
   -0.7150    1.1312   -0.8635 C   0  0  0  0  0  0  0  0  0  0  0  0
   -0.0482   -0.0714   -0.2196 C   0  0  0  0  0  0  0  0  0  0  0  0
    1.3332    0.3008    0.2587 C   0  0  0  0  0  0  0  0  0  0  0  0
    2.3809    0.2928   -0.8735 C   0  0  0  0  0  0  0  0  0  0  0  0
    2.4456   -0.6459    0.2623 C   0  0  0  0  0  0  0  0  0  0  0  0
   -3.0652   -1.0586    0.4283 H   0  0  0  0  0  0  0  0  0  0  0  0
   -1.6613   -2.1478    0.3165 H   0  0  0  0  0  0  0  0  0  0  0  0
   -2.2487   -1.6128    1.9040 H   0  0  0  0  0  0  0  0  0  0  0  0
   -2.8159    1.0856   -0.1728 H   0  0  0  0  0  0  0  0  0  0  0  0
   -1.1041    0.8720   -1.8672 H   0  0  0  0  0  0  0  0  0  0  0  0
   -0.1117    2.0583   -0.8559 H   0  0  0  0  0  0  0  0  0  0  0  0
   -0.0639   -0.9816   -0.8538 H   0  0  0  0  0  0  0  0  0  0  0  0
    1.4016    1.1549    0.9636 H   0  0  0  0  0  0  0  0  0  0  0  0
    3.0453    1.1724   -0.9529 H   0  0  0  0  0  0  0  0  0  0  0  0
    2.0822   -0.1169   -1.8540 H   0  0  0  0  0  0  0  0  0  0  0  0
    2.3212   -1.7329    0.0203 H   0  0  0  0  0  0  0  0  0  0  0  0
    3.2681   -0.4871    0.9999 H   0  0  0  0  0  0  0  0  0  0  0  0
  1  2  1  0
  2  3  1  0
  3  4  1  0
  4  5  1  0
  5  6  1  0
  6  7  1  0
  7  8  1  0
  8  9  1  0
  4  2  1  0
  9  7  1  0
  6  2  1  0
  1 10  1  0
  1 11  1  0
  1 12  1  0
  4 13  1  0
  5 14  1  0
  5 15  1  0
  6 16  1  0
  7 17  1  0
  8 18  1  0
  8 19  1  0
  9 20  1  0
  9 21  1  0
M  END
