
     RDKit          3D

 19 20  0  0  0  0  0  0  0  0999 V2000
    2.3579    0.2868   -0.0586 C   0  0  0  0  0  0  0  0  0  0  0  0
    0.8553    0.1142   -0.1031 C   0  0  0  0  0  0  0  0  0  0  0  0
    0.1865    1.2222   -0.8367 C   0  0  0  0  0  0  0  0  0  0  0  0
   -1.0965    1.4313   -0.5791 C   0  0  0  0  0  0  0  0  0  0  0  0
   -1.8339    0.3015    0.0929 C   0  0  0  0  0  0  0  0  0  0  0  0
   -0.9111   -0.5271    0.9532 C   0  0  0  0  0  0  0  0  0  0  0  0
   -0.3812   -1.7288    0.1815 C   0  0  0  0  0  0  0  0  0  0  0  0
    0.5755   -1.1227   -0.6222 O   0  0  0  0  0  0  0  0  0  0  0  0
    0.3063    0.1327    1.2015 O   0  0  0  0  0  0  0  0  0  0  0  0
    2.7453   -0.3855    0.7320 H   0  0  0  0  0  0  0  0  0  0  0  0
    2.6817    1.3146    0.0969 H   0  0  0  0  0  0  0  0  0  0  0  0
    2.7555   -0.1086   -1.0203 H   0  0  0  0  0  0  0  0  0  0  0  0
    0.6888    1.8361   -1.5419 H   0  0  0  0  0  0  0  0  0  0  0  0
   -1.6137    2.3641   -0.8310 H   0  0  0  0  0  0  0  0  0  0  0  0
   -2.7208    0.6680    0.6316 H   0  0  0  0  0  0  0  0  0  0  0  0
   -2.1850   -0.3518   -0.7561 H   0  0  0  0  0  0  0  0  0  0  0  0
   -1.4008   -0.8324    1.9030 H   0  0  0  0  0  0  0  0  0  0  0  0
   -1.1612   -2.2555   -0.3653 H   0  0  0  0  0  0  0  0  0  0  0  0
    0.1515   -2.3590    0.9217 H   0  0  0  0  0  0  0  0  0  0  0  0
  1  2  1  0
  2  3  1  0
  3  4  2  0
  4  5  1  0
  5  6  1  0
  6  7  1  0
  7  8  1  0
  6  9  1  0
  8  2  1  0
  9  2  1  0
  1 10  1  0
  1 11  1  0
  1 12  1  0
  3 13  1  0
  4 14  1  0
  5 15  1  0
  5 16  1  0
  6 17  1  0
  7 18  1  0
  7 19  1  0
M  END
