
     RDKit          3D

 21 23  0  0  0  0  0  0  0  0999 V2000
   -0.9180   -1.6919    0.1533 C   0  0  0  0  0  0  0  0  0  0  0  0
   -0.8042   -0.2798   -0.3175 C   0  0  0  0  0  0  0  0  0  0  0  0
   -2.0590    0.5131   -0.4408 C   0  0  0  0  0  0  0  0  0  0  0  0
   -1.4647    1.6969    0.2903 C   0  0  0  0  0  0  0  0  0  0  0  0
   -0.3243    0.7899    0.6901 C   0  0  0  0  0  0  0  0  0  0  0  0
    0.5394    0.3183   -0.4129 C   0  0  0  0  0  0  0  0  0  0  0  0
    1.7174   -0.5157   -0.0266 C   0  0  0  0  0  0  0  0  0  0  0  0
    3.0647    0.0831   -0.1221 C   0  0  0  0  0  0  0  0  0  0  0  0
    2.5439   -0.9535   -1.0627 O   0  0  0  0  0  0  0  0  0  0  0  0
   -1.6750   -2.1987   -0.4951 H   0  0  0  0  0  0  0  0  0  0  0  0
    0.0130   -2.2626    0.0895 H   0  0  0  0  0  0  0  0  0  0  0  0
   -1.2948   -1.7917    1.1914 H   0  0  0  0  0  0  0  0  0  0  0  0
   -2.8734    0.0664    0.1688 H   0  0  0  0  0  0  0  0  0  0  0  0
   -2.4323    0.7209   -1.4485 H   0  0  0  0  0  0  0  0  0  0  0  0
   -2.0548    2.0938    1.1276 H   0  0  0  0  0  0  0  0  0  0  0  0
   -1.1630    2.4698   -0.4622 H   0  0  0  0  0  0  0  0  0  0  0  0
   -0.2481    0.4082    1.7172 H   0  0  0  0  0  0  0  0  0  0  0  0
    0.6839    1.0417   -1.2431 H   0  0  0  0  0  0  0  0  0  0  0  0
    1.5670   -1.1878    0.8580 H   0  0  0  0  0  0  0  0  0  0  0  0
    3.2701    0.9880   -0.7116 H   0  0  0  0  0  0  0  0  0  0  0  0
    3.9120   -0.3084    0.4569 H   0  0  0  0  0  0  0  0  0  0  0  0
  1  2  1  0
  2  3  1  0
  3  4  1  0
  4  5  1  0
  5  6  1  0
  6  7  1  0
  7  8  1  0
  8  9  1  0
  5  2  1  0
  9  7  1  0
  6  2  1  0
  1 10  1  0
  1 11  1  0
  1 12  1  0
  3 13  1  0
  3 14  1  0
  4 15  1  0
  4 16  1  0
  5 17  1  0
  6 18  1  0
  7 19  1  0
  8 20  1  0
  8 21  1  0
M  END
