
     RDKit          3D

 19 21  0  0  0  0  0  0  0  0999 V2000
    1.2094   -0.6528    0.9794 C   0  0  0  0  0  0  0  0  0  0  0  0
    0.3912   -0.3613   -0.1400 C   0  0  0  0  0  0  0  0  0  0  0  0
    0.0786    1.2925   -0.4157 C   0  0  0  0  0  0  0  0  0  0  0  0
   -1.1807    1.3282   -0.0683 C   0  0  0  0  0  0  0  0  0  0  0  0
   -1.6425   -0.0285    0.2839 C   0  0  0  0  0  0  0  0  0  0  0  0
   -1.2185   -0.3632    1.5270 O   0  0  0  0  0  0  0  0  0  0  0  0
   -0.7390   -0.7980   -0.7409 C   0  0  0  0  0  0  0  0  0  0  0  0
    0.5354   -0.3175   -1.4715 C   0  0  0  0  0  0  0  0  0  0  0  0
    1.4123    0.8980   -0.8300 C   0  0  0  0  0  0  0  0  0  0  0  0
    0.7077   -1.4634    1.6142 H   0  0  0  0  0  0  0  0  0  0  0  0
    2.2421   -1.0856    0.7485 H   0  0  0  0  0  0  0  0  0  0  0  0
    1.4415    0.1854    1.7023 H   0  0  0  0  0  0  0  0  0  0  0  0
   -1.7970    2.2091   -0.0404 H   0  0  0  0  0  0  0  0  0  0  0  0
   -2.6741   -0.2343    0.0223 H   0  0  0  0  0  0  0  0  0  0  0  0
   -1.8028   -1.0071    1.9998 H   0  0  0  0  0  0  0  0  0  0  0  0
   -1.0625   -1.7761   -1.0499 H   0  0  0  0  0  0  0  0  0  0  0  0
    0.1083    0.1565   -2.3565 H   0  0  0  0  0  0  0  0  0  0  0  0
    2.0968    0.5519   -0.1217 H   0  0  0  0  0  0  0  0  0  0  0  0
    1.8936    1.4664   -1.6424 H   0  0  0  0  0  0  0  0  0  0  0  0
  1  2  1  0
  2  3  1  0
  3  4  2  0
  4  5  1  0
  5  6  1  0
  5  7  1  0
  7  8  1  0
  8  9  1  0
  7  2  1  0
  8  2  1  0
  9  3  1  0
  1 10  1  0
  1 11  1  0
  1 12  1  0
  4 13  1  0
  5 14  1  0
  6 15  1  0
  7 16  1  0
  8 17  1  0
  9 18  1  0
  9 19  1  0
M  END
