
     RDKit          3D

 15 17  0  0  0  0  0  0  0  0999 V2000
   -2.0643    0.0141   -0.0147 C   0  0  0  0  0  0  0  0  0  0  0  0
   -0.5732    0.1094   -0.1968 C   0  0  0  0  0  0  0  0  0  0  0  0
    0.0172    1.2928   -0.5511 O   0  0  0  0  0  0  0  0  0  0  0  0
    1.1805    0.9643    0.1414 C   0  0  0  0  0  0  0  0  0  0  0  0
    2.0407    0.0645   -0.6711 C   0  0  0  0  0  0  0  0  0  0  0  0
    3.1275    0.3583   -1.2117 O   0  0  0  0  0  0  0  0  0  0  0  0
    1.4480   -1.1855   -0.7464 O   0  0  0  0  0  0  0  0  0  0  0  0
    0.2000   -1.1407   -0.0380 C   0  0  0  0  0  0  0  0  0  0  0  0
    0.3697   -0.0430    0.9007 C   0  0  0  0  0  0  0  0  0  0  0  0
   -2.5512    0.9790    0.1775 H   0  0  0  0  0  0  0  0  0  0  0  0
   -2.2709   -0.6630    0.8556 H   0  0  0  0  0  0  0  0  0  0  0  0
   -2.4922   -0.4384   -0.9314 H   0  0  0  0  0  0  0  0  0  0  0  0
    1.6718    1.7521    0.6956 H   0  0  0  0  0  0  0  0  0  0  0  0
   -0.2862   -2.0505    0.2771 H   0  0  0  0  0  0  0  0  0  0  0  0
    0.1827   -0.0134    1.9484 H   0  0  0  0  0  0  0  0  0  0  0  0
  1  2  1  0
  2  3  1  0
  3  4  1  0
  4  5  1  0
  5  6  2  0
  5  7  1  0
  7  8  1  0
  8  9  1  0
  8  2  1  0
  9  2  1  0
  9  4  1  0
  1 10  1  0
  1 11  1  0
  1 12  1  0
  4 13  1  0
  8 14  1  0
  9 15  1  0
M  END
