
     RDKit          3D

 17 18  0  0  0  0  0  0  0  0999 V2000
   -1.6927   -1.1024   -0.1073 C   0  0  0  0  0  0  0  0  0  0  0  0
   -0.4980   -0.2478   -0.0268 C   0  0  0  0  0  0  0  0  0  0  0  0
   -0.7670    1.1895    0.3531 C   0  0  0  0  0  0  0  0  0  0  0  0
    0.4323    1.8004   -0.0832 O   0  0  0  0  0  0  0  0  0  0  0  0
    1.1249    0.8620   -0.8187 C   0  0  0  0  0  0  0  0  0  0  0  0
    1.8263   -0.0668    0.1632 C   0  0  0  0  0  0  0  0  0  0  0  0
    0.6574   -0.8187    0.6807 C   0  0  0  0  0  0  0  0  0  0  0  0
    0.6615   -1.6930    1.4924 O   0  0  0  0  0  0  0  0  0  0  0  0
    0.1104   -0.0114   -1.2918 O   0  0  0  0  0  0  0  0  0  0  0  0
   -1.4082   -2.1507   -0.1654 H   0  0  0  0  0  0  0  0  0  0  0  0
   -2.3408   -0.9147    0.7693 H   0  0  0  0  0  0  0  0  0  0  0  0
   -2.2529   -0.8352   -1.0439 H   0  0  0  0  0  0  0  0  0  0  0  0
   -0.9583    1.3460    1.4111 H   0  0  0  0  0  0  0  0  0  0  0  0
   -1.5523    1.5617   -0.3298 H   0  0  0  0  0  0  0  0  0  0  0  0
    1.7571    1.2425   -1.6030 H   0  0  0  0  0  0  0  0  0  0  0  0
    2.5800   -0.7027   -0.3170 H   0  0  0  0  0  0  0  0  0  0  0  0
    2.3204    0.5414    0.9169 H   0  0  0  0  0  0  0  0  0  0  0  0
  1  2  1  0
  2  3  1  0
  3  4  1  0
  4  5  1  0
  5  6  1  0
  6  7  1  0
  7  8  2  0
  5  9  1  0
  7  2  1  0
  9  2  1  0
  1 10  1  0
  1 11  1  0
  1 12  1  0
  3 13  1  0
  3 14  1  0
  5 15  1  0
  6 16  1  0
  6 17  1  0
M  END
