
     RDKit          3D

 21 22  0  0  0  0  0  0  0  0999 V2000
    2.2945   -0.2408    0.1838 C   0  0  0  0  0  0  0  0  0  0  0  0
    0.8314   -0.0402    0.0066 C   0  0  0  0  0  0  0  0  0  0  0  0
    0.4256    1.3925   -0.0671 C   0  0  0  0  0  0  0  0  0  0  0  0
   -0.8748    1.6034   -0.2583 C   0  0  0  0  0  0  0  0  0  0  0  0
   -1.6750    0.3269   -0.3942 C   0  0  0  0  0  0  0  0  0  0  0  0
   -0.9785   -0.4354   -1.4987 C   0  0  0  0  0  0  0  0  0  0  0  0
    0.3112   -0.6656   -1.2670 C   0  0  0  0  0  0  0  0  0  0  0  0
   -1.4481   -0.4903    0.8616 C   0  0  0  0  0  0  0  0  0  0  0  0
    0.0105   -0.6354    1.1568 C   0  0  0  0  0  0  0  0  0  0  0  0
    2.6588    0.5568    0.8801 H   0  0  0  0  0  0  0  0  0  0  0  0
    2.4578   -1.2579    0.5941 H   0  0  0  0  0  0  0  0  0  0  0  0
    2.7805   -0.1499   -0.8103 H   0  0  0  0  0  0  0  0  0  0  0  0
    1.1389    2.1909    0.0283 H   0  0  0  0  0  0  0  0  0  0  0  0
   -1.3266    2.5648   -0.3131 H   0  0  0  0  0  0  0  0  0  0  0  0
   -2.7234    0.5090   -0.6045 H   0  0  0  0  0  0  0  0  0  0  0  0
   -1.5212   -0.7463   -2.3819 H   0  0  0  0  0  0  0  0  0  0  0  0
    0.9668   -1.2436   -1.9067 H   0  0  0  0  0  0  0  0  0  0  0  0
   -1.8592   -1.5159    0.6272 H   0  0  0  0  0  0  0  0  0  0  0  0
   -2.0319   -0.1052    1.7225 H   0  0  0  0  0  0  0  0  0  0  0  0
    0.3346   -1.6523    1.4005 H   0  0  0  0  0  0  0  0  0  0  0  0
    0.2281    0.0343    2.0404 H   0  0  0  0  0  0  0  0  0  0  0  0
  1  2  1  0
  2  3  1  0
  3  4  2  0
  4  5  1  0
  5  6  1  0
  6  7  2  0
  5  8  1  0
  8  9  1  0
  7  2  1  0
  9  2  1  0
  1 10  1  0
  1 11  1  0
  1 12  1  0
  3 13  1  0
  4 14  1  0
  5 15  1  0
  6 16  1  0
  7 17  1  0
  8 18  1  0
  8 19  1  0
  9 20  1  0
  9 21  1  0
M  END
