
     RDKit          3D

 19 20  0  0  0  0  0  0  0  0999 V2000
   -1.6121    0.6637   -0.7431 C   0  0  0  0  0  0  0  0  0  0  0  0
   -0.4927   -0.0373   -0.1519 C   0  0  0  0  0  0  0  0  0  0  0  0
   -0.4676   -0.1905    1.3158 C   0  0  0  0  0  0  0  0  0  0  0  0
    0.8047   -0.5151    1.6387 C   0  0  0  0  0  0  0  0  0  0  0  0
    1.6016   -0.5110    0.3791 C   0  0  0  0  0  0  0  0  0  0  0  0
    1.1914   -1.6091   -0.3612 O   0  0  0  0  0  0  0  0  0  0  0  0
   -0.1226   -1.3749   -0.7677 C   0  0  0  0  0  0  0  0  0  0  0  0
    0.8825    0.6271   -0.3719 C   0  0  0  0  0  0  0  0  0  0  0  0
    0.9801    1.8163    0.2913 O   0  0  0  0  0  0  0  0  0  0  0  0
   -2.1009    1.3259    0.0183 H   0  0  0  0  0  0  0  0  0  0  0  0
   -1.2625    1.3161   -1.5793 H   0  0  0  0  0  0  0  0  0  0  0  0
   -2.4138    0.0239   -1.1463 H   0  0  0  0  0  0  0  0  0  0  0  0
   -1.2713   -0.0764    2.0174 H   0  0  0  0  0  0  0  0  0  0  0  0
    1.1931   -0.7384    2.6119 H   0  0  0  0  0  0  0  0  0  0  0  0
    2.6480   -0.3683    0.4812 H   0  0  0  0  0  0  0  0  0  0  0  0
   -0.0580   -1.1793   -1.8781 H   0  0  0  0  0  0  0  0  0  0  0  0
   -0.8147   -2.1763   -0.5228 H   0  0  0  0  0  0  0  0  0  0  0  0
    1.1547    0.6490   -1.4299 H   0  0  0  0  0  0  0  0  0  0  0  0
    0.1600    2.3546    0.1985 H   0  0  0  0  0  0  0  0  0  0  0  0
  1  2  1  0
  2  3  1  0
  3  4  2  0
  4  5  1  0
  5  6  1  0
  6  7  1  0
  5  8  1  0
  8  9  1  0
  7  2  1  0
  8  2  1  0
  1 10  1  0
  1 11  1  0
  1 12  1  0
  3 13  1  0
  4 14  1  0
  5 15  1  0
  7 16  1  0
  7 17  1  0
  8 18  1  0
  9 19  1  0
M  END
