
     RDKit          3D

 23 25  0  0  0  0  0  0  0  0999 V2000
    0.3399    2.0206    0.3618 C   0  0  0  0  0  0  0  0  0  0  0  0
    0.4472    0.6032    0.0365 C   0  0  0  0  0  0  0  0  0  0  0  0
    1.4925   -0.2381    0.6833 C   0  0  0  0  0  0  0  0  0  0  0  0
    1.2556   -1.5646   -0.0653 C   0  0  0  0  0  0  0  0  0  0  0  0
    0.0266   -1.1786   -0.8354 C   0  0  0  0  0  0  0  0  0  0  0  0
    0.3064    0.1691   -1.3983 C   0  0  0  0  0  0  0  0  0  0  0  0
   -1.1618    0.4422   -1.2253 C   0  0  0  0  0  0  0  0  0  0  0  0
   -0.7836   -0.2516    0.0457 C   0  0  0  0  0  0  0  0  0  0  0  0
   -1.5745   -0.5973    1.1022 C   0  0  0  0  0  0  0  0  0  0  0  0
    0.6378    2.6307   -0.5341 H   0  0  0  0  0  0  0  0  0  0  0  0
   -0.6747    2.3782    0.6371 H   0  0  0  0  0  0  0  0  0  0  0  0
    1.0214    2.3704    1.1776 H   0  0  0  0  0  0  0  0  0  0  0  0
    2.5166    0.1209    0.5289 H   0  0  0  0  0  0  0  0  0  0  0  0
    1.3018   -0.4263    1.7710 H   0  0  0  0  0  0  0  0  0  0  0  0
    1.0958   -2.3890    0.6324 H   0  0  0  0  0  0  0  0  0  0  0  0
    2.1048   -1.7216   -0.7568 H   0  0  0  0  0  0  0  0  0  0  0  0
   -0.4919   -1.9157   -1.4130 H   0  0  0  0  0  0  0  0  0  0  0  0
    0.8882    0.4277   -2.1688 H   0  0  0  0  0  0  0  0  0  0  0  0
   -1.4668    1.4805   -1.1218 H   0  0  0  0  0  0  0  0  0  0  0  0
   -1.7630   -0.2194   -1.8642 H   0  0  0  0  0  0  0  0  0  0  0  0
   -1.3234   -1.5885    1.5649 H   0  0  0  0  0  0  0  0  0  0  0  0
   -1.5296    0.1191    1.9701 H   0  0  0  0  0  0  0  0  0  0  0  0
   -2.6653   -0.6717    0.8715 H   0  0  0  0  0  0  0  0  0  0  0  0
  1  2  1  0
  2  3  1  0
  3  4  1  0
  4  5  1  0
  5  6  1  0
  6  7  1  0
  7  8  1  0
  8  9  1  0
  6  2  1  0
  8  2  1  0
  8  5  1  0
  1 10  1  0
  1 11  1  0
  1 12  1  0
  3 13  1  0
  3 14  1  0
  4 15  1  0
  4 16  1  0
  5 17  1  0
  6 18  1  0
  7 19  1  0
  7 20  1  0
  9 21  1  0
  9 22  1  0
  9 23  1  0
M  END
