
     RDKit          3D

 19 20  0  0  0  0  0  0  0  0999 V2000
    1.3557   -1.3826   -0.8441 C   0  0  0  0  0  0  0  0  0  0  0  0
    0.3198   -0.5346   -0.1781 C   0  0  0  0  0  0  0  0  0  0  0  0
   -1.0022   -1.0625    0.1709 C   0  0  0  0  0  0  0  0  0  0  0  0
   -1.3198   -2.2250    0.1543 O   0  0  0  0  0  0  0  0  0  0  0  0
   -1.8693    0.0727    0.5435 C   0  0  0  0  0  0  0  0  0  0  0  0
   -1.3514    1.1922   -0.3112 C   0  0  0  0  0  0  0  0  0  0  0  0
    0.1158    0.8838   -0.5245 C   0  0  0  0  0  0  0  0  0  0  0  0
    0.9057    0.5983    0.6769 C   0  0  0  0  0  0  0  0  0  0  0  0
    2.2747    0.8006    0.6315 O   0  0  0  0  0  0  0  0  0  0  0  0
    2.1323   -0.7102   -1.2539 H   0  0  0  0  0  0  0  0  0  0  0  0
    1.8468   -1.9941   -0.0415 H   0  0  0  0  0  0  0  0  0  0  0  0
    0.9721   -2.0467   -1.6218 H   0  0  0  0  0  0  0  0  0  0  0  0
   -1.8404    0.3102    1.6243 H   0  0  0  0  0  0  0  0  0  0  0  0
   -2.9547   -0.1428    0.3239 H   0  0  0  0  0  0  0  0  0  0  0  0
   -1.5135    2.1898    0.1146 H   0  0  0  0  0  0  0  0  0  0  0  0
   -1.8770    1.1088   -1.3060 H   0  0  0  0  0  0  0  0  0  0  0  0
    0.6409    1.3572   -1.3803 H   0  0  0  0  0  0  0  0  0  0  0  0
    0.4893    0.6056    1.6995 H   0  0  0  0  0  0  0  0  0  0  0  0
    2.6754    0.9792    1.5223 H   0  0  0  0  0  0  0  0  0  0  0  0
  1  2  1  0
  2  3  1  0
  3  4  2  0
  3  5  1  0
  5  6  1  0
  6  7  1  0
  7  8  1  0
  8  9  1  0
  7  2  1  0
  8  2  1  0
  1 10  1  0
  1 11  1  0
  1 12  1  0
  5 13  1  0
  5 14  1  0
  6 15  1  0
  6 16  1  0
  7 17  1  0
  8 18  1  0
  9 19  1  0
M  END
