
     RDKit          3D

 19 20  0  0  0  0  0  0  0  0999 V2000
    2.3428   -0.1793   -0.0074 C   0  0  0  0  0  0  0  0  0  0  0  0
    0.9128   -0.3361   -0.0955 C   0  0  0  0  0  0  0  0  0  0  0  0
    0.2963   -1.6636    0.2507 C   0  0  0  0  0  0  0  0  0  0  0  0
   -1.0016   -1.3959   -0.0196 C   0  0  0  0  0  0  0  0  0  0  0  0
   -0.9013    0.0217   -0.4693 C   0  0  0  0  0  0  0  0  0  0  0  0
   -2.0780    0.7245   -0.9175 C   0  0  0  0  0  0  0  0  0  0  0  0
    0.2384   -0.0301   -1.2759 O   0  0  0  0  0  0  0  0  0  0  0  0
   -0.0144    0.6191    0.5943 C   0  0  0  0  0  0  0  0  0  0  0  0
    0.2616    1.9689    0.3857 O   0  0  0  0  0  0  0  0  0  0  0  0
    2.7696   -0.9240    0.7086 H   0  0  0  0  0  0  0  0  0  0  0  0
    2.5884    0.8534    0.3682 H   0  0  0  0  0  0  0  0  0  0  0  0
    2.8375   -0.3580   -0.9857 H   0  0  0  0  0  0  0  0  0  0  0  0
    0.7566   -2.5741    0.6127 H   0  0  0  0  0  0  0  0  0  0  0  0
   -1.8687   -2.0403    0.0692 H   0  0  0  0  0  0  0  0  0  0  0  0
   -1.7662    1.5184   -1.6573 H   0  0  0  0  0  0  0  0  0  0  0  0
   -2.5543    1.2843   -0.0876 H   0  0  0  0  0  0  0  0  0  0  0  0
   -2.8027    0.0287   -1.3779 H   0  0  0  0  0  0  0  0  0  0  0  0
   -0.2106    0.3302    1.6249 H   0  0  0  0  0  0  0  0  0  0  0  0
    0.1940    2.1521   -0.5832 H   0  0  0  0  0  0  0  0  0  0  0  0
  1  2  1  0
  2  3  1  0
  3  4  2  0
  4  5  1  0
  5  6  1  0
  5  7  1  0
  5  8  1  0
  8  9  1  0
  7  2  1  0
  8  2  1  0
  1 10  1  0
  1 11  1  0
  1 12  1  0
  3 13  1  0
  4 14  1  0
  6 15  1  0
  6 16  1  0
  6 17  1  0
  8 18  1  0
  9 19  1  0
M  END
