
     RDKit          3D

 19 20  0  0  0  0  0  0  0  0999 V2000
    2.2028   -0.3945   -0.4482 C   0  0  0  0  0  0  0  0  0  0  0  0
    0.7442   -0.2564   -0.2524 C   0  0  0  0  0  0  0  0  0  0  0  0
    0.1305   -1.0398    0.8488 C   0  0  0  0  0  0  0  0  0  0  0  0
   -1.1974   -1.1107    0.8718 C   0  0  0  0  0  0  0  0  0  0  0  0
   -1.9157   -0.0650    0.0577 C   0  0  0  0  0  0  0  0  0  0  0  0
   -0.9142    0.4934   -0.9081 C   0  0  0  0  0  0  0  0  0  0  0  0
   -0.0555   -0.4939   -1.3925 O   0  0  0  0  0  0  0  0  0  0  0  0
    0.2487    1.1653   -0.2851 C   0  0  0  0  0  0  0  0  0  0  0  0
    0.0990    1.7983    0.9068 O   0  0  0  0  0  0  0  0  0  0  0  0
    2.6328   -0.9257    0.4271 H   0  0  0  0  0  0  0  0  0  0  0  0
    2.5038   -0.9172   -1.3832 H   0  0  0  0  0  0  0  0  0  0  0  0
    2.7469    0.5926   -0.4872 H   0  0  0  0  0  0  0  0  0  0  0  0
    0.7512   -1.5200    1.5841 H   0  0  0  0  0  0  0  0  0  0  0  0
   -1.7415   -1.8667    1.4355 H   0  0  0  0  0  0  0  0  0  0  0  0
   -2.7461   -0.4894   -0.5175 H   0  0  0  0  0  0  0  0  0  0  0  0
   -2.3170    0.6549    0.7658 H   0  0  0  0  0  0  0  0  0  0  0  0
   -1.3851    1.1181   -1.7039 H   0  0  0  0  0  0  0  0  0  0  0  0
    0.8192    1.7585   -1.0117 H   0  0  0  0  0  0  0  0  0  0  0  0
   -0.6066    1.4982    1.4921 H   0  0  0  0  0  0  0  0  0  0  0  0
  1  2  1  0
  2  3  1  0
  3  4  2  0
  4  5  1  0
  5  6  1  0
  6  7  1  0
  6  8  1  0
  8  9  1  0
  7  2  1  0
  8  2  1  0
  1 10  1  0
  1 11  1  0
  1 12  1  0
  3 13  1  0
  4 14  1  0
  5 15  1  0
  5 16  1  0
  6 17  1  0
  8 18  1  0
  9 19  1  0
M  END
