
     RDKit          3D

 19 20  0  0  0  0  0  0  0  0999 V2000
   -1.4932   -1.1115   -0.5782 C   0  0  0  0  0  0  0  0  0  0  0  0
   -0.7493   -0.0075    0.0783 C   0  0  0  0  0  0  0  0  0  0  0  0
   -1.0716    1.3879   -0.2135 C   0  0  0  0  0  0  0  0  0  0  0  0
    0.0039    2.1611   -0.1533 C   0  0  0  0  0  0  0  0  0  0  0  0
    1.1747    1.3847    0.1843 C   0  0  0  0  0  0  0  0  0  0  0  0
    2.3210    1.7955    0.3699 O   0  0  0  0  0  0  0  0  0  0  0  0
    0.7203   -0.0183    0.2643 C   0  0  0  0  0  0  0  0  0  0  0  0
    1.5637   -1.0470   -0.4475 C   0  0  0  0  0  0  0  0  0  0  0  0
   -0.1248   -0.3606    1.4102 C   0  0  0  0  0  0  0  0  0  0  0  0
   -0.9502   -2.0639   -0.6362 H   0  0  0  0  0  0  0  0  0  0  0  0
   -1.8589   -0.8794   -1.5924 H   0  0  0  0  0  0  0  0  0  0  0  0
   -2.4180   -1.3065    0.0398 H   0  0  0  0  0  0  0  0  0  0  0  0
   -2.0634    1.7465   -0.4492 H   0  0  0  0  0  0  0  0  0  0  0  0
   -0.0085    3.2227   -0.3340 H   0  0  0  0  0  0  0  0  0  0  0  0
    2.1324   -1.6843    0.2550 H   0  0  0  0  0  0  0  0  0  0  0  0
    2.3352   -0.5156   -1.0619 H   0  0  0  0  0  0  0  0  0  0  0  0
    0.9888   -1.6671   -1.1302 H   0  0  0  0  0  0  0  0  0  0  0  0
   -0.2991    0.3711    2.2317 H   0  0  0  0  0  0  0  0  0  0  0  0
   -0.2030   -1.4077    1.7630 H   0  0  0  0  0  0  0  0  0  0  0  0
  1  2  1  0
  2  3  1  0
  3  4  2  0
  4  5  1  0
  5  6  2  0
  5  7  1  0
  7  8  1  0
  7  9  1  0
  7  2  1  0
  9  2  1  0
  1 10  1  0
  1 11  1  0
  1 12  1  0
  3 13  1  0
  4 14  1  0
  8 15  1  0
  8 16  1  0
  8 17  1  0
  9 18  1  0
  9 19  1  0
M  END
