
     RDKit          3D

 21 23  0  0  0  0  0  0  0  0999 V2000
   -1.1514   -1.5020    0.8487 C   0  0  0  0  0  0  0  0  0  0  0  0
   -0.6666   -0.6583   -0.2789 C   0  0  0  0  0  0  0  0  0  0  0  0
    0.3199   -1.1296   -1.2643 C   0  0  0  0  0  0  0  0  0  0  0  0
    0.5892    0.0502   -0.3190 C   0  0  0  0  0  0  0  0  0  0  0  0
    1.6963   -0.0662    0.6576 C   0  0  0  0  0  0  0  0  0  0  0  0
    2.7380    0.7966    0.2485 O   0  0  0  0  0  0  0  0  0  0  0  0
   -0.0865    1.3489   -0.5991 C   0  0  0  0  0  0  0  0  0  0  0  0
   -1.2443    1.8367    0.1727 C   0  0  0  0  0  0  0  0  0  0  0  0
   -1.4149    0.6041   -0.6341 C   0  0  0  0  0  0  0  0  0  0  0  0
   -2.2146   -1.1863    1.0663 H   0  0  0  0  0  0  0  0  0  0  0  0
   -1.2596   -2.5783    0.5254 H   0  0  0  0  0  0  0  0  0  0  0  0
   -0.5961   -1.4105    1.7817 H   0  0  0  0  0  0  0  0  0  0  0  0
    0.8762   -2.0486   -1.0130 H   0  0  0  0  0  0  0  0  0  0  0  0
    0.2061   -0.8067   -2.3101 H   0  0  0  0  0  0  0  0  0  0  0  0
    2.1388   -1.0988    0.5543 H   0  0  0  0  0  0  0  0  0  0  0  0
    1.4440    0.1106    1.6998 H   0  0  0  0  0  0  0  0  0  0  0  0
    3.4366    0.8794    0.9374 H   0  0  0  0  0  0  0  0  0  0  0  0
    0.1659    1.8113   -1.5748 H   0  0  0  0  0  0  0  0  0  0  0  0
   -1.2433    1.7484    1.2694 H   0  0  0  0  0  0  0  0  0  0  0  0
   -1.7457    2.7311   -0.2059 H   0  0  0  0  0  0  0  0  0  0  0  0
   -1.9881    0.5682   -1.5626 H   0  0  0  0  0  0  0  0  0  0  0  0
  1  2  1  0
  2  3  1  0
  3  4  1  0
  4  5  1  0
  5  6  1  0
  4  7  1  0
  7  8  1  0
  8  9  1  0
  4  2  1  0
  9  7  1  0
  9  2  1  0
  1 10  1  0
  1 11  1  0
  1 12  1  0
  3 13  1  0
  3 14  1  0
  5 15  1  0
  5 16  1  0
  6 17  1  0
  7 18  1  0
  8 19  1  0
  8 20  1  0
  9 21  1  0
M  END
