
     RDKit          3D

 21 23  0  0  0  0  0  0  0  0999 V2000
    2.3558    0.4656    0.1899 C   0  0  0  0  0  0  0  0  0  0  0  0
    0.8946    0.1624    0.2114 C   0  0  0  0  0  0  0  0  0  0  0  0
   -0.0876    1.1268    0.7816 C   0  0  0  0  0  0  0  0  0  0  0  0
   -1.0973    0.6057   -0.2454 C   0  0  0  0  0  0  0  0  0  0  0  0
   -1.8985    1.5476   -0.8168 O   0  0  0  0  0  0  0  0  0  0  0  0
   -1.7702   -0.6217    0.3195 C   0  0  0  0  0  0  0  0  0  0  0  0
   -0.7773   -1.7489    0.1974 C   0  0  0  0  0  0  0  0  0  0  0  0
    0.4750   -1.1208   -0.3984 C   0  0  0  0  0  0  0  0  0  0  0  0
    0.0776    0.1150   -1.0310 C   0  0  0  0  0  0  0  0  0  0  0  0
    2.8775   -0.2199   -0.5129 H   0  0  0  0  0  0  0  0  0  0  0  0
    2.7603    0.1885    1.2076 H   0  0  0  0  0  0  0  0  0  0  0  0
    2.6198    1.4978   -0.0298 H   0  0  0  0  0  0  0  0  0  0  0  0
    0.0966    2.2049    0.5460 H   0  0  0  0  0  0  0  0  0  0  0  0
   -0.4139    0.9796    1.8153 H   0  0  0  0  0  0  0  0  0  0  0  0
   -1.4554    2.0815   -1.4946 H   0  0  0  0  0  0  0  0  0  0  0  0
   -2.7481   -0.8359   -0.1196 H   0  0  0  0  0  0  0  0  0  0  0  0
   -1.9036   -0.4353    1.4147 H   0  0  0  0  0  0  0  0  0  0  0  0
   -1.1458   -2.6011   -0.3937 H   0  0  0  0  0  0  0  0  0  0  0  0
   -0.4739   -2.1643    1.1871 H   0  0  0  0  0  0  0  0  0  0  0  0
    1.2347   -1.7444   -0.8526 H   0  0  0  0  0  0  0  0  0  0  0  0
    0.3797    0.5169   -1.9757 H   0  0  0  0  0  0  0  0  0  0  0  0
  1  2  1  0
  2  3  1  0
  3  4  1  0
  4  5  1  0
  4  6  1  0
  6  7  1  0
  7  8  1  0
  8  9  1  0
  8  2  1  0
  9  2  1  0
  9  4  1  0
  1 10  1  0
  1 11  1  0
  1 12  1  0
  3 13  1  0
  3 14  1  0
  5 15  1  0
  6 16  1  0
  6 17  1  0
  7 18  1  0
  7 19  1  0
  8 20  1  0
  9 21  1  0
M  END
