
     RDKit          3D

 16 18  0  0  0  0  0  0  0  0999 V2000
   -1.9882   -0.1774    0.2885 C   0  0  0  0  0  0  0  0  0  0  0  0
   -0.5002   -0.0349    0.3060 C   0  0  0  0  0  0  0  0  0  0  0  0
    0.3431   -1.2397    0.5786 C   0  0  0  0  0  0  0  0  0  0  0  0
    1.5558   -1.0552    0.0648 C   0  0  0  0  0  0  0  0  0  0  0  0
    1.6107    0.2984   -0.5934 C   0  0  0  0  0  0  0  0  0  0  0  0
    1.5552    1.2860    0.4011 O   0  0  0  0  0  0  0  0  0  0  0  0
    0.1651    1.2609    0.4650 C   0  0  0  0  0  0  0  0  0  0  0  0
    0.1739    0.5635   -0.8499 C   0  0  0  0  0  0  0  0  0  0  0  0
   -2.4184    0.8019    0.0037 H   0  0  0  0  0  0  0  0  0  0  0  0
   -2.3787   -0.4674    1.2789 H   0  0  0  0  0  0  0  0  0  0  0  0
   -2.2754   -0.9017   -0.4972 H   0  0  0  0  0  0  0  0  0  0  0  0
    0.0685   -2.1480    1.1043 H   0  0  0  0  0  0  0  0  0  0  0  0
    2.3964   -1.7666    0.1048 H   0  0  0  0  0  0  0  0  0  0  0  0
    2.3363    0.4244   -1.3782 H   0  0  0  0  0  0  0  0  0  0  0  0
   -0.3882    2.2231    0.4722 H   0  0  0  0  0  0  0  0  0  0  0  0
   -0.2558    0.9326   -1.7492 H   0  0  0  0  0  0  0  0  0  0  0  0
  1  2  1  0
  2  3  1  0
  3  4  2  0
  4  5  1  0
  5  6  1  0
  6  7  1  0
  7  8  1  0
  7  2  1  0
  8  2  1  0
  8  5  1  0
  1  9  1  0
  1 10  1  0
  1 11  1  0
  3 12  1  0
  4 13  1  0
  5 14  1  0
  7 15  1  0
  8 16  1  0
M  END
