
     RDKit          3D

 17 18  0  0  0  0  0  0  0  0999 V2000
   -1.6616    0.9136    0.1606 C   0  0  0  0  0  0  0  0  0  0  0  0
   -0.7218   -0.2197    0.4944 C   0  0  0  0  0  0  0  0  0  0  0  0
   -1.2003   -1.3900    1.0112 O   0  0  0  0  0  0  0  0  0  0  0  0
   -0.4986   -2.2317    0.1359 C   0  0  0  0  0  0  0  0  0  0  0  0
   -0.0861   -1.0048   -0.6240 C   0  0  0  0  0  0  0  0  0  0  0  0
    0.7080   -0.0229    0.1568 C   0  0  0  0  0  0  0  0  0  0  0  0
    1.0373    1.1645   -0.5371 O   0  0  0  0  0  0  0  0  0  0  0  0
    2.2292    1.8228   -0.3231 C   0  0  0  0  0  0  0  0  0  0  0  0
    2.9992    1.2998    0.5253 O   0  0  0  0  0  0  0  0  0  0  0  0
   -1.1431    1.8421    0.5288 H   0  0  0  0  0  0  0  0  0  0  0  0
   -2.6173    0.8665    0.6817 H   0  0  0  0  0  0  0  0  0  0  0  0
   -1.7734    1.0614   -0.9437 H   0  0  0  0  0  0  0  0  0  0  0  0
   -1.0960   -2.9722   -0.3980 H   0  0  0  0  0  0  0  0  0  0  0  0
    0.3761   -2.6523    0.7076 H   0  0  0  0  0  0  0  0  0  0  0  0
   -0.4760   -0.7824   -1.6173 H   0  0  0  0  0  0  0  0  0  0  0  0
    1.4230   -0.4416    0.8946 H   0  0  0  0  0  0  0  0  0  0  0  0
    2.5013    2.7469   -0.8538 H   0  0  0  0  0  0  0  0  0  0  0  0
  1  2  1  0
  2  3  1  0
  3  4  1  0
  4  5  1  0
  5  6  1  0
  6  7  1  0
  7  8  1  0
  8  9  2  0
  5  2  1  0
  6  2  1  0
  1 10  1  0
  1 11  1  0
  1 12  1  0
  4 13  1  0
  4 14  1  0
  5 15  1  0
  6 16  1  0
  8 17  1  0
M  END
