
     RDKit          3D

 17 18  0  0  0  0  0  0  0  0999 V2000
   -0.3402    1.3409    0.8562 C   0  0  0  0  0  0  0  0  0  0  0  0
   -0.3171   -0.1063    0.3079 C   0  0  0  0  0  0  0  0  0  0  0  0
    1.0864   -0.6134    0.4553 C   0  0  0  0  0  0  0  0  0  0  0  0
    1.7186    0.3725   -0.4672 C   0  0  0  0  0  0  0  0  0  0  0  0
    2.9013    0.7481   -0.4745 O   0  0  0  0  0  0  0  0  0  0  0  0
    0.7215    0.8010   -1.3323 O   0  0  0  0  0  0  0  0  0  0  0  0
   -0.2484   -0.2048   -1.2755 C   0  0  0  0  0  0  0  0  0  0  0  0
   -1.3989   -0.4402   -0.5115 C   0  0  0  0  0  0  0  0  0  0  0  0
   -1.9109   -1.7563   -0.3944 O   0  0  0  0  0  0  0  0  0  0  0  0
   -1.3741    1.7230    0.9038 H   0  0  0  0  0  0  0  0  0  0  0  0
    0.0629    1.2615    1.8819 H   0  0  0  0  0  0  0  0  0  0  0  0
    0.3479    1.9854    0.2822 H   0  0  0  0  0  0  0  0  0  0  0  0
    1.1089   -1.6453    0.0409 H   0  0  0  0  0  0  0  0  0  0  0  0
    1.4757   -0.5539    1.4809 H   0  0  0  0  0  0  0  0  0  0  0  0
    0.2312   -1.1464   -1.6881 H   0  0  0  0  0  0  0  0  0  0  0  0
   -2.2620    0.2620   -0.6178 H   0  0  0  0  0  0  0  0  0  0  0  0
   -1.8028   -2.0280    0.5522 H   0  0  0  0  0  0  0  0  0  0  0  0
  1  2  1  0
  2  3  1  0
  3  4  1  0
  4  5  2  0
  4  6  1  0
  6  7  1  0
  7  8  1  0
  8  9  1  0
  7  2  1  0
  8  2  1  0
  1 10  1  0
  1 11  1  0
  1 12  1  0
  3 13  1  0
  3 14  1  0
  7 15  1  0
  8 16  1  0
  9 17  1  0
M  END
