
     RDKit          3D

 19 21  0  0  0  0  0  0  0  0999 V2000
   -1.0896   -1.1323    1.1697 C   0  0  0  0  0  0  0  0  0  0  0  0
   -0.2730   -0.6980    0.0116 C   0  0  0  0  0  0  0  0  0  0  0  0
   -1.0144   -0.4308   -1.2602 C   0  0  0  0  0  0  0  0  0  0  0  0
   -0.2445    0.6400   -0.5465 C   0  0  0  0  0  0  0  0  0  0  0  0
   -0.9511    1.8003   -0.0309 C   0  0  0  0  0  0  0  0  0  0  0  0
   -1.3104    1.9939    1.1080 O   0  0  0  0  0  0  0  0  0  0  0  0
    1.2337    0.5986   -0.7189 C   0  0  0  0  0  0  0  0  0  0  0  0
    2.0591    0.3577    0.4780 C   0  0  0  0  0  0  0  0  0  0  0  0
    1.2151   -0.7674    0.0056 C   0  0  0  0  0  0  0  0  0  0  0  0
   -1.6890   -0.2899    1.6057 H   0  0  0  0  0  0  0  0  0  0  0  0
   -0.4917   -1.5824    2.0084 H   0  0  0  0  0  0  0  0  0  0  0  0
   -1.7738   -1.9732    0.8492 H   0  0  0  0  0  0  0  0  0  0  0  0
   -0.5935   -0.9201   -2.1623 H   0  0  0  0  0  0  0  0  0  0  0  0
   -2.1085   -0.3407   -1.1892 H   0  0  0  0  0  0  0  0  0  0  0  0
   -1.1956    2.6062   -0.7468 H   0  0  0  0  0  0  0  0  0  0  0  0
    1.6660    0.6106   -1.7471 H   0  0  0  0  0  0  0  0  0  0  0  0
    3.1492    0.2135    0.3475 H   0  0  0  0  0  0  0  0  0  0  0  0
    1.7238    0.9016    1.3993 H   0  0  0  0  0  0  0  0  0  0  0  0
    1.6884   -1.5876   -0.5813 H   0  0  0  0  0  0  0  0  0  0  0  0
  1  2  1  0
  2  3  1  0
  3  4  1  0
  4  5  1  0
  5  6  2  0
  4  7  1  0
  7  8  1  0
  8  9  1  0
  4  2  1  0
  9  7  1  0
  9  2  1  0
  1 10  1  0
  1 11  1  0
  1 12  1  0
  3 13  1  0
  3 14  1  0
  5 15  1  0
  7 16  1  0
  8 17  1  0
  8 18  1  0
  9 19  1  0
M  END
