
     RDKit          3D

 21 22  0  0  0  0  0  0  0  0999 V2000
    2.0613   -0.4020   -0.6483 C   0  0  0  0  0  0  0  0  0  0  0  0
    0.7114   -0.3945    0.0356 C   0  0  0  0  0  0  0  0  0  0  0  0
   -0.1864   -1.5276   -0.3351 C   0  0  0  0  0  0  0  0  0  0  0  0
   -1.3184   -1.1678   -1.0206 O   0  0  0  0  0  0  0  0  0  0  0  0
   -2.0608   -0.3071   -0.2275 C   0  0  0  0  0  0  0  0  0  0  0  0
   -1.3415    1.0263   -0.2314 C   0  0  0  0  0  0  0  0  0  0  0  0
    0.0771    0.9178    0.1797 C   0  0  0  0  0  0  0  0  0  0  0  0
    0.8517    2.0601   -0.1312 O   0  0  0  0  0  0  0  0  0  0  0  0
    0.5303    0.1875    1.3785 C   0  0  0  0  0  0  0  0  0  0  0  0
    2.7917   -1.0684   -0.1567 H   0  0  0  0  0  0  0  0  0  0  0  0
    1.8612   -0.7525   -1.7033 H   0  0  0  0  0  0  0  0  0  0  0  0
    2.4838    0.6283   -0.7263 H   0  0  0  0  0  0  0  0  0  0  0  0
    0.3895   -2.3385   -0.8645 H   0  0  0  0  0  0  0  0  0  0  0  0
   -0.5298   -2.0279    0.6183 H   0  0  0  0  0  0  0  0  0  0  0  0
   -2.2400   -0.6708    0.7891 H   0  0  0  0  0  0  0  0  0  0  0  0
   -3.0435   -0.1784   -0.7199 H   0  0  0  0  0  0  0  0  0  0  0  0
   -1.3584    1.3718   -1.3057 H   0  0  0  0  0  0  0  0  0  0  0  0
   -1.8957    1.7945    0.3295 H   0  0  0  0  0  0  0  0  0  0  0  0
    1.0957    2.5430    0.7149 H   0  0  0  0  0  0  0  0  0  0  0  0
    1.3742    0.5830    1.9798 H   0  0  0  0  0  0  0  0  0  0  0  0
   -0.2534   -0.2767    2.0453 H   0  0  0  0  0  0  0  0  0  0  0  0
  1  2  1  0
  2  3  1  0
  3  4  1  0
  4  5  1  0
  5  6  1  0
  6  7  1  0
  7  8  1  0
  7  9  1  0
  7  2  1  0
  9  2  1  0
  1 10  1  0
  1 11  1  0
  1 12  1  0
  3 13  1  0
  3 14  1  0
  5 15  1  0
  5 16  1  0
  6 17  1  0
  6 18  1  0
  8 19  1  0
  9 20  1  0
  9 21  1  0
M  END
