
     RDKit          3D

 21 22  0  0  0  0  0  0  0  0999 V2000
   -1.8706   -1.2312   -0.5849 C   0  0  0  0  0  0  0  0  0  0  0  0
   -1.1392   -0.3338    0.3884 C   0  0  0  0  0  0  0  0  0  0  0  0
   -2.0386    0.4004    1.1351 O   0  0  0  0  0  0  0  0  0  0  0  0
   -2.2593    1.0759   -0.0919 C   0  0  0  0  0  0  0  0  0  0  0  0
   -0.7480    1.1138   -0.0950 C   0  0  0  0  0  0  0  0  0  0  0  0
    0.1684    0.0010   -0.0584 C   0  0  0  0  0  0  0  0  0  0  0  0
    1.2909   -0.1585    0.9805 C   0  0  0  0  0  0  0  0  0  0  0  0
    2.6040    0.2388    0.3394 C   0  0  0  0  0  0  0  0  0  0  0  0
    3.6420    0.1044    1.2584 O   0  0  0  0  0  0  0  0  0  0  0  0
   -1.6729   -0.9719   -1.6489 H   0  0  0  0  0  0  0  0  0  0  0  0
   -2.9214   -1.4111   -0.3432 H   0  0  0  0  0  0  0  0  0  0  0  0
   -1.3742   -2.2442   -0.4669 H   0  0  0  0  0  0  0  0  0  0  0  0
   -2.7172    2.0782    0.0242 H   0  0  0  0  0  0  0  0  0  0  0  0
   -2.7751    0.5452   -0.8698 H   0  0  0  0  0  0  0  0  0  0  0  0
   -0.4646    1.8319    0.7427 H   0  0  0  0  0  0  0  0  0  0  0  0
    0.5694   -0.2950   -1.0742 H   0  0  0  0  0  0  0  0  0  0  0  0
    1.3303   -1.2421    1.2102 H   0  0  0  0  0  0  0  0  0  0  0  0
    1.1027    0.4588    1.8711 H   0  0  0  0  0  0  0  0  0  0  0  0
    2.8225   -0.3959   -0.5349 H   0  0  0  0  0  0  0  0  0  0  0  0
    2.5490    1.2875   -0.0441 H   0  0  0  0  0  0  0  0  0  0  0  0
    3.9019   -0.8519    1.2578 H   0  0  0  0  0  0  0  0  0  0  0  0
  1  2  1  0
  2  3  1  0
  3  4  1  0
  4  5  1  0
  5  6  1  0
  6  7  1  0
  7  8  1  0
  8  9  1  0
  5  2  1  0
  6  2  1  0
  1 10  1  0
  1 11  1  0
  1 12  1  0
  4 13  1  0
  4 14  1  0
  5 15  1  0
  6 16  1  0
  7 17  1  0
  7 18  1  0
  8 19  1  0
  8 20  1  0
  9 21  1  0
M  END
