
     RDKit          3D

 25 26  0  0  0  0  0  0  0  0999 V2000
   -0.9448   -2.1495    0.3427 C   0  0  0  0  0  0  0  0  0  0  0  0
   -0.6919   -0.8394    0.0412 C   0  0  0  0  0  0  0  0  0  0  0  0
   -1.3268    0.3922    0.6223 C   0  0  0  0  0  0  0  0  0  0  0  0
   -0.3371    0.9232   -0.3923 C   0  0  0  0  0  0  0  0  0  0  0  0
   -0.1122    2.2382   -0.7052 C   0  0  0  0  0  0  0  0  0  0  0  0
   -0.9051   -0.1476   -1.2849 C   0  0  0  0  0  0  0  0  0  0  0  0
    0.6048   -0.0932    0.1450 C   0  0  0  0  0  0  0  0  0  0  0  0
    1.7385   -0.5302   -0.6794 C   0  0  0  0  0  0  0  0  0  0  0  0
    1.0431    0.2273    1.5635 C   0  0  0  0  0  0  0  0  0  0  0  0
   -1.5217   -2.7061   -0.4564 H   0  0  0  0  0  0  0  0  0  0  0  0
   -1.5266   -2.3355    1.2716 H   0  0  0  0  0  0  0  0  0  0  0  0
   -0.0019   -2.7678    0.4446 H   0  0  0  0  0  0  0  0  0  0  0  0
   -1.1148    0.6171    1.6689 H   0  0  0  0  0  0  0  0  0  0  0  0
   -2.3964    0.5107    0.3469 H   0  0  0  0  0  0  0  0  0  0  0  0
   -0.5097    2.9892    0.0131 H   0  0  0  0  0  0  0  0  0  0  0  0
   -0.5446    2.5476   -1.7023 H   0  0  0  0  0  0  0  0  0  0  0  0
    0.9840    2.4894   -0.8087 H   0  0  0  0  0  0  0  0  0  0  0  0
   -1.9709    0.0456   -1.5426 H   0  0  0  0  0  0  0  0  0  0  0  0
   -0.3142   -0.4761   -2.1223 H   0  0  0  0  0  0  0  0  0  0  0  0
    2.2975    0.3695   -1.0366 H   0  0  0  0  0  0  0  0  0  0  0  0
    1.5226   -1.1536   -1.5437 H   0  0  0  0  0  0  0  0  0  0  0  0
    2.4742   -1.0686   -0.0166 H   0  0  0  0  0  0  0  0  0  0  0  0
    0.5387   -0.4405    2.3071 H   0  0  0  0  0  0  0  0  0  0  0  0
    2.1340    0.0509    1.7116 H   0  0  0  0  0  0  0  0  0  0  0  0
    0.8813    1.3072    1.8127 H   0  0  0  0  0  0  0  0  0  0  0  0
  1  2  1  0
  2  3  1  0
  3  4  1  0
  4  5  1  0
  4  6  1  0
  4  7  1  0
  7  8  1  0
  7  9  1  0
  6  2  1  0
  7  2  1  0
  1 10  1  0
  1 11  1  0
  1 12  1  0
  3 13  1  0
  3 14  1  0
  5 15  1  0
  5 16  1  0
  5 17  1  0
  6 18  1  0
  6 19  1  0
  8 20  1  0
  8 21  1  0
  8 22  1  0
  9 23  1  0
  9 24  1  0
  9 25  1  0
M  END
