
     RDKit          3D

 19 21  0  0  0  0  0  0  0  0999 V2000
   -2.5017    0.2325   -0.3231 C   0  0  0  0  0  0  0  0  0  0  0  0
   -1.0880    0.1829    0.0082 C   0  0  0  0  0  0  0  0  0  0  0  0
   -0.6389   -1.1122    0.7078 C   0  0  0  0  0  0  0  0  0  0  0  0
    0.8420   -0.7116    0.8194 C   0  0  0  0  0  0  0  0  0  0  0  0
    0.7550    0.7434    0.9772 C   0  0  0  0  0  0  0  0  0  0  0  0
   -0.6017    1.1255    0.8839 O   0  0  0  0  0  0  0  0  0  0  0  0
    1.0294    0.1588   -0.3321 C   0  0  0  0  0  0  0  0  0  0  0  0
    2.2874    0.3325   -1.0850 C   0  0  0  0  0  0  0  0  0  0  0  0
   -0.1913    0.2176   -1.0485 O   0  0  0  0  0  0  0  0  0  0  0  0
   -2.9658    1.2447   -0.1375 H   0  0  0  0  0  0  0  0  0  0  0  0
   -3.1538   -0.4792    0.2340 H   0  0  0  0  0  0  0  0  0  0  0  0
   -2.6998    0.0335   -1.4057 H   0  0  0  0  0  0  0  0  0  0  0  0
   -1.0826   -1.1802    1.7114 H   0  0  0  0  0  0  0  0  0  0  0  0
   -0.7811   -1.9896    0.0768 H   0  0  0  0  0  0  0  0  0  0  0  0
    1.5524   -1.3665    1.2788 H   0  0  0  0  0  0  0  0  0  0  0  0
    1.4490    1.3536    1.5487 H   0  0  0  0  0  0  0  0  0  0  0  0
    3.1538   -0.0304   -0.5387 H   0  0  0  0  0  0  0  0  0  0  0  0
    2.2339   -0.1882   -2.0606 H   0  0  0  0  0  0  0  0  0  0  0  0
    2.4019    1.4328   -1.3151 H   0  0  0  0  0  0  0  0  0  0  0  0
  1  2  1  0
  2  3  1  0
  3  4  1  0
  4  5  1  0
  5  6  1  0
  5  7  1  0
  7  8  1  0
  7  9  1  0
  6  2  1  0
  9  2  1  0
  7  4  1  0
  1 10  1  0
  1 11  1  0
  1 12  1  0
  3 13  1  0
  3 14  1  0
  4 15  1  0
  5 16  1  0
  8 17  1  0
  8 18  1  0
  8 19  1  0
M  END
