
     RDKit          3D

 21 22  0  0  0  0  0  0  0  0999 V2000
    1.4835    1.2482    0.9059 C   0  0  0  0  0  0  0  0  0  0  0  0
    0.7508    0.3508   -0.0863 C   0  0  0  0  0  0  0  0  0  0  0  0
   -0.0863    1.1745   -1.0012 C   0  0  0  0  0  0  0  0  0  0  0  0
   -1.2379    0.5052   -1.4486 O   0  0  0  0  0  0  0  0  0  0  0  0
   -1.9420    0.2147   -0.2554 C   0  0  0  0  0  0  0  0  0  0  0  0
   -1.3015   -1.0762    0.2398 C   0  0  0  0  0  0  0  0  0  0  0  0
    0.1322   -0.8547    0.4799 C   0  0  0  0  0  0  0  0  0  0  0  0
    1.0486   -1.6738   -0.4148 C   0  0  0  0  0  0  0  0  0  0  0  0
    1.6909   -0.4819   -0.7381 O   0  0  0  0  0  0  0  0  0  0  0  0
    2.5760    1.1411    0.8416 H   0  0  0  0  0  0  0  0  0  0  0  0
    1.2599    2.3225    0.7330 H   0  0  0  0  0  0  0  0  0  0  0  0
    1.0856    1.0085    1.9089 H   0  0  0  0  0  0  0  0  0  0  0  0
   -0.4911    2.0360   -0.3899 H   0  0  0  0  0  0  0  0  0  0  0  0
    0.4746    1.6435   -1.8244 H   0  0  0  0  0  0  0  0  0  0  0  0
   -1.7250    0.9925    0.5253 H   0  0  0  0  0  0  0  0  0  0  0  0
   -3.0142    0.1307   -0.4135 H   0  0  0  0  0  0  0  0  0  0  0  0
   -1.8307   -1.3402    1.1747 H   0  0  0  0  0  0  0  0  0  0  0  0
   -1.5024   -1.8290   -0.5777 H   0  0  0  0  0  0  0  0  0  0  0  0
    0.4197   -0.9947    1.5602 H   0  0  0  0  0  0  0  0  0  0  0  0
    1.6497   -2.4286    0.1037 H   0  0  0  0  0  0  0  0  0  0  0  0
    0.5595   -2.0890   -1.3232 H   0  0  0  0  0  0  0  0  0  0  0  0
  1  2  1  0
  2  3  1  0
  3  4  1  0
  4  5  1  0
  5  6  1  0
  6  7  1  0
  7  8  1  0
  8  9  1  0
  7  2  1  0
  9  2  1  0
  1 10  1  0
  1 11  1  0
  1 12  1  0
  3 13  1  0
  3 14  1  0
  5 15  1  0
  5 16  1  0
  6 17  1  0
  6 18  1  0
  7 19  1  0
  8 20  1  0
  8 21  1  0
M  END
