
     RDKit          3D

 19 20  0  0  0  0  0  0  0  0999 V2000
   -0.2037    1.9965   -0.3287 C   0  0  0  0  0  0  0  0  0  0  0  0
   -0.5283    0.6671    0.2892 C   0  0  0  0  0  0  0  0  0  0  0  0
   -1.9068    0.1710    0.0246 C   0  0  0  0  0  0  0  0  0  0  0  0
   -1.8789   -1.1585   -0.0807 C   0  0  0  0  0  0  0  0  0  0  0  0
   -0.4944   -1.6702    0.1015 C   0  0  0  0  0  0  0  0  0  0  0  0
    0.3065   -0.4083    0.4386 C   0  0  0  0  0  0  0  0  0  0  0  0
    1.7727   -0.5566    0.2054 C   0  0  0  0  0  0  0  0  0  0  0  0
    2.4516    0.6207    0.0189 O   0  0  0  0  0  0  0  0  0  0  0  0
   -0.0487    0.3339    1.5421 O   0  0  0  0  0  0  0  0  0  0  0  0
   -0.4873    1.9447   -1.4043 H   0  0  0  0  0  0  0  0  0  0  0  0
    0.8391    2.2941   -0.2327 H   0  0  0  0  0  0  0  0  0  0  0  0
   -0.8722    2.7524    0.1600 H   0  0  0  0  0  0  0  0  0  0  0  0
   -2.7630    0.8287   -0.0596 H   0  0  0  0  0  0  0  0  0  0  0  0
   -2.7627   -1.7470   -0.2727 H   0  0  0  0  0  0  0  0  0  0  0  0
   -0.4152   -2.4227    0.8998 H   0  0  0  0  0  0  0  0  0  0  0  0
   -0.1179   -2.0258   -0.8715 H   0  0  0  0  0  0  0  0  0  0  0  0
    2.2056   -1.0564    1.1090 H   0  0  0  0  0  0  0  0  0  0  0  0
    2.0127   -1.2332   -0.6495 H   0  0  0  0  0  0  0  0  0  0  0  0
    2.8909    0.6696   -0.8893 H   0  0  0  0  0  0  0  0  0  0  0  0
  1  2  1  0
  2  3  1  0
  3  4  2  0
  4  5  1  0
  5  6  1  0
  6  7  1  0
  7  8  1  0
  6  9  1  0
  6  2  1  0
  9  2  1  0
  1 10  1  0
  1 11  1  0
  1 12  1  0
  3 13  1  0
  4 14  1  0
  5 15  1  0
  5 16  1  0
  7 17  1  0
  7 18  1  0
  8 19  1  0
M  END
