
     RDKit          3D

 23 24  0  0  0  0  0  0  0  0999 V2000
    1.4631   -1.1544   -0.7220 C   0  0  0  0  0  0  0  0  0  0  0  0
    0.7788    0.0055   -0.0928 C   0  0  0  0  0  0  0  0  0  0  0  0
    0.9364    1.2917   -0.7780 C   0  0  0  0  0  0  0  0  0  0  0  0
   -0.1191    2.0595   -0.6317 C   0  0  0  0  0  0  0  0  0  0  0  0
   -1.1083    1.3449    0.1866 C   0  0  0  0  0  0  0  0  0  0  0  0
   -0.7152   -0.0933    0.0723 C   0  0  0  0  0  0  0  0  0  0  0  0
   -1.4526   -0.9462   -0.8856 C   0  0  0  0  0  0  0  0  0  0  0  0
   -0.4752   -0.6733    1.4567 C   0  0  0  0  0  0  0  0  0  0  0  0
    0.9106   -0.0068    1.4138 C   0  0  0  0  0  0  0  0  0  0  0  0
    1.5197   -0.9659   -1.8212 H   0  0  0  0  0  0  0  0  0  0  0  0
    2.5225   -1.1707   -0.3737 H   0  0  0  0  0  0  0  0  0  0  0  0
    1.0402   -2.1352   -0.4832 H   0  0  0  0  0  0  0  0  0  0  0  0
    1.8188    1.5786   -1.3402 H   0  0  0  0  0  0  0  0  0  0  0  0
   -0.2645    3.0546   -1.0340 H   0  0  0  0  0  0  0  0  0  0  0  0
   -0.9606    1.7262    1.2383 H   0  0  0  0  0  0  0  0  0  0  0  0
   -2.1586    1.5294   -0.1427 H   0  0  0  0  0  0  0  0  0  0  0  0
   -1.7277   -1.9014   -0.3721 H   0  0  0  0  0  0  0  0  0  0  0  0
   -0.7249   -1.2656   -1.6877 H   0  0  0  0  0  0  0  0  0  0  0  0
   -2.3343   -0.4892   -1.3504 H   0  0  0  0  0  0  0  0  0  0  0  0
   -1.1189   -0.2529    2.2513 H   0  0  0  0  0  0  0  0  0  0  0  0
   -0.4374   -1.7714    1.3928 H   0  0  0  0  0  0  0  0  0  0  0  0
    0.9513    0.9765    1.8964 H   0  0  0  0  0  0  0  0  0  0  0  0
    1.6559   -0.7405    1.8072 H   0  0  0  0  0  0  0  0  0  0  0  0
  1  2  1  0
  2  3  1  0
  3  4  2  0
  4  5  1  0
  5  6  1  0
  6  7  1  0
  6  8  1  0
  8  9  1  0
  6  2  1  0
  9  2  1  0
  1 10  1  0
  1 11  1  0
  1 12  1  0
  3 13  1  0
  4 14  1  0
  5 15  1  0
  5 16  1  0
  7 17  1  0
  7 18  1  0
  7 19  1  0
  8 20  1  0
  8 21  1  0
  9 22  1  0
  9 23  1  0
M  END
