
     RDKit          3D

 19 21  0  0  0  0  0  0  0  0999 V2000
   -1.0418    1.6927   -0.3567 C   0  0  0  0  0  0  0  0  0  0  0  0
   -0.0256    0.6320   -0.0642 C   0  0  0  0  0  0  0  0  0  0  0  0
    1.2677    1.0827   -0.1023 O   0  0  0  0  0  0  0  0  0  0  0  0
    2.1450    0.0449   -0.4821 C   0  0  0  0  0  0  0  0  0  0  0  0
    1.9013   -1.0025    0.3995 O   0  0  0  0  0  0  0  0  0  0  0  0
    0.5660   -1.2954    0.3653 C   0  0  0  0  0  0  0  0  0  0  0  0
   -0.1715   -0.6650   -0.7898 C   0  0  0  0  0  0  0  0  0  0  0  0
   -1.4040   -0.8774    0.0550 C   0  0  0  0  0  0  0  0  0  0  0  0
   -0.3769   -0.3442    1.0250 C   0  0  0  0  0  0  0  0  0  0  0  0
   -0.5462    2.6961   -0.2614 H   0  0  0  0  0  0  0  0  0  0  0  0
   -1.8932    1.7134    0.3382 H   0  0  0  0  0  0  0  0  0  0  0  0
   -1.4230    1.6415   -1.4015 H   0  0  0  0  0  0  0  0  0  0  0  0
    1.9785   -0.2338   -1.5435 H   0  0  0  0  0  0  0  0  0  0  0  0
    3.1724    0.4667   -0.3566 H   0  0  0  0  0  0  0  0  0  0  0  0
    0.2743   -2.3335    0.5485 H   0  0  0  0  0  0  0  0  0  0  0  0
   -0.0615   -0.8623   -1.7597 H   0  0  0  0  0  0  0  0  0  0  0  0
   -1.6051   -1.9623    0.1956 H   0  0  0  0  0  0  0  0  0  0  0  0
   -2.2492   -0.2363   -0.1743 H   0  0  0  0  0  0  0  0  0  0  0  0
   -0.5073   -0.1573    1.9961 H   0  0  0  0  0  0  0  0  0  0  0  0
  1  2  1  0
  2  3  1  0
  3  4  1  0
  4  5  1  0
  5  6  1  0
  6  7  1  0
  7  8  1  0
  8  9  1  0
  7  2  1  0
  9  2  1  0
  9  6  1  0
  1 10  1  0
  1 11  1  0
  1 12  1  0
  4 13  1  0
  4 14  1  0
  6 15  1  0
  7 16  1  0
  8 17  1  0
  8 18  1  0
  9 19  1  0
M  END
