
     RDKit          3D

 16 17  0  0  0  0  0  0  0  0999 V2000
   -1.7545   -0.9737    0.2414 C   0  0  0  0  0  0  0  0  0  0  0  0
   -0.4860   -0.2683    0.0890 C   0  0  0  0  0  0  0  0  0  0  0  0
    0.6358   -1.0757   -0.4839 C   0  0  0  0  0  0  0  0  0  0  0  0
    1.7427   -0.4074   -0.1131 C   0  0  0  0  0  0  0  0  0  0  0  0
    1.2477    0.7302    0.6940 C   0  0  0  0  0  0  0  0  0  0  0  0
    0.5175    1.7188   -0.1712 C   0  0  0  0  0  0  0  0  0  0  0  0
   -0.5697    1.0686   -0.5813 C   0  0  0  0  0  0  0  0  0  0  0  0
    0.1226    0.1220    1.3106 O   0  0  0  0  0  0  0  0  0  0  0  0
   -2.5890   -0.2763    0.3124 H   0  0  0  0  0  0  0  0  0  0  0  0
   -1.7357   -1.5815    1.1923 H   0  0  0  0  0  0  0  0  0  0  0  0
   -1.8731   -1.7243   -0.5685 H   0  0  0  0  0  0  0  0  0  0  0  0
    0.5570   -1.9770   -1.0559 H   0  0  0  0  0  0  0  0  0  0  0  0
    2.7598   -0.6773   -0.3712 H   0  0  0  0  0  0  0  0  0  0  0  0
    1.9395    1.1642    1.3843 H   0  0  0  0  0  0  0  0  0  0  0  0
    0.8177    2.7342   -0.4037 H   0  0  0  0  0  0  0  0  0  0  0  0
   -1.3321    1.4234   -1.2423 H   0  0  0  0  0  0  0  0  0  0  0  0
  1  2  1  0
  2  3  1  0
  3  4  2  0
  4  5  1  0
  5  6  1  0
  6  7  2  0
  5  8  1  0
  7  2  1  0
  8  2  1  0
  1  9  1  0
  1 10  1  0
  1 11  1  0
  3 12  1  0
  4 13  1  0
  5 14  1  0
  6 15  1  0
  7 16  1  0
M  END
