
     RDKit          3D

 19 21  0  0  0  0  0  0  0  0999 V2000
    2.0591   -0.3993   -0.1726 C   0  0  0  0  0  0  0  0  0  0  0  0
    0.7057    0.1888   -0.1602 C   0  0  0  0  0  0  0  0  0  0  0  0
   -0.0640    0.4177    1.0948 C   0  0  0  0  0  0  0  0  0  0  0  0
   -1.2545   -0.5258    1.0700 C   0  0  0  0  0  0  0  0  0  0  0  0
   -1.7662   -0.7700   -0.3221 C   0  0  0  0  0  0  0  0  0  0  0  0
   -1.4638    0.2332   -1.2143 O   0  0  0  0  0  0  0  0  0  0  0  0
   -0.1061    0.4718   -1.3365 C   0  0  0  0  0  0  0  0  0  0  0  0
    0.3820    1.5842   -0.3874 C   0  0  0  0  0  0  0  0  0  0  0  0
   -0.3383    1.7301    0.7798 O   0  0  0  0  0  0  0  0  0  0  0  0
    1.9781   -1.4652    0.1860 H   0  0  0  0  0  0  0  0  0  0  0  0
    2.4188   -0.4521   -1.2215 H   0  0  0  0  0  0  0  0  0  0  0  0
    2.7870    0.0800    0.5102 H   0  0  0  0  0  0  0  0  0  0  0  0
    0.4783    0.3503    2.0482 H   0  0  0  0  0  0  0  0  0  0  0  0
   -2.0161   -0.2315    1.7903 H   0  0  0  0  0  0  0  0  0  0  0  0
   -0.8501   -1.5163    1.4319 H   0  0  0  0  0  0  0  0  0  0  0  0
   -1.4677   -1.7755   -0.7220 H   0  0  0  0  0  0  0  0  0  0  0  0
   -2.8812   -0.8168   -0.2498 H   0  0  0  0  0  0  0  0  0  0  0  0
    0.3478    0.5501   -2.3585 H   0  0  0  0  0  0  0  0  0  0  0  0
    1.0514    2.3461   -0.7665 H   0  0  0  0  0  0  0  0  0  0  0  0
  1  2  1  0
  2  3  1  0
  3  4  1  0
  4  5  1  0
  5  6  1  0
  6  7  1  0
  7  8  1  0
  8  9  1  0
  7  2  1  0
  8  2  1  0
  9  3  1  0
  1 10  1  0
  1 11  1  0
  1 12  1  0
  3 13  1  0
  4 14  1  0
  4 15  1  0
  5 16  1  0
  5 17  1  0
  7 18  1  0
  8 19  1  0
M  END
