
     RDKit          3D

 19 20  0  0  0  0  0  0  0  0999 V2000
   -0.0476    1.8544   -0.9788 C   0  0  0  0  0  0  0  0  0  0  0  0
   -0.3323    0.7803    0.0194 C   0  0  0  0  0  0  0  0  0  0  0  0
   -1.4498   -0.1799   -0.1948 C   0  0  0  0  0  0  0  0  0  0  0  0
   -1.2157   -1.3771    0.6614 C   0  0  0  0  0  0  0  0  0  0  0  0
    0.2808   -1.4160    0.8203 C   0  0  0  0  0  0  0  0  0  0  0  0
    0.7899   -0.0327    0.4865 C   0  0  0  0  0  0  0  0  0  0  0  0
    2.1043    0.1213   -0.1294 C   0  0  0  0  0  0  0  0  0  0  0  0
    2.7901    1.1178    0.0014 O   0  0  0  0  0  0  0  0  0  0  0  0
    0.2345    0.9639    1.2686 O   0  0  0  0  0  0  0  0  0  0  0  0
   -0.1380    1.5292   -2.0319 H   0  0  0  0  0  0  0  0  0  0  0  0
   -0.7776    2.7011   -0.8487 H   0  0  0  0  0  0  0  0  0  0  0  0
    0.9576    2.2971   -0.8387 H   0  0  0  0  0  0  0  0  0  0  0  0
   -1.3908   -0.5222   -1.2682 H   0  0  0  0  0  0  0  0  0  0  0  0
   -2.4509    0.2337   -0.0663 H   0  0  0  0  0  0  0  0  0  0  0  0
   -1.5162   -2.3245    0.1730 H   0  0  0  0  0  0  0  0  0  0  0  0
   -1.6614   -1.3143    1.6614 H   0  0  0  0  0  0  0  0  0  0  0  0
    0.5769   -1.6087    1.8807 H   0  0  0  0  0  0  0  0  0  0  0  0
    0.7392   -2.1448    0.1202 H   0  0  0  0  0  0  0  0  0  0  0  0
    2.5070   -0.6785   -0.7362 H   0  0  0  0  0  0  0  0  0  0  0  0
  1  2  1  0
  2  3  1  0
  3  4  1  0
  4  5  1  0
  5  6  1  0
  6  7  1  0
  7  8  2  0
  6  9  1  0
  6  2  1  0
  9  2  1  0
  1 10  1  0
  1 11  1  0
  1 12  1  0
  3 13  1  0
  3 14  1  0
  4 15  1  0
  4 16  1  0
  5 17  1  0
  5 18  1  0
  7 19  1  0
M  END
