
     RDKit          3D

 21 22  0  0  0  0  0  0  0  0999 V2000
   -2.1523    0.5261   -0.7729 C   0  0  0  0  0  0  0  0  0  0  0  0
   -0.8031    0.2042   -0.1309 C   0  0  0  0  0  0  0  0  0  0  0  0
   -0.0886    1.3982    0.3794 C   0  0  0  0  0  0  0  0  0  0  0  0
    1.2436    1.1242    0.9542 C   0  0  0  0  0  0  0  0  0  0  0  0
    1.9521    0.1363    0.4283 C   0  0  0  0  0  0  0  0  0  0  0  0
    1.4834   -0.6899   -0.6849 C   0  0  0  0  0  0  0  0  0  0  0  0
    0.0001   -0.8375   -0.7731 C   0  0  0  0  0  0  0  0  0  0  0  0
   -0.7233   -1.1319    0.4898 C   0  0  0  0  0  0  0  0  0  0  0  0
   -0.0140   -1.3274    1.6781 O   0  0  0  0  0  0  0  0  0  0  0  0
   -2.9330    0.4466    0.0221 H   0  0  0  0  0  0  0  0  0  0  0  0
   -2.1581    1.5490   -1.1959 H   0  0  0  0  0  0  0  0  0  0  0  0
   -2.3813   -0.1665   -1.6029 H   0  0  0  0  0  0  0  0  0  0  0  0
    0.0834    2.0924   -0.4925 H   0  0  0  0  0  0  0  0  0  0  0  0
   -0.7392    1.9696    1.0704 H   0  0  0  0  0  0  0  0  0  0  0  0
    1.6235    1.7127    1.7764 H   0  0  0  0  0  0  0  0  0  0  0  0
    2.9283   -0.0564    0.8574 H   0  0  0  0  0  0  0  0  0  0  0  0
    1.8778   -0.3101   -1.6555 H   0  0  0  0  0  0  0  0  0  0  0  0
    1.9129   -1.7299   -0.5833 H   0  0  0  0  0  0  0  0  0  0  0  0
   -0.3700   -1.3032   -1.7092 H   0  0  0  0  0  0  0  0  0  0  0  0
   -1.5931   -1.8248    0.4057 H   0  0  0  0  0  0  0  0  0  0  0  0
    0.8509   -1.7817    1.5393 H   0  0  0  0  0  0  0  0  0  0  0  0
  1  2  1  0
  2  3  1  0
  3  4  1  0
  4  5  2  0
  5  6  1  0
  6  7  1  0
  7  8  1  0
  8  9  1  0
  7  2  1  0
  8  2  1  0
  1 10  1  0
  1 11  1  0
  1 12  1  0
  3 13  1  0
  3 14  1  0
  4 15  1  0
  5 16  1  0
  6 17  1  0
  6 18  1  0
  7 19  1  0
  8 20  1  0
  9 21  1  0
M  END
