
     RDKit          3D

 19 21  0  0  0  0  0  0  0  0999 V2000
   -2.4621   -0.2731    0.2849 C   0  0  0  0  0  0  0  0  0  0  0  0
   -1.2578   -0.0624   -0.5665 C   0  0  0  0  0  0  0  0  0  0  0  0
   -1.0143   -0.8347   -1.6708 O   0  0  0  0  0  0  0  0  0  0  0  0
   -0.1441   -1.0445   -0.6283 C   0  0  0  0  0  0  0  0  0  0  0  0
    0.8281    0.0385   -0.3355 C   0  0  0  0  0  0  0  0  0  0  0  0
    1.9322   -0.1041    0.6389 C   0  0  0  0  0  0  0  0  0  0  0  0
    1.4893   -0.3827    1.9491 O   0  0  0  0  0  0  0  0  0  0  0  0
    0.8105    1.2315   -1.2373 C   0  0  0  0  0  0  0  0  0  0  0  0
   -0.2583    1.0153   -0.2283 C   0  0  0  0  0  0  0  0  0  0  0  0
   -2.1770   -0.7565    1.2399 H   0  0  0  0  0  0  0  0  0  0  0  0
   -2.9155    0.7438    0.4713 H   0  0  0  0  0  0  0  0  0  0  0  0
   -3.1842   -0.9074   -0.2850 H   0  0  0  0  0  0  0  0  0  0  0  0
   -0.1814   -1.9702   -0.0446 H   0  0  0  0  0  0  0  0  0  0  0  0
    2.6575   -0.8536    0.2822 H   0  0  0  0  0  0  0  0  0  0  0  0
    2.4760    0.8579    0.7111 H   0  0  0  0  0  0  0  0  0  0  0  0
    1.6461   -1.3609    2.1174 H   0  0  0  0  0  0  0  0  0  0  0  0
    1.5534    1.9989   -1.0076 H   0  0  0  0  0  0  0  0  0  0  0  0
    0.6330    0.9866   -2.3057 H   0  0  0  0  0  0  0  0  0  0  0  0
   -0.4315    1.6776    0.6149 H   0  0  0  0  0  0  0  0  0  0  0  0
  1  2  1  0
  2  3  1  0
  3  4  1  0
  4  5  1  0
  5  6  1  0
  6  7  1  0
  5  8  1  0
  8  9  1  0
  4  2  1  0
  9  5  1  0
  9  2  1  0
  1 10  1  0
  1 11  1  0
  1 12  1  0
  4 13  1  0
  6 14  1  0
  6 15  1  0
  7 16  1  0
  8 17  1  0
  8 18  1  0
  9 19  1  0
M  END
