
     RDKit          3D

 17 18  0  0  0  0  0  0  0  0999 V2000
   -1.8611   -0.9239    0.0101 C   0  0  0  0  0  0  0  0  0  0  0  0
   -0.6556   -0.1924    0.4662 C   0  0  0  0  0  0  0  0  0  0  0  0
   -0.4975    1.2928    0.1826 C   0  0  0  0  0  0  0  0  0  0  0  0
    0.9350    0.9891   -0.2077 C   0  0  0  0  0  0  0  0  0  0  0  0
    1.9043    1.6420    0.5002 O   0  0  0  0  0  0  0  0  0  0  0  0
    0.6839   -0.4350    0.2486 C   0  0  0  0  0  0  0  0  0  0  0  0
    1.3663   -1.5379   -0.4350 C   0  0  0  0  0  0  0  0  0  0  0  0
    1.8529   -1.3559   -1.5345 O   0  0  0  0  0  0  0  0  0  0  0  0
    0.1291   -0.6505    1.5035 O   0  0  0  0  0  0  0  0  0  0  0  0
   -2.4617   -1.3621    0.8589 H   0  0  0  0  0  0  0  0  0  0  0  0
   -1.5613   -1.8151   -0.6007 H   0  0  0  0  0  0  0  0  0  0  0  0
   -2.4806   -0.2702   -0.6290 H   0  0  0  0  0  0  0  0  0  0  0  0
   -0.6280    1.8561    1.1089 H   0  0  0  0  0  0  0  0  0  0  0  0
   -1.0973    1.6348   -0.6682 H   0  0  0  0  0  0  0  0  0  0  0  0
    1.0773    1.0338   -1.3093 H   0  0  0  0  0  0  0  0  0  0  0  0
    1.8335    2.6186    0.5080 H   0  0  0  0  0  0  0  0  0  0  0  0
    1.4608   -2.5241   -0.0027 H   0  0  0  0  0  0  0  0  0  0  0  0
  1  2  1  0
  2  3  1  0
  3  4  1  0
  4  5  1  0
  4  6  1  0
  6  7  1  0
  7  8  2  0
  6  9  1  0
  6  2  1  0
  9  2  1  0
  1 10  1  0
  1 11  1  0
  1 12  1  0
  3 13  1  0
  3 14  1  0
  4 15  1  0
  5 16  1  0
  7 17  1  0
M  END
