
     RDKit          3D

 18 19  0  0  0  0  0  0  0  0999 V2000
    2.0664   -0.1925   -0.0571 C   0  0  0  0  0  0  0  0  0  0  0  0
    0.5755   -0.0111   -0.1986 C   0  0  0  0  0  0  0  0  0  0  0  0
   -0.2209   -1.2482   -0.4366 C   0  0  0  0  0  0  0  0  0  0  0  0
   -1.6291   -0.7020   -0.3842 C   0  0  0  0  0  0  0  0  0  0  0  0
   -2.5453   -0.9090   -1.1512 O   0  0  0  0  0  0  0  0  0  0  0  0
   -1.6105    0.1517    0.8415 C   0  0  0  0  0  0  0  0  0  0  0  0
   -0.2171    0.7540    0.7738 C   0  0  0  0  0  0  0  0  0  0  0  0
    0.1068    1.3351   -0.5680 C   0  0  0  0  0  0  0  0  0  0  0  0
    2.2784   -1.1964    0.3121 H   0  0  0  0  0  0  0  0  0  0  0  0
    2.4827   -0.1399   -1.1042 H   0  0  0  0  0  0  0  0  0  0  0  0
    2.5360    0.6273    0.4922 H   0  0  0  0  0  0  0  0  0  0  0  0
   -0.0126   -1.7831   -1.3525 H   0  0  0  0  0  0  0  0  0  0  0  0
   -0.1369   -1.8942    0.4850 H   0  0  0  0  0  0  0  0  0  0  0  0
   -2.3982    0.9188    0.7564 H   0  0  0  0  0  0  0  0  0  0  0  0
   -1.6811   -0.4321    1.7709 H   0  0  0  0  0  0  0  0  0  0  0  0
    0.2834    1.0769    1.6853 H   0  0  0  0  0  0  0  0  0  0  0  0
    0.8377    2.1462   -0.5581 H   0  0  0  0  0  0  0  0  0  0  0  0
   -0.7154    1.4985   -1.3065 H   0  0  0  0  0  0  0  0  0  0  0  0
  1  2  1  0
  2  3  1  0
  3  4  1  0
  4  5  2  0
  4  6  1  0
  6  7  1  0
  7  8  1  0
  7  2  1  0
  8  2  1  0
  1  9  1  0
  1 10  1  0
  1 11  1  0
  3 12  1  0
  3 13  1  0
  6 14  1  0
  6 15  1  0
  7 16  1  0
  8 17  1  0
  8 18  1  0
M  END
