
     RDKit          3D

 21 23  0  0  0  0  0  0  0  0999 V2000
   -2.2234   -0.0334    0.3770 C   0  0  0  0  0  0  0  0  0  0  0  0
   -0.7584   -0.0950    0.2397 C   0  0  0  0  0  0  0  0  0  0  0  0
    0.0655    0.8386    1.0975 C   0  0  0  0  0  0  0  0  0  0  0  0
    1.1471    1.2553    0.1265 C   0  0  0  0  0  0  0  0  0  0  0  0
    1.9388    0.0346   -0.2597 C   0  0  0  0  0  0  0  0  0  0  0  0
    0.8488   -0.8283   -0.8890 C   0  0  0  0  0  0  0  0  0  0  0  0
   -0.1085   -1.4397    0.1177 C   0  0  0  0  0  0  0  0  0  0  0  0
   -0.2198    0.2163   -1.1562 C   0  0  0  0  0  0  0  0  0  0  0  0
    0.3774    1.4523   -1.0446 O   0  0  0  0  0  0  0  0  0  0  0  0
   -2.7379   -0.9866    0.5635 H   0  0  0  0  0  0  0  0  0  0  0  0
   -2.4994    0.7274    1.1453 H   0  0  0  0  0  0  0  0  0  0  0  0
   -2.6496    0.3496   -0.5970 H   0  0  0  0  0  0  0  0  0  0  0  0
    0.5892    0.2241    1.8879 H   0  0  0  0  0  0  0  0  0  0  0  0
   -0.5013    1.6728    1.5149 H   0  0  0  0  0  0  0  0  0  0  0  0
    1.7220    2.1154    0.4177 H   0  0  0  0  0  0  0  0  0  0  0  0
    2.4490   -0.4563    0.5672 H   0  0  0  0  0  0  0  0  0  0  0  0
    2.6160    0.3136   -1.1090 H   0  0  0  0  0  0  0  0  0  0  0  0
    1.1479   -1.4495   -1.7241 H   0  0  0  0  0  0  0  0  0  0  0  0
   -0.6938   -2.2285   -0.3699 H   0  0  0  0  0  0  0  0  0  0  0  0
    0.3827   -1.7145    1.0746 H   0  0  0  0  0  0  0  0  0  0  0  0
   -0.8922    0.0318   -1.9801 H   0  0  0  0  0  0  0  0  0  0  0  0
  1  2  1  0
  2  3  1  0
  3  4  1  0
  4  5  1  0
  5  6  1  0
  6  7  1  0
  6  8  1  0
  8  9  1  0
  7  2  1  0
  8  2  1  0
  9  4  1  0
  1 10  1  0
  1 11  1  0
  1 12  1  0
  3 13  1  0
  3 14  1  0
  4 15  1  0
  5 16  1  0
  5 17  1  0
  6 18  1  0
  7 19  1  0
  7 20  1  0
  8 21  1  0
M  END
