
     RDKit          3D

 17 18  0  0  0  0  0  0  0  0999 V2000
    2.0990   -0.3106    0.2283 C   0  0  0  0  0  0  0  0  0  0  0  0
    0.6566   -0.1314    0.0607 C   0  0  0  0  0  0  0  0  0  0  0  0
    0.0251   -1.0094   -0.9756 C   0  0  0  0  0  0  0  0  0  0  0  0
   -1.2656   -1.0340   -0.6565 C   0  0  0  0  0  0  0  0  0  0  0  0
   -1.3872   -0.2818    0.6174 C   0  0  0  0  0  0  0  0  0  0  0  0
   -1.2513    1.2025    0.3340 C   0  0  0  0  0  0  0  0  0  0  0  0
    0.1796    1.2632   -0.0507 C   0  0  0  0  0  0  0  0  0  0  0  0
    0.8254    2.2121   -0.3803 O   0  0  0  0  0  0  0  0  0  0  0  0
   -0.1131   -0.5439    1.1816 O   0  0  0  0  0  0  0  0  0  0  0  0
    2.3738   -1.3556   -0.0429 H   0  0  0  0  0  0  0  0  0  0  0  0
    2.3798   -0.0892    1.2974 H   0  0  0  0  0  0  0  0  0  0  0  0
    2.6408    0.4275   -0.4140 H   0  0  0  0  0  0  0  0  0  0  0  0
    0.4596   -1.5278   -1.8082 H   0  0  0  0  0  0  0  0  0  0  0  0
   -2.0177   -1.5250   -1.2568 H   0  0  0  0  0  0  0  0  0  0  0  0
   -2.2090   -0.5561    1.2506 H   0  0  0  0  0  0  0  0  0  0  0  0
   -1.8824    1.4316   -0.5679 H   0  0  0  0  0  0  0  0  0  0  0  0
   -1.5134    1.8281    1.1830 H   0  0  0  0  0  0  0  0  0  0  0  0
  1  2  1  0
  2  3  1  0
  3  4  2  0
  4  5  1  0
  5  6  1  0
  6  7  1  0
  7  8  2  0
  5  9  1  0
  7  2  1  0
  9  2  1  0
  1 10  1  0
  1 11  1  0
  1 12  1  0
  3 13  1  0
  4 14  1  0
  5 15  1  0
  6 16  1  0
  6 17  1  0
M  END
