
     RDKit          3D

 17 19  0  0  0  0  0  0  0  0999 V2000
   -2.3446   -0.2806   -0.0667 C   0  0  0  0  0  0  0  0  0  0  0  0
   -0.9532    0.1656    0.1872 C   0  0  0  0  0  0  0  0  0  0  0  0
   -0.7738    1.0959    1.2365 O   0  0  0  0  0  0  0  0  0  0  0  0
   -0.0735   -0.0846    1.1999 C   0  0  0  0  0  0  0  0  0  0  0  0
    1.1299   -0.0754    0.2568 C   0  0  0  0  0  0  0  0  0  0  0  0
    2.1259    1.0118    0.4057 C   0  0  0  0  0  0  0  0  0  0  0  0
    2.2265    1.9527   -0.3561 O   0  0  0  0  0  0  0  0  0  0  0  0
    1.1088   -0.9857   -0.8853 C   0  0  0  0  0  0  0  0  0  0  0  0
    0.1030    0.0966   -0.8841 C   0  0  0  0  0  0  0  0  0  0  0  0
   -3.0581    0.2776    0.5988 H   0  0  0  0  0  0  0  0  0  0  0  0
   -2.5313   -1.3500    0.0408 H   0  0  0  0  0  0  0  0  0  0  0  0
   -2.6318    0.0330   -1.1040 H   0  0  0  0  0  0  0  0  0  0  0  0
   -0.0372   -0.7721    2.0447 H   0  0  0  0  0  0  0  0  0  0  0  0
    2.7999    0.9578    1.2445 H   0  0  0  0  0  0  0  0  0  0  0  0
    1.9020   -0.9265   -1.6328 H   0  0  0  0  0  0  0  0  0  0  0  0
    0.7671   -2.0388   -0.7021 H   0  0  0  0  0  0  0  0  0  0  0  0
    0.2403    0.9227   -1.5839 H   0  0  0  0  0  0  0  0  0  0  0  0
  1  2  1  0
  2  3  1  0
  3  4  1  0
  4  5  1  0
  5  6  1  0
  6  7  2  0
  5  8  1  0
  8  9  1  0
  4  2  1  0
  9  5  1  0
  9  2  1  0
  1 10  1  0
  1 11  1  0
  1 12  1  0
  4 13  1  0
  6 14  1  0
  8 15  1  0
  8 16  1  0
  9 17  1  0
M  END
