
     RDKit          3D

 21 22  0  0  0  0  0  0  0  0999 V2000
    0.0370    1.8826   -0.5105 C   0  0  0  0  0  0  0  0  0  0  0  0
    0.0287    0.4825    0.0456 C   0  0  0  0  0  0  0  0  0  0  0  0
    1.3705    0.0977    0.5556 C   0  0  0  0  0  0  0  0  0  0  0  0
    1.5546   -1.3000    0.0706 C   0  0  0  0  0  0  0  0  0  0  0  0
    0.5995   -1.5921   -0.8523 O   0  0  0  0  0  0  0  0  0  0  0  0
   -0.2937   -0.5673   -0.9601 C   0  0  0  0  0  0  0  0  0  0  0  0
   -1.6470   -1.0820   -0.4584 C   0  0  0  0  0  0  0  0  0  0  0  0
   -2.1730    0.0359    0.2110 O   0  0  0  0  0  0  0  0  0  0  0  0
   -1.0790    0.3498    1.0518 C   0  0  0  0  0  0  0  0  0  0  0  0
   -0.9900    2.3233   -0.4506 H   0  0  0  0  0  0  0  0  0  0  0  0
    0.6749    2.5006    0.1717 H   0  0  0  0  0  0  0  0  0  0  0  0
    0.4733    1.9420   -1.5172 H   0  0  0  0  0  0  0  0  0  0  0  0
    2.1255    0.7665    0.0522 H   0  0  0  0  0  0  0  0  0  0  0  0
    1.5187    0.2259    1.6369 H   0  0  0  0  0  0  0  0  0  0  0  0
    2.5583   -1.3995   -0.4388 H   0  0  0  0  0  0  0  0  0  0  0  0
    1.5429   -1.9774    0.9650 H   0  0  0  0  0  0  0  0  0  0  0  0
   -0.4033   -0.1788   -1.9888 H   0  0  0  0  0  0  0  0  0  0  0  0
   -1.4321   -1.8309    0.3352 H   0  0  0  0  0  0  0  0  0  0  0  0
   -2.2824   -1.4432   -1.2626 H   0  0  0  0  0  0  0  0  0  0  0  0
   -0.9394   -0.5224    1.7400 H   0  0  0  0  0  0  0  0  0  0  0  0
   -1.2440    1.2866    1.6036 H   0  0  0  0  0  0  0  0  0  0  0  0
  1  2  1  0
  2  3  1  0
  3  4  1  0
  4  5  1  0
  5  6  1  0
  6  7  1  0
  7  8  1  0
  8  9  1  0
  6  2  1  0
  9  2  1  0
  1 10  1  0
  1 11  1  0
  1 12  1  0
  3 13  1  0
  3 14  1  0
  4 15  1  0
  4 16  1  0
  6 17  1  0
  7 18  1  0
  7 19  1  0
  9 20  1  0
  9 21  1  0
M  END
