
     RDKit          3D

 23 25  0  0  0  0  0  0  0  0999 V2000
    2.1635   -0.6730   -0.8790 C   0  0  0  0  0  0  0  0  0  0  0  0
    1.1024   -0.1882    0.0894 C   0  0  0  0  0  0  0  0  0  0  0  0
    0.2198   -1.2615    0.6550 C   0  0  0  0  0  0  0  0  0  0  0  0
   -1.0431   -1.2679   -0.2169 C   0  0  0  0  0  0  0  0  0  0  0  0
   -1.8735   -0.1162    0.2647 C   0  0  0  0  0  0  0  0  0  0  0  0
   -2.2262    1.0321   -0.5624 C   0  0  0  0  0  0  0  0  0  0  0  0
   -1.0418    1.0910    0.3784 C   0  0  0  0  0  0  0  0  0  0  0  0
    0.3226    1.0148   -0.1969 C   0  0  0  0  0  0  0  0  0  0  0  0
    1.4415    1.0310    0.8488 C   0  0  0  0  0  0  0  0  0  0  0  0
    1.8203   -1.4643   -1.5454 H   0  0  0  0  0  0  0  0  0  0  0  0
    2.9884   -1.0989   -0.2523 H   0  0  0  0  0  0  0  0  0  0  0  0
    2.5746    0.2056   -1.4260 H   0  0  0  0  0  0  0  0  0  0  0  0
   -0.0574   -0.9278    1.6974 H   0  0  0  0  0  0  0  0  0  0  0  0
    0.6763   -2.2421    0.7366 H   0  0  0  0  0  0  0  0  0  0  0  0
   -1.5495   -2.2367   -0.2011 H   0  0  0  0  0  0  0  0  0  0  0  0
   -0.7186   -1.0429   -1.2728 H   0  0  0  0  0  0  0  0  0  0  0  0
   -2.5228   -0.3806    1.1400 H   0  0  0  0  0  0  0  0  0  0  0  0
   -2.0770    1.0986   -1.6471 H   0  0  0  0  0  0  0  0  0  0  0  0
   -3.1420    1.6048   -0.2321 H   0  0  0  0  0  0  0  0  0  0  0  0
   -1.1410    1.7025    1.2877 H   0  0  0  0  0  0  0  0  0  0  0  0
    0.5507    1.5219   -1.1713 H   0  0  0  0  0  0  0  0  0  0  0  0
    1.1618    1.0264    1.9177 H   0  0  0  0  0  0  0  0  0  0  0  0
    2.3712    1.5711    0.5873 H   0  0  0  0  0  0  0  0  0  0  0  0
  1  2  1  0
  2  3  1  0
  3  4  1  0
  4  5  1  0
  5  6  1  0
  6  7  1  0
  7  8  1  0
  8  9  1  0
  8  2  1  0
  9  2  1  0
  7  5  1  0
  1 10  1  0
  1 11  1  0
  1 12  1  0
  3 13  1  0
  3 14  1  0
  4 15  1  0
  4 16  1  0
  5 17  1  0
  6 18  1  0
  6 19  1  0
  7 20  1  0
  8 21  1  0
  9 22  1  0
  9 23  1  0
M  END
