
     RDKit          3D

 19 20  0  0  0  0  0  0  0  0999 V2000
    1.1923   -0.6990   -0.8474 C   0  0  0  0  0  0  0  0  0  0  0  0
    0.7182    0.2034    0.3001 C   0  0  0  0  0  0  0  0  0  0  0  0
   -0.2050   -0.4949    1.2010 C   0  0  0  0  0  0  0  0  0  0  0  0
   -1.4087   -0.8994    0.3321 C   0  0  0  0  0  0  0  0  0  0  0  0
   -1.4162   -0.2312   -0.9812 C   0  0  0  0  0  0  0  0  0  0  0  0
   -2.0530   -0.8103   -1.9054 O   0  0  0  0  0  0  0  0  0  0  0  0
   -0.7515    0.9968   -1.2199 O   0  0  0  0  0  0  0  0  0  0  0  0
   -0.0977    1.4837   -0.1026 C   0  0  0  0  0  0  0  0  0  0  0  0
    1.2526    1.5149    0.3035 C   0  0  0  0  0  0  0  0  0  0  0  0
    1.2731   -0.1084   -1.7980 H   0  0  0  0  0  0  0  0  0  0  0  0
    0.6209   -1.6170   -0.9459 H   0  0  0  0  0  0  0  0  0  0  0  0
    2.2602   -0.9517   -0.5842 H   0  0  0  0  0  0  0  0  0  0  0  0
    0.2123   -1.3788    1.7201 H   0  0  0  0  0  0  0  0  0  0  0  0
   -0.6187    0.1619    1.9935 H   0  0  0  0  0  0  0  0  0  0  0  0
   -2.3416   -0.7766    0.8913 H   0  0  0  0  0  0  0  0  0  0  0  0
   -1.3200   -2.0094    0.1358 H   0  0  0  0  0  0  0  0  0  0  0  0
   -0.8627    1.8454    0.6479 H   0  0  0  0  0  0  0  0  0  0  0  0
    2.0405    1.7905   -0.4348 H   0  0  0  0  0  0  0  0  0  0  0  0
    1.5052    1.9801    1.2940 H   0  0  0  0  0  0  0  0  0  0  0  0
  1  2  1  0
  2  3  1  0
  3  4  1  0
  4  5  1  0
  5  6  2  0
  5  7  1  0
  7  8  1  0
  8  9  1  0
  8  2  1  0
  9  2  1  0
  1 10  1  0
  1 11  1  0
  1 12  1  0
  3 13  1  0
  3 14  1  0
  4 15  1  0
  4 16  1  0
  8 17  1  0
  9 18  1  0
  9 19  1  0
M  END
