
     RDKit          3D

 17 18  0  0  0  0  0  0  0  0999 V2000
    2.1593   -0.0231    0.1708 C   0  0  0  0  0  0  0  0  0  0  0  0
    0.7193    0.1720    0.1628 C   0  0  0  0  0  0  0  0  0  0  0  0
   -0.0354   -0.2238   -1.1246 C   0  0  0  0  0  0  0  0  0  0  0  0
   -1.1808   -0.2644   -0.1047 C   0  0  0  0  0  0  0  0  0  0  0  0
   -2.2864   -0.9071   -0.4047 O   0  0  0  0  0  0  0  0  0  0  0  0
   -1.1920    1.1882    0.2903 C   0  0  0  0  0  0  0  0  0  0  0  0
    0.1866    1.4120    0.4937 O   0  0  0  0  0  0  0  0  0  0  0  0
   -0.1647   -0.8215    0.8015 C   0  0  0  0  0  0  0  0  0  0  0  0
   -0.0658   -1.6522    1.6393 O   0  0  0  0  0  0  0  0  0  0  0  0
    2.6691    0.7206    0.8227 H   0  0  0  0  0  0  0  0  0  0  0  0
    2.4442   -1.0356    0.5410 H   0  0  0  0  0  0  0  0  0  0  0  0
    2.6097    0.1073   -0.8568 H   0  0  0  0  0  0  0  0  0  0  0  0
    0.2877   -1.1868   -1.5009 H   0  0  0  0  0  0  0  0  0  0  0  0
   -0.1552    0.6092   -1.8275 H   0  0  0  0  0  0  0  0  0  0  0  0
   -2.7579   -1.2881    0.3488 H   0  0  0  0  0  0  0  0  0  0  0  0
   -1.7875    1.4175    1.1664 H   0  0  0  0  0  0  0  0  0  0  0  0
   -1.4501    1.7757   -0.6181 H   0  0  0  0  0  0  0  0  0  0  0  0
  1  2  1  0
  2  3  1  0
  3  4  1  0
  4  5  1  0
  4  6  1  0
  6  7  1  0
  4  8  1  0
  8  9  2  0
  7  2  1  0
  8  2  1  0
  1 10  1  0
  1 11  1  0
  1 12  1  0
  3 13  1  0
  3 14  1  0
  5 15  1  0
  6 16  1  0
  6 17  1  0
M  END
