
     RDKit          3D

 19 21  0  0  0  0  0  0  0  0999 V2000
    2.0272   -0.2843    0.0430 C   0  0  0  0  0  0  0  0  0  0  0  0
    0.7035    0.3679    0.2287 C   0  0  0  0  0  0  0  0  0  0  0  0
    0.4043    1.6497   -0.4651 C   0  0  0  0  0  0  0  0  0  0  0  0
   -0.9014    1.8254   -0.5169 C   0  0  0  0  0  0  0  0  0  0  0  0
   -1.5967    0.6609    0.1473 C   0  0  0  0  0  0  0  0  0  0  0  0
   -1.3519    0.7596    1.5253 O   0  0  0  0  0  0  0  0  0  0  0  0
   -0.1349    0.1066    1.4295 C   0  0  0  0  0  0  0  0  0  0  0  0
   -0.5469   -0.3850    0.1091 C   0  0  0  0  0  0  0  0  0  0  0  0
   -0.7221   -1.7678   -0.2920 C   0  0  0  0  0  0  0  0  0  0  0  0
    1.9301   -1.1408   -0.6428 H   0  0  0  0  0  0  0  0  0  0  0  0
    2.7885    0.3950   -0.4279 H   0  0  0  0  0  0  0  0  0  0  0  0
    2.3797   -0.6477    1.0234 H   0  0  0  0  0  0  0  0  0  0  0  0
    1.1364    2.3255   -0.8614 H   0  0  0  0  0  0  0  0  0  0  0  0
   -1.3805    2.6830   -0.9721 H   0  0  0  0  0  0  0  0  0  0  0  0
   -2.5993    0.4496   -0.1711 H   0  0  0  0  0  0  0  0  0  0  0  0
    0.1998   -0.5684    2.2336 H   0  0  0  0  0  0  0  0  0  0  0  0
   -1.3098   -2.3493    0.4443 H   0  0  0  0  0  0  0  0  0  0  0  0
    0.2444   -2.2693   -0.4263 H   0  0  0  0  0  0  0  0  0  0  0  0
   -1.2704   -1.8106   -1.2753 H   0  0  0  0  0  0  0  0  0  0  0  0
  1  2  1  0
  2  3  1  0
  3  4  2  0
  4  5  1  0
  5  6  1  0
  6  7  1  0
  7  8  1  0
  8  9  1  0
  7  2  1  0
  8  2  1  0
  8  5  1  0
  1 10  1  0
  1 11  1  0
  1 12  1  0
  3 13  1  0
  4 14  1  0
  5 15  1  0
  7 16  1  0
  9 17  1  0
  9 18  1  0
  9 19  1  0
M  END
