
     RDKit          3D

 19 20  0  0  0  0  0  0  0  0999 V2000
   -1.6799   -0.4623    0.9181 C   0  0  0  0  0  0  0  0  0  0  0  0
   -0.5846   -0.1044   -0.0304 C   0  0  0  0  0  0  0  0  0  0  0  0
   -0.5418    1.3032   -0.5277 C   0  0  0  0  0  0  0  0  0  0  0  0
    0.8982    1.3976   -0.0246 C   0  0  0  0  0  0  0  0  0  0  0  0
    0.7782    0.0075    0.5721 C   0  0  0  0  0  0  0  0  0  0  0  0
    1.6493   -0.9891   -0.1294 C   0  0  0  0  0  0  0  0  0  0  0  0
    0.6966   -1.8950   -0.6975 O   0  0  0  0  0  0  0  0  0  0  0  0
   -0.4058   -1.1594   -1.0603 C   0  0  0  0  0  0  0  0  0  0  0  0
   -1.1713   -1.2870   -2.0549 O   0  0  0  0  0  0  0  0  0  0  0  0
   -1.5530    0.0349    1.9008 H   0  0  0  0  0  0  0  0  0  0  0  0
   -2.6784   -0.2131    0.5438 H   0  0  0  0  0  0  0  0  0  0  0  0
   -1.6589   -1.5688    1.0561 H   0  0  0  0  0  0  0  0  0  0  0  0
   -1.1850    2.0375   -0.0495 H   0  0  0  0  0  0  0  0  0  0  0  0
   -0.6199    1.3317   -1.6442 H   0  0  0  0  0  0  0  0  0  0  0  0
    1.6558    1.5077   -0.8196 H   0  0  0  0  0  0  0  0  0  0  0  0
    1.0535    2.1468    0.7747 H   0  0  0  0  0  0  0  0  0  0  0  0
    0.7726   -0.0274    1.6688 H   0  0  0  0  0  0  0  0  0  0  0  0
    2.3342   -1.5347    0.5465 H   0  0  0  0  0  0  0  0  0  0  0  0
    2.2403   -0.5257   -0.9427 H   0  0  0  0  0  0  0  0  0  0  0  0
  1  2  1  0
  2  3  1  0
  3  4  1  0
  4  5  1  0
  5  6  1  0
  6  7  1  0
  7  8  1  0
  8  9  2  0
  5  2  1  0
  8  2  1  0
  1 10  1  0
  1 11  1  0
  1 12  1  0
  3 13  1  0
  3 14  1  0
  4 15  1  0
  4 16  1  0
  5 17  1  0
  6 18  1  0
  6 19  1  0
M  END
