
     RDKit          3D

 21 23  0  0  0  0  0  0  0  0999 V2000
    2.2283   -0.6765   -0.2733 C   0  0  0  0  0  0  0  0  0  0  0  0
    0.8617   -0.0658   -0.1767 C   0  0  0  0  0  0  0  0  0  0  0  0
    0.7978    1.2295    0.5917 C   0  0  0  0  0  0  0  0  0  0  0  0
   -0.3581    1.3874   -0.3648 C   0  0  0  0  0  0  0  0  0  0  0  0
    0.5110    0.7455   -1.2889 O   0  0  0  0  0  0  0  0  0  0  0  0
   -1.5507    0.5598   -0.0254 C   0  0  0  0  0  0  0  0  0  0  0  0
   -1.4316   -0.7088   -0.8985 C   0  0  0  0  0  0  0  0  0  0  0  0
   -0.2704   -0.9959    0.0805 C   0  0  0  0  0  0  0  0  0  0  0  0
   -1.2734   -0.4431    1.0998 C   0  0  0  0  0  0  0  0  0  0  0  0
    2.7663   -0.4174   -1.2066 H   0  0  0  0  0  0  0  0  0  0  0  0
    2.1572   -1.7794   -0.1098 H   0  0  0  0  0  0  0  0  0  0  0  0
    2.8230   -0.2971    0.6006 H   0  0  0  0  0  0  0  0  0  0  0  0
    0.6207    1.2200    1.6449 H   0  0  0  0  0  0  0  0  0  0  0  0
    1.6283    1.8839    0.2917 H   0  0  0  0  0  0  0  0  0  0  0  0
   -0.5353    2.4335   -0.6375 H   0  0  0  0  0  0  0  0  0  0  0  0
   -2.5258    1.0173   -0.0143 H   0  0  0  0  0  0  0  0  0  0  0  0
   -1.0961   -0.4540   -1.9096 H   0  0  0  0  0  0  0  0  0  0  0  0
   -2.2833   -1.3710   -0.7811 H   0  0  0  0  0  0  0  0  0  0  0  0
   -0.0506   -2.0560    0.1718 H   0  0  0  0  0  0  0  0  0  0  0  0
   -2.1237   -1.1411    1.1812 H   0  0  0  0  0  0  0  0  0  0  0  0
   -0.8954   -0.0709    2.0242 H   0  0  0  0  0  0  0  0  0  0  0  0
  1  2  1  0
  2  3  1  0
  3  4  1  0
  4  5  1  0
  4  6  1  0
  6  7  1  0
  7  8  1  0
  8  9  1  0
  5  2  1  0
  9  6  1  0
  8  2  1  0
  1 10  1  0
  1 11  1  0
  1 12  1  0
  3 13  1  0
  3 14  1  0
  4 15  1  0
  6 16  1  0
  7 17  1  0
  7 18  1  0
  8 19  1  0
  9 20  1  0
  9 21  1  0
M  END
