
     RDKit          3D

 18 21  0  0  0  0  0  0  0  0999 V2000
   -1.6522    1.2063    0.2042 C   0  0  0  0  0  0  0  0  0  0  0  0
   -0.6862    0.1650    0.1791 C   0  0  0  0  0  0  0  0  0  0  0  0
   -0.8852   -1.2991    0.0574 C   0  0  0  0  0  0  0  0  0  0  0  0
   -0.0898   -1.3745   -1.1134 C   0  0  0  0  0  0  0  0  0  0  0  0
    0.5508   -1.4623    0.1941 C   0  0  0  0  0  0  0  0  0  0  0  0
    0.7104    0.0240    0.1975 C   0  0  0  0  0  0  0  0  0  0  0  0
    1.8073    0.7479    0.7827 C   0  0  0  0  0  0  0  0  0  0  0  0
    0.1607    0.0666   -1.1235 C   0  0  0  0  0  0  0  0  0  0  0  0
   -1.2621    2.1789   -0.1327 H   0  0  0  0  0  0  0  0  0  0  0  0
   -2.5212    0.9823   -0.4828 H   0  0  0  0  0  0  0  0  0  0  0  0
   -2.1168    1.3349    1.2078 H   0  0  0  0  0  0  0  0  0  0  0  0
   -1.6756   -1.8755    0.4479 H   0  0  0  0  0  0  0  0  0  0  0  0
   -0.0443   -2.0583   -1.9221 H   0  0  0  0  0  0  0  0  0  0  0  0
    1.1462   -2.1888    0.6349 H   0  0  0  0  0  0  0  0  0  0  0  0
    1.8849    1.7749    0.3603 H   0  0  0  0  0  0  0  0  0  0  0  0
    2.7820    0.2528    0.4932 H   0  0  0  0  0  0  0  0  0  0  0  0
    1.8075    0.7427    1.8898 H   0  0  0  0  0  0  0  0  0  0  0  0
    0.0836    0.7823   -1.8742 H   0  0  0  0  0  0  0  0  0  0  0  0
  1  2  1  0
  2  3  1  0
  3  4  1  0
  4  5  1  0
  5  6  1  0
  6  7  1  0
  6  8  1  0
  6  2  1  0
  8  2  1  0
  5  3  1  0
  8  4  1  0
  1  9  1  0
  1 10  1  0
  1 11  1  0
  3 12  1  0
  4 13  1  0
  5 14  1  0
  7 15  1  0
  7 16  1  0
  7 17  1  0
  8 18  1  0
M  END
