
     RDKit          3D

 21 22  0  0  0  0  0  0  0  0999 V2000
   -2.5436   -0.0220    0.2566 C   0  0  0  0  0  0  0  0  0  0  0  0
   -1.0963    0.1409    0.0026 C   0  0  0  0  0  0  0  0  0  0  0  0
   -0.4202    1.4784    0.0568 C   0  0  0  0  0  0  0  0  0  0  0  0
    0.5688    1.2874    1.0204 O   0  0  0  0  0  0  0  0  0  0  0  0
    1.1263    0.0446    0.7991 C   0  0  0  0  0  0  0  0  0  0  0  0
    2.1597    0.1408   -0.2889 C   0  0  0  0  0  0  0  0  0  0  0  0
    2.7623   -1.0690   -0.5656 O   0  0  0  0  0  0  0  0  0  0  0  0
   -0.0553   -0.8044    0.4258 C   0  0  0  0  0  0  0  0  0  0  0  0
   -0.5161   -0.9047   -0.9711 C   0  0  0  0  0  0  0  0  0  0  0  0
   -2.9244    0.8504    0.8362 H   0  0  0  0  0  0  0  0  0  0  0  0
   -3.0785    0.0439   -0.7359 H   0  0  0  0  0  0  0  0  0  0  0  0
   -2.8262   -0.9792    0.7267 H   0  0  0  0  0  0  0  0  0  0  0  0
   -1.1539    2.2022    0.5045 H   0  0  0  0  0  0  0  0  0  0  0  0
   -0.0210    1.8150   -0.9077 H   0  0  0  0  0  0  0  0  0  0  0  0
    1.6266   -0.2816    1.7218 H   0  0  0  0  0  0  0  0  0  0  0  0
    2.9327    0.8590    0.0604 H   0  0  0  0  0  0  0  0  0  0  0  0
    1.7653    0.5492   -1.2362 H   0  0  0  0  0  0  0  0  0  0  0  0
    3.0598   -1.5184    0.2601 H   0  0  0  0  0  0  0  0  0  0  0  0
   -0.2342   -1.6618    1.0885 H   0  0  0  0  0  0  0  0  0  0  0  0
    0.0009   -0.4136   -1.8137 H   0  0  0  0  0  0  0  0  0  0  0  0
   -1.1328   -1.7572   -1.2403 H   0  0  0  0  0  0  0  0  0  0  0  0
  1  2  1  0
  2  3  1  0
  3  4  1  0
  4  5  1  0
  5  6  1  0
  6  7  1  0
  5  8  1  0
  8  9  1  0
  8  2  1  0
  9  2  1  0
  1 10  1  0
  1 11  1  0
  1 12  1  0
  3 13  1  0
  3 14  1  0
  5 15  1  0
  6 16  1  0
  6 17  1  0
  7 18  1  0
  8 19  1  0
  9 20  1  0
  9 21  1  0
M  END
