
     RDKit          3D

 19 20  0  0  0  0  0  0  0  0999 V2000
    2.2085    0.3953   -0.3716 C   0  0  0  0  0  0  0  0  0  0  0  0
    0.7400    0.2643   -0.2031 C   0  0  0  0  0  0  0  0  0  0  0  0
    0.2844   -0.3321    1.1336 C   0  0  0  0  0  0  0  0  0  0  0  0
   -0.8753   -0.9347    0.3429 C   0  0  0  0  0  0  0  0  0  0  0  0
   -1.9514    0.0796    0.0614 C   0  0  0  0  0  0  0  0  0  0  0  0
   -1.3173    1.4239    0.0342 C   0  0  0  0  0  0  0  0  0  0  0  0
   -1.9160    2.4716    0.3945 O   0  0  0  0  0  0  0  0  0  0  0  0
   -0.0035    1.4509   -0.4206 O   0  0  0  0  0  0  0  0  0  0  0  0
    0.0902   -0.9430   -0.8496 C   0  0  0  0  0  0  0  0  0  0  0  0
    2.6379   -0.5287   -0.7695 H   0  0  0  0  0  0  0  0  0  0  0  0
    2.3896    1.2235   -1.1187 H   0  0  0  0  0  0  0  0  0  0  0  0
    2.7257    0.7497    0.5556 H   0  0  0  0  0  0  0  0  0  0  0  0
    0.9513   -1.1318    1.4804 H   0  0  0  0  0  0  0  0  0  0  0  0
   -0.0255    0.4168    1.8739 H   0  0  0  0  0  0  0  0  0  0  0  0
   -1.1961   -1.9190    0.6753 H   0  0  0  0  0  0  0  0  0  0  0  0
   -2.3079   -0.1083   -0.9864 H   0  0  0  0  0  0  0  0  0  0  0  0
   -2.7991    0.0160    0.7513 H   0  0  0  0  0  0  0  0  0  0  0  0
   -0.3790   -0.7819   -1.8190 H   0  0  0  0  0  0  0  0  0  0  0  0
    0.7434   -1.8123   -0.7646 H   0  0  0  0  0  0  0  0  0  0  0  0
  1  2  1  0
  2  3  1  0
  3  4  1  0
  4  5  1  0
  5  6  1  0
  6  7  2  0
  6  8  1  0
  4  9  1  0
  8  2  1  0
  9  2  1  0
  1 10  1  0
  1 11  1  0
  1 12  1  0
  3 13  1  0
  3 14  1  0
  4 15  1  0
  5 16  1  0
  5 17  1  0
  9 18  1  0
  9 19  1  0
M  END
