
     RDKit          3D

 19 20  0  0  0  0  0  0  0  0999 V2000
   -1.8782   -1.1727   -0.1275 C   0  0  0  0  0  0  0  0  0  0  0  0
   -0.4564   -0.6335    0.0786 C   0  0  0  0  0  0  0  0  0  0  0  0
   -0.1586   -0.0501    1.4158 C   0  0  0  0  0  0  0  0  0  0  0  0
   -0.2365    0.7975    0.2089 C   0  0  0  0  0  0  0  0  0  0  0  0
   -1.3647    1.6232    0.0265 O   0  0  0  0  0  0  0  0  0  0  0  0
    1.0433    1.3417   -0.3255 C   0  0  0  0  0  0  0  0  0  0  0  0
    1.6602    0.5135   -1.2551 O   0  0  0  0  0  0  0  0  0  0  0  0
    1.7273   -0.7606   -0.6849 C   0  0  0  0  0  0  0  0  0  0  0  0
    0.4934   -1.3519   -0.6067 O   0  0  0  0  0  0  0  0  0  0  0  0
   -2.1636   -1.0997   -1.1974 H   0  0  0  0  0  0  0  0  0  0  0  0
   -1.8161   -2.2670    0.0899 H   0  0  0  0  0  0  0  0  0  0  0  0
   -2.6033   -0.6910    0.5292 H   0  0  0  0  0  0  0  0  0  0  0  0
   -0.9740    0.0708    2.1598 H   0  0  0  0  0  0  0  0  0  0  0  0
    0.8134   -0.2936    1.8855 H   0  0  0  0  0  0  0  0  0  0  0  0
   -1.2410    2.0561   -0.8704 H   0  0  0  0  0  0  0  0  0  0  0  0
    0.8795    2.3209   -0.8430 H   0  0  0  0  0  0  0  0  0  0  0  0
    1.7316    1.5861    0.5264 H   0  0  0  0  0  0  0  0  0  0  0  0
    2.3668   -1.3793   -1.3401 H   0  0  0  0  0  0  0  0  0  0  0  0
    2.1769   -0.6105    0.3301 H   0  0  0  0  0  0  0  0  0  0  0  0
  1  2  1  0
  2  3  1  0
  3  4  1  0
  4  5  1  0
  4  6  1  0
  6  7  1  0
  7  8  1  0
  8  9  1  0
  4  2  1  0
  9  2  1  0
  1 10  1  0
  1 11  1  0
  1 12  1  0
  3 13  1  0
  3 14  1  0
  5 15  1  0
  6 16  1  0
  6 17  1  0
  8 18  1  0
  8 19  1  0
M  END
