
     RDKit          3D

 19 21  0  0  0  0  0  0  0  0999 V2000
    1.6249    1.1873   -0.6919 C   0  0  0  0  0  0  0  0  0  0  0  0
    0.8752    0.2133    0.1177 C   0  0  0  0  0  0  0  0  0  0  0  0
    1.4711   -1.0346    0.4100 O   0  0  0  0  0  0  0  0  0  0  0  0
    0.4989   -1.8229    0.9941 C   0  0  0  0  0  0  0  0  0  0  0  0
   -0.8459   -1.1950    0.7120 C   0  0  0  0  0  0  0  0  0  0  0  0
   -1.0883   -0.1880    1.6328 O   0  0  0  0  0  0  0  0  0  0  0  0
   -0.1745    0.6364    1.0469 C   0  0  0  0  0  0  0  0  0  0  0  0
   -0.4728   -0.1401   -0.2776 C   0  0  0  0  0  0  0  0  0  0  0  0
   -1.3848    0.5448   -1.1703 C   0  0  0  0  0  0  0  0  0  0  0  0
    1.2635    2.2269   -0.4455 H   0  0  0  0  0  0  0  0  0  0  0  0
    2.7063    1.0836   -0.6358 H   0  0  0  0  0  0  0  0  0  0  0  0
    1.3306    1.0519   -1.7732 H   0  0  0  0  0  0  0  0  0  0  0  0
    0.5272   -2.8782    0.6825 H   0  0  0  0  0  0  0  0  0  0  0  0
    0.6820   -1.7669    2.1080 H   0  0  0  0  0  0  0  0  0  0  0  0
   -1.6585   -1.8361    0.4126 H   0  0  0  0  0  0  0  0  0  0  0  0
   -0.4291    1.7066    1.0560 H   0  0  0  0  0  0  0  0  0  0  0  0
   -2.4233    0.5316   -0.7459 H   0  0  0  0  0  0  0  0  0  0  0  0
   -1.3851    0.0531   -2.1786 H   0  0  0  0  0  0  0  0  0  0  0  0
   -1.1171    1.6265   -1.2536 H   0  0  0  0  0  0  0  0  0  0  0  0
  1  2  1  0
  2  3  1  0
  3  4  1  0
  4  5  1  0
  5  6  1  0
  6  7  1  0
  7  8  1  0
  8  9  1  0
  7  2  1  0
  8  2  1  0
  8  5  1  0
  1 10  1  0
  1 11  1  0
  1 12  1  0
  4 13  1  0
  4 14  1  0
  5 15  1  0
  7 16  1  0
  9 17  1  0
  9 18  1  0
  9 19  1  0
M  END
