
     RDKit          3D

 19 20  0  0  0  0  0  0  0  0999 V2000
    2.2202    0.0015   -0.4634 C   0  0  0  0  0  0  0  0  0  0  0  0
    0.8933    0.0177    0.0591 C   0  0  0  0  0  0  0  0  0  0  0  0
    0.5972    0.3805    1.4881 C   0  0  0  0  0  0  0  0  0  0  0  0
   -0.8203    0.3253    1.4575 O   0  0  0  0  0  0  0  0  0  0  0  0
   -1.0780   -0.1105    0.1887 C   0  0  0  0  0  0  0  0  0  0  0  0
   -2.4302   -0.3560   -0.2726 C   0  0  0  0  0  0  0  0  0  0  0  0
   -0.1980    0.8257   -0.6591 C   0  0  0  0  0  0  0  0  0  0  0  0
   -0.0249   -1.1457   -0.1356 C   0  0  0  0  0  0  0  0  0  0  0  0
    0.0841   -2.3056   -0.4124 O   0  0  0  0  0  0  0  0  0  0  0  0
    2.5756   -0.9192   -0.9733 H   0  0  0  0  0  0  0  0  0  0  0  0
    2.3699    0.8245   -1.2221 H   0  0  0  0  0  0  0  0  0  0  0  0
    2.9816    0.2199    0.3280 H   0  0  0  0  0  0  0  0  0  0  0  0
    0.9634    1.3679    1.7706 H   0  0  0  0  0  0  0  0  0  0  0  0
    0.9600   -0.4030    2.1565 H   0  0  0  0  0  0  0  0  0  0  0  0
   -3.1831    0.0867    0.4309 H   0  0  0  0  0  0  0  0  0  0  0  0
   -2.6200    0.1627   -1.2478 H   0  0  0  0  0  0  0  0  0  0  0  0
   -2.7125   -1.4236   -0.4142 H   0  0  0  0  0  0  0  0  0  0  0  0
   -0.3258    0.5781   -1.7180 H   0  0  0  0  0  0  0  0  0  0  0  0
   -0.2525    1.8730   -0.3610 H   0  0  0  0  0  0  0  0  0  0  0  0
  1  2  1  0
  2  3  1  0
  3  4  1  0
  4  5  1  0
  5  6  1  0
  5  7  1  0
  5  8  1  0
  8  9  2  0
  7  2  1  0
  8  2  1  0
  1 10  1  0
  1 11  1  0
  1 12  1  0
  3 13  1  0
  3 14  1  0
  6 15  1  0
  6 16  1  0
  6 17  1  0
  7 18  1  0
  7 19  1  0
M  END
