
     RDKit          3D

 21 23  0  0  0  0  0  0  0  0999 V2000
   -2.4592    0.4373    0.6010 C   0  0  0  0  0  0  0  0  0  0  0  0
   -1.1908    0.2881   -0.1366 C   0  0  0  0  0  0  0  0  0  0  0  0
   -1.2439   -0.3435   -1.4693 C   0  0  0  0  0  0  0  0  0  0  0  0
   -0.4528   -0.9420   -0.3570 C   0  0  0  0  0  0  0  0  0  0  0  0
    0.8830   -0.2858   -0.1147 C   0  0  0  0  0  0  0  0  0  0  0  0
    1.8735   -0.9021    0.8108 C   0  0  0  0  0  0  0  0  0  0  0  0
    3.0071   -0.1081    0.8561 O   0  0  0  0  0  0  0  0  0  0  0  0
    1.1593    1.0589   -0.6311 C   0  0  0  0  0  0  0  0  0  0  0  0
    0.0832    0.9382    0.3552 C   0  0  0  0  0  0  0  0  0  0  0  0
   -3.2827    0.6018   -0.1547 H   0  0  0  0  0  0  0  0  0  0  0  0
   -2.4291    1.4089    1.1741 H   0  0  0  0  0  0  0  0  0  0  0  0
   -2.7010   -0.3414    1.3205 H   0  0  0  0  0  0  0  0  0  0  0  0
   -0.6361    0.0274   -2.3267 H   0  0  0  0  0  0  0  0  0  0  0  0
   -2.1615   -0.8668   -1.7333 H   0  0  0  0  0  0  0  0  0  0  0  0
   -0.6659   -1.9137    0.0690 H   0  0  0  0  0  0  0  0  0  0  0  0
    1.5087   -1.0184    1.8572 H   0  0  0  0  0  0  0  0  0  0  0  0
    2.0844   -1.9337    0.4521 H   0  0  0  0  0  0  0  0  0  0  0  0
    3.4603   -0.0298   -0.0186 H   0  0  0  0  0  0  0  0  0  0  0  0
    2.0929    1.5427   -0.3105 H   0  0  0  0  0  0  0  0  0  0  0  0
    0.8662    1.2630   -1.6754 H   0  0  0  0  0  0  0  0  0  0  0  0
    0.2045    1.1189    1.4318 H   0  0  0  0  0  0  0  0  0  0  0  0
  1  2  1  0
  2  3  1  0
  3  4  1  0
  4  5  1  0
  5  6  1  0
  6  7  1  0
  5  8  1  0
  8  9  1  0
  4  2  1  0
  9  5  1  0
  9  2  1  0
  1 10  1  0
  1 11  1  0
  1 12  1  0
  3 13  1  0
  3 14  1  0
  4 15  1  0
  6 16  1  0
  6 17  1  0
  7 18  1  0
  8 19  1  0
  8 20  1  0
  9 21  1  0
M  END
