
     RDKit          3D

 20 21  0  0  0  0  0  0  0  0999 V2000
   -1.2437    0.7543    1.0156 C   0  0  0  0  0  0  0  0  0  0  0  0
   -0.9035    0.2648   -0.3846 C   0  0  0  0  0  0  0  0  0  0  0  0
    0.2783    0.9793   -0.9072 C   0  0  0  0  0  0  0  0  0  0  0  0
    1.3087    0.4856    0.1291 C   0  0  0  0  0  0  0  0  0  0  0  0
    2.5098    0.2940   -0.5100 O   0  0  0  0  0  0  0  0  0  0  0  0
    0.7182   -0.8392    0.6486 C   0  0  0  0  0  0  0  0  0  0  0  0
   -0.1959   -1.1502   -0.4655 C   0  0  0  0  0  0  0  0  0  0  0  0
   -1.5554   -0.9337   -0.7427 C   0  0  0  0  0  0  0  0  0  0  0  0
   -2.1730    1.3861    0.8600 H   0  0  0  0  0  0  0  0  0  0  0  0
   -0.5193    1.4103    1.4769 H   0  0  0  0  0  0  0  0  0  0  0  0
   -1.6121   -0.0725    1.6715 H   0  0  0  0  0  0  0  0  0  0  0  0
    0.5916    0.6668   -1.9273 H   0  0  0  0  0  0  0  0  0  0  0  0
    0.2411    2.0679   -0.7976 H   0  0  0  0  0  0  0  0  0  0  0  0
    1.4307    1.1549    0.9690 H   0  0  0  0  0  0  0  0  0  0  0  0
    3.0651   -0.4225   -0.1299 H   0  0  0  0  0  0  0  0  0  0  0  0
    1.5713   -1.5576    0.7001 H   0  0  0  0  0  0  0  0  0  0  0  0
    0.3061   -0.7554    1.6407 H   0  0  0  0  0  0  0  0  0  0  0  0
    0.4416   -1.3191   -1.3916 H   0  0  0  0  0  0  0  0  0  0  0  0
   -2.3118   -1.4043   -0.0641 H   0  0  0  0  0  0  0  0  0  0  0  0
   -1.9479   -1.0094   -1.7911 H   0  0  0  0  0  0  0  0  0  0  0  0
  1  2  1  0
  2  3  1  0
  3  4  1  0
  4  5  1  0
  4  6  1  0
  6  7  1  0
  7  8  1  0
  7  2  1  0
  8  2  1  0
  1  9  1  0
  1 10  1  0
  1 11  1  0
  3 12  1  0
  3 13  1  0
  4 14  1  0
  5 15  1  0
  6 16  1  0
  6 17  1  0
  7 18  1  0
  8 19  1  0
  8 20  1  0
M  END
