
     RDKit          3D

 19 20  0  0  0  0  0  0  0  0999 V2000
   -2.2734    0.2168    0.3768 C   0  0  0  0  0  0  0  0  0  0  0  0
   -0.8538   -0.0288    0.2366 C   0  0  0  0  0  0  0  0  0  0  0  0
   -0.3893   -1.3363   -0.3935 C   0  0  0  0  0  0  0  0  0  0  0  0
    1.1217   -1.0959   -0.2001 C   0  0  0  0  0  0  0  0  0  0  0  0
    1.0144    0.3020    0.3843 C   0  0  0  0  0  0  0  0  0  0  0  0
    2.2161    1.0119    0.6790 C   0  0  0  0  0  0  0  0  0  0  0  0
    3.1160    1.1108   -0.1303 O   0  0  0  0  0  0  0  0  0  0  0  0
   -0.0063    0.9735   -0.5329 C   0  0  0  0  0  0  0  0  0  0  0  0
    0.0061    0.1973    1.3049 O   0  0  0  0  0  0  0  0  0  0  0  0
   -2.6294   -0.0817    1.3849 H   0  0  0  0  0  0  0  0  0  0  0  0
   -2.5002    1.3062    0.1971 H   0  0  0  0  0  0  0  0  0  0  0  0
   -2.8570   -0.3647   -0.3502 H   0  0  0  0  0  0  0  0  0  0  0  0
   -0.6536   -1.3761   -1.4488 H   0  0  0  0  0  0  0  0  0  0  0  0
   -0.7385   -2.1767    0.2121 H   0  0  0  0  0  0  0  0  0  0  0  0
    1.5475   -1.7941    0.5317 H   0  0  0  0  0  0  0  0  0  0  0  0
    1.6210   -1.0818   -1.1748 H   0  0  0  0  0  0  0  0  0  0  0  0
    2.3539    1.4828    1.6401 H   0  0  0  0  0  0  0  0  0  0  0  0
    0.0824    0.7191   -1.5926 H   0  0  0  0  0  0  0  0  0  0  0  0
   -0.1778    2.0155   -0.2661 H   0  0  0  0  0  0  0  0  0  0  0  0
  1  2  1  0
  2  3  1  0
  3  4  1  0
  4  5  1  0
  5  6  1  0
  6  7  2  0
  5  8  1  0
  5  9  1  0
  8  2  1  0
  9  2  1  0
  1 10  1  0
  1 11  1  0
  1 12  1  0
  3 13  1  0
  3 14  1  0
  4 15  1  0
  4 16  1  0
  6 17  1  0
  8 18  1  0
  8 19  1  0
M  END
