
     RDKit          3D

 19 21  0  0  0  0  0  0  0  0999 V2000
   -0.6076    1.8258   -0.2089 C   0  0  0  0  0  0  0  0  0  0  0  0
   -0.4618    0.3946    0.0043 C   0  0  0  0  0  0  0  0  0  0  0  0
   -1.4632   -0.6131   -0.5854 C   0  0  0  0  0  0  0  0  0  0  0  0
   -0.8084   -1.8582    0.0177 C   0  0  0  0  0  0  0  0  0  0  0  0
   -0.7186   -1.4980    1.3482 O   0  0  0  0  0  0  0  0  0  0  0  0
   -0.0426   -0.2681    1.2441 C   0  0  0  0  0  0  0  0  0  0  0  0
    0.7675   -0.3826    0.0353 C   0  0  0  0  0  0  0  0  0  0  0  0
    2.1294    0.1738   -0.1279 C   0  0  0  0  0  0  0  0  0  0  0  0
    0.4945   -1.6953   -0.4165 O   0  0  0  0  0  0  0  0  0  0  0  0
    0.3452    2.3666   -0.2202 H   0  0  0  0  0  0  0  0  0  0  0  0
   -1.2702    2.2932    0.5751 H   0  0  0  0  0  0  0  0  0  0  0  0
   -1.1051    2.0272   -1.1808 H   0  0  0  0  0  0  0  0  0  0  0  0
   -2.4711   -0.4480   -0.2187 H   0  0  0  0  0  0  0  0  0  0  0  0
   -1.3349   -0.6696   -1.6636 H   0  0  0  0  0  0  0  0  0  0  0  0
   -1.2917   -2.7751   -0.2130 H   0  0  0  0  0  0  0  0  0  0  0  0
    0.3638    0.2171    2.1184 H   0  0  0  0  0  0  0  0  0  0  0  0
    2.2284    1.0779    0.4868 H   0  0  0  0  0  0  0  0  0  0  0  0
    2.9019   -0.5526    0.2211 H   0  0  0  0  0  0  0  0  0  0  0  0
    2.3444    0.3844   -1.2159 H   0  0  0  0  0  0  0  0  0  0  0  0
  1  2  1  0
  2  3  1  0
  3  4  1  0
  4  5  1  0
  5  6  1  0
  6  7  1  0
  7  8  1  0
  7  9  1  0
  6  2  1  0
  7  2  1  0
  9  4  1  0
  1 10  1  0
  1 11  1  0
  1 12  1  0
  3 13  1  0
  3 14  1  0
  4 15  1  0
  6 16  1  0
  8 17  1  0
  8 18  1  0
  8 19  1  0
M  END
