
     RDKit          3D

 19 20  0  0  0  0  0  0  0  0999 V2000
   -0.9971   -1.6716    0.2188 C   0  0  0  0  0  0  0  0  0  0  0  0
   -0.3967   -0.3017    0.2404 C   0  0  0  0  0  0  0  0  0  0  0  0
   -1.3681    0.7935   -0.0327 C   0  0  0  0  0  0  0  0  0  0  0  0
   -0.4774    1.9084   -0.4519 C   0  0  0  0  0  0  0  0  0  0  0  0
    0.6365    1.3914   -0.9459 C   0  0  0  0  0  0  0  0  0  0  0  0
    0.5953   -0.0949   -0.9035 C   0  0  0  0  0  0  0  0  0  0  0  0
    1.7434   -0.6503   -0.3619 O   0  0  0  0  0  0  0  0  0  0  0  0
    1.7045   -0.3794    0.9886 C   0  0  0  0  0  0  0  0  0  0  0  0
    0.4009   -0.0988    1.3404 O   0  0  0  0  0  0  0  0  0  0  0  0
   -1.9156   -1.6425    0.8589 H   0  0  0  0  0  0  0  0  0  0  0  0
   -0.2628   -2.3645    0.6995 H   0  0  0  0  0  0  0  0  0  0  0  0
   -1.1880   -2.0624   -0.7862 H   0  0  0  0  0  0  0  0  0  0  0  0
   -1.9611    0.5106   -0.9274 H   0  0  0  0  0  0  0  0  0  0  0  0
   -2.0075    1.0616    0.8306 H   0  0  0  0  0  0  0  0  0  0  0  0
   -0.7437    2.9530   -0.3484 H   0  0  0  0  0  0  0  0  0  0  0  0
    1.4734    1.9502   -1.3322 H   0  0  0  0  0  0  0  0  0  0  0  0
    0.2608   -0.5537   -1.8329 H   0  0  0  0  0  0  0  0  0  0  0  0
    2.1314   -1.2416    1.5432 H   0  0  0  0  0  0  0  0  0  0  0  0
    2.3718    0.4926    1.2025 H   0  0  0  0  0  0  0  0  0  0  0  0
  1  2  1  0
  2  3  1  0
  3  4  1  0
  4  5  2  0
  5  6  1  0
  6  7  1  0
  7  8  1  0
  8  9  1  0
  6  2  1  0
  9  2  1  0
  1 10  1  0
  1 11  1  0
  1 12  1  0
  3 13  1  0
  3 14  1  0
  4 15  1  0
  5 16  1  0
  6 17  1  0
  8 18  1  0
  8 19  1  0
M  END
