
     RDKit          3D

 19 20  0  0  0  0  0  0  0  0999 V2000
    2.1851    0.1900    0.6375 C   0  0  0  0  0  0  0  0  0  0  0  0
    0.7521    0.0225    0.2046 C   0  0  0  0  0  0  0  0  0  0  0  0
    0.5896   -1.0250   -0.8739 C   0  0  0  0  0  0  0  0  0  0  0  0
   -0.7667   -1.1845   -1.1170 O   0  0  0  0  0  0  0  0  0  0  0  0
   -1.5082   -0.2030   -0.4604 C   0  0  0  0  0  0  0  0  0  0  0  0
   -1.3640   -0.3830    1.0555 C   0  0  0  0  0  0  0  0  0  0  0  0
    0.0022   -0.4309    1.3073 O   0  0  0  0  0  0  0  0  0  0  0  0
   -0.9707    1.1938   -0.7471 C   0  0  0  0  0  0  0  0  0  0  0  0
    0.2958    1.2717   -0.2106 O   0  0  0  0  0  0  0  0  0  0  0  0
    2.6982    0.8130   -0.1188 H   0  0  0  0  0  0  0  0  0  0  0  0
    2.1526    0.8089    1.5800 H   0  0  0  0  0  0  0  0  0  0  0  0
    2.6982   -0.7536    0.8582 H   0  0  0  0  0  0  0  0  0  0  0  0
    1.0772   -0.7566   -1.8212 H   0  0  0  0  0  0  0  0  0  0  0  0
    0.9951   -1.9752   -0.4468 H   0  0  0  0  0  0  0  0  0  0  0  0
   -2.5572   -0.2376   -0.7397 H   0  0  0  0  0  0  0  0  0  0  0  0
   -1.7342    0.5712    1.5011 H   0  0  0  0  0  0  0  0  0  0  0  0
   -1.9137   -1.2579    1.4213 H   0  0  0  0  0  0  0  0  0  0  0  0
   -0.9713    1.4428   -1.8095 H   0  0  0  0  0  0  0  0  0  0  0  0
   -1.6600    1.8932   -0.2205 H   0  0  0  0  0  0  0  0  0  0  0  0
  1  2  1  0
  2  3  1  0
  3  4  1  0
  4  5  1  0
  5  6  1  0
  6  7  1  0
  5  8  1  0
  8  9  1  0
  7  2  1  0
  9  2  1  0
  1 10  1  0
  1 11  1  0
  1 12  1  0
  3 13  1  0
  3 14  1  0
  5 15  1  0
  6 16  1  0
  6 17  1  0
  8 18  1  0
  8 19  1  0
M  END
