
     RDKit          3D

 21 23  0  0  0  0  0  0  0  0999 V2000
    1.2561    0.6110    1.1804 C   0  0  0  0  0  0  0  0  0  0  0  0
    0.8619    0.5537   -0.3068 C   0  0  0  0  0  0  0  0  0  0  0  0
    1.7944   -0.1336   -1.1052 C   0  0  0  0  0  0  0  0  0  0  0  0
    0.6383   -0.9046   -0.8672 C   0  0  0  0  0  0  0  0  0  0  0  0
   -0.1745   -1.2841    0.2925 C   0  0  0  0  0  0  0  0  0  0  0  0
   -1.1867   -0.1317    0.3583 C   0  0  0  0  0  0  0  0  0  0  0  0
   -1.7889    0.1804    1.5367 O   0  0  0  0  0  0  0  0  0  0  0  0
   -1.7135    0.3761   -0.9059 C   0  0  0  0  0  0  0  0  0  0  0  0
   -0.5083    1.0183   -0.4691 C   0  0  0  0  0  0  0  0  0  0  0  0
    1.8889    1.5475    1.2392 H   0  0  0  0  0  0  0  0  0  0  0  0
    1.9432   -0.2076    1.4523 H   0  0  0  0  0  0  0  0  0  0  0  0
    0.4414    0.7557    1.8664 H   0  0  0  0  0  0  0  0  0  0  0  0
    2.0301    0.3164   -2.1104 H   0  0  0  0  0  0  0  0  0  0  0  0
    2.7658   -0.5116   -0.6780 H   0  0  0  0  0  0  0  0  0  0  0  0
   -0.0096   -0.9782   -1.7946 H   0  0  0  0  0  0  0  0  0  0  0  0
   -0.7800   -2.1931    0.0881 H   0  0  0  0  0  0  0  0  0  0  0  0
    0.3379   -1.4468    1.2393 H   0  0  0  0  0  0  0  0  0  0  0  0
   -2.6153   -0.3470    1.6258 H   0  0  0  0  0  0  0  0  0  0  0  0
   -1.8629   -0.2460   -1.8222 H   0  0  0  0  0  0  0  0  0  0  0  0
   -2.6807    0.9641   -0.7907 H   0  0  0  0  0  0  0  0  0  0  0  0
   -0.6376    2.0612   -0.0290 H   0  0  0  0  0  0  0  0  0  0  0  0
  1  2  1  0
  2  3  1  0
  3  4  1  0
  4  5  1  0
  5  6  1  0
  6  7  1  0
  6  8  1  0
  8  9  1  0
  4  2  1  0
  9  6  1  0
  9  2  1  0
  1 10  1  0
  1 11  1  0
  1 12  1  0
  3 13  1  0
  3 14  1  0
  4 15  1  0
  5 16  1  0
  5 17  1  0
  7 18  1  0
  8 19  1  0
  8 20  1  0
  9 21  1  0
M  END
