
     RDKit          3D

 21 22  0  0  0  0  0  0  0  0999 V2000
    0.7143    1.9731    0.7347 C   0  0  0  0  0  0  0  0  0  0  0  0
    0.1230    0.6845    0.4214 C   0  0  0  0  0  0  0  0  0  0  0  0
   -1.0306    0.7335   -0.5889 C   0  0  0  0  0  0  0  0  0  0  0  0
   -1.2004   -0.7967   -0.6132 C   0  0  0  0  0  0  0  0  0  0  0  0
   -1.2050   -1.0429    0.8851 C   0  0  0  0  0  0  0  0  0  0  0  0
   -0.4785    0.0007    1.4594 O   0  0  0  0  0  0  0  0  0  0  0  0
    0.1558   -1.1915   -1.1199 C   0  0  0  0  0  0  0  0  0  0  0  0
    1.0595   -0.2706   -0.2831 C   0  0  0  0  0  0  0  0  0  0  0  0
    1.7002   -1.0406    0.7059 O   0  0  0  0  0  0  0  0  0  0  0  0
    1.2328    1.9322    1.7066 H   0  0  0  0  0  0  0  0  0  0  0  0
    1.5092    2.2135   -0.0212 H   0  0  0  0  0  0  0  0  0  0  0  0
   -0.0056    2.8095    0.6972 H   0  0  0  0  0  0  0  0  0  0  0  0
   -0.7323    1.1321   -1.5490 H   0  0  0  0  0  0  0  0  0  0  0  0
   -1.9293    1.1647   -0.1355 H   0  0  0  0  0  0  0  0  0  0  0  0
   -2.0492   -1.1384   -1.1499 H   0  0  0  0  0  0  0  0  0  0  0  0
   -0.7427   -2.0175    1.1105 H   0  0  0  0  0  0  0  0  0  0  0  0
   -2.2687   -0.9821    1.2029 H   0  0  0  0  0  0  0  0  0  0  0  0
    0.3412   -0.9301   -2.1694 H   0  0  0  0  0  0  0  0  0  0  0  0
    0.3989   -2.2412   -0.8641 H   0  0  0  0  0  0  0  0  0  0  0  0
    1.7860    0.2645   -0.9157 H   0  0  0  0  0  0  0  0  0  0  0  0
    2.6213   -1.2569    0.4861 H   0  0  0  0  0  0  0  0  0  0  0  0
  1  2  1  0
  2  3  1  0
  3  4  1  0
  4  5  1  0
  5  6  1  0
  4  7  1  0
  7  8  1  0
  8  9  1  0
  6  2  1  0
  8  2  1  0
  1 10  1  0
  1 11  1  0
  1 12  1  0
  3 13  1  0
  3 14  1  0
  4 15  1  0
  5 16  1  0
  5 17  1  0
  7 18  1  0
  7 19  1  0
  8 20  1  0
  9 21  1  0
M  END
