
     RDKit          3D

 23 24  0  0  0  0  0  0  0  0999 V2000
   -2.3148   -0.6829    0.0723 C   0  0  0  0  0  0  0  0  0  0  0  0
   -0.8352   -0.3527   -0.1119 C   0  0  0  0  0  0  0  0  0  0  0  0
   -0.1734   -1.1001   -1.2056 C   0  0  0  0  0  0  0  0  0  0  0  0
    0.1643   -1.3649    0.2012 C   0  0  0  0  0  0  0  0  0  0  0  0
    1.4342   -0.8833    0.8279 C   0  0  0  0  0  0  0  0  0  0  0  0
    1.9359    0.4034    0.2937 C   0  0  0  0  0  0  0  0  0  0  0  0
    0.9167    1.4459    0.0434 C   0  0  0  0  0  0  0  0  0  0  0  0
   -0.4919    1.0607    0.2192 C   0  0  0  0  0  0  0  0  0  0  0  0
   -1.3410    1.8864   -0.5500 O   0  0  0  0  0  0  0  0  0  0  0  0
   -2.8880    0.1704    0.4603 H   0  0  0  0  0  0  0  0  0  0  0  0
   -2.4383   -1.5290    0.7673 H   0  0  0  0  0  0  0  0  0  0  0  0
   -2.7296   -0.8992   -0.9439 H   0  0  0  0  0  0  0  0  0  0  0  0
    0.4739   -0.4987   -1.8784 H   0  0  0  0  0  0  0  0  0  0  0  0
   -0.7565   -1.8818   -1.7625 H   0  0  0  0  0  0  0  0  0  0  0  0
   -0.1791   -2.3518    0.6110 H   0  0  0  0  0  0  0  0  0  0  0  0
    2.2298   -1.6574    0.7093 H   0  0  0  0  0  0  0  0  0  0  0  0
    1.2298   -0.7592    1.9281 H   0  0  0  0  0  0  0  0  0  0  0  0
    2.7521    0.7620    0.9850 H   0  0  0  0  0  0  0  0  0  0  0  0
    2.4810    0.2052   -0.6751 H   0  0  0  0  0  0  0  0  0  0  0  0
    1.0302    1.9035   -0.9829 H   0  0  0  0  0  0  0  0  0  0  0  0
    1.1330    2.3111    0.7383 H   0  0  0  0  0  0  0  0  0  0  0  0
   -0.8046    1.2426    1.2788 H   0  0  0  0  0  0  0  0  0  0  0  0
   -0.8286    2.5698   -1.0257 H   0  0  0  0  0  0  0  0  0  0  0  0
  1  2  1  0
  2  3  1  0
  3  4  1  0
  4  5  1  0
  5  6  1  0
  6  7  1  0
  7  8  1  0
  8  9  1  0
  4  2  1  0
  8  2  1  0
  1 10  1  0
  1 11  1  0
  1 12  1  0
  3 13  1  0
  3 14  1  0
  4 15  1  0
  5 16  1  0
  5 17  1  0
  6 18  1  0
  6 19  1  0
  7 20  1  0
  7 21  1  0
  8 22  1  0
  9 23  1  0
M  END
