
     RDKit          3D

 21 22  0  0  0  0  0  0  0  0999 V2000
   -0.4274    1.7096    0.1149 C   0  0  0  0  0  0  0  0  0  0  0  0
   -0.0590    0.2899    0.4131 C   0  0  0  0  0  0  0  0  0  0  0  0
   -1.2043   -0.5363    0.8586 C   0  0  0  0  0  0  0  0  0  0  0  0
   -1.9072   -0.6972   -0.5060 C   0  0  0  0  0  0  0  0  0  0  0  0
   -0.7201   -1.0626   -1.3397 C   0  0  0  0  0  0  0  0  0  0  0  0
    0.3581   -0.4992   -0.8199 C   0  0  0  0  0  0  0  0  0  0  0  0
    1.7334   -0.0298   -0.5063 C   0  0  0  0  0  0  0  0  0  0  0  0
    2.7401   -0.9562   -0.6612 O   0  0  0  0  0  0  0  0  0  0  0  0
    1.2891    0.1385    0.9578 C   0  0  0  0  0  0  0  0  0  0  0  0
   -1.0183    2.0884    0.9840 H   0  0  0  0  0  0  0  0  0  0  0  0
   -0.9822    1.8477   -0.8286 H   0  0  0  0  0  0  0  0  0  0  0  0
    0.4896    2.3612    0.0678 H   0  0  0  0  0  0  0  0  0  0  0  0
   -0.9287   -1.5597    1.1586 H   0  0  0  0  0  0  0  0  0  0  0  0
   -1.8940   -0.0357    1.5640 H   0  0  0  0  0  0  0  0  0  0  0  0
   -2.6562   -1.4980   -0.4655 H   0  0  0  0  0  0  0  0  0  0  0  0
   -2.2724    0.2681   -0.8703 H   0  0  0  0  0  0  0  0  0  0  0  0
   -0.7970   -1.6944   -2.2206 H   0  0  0  0  0  0  0  0  0  0  0  0
    1.9753    0.9116   -1.0083 H   0  0  0  0  0  0  0  0  0  0  0  0
    2.9970   -1.3934    0.1992 H   0  0  0  0  0  0  0  0  0  0  0  0
    1.5465   -0.7332    1.5683 H   0  0  0  0  0  0  0  0  0  0  0  0
    1.7378    1.0807    1.3402 H   0  0  0  0  0  0  0  0  0  0  0  0
  1  2  1  0
  2  3  1  0
  3  4  1  0
  4  5  1  0
  5  6  2  0
  6  7  1  0
  7  8  1  0
  7  9  1  0
  6  2  1  0
  9  2  1  0
  1 10  1  0
  1 11  1  0
  1 12  1  0
  3 13  1  0
  3 14  1  0
  4 15  1  0
  4 16  1  0
  5 17  1  0
  7 18  1  0
  8 19  1  0
  9 20  1  0
  9 21  1  0
M  END
