
     RDKit          3D

 21 23  0  0  0  0  0  0  0  0999 V2000
    2.1792    0.1976    0.6617 C   0  0  0  0  0  0  0  0  0  0  0  0
    0.8015    0.1834    0.0997 C   0  0  0  0  0  0  0  0  0  0  0  0
    0.0178    1.3953    0.4125 C   0  0  0  0  0  0  0  0  0  0  0  0
   -1.2910    1.3950    0.5748 C   0  0  0  0  0  0  0  0  0  0  0  0
   -2.0576    0.1559    0.4497 C   0  0  0  0  0  0  0  0  0  0  0  0
   -1.3567   -1.0080   -0.1276 C   0  0  0  0  0  0  0  0  0  0  0  0
   -0.4103   -1.0090   -1.2199 C   0  0  0  0  0  0  0  0  0  0  0  0
    0.7214   -0.0640   -1.4130 C   0  0  0  0  0  0  0  0  0  0  0  0
    0.0387   -1.0884    0.2767 C   0  0  0  0  0  0  0  0  0  0  0  0
    2.3316    1.1383    1.2666 H   0  0  0  0  0  0  0  0  0  0  0  0
    2.3837   -0.6573    1.3519 H   0  0  0  0  0  0  0  0  0  0  0  0
    2.9027    0.1415   -0.1643 H   0  0  0  0  0  0  0  0  0  0  0  0
    0.5472    2.3269    0.5125 H   0  0  0  0  0  0  0  0  0  0  0  0
   -1.8456    2.3269    0.8087 H   0  0  0  0  0  0  0  0  0  0  0  0
   -3.0441    0.3415   -0.0709 H   0  0  0  0  0  0  0  0  0  0  0  0
   -2.3785   -0.1306    1.4961 H   0  0  0  0  0  0  0  0  0  0  0  0
   -1.9356   -1.9693    0.0229 H   0  0  0  0  0  0  0  0  0  0  0  0
   -0.2876   -1.9652   -1.8073 H   0  0  0  0  0  0  0  0  0  0  0  0
    0.5090    0.8557   -1.9973 H   0  0  0  0  0  0  0  0  0  0  0  0
    1.6680   -0.5502   -1.7309 H   0  0  0  0  0  0  0  0  0  0  0  0
    0.5062   -2.0161    0.5973 H   0  0  0  0  0  0  0  0  0  0  0  0
  1  2  1  0
  2  3  1  0
  3  4  2  0
  4  5  1  0
  5  6  1  0
  6  7  1  0
  7  8  1  0
  7  9  1  0
  8  2  1  0
  9  2  1  0
  9  6  1  0
  1 10  1  0
  1 11  1  0
  1 12  1  0
  3 13  1  0
  4 14  1  0
  5 15  1  0
  5 16  1  0
  6 17  1  0
  7 18  1  0
  8 19  1  0
  8 20  1  0
  9 21  1  0
M  END
