
     RDKit          3D

 19 20  0  0  0  0  0  0  0  0999 V2000
    2.2309   -0.4242    0.1880 C   0  0  0  0  0  0  0  0  0  0  0  0
    0.8344    0.0055    0.1134 C   0  0  0  0  0  0  0  0  0  0  0  0
    0.6310    1.3201   -0.6003 C   0  0  0  0  0  0  0  0  0  0  0  0
   -0.5958    1.6864   -0.2118 C   0  0  0  0  0  0  0  0  0  0  0  0
   -1.0016    0.7357    0.8601 C   0  0  0  0  0  0  0  0  0  0  0  0
    0.2718    0.3674    1.3634 O   0  0  0  0  0  0  0  0  0  0  0  0
   -1.4275   -0.5972    0.2820 C   0  0  0  0  0  0  0  0  0  0  0  0
   -2.5068   -0.5046   -0.5571 O   0  0  0  0  0  0  0  0  0  0  0  0
   -0.1373   -0.9662   -0.4652 C   0  0  0  0  0  0  0  0  0  0  0  0
    2.9010    0.0936   -0.5413 H   0  0  0  0  0  0  0  0  0  0  0  0
    2.3096   -1.5185    0.0347 H   0  0  0  0  0  0  0  0  0  0  0  0
    2.6080   -0.2448    1.2373 H   0  0  0  0  0  0  0  0  0  0  0  0
    1.3225    1.8154   -1.2547 H   0  0  0  0  0  0  0  0  0  0  0  0
   -1.1364    2.5253   -0.6371 H   0  0  0  0  0  0  0  0  0  0  0  0
   -1.6568    1.1402    1.6054 H   0  0  0  0  0  0  0  0  0  0  0  0
   -1.5426   -1.2983    1.1201 H   0  0  0  0  0  0  0  0  0  0  0  0
   -2.8668   -1.4259   -0.6866 H   0  0  0  0  0  0  0  0  0  0  0  0
   -0.3357   -0.6947   -1.5325 H   0  0  0  0  0  0  0  0  0  0  0  0
    0.0981   -2.0152   -0.3178 H   0  0  0  0  0  0  0  0  0  0  0  0
  1  2  1  0
  2  3  1  0
  3  4  2  0
  4  5  1  0
  5  6  1  0
  5  7  1  0
  7  8  1  0
  7  9  1  0
  6  2  1  0
  9  2  1  0
  1 10  1  0
  1 11  1  0
  1 12  1  0
  3 13  1  0
  4 14  1  0
  5 15  1  0
  7 16  1  0
  8 17  1  0
  9 18  1  0
  9 19  1  0
M  END
