
     RDKit          3D

 21 23  0  0  0  0  0  0  0  0999 V2000
   -1.5828   -0.3973    1.0663 C   0  0  0  0  0  0  0  0  0  0  0  0
   -0.6720   -0.1281    0.0823 C   0  0  0  0  0  0  0  0  0  0  0  0
   -0.4662   -0.8358   -1.2200 C   0  0  0  0  0  0  0  0  0  0  0  0
    0.5765    0.2317   -1.2449 C   0  0  0  0  0  0  0  0  0  0  0  0
   -0.4845    1.1398   -0.6907 C   0  0  0  0  0  0  0  0  0  0  0  0
    0.2757    2.0089    0.2326 C   0  0  0  0  0  0  0  0  0  0  0  0
    1.1562    1.0818    0.8440 O   0  0  0  0  0  0  0  0  0  0  0  0
    0.8280   -0.0826    0.2039 C   0  0  0  0  0  0  0  0  0  0  0  0
    1.5362   -1.3246    0.5365 C   0  0  0  0  0  0  0  0  0  0  0  0
   -1.9862   -1.4342    1.0795 H   0  0  0  0  0  0  0  0  0  0  0  0
   -2.5063    0.2547    1.0139 H   0  0  0  0  0  0  0  0  0  0  0  0
   -1.1919   -0.1968    2.1079 H   0  0  0  0  0  0  0  0  0  0  0  0
   -1.2664   -0.6478   -1.9647 H   0  0  0  0  0  0  0  0  0  0  0  0
   -0.1294   -1.8730   -1.1707 H   0  0  0  0  0  0  0  0  0  0  0  0
    1.2511    0.4388   -1.9512 H   0  0  0  0  0  0  0  0  0  0  0  0
   -1.2514    1.5094   -1.3195 H   0  0  0  0  0  0  0  0  0  0  0  0
    0.9533    2.6937   -0.3463 H   0  0  0  0  0  0  0  0  0  0  0  0
   -0.3228    2.5374    0.9758 H   0  0  0  0  0  0  0  0  0  0  0  0
    1.7933   -1.8472   -0.4326 H   0  0  0  0  0  0  0  0  0  0  0  0
    2.5094   -1.1028    1.0072 H   0  0  0  0  0  0  0  0  0  0  0  0
    0.9802   -2.0260    1.1908 H   0  0  0  0  0  0  0  0  0  0  0  0
  1  2  1  0
  2  3  1  0
  3  4  1  0
  4  5  1  0
  5  6  1  0
  6  7  1  0
  7  8  1  0
  8  9  1  0
  5  2  1  0
  8  2  1  0
  8  4  1  0
  1 10  1  0
  1 11  1  0
  1 12  1  0
  3 13  1  0
  3 14  1  0
  4 15  1  0
  5 16  1  0
  6 17  1  0
  6 18  1  0
  9 19  1  0
  9 20  1  0
  9 21  1  0
M  END
