
     RDKit          3D

 21 22  0  0  0  0  0  0  0  0999 V2000
    2.3732    0.6506   -0.3136 C   0  0  0  0  0  0  0  0  0  0  0  0
    1.4785   -0.4469    0.1795 C   0  0  0  0  0  0  0  0  0  0  0  0
    0.8075   -1.3205   -0.7810 C   0  0  0  0  0  0  0  0  0  0  0  0
    0.0297   -0.4064    0.0852 C   0  0  0  0  0  0  0  0  0  0  0  0
   -0.7519    0.6805   -0.5708 C   0  0  0  0  0  0  0  0  0  0  0  0
   -2.2280    0.3038   -0.4294 C   0  0  0  0  0  0  0  0  0  0  0  0
   -2.5306    0.2093    0.9189 O   0  0  0  0  0  0  0  0  0  0  0  0
   -0.0060   -0.6190    1.5626 C   0  0  0  0  0  0  0  0  0  0  0  0
    1.3922   -0.7116    1.5412 O   0  0  0  0  0  0  0  0  0  0  0  0
    2.8345    1.2383    0.4940 H   0  0  0  0  0  0  0  0  0  0  0  0
    1.8188    1.3139   -1.0234 H   0  0  0  0  0  0  0  0  0  0  0  0
    3.1840    0.1864   -0.9124 H   0  0  0  0  0  0  0  0  0  0  0  0
    0.8747   -1.0426   -1.8455 H   0  0  0  0  0  0  0  0  0  0  0  0
    0.6663   -2.4048   -0.6222 H   0  0  0  0  0  0  0  0  0  0  0  0
   -0.6390    1.6727   -0.1063 H   0  0  0  0  0  0  0  0  0  0  0  0
   -0.4557    0.7741   -1.6223 H   0  0  0  0  0  0  0  0  0  0  0  0
   -2.3636   -0.7361   -0.8519 H   0  0  0  0  0  0  0  0  0  0  0  0
   -2.8864    0.9581   -1.0001 H   0  0  0  0  0  0  0  0  0  0  0  0
   -2.7567    1.0602    1.3421 H   0  0  0  0  0  0  0  0  0  0  0  0
   -0.5115   -1.5937    1.7900 H   0  0  0  0  0  0  0  0  0  0  0  0
   -0.3301    0.2337    2.1651 H   0  0  0  0  0  0  0  0  0  0  0  0
  1  2  1  0
  2  3  1  0
  3  4  1  0
  4  5  1  0
  5  6  1  0
  6  7  1  0
  4  8  1  0
  8  9  1  0
  4  2  1  0
  9  2  1  0
  1 10  1  0
  1 11  1  0
  1 12  1  0
  3 13  1  0
  3 14  1  0
  5 15  1  0
  5 16  1  0
  6 17  1  0
  6 18  1  0
  7 19  1  0
  8 20  1  0
  8 21  1  0
M  END
