
     RDKit          3D

 19 20  0  0  0  0  0  0  0  0999 V2000
   -2.1207    0.0466    0.2486 C   0  0  0  0  0  0  0  0  0  0  0  0
   -0.6447   -0.0842    0.2976 C   0  0  0  0  0  0  0  0  0  0  0  0
   -0.1377   -1.4461   -0.0499 C   0  0  0  0  0  0  0  0  0  0  0  0
    1.1795   -1.6662    0.2877 O   0  0  0  0  0  0  0  0  0  0  0  0
    1.8959   -0.4793    0.2350 C   0  0  0  0  0  0  0  0  0  0  0  0
    1.0835    0.6993    0.6617 C   0  0  0  0  0  0  0  0  0  0  0  0
   -0.0150    0.3222    1.4708 O   0  0  0  0  0  0  0  0  0  0  0  0
    0.0477    1.0299   -0.4103 C   0  0  0  0  0  0  0  0  0  0  0  0
    0.4440    0.8282   -1.7008 O   0  0  0  0  0  0  0  0  0  0  0  0
   -2.5681   -0.8938    0.6470 H   0  0  0  0  0  0  0  0  0  0  0  0
   -2.4337    0.2246   -0.8224 H   0  0  0  0  0  0  0  0  0  0  0  0
   -2.4246    0.8944    0.8897 H   0  0  0  0  0  0  0  0  0  0  0  0
   -0.2563   -1.6829   -1.1200 H   0  0  0  0  0  0  0  0  0  0  0  0
   -0.7512   -2.1854    0.5123 H   0  0  0  0  0  0  0  0  0  0  0  0
    2.2673   -0.2939   -0.7861 H   0  0  0  0  0  0  0  0  0  0  0  0
    2.7657   -0.6030    0.9216 H   0  0  0  0  0  0  0  0  0  0  0  0
    1.6487    1.5622    1.0387 H   0  0  0  0  0  0  0  0  0  0  0  0
   -0.4138    1.9996   -0.1621 H   0  0  0  0  0  0  0  0  0  0  0  0
    0.4336    1.7277   -2.1591 H   0  0  0  0  0  0  0  0  0  0  0  0
  1  2  1  0
  2  3  1  0
  3  4  1  0
  4  5  1  0
  5  6  1  0
  6  7  1  0
  6  8  1  0
  8  9  1  0
  7  2  1  0
  8  2  1  0
  1 10  1  0
  1 11  1  0
  1 12  1  0
  3 13  1  0
  3 14  1  0
  5 15  1  0
  5 16  1  0
  6 17  1  0
  8 18  1  0
  9 19  1  0
M  END
