
     RDKit          3D

 23 24  0  0  0  0  0  0  0  0999 V2000
   -0.8181    1.9754   -0.3351 C   0  0  0  0  0  0  0  0  0  0  0  0
   -0.3143    0.6087   -0.0283 C   0  0  0  0  0  0  0  0  0  0  0  0
   -1.4803   -0.2829    0.3913 C   0  0  0  0  0  0  0  0  0  0  0  0
   -1.0505   -1.7026    0.0212 C   0  0  0  0  0  0  0  0  0  0  0  0
    0.2798   -1.9257    0.3208 O   0  0  0  0  0  0  0  0  0  0  0  0
    1.1559   -1.1560   -0.4144 C   0  0  0  0  0  0  0  0  0  0  0  0
    1.8741   -0.2394    0.5864 C   0  0  0  0  0  0  0  0  0  0  0  0
    0.7124    0.5822    1.0892 C   0  0  0  0  0  0  0  0  0  0  0  0
    0.4259   -0.0368   -1.1730 C   0  0  0  0  0  0  0  0  0  0  0  0
   -0.0371    2.7579   -0.3116 H   0  0  0  0  0  0  0  0  0  0  0  0
   -1.6959    2.2390    0.2862 H   0  0  0  0  0  0  0  0  0  0  0  0
   -1.1898    1.9592   -1.4016 H   0  0  0  0  0  0  0  0  0  0  0  0
   -2.4057   -0.0339   -0.1753 H   0  0  0  0  0  0  0  0  0  0  0  0
   -1.6413   -0.2504    1.4876 H   0  0  0  0  0  0  0  0  0  0  0  0
   -1.2482   -1.9019   -1.0648 H   0  0  0  0  0  0  0  0  0  0  0  0
   -1.6509   -2.4549    0.5702 H   0  0  0  0  0  0  0  0  0  0  0  0
    1.8458   -1.7051   -1.0468 H   0  0  0  0  0  0  0  0  0  0  0  0
    2.4976    0.4410   -0.0406 H   0  0  0  0  0  0  0  0  0  0  0  0
    2.4116   -0.7835    1.3462 H   0  0  0  0  0  0  0  0  0  0  0  0
    0.9894    1.6093    1.3529 H   0  0  0  0  0  0  0  0  0  0  0  0
    0.3119    0.0348    1.9901 H   0  0  0  0  0  0  0  0  0  0  0  0
   -0.1973   -0.4059   -1.9713 H   0  0  0  0  0  0  0  0  0  0  0  0
    1.2249    0.6715   -1.4792 H   0  0  0  0  0  0  0  0  0  0  0  0
  1  2  1  0
  2  3  1  0
  3  4  1  0
  4  5  1  0
  5  6  1  0
  6  7  1  0
  7  8  1  0
  6  9  1  0
  8  2  1  0
  9  2  1  0
  1 10  1  0
  1 11  1  0
  1 12  1  0
  3 13  1  0
  3 14  1  0
  4 15  1  0
  4 16  1  0
  6 17  1  0
  7 18  1  0
  7 19  1  0
  8 20  1  0
  8 21  1  0
  9 22  1  0
  9 23  1  0
M  END
