
     RDKit          3D

 21 23  0  0  0  0  0  0  0  0999 V2000
    2.0092   -0.8565   -0.5994 C   0  0  0  0  0  0  0  0  0  0  0  0
    0.8226   -0.1011   -0.0920 C   0  0  0  0  0  0  0  0  0  0  0  0
    1.1047    1.3873    0.1306 C   0  0  0  0  0  0  0  0  0  0  0  0
    0.0648    0.8547   -0.8849 C   0  0  0  0  0  0  0  0  0  0  0  0
   -1.3620    1.0327   -0.4172 C   0  0  0  0  0  0  0  0  0  0  0  0
   -1.7363    0.0539    0.6515 C   0  0  0  0  0  0  0  0  0  0  0  0
   -1.3155   -1.3501    0.3335 C   0  0  0  0  0  0  0  0  0  0  0  0
   -0.0328   -0.8218    0.9015 C   0  0  0  0  0  0  0  0  0  0  0  0
   -0.7967    0.0673    1.6785 O   0  0  0  0  0  0  0  0  0  0  0  0
    2.2640   -0.6634   -1.6489 H   0  0  0  0  0  0  0  0  0  0  0  0
    1.9396   -1.9481   -0.3907 H   0  0  0  0  0  0  0  0  0  0  0  0
    2.8994   -0.5098   -0.0019 H   0  0  0  0  0  0  0  0  0  0  0  0
    0.7407    1.8748    1.0328 H   0  0  0  0  0  0  0  0  0  0  0  0
    1.9909    1.8273   -0.3394 H   0  0  0  0  0  0  0  0  0  0  0  0
    0.2403    1.0838   -1.9446 H   0  0  0  0  0  0  0  0  0  0  0  0
   -1.3916    2.0556    0.0612 H   0  0  0  0  0  0  0  0  0  0  0  0
   -2.0922    1.0139   -1.2383 H   0  0  0  0  0  0  0  0  0  0  0  0
   -2.7555    0.2062    1.0078 H   0  0  0  0  0  0  0  0  0  0  0  0
   -1.7617   -2.0936    1.0055 H   0  0  0  0  0  0  0  0  0  0  0  0
   -1.3526   -1.5378   -0.7427 H   0  0  0  0  0  0  0  0  0  0  0  0
    0.5207   -1.5754    1.4970 H   0  0  0  0  0  0  0  0  0  0  0  0
  1  2  1  0
  2  3  1  0
  3  4  1  0
  4  5  1  0
  5  6  1  0
  6  7  1  0
  7  8  1  0
  8  9  1  0
  4  2  1  0
  9  6  1  0
  8  2  1  0
  1 10  1  0
  1 11  1  0
  1 12  1  0
  3 13  1  0
  3 14  1  0
  4 15  1  0
  5 16  1  0
  5 17  1  0
  6 18  1  0
  7 19  1  0
  7 20  1  0
  8 21  1  0
M  END
