
     RDKit          3D

 21 22  0  0  0  0  0  0  0  0999 V2000
    2.3631   -0.0817   -0.5194 C   0  0  0  0  0  0  0  0  0  0  0  0
    0.9878    0.0421   -0.0417 C   0  0  0  0  0  0  0  0  0  0  0  0
    0.4673   -1.1515    0.7411 C   0  0  0  0  0  0  0  0  0  0  0  0
   -1.0139   -1.0920    0.3829 C   0  0  0  0  0  0  0  0  0  0  0  0
   -1.0901    0.3069   -0.1970 C   0  0  0  0  0  0  0  0  0  0  0  0
   -2.3633    0.5323   -0.9120 C   0  0  0  0  0  0  0  0  0  0  0  0
   -0.7214    1.2676    0.7014 O   0  0  0  0  0  0  0  0  0  0  0  0
    0.6806    1.2564    0.7942 C   0  0  0  0  0  0  0  0  0  0  0  0
    0.0292    0.2512   -1.0639 O   0  0  0  0  0  0  0  0  0  0  0  0
    2.5746   -1.1408   -0.7825 H   0  0  0  0  0  0  0  0  0  0  0  0
    3.0644    0.2748    0.2909 H   0  0  0  0  0  0  0  0  0  0  0  0
    2.4984    0.5201   -1.4447 H   0  0  0  0  0  0  0  0  0  0  0  0
    0.9384   -2.0925    0.4607 H   0  0  0  0  0  0  0  0  0  0  0  0
    0.5295   -0.9538    1.8410 H   0  0  0  0  0  0  0  0  0  0  0  0
   -1.6681   -1.1348    1.2489 H   0  0  0  0  0  0  0  0  0  0  0  0
   -1.2366   -1.8294   -0.4075 H   0  0  0  0  0  0  0  0  0  0  0  0
   -2.2942    1.2826   -1.7263 H   0  0  0  0  0  0  0  0  0  0  0  0
   -2.6981   -0.4122   -1.3756 H   0  0  0  0  0  0  0  0  0  0  0  0
   -3.1204    0.8780   -0.1805 H   0  0  0  0  0  0  0  0  0  0  0  0
    0.9925    1.0860    1.8321 H   0  0  0  0  0  0  0  0  0  0  0  0
    1.0804    2.1907    0.3579 H   0  0  0  0  0  0  0  0  0  0  0  0
  1  2  1  0
  2  3  1  0
  3  4  1  0
  4  5  1  0
  5  6  1  0
  5  7  1  0
  7  8  1  0
  5  9  1  0
  8  2  1  0
  9  2  1  0
  1 10  1  0
  1 11  1  0
  1 12  1  0
  3 13  1  0
  3 14  1  0
  4 15  1  0
  4 16  1  0
  6 17  1  0
  6 18  1  0
  6 19  1  0
  8 20  1  0
  8 21  1  0
M  END
