
     RDKit          3D

 19 20  0  0  0  0  0  0  0  0999 V2000
   -1.8677    0.2439   -0.9621 C   0  0  0  0  0  0  0  0  0  0  0  0
   -0.6600    0.4340   -0.0907 C   0  0  0  0  0  0  0  0  0  0  0  0
    0.6745    0.4099   -0.7766 C   0  0  0  0  0  0  0  0  0  0  0  0
    1.4785   -0.7099   -0.1590 C   0  0  0  0  0  0  0  0  0  0  0  0
    2.7085   -0.2849    0.3188 O   0  0  0  0  0  0  0  0  0  0  0  0
    0.6921   -1.1603    1.0460 C   0  0  0  0  0  0  0  0  0  0  0  0
    1.1183   -1.9839    1.8152 O   0  0  0  0  0  0  0  0  0  0  0  0
   -0.5898   -0.4618    1.1018 C   0  0  0  0  0  0  0  0  0  0  0  0
   -0.7177    0.9992    1.2527 C   0  0  0  0  0  0  0  0  0  0  0  0
   -1.8369    0.8387   -1.8944 H   0  0  0  0  0  0  0  0  0  0  0  0
   -1.8539   -0.8361   -1.2891 H   0  0  0  0  0  0  0  0  0  0  0  0
   -2.8129    0.3920   -0.4458 H   0  0  0  0  0  0  0  0  0  0  0  0
    1.1955    1.3687   -0.5096 H   0  0  0  0  0  0  0  0  0  0  0  0
    0.6075    0.3109   -1.8784 H   0  0  0  0  0  0  0  0  0  0  0  0
    1.5699   -1.5224   -0.9085 H   0  0  0  0  0  0  0  0  0  0  0  0
    3.2023    0.0854   -0.4546 H   0  0  0  0  0  0  0  0  0  0  0  0
   -1.4804   -1.0555    1.3832 H   0  0  0  0  0  0  0  0  0  0  0  0
    0.2098    1.5263    1.6245 H   0  0  0  0  0  0  0  0  0  0  0  0
   -1.6375    1.4058    1.7157 H   0  0  0  0  0  0  0  0  0  0  0  0
  1  2  1  0
  2  3  1  0
  3  4  1  0
  4  5  1  0
  4  6  1  0
  6  7  2  0
  6  8  1  0
  8  9  1  0
  8  2  1  0
  9  2  1  0
  1 10  1  0
  1 11  1  0
  1 12  1  0
  3 13  1  0
  3 14  1  0
  4 15  1  0
  5 16  1  0
  8 17  1  0
  9 18  1  0
  9 19  1  0
M  END
