
     RDKit          3D

 23 24  0  0  0  0  0  0  0  0999 V2000
    2.4612    0.0877   -0.1909 C   0  0  0  0  0  0  0  0  0  0  0  0
    0.9784   -0.0821    0.1719 C   0  0  0  0  0  0  0  0  0  0  0  0
    0.3944   -1.3460   -0.3275 C   0  0  0  0  0  0  0  0  0  0  0  0
   -1.0662   -1.4968   -0.2540 C   0  0  0  0  0  0  0  0  0  0  0  0
   -1.8531   -0.2707    0.0358 C   0  0  0  0  0  0  0  0  0  0  0  0
   -1.1598    0.9600   -0.4904 C   0  0  0  0  0  0  0  0  0  0  0  0
   -1.9416    2.0962   -0.3508 O   0  0  0  0  0  0  0  0  0  0  0  0
    0.1636    1.1102    0.1717 C   0  0  0  0  0  0  0  0  0  0  0  0
    0.4816    0.4361    1.4673 C   0  0  0  0  0  0  0  0  0  0  0  0
    2.7925    1.1134   -0.0218 H   0  0  0  0  0  0  0  0  0  0  0  0
    3.0481   -0.6772    0.3398 H   0  0  0  0  0  0  0  0  0  0  0  0
    2.5354   -0.1350   -1.2878 H   0  0  0  0  0  0  0  0  0  0  0  0
    0.7932   -1.5173   -1.3704 H   0  0  0  0  0  0  0  0  0  0  0  0
    0.8644   -2.1837    0.2696 H   0  0  0  0  0  0  0  0  0  0  0  0
   -1.4262   -1.8947   -1.2501 H   0  0  0  0  0  0  0  0  0  0  0  0
   -1.3761   -2.2778    0.5019 H   0  0  0  0  0  0  0  0  0  0  0  0
   -2.1221   -0.1870    1.1093 H   0  0  0  0  0  0  0  0  0  0  0  0
   -2.8481   -0.3140   -0.5002 H   0  0  0  0  0  0  0  0  0  0  0  0
   -0.9963    0.7904   -1.5806 H   0  0  0  0  0  0  0  0  0  0  0  0
   -1.3369    2.8720   -0.5409 H   0  0  0  0  0  0  0  0  0  0  0  0
    0.6415    2.1170   -0.0063 H   0  0  0  0  0  0  0  0  0  0  0  0
    1.2650    0.9397    2.0933 H   0  0  0  0  0  0  0  0  0  0  0  0
   -0.2927   -0.1405    2.0111 H   0  0  0  0  0  0  0  0  0  0  0  0
  1  2  1  0
  2  3  1  0
  3  4  1  0
  4  5  1  0
  5  6  1  0
  6  7  1  0
  6  8  1  0
  8  9  1  0
  8  2  1  0
  9  2  1  0
  1 10  1  0
  1 11  1  0
  1 12  1  0
  3 13  1  0
  3 14  1  0
  4 15  1  0
  4 16  1  0
  5 17  1  0
  5 18  1  0
  6 19  1  0
  7 20  1  0
  8 21  1  0
  9 22  1  0
  9 23  1  0
M  END
