
     RDKit          3D

 16 18  0  0  0  0  0  0  0  0999 V2000
    2.1029    0.2541    0.0235 C   0  0  0  0  0  0  0  0  0  0  0  0
    0.6914   -0.0881   -0.0449 C   0  0  0  0  0  0  0  0  0  0  0  0
   -0.2686    1.0711    0.2310 C   0  0  0  0  0  0  0  0  0  0  0  0
   -1.5540    0.2494    0.0543 C   0  0  0  0  0  0  0  0  0  0  0  0
   -1.1536   -0.7704   -0.9159 C   0  0  0  0  0  0  0  0  0  0  0  0
    0.2073   -0.5581   -1.2434 O   0  0  0  0  0  0  0  0  0  0  0  0
   -1.1422   -1.0844    0.5123 C   0  0  0  0  0  0  0  0  0  0  0  0
    0.2285   -1.0291    0.8589 O   0  0  0  0  0  0  0  0  0  0  0  0
    2.4503    0.1868    1.0943 H   0  0  0  0  0  0  0  0  0  0  0  0
    2.2777    1.2987   -0.2905 H   0  0  0  0  0  0  0  0  0  0  0  0
    2.7018   -0.4888   -0.5243 H   0  0  0  0  0  0  0  0  0  0  0  0
   -0.1843    1.4337    1.2661 H   0  0  0  0  0  0  0  0  0  0  0  0
   -0.2360    1.8388   -0.5403 H   0  0  0  0  0  0  0  0  0  0  0  0
   -2.5153    0.6989    0.1683 H   0  0  0  0  0  0  0  0  0  0  0  0
   -1.8177   -1.2121   -1.6554 H   0  0  0  0  0  0  0  0  0  0  0  0
   -1.7882   -1.8004    1.0062 H   0  0  0  0  0  0  0  0  0  0  0  0
  1  2  1  0
  2  3  1  0
  3  4  1  0
  4  5  1  0
  5  6  1  0
  5  7  1  0
  7  8  1  0
  6  2  1  0
  8  2  1  0
  7  4  1  0
  1  9  1  0
  1 10  1  0
  1 11  1  0
  3 12  1  0
  3 13  1  0
  4 14  1  0
  5 15  1  0
  7 16  1  0
M  END
