
     RDKit          3D

 21 22  0  0  0  0  0  0  0  0999 V2000
    2.0939    0.2480    0.0778 C   0  0  0  0  0  0  0  0  0  0  0  0
    0.6681    0.0549   -0.2708 C   0  0  0  0  0  0  0  0  0  0  0  0
    0.0845    1.2814   -0.8860 C   0  0  0  0  0  0  0  0  0  0  0  0
   -1.2473    1.4474   -0.7772 O   0  0  0  0  0  0  0  0  0  0  0  0
   -2.0437    0.4133   -0.4890 C   0  0  0  0  0  0  0  0  0  0  0  0
   -1.4124   -0.7870    0.1344 C   0  0  0  0  0  0  0  0  0  0  0  0
   -0.2051   -0.2899    0.9447 C   0  0  0  0  0  0  0  0  0  0  0  0
   -0.8736   -1.5550   -0.8822 O   0  0  0  0  0  0  0  0  0  0  0  0
    0.4253   -1.1992   -1.0813 C   0  0  0  0  0  0  0  0  0  0  0  0
    2.3215   -0.0290    1.1072 H   0  0  0  0  0  0  0  0  0  0  0  0
    2.3897    1.3086   -0.1480 H   0  0  0  0  0  0  0  0  0  0  0  0
    2.7244   -0.3683   -0.6259 H   0  0  0  0  0  0  0  0  0  0  0  0
    0.5646    2.1603   -0.3605 H   0  0  0  0  0  0  0  0  0  0  0  0
    0.3927    1.4188   -1.9610 H   0  0  0  0  0  0  0  0  0  0  0  0
   -2.6159    0.1110   -1.4101 H   0  0  0  0  0  0  0  0  0  0  0  0
   -2.8502    0.7609    0.2225 H   0  0  0  0  0  0  0  0  0  0  0  0
   -2.0510   -1.3399    0.8224 H   0  0  0  0  0  0  0  0  0  0  0  0
    0.2431   -1.1202    1.4939 H   0  0  0  0  0  0  0  0  0  0  0  0
   -0.4342    0.6015    1.5248 H   0  0  0  0  0  0  0  0  0  0  0  0
    1.0681   -1.9998   -0.6097 H   0  0  0  0  0  0  0  0  0  0  0  0
    0.7574   -1.1176   -2.1146 H   0  0  0  0  0  0  0  0  0  0  0  0
  1  2  1  0
  2  3  1  0
  3  4  1  0
  4  5  1  0
  5  6  1  0
  6  7  1  0
  6  8  1  0
  8  9  1  0
  7  2  1  0
  9  2  1  0
  1 10  1  0
  1 11  1  0
  1 12  1  0
  3 13  1  0
  3 14  1  0
  5 15  1  0
  5 16  1  0
  6 17  1  0
  7 18  1  0
  7 19  1  0
  9 20  1  0
  9 21  1  0
M  END
