
     RDKit          3D

 17 18  0  0  0  0  0  0  0  0999 V2000
   -0.0168    1.2435   -1.2091 C   0  0  0  0  0  0  0  0  0  0  0  0
    0.1582    0.2141   -0.1401 C   0  0  0  0  0  0  0  0  0  0  0  0
   -1.0835   -0.1868    0.5818 C   0  0  0  0  0  0  0  0  0  0  0  0
   -1.7312   -1.3404   -0.0277 C   0  0  0  0  0  0  0  0  0  0  0  0
   -1.6916   -2.4499    0.4523 O   0  0  0  0  0  0  0  0  0  0  0  0
   -0.3982   -0.3649    1.7511 O   0  0  0  0  0  0  0  0  0  0  0  0
    0.5737    0.5167    1.2290 C   0  0  0  0  0  0  0  0  0  0  0  0
    1.5092   -0.1256    0.2938 C   0  0  0  0  0  0  0  0  0  0  0  0
    1.8998   -1.4193    0.6107 O   0  0  0  0  0  0  0  0  0  0  0  0
    0.4037    2.2213   -0.9919 H   0  0  0  0  0  0  0  0  0  0  0  0
    0.5208    0.8541   -2.1213 H   0  0  0  0  0  0  0  0  0  0  0  0
   -1.0982    1.2799   -1.5260 H   0  0  0  0  0  0  0  0  0  0  0  0
   -1.7750    0.6988    0.6838 H   0  0  0  0  0  0  0  0  0  0  0  0
   -2.2753   -1.2104   -0.9519 H   0  0  0  0  0  0  0  0  0  0  0  0
    0.6948    1.5050    1.6547 H   0  0  0  0  0  0  0  0  0  0  0  0
    2.3375    0.5320   -0.0791 H   0  0  0  0  0  0  0  0  0  0  0  0
    1.9723   -1.9682   -0.2099 H   0  0  0  0  0  0  0  0  0  0  0  0
  1  2  1  0
  2  3  1  0
  3  4  1  0
  4  5  2  0
  3  6  1  0
  6  7  1  0
  7  8  1  0
  8  9  1  0
  7  2  1  0
  8  2  1  0
  1 10  1  0
  1 11  1  0
  1 12  1  0
  3 13  1  0
  4 14  1  0
  7 15  1  0
  8 16  1  0
  9 17  1  0
M  END
