
     RDKit          3D

 19 21  0  0  0  0  0  0  0  0999 V2000
    1.7697   -0.3167    0.8876 C   0  0  0  0  0  0  0  0  0  0  0  0
    0.5598    0.1097    0.2055 C   0  0  0  0  0  0  0  0  0  0  0  0
    0.5137    1.4739   -0.4004 C   0  0  0  0  0  0  0  0  0  0  0  0
    1.3354    2.3510   -0.4149 O   0  0  0  0  0  0  0  0  0  0  0  0
   -0.8751    1.4737   -1.0121 C   0  0  0  0  0  0  0  0  0  0  0  0
   -1.3050    0.0995   -0.5835 C   0  0  0  0  0  0  0  0  0  0  0  0
   -0.1077   -0.7911   -0.7827 C   0  0  0  0  0  0  0  0  0  0  0  0
   -0.6220   -1.5669    0.3926 C   0  0  0  0  0  0  0  0  0  0  0  0
   -0.7791   -0.1316    0.8097 C   0  0  0  0  0  0  0  0  0  0  0  0
    1.7394   -0.0525    1.9796 H   0  0  0  0  0  0  0  0  0  0  0  0
    2.0179   -1.3825    0.7734 H   0  0  0  0  0  0  0  0  0  0  0  0
    2.6506    0.2516    0.4890 H   0  0  0  0  0  0  0  0  0  0  0  0
   -0.7307    1.5804   -2.0979 H   0  0  0  0  0  0  0  0  0  0  0  0
   -1.4708    2.2795   -0.5557 H   0  0  0  0  0  0  0  0  0  0  0  0
   -2.2746   -0.2600   -0.8428 H   0  0  0  0  0  0  0  0  0  0  0  0
    0.2490   -1.1435   -1.6475 H   0  0  0  0  0  0  0  0  0  0  0  0
   -1.6115   -2.0212    0.1945 H   0  0  0  0  0  0  0  0  0  0  0  0
    0.1017   -2.1718    0.9418 H   0  0  0  0  0  0  0  0  0  0  0  0
   -1.1606    0.2184    1.6638 H   0  0  0  0  0  0  0  0  0  0  0  0
  1  2  1  0
  2  3  1  0
  3  4  2  0
  3  5  1  0
  5  6  1  0
  6  7  1  0
  7  8  1  0
  8  9  1  0
  7  2  1  0
  9  2  1  0
  9  6  1  0
  1 10  1  0
  1 11  1  0
  1 12  1  0
  5 13  1  0
  5 14  1  0
  6 15  1  0
  7 16  1  0
  8 17  1  0
  8 18  1  0
  9 19  1  0
M  END
