
     RDKit          3D

 17 18  0  0  0  0  0  0  0  0999 V2000
    2.0389   -0.4362    0.7664 C   0  0  0  0  0  0  0  0  0  0  0  0
    0.8601   -0.1077   -0.0721 C   0  0  0  0  0  0  0  0  0  0  0  0
    0.3855    1.3252   -0.1979 C   0  0  0  0  0  0  0  0  0  0  0  0
   -0.7985    1.2873   -0.8665 O   0  0  0  0  0  0  0  0  0  0  0  0
   -1.3609    0.0483   -0.7796 C   0  0  0  0  0  0  0  0  0  0  0  0
   -2.4086   -0.0592    0.2616 C   0  0  0  0  0  0  0  0  0  0  0  0
   -2.7545    0.8435    0.9805 O   0  0  0  0  0  0  0  0  0  0  0  0
   -0.2258   -0.9223   -0.4282 C   0  0  0  0  0  0  0  0  0  0  0  0
    0.8485   -0.7979   -1.3279 O   0  0  0  0  0  0  0  0  0  0  0  0
    1.7855   -0.7572    1.8075 H   0  0  0  0  0  0  0  0  0  0  0  0
    2.6587   -1.2766    0.3529 H   0  0  0  0  0  0  0  0  0  0  0  0
    2.7461    0.4197    0.8585 H   0  0  0  0  0  0  0  0  0  0  0  0
    0.2385    1.7627    0.8042 H   0  0  0  0  0  0  0  0  0  0  0  0
    1.1297    1.8897   -0.8138 H   0  0  0  0  0  0  0  0  0  0  0  0
   -1.7891   -0.3142   -1.7428 H   0  0  0  0  0  0  0  0  0  0  0  0
   -2.8942   -1.0227    0.3789 H   0  0  0  0  0  0  0  0  0  0  0  0
   -0.4601   -1.8823    0.0182 H   0  0  0  0  0  0  0  0  0  0  0  0
  1  2  1  0
  2  3  1  0
  3  4  1  0
  4  5  1  0
  5  6  1  0
  6  7  2  0
  5  8  1  0
  8  9  1  0
  8  2  1  0
  9  2  1  0
  1 10  1  0
  1 11  1  0
  1 12  1  0
  3 13  1  0
  3 14  1  0
  5 15  1  0
  6 16  1  0
  8 17  1  0
M  END
