
     RDKit          3D

 19 21  0  0  0  0  0  0  0  0999 V2000
   -2.0948   -0.6838    0.2004 C   0  0  0  0  0  0  0  0  0  0  0  0
   -0.9354   -0.0062   -0.4028 C   0  0  0  0  0  0  0  0  0  0  0  0
   -1.0373    0.2340   -1.7910 O   0  0  0  0  0  0  0  0  0  0  0  0
   -0.8446    1.2982   -0.9445 C   0  0  0  0  0  0  0  0  0  0  0  0
    0.5844    1.4350   -0.3969 C   0  0  0  0  0  0  0  0  0  0  0  0
    0.4117    0.0590    0.1646 C   0  0  0  0  0  0  0  0  0  0  0  0
    0.8816   -0.3939    1.4396 C   0  0  0  0  0  0  0  0  0  0  0  0
    1.4257   -0.9775    0.1324 C   0  0  0  0  0  0  0  0  0  0  0  0
    2.6914   -0.6458   -0.2775 O   0  0  0  0  0  0  0  0  0  0  0  0
   -2.0567   -1.7661   -0.0527 H   0  0  0  0  0  0  0  0  0  0  0  0
   -3.0259   -0.2734   -0.2841 H   0  0  0  0  0  0  0  0  0  0  0  0
   -2.2351   -0.5600    1.2765 H   0  0  0  0  0  0  0  0  0  0  0  0
   -1.5250    2.1388   -0.8774 H   0  0  0  0  0  0  0  0  0  0  0  0
    1.3173    1.5175   -1.2094 H   0  0  0  0  0  0  0  0  0  0  0  0
    0.6847    2.2613    0.3048 H   0  0  0  0  0  0  0  0  0  0  0  0
    1.6799    0.1715    2.0011 H   0  0  0  0  0  0  0  0  0  0  0  0
    0.3009   -1.0444    2.1091 H   0  0  0  0  0  0  0  0  0  0  0  0
    1.0720   -2.0180   -0.1094 H   0  0  0  0  0  0  0  0  0  0  0  0
    2.7052   -0.7463   -1.2825 H   0  0  0  0  0  0  0  0  0  0  0  0
  1  2  1  0
  2  3  1  0
  3  4  1  0
  4  5  1  0
  5  6  1  0
  6  7  1  0
  7  8  1  0
  8  9  1  0
  4  2  1  0
  8  6  1  0
  6  2  1  0
  1 10  1  0
  1 11  1  0
  1 12  1  0
  4 13  1  0
  5 14  1  0
  5 15  1  0
  7 16  1  0
  7 17  1  0
  8 18  1  0
  9 19  1  0
M  END
