
     RDKit          3D

 21 23  0  0  0  0  0  0  0  0999 V2000
   -1.8823   -0.5748    0.8957 C   0  0  0  0  0  0  0  0  0  0  0  0
   -0.6784   -0.2371    0.0754 C   0  0  0  0  0  0  0  0  0  0  0  0
    0.1861   -1.3299   -0.3822 C   0  0  0  0  0  0  0  0  0  0  0  0
    1.5023   -1.3027   -0.1800 O   0  0  0  0  0  0  0  0  0  0  0  0
    2.1326   -0.2938    0.4514 C   0  0  0  0  0  0  0  0  0  0  0  0
    1.4433    1.0408    0.0716 C   0  0  0  0  0  0  0  0  0  0  0  0
    0.4526    1.1024   -1.0101 C   0  0  0  0  0  0  0  0  0  0  0  0
   -1.0618    0.8536   -0.9428 C   0  0  0  0  0  0  0  0  0  0  0  0
    0.1435    0.9157    0.4960 C   0  0  0  0  0  0  0  0  0  0  0  0
   -2.6622    0.2203    0.8425 H   0  0  0  0  0  0  0  0  0  0  0  0
   -2.3634   -1.4782    0.4368 H   0  0  0  0  0  0  0  0  0  0  0  0
   -1.6642   -0.8224    1.9435 H   0  0  0  0  0  0  0  0  0  0  0  0
   -0.0062   -1.4933   -1.4863 H   0  0  0  0  0  0  0  0  0  0  0  0
   -0.2187   -2.2881    0.0724 H   0  0  0  0  0  0  0  0  0  0  0  0
    2.2341   -0.3879    1.5356 H   0  0  0  0  0  0  0  0  0  0  0  0
    3.1593   -0.1943    0.0013 H   0  0  0  0  0  0  0  0  0  0  0  0
    2.0697    1.9239    0.3193 H   0  0  0  0  0  0  0  0  0  0  0  0
    0.8051    0.3581   -1.7180 H   0  0  0  0  0  0  0  0  0  0  0  0
   -1.5792    1.6741   -0.4366 H   0  0  0  0  0  0  0  0  0  0  0  0
   -1.5502    0.5094   -1.8290 H   0  0  0  0  0  0  0  0  0  0  0  0
   -0.4619    1.8042    0.8433 H   0  0  0  0  0  0  0  0  0  0  0  0
  1  2  1  0
  2  3  1  0
  3  4  1  0
  4  5  1  0
  5  6  1  0
  6  7  1  0
  7  8  1  0
  7  9  1  0
  8  2  1  0
  9  2  1  0
  9  6  1  0
  1 10  1  0
  1 11  1  0
  1 12  1  0
  3 13  1  0
  3 14  1  0
  5 15  1  0
  5 16  1  0
  6 17  1  0
  7 18  1  0
  8 19  1  0
  8 20  1  0
  9 21  1  0
M  END
