
     RDKit          3D

 19 20  0  0  0  0  0  0  0  0999 V2000
   -1.8089    1.0051   -0.5248 C   0  0  0  0  0  0  0  0  0  0  0  0
   -0.9216    0.1082    0.2569 C   0  0  0  0  0  0  0  0  0  0  0  0
   -1.0382   -1.3680    0.0683 C   0  0  0  0  0  0  0  0  0  0  0  0
    0.4649   -1.4564    0.0499 C   0  0  0  0  0  0  0  0  0  0  0  0
    0.5208    0.0456    0.1475 C   0  0  0  0  0  0  0  0  0  0  0  0
    1.2816    0.7892   -0.7667 O   0  0  0  0  0  0  0  0  0  0  0  0
    2.6638    0.6684   -0.8044 C   0  0  0  0  0  0  0  0  0  0  0  0
    3.2307   -0.1304    0.0064 O   0  0  0  0  0  0  0  0  0  0  0  0
   -0.0692    0.6872    1.3232 C   0  0  0  0  0  0  0  0  0  0  0  0
   -2.8215    0.9933   -0.0260 H   0  0  0  0  0  0  0  0  0  0  0  0
   -1.9567    0.7250   -1.5695 H   0  0  0  0  0  0  0  0  0  0  0  0
   -1.4636    2.0659   -0.4211 H   0  0  0  0  0  0  0  0  0  0  0  0
   -1.4512   -1.6686   -0.8996 H   0  0  0  0  0  0  0  0  0  0  0  0
   -1.5463   -1.8754    0.8885 H   0  0  0  0  0  0  0  0  0  0  0  0
    0.9066   -1.8333   -0.8779 H   0  0  0  0  0  0  0  0  0  0  0  0
    0.8208   -1.9857    0.9421 H   0  0  0  0  0  0  0  0  0  0  0  0
    3.2853    1.2361   -1.5074 H   0  0  0  0  0  0  0  0  0  0  0  0
   -0.0094    0.2021    2.3222 H   0  0  0  0  0  0  0  0  0  0  0  0
   -0.0880    1.7917    1.3922 H   0  0  0  0  0  0  0  0  0  0  0  0
  1  2  1  0
  2  3  1  0
  3  4  1  0
  4  5  1  0
  5  6  1  0
  6  7  1  0
  7  8  2  0
  5  9  1  0
  5  2  1  0
  9  2  1  0
  1 10  1  0
  1 11  1  0
  1 12  1  0
  3 13  1  0
  3 14  1  0
  4 15  1  0
  4 16  1  0
  7 17  1  0
  9 18  1  0
  9 19  1  0
M  END
