
     RDKit          3D

 19 20  0  0  0  0  0  0  0  0999 V2000
    2.1506   -0.0305    0.0514 C   0  0  0  0  0  0  0  0  0  0  0  0
    0.6893    0.1307   -0.0350 C   0  0  0  0  0  0  0  0  0  0  0  0
   -0.1280   -0.3771    1.1484 C   0  0  0  0  0  0  0  0  0  0  0  0
   -1.1999   -0.7421    0.1117 C   0  0  0  0  0  0  0  0  0  0  0  0
   -2.0149    0.4925   -0.1030 C   0  0  0  0  0  0  0  0  0  0  0  0
   -1.2084    1.5349   -0.6582 O   0  0  0  0  0  0  0  0  0  0  0  0
    0.1565    1.4234   -0.5069 C   0  0  0  0  0  0  0  0  0  0  0  0
    0.9172    2.3668   -0.7549 O   0  0  0  0  0  0  0  0  0  0  0  0
   -0.0604   -0.9158   -0.8667 C   0  0  0  0  0  0  0  0  0  0  0  0
    2.5228    0.1834    1.0914 H   0  0  0  0  0  0  0  0  0  0  0  0
    2.6512    0.7017   -0.6032 H   0  0  0  0  0  0  0  0  0  0  0  0
    2.5272   -1.0443   -0.1905 H   0  0  0  0  0  0  0  0  0  0  0  0
    0.3311   -1.2541    1.5991 H   0  0  0  0  0  0  0  0  0  0  0  0
   -0.3982    0.4618    1.8028 H   0  0  0  0  0  0  0  0  0  0  0  0
   -1.7529   -1.6600    0.3514 H   0  0  0  0  0  0  0  0  0  0  0  0
   -2.9420    0.3420   -0.6510 H   0  0  0  0  0  0  0  0  0  0  0  0
   -2.3137    0.8670    0.9203 H   0  0  0  0  0  0  0  0  0  0  0  0
   -0.2738   -0.5528   -1.8999 H   0  0  0  0  0  0  0  0  0  0  0  0
    0.3461   -1.9273   -0.8070 H   0  0  0  0  0  0  0  0  0  0  0  0
  1  2  1  0
  2  3  1  0
  3  4  1  0
  4  5  1  0
  5  6  1  0
  6  7  1  0
  7  8  2  0
  4  9  1  0
  7  2  1  0
  9  2  1  0
  1 10  1  0
  1 11  1  0
  1 12  1  0
  3 13  1  0
  3 14  1  0
  4 15  1  0
  5 16  1  0
  5 17  1  0
  9 18  1  0
  9 19  1  0
M  END
