
     RDKit          3D

 19 21  0  0  0  0  0  0  0  0999 V2000
   -1.1824    1.6472    0.0230 C   0  0  0  0  0  0  0  0  0  0  0  0
   -0.3026    0.4662   -0.3061 C   0  0  0  0  0  0  0  0  0  0  0  0
    1.0707    0.7794   -0.7657 C   0  0  0  0  0  0  0  0  0  0  0  0
    1.9181   -0.4533   -0.4910 C   0  0  0  0  0  0  0  0  0  0  0  0
    2.3777   -0.5513    0.8744 O   0  0  0  0  0  0  0  0  0  0  0  0
    1.2579   -1.2226    0.4671 C   0  0  0  0  0  0  0  0  0  0  0  0
   -0.1168   -0.6492    0.6527 C   0  0  0  0  0  0  0  0  0  0  0  0
   -0.9906   -0.8017   -0.5825 C   0  0  0  0  0  0  0  0  0  0  0  0
   -2.3602   -0.8550   -0.3446 O   0  0  0  0  0  0  0  0  0  0  0  0
   -1.6218    2.0087   -0.9529 H   0  0  0  0  0  0  0  0  0  0  0  0
   -0.6483    2.4827    0.4899 H   0  0  0  0  0  0  0  0  0  0  0  0
   -2.0182    1.3227    0.6953 H   0  0  0  0  0  0  0  0  0  0  0  0
    1.1776    1.1281   -1.7857 H   0  0  0  0  0  0  0  0  0  0  0  0
    1.4920    1.5803   -0.0947 H   0  0  0  0  0  0  0  0  0  0  0  0
    2.6282   -0.7022   -1.2728 H   0  0  0  0  0  0  0  0  0  0  0  0
    1.2548   -2.3471    0.4108 H   0  0  0  0  0  0  0  0  0  0  0  0
   -0.5779   -0.5898    1.6450 H   0  0  0  0  0  0  0  0  0  0  0  0
   -0.6686   -1.4947   -1.3873 H   0  0  0  0  0  0  0  0  0  0  0  0
   -2.6896   -1.7483   -0.1213 H   0  0  0  0  0  0  0  0  0  0  0  0
  1  2  1  0
  2  3  1  0
  3  4  1  0
  4  5  1  0
  5  6  1  0
  6  7  1  0
  7  8  1  0
  8  9  1  0
  7  2  1  0
  8  2  1  0
  6  4  1  0
  1 10  1  0
  1 11  1  0
  1 12  1  0
  3 13  1  0
  3 14  1  0
  4 15  1  0
  6 16  1  0
  7 17  1  0
  8 18  1  0
  9 19  1  0
M  END
