
     RDKit          3D

 19 20  0  0  0  0  0  0  0  0999 V2000
    2.4256   -0.1007    0.0767 C   0  0  0  0  0  0  0  0  0  0  0  0
    0.9191   -0.1202    0.2385 C   0  0  0  0  0  0  0  0  0  0  0  0
    0.1544   -1.3536   -0.0819 C   0  0  0  0  0  0  0  0  0  0  0  0
   -1.2509   -1.1202   -0.4627 C   0  0  0  0  0  0  0  0  0  0  0  0
   -1.8052   -1.9539   -1.1443 O   0  0  0  0  0  0  0  0  0  0  0  0
   -2.0100    0.0713   -0.0567 C   0  0  0  0  0  0  0  0  0  0  0  0
   -1.1400    1.2718   -0.1710 C   0  0  0  0  0  0  0  0  0  0  0  0
    0.2308    1.1064    0.3936 C   0  0  0  0  0  0  0  0  0  0  0  0
    0.4639    0.4100    1.5535 O   0  0  0  0  0  0  0  0  0  0  0  0
    2.8452   -1.1146   -0.0621 H   0  0  0  0  0  0  0  0  0  0  0  0
    2.9061    0.4083    0.9278 H   0  0  0  0  0  0  0  0  0  0  0  0
    2.6477    0.5273   -0.8209 H   0  0  0  0  0  0  0  0  0  0  0  0
    0.6955   -1.9590   -0.8466 H   0  0  0  0  0  0  0  0  0  0  0  0
    0.1289   -2.0180    0.8318 H   0  0  0  0  0  0  0  0  0  0  0  0
   -2.4321   -0.0052    0.9651 H   0  0  0  0  0  0  0  0  0  0  0  0
   -2.8912    0.2202   -0.7305 H   0  0  0  0  0  0  0  0  0  0  0  0
   -1.0457    1.5482   -1.2439 H   0  0  0  0  0  0  0  0  0  0  0  0
   -1.6818    2.1283    0.3094 H   0  0  0  0  0  0  0  0  0  0  0  0
    0.8398    2.0538    0.3240 H   0  0  0  0  0  0  0  0  0  0  0  0
  1  2  1  0
  2  3  1  0
  3  4  1  0
  4  5  2  0
  4  6  1  0
  6  7  1  0
  7  8  1  0
  8  9  1  0
  8  2  1  0
  9  2  1  0
  1 10  1  0
  1 11  1  0
  1 12  1  0
  3 13  1  0
  3 14  1  0
  6 15  1  0
  6 16  1  0
  7 17  1  0
  7 18  1  0
  8 19  1  0
M  END
