
     RDKit          3D

 21 23  0  0  0  0  0  0  0  0999 V2000
    2.2230   -0.4786    0.1517 C   0  0  0  0  0  0  0  0  0  0  0  0
    0.7770   -0.2124   -0.0219 C   0  0  0  0  0  0  0  0  0  0  0  0
    0.1674    0.9203    0.7384 C   0  0  0  0  0  0  0  0  0  0  0  0
   -0.9854    0.4246    1.4908 C   0  0  0  0  0  0  0  0  0  0  0  0
   -1.8009   -0.5111    1.0253 C   0  0  0  0  0  0  0  0  0  0  0  0
   -1.5636   -1.1069   -0.3203 C   0  0  0  0  0  0  0  0  0  0  0  0
   -0.1518   -1.0234   -0.7790 C   0  0  0  0  0  0  0  0  0  0  0  0
    0.2645    0.3319   -1.2977 C   0  0  0  0  0  0  0  0  0  0  0  0
   -0.1531    1.5811   -0.5886 C   0  0  0  0  0  0  0  0  0  0  0  0
    2.7486    0.5106    0.2521 H   0  0  0  0  0  0  0  0  0  0  0  0
    2.3711   -0.9628    1.1628 H   0  0  0  0  0  0  0  0  0  0  0  0
    2.6995   -1.0716   -0.6331 H   0  0  0  0  0  0  0  0  0  0  0  0
    0.9147    1.4617    1.3255 H   0  0  0  0  0  0  0  0  0  0  0  0
   -1.1932    0.8302    2.4707 H   0  0  0  0  0  0  0  0  0  0  0  0
   -2.6568   -0.8843    1.5750 H   0  0  0  0  0  0  0  0  0  0  0  0
   -2.1909   -0.5135   -1.0352 H   0  0  0  0  0  0  0  0  0  0  0  0
   -1.9077   -2.1507   -0.3930 H   0  0  0  0  0  0  0  0  0  0  0  0
    0.2413   -1.8602   -1.3826 H   0  0  0  0  0  0  0  0  0  0  0  0
    0.8905    0.3921   -2.2093 H   0  0  0  0  0  0  0  0  0  0  0  0
   -1.2080    1.8875   -0.7135 H   0  0  0  0  0  0  0  0  0  0  0  0
    0.5138    2.4356   -0.8181 H   0  0  0  0  0  0  0  0  0  0  0  0
  1  2  1  0
  2  3  1  0
  3  4  1  0
  4  5  2  0
  5  6  1  0
  6  7  1  0
  7  8  1  0
  8  9  1  0
  7  2  1  0
  8  2  1  0
  9  3  1  0
  1 10  1  0
  1 11  1  0
  1 12  1  0
  3 13  1  0
  4 14  1  0
  5 15  1  0
  6 16  1  0
  6 17  1  0
  7 18  1  0
  8 19  1  0
  9 20  1  0
  9 21  1  0
M  END
