
     RDKit          3D

 17 19  0  0  0  0  0  0  0  0999 V2000
    1.9635   -0.2867   -0.5079 C   0  0  0  0  0  0  0  0  0  0  0  0
    0.6123   -0.2247    0.1151 C   0  0  0  0  0  0  0  0  0  0  0  0
    0.2476    1.0852    0.7886 C   0  0  0  0  0  0  0  0  0  0  0  0
   -1.2078    1.2581    0.5935 C   0  0  0  0  0  0  0  0  0  0  0  0
   -1.8851    2.2054    0.8789 O   0  0  0  0  0  0  0  0  0  0  0  0
   -1.7104    0.0159   -0.0387 C   0  0  0  0  0  0  0  0  0  0  0  0
   -1.0602   -1.2721    0.2831 C   0  0  0  0  0  0  0  0  0  0  0  0
    0.2009   -1.3222    0.8464 O   0  0  0  0  0  0  0  0  0  0  0  0
   -0.5407   -0.4344   -0.8055 C   0  0  0  0  0  0  0  0  0  0  0  0
    2.2329   -1.3582   -0.6339 H   0  0  0  0  0  0  0  0  0  0  0  0
    1.8868    0.1243   -1.5480 H   0  0  0  0  0  0  0  0  0  0  0  0
    2.7429    0.2431    0.0736 H   0  0  0  0  0  0  0  0  0  0  0  0
    0.8527    1.9280    0.4514 H   0  0  0  0  0  0  0  0  0  0  0  0
    0.4112    0.9279    1.8891 H   0  0  0  0  0  0  0  0  0  0  0  0
   -2.6785   -0.0183   -0.5267 H   0  0  0  0  0  0  0  0  0  0  0  0
   -1.5835   -2.1921   -0.0194 H   0  0  0  0  0  0  0  0  0  0  0  0
   -0.4847   -0.6793   -1.8395 H   0  0  0  0  0  0  0  0  0  0  0  0
  1  2  1  0
  2  3  1  0
  3  4  1  0
  4  5  2  0
  4  6  1  0
  6  7  1  0
  7  8  1  0
  7  9  1  0
  8  2  1  0
  9  2  1  0
  9  6  1  0
  1 10  1  0
  1 11  1  0
  1 12  1  0
  3 13  1  0
  3 14  1  0
  6 15  1  0
  7 16  1  0
  9 17  1  0
M  END
