
     RDKit          3D

 21 23  0  0  0  0  0  0  0  0999 V2000
   -2.4183   -1.0818   -0.2299 C   0  0  0  0  0  0  0  0  0  0  0  0
   -1.0385   -0.5163    0.2470 C   0  0  0  0  0  0  0  0  0  0  0  0
   -1.2252    0.9541    0.3471 C   0  0  0  0  0  0  0  0  0  0  0  0
   -1.1982    0.8321   -1.0684 O   0  0  0  0  0  0  0  0  0  0  0  0
   -0.1165    0.0566   -0.8291 C   0  0  0  0  0  0  0  0  0  0  0  0
    1.1456    0.7591   -0.7393 C   0  0  0  0  0  0  0  0  0  0  0  0
    2.4264    0.0275   -0.3352 C   0  0  0  0  0  0  0  0  0  0  0  0
    1.8454    1.1048    0.5235 C   0  0  0  0  0  0  0  0  0  0  0  0
   -0.0206   -1.3113   -0.3727 C   0  0  0  0  0  0  0  0  0  0  0  0
   -2.4230   -2.1690   -0.2461 H   0  0  0  0  0  0  0  0  0  0  0  0
   -3.1252   -0.7485    0.5320 H   0  0  0  0  0  0  0  0  0  0  0  0
   -2.6615   -0.7109   -1.2220 H   0  0  0  0  0  0  0  0  0  0  0  0
   -0.5276    1.6202    0.7828 H   0  0  0  0  0  0  0  0  0  0  0  0
   -2.2578    1.2819    0.6173 H   0  0  0  0  0  0  0  0  0  0  0  0
    1.3731    1.5253   -1.5703 H   0  0  0  0  0  0  0  0  0  0  0  0
    3.3566    0.2492   -0.9125 H   0  0  0  0  0  0  0  0  0  0  0  0
    2.4292   -0.9527    0.1177 H   0  0  0  0  0  0  0  0  0  0  0  0
    1.4530    0.8511    1.5116 H   0  0  0  0  0  0  0  0  0  0  0  0
    2.4465    2.0362    0.5474 H   0  0  0  0  0  0  0  0  0  0  0  0
    0.7152   -1.7392    0.3282 H   0  0  0  0  0  0  0  0  0  0  0  0
   -0.1787   -2.0683   -1.2043 H   0  0  0  0  0  0  0  0  0  0  0  0
  1  2  1  0
  2  3  1  0
  3  4  1  0
  4  5  1  0
  5  6  1  0
  6  7  1  0
  7  8  1  0
  5  9  1  0
  5  2  1  0
  8  6  1  0
  9  2  1  0
  1 10  1  0
  1 11  1  0
  1 12  1  0
  3 13  1  0
  3 14  1  0
  6 15  1  0
  7 16  1  0
  7 17  1  0
  8 18  1  0
  8 19  1  0
  9 20  1  0
  9 21  1  0
M  END
