
     RDKit          3D

 20 21  0  0  0  0  0  0  0  0999 V2000
   -1.5208   -1.3516   -0.7765 C   0  0  0  0  0  0  0  0  0  0  0  0
   -0.6292   -0.4265    0.0240 C   0  0  0  0  0  0  0  0  0  0  0  0
   -1.3215    0.7176    0.6713 C   0  0  0  0  0  0  0  0  0  0  0  0
   -0.4044    1.7371    0.0457 C   0  0  0  0  0  0  0  0  0  0  0  0
    0.1648    0.6363   -0.8064 C   0  0  0  0  0  0  0  0  0  0  0  0
    0.8271   -0.5233   -0.1300 C   0  0  0  0  0  0  0  0  0  0  0  0
    1.8001   -0.1877    0.9451 C   0  0  0  0  0  0  0  0  0  0  0  0
    3.0856   -0.3966    0.4448 O   0  0  0  0  0  0  0  0  0  0  0  0
   -1.7117   -2.2437   -0.1243 H   0  0  0  0  0  0  0  0  0  0  0  0
   -1.0672   -1.7029   -1.7050 H   0  0  0  0  0  0  0  0  0  0  0  0
   -2.5229   -0.9067   -0.9685 H   0  0  0  0  0  0  0  0  0  0  0  0
   -2.3707    0.8862    0.2998 H   0  0  0  0  0  0  0  0  0  0  0  0
   -1.3483    0.7187    1.7736 H   0  0  0  0  0  0  0  0  0  0  0  0
    0.2626    2.1668    0.8043 H   0  0  0  0  0  0  0  0  0  0  0  0
   -0.8731    2.5102   -0.5710 H   0  0  0  0  0  0  0  0  0  0  0  0
   -0.0234    0.6221   -1.8953 H   0  0  0  0  0  0  0  0  0  0  0  0
    1.1748   -1.3122   -0.8434 H   0  0  0  0  0  0  0  0  0  0  0  0
    1.7619    0.8673    1.2800 H   0  0  0  0  0  0  0  0  0  0  0  0
    1.6658   -0.8087    1.8700 H   0  0  0  0  0  0  0  0  0  0  0  0
    3.0504   -1.0023   -0.3384 H   0  0  0  0  0  0  0  0  0  0  0  0
  1  2  1  0
  2  3  1  0
  3  4  1  0
  4  5  1  0
  5  6  1  0
  6  7  1  0
  7  8  1  0
  5  2  1  0
  6  2  1  0
  1  9  1  0
  1 10  1  0
  1 11  1  0
  3 12  1  0
  3 13  1  0
  4 14  1  0
  4 15  1  0
  5 16  1  0
  6 17  1  0
  7 18  1  0
  7 19  1  0
  8 20  1  0
M  END
