
     RDKit          3D

 17 20  0  0  0  0  0  0  0  0999 V2000
   -1.4523    1.2695   -0.4799 C   0  0  0  0  0  0  0  0  0  0  0  0
   -0.5353    0.2542    0.0044 C   0  0  0  0  0  0  0  0  0  0  0  0
   -0.7561   -0.6944    1.0973 C   0  0  0  0  0  0  0  0  0  0  0  0
    0.4407   -0.8478    1.7782 O   0  0  0  0  0  0  0  0  0  0  0  0
    1.4431   -0.6870    0.8162 C   0  0  0  0  0  0  0  0  0  0  0  0
    0.9164   -1.1588   -0.4699 C   0  0  0  0  0  0  0  0  0  0  0  0
   -0.5512   -1.1730   -0.2854 C   0  0  0  0  0  0  0  0  0  0  0  0
    0.9462    0.2849   -0.1468 C   0  0  0  0  0  0  0  0  0  0  0  0
    1.6390    1.2202   -0.8075 O   0  0  0  0  0  0  0  0  0  0  0  0
   -0.9744    2.2864   -0.3759 H   0  0  0  0  0  0  0  0  0  0  0  0
   -2.3937    1.3238    0.0788 H   0  0  0  0  0  0  0  0  0  0  0  0
   -1.7486    1.1568   -1.5634 H   0  0  0  0  0  0  0  0  0  0  0  0
   -1.6914   -0.8691    1.6107 H   0  0  0  0  0  0  0  0  0  0  0  0
    2.4747   -0.8991    1.0531 H   0  0  0  0  0  0  0  0  0  0  0  0
    1.4599   -1.6356   -1.2572 H   0  0  0  0  0  0  0  0  0  0  0  0
   -1.2560   -1.7177   -0.8769 H   0  0  0  0  0  0  0  0  0  0  0  0
    2.0391    1.8867   -0.1757 H   0  0  0  0  0  0  0  0  0  0  0  0
  1  2  1  0
  2  3  1  0
  3  4  1  0
  4  5  1  0
  5  6  1  0
  6  7  1  0
  6  8  1  0
  8  9  1  0
  7  2  1  0
  8  2  1  0
  7  3  1  0
  8  5  1  0
  1 10  1  0
  1 11  1  0
  1 12  1  0
  3 13  1  0
  5 14  1  0
  6 15  1  0
  7 16  1  0
  9 17  1  0
M  END
