
     RDKit          3D

 16 17  0  0  0  0  0  0  0  0999 V2000
   -1.7841   -0.3937    0.0925 C   0  0  0  0  0  0  0  0  0  0  0  0
   -0.4497    0.2677    0.1946 C   0  0  0  0  0  0  0  0  0  0  0  0
    0.0421    1.1872   -0.8584 C   0  0  0  0  0  0  0  0  0  0  0  0
    0.5746   -0.1703   -0.8190 C   0  0  0  0  0  0  0  0  0  0  0  0
    1.7210   -0.5997    0.0263 C   0  0  0  0  0  0  0  0  0  0  0  0
    1.5873    0.1024    1.2239 O   0  0  0  0  0  0  0  0  0  0  0  0
    0.2623    0.3551    1.4815 C   0  0  0  0  0  0  0  0  0  0  0  0
   -0.2115    0.6046    2.5895 O   0  0  0  0  0  0  0  0  0  0  0  0
   -2.4283    0.1072   -0.6588 H   0  0  0  0  0  0  0  0  0  0  0  0
   -2.2872   -0.5439    1.0610 H   0  0  0  0  0  0  0  0  0  0  0  0
   -1.6104   -1.4279   -0.3210 H   0  0  0  0  0  0  0  0  0  0  0  0
   -0.6621    1.4629   -1.6384 H   0  0  0  0  0  0  0  0  0  0  0  0
    0.7106    2.0373   -0.5516 H   0  0  0  0  0  0  0  0  0  0  0  0
    0.2755   -0.8433   -1.6473 H   0  0  0  0  0  0  0  0  0  0  0  0
    1.5527   -1.6874    0.2834 H   0  0  0  0  0  0  0  0  0  0  0  0
    2.7070   -0.4581   -0.4583 H   0  0  0  0  0  0  0  0  0  0  0  0
  1  2  1  0
  2  3  1  0
  3  4  1  0
  4  5  1  0
  5  6  1  0
  6  7  1  0
  7  8  2  0
  4  2  1  0
  7  2  1  0
  1  9  1  0
  1 10  1  0
  1 11  1  0
  3 12  1  0
  3 13  1  0
  4 14  1  0
  5 15  1  0
  5 16  1  0
M  END
