
     RDKit          3D

 20 22  0  0  0  0  0  0  0  0999 V2000
    1.9230    0.7191    0.4002 C   0  0  0  0  0  0  0  0  0  0  0  0
    0.7501    0.1410   -0.3022 C   0  0  0  0  0  0  0  0  0  0  0  0
    0.8989   -1.1301   -0.9978 C   0  0  0  0  0  0  0  0  0  0  0  0
    0.1394   -1.1906    0.2572 C   0  0  0  0  0  0  0  0  0  0  0  0
   -1.2888   -0.7632    0.3540 C   0  0  0  0  0  0  0  0  0  0  0  0
   -1.1225    0.5975    1.0483 C   0  0  0  0  0  0  0  0  0  0  0  0
   -0.4902    0.9639   -0.3074 C   0  0  0  0  0  0  0  0  0  0  0  0
   -1.5627    0.0809   -0.8887 C   0  0  0  0  0  0  0  0  0  0  0  0
    1.7358    1.7824    0.6794 H   0  0  0  0  0  0  0  0  0  0  0  0
    2.2923    0.1262    1.2517 H   0  0  0  0  0  0  0  0  0  0  0  0
    2.7696    0.7636   -0.3454 H   0  0  0  0  0  0  0  0  0  0  0  0
    0.4206   -1.3301   -1.9805 H   0  0  0  0  0  0  0  0  0  0  0  0
    1.9172   -1.5954   -0.9540 H   0  0  0  0  0  0  0  0  0  0  0  0
    0.5809   -1.5548    1.1964 H   0  0  0  0  0  0  0  0  0  0  0  0
   -2.0418   -1.4100    0.7071 H   0  0  0  0  0  0  0  0  0  0  0  0
   -0.4188    0.5768    1.8791 H   0  0  0  0  0  0  0  0  0  0  0  0
   -2.1145    1.0332    1.2097 H   0  0  0  0  0  0  0  0  0  0  0  0
   -0.4655    1.9981   -0.5606 H   0  0  0  0  0  0  0  0  0  0  0  0
   -2.5439    0.5793   -0.8030 H   0  0  0  0  0  0  0  0  0  0  0  0
   -1.3791   -0.3878   -1.8437 H   0  0  0  0  0  0  0  0  0  0  0  0
  1  2  1  0
  2  3  1  0
  3  4  1  0
  4  5  1  0
  5  6  1  0
  6  7  1  0
  7  8  1  0
  4  2  1  0
  8  5  1  0
  7  2  1  0
  1  9  1  0
  1 10  1  0
  1 11  1  0
  3 12  1  0
  3 13  1  0
  4 14  1  0
  5 15  1  0
  6 16  1  0
  6 17  1  0
  7 18  1  0
  8 19  1  0
  8 20  1  0
M  END
