
     RDKit          3D

 17 19  0  0  0  0  0  0  0  0999 V2000
    2.0163   -0.8833    0.2058 C   0  0  0  0  0  0  0  0  0  0  0  0
    0.7911   -0.1228   -0.1834 C   0  0  0  0  0  0  0  0  0  0  0  0
    0.4257   -0.0168   -1.5322 O   0  0  0  0  0  0  0  0  0  0  0  0
   -0.9381   -0.0160   -1.1981 C   0  0  0  0  0  0  0  0  0  0  0  0
   -1.3359    1.3814   -0.8254 C   0  0  0  0  0  0  0  0  0  0  0  0
   -0.8208    1.7057    0.3437 C   0  0  0  0  0  0  0  0  0  0  0  0
   -0.0302    0.5559    0.8626 C   0  0  0  0  0  0  0  0  0  0  0  0
   -0.5659   -0.5852    0.1242 C   0  0  0  0  0  0  0  0  0  0  0  0
   -0.9212   -1.7842    0.5960 O   0  0  0  0  0  0  0  0  0  0  0  0
    2.2473   -1.7017   -0.5301 H   0  0  0  0  0  0  0  0  0  0  0  0
    1.9536   -1.2625    1.2296 H   0  0  0  0  0  0  0  0  0  0  0  0
    2.8849   -0.1783    0.1455 H   0  0  0  0  0  0  0  0  0  0  0  0
   -1.6050   -0.5575   -1.8486 H   0  0  0  0  0  0  0  0  0  0  0  0
   -1.9608    1.9773   -1.4779 H   0  0  0  0  0  0  0  0  0  0  0  0
   -0.9288    2.6396    0.8742 H   0  0  0  0  0  0  0  0  0  0  0  0
    0.3567    0.5474    1.8685 H   0  0  0  0  0  0  0  0  0  0  0  0
   -1.5688   -1.6991    1.3456 H   0  0  0  0  0  0  0  0  0  0  0  0
  1  2  1  0
  2  3  1  0
  3  4  1  0
  4  5  1  0
  5  6  2  0
  6  7  1  0
  7  8  1  0
  8  9  1  0
  7  2  1  0
  8  2  1  0
  8  4  1  0
  1 10  1  0
  1 11  1  0
  1 12  1  0
  4 13  1  0
  5 14  1  0
  6 15  1  0
  7 16  1  0
  9 17  1  0
M  END
