
     RDKit          3D

 19 21  0  0  0  0  0  0  0  0999 V2000
    1.8700    0.1559   -0.8199 C   0  0  0  0  0  0  0  0  0  0  0  0
    0.6357    0.0854    0.0192 C   0  0  0  0  0  0  0  0  0  0  0  0
    0.6641    0.3536    1.4791 C   0  0  0  0  0  0  0  0  0  0  0  0
    0.5668   -1.0614    0.9565 C   0  0  0  0  0  0  0  0  0  0  0  0
   -0.6245   -1.6986    0.8369 O   0  0  0  0  0  0  0  0  0  0  0  0
   -1.4023   -1.1020   -0.1083 C   0  0  0  0  0  0  0  0  0  0  0  0
   -0.7234    0.0977   -0.6114 C   0  0  0  0  0  0  0  0  0  0  0  0
   -1.5380    1.3825   -0.5964 C   0  0  0  0  0  0  0  0  0  0  0  0
   -1.0060    0.7452   -1.7573 O   0  0  0  0  0  0  0  0  0  0  0  0
    1.5406    0.2286   -1.8913 H   0  0  0  0  0  0  0  0  0  0  0  0
    2.5766    0.9414   -0.5428 H   0  0  0  0  0  0  0  0  0  0  0  0
    2.4533   -0.8105   -0.7826 H   0  0  0  0  0  0  0  0  0  0  0  0
   -0.2701    0.6983    1.9697 H   0  0  0  0  0  0  0  0  0  0  0  0
    1.5716    0.7054    1.9678 H   0  0  0  0  0  0  0  0  0  0  0  0
    1.4443   -1.6801    1.2031 H   0  0  0  0  0  0  0  0  0  0  0  0
   -1.6695   -1.7615   -0.9683 H   0  0  0  0  0  0  0  0  0  0  0  0
   -2.3829   -0.8344    0.3852 H   0  0  0  0  0  0  0  0  0  0  0  0
   -1.0580    2.2917   -0.2385 H   0  0  0  0  0  0  0  0  0  0  0  0
   -2.6483    1.2630   -0.5008 H   0  0  0  0  0  0  0  0  0  0  0  0
  1  2  1  0
  2  3  1  0
  3  4  1  0
  4  5  1  0
  5  6  1  0
  6  7  1  0
  7  8  1  0
  8  9  1  0
  4  2  1  0
  9  7  1  0
  7  2  1  0
  1 10  1  0
  1 11  1  0
  1 12  1  0
  3 13  1  0
  3 14  1  0
  4 15  1  0
  6 16  1  0
  6 17  1  0
  8 18  1  0
  8 19  1  0
M  END
