
     RDKit          3D

 19 21  0  0  0  0  0  0  0  0999 V2000
   -2.0551   -0.0982   -0.1357 C   0  0  0  0  0  0  0  0  0  0  0  0
   -0.6096   -0.2121    0.1149 C   0  0  0  0  0  0  0  0  0  0  0  0
    0.4195    0.2393   -0.8905 C   0  0  0  0  0  0  0  0  0  0  0  0
    1.4632   -0.8257   -0.7756 C   0  0  0  0  0  0  0  0  0  0  0  0
    1.0846   -1.7259    0.1761 O   0  0  0  0  0  0  0  0  0  0  0  0
    0.0508   -1.2246    0.9147 C   0  0  0  0  0  0  0  0  0  0  0  0
    0.0310    0.1899    1.4029 C   0  0  0  0  0  0  0  0  0  0  0  0
    1.1298    0.9894    1.1029 O   0  0  0  0  0  0  0  0  0  0  0  0
    0.9276    1.4897   -0.1841 C   0  0  0  0  0  0  0  0  0  0  0  0
   -2.5350   -1.0187   -0.5114 H   0  0  0  0  0  0  0  0  0  0  0  0
   -2.6417    0.2842    0.7493 H   0  0  0  0  0  0  0  0  0  0  0  0
   -2.2181    0.6927   -0.9224 H   0  0  0  0  0  0  0  0  0  0  0  0
    0.0374    0.4235   -1.8856 H   0  0  0  0  0  0  0  0  0  0  0  0
    2.4460   -0.3808   -0.4400 H   0  0  0  0  0  0  0  0  0  0  0  0
    1.6407   -1.3219   -1.7591 H   0  0  0  0  0  0  0  0  0  0  0  0
   -0.5041   -2.0025    1.5018 H   0  0  0  0  0  0  0  0  0  0  0  0
   -0.5951    0.4257    2.2638 H   0  0  0  0  0  0  0  0  0  0  0  0
    0.0842    2.1963   -0.1192 H   0  0  0  0  0  0  0  0  0  0  0  0
    1.8438    1.8798   -0.6027 H   0  0  0  0  0  0  0  0  0  0  0  0
  1  2  1  0
  2  3  1  0
  3  4  1  0
  4  5  1  0
  5  6  1  0
  6  7  1  0
  7  8  1  0
  8  9  1  0
  6  2  1  0
  7  2  1  0
  9  3  1  0
  1 10  1  0
  1 11  1  0
  1 12  1  0
  3 13  1  0
  4 14  1  0
  4 15  1  0
  6 16  1  0
  7 17  1  0
  9 18  1  0
  9 19  1  0
M  END
