
     RDKit          3D

 19 21  0  0  0  0  0  0  0  0999 V2000
   -1.1677   -1.3387    0.5354 C   0  0  0  0  0  0  0  0  0  0  0  0
   -0.1775   -0.6134   -0.3147 C   0  0  0  0  0  0  0  0  0  0  0  0
    1.0482   -1.3683   -0.6153 C   0  0  0  0  0  0  0  0  0  0  0  0
    1.1829   -0.1973    0.2489 C   0  0  0  0  0  0  0  0  0  0  0  0
    1.3698   -0.2066    1.5860 O   0  0  0  0  0  0  0  0  0  0  0  0
    1.0505    1.1165   -0.5213 C   0  0  0  0  0  0  0  0  0  0  0  0
   -0.3936    0.8259   -0.4735 C   0  0  0  0  0  0  0  0  0  0  0  0
   -1.5073    1.6039   -0.5087 C   0  0  0  0  0  0  0  0  0  0  0  0
   -0.9192    1.4275    0.7883 O   0  0  0  0  0  0  0  0  0  0  0  0
   -1.2900   -2.3651    0.0932 H   0  0  0  0  0  0  0  0  0  0  0  0
   -2.1778   -0.8583    0.3868 H   0  0  0  0  0  0  0  0  0  0  0  0
   -0.8745   -1.3654    1.5840 H   0  0  0  0  0  0  0  0  0  0  0  0
    1.4833   -1.3502   -1.6469 H   0  0  0  0  0  0  0  0  0  0  0  0
    1.2357   -2.3371   -0.1088 H   0  0  0  0  0  0  0  0  0  0  0  0
    2.2680    0.0792    1.8091 H   0  0  0  0  0  0  0  0  0  0  0  0
    1.4460    1.0749   -1.5508 H   0  0  0  0  0  0  0  0  0  0  0  0
    1.4404    1.9918   -0.0027 H   0  0  0  0  0  0  0  0  0  0  0  0
   -2.5317    1.1986   -0.5003 H   0  0  0  0  0  0  0  0  0  0  0  0
   -1.4854    2.6821   -0.7888 H   0  0  0  0  0  0  0  0  0  0  0  0
  1  2  1  0
  2  3  1  0
  3  4  1  0
  4  5  1  0
  4  6  1  0
  6  7  1  0
  7  8  1  0
  8  9  1  0
  4  2  1  0
  9  7  1  0
  7  2  1  0
  1 10  1  0
  1 11  1  0
  1 12  1  0
  3 13  1  0
  3 14  1  0
  5 15  1  0
  6 16  1  0
  6 17  1  0
  8 18  1  0
  8 19  1  0
M  END
