
     RDKit          3D

 21 23  0  0  0  0  0  0  0  0999 V2000
   -1.5620    1.4121    0.8338 C   0  0  0  0  0  0  0  0  0  0  0  0
   -0.7493    0.4037    0.1562 C   0  0  0  0  0  0  0  0  0  0  0  0
   -0.1030   -0.6190    1.1041 C   0  0  0  0  0  0  0  0  0  0  0  0
    0.5795   -1.3897   -0.0375 C   0  0  0  0  0  0  0  0  0  0  0  0
   -0.6660   -1.5729   -0.9182 C   0  0  0  0  0  0  0  0  0  0  0  0
   -1.4822   -0.4814   -0.6665 O   0  0  0  0  0  0  0  0  0  0  0  0
    1.3955   -0.3423   -0.6786 C   0  0  0  0  0  0  0  0  0  0  0  0
    1.7961    0.9227   -0.0812 C   0  0  0  0  0  0  0  0  0  0  0  0
    0.4257    0.8804   -0.6160 C   0  0  0  0  0  0  0  0  0  0  0  0
   -2.0795    1.0621    1.7295 H   0  0  0  0  0  0  0  0  0  0  0  0
   -0.9423    2.2767    1.1190 H   0  0  0  0  0  0  0  0  0  0  0  0
   -2.3397    1.8039    0.1273 H   0  0  0  0  0  0  0  0  0  0  0  0
   -0.8676   -1.2347    1.5979 H   0  0  0  0  0  0  0  0  0  0  0  0
    0.6133   -0.1797    1.7865 H   0  0  0  0  0  0  0  0  0  0  0  0
    1.0413   -2.2995    0.2641 H   0  0  0  0  0  0  0  0  0  0  0  0
   -1.1505   -2.5384   -0.7308 H   0  0  0  0  0  0  0  0  0  0  0  0
   -0.3423   -1.4989   -1.9851 H   0  0  0  0  0  0  0  0  0  0  0  0
    1.7155   -0.5807   -1.7232 H   0  0  0  0  0  0  0  0  0  0  0  0
    2.0124    1.0648    0.9947 H   0  0  0  0  0  0  0  0  0  0  0  0
    2.5143    1.5367   -0.7042 H   0  0  0  0  0  0  0  0  0  0  0  0
    0.1907    1.3740   -1.5722 H   0  0  0  0  0  0  0  0  0  0  0  0
  1  2  1  0
  2  3  1  0
  3  4  1  0
  4  5  1  0
  5  6  1  0
  4  7  1  0
  7  8  1  0
  8  9  1  0
  6  2  1  0
  9  7  1  0
  9  2  1  0
  1 10  1  0
  1 11  1  0
  1 12  1  0
  3 13  1  0
  3 14  1  0
  4 15  1  0
  5 16  1  0
  5 17  1  0
  7 18  1  0
  8 19  1  0
  8 20  1  0
  9 21  1  0
M  END
