
     RDKit          3D

 19 21  0  0  0  0  0  0  0  0999 V2000
    2.3009   -0.4246   -0.6468 C   0  0  0  0  0  0  0  0  0  0  0  0
    1.0026   -0.0670    0.0094 C   0  0  0  0  0  0  0  0  0  0  0  0
    1.2185    1.2267    0.7590 O   0  0  0  0  0  0  0  0  0  0  0  0
    0.6446    0.0510    1.3084 C   0  0  0  0  0  0  0  0  0  0  0  0
   -0.8668    0.0295    1.4149 C   0  0  0  0  0  0  0  0  0  0  0  0
   -1.3102    0.3649    0.0260 C   0  0  0  0  0  0  0  0  0  0  0  0
   -1.9495    1.5724   -0.1470 O   0  0  0  0  0  0  0  0  0  0  0  0
   -1.3297   -0.7161   -0.9627 C   0  0  0  0  0  0  0  0  0  0  0  0
   -0.1530    0.1275   -0.9030 C   0  0  0  0  0  0  0  0  0  0  0  0
    2.2139   -1.3841   -1.1723 H   0  0  0  0  0  0  0  0  0  0  0  0
    3.1459   -0.4486    0.0689 H   0  0  0  0  0  0  0  0  0  0  0  0
    2.4803    0.3550   -1.4442 H   0  0  0  0  0  0  0  0  0  0  0  0
    1.2082   -0.2785    2.2027 H   0  0  0  0  0  0  0  0  0  0  0  0
   -1.1549   -1.0112    1.6869 H   0  0  0  0  0  0  0  0  0  0  0  0
   -1.2537    0.6863    2.1947 H   0  0  0  0  0  0  0  0  0  0  0  0
   -2.9284    1.5154   -0.2220 H   0  0  0  0  0  0  0  0  0  0  0  0
   -1.9398   -0.6701   -1.8987 H   0  0  0  0  0  0  0  0  0  0  0  0
   -1.3655   -1.7585   -0.5294 H   0  0  0  0  0  0  0  0  0  0  0  0
    0.0366    0.8299   -1.7447 H   0  0  0  0  0  0  0  0  0  0  0  0
  1  2  1  0
  2  3  1  0
  3  4  1  0
  4  5  1  0
  5  6  1  0
  6  7  1  0
  6  8  1  0
  8  9  1  0
  4  2  1  0
  9  6  1  0
  9  2  1  0
  1 10  1  0
  1 11  1  0
  1 12  1  0
  4 13  1  0
  5 14  1  0
  5 15  1  0
  7 16  1  0
  8 17  1  0
  8 18  1  0
  9 19  1  0
M  END
