
     RDKit          3D

 17 18  0  0  0  0  0  0  0  0999 V2000
   -1.7451    0.7811    0.3173 C   0  0  0  0  0  0  0  0  0  0  0  0
   -0.4859   -0.0201    0.3113 C   0  0  0  0  0  0  0  0  0  0  0  0
   -0.7258   -1.4256   -0.1475 C   0  0  0  0  0  0  0  0  0  0  0  0
    0.3387   -1.3384   -1.0509 O   0  0  0  0  0  0  0  0  0  0  0  0
    0.3679    0.0570   -0.9090 C   0  0  0  0  0  0  0  0  0  0  0  0
    1.7152    0.4979   -0.4352 C   0  0  0  0  0  0  0  0  0  0  0  0
    1.6938    0.1733    1.0297 C   0  0  0  0  0  0  0  0  0  0  0  0
    2.6976   -0.0059    1.7713 O   0  0  0  0  0  0  0  0  0  0  0  0
    0.3531    0.1060    1.4222 O   0  0  0  0  0  0  0  0  0  0  0  0
   -2.0593    1.1340   -0.6858 H   0  0  0  0  0  0  0  0  0  0  0  0
   -1.6818    1.6177    1.0524 H   0  0  0  0  0  0  0  0  0  0  0  0
   -2.5663    0.1170    0.6991 H   0  0  0  0  0  0  0  0  0  0  0  0
   -1.6725   -1.5804   -0.7157 H   0  0  0  0  0  0  0  0  0  0  0  0
   -0.5949   -2.1468    0.6697 H   0  0  0  0  0  0  0  0  0  0  0  0
   -0.0438    0.5383   -1.7919 H   0  0  0  0  0  0  0  0  0  0  0  0
    2.5075   -0.0871   -0.9378 H   0  0  0  0  0  0  0  0  0  0  0  0
    1.9016    1.5818   -0.5994 H   0  0  0  0  0  0  0  0  0  0  0  0
  1  2  1  0
  2  3  1  0
  3  4  1  0
  4  5  1  0
  5  6  1  0
  6  7  1  0
  7  8  2  0
  7  9  1  0
  5  2  1  0
  9  2  1  0
  1 10  1  0
  1 11  1  0
  1 12  1  0
  3 13  1  0
  3 14  1  0
  5 15  1  0
  6 16  1  0
  6 17  1  0
M  END
