
     RDKit          3D

 15 16  0  0  0  0  0  0  0  0999 V2000
   -1.8261    0.5188   -0.0016 C   0  0  0  0  0  0  0  0  0  0  0  0
   -0.6215   -0.2232    0.5083 C   0  0  0  0  0  0  0  0  0  0  0  0
   -0.6340   -1.5519    0.7838 O   0  0  0  0  0  0  0  0  0  0  0  0
   -0.0523   -1.2375   -0.4100 C   0  0  0  0  0  0  0  0  0  0  0  0
    1.3518   -0.8761   -0.5462 C   0  0  0  0  0  0  0  0  0  0  0  0
    2.2268   -1.5822   -0.9970 O   0  0  0  0  0  0  0  0  0  0  0  0
    1.5563    0.5044   -0.0444 C   0  0  0  0  0  0  0  0  0  0  0  0
    0.5012    0.6166    0.9901 C   0  0  0  0  0  0  0  0  0  0  0  0
    0.5065    1.2414    2.0168 O   0  0  0  0  0  0  0  0  0  0  0  0
   -1.4318    1.4525   -0.4857 H   0  0  0  0  0  0  0  0  0  0  0  0
   -2.3752   -0.0179   -0.7863 H   0  0  0  0  0  0  0  0  0  0  0  0
   -2.4906    0.8789    0.8179 H   0  0  0  0  0  0  0  0  0  0  0  0
   -0.6168   -1.5812   -1.3076 H   0  0  0  0  0  0  0  0  0  0  0  0
    1.3341    1.1876   -0.8960 H   0  0  0  0  0  0  0  0  0  0  0  0
    2.5716    0.6700    0.3578 H   0  0  0  0  0  0  0  0  0  0  0  0
  1  2  1  0
  2  3  1  0
  3  4  1  0
  4  5  1  0
  5  6  2  0
  5  7  1  0
  7  8  1  0
  8  9  2  0
  4  2  1  0
  8  2  1  0
  1 10  1  0
  1 11  1  0
  1 12  1  0
  4 13  1  0
  7 14  1  0
  7 15  1  0
M  END
