
     RDKit          3D

 19 20  0  0  0  0  0  0  0  0999 V2000
    2.0177   -1.0783   -0.2681 C   0  0  0  0  0  0  0  0  0  0  0  0
    0.6961   -0.4588    0.1701 C   0  0  0  0  0  0  0  0  0  0  0  0
    0.4030   -0.5931    1.5769 O   0  0  0  0  0  0  0  0  0  0  0  0
   -0.3224   -1.3092    0.6254 C   0  0  0  0  0  0  0  0  0  0  0  0
   -1.6967   -0.9156    0.2997 C   0  0  0  0  0  0  0  0  0  0  0  0
   -1.9854    0.2881   -0.1806 C   0  0  0  0  0  0  0  0  0  0  0  0
   -0.9740    1.3361   -0.4326 C   0  0  0  0  0  0  0  0  0  0  0  0
    0.4293    0.8910   -0.3413 C   0  0  0  0  0  0  0  0  0  0  0  0
    1.1170    1.8139    0.4844 O   0  0  0  0  0  0  0  0  0  0  0  0
    2.3337   -0.6007   -1.1981 H   0  0  0  0  0  0  0  0  0  0  0  0
    1.8253   -2.1481   -0.5015 H   0  0  0  0  0  0  0  0  0  0  0  0
    2.7650   -1.0603    0.5355 H   0  0  0  0  0  0  0  0  0  0  0  0
   -0.1277   -2.4038    0.6920 H   0  0  0  0  0  0  0  0  0  0  0  0
   -2.5302   -1.5927    0.4388 H   0  0  0  0  0  0  0  0  0  0  0  0
   -3.0228    0.5510   -0.4139 H   0  0  0  0  0  0  0  0  0  0  0  0
   -1.2112    2.1788    0.2790 H   0  0  0  0  0  0  0  0  0  0  0  0
   -1.1647    1.7749   -1.4462 H   0  0  0  0  0  0  0  0  0  0  0  0
    0.9482    0.9945   -1.3409 H   0  0  0  0  0  0  0  0  0  0  0  0
    0.4998    2.3324    1.0215 H   0  0  0  0  0  0  0  0  0  0  0  0
  1  2  1  0
  2  3  1  0
  3  4  1  0
  4  5  1  0
  5  6  2  0
  6  7  1  0
  7  8  1  0
  8  9  1  0
  4  2  1  0
  8  2  1  0
  1 10  1  0
  1 11  1  0
  1 12  1  0
  4 13  1  0
  5 14  1  0
  6 15  1  0
  7 16  1  0
  7 17  1  0
  8 18  1  0
  9 19  1  0
M  END
