
     RDKit          3D

 19 21  0  0  0  0  0  0  0  0999 V2000
    2.5014    0.3605    0.3182 C   0  0  0  0  0  0  0  0  0  0  0  0
    1.1965    0.0326   -0.2819 C   0  0  0  0  0  0  0  0  0  0  0  0
    0.5980    1.0775   -1.1764 C   0  0  0  0  0  0  0  0  0  0  0  0
   -0.7245    0.9516   -1.1718 C   0  0  0  0  0  0  0  0  0  0  0  0
   -1.1091   -0.1958   -0.2665 C   0  0  0  0  0  0  0  0  0  0  0  0
   -2.5213   -0.3165    0.1347 C   0  0  0  0  0  0  0  0  0  0  0  0
   -0.2367   -1.3855   -0.3477 C   0  0  0  0  0  0  0  0  0  0  0  0
    1.0645   -1.2413   -0.8323 O   0  0  0  0  0  0  0  0  0  0  0  0
    0.0453   -0.2892    0.6107 C   0  0  0  0  0  0  0  0  0  0  0  0
    3.1465    0.8323   -0.4553 H   0  0  0  0  0  0  0  0  0  0  0  0
    3.0247   -0.5589    0.6356 H   0  0  0  0  0  0  0  0  0  0  0  0
    2.4367    1.0890    1.1482 H   0  0  0  0  0  0  0  0  0  0  0  0
    1.1615    1.8137   -1.7337 H   0  0  0  0  0  0  0  0  0  0  0  0
   -1.3984    1.5832   -1.7357 H   0  0  0  0  0  0  0  0  0  0  0  0
   -3.1067   -0.7873   -0.6972 H   0  0  0  0  0  0  0  0  0  0  0  0
   -2.9608    0.7153    0.2589 H   0  0  0  0  0  0  0  0  0  0  0  0
   -2.6773   -0.8948    1.0438 H   0  0  0  0  0  0  0  0  0  0  0  0
   -0.5327   -2.3461    0.0848 H   0  0  0  0  0  0  0  0  0  0  0  0
    0.0924   -0.4403    1.6611 H   0  0  0  0  0  0  0  0  0  0  0  0
  1  2  1  0
  2  3  1  0
  3  4  2  0
  4  5  1  0
  5  6  1  0
  5  7  1  0
  7  8  1  0
  7  9  1  0
  8  2  1  0
  9  2  1  0
  9  5  1  0
  1 10  1  0
  1 11  1  0
  1 12  1  0
  3 13  1  0
  4 14  1  0
  6 15  1  0
  6 16  1  0
  6 17  1  0
  7 18  1  0
  9 19  1  0
M  END
