
     RDKit          3D

 19 21  0  0  0  0  0  0  0  0999 V2000
    2.0246    0.4146   -0.5684 C   0  0  0  0  0  0  0  0  0  0  0  0
    0.7300    0.0568    0.0458 C   0  0  0  0  0  0  0  0  0  0  0  0
   -0.1059    1.0942    0.7607 C   0  0  0  0  0  0  0  0  0  0  0  0
   -1.2867    1.3105   -0.1180 C   0  0  0  0  0  0  0  0  0  0  0  0
   -1.8743    0.2360   -0.6198 C   0  0  0  0  0  0  0  0  0  0  0  0
   -1.3858   -1.1307   -0.3254 C   0  0  0  0  0  0  0  0  0  0  0  0
    0.0755   -1.2385   -0.0510 C   0  0  0  0  0  0  0  0  0  0  0  0
    0.5595   -0.7226    1.2624 C   0  0  0  0  0  0  0  0  0  0  0  0
   -0.2756    0.2511    1.8292 O   0  0  0  0  0  0  0  0  0  0  0  0
    2.7649    0.8623    0.1052 H   0  0  0  0  0  0  0  0  0  0  0  0
    1.8268    1.1946   -1.3611 H   0  0  0  0  0  0  0  0  0  0  0  0
    2.4431   -0.4547   -1.0822 H   0  0  0  0  0  0  0  0  0  0  0  0
    0.4749    2.0191    0.9513 H   0  0  0  0  0  0  0  0  0  0  0  0
   -1.6627    2.2951   -0.3478 H   0  0  0  0  0  0  0  0  0  0  0  0
   -2.7440    0.4079   -1.2675 H   0  0  0  0  0  0  0  0  0  0  0  0
   -1.9436   -1.4994    0.5661 H   0  0  0  0  0  0  0  0  0  0  0  0
   -1.6280   -1.8191   -1.1602 H   0  0  0  0  0  0  0  0  0  0  0  0
    0.6659   -2.0782   -0.4624 H   0  0  0  0  0  0  0  0  0  0  0  0
    1.3414   -1.1990    1.8431 H   0  0  0  0  0  0  0  0  0  0  0  0
  1  2  1  0
  2  3  1  0
  3  4  1  0
  4  5  2  0
  5  6  1  0
  6  7  1  0
  7  8  1  0
  8  9  1  0
  7  2  1  0
  8  2  1  0
  9  3  1  0
  1 10  1  0
  1 11  1  0
  1 12  1  0
  3 13  1  0
  4 14  1  0
  5 15  1  0
  6 16  1  0
  6 17  1  0
  7 18  1  0
  8 19  1  0
M  END
