
     RDKit          3D

 19 21  0  0  0  0  0  0  0  0999 V2000
   -1.2708   -1.4917   -0.0582 C   0  0  0  0  0  0  0  0  0  0  0  0
   -0.6386   -0.2095   -0.0980 C   0  0  0  0  0  0  0  0  0  0  0  0
   -0.1636    0.5365   -1.2897 C   0  0  0  0  0  0  0  0  0  0  0  0
   -0.4362    1.8243   -0.4995 C   0  0  0  0  0  0  0  0  0  0  0  0
   -0.5572    0.9175    0.7379 C   0  0  0  0  0  0  0  0  0  0  0  0
    0.5849   -0.0343    0.8575 C   0  0  0  0  0  0  0  0  0  0  0  0
    0.6284   -0.8685    1.9472 O   0  0  0  0  0  0  0  0  0  0  0  0
    1.6878   -0.0010   -0.1523 C   0  0  0  0  0  0  0  0  0  0  0  0
    1.1570    0.1996   -1.3934 O   0  0  0  0  0  0  0  0  0  0  0  0
   -0.8265   -2.1718   -0.8455 H   0  0  0  0  0  0  0  0  0  0  0  0
   -2.3693   -1.5382   -0.2359 H   0  0  0  0  0  0  0  0  0  0  0  0
   -1.0321   -2.0281    0.9078 H   0  0  0  0  0  0  0  0  0  0  0  0
   -0.7099    0.4467   -2.2229 H   0  0  0  0  0  0  0  0  0  0  0  0
    0.4364    2.4848   -0.3947 H   0  0  0  0  0  0  0  0  0  0  0  0
   -1.3967    2.3141   -0.7664 H   0  0  0  0  0  0  0  0  0  0  0  0
   -1.1581    1.2369    1.5761 H   0  0  0  0  0  0  0  0  0  0  0  0
    1.4401   -1.4009    2.0017 H   0  0  0  0  0  0  0  0  0  0  0  0
    2.4112    0.7812    0.0704 H   0  0  0  0  0  0  0  0  0  0  0  0
    2.2134   -0.9976   -0.1422 H   0  0  0  0  0  0  0  0  0  0  0  0
  1  2  1  0
  2  3  1  0
  3  4  1  0
  4  5  1  0
  5  6  1  0
  6  7  1  0
  6  8  1  0
  8  9  1  0
  5  2  1  0
  6  2  1  0
  9  3  1  0
  1 10  1  0
  1 11  1  0
  1 12  1  0
  3 13  1  0
  4 14  1  0
  4 15  1  0
  5 16  1  0
  7 17  1  0
  8 18  1  0
  8 19  1  0
M  END
