
     RDKit          3D

 21 23  0  0  0  0  0  0  0  0999 V2000
   -2.1216   -0.8153    0.1554 C   0  0  0  0  0  0  0  0  0  0  0  0
   -0.7214   -0.8206   -0.3473 C   0  0  0  0  0  0  0  0  0  0  0  0
   -0.3057   -0.2092   -1.6154 C   0  0  0  0  0  0  0  0  0  0  0  0
    0.0696    0.4587   -0.3363 C   0  0  0  0  0  0  0  0  0  0  0  0
   -0.5565    1.7597   -0.0062 C   0  0  0  0  0  0  0  0  0  0  0  0
    1.0251   -0.2093    0.6197 C   0  0  0  0  0  0  0  0  0  0  0  0
    2.4664    0.1436    0.6132 C   0  0  0  0  0  0  0  0  0  0  0  0
    0.5247   -0.8794    1.7342 O   0  0  0  0  0  0  0  0  0  0  0  0
    0.3901   -1.4297    0.4881 C   0  0  0  0  0  0  0  0  0  0  0  0
   -2.3632    0.0309    0.8166 H   0  0  0  0  0  0  0  0  0  0  0  0
   -2.2952   -1.7391    0.7520 H   0  0  0  0  0  0  0  0  0  0  0  0
   -2.8457   -0.8160   -0.7019 H   0  0  0  0  0  0  0  0  0  0  0  0
   -1.0825    0.2983   -2.2010 H   0  0  0  0  0  0  0  0  0  0  0  0
    0.5114   -0.6260   -2.2293 H   0  0  0  0  0  0  0  0  0  0  0  0
   -1.2785    1.7587    0.8084 H   0  0  0  0  0  0  0  0  0  0  0  0
    0.2584    2.4753    0.2853 H   0  0  0  0  0  0  0  0  0  0  0  0
   -0.9784    2.1895   -0.9535 H   0  0  0  0  0  0  0  0  0  0  0  0
    2.5505    1.2136    0.9659 H   0  0  0  0  0  0  0  0  0  0  0  0
    2.9870   -0.4934    1.3571 H   0  0  0  0  0  0  0  0  0  0  0  0
    2.9087    0.0761   -0.4002 H   0  0  0  0  0  0  0  0  0  0  0  0
    0.8568   -2.3664    0.1954 H   0  0  0  0  0  0  0  0  0  0  0  0
  1  2  1  0
  2  3  1  0
  3  4  1  0
  4  5  1  0
  4  6  1  0
  6  7  1  0
  6  8  1  0
  8  9  1  0
  4  2  1  0
  9  6  1  0
  9  2  1  0
  1 10  1  0
  1 11  1  0
  1 12  1  0
  3 13  1  0
  3 14  1  0
  5 15  1  0
  5 16  1  0
  5 17  1  0
  7 18  1  0
  7 19  1  0
  7 20  1  0
  9 21  1  0
M  END
