
     RDKit          3D

 19 20  0  0  0  0  0  0  0  0999 V2000
   -2.1321   -0.2535   -0.0916 C   0  0  0  0  0  0  0  0  0  0  0  0
   -0.7565    0.0991    0.0981 C   0  0  0  0  0  0  0  0  0  0  0  0
   -0.3403    1.1931    1.0371 C   0  0  0  0  0  0  0  0  0  0  0  0
    1.0711    1.0841    0.9133 O   0  0  0  0  0  0  0  0  0  0  0  0
    1.2309    0.0830    0.0006 C   0  0  0  0  0  0  0  0  0  0  0  0
    2.5116   -0.3487   -0.4431 C   0  0  0  0  0  0  0  0  0  0  0  0
    2.5996   -1.2479   -1.2606 O   0  0  0  0  0  0  0  0  0  0  0  0
    0.2488   -0.9936    0.4929 C   0  0  0  0  0  0  0  0  0  0  0  0
    0.1588    0.3423   -1.0715 C   0  0  0  0  0  0  0  0  0  0  0  0
   -2.7461    0.0096    0.7886 H   0  0  0  0  0  0  0  0  0  0  0  0
   -2.5720    0.2054   -0.9909 H   0  0  0  0  0  0  0  0  0  0  0  0
   -2.2282   -1.3717   -0.2022 H   0  0  0  0  0  0  0  0  0  0  0  0
   -0.6665    1.0472    2.0738 H   0  0  0  0  0  0  0  0  0  0  0  0
   -0.5968    2.1764    0.6329 H   0  0  0  0  0  0  0  0  0  0  0  0
    3.4217    0.0758   -0.0965 H   0  0  0  0  0  0  0  0  0  0  0  0
    0.1570   -1.8475   -0.1801 H   0  0  0  0  0  0  0  0  0  0  0  0
    0.3140   -1.1878    1.5658 H   0  0  0  0  0  0  0  0  0  0  0  0
    0.1245    1.3812   -1.4296 H   0  0  0  0  0  0  0  0  0  0  0  0
    0.2006   -0.4467   -1.8370 H   0  0  0  0  0  0  0  0  0  0  0  0
  1  2  1  0
  2  3  1  0
  3  4  1  0
  4  5  1  0
  5  6  1  0
  6  7  2  0
  5  8  1  0
  5  9  1  0
  8  2  1  0
  9  2  1  0
  1 10  1  0
  1 11  1  0
  1 12  1  0
  3 13  1  0
  3 14  1  0
  6 15  1  0
  8 16  1  0
  8 17  1  0
  9 18  1  0
  9 19  1  0
M  END
