
     RDKit          3D

 23 24  0  0  0  0  0  0  0  0999 V2000
    2.8109   -0.1969   -0.4294 C   0  0  0  0  0  0  0  0  0  0  0  0
    1.4952   -0.0463   -0.1407 C   0  0  0  0  0  0  0  0  0  0  0  0
    0.5115    0.9660   -0.6900 C   0  0  0  0  0  0  0  0  0  0  0  0
   -0.3090    0.1751    0.2493 C   0  0  0  0  0  0  0  0  0  0  0  0
   -1.6345    0.3032    0.5847 C   0  0  0  0  0  0  0  0  0  0  0  0
   -2.5582    0.1471   -0.5990 C   0  0  0  0  0  0  0  0  0  0  0  0
   -2.4106   -1.1149   -1.1933 O   0  0  0  0  0  0  0  0  0  0  0  0
    0.3686   -1.0480   -0.2994 C   0  0  0  0  0  0  0  0  0  0  0  0
    0.8586    0.2677    1.2056 C   0  0  0  0  0  0  0  0  0  0  0  0
    3.4923   -0.3595    0.4601 H   0  0  0  0  0  0  0  0  0  0  0  0
    3.2998    0.6754   -0.9594 H   0  0  0  0  0  0  0  0  0  0  0  0
    3.0683   -1.0709   -1.1011 H   0  0  0  0  0  0  0  0  0  0  0  0
    0.7013    2.0057   -0.3223 H   0  0  0  0  0  0  0  0  0  0  0  0
    0.2942    0.8941   -1.7622 H   0  0  0  0  0  0  0  0  0  0  0  0
   -1.8894    1.2520    1.0723 H   0  0  0  0  0  0  0  0  0  0  0  0
   -1.9568   -0.4956    1.3179 H   0  0  0  0  0  0  0  0  0  0  0  0
   -2.4205    0.9629   -1.3474 H   0  0  0  0  0  0  0  0  0  0  0  0
   -3.6156    0.2049   -0.2668 H   0  0  0  0  0  0  0  0  0  0  0  0
   -2.6346   -1.0992   -2.1569 H   0  0  0  0  0  0  0  0  0  0  0  0
    0.1249   -1.2732   -1.3558 H   0  0  0  0  0  0  0  0  0  0  0  0
    0.3966   -1.9169    0.3567 H   0  0  0  0  0  0  0  0  0  0  0  0
    0.9345   -0.5255    1.9578 H   0  0  0  0  0  0  0  0  0  0  0  0
    1.0728    1.2930    1.5116 H   0  0  0  0  0  0  0  0  0  0  0  0
  1  2  1  0
  2  3  1  0
  3  4  1  0
  4  5  1  0
  5  6  1  0
  6  7  1  0
  4  8  1  0
  4  9  1  0
  8  2  1  0
  9  2  1  0
  1 10  1  0
  1 11  1  0
  1 12  1  0
  3 13  1  0
  3 14  1  0
  5 15  1  0
  5 16  1  0
  6 17  1  0
  6 18  1  0
  7 19  1  0
  8 20  1  0
  8 21  1  0
  9 22  1  0
  9 23  1  0
M  END
