
     RDKit          3D

 19 20  0  0  0  0  0  0  0  0999 V2000
   -2.4931   -0.2509   -0.1938 C   0  0  0  0  0  0  0  0  0  0  0  0
   -1.0357   -0.0011    0.0635 C   0  0  0  0  0  0  0  0  0  0  0  0
   -0.4201    1.2980   -0.3371 C   0  0  0  0  0  0  0  0  0  0  0  0
    1.0541    1.0629   -0.2518 C   0  0  0  0  0  0  0  0  0  0  0  0
    1.1726   -0.4061   -0.6473 C   0  0  0  0  0  0  0  0  0  0  0  0
    2.4575   -0.9267   -0.1512 C   0  0  0  0  0  0  0  0  0  0  0  0
    2.6932   -1.0139    1.0232 O   0  0  0  0  0  0  0  0  0  0  0  0
   -0.0260   -1.0579   -0.0166 C   0  0  0  0  0  0  0  0  0  0  0  0
   -0.4687   -0.6483    1.2251 O   0  0  0  0  0  0  0  0  0  0  0  0
   -2.9949   -0.3118    0.8090 H   0  0  0  0  0  0  0  0  0  0  0  0
   -2.6353   -1.1695   -0.7787 H   0  0  0  0  0  0  0  0  0  0  0  0
   -2.9081    0.6599   -0.6976 H   0  0  0  0  0  0  0  0  0  0  0  0
   -0.6825    1.5079   -1.3808 H   0  0  0  0  0  0  0  0  0  0  0  0
   -0.7898    2.0837    0.3380 H   0  0  0  0  0  0  0  0  0  0  0  0
    1.4877    1.2623    0.7394 H   0  0  0  0  0  0  0  0  0  0  0  0
    1.6347    1.6423   -1.0071 H   0  0  0  0  0  0  0  0  0  0  0  0
    1.0854   -0.4367   -1.7417 H   0  0  0  0  0  0  0  0  0  0  0  0
    3.1909   -1.2314   -0.8664 H   0  0  0  0  0  0  0  0  0  0  0  0
   -0.3218   -2.0626   -0.3633 H   0  0  0  0  0  0  0  0  0  0  0  0
  1  2  1  0
  2  3  1  0
  3  4  1  0
  4  5  1  0
  5  6  1  0
  6  7  2  0
  5  8  1  0
  8  9  1  0
  8  2  1  0
  9  2  1  0
  1 10  1  0
  1 11  1  0
  1 12  1  0
  3 13  1  0
  3 14  1  0
  4 15  1  0
  4 16  1  0
  5 17  1  0
  6 18  1  0
  8 19  1  0
M  END
