
     RDKit          3D

 19 21  0  0  0  0  0  0  0  0999 V2000
   -0.7963    1.8477    0.1405 C   0  0  0  0  0  0  0  0  0  0  0  0
   -0.2674    0.5250    0.1236 C   0  0  0  0  0  0  0  0  0  0  0  0
    1.0143    0.0229    0.6640 C   0  0  0  0  0  0  0  0  0  0  0  0
    1.7977   -0.3144   -0.5828 C   0  0  0  0  0  0  0  0  0  0  0  0
    0.9299   -0.2313   -1.6333 O   0  0  0  0  0  0  0  0  0  0  0  0
   -0.3577   -0.2504   -1.2113 C   0  0  0  0  0  0  0  0  0  0  0  0
   -0.8222   -0.7834    0.0778 C   0  0  0  0  0  0  0  0  0  0  0  0
   -2.1198   -1.1574    0.2581 O   0  0  0  0  0  0  0  0  0  0  0  0
    0.2440   -1.2387    1.0855 C   0  0  0  0  0  0  0  0  0  0  0  0
   -0.4872    2.4539    1.0099 H   0  0  0  0  0  0  0  0  0  0  0  0
   -1.9082    1.8706    0.1005 H   0  0  0  0  0  0  0  0  0  0  0  0
   -0.4691    2.4350   -0.7663 H   0  0  0  0  0  0  0  0  0  0  0  0
    1.5216    0.5515    1.4551 H   0  0  0  0  0  0  0  0  0  0  0  0
    2.1749   -1.3646   -0.5321 H   0  0  0  0  0  0  0  0  0  0  0  0
    2.6508    0.3885   -0.6271 H   0  0  0  0  0  0  0  0  0  0  0  0
   -1.1128    0.1248   -1.9074 H   0  0  0  0  0  0  0  0  0  0  0  0
   -2.5314   -1.5312   -0.5797 H   0  0  0  0  0  0  0  0  0  0  0  0
   -0.1913   -1.1699    2.0954 H   0  0  0  0  0  0  0  0  0  0  0  0
    0.7304   -2.1783    0.8296 H   0  0  0  0  0  0  0  0  0  0  0  0
  1  2  1  0
  2  3  1  0
  3  4  1  0
  4  5  1  0
  5  6  1  0
  6  7  1  0
  7  8  1  0
  7  9  1  0
  6  2  1  0
  7  2  1  0
  9  3  1  0
  1 10  1  0
  1 11  1  0
  1 12  1  0
  3 13  1  0
  4 14  1  0
  4 15  1  0
  6 16  1  0
  8 17  1  0
  9 18  1  0
  9 19  1  0
M  END
