
     RDKit          3D

 19 21  0  0  0  0  0  0  0  0999 V2000
    1.4024   -0.2152   -1.5573 C   0  0  0  0  0  0  0  0  0  0  0  0
    0.5555   -0.1443   -0.3757 C   0  0  0  0  0  0  0  0  0  0  0  0
    0.1451    1.1090    0.3117 C   0  0  0  0  0  0  0  0  0  0  0  0
   -1.3559    0.9564    0.4325 C   0  0  0  0  0  0  0  0  0  0  0  0
   -1.6781   -0.4772    0.1013 C   0  0  0  0  0  0  0  0  0  0  0  0
   -0.3480   -1.1948    0.1097 C   0  0  0  0  0  0  0  0  0  0  0  0
    0.7832   -0.7582    0.9240 C   0  0  0  0  0  0  0  0  0  0  0  0
    0.7909    0.5817    1.5628 C   0  0  0  0  0  0  0  0  0  0  0  0
    1.1454    1.0580    2.6045 O   0  0  0  0  0  0  0  0  0  0  0  0
    1.2886   -1.2346   -2.0294 H   0  0  0  0  0  0  0  0  0  0  0  0
    0.9961    0.4838   -2.3466 H   0  0  0  0  0  0  0  0  0  0  0  0
    2.4590    0.0484   -1.4417 H   0  0  0  0  0  0  0  0  0  0  0  0
    0.5179    2.0581   -0.0513 H   0  0  0  0  0  0  0  0  0  0  0  0
   -1.6940    1.1490    1.4736 H   0  0  0  0  0  0  0  0  0  0  0  0
   -1.8239    1.6643   -0.2878 H   0  0  0  0  0  0  0  0  0  0  0  0
   -2.0139   -0.4766   -0.9775 H   0  0  0  0  0  0  0  0  0  0  0  0
   -2.4374   -0.9308    0.7285 H   0  0  0  0  0  0  0  0  0  0  0  0
   -0.2976   -2.1907   -0.3401 H   0  0  0  0  0  0  0  0  0  0  0  0
    1.5649   -1.4865    1.1588 H   0  0  0  0  0  0  0  0  0  0  0  0
  1  2  1  0
  2  3  1  0
  3  4  1  0
  4  5  1  0
  5  6  1  0
  6  7  1  0
  7  8  1  0
  8  9  2  0
  6  2  1  0
  7  2  1  0
  8  3  1  0
  1 10  1  0
  1 11  1  0
  1 12  1  0
  3 13  1  0
  4 14  1  0
  4 15  1  0
  5 16  1  0
  5 17  1  0
  6 18  1  0
  7 19  1  0
M  END
