
     RDKit          3D

 23 24  0  0  0  0  0  0  0  0999 V2000
   -1.7796   -1.0862   -0.7588 C   0  0  0  0  0  0  0  0  0  0  0  0
   -0.6211   -0.4843   -0.0383 C   0  0  0  0  0  0  0  0  0  0  0  0
   -1.0219    0.5486    0.9742 C   0  0  0  0  0  0  0  0  0  0  0  0
   -0.9104    1.5725   -0.1664 C   0  0  0  0  0  0  0  0  0  0  0  0
    0.1138    0.6033   -0.7770 C   0  0  0  0  0  0  0  0  0  0  0  0
    1.4654    0.8986   -0.2707 C   0  0  0  0  0  0  0  0  0  0  0  0
    2.0763   -0.0858    0.6468 C   0  0  0  0  0  0  0  0  0  0  0  0
    1.2113   -0.9020    1.3246 O   0  0  0  0  0  0  0  0  0  0  0  0
    0.3665   -1.5118    0.3978 C   0  0  0  0  0  0  0  0  0  0  0  0
   -1.5109   -1.7244   -1.5969 H   0  0  0  0  0  0  0  0  0  0  0  0
   -2.3208   -1.7438   -0.0204 H   0  0  0  0  0  0  0  0  0  0  0  0
   -2.5221   -0.3477   -1.1228 H   0  0  0  0  0  0  0  0  0  0  0  0
   -2.0650    0.5105    1.3344 H   0  0  0  0  0  0  0  0  0  0  0  0
   -0.2394    0.6813    1.7479 H   0  0  0  0  0  0  0  0  0  0  0  0
   -0.4564    2.5223    0.1139 H   0  0  0  0  0  0  0  0  0  0  0  0
   -1.8382    1.6702   -0.7283 H   0  0  0  0  0  0  0  0  0  0  0  0
   -0.0249    0.5629   -1.8794 H   0  0  0  0  0  0  0  0  0  0  0  0
    1.5124    1.9175    0.2174 H   0  0  0  0  0  0  0  0  0  0  0  0
    2.1532    1.0086   -1.1615 H   0  0  0  0  0  0  0  0  0  0  0  0
    2.7415    0.3978    1.4229 H   0  0  0  0  0  0  0  0  0  0  0  0
    2.7867   -0.7608    0.0835 H   0  0  0  0  0  0  0  0  0  0  0  0
   -0.0742   -2.4410    0.7763 H   0  0  0  0  0  0  0  0  0  0  0  0
    0.9578   -1.8063   -0.5192 H   0  0  0  0  0  0  0  0  0  0  0  0
  1  2  1  0
  2  3  1  0
  3  4  1  0
  4  5  1  0
  5  6  1  0
  6  7  1  0
  7  8  1  0
  8  9  1  0
  5  2  1  0
  9  2  1  0
  1 10  1  0
  1 11  1  0
  1 12  1  0
  3 13  1  0
  3 14  1  0
  4 15  1  0
  4 16  1  0
  5 17  1  0
  6 18  1  0
  6 19  1  0
  7 20  1  0
  7 21  1  0
  9 22  1  0
  9 23  1  0
M  END
