
     RDKit          3D

 21 23  0  0  0  0  0  0  0  0999 V2000
   -1.3444   -1.0286    1.0984 C   0  0  0  0  0  0  0  0  0  0  0  0
   -0.7193    0.0148    0.2556 C   0  0  0  0  0  0  0  0  0  0  0  0
   -0.7179    1.3989    0.7584 C   0  0  0  0  0  0  0  0  0  0  0  0
    0.2727    2.0773    0.1976 C   0  0  0  0  0  0  0  0  0  0  0  0
    1.0340    1.2012   -0.7419 C   0  0  0  0  0  0  0  0  0  0  0  0
    0.3420    0.1656   -1.5441 C   0  0  0  0  0  0  0  0  0  0  0  0
   -1.1078   -0.1014   -1.2285 C   0  0  0  0  0  0  0  0  0  0  0  0
    0.6871   -0.1694   -0.1846 C   0  0  0  0  0  0  0  0  0  0  0  0
    1.6491   -1.1031    0.3343 C   0  0  0  0  0  0  0  0  0  0  0  0
   -0.9561   -2.0322    0.9183 H   0  0  0  0  0  0  0  0  0  0  0  0
   -2.4416   -1.0704    0.8292 H   0  0  0  0  0  0  0  0  0  0  0  0
   -1.3205   -0.7663    2.1670 H   0  0  0  0  0  0  0  0  0  0  0  0
   -1.4169    1.7980    1.4738 H   0  0  0  0  0  0  0  0  0  0  0  0
    0.5028    3.1118    0.3863 H   0  0  0  0  0  0  0  0  0  0  0  0
    2.1192    1.3594   -0.8371 H   0  0  0  0  0  0  0  0  0  0  0  0
    0.7995   -0.2354   -2.4501 H   0  0  0  0  0  0  0  0  0  0  0  0
   -1.8256    0.6469   -1.5646 H   0  0  0  0  0  0  0  0  0  0  0  0
   -1.3963   -1.1386   -1.4586 H   0  0  0  0  0  0  0  0  0  0  0  0
    1.7254   -2.0594   -0.2055 H   0  0  0  0  0  0  0  0  0  0  0  0
    2.7046   -0.7069    0.3889 H   0  0  0  0  0  0  0  0  0  0  0  0
    1.4101   -1.3622    1.4073 H   0  0  0  0  0  0  0  0  0  0  0  0
  1  2  1  0
  2  3  1  0
  3  4  2  0
  4  5  1  0
  5  6  1  0
  6  7  1  0
  6  8  1  0
  8  9  1  0
  7  2  1  0
  8  2  1  0
  8  5  1  0
  1 10  1  0
  1 11  1  0
  1 12  1  0
  3 13  1  0
  4 14  1  0
  5 15  1  0
  6 16  1  0
  7 17  1  0
  7 18  1  0
  9 19  1  0
  9 20  1  0
  9 21  1  0
M  END
