
     RDKit          3D

 17 19  0  0  0  0  0  0  0  0999 V2000
    1.5351   -0.8437   -0.4368 C   0  0  0  0  0  0  0  0  0  0  0  0
    0.4530   -0.2981    0.2821 C   0  0  0  0  0  0  0  0  0  0  0  0
   -0.8657   -1.1451    0.2844 C   0  0  0  0  0  0  0  0  0  0  0  0
   -1.4275    0.0292   -0.5387 C   0  0  0  0  0  0  0  0  0  0  0  0
   -0.3885    0.8532    0.2406 C   0  0  0  0  0  0  0  0  0  0  0  0
   -0.0261    2.1313   -0.3037 C   0  0  0  0  0  0  0  0  0  0  0  0
    0.1615    2.4080   -1.4622 O   0  0  0  0  0  0  0  0  0  0  0  0
   -0.5535    0.7705    1.6256 O   0  0  0  0  0  0  0  0  0  0  0  0
   -0.2194   -0.6057    1.4976 C   0  0  0  0  0  0  0  0  0  0  0  0
    1.7630   -1.8954   -0.0833 H   0  0  0  0  0  0  0  0  0  0  0  0
    2.4819   -0.3093   -0.4030 H   0  0  0  0  0  0  0  0  0  0  0  0
    1.2918   -0.9907   -1.5309 H   0  0  0  0  0  0  0  0  0  0  0  0
   -0.7983   -2.1315   -0.1131 H   0  0  0  0  0  0  0  0  0  0  0  0
   -1.1779   -0.1210   -1.5754 H   0  0  0  0  0  0  0  0  0  0  0  0
   -2.4190    0.3534   -0.2467 H   0  0  0  0  0  0  0  0  0  0  0  0
    0.0989    2.9678    0.4105 H   0  0  0  0  0  0  0  0  0  0  0  0
    0.0907   -1.1729    2.3532 H   0  0  0  0  0  0  0  0  0  0  0  0
  1  2  1  0
  2  3  1  0
  3  4  1  0
  4  5  1  0
  5  6  1  0
  6  7  2  0
  5  8  1  0
  8  9  1  0
  5  2  1  0
  9  2  1  0
  9  3  1  0
  1 10  1  0
  1 11  1  0
  1 12  1  0
  3 13  1  0
  4 14  1  0
  4 15  1  0
  6 16  1  0
  9 17  1  0
M  END
