
     RDKit          3D

 21 23  0  0  0  0  0  0  0  0999 V2000
    2.2012    0.4598   -0.4356 C   0  0  0  0  0  0  0  0  0  0  0  0
    0.7842   -0.1163   -0.3786 C   0  0  0  0  0  0  0  0  0  0  0  0
    0.6384   -1.5623   -0.1726 C   0  0  0  0  0  0  0  0  0  0  0  0
    0.3119   -0.6873    0.9497 C   0  0  0  0  0  0  0  0  0  0  0  0
   -1.1084   -0.2621    1.1264 C   0  0  0  0  0  0  0  0  0  0  0  0
   -2.1752   -0.6543    0.2017 C   0  0  0  0  0  0  0  0  0  0  0  0
   -1.4761    0.6555    0.0436 C   0  0  0  0  0  0  0  0  0  0  0  0
   -0.3013    0.7584   -0.8978 C   0  0  0  0  0  0  0  0  0  0  0  0
    0.1549    2.0923   -0.8129 O   0  0  0  0  0  0  0  0  0  0  0  0
    2.1767    1.5207   -0.8116 H   0  0  0  0  0  0  0  0  0  0  0  0
    2.8066   -0.1856   -1.1046 H   0  0  0  0  0  0  0  0  0  0  0  0
    2.5835    0.4612    0.6154 H   0  0  0  0  0  0  0  0  0  0  0  0
    1.6005   -2.1413   -0.1092 H   0  0  0  0  0  0  0  0  0  0  0  0
   -0.1710   -2.1679   -0.6109 H   0  0  0  0  0  0  0  0  0  0  0  0
    1.0031   -0.4655    1.7871 H   0  0  0  0  0  0  0  0  0  0  0  0
   -1.4184   -0.0705    2.1916 H   0  0  0  0  0  0  0  0  0  0  0  0
   -3.2248   -0.6282    0.5761 H   0  0  0  0  0  0  0  0  0  0  0  0
   -2.0411   -1.3532   -0.6392 H   0  0  0  0  0  0  0  0  0  0  0  0
   -2.0879    1.5625    0.2525 H   0  0  0  0  0  0  0  0  0  0  0  0
   -0.5960    0.5612   -1.9404 H   0  0  0  0  0  0  0  0  0  0  0  0
    0.3390    2.2230    0.1693 H   0  0  0  0  0  0  0  0  0  0  0  0
  1  2  1  0
  2  3  1  0
  3  4  1  0
  4  5  1  0
  5  6  1  0
  6  7  1  0
  7  8  1  0
  8  9  1  0
  4  2  1  0
  7  5  1  0
  8  2  1  0
  1 10  1  0
  1 11  1  0
  1 12  1  0
  3 13  1  0
  3 14  1  0
  4 15  1  0
  5 16  1  0
  6 17  1  0
  6 18  1  0
  7 19  1  0
  8 20  1  0
  9 21  1  0
M  END
