
     RDKit          3D

 21 22  0  0  0  0  0  0  0  0999 V2000
   -0.9975    0.0319    1.5450 C   0  0  0  0  0  0  0  0  0  0  0  0
   -0.7457    0.0602    0.1142 C   0  0  0  0  0  0  0  0  0  0  0  0
   -1.0550   -1.2232   -0.6223 C   0  0  0  0  0  0  0  0  0  0  0  0
    0.3178   -1.1454   -1.2634 C   0  0  0  0  0  0  0  0  0  0  0  0
    0.5086    0.1728   -0.5415 C   0  0  0  0  0  0  0  0  0  0  0  0
    1.8192    0.2439    0.1266 C   0  0  0  0  0  0  0  0  0  0  0  0
    1.9973    1.2861    0.9994 O   0  0  0  0  0  0  0  0  0  0  0  0
    0.1204    1.2289   -1.3234 O   0  0  0  0  0  0  0  0  0  0  0  0
   -1.1085    1.2957   -0.6524 C   0  0  0  0  0  0  0  0  0  0  0  0
   -0.1800    0.3289    2.2182 H   0  0  0  0  0  0  0  0  0  0  0  0
   -1.8609    0.7017    1.8015 H   0  0  0  0  0  0  0  0  0  0  0  0
   -1.3250   -0.9887    1.8864 H   0  0  0  0  0  0  0  0  0  0  0  0
   -1.1717   -2.0491    0.0831 H   0  0  0  0  0  0  0  0  0  0  0  0
   -1.8996   -1.1030   -1.3225 H   0  0  0  0  0  0  0  0  0  0  0  0
    0.2746   -1.0785   -2.3596 H   0  0  0  0  0  0  0  0  0  0  0  0
    1.0347   -1.9280   -0.9010 H   0  0  0  0  0  0  0  0  0  0  0  0
    2.6092    0.3627   -0.6750 H   0  0  0  0  0  0  0  0  0  0  0  0
    2.0991   -0.6923    0.6522 H   0  0  0  0  0  0  0  0  0  0  0  0
    2.7658    1.1594    1.5750 H   0  0  0  0  0  0  0  0  0  0  0  0
   -1.2130    2.2046   -0.0371 H   0  0  0  0  0  0  0  0  0  0  0  0
   -1.9899    1.1315   -1.3036 H   0  0  0  0  0  0  0  0  0  0  0  0
  1  2  1  0
  2  3  1  0
  3  4  1  0
  4  5  1  0
  5  6  1  0
  6  7  1  0
  5  8  1  0
  8  9  1  0
  5  2  1  0
  9  2  1  0
  1 10  1  0
  1 11  1  0
  1 12  1  0
  3 13  1  0
  3 14  1  0
  4 15  1  0
  4 16  1  0
  6 17  1  0
  6 18  1  0
  7 19  1  0
  9 20  1  0
  9 21  1  0
M  END
