
     RDKit          3D

 19 20  0  0  0  0  0  0  0  0999 V2000
   -1.5470    1.5089    0.2419 C   0  0  0  0  0  0  0  0  0  0  0  0
   -0.8283    0.2116    0.3900 C   0  0  0  0  0  0  0  0  0  0  0  0
    0.5647    0.2359    0.8617 C   0  0  0  0  0  0  0  0  0  0  0  0
    1.3788   -0.3117   -0.2333 C   0  0  0  0  0  0  0  0  0  0  0  0
    2.8485   -0.3093   -0.2524 C   0  0  0  0  0  0  0  0  0  0  0  0
    3.4587    0.1799    0.7039 O   0  0  0  0  0  0  0  0  0  0  0  0
    0.5838   -0.7896   -1.1643 C   0  0  0  0  0  0  0  0  0  0  0  0
   -0.8246   -0.6530   -0.8734 C   0  0  0  0  0  0  0  0  0  0  0  0
   -1.5002   -1.0979    0.3624 C   0  0  0  0  0  0  0  0  0  0  0  0
   -1.4053    2.0904    1.1889 H   0  0  0  0  0  0  0  0  0  0  0  0
   -1.0408    2.1113   -0.5449 H   0  0  0  0  0  0  0  0  0  0  0  0
   -2.6121    1.4082    0.0058 H   0  0  0  0  0  0  0  0  0  0  0  0
    0.7227   -0.4868    1.7248 H   0  0  0  0  0  0  0  0  0  0  0  0
    0.9364    1.2443    1.1550 H   0  0  0  0  0  0  0  0  0  0  0  0
    3.3718   -0.7244   -1.0808 H   0  0  0  0  0  0  0  0  0  0  0  0
    0.9928   -1.2501   -2.0793 H   0  0  0  0  0  0  0  0  0  0  0  0
   -1.4720   -0.3246   -1.7188 H   0  0  0  0  0  0  0  0  0  0  0  0
   -2.5873   -1.1178    0.3569 H   0  0  0  0  0  0  0  0  0  0  0  0
   -1.0407   -1.9255    0.9558 H   0  0  0  0  0  0  0  0  0  0  0  0
  1  2  1  0
  2  3  1  0
  3  4  1  0
  4  5  1  0
  5  6  2  0
  4  7  2  0
  7  8  1  0
  8  9  1  0
  8  2  1  0
  9  2  1  0
  1 10  1  0
  1 11  1  0
  1 12  1  0
  3 13  1  0
  3 14  1  0
  5 15  1  0
  7 16  1  0
  8 17  1  0
  9 18  1  0
  9 19  1  0
M  END
