
     RDKit          3D

 20 21  0  0  0  0  0  0  0  0999 V2000
    2.1702    0.1761   -0.5743 C   0  0  0  0  0  0  0  0  0  0  0  0
    0.7715    0.1499    0.0310 C   0  0  0  0  0  0  0  0  0  0  0  0
    0.0299    1.4461   -0.1285 C   0  0  0  0  0  0  0  0  0  0  0  0
   -1.2633    1.4084    0.3324 O   0  0  0  0  0  0  0  0  0  0  0  0
   -2.0273    0.4179   -0.2396 C   0  0  0  0  0  0  0  0  0  0  0  0
   -1.4803   -0.9639   -0.0667 C   0  0  0  0  0  0  0  0  0  0  0  0
   -0.0079   -1.0648   -0.0407 C   0  0  0  0  0  0  0  0  0  0  0  0
    0.6576   -0.6157    1.2905 C   0  0  0  0  0  0  0  0  0  0  0  0
    2.5068   -0.8655   -0.7472 H   0  0  0  0  0  0  0  0  0  0  0  0
    2.8205    0.6636    0.1884 H   0  0  0  0  0  0  0  0  0  0  0  0
    2.1949    0.7628   -1.5222 H   0  0  0  0  0  0  0  0  0  0  0  0
    0.5850    2.2049    0.4822 H   0  0  0  0  0  0  0  0  0  0  0  0
    0.1074    1.7817   -1.1924 H   0  0  0  0  0  0  0  0  0  0  0  0
   -2.2763    0.5935   -1.3050 H   0  0  0  0  0  0  0  0  0  0  0  0
   -3.0235    0.4366    0.2944 H   0  0  0  0  0  0  0  0  0  0  0  0
   -1.8714   -1.5932   -0.9118 H   0  0  0  0  0  0  0  0  0  0  0  0
   -1.8771   -1.4576    0.8680 H   0  0  0  0  0  0  0  0  0  0  0  0
    0.4973   -1.9599   -0.5096 H   0  0  0  0  0  0  0  0  0  0  0  0
    1.4955   -1.2443    1.6573 H   0  0  0  0  0  0  0  0  0  0  0  0
   -0.0095   -0.2766    2.0935 H   0  0  0  0  0  0  0  0  0  0  0  0
  1  2  1  0
  2  3  1  0
  3  4  1  0
  4  5  1  0
  5  6  1  0
  6  7  1  0
  7  8  1  0
  7  2  1  0
  8  2  1  0
  1  9  1  0
  1 10  1  0
  1 11  1  0
  3 12  1  0
  3 13  1  0
  5 14  1  0
  5 15  1  0
  6 16  1  0
  6 17  1  0
  7 18  1  0
  8 19  1  0
  8 20  1  0
M  END
