
     RDKit          3D

 17 18  0  0  0  0  0  0  0  0999 V2000
    1.6098   -0.8851    0.4748 C   0  0  0  0  0  0  0  0  0  0  0  0
    0.9508    0.3899    0.1784 C   0  0  0  0  0  0  0  0  0  0  0  0
    0.5890    0.6732   -1.2532 C   0  0  0  0  0  0  0  0  0  0  0  0
   -0.4295    0.6244   -0.1708 C   0  0  0  0  0  0  0  0  0  0  0  0
   -1.5102   -0.3714   -0.2722 C   0  0  0  0  0  0  0  0  0  0  0  0
   -1.7829   -1.0721    0.8877 O   0  0  0  0  0  0  0  0  0  0  0  0
   -0.4343    1.7243    0.7821 C   0  0  0  0  0  0  0  0  0  0  0  0
   -1.2711    2.5658    1.1536 O   0  0  0  0  0  0  0  0  0  0  0  0
    0.8798    1.4485    1.1071 O   0  0  0  0  0  0  0  0  0  0  0  0
    2.7269   -0.7144    0.4324 H   0  0  0  0  0  0  0  0  0  0  0  0
    1.4297   -1.2738    1.5134 H   0  0  0  0  0  0  0  0  0  0  0  0
    1.3895   -1.6229   -0.2949 H   0  0  0  0  0  0  0  0  0  0  0  0
    0.5900   -0.1808   -1.9400 H   0  0  0  0  0  0  0  0  0  0  0  0
    0.9675    1.6272   -1.6351 H   0  0  0  0  0  0  0  0  0  0  0  0
   -2.4613    0.1718   -0.5460 H   0  0  0  0  0  0  0  0  0  0  0  0
   -1.3116   -1.0502   -1.1228 H   0  0  0  0  0  0  0  0  0  0  0  0
   -1.9322   -2.0545    0.7055 H   0  0  0  0  0  0  0  0  0  0  0  0
  1  2  1  0
  2  3  1  0
  3  4  1  0
  4  5  1  0
  5  6  1  0
  4  7  1  0
  7  8  2  0
  7  9  1  0
  4  2  1  0
  9  2  1  0
  1 10  1  0
  1 11  1  0
  1 12  1  0
  3 13  1  0
  3 14  1  0
  5 15  1  0
  5 16  1  0
  6 17  1  0
M  END
