
     RDKit          3D

 21 22  0  0  0  0  0  0  0  0999 V2000
    0.1837   -2.0447    0.0818 C   0  0  0  0  0  0  0  0  0  0  0  0
    0.0633   -0.5549    0.0680 C   0  0  0  0  0  0  0  0  0  0  0  0
    1.1046    0.1088    0.9135 C   0  0  0  0  0  0  0  0  0  0  0  0
    1.4969    1.3351    0.1110 C   0  0  0  0  0  0  0  0  0  0  0  0
    1.3120    0.9529   -1.1945 O   0  0  0  0  0  0  0  0  0  0  0  0
    0.2043    0.1274   -1.2542 C   0  0  0  0  0  0  0  0  0  0  0  0
   -1.0627    0.8941   -0.9562 C   0  0  0  0  0  0  0  0  0  0  0  0
   -1.3344   -0.0628    0.1893 C   0  0  0  0  0  0  0  0  0  0  0  0
   -1.6835    0.5705    1.3646 O   0  0  0  0  0  0  0  0  0  0  0  0
    0.9634   -2.4500   -0.5726 H   0  0  0  0  0  0  0  0  0  0  0  0
    0.4859   -2.3321    1.1310 H   0  0  0  0  0  0  0  0  0  0  0  0
   -0.8146   -2.5218   -0.0921 H   0  0  0  0  0  0  0  0  0  0  0  0
    1.9907   -0.5787    0.9566 H   0  0  0  0  0  0  0  0  0  0  0  0
    0.7782    0.3476    1.9342 H   0  0  0  0  0  0  0  0  0  0  0  0
    2.5810    1.5590    0.2960 H   0  0  0  0  0  0  0  0  0  0  0  0
    0.8610    2.1921    0.4263 H   0  0  0  0  0  0  0  0  0  0  0  0
    0.1804   -0.5343   -2.1268 H   0  0  0  0  0  0  0  0  0  0  0  0
   -1.7977    0.8775   -1.7747 H   0  0  0  0  0  0  0  0  0  0  0  0
   -0.8878    1.9407   -0.6180 H   0  0  0  0  0  0  0  0  0  0  0  0
   -2.0694   -0.8671   -0.0877 H   0  0  0  0  0  0  0  0  0  0  0  0
   -2.5552    1.0407    1.2045 H   0  0  0  0  0  0  0  0  0  0  0  0
  1  2  1  0
  2  3  1  0
  3  4  1  0
  4  5  1  0
  5  6  1  0
  6  7  1  0
  7  8  1  0
  8  9  1  0
  6  2  1  0
  8  2  1  0
  1 10  1  0
  1 11  1  0
  1 12  1  0
  3 13  1  0
  3 14  1  0
  4 15  1  0
  4 16  1  0
  6 17  1  0
  7 18  1  0
  7 19  1  0
  8 20  1  0
  9 21  1  0
M  END
