
     RDKit          3D

 23 25  0  0  0  0  0  0  0  0999 V2000
   -2.5894    0.4647   -0.2020 C   0  0  0  0  0  0  0  0  0  0  0  0
   -1.2981   -0.2761    0.0941 C   0  0  0  0  0  0  0  0  0  0  0  0
   -0.5650   -0.9602   -0.9948 C   0  0  0  0  0  0  0  0  0  0  0  0
    0.8315   -1.1892   -0.4095 C   0  0  0  0  0  0  0  0  0  0  0  0
    1.0907    0.1221    0.2532 C   0  0  0  0  0  0  0  0  0  0  0  0
    2.2767    0.4302    1.0362 C   0  0  0  0  0  0  0  0  0  0  0  0
    2.0715    1.0301   -0.3331 C   0  0  0  0  0  0  0  0  0  0  0  0
   -0.2452    0.5602    0.7638 C   0  0  0  0  0  0  0  0  0  0  0  0
   -1.0006   -0.5101    1.5207 C   0  0  0  0  0  0  0  0  0  0  0  0
   -2.4956    1.1332   -1.0883 H   0  0  0  0  0  0  0  0  0  0  0  0
   -2.7426    1.1714    0.6662 H   0  0  0  0  0  0  0  0  0  0  0  0
   -3.4684   -0.1795   -0.2215 H   0  0  0  0  0  0  0  0  0  0  0  0
   -0.4410   -0.2358   -1.8389 H   0  0  0  0  0  0  0  0  0  0  0  0
   -1.0086   -1.8711   -1.3865 H   0  0  0  0  0  0  0  0  0  0  0  0
    1.5099   -1.3464   -1.2825 H   0  0  0  0  0  0  0  0  0  0  0  0
    0.8459   -2.0236    0.3060 H   0  0  0  0  0  0  0  0  0  0  0  0
    2.1680    1.1929    1.8573 H   0  0  0  0  0  0  0  0  0  0  0  0
    3.1114   -0.2587    1.2253 H   0  0  0  0  0  0  0  0  0  0  0  0
    2.7619    0.6035   -1.1064 H   0  0  0  0  0  0  0  0  0  0  0  0
    1.7836    2.0886   -0.4336 H   0  0  0  0  0  0  0  0  0  0  0  0
   -0.4459    1.6190    0.9412 H   0  0  0  0  0  0  0  0  0  0  0  0
   -0.4666   -1.4382    1.8246 H   0  0  0  0  0  0  0  0  0  0  0  0
   -1.6842   -0.1272    2.2781 H   0  0  0  0  0  0  0  0  0  0  0  0
  1  2  1  0
  2  3  1  0
  3  4  1  0
  4  5  1  0
  5  6  1  0
  6  7  1  0
  5  8  1  0
  8  9  1  0
  8  2  1  0
  9  2  1  0
  7  5  1  0
  1 10  1  0
  1 11  1  0
  1 12  1  0
  3 13  1  0
  3 14  1  0
  4 15  1  0
  4 16  1  0
  6 17  1  0
  6 18  1  0
  7 19  1  0
  7 20  1  0
  8 21  1  0
  9 22  1  0
  9 23  1  0
M  END
