
     RDKit          3D

 16 17  0  0  0  0  0  0  0  0999 V2000
   -1.6948   -0.2756   -0.3501 C   0  0  0  0  0  0  0  0  0  0  0  0
   -0.3799   -0.0502   -0.0700 C   0  0  0  0  0  0  0  0  0  0  0  0
    0.4218   -0.5779    1.0946 C   0  0  0  0  0  0  0  0  0  0  0  0
    1.4137    0.2302    0.3211 C   0  0  0  0  0  0  0  0  0  0  0  0
    0.3143    1.2572    0.1795 C   0  0  0  0  0  0  0  0  0  0  0  0
    0.8211   -0.4030   -0.9120 C   0  0  0  0  0  0  0  0  0  0  0  0
   -2.2375    0.6233   -0.7660 H   0  0  0  0  0  0  0  0  0  0  0  0
   -1.8779   -1.0922   -1.1072 H   0  0  0  0  0  0  0  0  0  0  0  0
   -2.3221   -0.5739    0.5373 H   0  0  0  0  0  0  0  0  0  0  0  0
    0.1445   -0.2151    2.0821 H   0  0  0  0  0  0  0  0  0  0  0  0
    0.6243   -1.6632    0.9991 H   0  0  0  0  0  0  0  0  0  0  0  0
    2.3756    0.3998    0.5160 H   0  0  0  0  0  0  0  0  0  0  0  0
    0.0476    1.8019    1.0859 H   0  0  0  0  0  0  0  0  0  0  0  0
    0.4424    1.8259   -0.7513 H   0  0  0  0  0  0  0  0  0  0  0  0
    0.9249    0.1988   -1.8283 H   0  0  0  0  0  0  0  0  0  0  0  0
    0.9820   -1.4859   -1.0307 H   0  0  0  0  0  0  0  0  0  0  0  0
  1  2  1  0
  2  3  1  0
  3  4  1  0
  4  5  1  0
  4  6  1  0
  5  2  1  0
  6  2  1  0
  1  7  1  0
  1  8  1  0
  1  9  1  0
  3 10  1  0
  3 11  1  0
  4 12  1  0
  5 13  1  0
  5 14  1  0
  6 15  1  0
  6 16  1  0
M  END
