
     RDKit          3D

 21 23  0  0  0  0  0  0  0  0999 V2000
   -1.3483   -1.4609   -0.2543 C   0  0  0  0  0  0  0  0  0  0  0  0
   -0.5480   -0.3193    0.1037 C   0  0  0  0  0  0  0  0  0  0  0  0
   -1.2058    0.6406    1.1339 C   0  0  0  0  0  0  0  0  0  0  0  0
   -0.1166    1.5553    1.1593 O   0  0  0  0  0  0  0  0  0  0  0  0
    0.5281    1.5302   -0.0453 C   0  0  0  0  0  0  0  0  0  0  0  0
   -0.5361    0.8279   -0.9394 C   0  0  0  0  0  0  0  0  0  0  0  0
    1.6214    0.5474   -0.2523 C   0  0  0  0  0  0  0  0  0  0  0  0
    2.0375   -0.7967   -0.0064 C   0  0  0  0  0  0  0  0  0  0  0  0
    0.8333   -0.4901    0.5739 C   0  0  0  0  0  0  0  0  0  0  0  0
   -2.3675   -1.3976    0.2283 H   0  0  0  0  0  0  0  0  0  0  0  0
   -1.5832   -1.4416   -1.3601 H   0  0  0  0  0  0  0  0  0  0  0  0
   -0.9215   -2.4629   -0.0185 H   0  0  0  0  0  0  0  0  0  0  0  0
   -1.2883    0.0757    2.0597 H   0  0  0  0  0  0  0  0  0  0  0  0
   -2.1108    1.0843    0.7417 H   0  0  0  0  0  0  0  0  0  0  0  0
    0.8162    2.4999   -0.4377 H   0  0  0  0  0  0  0  0  0  0  0  0
   -1.4579    1.3718   -1.0012 H   0  0  0  0  0  0  0  0  0  0  0  0
   -0.0828    0.5032   -1.8731 H   0  0  0  0  0  0  0  0  0  0  0  0
    1.7557    0.5817   -1.3620 H   0  0  0  0  0  0  0  0  0  0  0  0
    3.0068   -0.9020    0.5646 H   0  0  0  0  0  0  0  0  0  0  0  0
    2.0051   -1.6964   -0.7010 H   0  0  0  0  0  0  0  0  0  0  0  0
    0.9627   -0.2506    1.6862 H   0  0  0  0  0  0  0  0  0  0  0  0
  1  2  1  0
  2  3  1  0
  3  4  1  0
  4  5  1  0
  5  6  1  0
  5  7  1  0
  7  8  1  0
  8  9  1  0
  6  2  1  0
  9  7  1  0
  9  2  1  0
  1 10  1  0
  1 11  1  0
  1 12  1  0
  3 13  1  0
  3 14  1  0
  5 15  1  0
  6 16  1  0
  6 17  1  0
  7 18  1  0
  8 19  1  0
  8 20  1  0
  9 21  1  0
M  END
