
     RDKit          3D

 17 18  0  0  0  0  0  0  0  0999 V2000
   -2.0742   -0.3420    0.2022 C   0  0  0  0  0  0  0  0  0  0  0  0
   -0.6148   -0.0837    0.2372 C   0  0  0  0  0  0  0  0  0  0  0  0
    0.1092   -0.5393   -1.0085 C   0  0  0  0  0  0  0  0  0  0  0  0
    1.1735   -0.7852    0.0165 C   0  0  0  0  0  0  0  0  0  0  0  0
    1.9632    0.4821    0.1550 C   0  0  0  0  0  0  0  0  0  0  0  0
    1.1320    1.5668    0.6053 O   0  0  0  0  0  0  0  0  0  0  0  0
   -0.2229    1.2751    0.6428 C   0  0  0  0  0  0  0  0  0  0  0  0
   -1.1085    2.0817    0.9932 O   0  0  0  0  0  0  0  0  0  0  0  0
    0.1804   -0.9649    0.9489 O   0  0  0  0  0  0  0  0  0  0  0  0
   -2.3720   -1.1766   -0.4470 H   0  0  0  0  0  0  0  0  0  0  0  0
   -2.5313   -0.4840    1.2104 H   0  0  0  0  0  0  0  0  0  0  0  0
   -2.5670    0.5719   -0.2125 H   0  0  0  0  0  0  0  0  0  0  0  0
    0.2580    0.3143   -1.6866 H   0  0  0  0  0  0  0  0  0  0  0  0
   -0.3096   -1.4497   -1.4293 H   0  0  0  0  0  0  0  0  0  0  0  0
    1.8361   -1.6437   -0.1554 H   0  0  0  0  0  0  0  0  0  0  0  0
    2.2983    0.7879   -0.8608 H   0  0  0  0  0  0  0  0  0  0  0  0
    2.8496    0.3893    0.7885 H   0  0  0  0  0  0  0  0  0  0  0  0
  1  2  1  0
  2  3  1  0
  3  4  1  0
  4  5  1  0
  5  6  1  0
  6  7  1  0
  7  8  2  0
  4  9  1  0
  7  2  1  0
  9  2  1  0
  1 10  1  0
  1 11  1  0
  1 12  1  0
  3 13  1  0
  3 14  1  0
  4 15  1  0
  5 16  1  0
  5 17  1  0
M  END
