
     RDKit          3D

 16 17  0  0  0  0  0  0  0  0999 V2000
    1.8425   -0.4378    0.2364 C   0  0  0  0  0  0  0  0  0  0  0  0
    0.4273   -0.0944    0.0831 C   0  0  0  0  0  0  0  0  0  0  0  0
   -0.3284   -0.8440   -0.9209 C   0  0  0  0  0  0  0  0  0  0  0  0
   -1.6140   -0.7845   -0.5225 C   0  0  0  0  0  0  0  0  0  0  0  0
   -1.5662    0.1206    0.6827 C   0  0  0  0  0  0  0  0  0  0  0  0
   -1.2325    1.4080    0.3075 O   0  0  0  0  0  0  0  0  0  0  0  0
    0.1244    1.3699   -0.0863 C   0  0  0  0  0  0  0  0  0  0  0  0
   -0.3481   -0.3450    1.2427 O   0  0  0  0  0  0  0  0  0  0  0  0
    2.3885   -0.1982   -0.6730 H   0  0  0  0  0  0  0  0  0  0  0  0
    2.2647    0.1698    1.0775 H   0  0  0  0  0  0  0  0  0  0  0  0
    1.9422   -1.5015    0.4932 H   0  0  0  0  0  0  0  0  0  0  0  0
    0.0804   -1.3359   -1.7939 H   0  0  0  0  0  0  0  0  0  0  0  0
   -2.4414   -1.2757   -0.9780 H   0  0  0  0  0  0  0  0  0  0  0  0
   -2.4059    0.0280    1.3384 H   0  0  0  0  0  0  0  0  0  0  0  0
    0.6829    2.0028    0.6358 H   0  0  0  0  0  0  0  0  0  0  0  0
    0.1836    1.7179   -1.1226 H   0  0  0  0  0  0  0  0  0  0  0  0
  1  2  1  0
  2  3  1  0
  3  4  2  0
  4  5  1  0
  5  6  1  0
  6  7  1  0
  5  8  1  0
  7  2  1  0
  8  2  1  0
  1  9  1  0
  1 10  1  0
  1 11  1  0
  3 12  1  0
  4 13  1  0
  5 14  1  0
  7 15  1  0
  7 16  1  0
M  END
