
     RDKit          3D

 19 21  0  0  0  0  0  0  0  0999 V2000
   -2.2637   -0.4074    0.2446 C   0  0  0  0  0  0  0  0  0  0  0  0
   -0.9235    0.1413   -0.2175 C   0  0  0  0  0  0  0  0  0  0  0  0
   -0.9930    1.2095   -1.0891 O   0  0  0  0  0  0  0  0  0  0  0  0
   -0.4939    1.3890    0.1932 C   0  0  0  0  0  0  0  0  0  0  0  0
    0.9545    1.7087    0.2358 C   0  0  0  0  0  0  0  0  0  0  0  0
    1.8180    0.8082   -0.1479 C   0  0  0  0  0  0  0  0  0  0  0  0
    1.4593   -0.5263   -0.6291 C   0  0  0  0  0  0  0  0  0  0  0  0
    0.9667   -1.4691    0.4618 C   0  0  0  0  0  0  0  0  0  0  0  0
    0.0667   -0.9231   -0.5823 C   0  0  0  0  0  0  0  0  0  0  0  0
   -2.9686    0.4326    0.4170 H   0  0  0  0  0  0  0  0  0  0  0  0
   -2.0852   -0.9429    1.1959 H   0  0  0  0  0  0  0  0  0  0  0  0
   -2.7142   -1.0579   -0.5360 H   0  0  0  0  0  0  0  0  0  0  0  0
   -1.1014    2.0026    0.9188 H   0  0  0  0  0  0  0  0  0  0  0  0
    1.2921    2.7000    0.5893 H   0  0  0  0  0  0  0  0  0  0  0  0
    2.8821    1.0587   -0.1108 H   0  0  0  0  0  0  0  0  0  0  0  0
    2.0874   -0.9357   -1.4451 H   0  0  0  0  0  0  0  0  0  0  0  0
    0.9217   -1.0970    1.5054 H   0  0  0  0  0  0  0  0  0  0  0  0
    1.4077   -2.4789    0.3828 H   0  0  0  0  0  0  0  0  0  0  0  0
   -0.3126   -1.6125   -1.3867 H   0  0  0  0  0  0  0  0  0  0  0  0
  1  2  1  0
  2  3  1  0
  3  4  1  0
  4  5  1  0
  5  6  2  0
  6  7  1  0
  7  8  1  0
  8  9  1  0
  4  2  1  0
  9  7  1  0
  9  2  1  0
  1 10  1  0
  1 11  1  0
  1 12  1  0
  4 13  1  0
  5 14  1  0
  6 15  1  0
  7 16  1  0
  8 17  1  0
  8 18  1  0
  9 19  1  0
M  END
