
     RDKit          3D

 19 21  0  0  0  0  0  0  0  0999 V2000
    2.2485    0.2085   -0.0860 C   0  0  0  0  0  0  0  0  0  0  0  0
    0.7942   -0.0802   -0.2927 C   0  0  0  0  0  0  0  0  0  0  0  0
    0.4497   -0.6173   -1.5131 O   0  0  0  0  0  0  0  0  0  0  0  0
    0.2659   -1.4470   -0.4173 C   0  0  0  0  0  0  0  0  0  0  0  0
   -1.1521   -1.4750    0.0985 C   0  0  0  0  0  0  0  0  0  0  0  0
   -1.4719   -0.0782    0.5397 C   0  0  0  0  0  0  0  0  0  0  0  0
   -1.9421    0.7685   -0.4526 O   0  0  0  0  0  0  0  0  0  0  0  0
   -0.9756    1.7461   -0.1664 C   0  0  0  0  0  0  0  0  0  0  0  0
   -0.1825    0.6864    0.5319 C   0  0  0  0  0  0  0  0  0  0  0  0
    2.4318    1.0698    0.6069 H   0  0  0  0  0  0  0  0  0  0  0  0
    2.7178   -0.6714    0.4104 H   0  0  0  0  0  0  0  0  0  0  0  0
    2.7272    0.4712   -1.0447 H   0  0  0  0  0  0  0  0  0  0  0  0
    0.9480   -2.2837   -0.2191 H   0  0  0  0  0  0  0  0  0  0  0  0
   -1.8682   -1.7300   -0.7272 H   0  0  0  0  0  0  0  0  0  0  0  0
   -1.2947   -2.2393    0.8792 H   0  0  0  0  0  0  0  0  0  0  0  0
   -2.0506    0.0232    1.4726 H   0  0  0  0  0  0  0  0  0  0  0  0
   -0.5304    2.1998   -1.0617 H   0  0  0  0  0  0  0  0  0  0  0  0
   -1.3240    2.5228    0.5608 H   0  0  0  0  0  0  0  0  0  0  0  0
    0.2089    0.9260    1.5218 H   0  0  0  0  0  0  0  0  0  0  0  0
  1  2  1  0
  2  3  1  0
  3  4  1  0
  4  5  1  0
  5  6  1  0
  6  7  1  0
  7  8  1  0
  8  9  1  0
  4  2  1  0
  9  6  1  0
  9  2  1  0
  1 10  1  0
  1 11  1  0
  1 12  1  0
  4 13  1  0
  5 14  1  0
  5 15  1  0
  6 16  1  0
  8 17  1  0
  8 18  1  0
  9 19  1  0
M  END
