
     RDKit          3D

 21 23  0  0  0  0  0  0  0  0999 V2000
    3.0371    0.0209   -0.1273 C   0  0  0  0  0  0  0  0  0  0  0  0
    1.7584   -0.1416    0.6195 C   0  0  0  0  0  0  0  0  0  0  0  0
    0.7368   -1.1532    0.2269 C   0  0  0  0  0  0  0  0  0  0  0  0
   -0.1887    0.0081   -0.1263 C   0  0  0  0  0  0  0  0  0  0  0  0
   -1.5282   -0.2050    0.4870 C   0  0  0  0  0  0  0  0  0  0  0  0
   -2.5740    0.8839    0.2197 C   0  0  0  0  0  0  0  0  0  0  0  0
   -2.6601   -0.4262   -0.4696 C   0  0  0  0  0  0  0  0  0  0  0  0
    0.7243    0.9875    0.5488 C   0  0  0  0  0  0  0  0  0  0  0  0
    1.4234    0.6684    1.6767 O   0  0  0  0  0  0  0  0  0  0  0  0
    3.2673   -0.9720   -0.6082 H   0  0  0  0  0  0  0  0  0  0  0  0
    2.9700    0.7358   -0.9775 H   0  0  0  0  0  0  0  0  0  0  0  0
    3.8587    0.3179    0.5372 H   0  0  0  0  0  0  0  0  0  0  0  0
    0.9940   -1.7644   -0.6450 H   0  0  0  0  0  0  0  0  0  0  0  0
    0.4072   -1.7349    1.1131 H   0  0  0  0  0  0  0  0  0  0  0  0
   -0.2396    0.2146   -1.2036 H   0  0  0  0  0  0  0  0  0  0  0  0
   -1.6221   -0.7741    1.4327 H   0  0  0  0  0  0  0  0  0  0  0  0
   -2.2374    1.7533   -0.4024 H   0  0  0  0  0  0  0  0  0  0  0  0
   -3.1807    1.1498    1.0831 H   0  0  0  0  0  0  0  0  0  0  0  0
   -2.4479   -0.4359   -1.5704 H   0  0  0  0  0  0  0  0  0  0  0  0
   -3.5205   -1.0598   -0.2035 H   0  0  0  0  0  0  0  0  0  0  0  0
    1.0219    1.9269    0.0399 H   0  0  0  0  0  0  0  0  0  0  0  0
  1  2  1  0
  2  3  1  0
  3  4  1  0
  4  5  1  0
  5  6  1  0
  6  7  1  0
  4  8  1  0
  8  9  1  0
  8  2  1  0
  9  2  1  0
  7  5  1  0
  1 10  1  0
  1 11  1  0
  1 12  1  0
  3 13  1  0
  3 14  1  0
  4 15  1  0
  5 16  1  0
  6 17  1  0
  6 18  1  0
  7 19  1  0
  7 20  1  0
  8 21  1  0
M  END
