
     RDKit          3D

 19 20  0  0  0  0  0  0  0  0999 V2000
    2.0412    0.1252   -0.3586 C   0  0  0  0  0  0  0  0  0  0  0  0
    0.6281    0.1708   -0.0963 C   0  0  0  0  0  0  0  0  0  0  0  0
   -0.0468    1.4668    0.2953 C   0  0  0  0  0  0  0  0  0  0  0  0
   -1.4497    0.9753    0.3113 C   0  0  0  0  0  0  0  0  0  0  0  0
   -2.4573    1.5949    0.4022 O   0  0  0  0  0  0  0  0  0  0  0  0
   -1.2650   -0.4713    0.1857 C   0  0  0  0  0  0  0  0  0  0  0  0
   -2.2557   -1.3323    0.2637 O   0  0  0  0  0  0  0  0  0  0  0  0
   -0.3459   -0.5052   -1.0500 C   0  0  0  0  0  0  0  0  0  0  0  0
    0.0317   -0.7523    0.9668 C   0  0  0  0  0  0  0  0  0  0  0  0
    2.2535    0.2131   -1.4489 H   0  0  0  0  0  0  0  0  0  0  0  0
    2.5485    1.0085    0.1069 H   0  0  0  0  0  0  0  0  0  0  0  0
    2.4874   -0.8367   -0.0408 H   0  0  0  0  0  0  0  0  0  0  0  0
    0.1276    2.2837   -0.4026 H   0  0  0  0  0  0  0  0  0  0  0  0
    0.2290    1.6811    1.3450 H   0  0  0  0  0  0  0  0  0  0  0  0
   -2.0474   -2.1761   -0.2134 H   0  0  0  0  0  0  0  0  0  0  0  0
   -0.1289   -1.5383   -1.2894 H   0  0  0  0  0  0  0  0  0  0  0  0
   -0.6270    0.1875   -1.8421 H   0  0  0  0  0  0  0  0  0  0  0  0
    0.3257   -1.7964    0.8984 H   0  0  0  0  0  0  0  0  0  0  0  0
   -0.0492   -0.2982    1.9667 H   0  0  0  0  0  0  0  0  0  0  0  0
  1  2  1  0
  2  3  1  0
  3  4  1  0
  4  5  2  0
  4  6  1  0
  6  7  1  0
  6  8  1  0
  6  9  1  0
  8  2  1  0
  9  2  1  0
  1 10  1  0
  1 11  1  0
  1 12  1  0
  3 13  1  0
  3 14  1  0
  7 15  1  0
  8 16  1  0
  8 17  1  0
  9 18  1  0
  9 19  1  0
M  END
