
     RDKit          3D

 17 19  0  0  0  0  0  0  0  0999 V2000
   -2.2634   -0.3425   -0.3251 C   0  0  0  0  0  0  0  0  0  0  0  0
   -1.0962    0.5563   -0.2821 C   0  0  0  0  0  0  0  0  0  0  0  0
   -1.1981    1.9120    0.0273 O   0  0  0  0  0  0  0  0  0  0  0  0
   -0.5963    1.1569    0.9873 C   0  0  0  0  0  0  0  0  0  0  0  0
    0.6471    0.4283    0.7861 C   0  0  0  0  0  0  0  0  0  0  0  0
    1.8282   -0.1629    0.8482 C   0  0  0  0  0  0  0  0  0  0  0  0
    2.1090   -0.8482   -0.4772 C   0  0  0  0  0  0  0  0  0  0  0  0
    0.7279   -1.0693   -0.8344 O   0  0  0  0  0  0  0  0  0  0  0  0
    0.2763    0.1955   -0.6825 C   0  0  0  0  0  0  0  0  0  0  0  0
   -1.9212   -1.3898   -0.2753 H   0  0  0  0  0  0  0  0  0  0  0  0
   -2.9561   -0.1615   -1.1890 H   0  0  0  0  0  0  0  0  0  0  0  0
   -2.8599   -0.1832    0.6199 H   0  0  0  0  0  0  0  0  0  0  0  0
   -1.1580    1.0226    1.9568 H   0  0  0  0  0  0  0  0  0  0  0  0
    2.5153   -0.1814    1.6847 H   0  0  0  0  0  0  0  0  0  0  0  0
    2.5734   -0.1182   -1.1604 H   0  0  0  0  0  0  0  0  0  0  0  0
    2.6379   -1.7921   -0.3493 H   0  0  0  0  0  0  0  0  0  0  0  0
    0.7341    0.9776   -1.3349 H   0  0  0  0  0  0  0  0  0  0  0  0
  1  2  1  0
  2  3  1  0
  3  4  1  0
  4  5  1  0
  5  6  2  0
  6  7  1  0
  7  8  1  0
  8  9  1  0
  4  2  1  0
  9  5  1  0
  9  2  1  0
  1 10  1  0
  1 11  1  0
  1 12  1  0
  4 13  1  0
  6 14  1  0
  7 15  1  0
  7 16  1  0
  9 17  1  0
M  END
