
     RDKit          3D

 21 23  0  0  0  0  0  0  0  0999 V2000
    1.0020    0.9008    1.2670 C   0  0  0  0  0  0  0  0  0  0  0  0
    0.8652    0.0782    0.0489 C   0  0  0  0  0  0  0  0  0  0  0  0
    2.1391   -0.4335   -0.5522 C   0  0  0  0  0  0  0  0  0  0  0  0
    1.1010   -1.3525   -0.0332 C   0  0  0  0  0  0  0  0  0  0  0  0
   -0.0893   -1.5165   -0.9630 C   0  0  0  0  0  0  0  0  0  0  0  0
   -0.3804   -0.0451   -0.7387 C   0  0  0  0  0  0  0  0  0  0  0  0
   -1.6883    0.1630   -0.1232 C   0  0  0  0  0  0  0  0  0  0  0  0
   -2.2135    1.3053    0.5237 C   0  0  0  0  0  0  0  0  0  0  0  0
   -2.5028    1.1379   -0.8927 O   0  0  0  0  0  0  0  0  0  0  0  0
    0.5881    1.9105    1.1503 H   0  0  0  0  0  0  0  0  0  0  0  0
    0.5345    0.3443    2.1253 H   0  0  0  0  0  0  0  0  0  0  0  0
    2.0668    1.0279    1.5555 H   0  0  0  0  0  0  0  0  0  0  0  0
    2.2702   -0.4160   -1.6605 H   0  0  0  0  0  0  0  0  0  0  0  0
    3.0980   -0.2780   -0.0218 H   0  0  0  0  0  0  0  0  0  0  0  0
    1.2556   -2.0344    0.7973 H   0  0  0  0  0  0  0  0  0  0  0  0
   -0.8666   -2.2064   -0.5768 H   0  0  0  0  0  0  0  0  0  0  0  0
    0.2468   -1.7788   -1.9843 H   0  0  0  0  0  0  0  0  0  0  0  0
   -0.2744    0.4955   -1.7238 H   0  0  0  0  0  0  0  0  0  0  0  0
   -2.2653   -0.8009    0.0220 H   0  0  0  0  0  0  0  0  0  0  0  0
   -1.7326    2.2826    0.6745 H   0  0  0  0  0  0  0  0  0  0  0  0
   -3.1541    1.2162    1.1056 H   0  0  0  0  0  0  0  0  0  0  0  0
  1  2  1  0
  2  3  1  0
  3  4  1  0
  4  5  1  0
  5  6  1  0
  6  7  1  0
  7  8  1  0
  8  9  1  0
  4  2  1  0
  9  7  1  0
  6  2  1  0
  1 10  1  0
  1 11  1  0
  1 12  1  0
  3 13  1  0
  3 14  1  0
  4 15  1  0
  5 16  1  0
  5 17  1  0
  6 18  1  0
  7 19  1  0
  8 20  1  0
  8 21  1  0
M  END
