
     RDKit          3D

 19 21  0  0  0  0  0  0  0  0999 V2000
    2.3056   -0.5852    0.0894 C   0  0  0  0  0  0  0  0  0  0  0  0
    0.9400    0.0068    0.2978 C   0  0  0  0  0  0  0  0  0  0  0  0
    0.8236    0.8719    1.3577 O   0  0  0  0  0  0  0  0  0  0  0  0
    0.6590    1.4123    0.0796 C   0  0  0  0  0  0  0  0  0  0  0  0
   -0.7822    1.6020   -0.3105 C   0  0  0  0  0  0  0  0  0  0  0  0
   -1.2728    0.2249   -0.6552 C   0  0  0  0  0  0  0  0  0  0  0  0
   -1.5622   -0.7021    0.4525 C   0  0  0  0  0  0  0  0  0  0  0  0
   -2.4376   -1.7530    0.1344 O   0  0  0  0  0  0  0  0  0  0  0  0
   -0.2390   -0.7351   -0.2428 C   0  0  0  0  0  0  0  0  0  0  0  0
    2.4586   -1.4778    0.7393 H   0  0  0  0  0  0  0  0  0  0  0  0
    2.4446   -0.9501   -0.9546 H   0  0  0  0  0  0  0  0  0  0  0  0
    3.0477    0.1735    0.3868 H   0  0  0  0  0  0  0  0  0  0  0  0
    1.4494    2.0397   -0.3585 H   0  0  0  0  0  0  0  0  0  0  0  0
   -1.4020    1.9552    0.5551 H   0  0  0  0  0  0  0  0  0  0  0  0
   -0.9309    2.2861   -1.1550 H   0  0  0  0  0  0  0  0  0  0  0  0
   -1.8462    0.1407   -1.5927 H   0  0  0  0  0  0  0  0  0  0  0  0
   -1.5099   -0.4096    1.5161 H   0  0  0  0  0  0  0  0  0  0  0  0
   -2.1584   -2.5608    0.6176 H   0  0  0  0  0  0  0  0  0  0  0  0
    0.0127   -1.5392   -0.9569 H   0  0  0  0  0  0  0  0  0  0  0  0
  1  2  1  0
  2  3  1  0
  3  4  1  0
  4  5  1  0
  5  6  1  0
  6  7  1  0
  7  8  1  0
  7  9  1  0
  4  2  1  0
  9  6  1  0
  9  2  1  0
  1 10  1  0
  1 11  1  0
  1 12  1  0
  4 13  1  0
  5 14  1  0
  5 15  1  0
  6 16  1  0
  7 17  1  0
  8 18  1  0
  9 19  1  0
M  END
