
     RDKit          3D

 21 22  0  0  0  0  0  0  0  0999 V2000
    1.8066   -0.5975   -0.5267 C   0  0  0  0  0  0  0  0  0  0  0  0
    0.5426   -0.2563    0.1683 C   0  0  0  0  0  0  0  0  0  0  0  0
    0.5705    0.9677    1.0380 C   0  0  0  0  0  0  0  0  0  0  0  0
   -0.0185    2.0078    0.1833 C   0  0  0  0  0  0  0  0  0  0  0  0
   -0.7200    1.4484   -0.7944 C   0  0  0  0  0  0  0  0  0  0  0  0
   -0.6702   -0.0140   -0.6922 C   0  0  0  0  0  0  0  0  0  0  0  0
   -0.7473   -0.7387   -1.8541 O   0  0  0  0  0  0  0  0  0  0  0  0
   -1.4971   -0.6545    0.3944 C   0  0  0  0  0  0  0  0  0  0  0  0
   -0.2152   -1.3933    0.8079 C   0  0  0  0  0  0  0  0  0  0  0  0
    2.6053    0.1029   -0.1426 H   0  0  0  0  0  0  0  0  0  0  0  0
    2.0942   -1.6456   -0.3209 H   0  0  0  0  0  0  0  0  0  0  0  0
    1.7669   -0.3872   -1.6255 H   0  0  0  0  0  0  0  0  0  0  0  0
   -0.0226    0.7924    1.9585 H   0  0  0  0  0  0  0  0  0  0  0  0
    1.6498    1.1657    1.2778 H   0  0  0  0  0  0  0  0  0  0  0  0
    0.1297    3.0868    0.3685 H   0  0  0  0  0  0  0  0  0  0  0  0
   -1.2593    1.9929   -1.5676 H   0  0  0  0  0  0  0  0  0  0  0  0
   -1.7177   -0.8564   -2.0968 H   0  0  0  0  0  0  0  0  0  0  0  0
   -1.8549    0.0603    1.1617 H   0  0  0  0  0  0  0  0  0  0  0  0
   -2.2781   -1.3573    0.0249 H   0  0  0  0  0  0  0  0  0  0  0  0
   -0.0954   -2.3642    0.3314 H   0  0  0  0  0  0  0  0  0  0  0  0
   -0.0693   -1.3599    1.9061 H   0  0  0  0  0  0  0  0  0  0  0  0
  1  2  1  0
  2  3  1  0
  3  4  1  0
  4  5  2  0
  5  6  1  0
  6  7  1  0
  6  8  1  0
  8  9  1  0
  6  2  1  0
  9  2  1  0
  1 10  1  0
  1 11  1  0
  1 12  1  0
  3 13  1  0
  3 14  1  0
  4 15  1  0
  5 16  1  0
  7 17  1  0
  8 18  1  0
  8 19  1  0
  9 20  1  0
  9 21  1  0
M  END
