
     RDKit          3D

 17 20  0  0  0  0  0  0  0  0999 V2000
    2.0173   -0.4973    0.0669 C   0  0  0  0  0  0  0  0  0  0  0  0
    0.6634    0.0142    0.2163 C   0  0  0  0  0  0  0  0  0  0  0  0
    0.4776    1.2112    0.9308 O   0  0  0  0  0  0  0  0  0  0  0  0
   -0.7266    1.3240    0.2032 C   0  0  0  0  0  0  0  0  0  0  0  0
   -1.5957    0.1456    0.5545 C   0  0  0  0  0  0  0  0  0  0  0  0
   -1.4459   -0.7818   -0.5375 C   0  0  0  0  0  0  0  0  0  0  0  0
   -0.8153   -0.0924   -1.5851 O   0  0  0  0  0  0  0  0  0  0  0  0
    0.0474    0.7617   -0.9654 C   0  0  0  0  0  0  0  0  0  0  0  0
   -0.4616   -0.9412    0.5121 C   0  0  0  0  0  0  0  0  0  0  0  0
    2.0555   -1.5865   -0.0454 H   0  0  0  0  0  0  0  0  0  0  0  0
    2.5374    0.0365   -0.7787 H   0  0  0  0  0  0  0  0  0  0  0  0
    2.6208   -0.2222    0.9816 H   0  0  0  0  0  0  0  0  0  0  0  0
   -1.1638    2.2944    0.1160 H   0  0  0  0  0  0  0  0  0  0  0  0
   -2.2710    0.1311    1.3816 H   0  0  0  0  0  0  0  0  0  0  0  0
   -2.1896   -1.5455   -0.8344 H   0  0  0  0  0  0  0  0  0  0  0  0
    0.6827    1.4091   -1.5210 H   0  0  0  0  0  0  0  0  0  0  0  0
   -0.4326   -1.6608    1.3046 H   0  0  0  0  0  0  0  0  0  0  0  0
  1  2  1  0
  2  3  1  0
  3  4  1  0
  4  5  1  0
  5  6  1  0
  6  7  1  0
  7  8  1  0
  6  9  1  0
  8  2  1  0
  9  2  1  0
  8  4  1  0
  9  5  1  0
  1 10  1  0
  1 11  1  0
  1 12  1  0
  4 13  1  0
  5 14  1  0
  6 15  1  0
  8 16  1  0
  9 17  1  0
M  END
