
     RDKit          3D

 25 26  0  0  0  0  0  0  0  0999 V2000
    2.6067   -0.2229    0.5481 C   0  0  0  0  0  0  0  0  0  0  0  0
    1.1410   -0.0977    0.0889 C   0  0  0  0  0  0  0  0  0  0  0  0
    0.3146   -1.1976    0.5643 C   0  0  0  0  0  0  0  0  0  0  0  0
   -0.9770   -1.4599   -0.1045 C   0  0  0  0  0  0  0  0  0  0  0  0
   -2.0107   -0.4660    0.4105 C   0  0  0  0  0  0  0  0  0  0  0  0
   -1.8334    0.7558   -0.4709 C   0  0  0  0  0  0  0  0  0  0  0  0
   -0.7545    1.5825    0.1457 C   0  0  0  0  0  0  0  0  0  0  0  0
    0.6297    1.2114   -0.1828 C   0  0  0  0  0  0  0  0  0  0  0  0
    0.9991    0.3622   -1.3531 C   0  0  0  0  0  0  0  0  0  0  0  0
    3.2468    0.5212    0.0653 H   0  0  0  0  0  0  0  0  0  0  0  0
    2.9206   -1.2637    0.3541 H   0  0  0  0  0  0  0  0  0  0  0  0
    2.5828   -0.1061    1.6609 H   0  0  0  0  0  0  0  0  0  0  0  0
    0.9232   -2.1498    0.4964 H   0  0  0  0  0  0  0  0  0  0  0  0
    0.1189   -1.0849    1.6618 H   0  0  0  0  0  0  0  0  0  0  0  0
   -1.3460   -2.4656    0.2470 H   0  0  0  0  0  0  0  0  0  0  0  0
   -0.9782   -1.4917   -1.1844 H   0  0  0  0  0  0  0  0  0  0  0  0
   -1.7221   -0.2391    1.4584 H   0  0  0  0  0  0  0  0  0  0  0  0
   -3.0217   -0.8684    0.3862 H   0  0  0  0  0  0  0  0  0  0  0  0
   -2.7877    1.3360   -0.3871 H   0  0  0  0  0  0  0  0  0  0  0  0
   -1.6770    0.5007   -1.5147 H   0  0  0  0  0  0  0  0  0  0  0  0
   -0.9373    2.6364   -0.1898 H   0  0  0  0  0  0  0  0  0  0  0  0
   -0.9611    1.6114    1.2546 H   0  0  0  0  0  0  0  0  0  0  0  0
    1.3528    2.0729   -0.0313 H   0  0  0  0  0  0  0  0  0  0  0  0
    0.2241   -0.0591   -1.9943 H   0  0  0  0  0  0  0  0  0  0  0  0
    1.9464    0.5820   -1.9289 H   0  0  0  0  0  0  0  0  0  0  0  0
  1  2  1  0
  2  3  1  0
  3  4  1  0
  4  5  1  0
  5  6  1  0
  6  7  1  0
  7  8  1  0
  8  9  1  0
  8  2  1  0
  9  2  1  0
  1 10  1  0
  1 11  1  0
  1 12  1  0
  3 13  1  0
  3 14  1  0
  4 15  1  0
  4 16  1  0
  5 17  1  0
  5 18  1  0
  6 19  1  0
  6 20  1  0
  7 21  1  0
  7 22  1  0
  8 23  1  0
  9 24  1  0
  9 25  1  0
M  END
