
     RDKit          3D

 21 23  0  0  0  0  0  0  0  0999 V2000
    2.5521    0.2539    0.0575 C   0  0  0  0  0  0  0  0  0  0  0  0
    1.0471    0.3274    0.2820 C   0  0  0  0  0  0  0  0  0  0  0  0
    0.3771   -0.9218    0.7667 C   0  0  0  0  0  0  0  0  0  0  0  0
   -1.0923   -0.9468    0.5205 C   0  0  0  0  0  0  0  0  0  0  0  0
   -1.3142   -0.8214   -0.9923 C   0  0  0  0  0  0  0  0  0  0  0  0
   -1.1782    0.6896   -0.7679 C   0  0  0  0  0  0  0  0  0  0  0  0
   -1.7442    0.4174    0.6338 C   0  0  0  0  0  0  0  0  0  0  0  0
    0.2710    1.0812   -0.6529 C   0  0  0  0  0  0  0  0  0  0  0  0
    0.6242    1.5713    0.7236 O   0  0  0  0  0  0  0  0  0  0  0  0
    3.0652   -0.1884    0.9481 H   0  0  0  0  0  0  0  0  0  0  0  0
    2.7399   -0.3687   -0.8527 H   0  0  0  0  0  0  0  0  0  0  0  0
    2.9629    1.2693   -0.1183 H   0  0  0  0  0  0  0  0  0  0  0  0
    0.6274   -1.0451    1.8367 H   0  0  0  0  0  0  0  0  0  0  0  0
    0.8437   -1.7777    0.2297 H   0  0  0  0  0  0  0  0  0  0  0  0
   -1.6065   -1.7708    1.0005 H   0  0  0  0  0  0  0  0  0  0  0  0
   -0.5365   -1.2685   -1.6114 H   0  0  0  0  0  0  0  0  0  0  0  0
   -2.3619   -1.0812   -1.2117 H   0  0  0  0  0  0  0  0  0  0  0  0
   -1.8028    1.3116   -1.4045 H   0  0  0  0  0  0  0  0  0  0  0  0
   -1.3148    1.0847    1.4038 H   0  0  0  0  0  0  0  0  0  0  0  0
   -2.8278    0.3588    0.5662 H   0  0  0  0  0  0  0  0  0  0  0  0
    0.6685    1.8254   -1.3574 H   0  0  0  0  0  0  0  0  0  0  0  0
  1  2  1  0
  2  3  1  0
  3  4  1  0
  4  5  1  0
  5  6  1  0
  6  7  1  0
  6  8  1  0
  8  9  1  0
  8  2  1  0
  9  2  1  0
  7  4  1  0
  1 10  1  0
  1 11  1  0
  1 12  1  0
  3 13  1  0
  3 14  1  0
  4 15  1  0
  5 16  1  0
  5 17  1  0
  6 18  1  0
  7 19  1  0
  7 20  1  0
  8 21  1  0
M  END
