
     RDKit          3D

 19 20  0  0  0  0  0  0  0  0999 V2000
    1.9921   -0.2526   -0.6387 C   0  0  0  0  0  0  0  0  0  0  0  0
    0.6403   -0.0447   -0.0125 C   0  0  0  0  0  0  0  0  0  0  0  0
    0.5159    0.7791    1.2475 C   0  0  0  0  0  0  0  0  0  0  0  0
   -0.0272    1.2509   -0.0291 C   0  0  0  0  0  0  0  0  0  0  0  0
   -1.4589    0.9852   -0.4193 C   0  0  0  0  0  0  0  0  0  0  0  0
   -1.5924   -0.4779   -0.5290 C   0  0  0  0  0  0  0  0  0  0  0  0
   -2.5990   -1.0535   -0.9019 O   0  0  0  0  0  0  0  0  0  0  0  0
   -0.3565   -1.1542   -0.1312 C   0  0  0  0  0  0  0  0  0  0  0  0
   -0.4936   -1.7179    1.1581 O   0  0  0  0  0  0  0  0  0  0  0  0
    2.1297   -1.3455   -0.7943 H   0  0  0  0  0  0  0  0  0  0  0  0
    2.8031    0.1069   -0.0035 H   0  0  0  0  0  0  0  0  0  0  0  0
    2.0038    0.1953   -1.6616 H   0  0  0  0  0  0  0  0  0  0  0  0
    1.4589    1.2032    1.6040 H   0  0  0  0  0  0  0  0  0  0  0  0
   -0.1555    0.3976    2.0684 H   0  0  0  0  0  0  0  0  0  0  0  0
    0.4603    2.1343   -0.4784 H   0  0  0  0  0  0  0  0  0  0  0  0
   -2.1809    1.3826    0.3439 H   0  0  0  0  0  0  0  0  0  0  0  0
   -1.6664    1.5268   -1.3653 H   0  0  0  0  0  0  0  0  0  0  0  0
   -0.0370   -1.9650   -0.8044 H   0  0  0  0  0  0  0  0  0  0  0  0
   -1.4368   -1.9505    1.3474 H   0  0  0  0  0  0  0  0  0  0  0  0
  1  2  1  0
  2  3  1  0
  3  4  1  0
  4  5  1  0
  5  6  1  0
  6  7  2  0
  6  8  1  0
  8  9  1  0
  4  2  1  0
  8  2  1  0
  1 10  1  0
  1 11  1  0
  1 12  1  0
  3 13  1  0
  3 14  1  0
  4 15  1  0
  5 16  1  0
  5 17  1  0
  8 18  1  0
  9 19  1  0
M  END
