
     RDKit          3D

 17 18  0  0  0  0  0  0  0  0999 V2000
   -2.1435   -0.2754    0.0777 C   0  0  0  0  0  0  0  0  0  0  0  0
   -0.6991   -0.2095    0.4143 C   0  0  0  0  0  0  0  0  0  0  0  0
    0.0352   -1.3860    0.4923 O   0  0  0  0  0  0  0  0  0  0  0  0
    0.9294   -1.0660   -0.5157 C   0  0  0  0  0  0  0  0  0  0  0  0
    2.3197   -0.8633   -0.0149 C   0  0  0  0  0  0  0  0  0  0  0  0
    2.6172   -0.9715    1.1553 O   0  0  0  0  0  0  0  0  0  0  0  0
    0.2261    0.2703   -0.6379 C   0  0  0  0  0  0  0  0  0  0  0  0
    0.0425    1.0436    0.6125 C   0  0  0  0  0  0  0  0  0  0  0  0
   -0.5344    2.2796    0.5067 O   0  0  0  0  0  0  0  0  0  0  0  0
   -2.7940    0.2918    0.7805 H   0  0  0  0  0  0  0  0  0  0  0  0
   -2.4672   -1.3489    0.1935 H   0  0  0  0  0  0  0  0  0  0  0  0
   -2.3711   -0.0354   -0.9918 H   0  0  0  0  0  0  0  0  0  0  0  0
    0.8158   -1.7223   -1.3747 H   0  0  0  0  0  0  0  0  0  0  0  0
    3.1152   -0.6079   -0.7066 H   0  0  0  0  0  0  0  0  0  0  0  0
   -0.1108    0.6288   -1.6165 H   0  0  0  0  0  0  0  0  0  0  0  0
    0.9104    0.9735    1.3254 H   0  0  0  0  0  0  0  0  0  0  0  0
    0.1086    2.9988    0.2999 H   0  0  0  0  0  0  0  0  0  0  0  0
  1  2  1  0
  2  3  1  0
  3  4  1  0
  4  5  1  0
  5  6  2  0
  4  7  1  0
  7  8  1  0
  8  9  1  0
  7  2  1  0
  8  2  1  0
  1 10  1  0
  1 11  1  0
  1 12  1  0
  4 13  1  0
  5 14  1  0
  7 15  1  0
  8 16  1  0
  9 17  1  0
M  END
