
     RDKit          3D

 21 23  0  0  0  0  0  0  0  0999 V2000
    2.3327   -0.2070   -0.1614 C   0  0  0  0  0  0  0  0  0  0  0  0
    0.8799   -0.1129    0.1995 C   0  0  0  0  0  0  0  0  0  0  0  0
    0.3887    1.2363    0.6396 C   0  0  0  0  0  0  0  0  0  0  0  0
   -0.9545    1.4719   -0.0082 C   0  0  0  0  0  0  0  0  0  0  0  0
   -1.9010    0.3090    0.2464 C   0  0  0  0  0  0  0  0  0  0  0  0
   -1.3785   -0.9732   -0.3414 C   0  0  0  0  0  0  0  0  0  0  0  0
   -0.2558   -1.7081    0.2695 C   0  0  0  0  0  0  0  0  0  0  0  0
    0.5702   -1.0684    1.1714 O   0  0  0  0  0  0  0  0  0  0  0  0
    0.0044   -0.7555   -0.8240 C   0  0  0  0  0  0  0  0  0  0  0  0
    2.9184   -0.4170    0.7591 H   0  0  0  0  0  0  0  0  0  0  0  0
    2.4625   -1.1188   -0.8033 H   0  0  0  0  0  0  0  0  0  0  0  0
    2.6856    0.6639   -0.7246 H   0  0  0  0  0  0  0  0  0  0  0  0
    0.2558    1.3385    1.7221 H   0  0  0  0  0  0  0  0  0  0  0  0
    1.0847    2.0124    0.3022 H   0  0  0  0  0  0  0  0  0  0  0  0
   -0.7773    1.4982   -1.1056 H   0  0  0  0  0  0  0  0  0  0  0  0
   -1.4503    2.3880    0.3353 H   0  0  0  0  0  0  0  0  0  0  0  0
   -2.8514    0.5714   -0.2895 H   0  0  0  0  0  0  0  0  0  0  0  0
   -2.1499    0.2515    1.3071 H   0  0  0  0  0  0  0  0  0  0  0  0
   -2.0510   -1.5588   -1.0083 H   0  0  0  0  0  0  0  0  0  0  0  0
   -0.1674   -2.7932    0.1277 H   0  0  0  0  0  0  0  0  0  0  0  0
    0.3545   -1.0280   -1.8136 H   0  0  0  0  0  0  0  0  0  0  0  0
  1  2  1  0
  2  3  1  0
  3  4  1  0
  4  5  1  0
  5  6  1  0
  6  7  1  0
  7  8  1  0
  7  9  1  0
  8  2  1  0
  9  2  1  0
  9  6  1  0
  1 10  1  0
  1 11  1  0
  1 12  1  0
  3 13  1  0
  3 14  1  0
  4 15  1  0
  4 16  1  0
  5 17  1  0
  5 18  1  0
  6 19  1  0
  7 20  1  0
  9 21  1  0
M  END
