
     RDKit          3D

 21 23  0  0  0  0  0  0  0  0999 V2000
    1.5713    1.6962   -0.0423 C   0  0  0  0  0  0  0  0  0  0  0  0
    0.5347    0.6398    0.1733 C   0  0  0  0  0  0  0  0  0  0  0  0
   -0.9104    1.1731    0.2698 C   0  0  0  0  0  0  0  0  0  0  0  0
   -1.9003    0.2889   -0.4918 C   0  0  0  0  0  0  0  0  0  0  0  0
   -1.6575   -1.1556   -0.1262 C   0  0  0  0  0  0  0  0  0  0  0  0
   -0.4368   -1.6137    0.0268 C   0  0  0  0  0  0  0  0  0  0  0  0
    0.9273   -2.0460    0.1773 C   0  0  0  0  0  0  0  0  0  0  0  0
    1.0002   -0.5926    0.8155 C   0  0  0  0  0  0  0  0  0  0  0  0
    0.4484   -0.4800   -0.6289 C   0  0  0  0  0  0  0  0  0  0  0  0
    1.6585    2.0332   -1.0781 H   0  0  0  0  0  0  0  0  0  0  0  0
    2.5865    1.3645    0.3154 H   0  0  0  0  0  0  0  0  0  0  0  0
    1.3080    2.5504    0.6485 H   0  0  0  0  0  0  0  0  0  0  0  0
   -1.1536    1.2721    1.3314 H   0  0  0  0  0  0  0  0  0  0  0  0
   -0.9115    2.1408   -0.2667 H   0  0  0  0  0  0  0  0  0  0  0  0
   -2.8950    0.5507   -0.1201 H   0  0  0  0  0  0  0  0  0  0  0  0
   -1.8264    0.4585   -1.5509 H   0  0  0  0  0  0  0  0  0  0  0  0
   -2.4932   -1.7955    0.0065 H   0  0  0  0  0  0  0  0  0  0  0  0
    1.1746   -2.7919    0.9492 H   0  0  0  0  0  0  0  0  0  0  0  0
    1.5997   -2.1567   -0.6738 H   0  0  0  0  0  0  0  0  0  0  0  0
    0.2937   -0.7460    1.6834 H   0  0  0  0  0  0  0  0  0  0  0  0
    1.0818   -0.7902   -1.4181 H   0  0  0  0  0  0  0  0  0  0  0  0
  1  2  1  0
  2  3  1  0
  3  4  1  0
  4  5  1  0
  5  6  2  0
  6  7  1  0
  7  8  1  0
  8  9  1  0
  8  2  1  0
  9  2  1  0
  9  6  1  0
  1 10  1  0
  1 11  1  0
  1 12  1  0
  3 13  1  0
  3 14  1  0
  4 15  1  0
  4 16  1  0
  5 17  1  0
  7 18  1  0
  7 19  1  0
  8 20  1  0
  9 21  1  0
M  END
