
     RDKit          3D

 18 19  0  0  0  0  0  0  0  0999 V2000
   -1.6414    0.5279   -0.7864 C   0  0  0  0  0  0  0  0  0  0  0  0
   -0.5542    0.3466    0.2161 C   0  0  0  0  0  0  0  0  0  0  0  0
    0.2583    1.4979    0.6502 C   0  0  0  0  0  0  0  0  0  0  0  0
    0.8814    0.4184   -0.1329 C   0  0  0  0  0  0  0  0  0  0  0  0
    1.3479    0.5520   -1.4000 O   0  0  0  0  0  0  0  0  0  0  0  0
    1.1584   -0.8483    0.6687 C   0  0  0  0  0  0  0  0  0  0  0  0
   -0.3442   -1.0332    0.7245 C   0  0  0  0  0  0  0  0  0  0  0  0
   -0.7237   -2.0035   -0.2214 O   0  0  0  0  0  0  0  0  0  0  0  0
   -1.2857    0.8394   -1.7725 H   0  0  0  0  0  0  0  0  0  0  0  0
   -2.2666   -0.3721   -0.8991 H   0  0  0  0  0  0  0  0  0  0  0  0
   -2.3325    1.3387   -0.4313 H   0  0  0  0  0  0  0  0  0  0  0  0
   -0.0174    2.4724    0.1996 H   0  0  0  0  0  0  0  0  0  0  0  0
    0.6245    1.6077    1.6946 H   0  0  0  0  0  0  0  0  0  0  0  0
    2.3482    0.5042   -1.3708 H   0  0  0  0  0  0  0  0  0  0  0  0
    1.7128   -1.6171    0.1345 H   0  0  0  0  0  0  0  0  0  0  0  0
    1.5580   -0.5607    1.6813 H   0  0  0  0  0  0  0  0  0  0  0  0
   -0.7736   -1.2450    1.7024 H   0  0  0  0  0  0  0  0  0  0  0  0
    0.0499   -2.4255   -0.6574 H   0  0  0  0  0  0  0  0  0  0  0  0
  1  2  1  0
  2  3  1  0
  3  4  1  0
  4  5  1  0
  4  6  1  0
  6  7  1  0
  7  8  1  0
  4  2  1  0
  7  2  1  0
  1  9  1  0
  1 10  1  0
  1 11  1  0
  3 12  1  0
  3 13  1  0
  5 14  1  0
  6 15  1  0
  6 16  1  0
  7 17  1  0
  8 18  1  0
M  END
