
     RDKit          3D

 21 23  0  0  0  0  0  0  0  0999 V2000
   -1.6256    0.1028    1.4046 C   0  0  0  0  0  0  0  0  0  0  0  0
   -1.1998    0.2631   -0.0127 C   0  0  0  0  0  0  0  0  0  0  0  0
   -2.1426    0.7126   -0.8868 O   0  0  0  0  0  0  0  0  0  0  0  0
   -1.6917   -0.5571   -1.1176 C   0  0  0  0  0  0  0  0  0  0  0  0
   -0.2806   -0.6435   -1.6835 C   0  0  0  0  0  0  0  0  0  0  0  0
    0.1938    0.0547   -0.4632 C   0  0  0  0  0  0  0  0  0  0  0  0
    1.0891    1.2198   -0.6056 C   0  0  0  0  0  0  0  0  0  0  0  0
    2.2225    0.3490   -0.0456 C   0  0  0  0  0  0  0  0  0  0  0  0
    1.1401   -0.6307    0.4296 C   0  0  0  0  0  0  0  0  0  0  0  0
   -2.6823   -0.2830    1.4026 H   0  0  0  0  0  0  0  0  0  0  0  0
   -1.0357   -0.6093    1.9939 H   0  0  0  0  0  0  0  0  0  0  0  0
   -1.7122    1.1115    1.9071 H   0  0  0  0  0  0  0  0  0  0  0  0
   -2.3072   -1.4441   -1.0303 H   0  0  0  0  0  0  0  0  0  0  0  0
   -0.1664   -0.0569   -2.6154 H   0  0  0  0  0  0  0  0  0  0  0  0
    0.1178   -1.6842   -1.7211 H   0  0  0  0  0  0  0  0  0  0  0  0
    1.2709    1.6094   -1.6149 H   0  0  0  0  0  0  0  0  0  0  0  0
    0.8116    2.0211    0.1393 H   0  0  0  0  0  0  0  0  0  0  0  0
    2.7746    0.7934    0.7856 H   0  0  0  0  0  0  0  0  0  0  0  0
    2.8335   -0.0661   -0.8834 H   0  0  0  0  0  0  0  0  0  0  0  0
    1.4351   -1.6784    0.1785 H   0  0  0  0  0  0  0  0  0  0  0  0
    0.9552   -0.5842    1.5243 H   0  0  0  0  0  0  0  0  0  0  0  0
  1  2  1  0
  2  3  1  0
  3  4  1  0
  4  5  1  0
  5  6  1  0
  6  7  1  0
  7  8  1  0
  8  9  1  0
  4  2  1  0
  9  6  1  0
  6  2  1  0
  1 10  1  0
  1 11  1  0
  1 12  1  0
  4 13  1  0
  5 14  1  0
  5 15  1  0
  7 16  1  0
  7 17  1  0
  8 18  1  0
  8 19  1  0
  9 20  1  0
  9 21  1  0
M  END
