
     RDKit          3D

 19 20  0  0  0  0  0  0  0  0999 V2000
   -1.9036   -0.5761   -0.3768 C   0  0  0  0  0  0  0  0  0  0  0  0
   -0.5492   -0.8018    0.3379 C   0  0  0  0  0  0  0  0  0  0  0  0
   -0.1995    0.4328    1.0586 C   0  0  0  0  0  0  0  0  0  0  0  0
   -0.1355    1.4009   -0.1394 C   0  0  0  0  0  0  0  0  0  0  0  0
    0.1995    0.4740   -1.2788 C   0  0  0  0  0  0  0  0  0  0  0  0
    0.1050    0.6865   -2.4525 O   0  0  0  0  0  0  0  0  0  0  0  0
    0.6689   -0.7503   -0.6315 C   0  0  0  0  0  0  0  0  0  0  0  0
    2.0559   -0.6393   -0.0694 C   0  0  0  0  0  0  0  0  0  0  0  0
    0.0693   -1.8191   -0.1671 O   0  0  0  0  0  0  0  0  0  0  0  0
   -2.3358   -1.5243   -0.7479 H   0  0  0  0  0  0  0  0  0  0  0  0
   -1.7947    0.0924   -1.2505 H   0  0  0  0  0  0  0  0  0  0  0  0
   -2.6332   -0.1455    0.3443 H   0  0  0  0  0  0  0  0  0  0  0  0
   -1.0540    0.7115    1.7263 H   0  0  0  0  0  0  0  0  0  0  0  0
    0.6922    0.4487    1.6619 H   0  0  0  0  0  0  0  0  0  0  0  0
    0.6153    2.1727    0.0091 H   0  0  0  0  0  0  0  0  0  0  0  0
   -1.1440    1.8552   -0.2964 H   0  0  0  0  0  0  0  0  0  0  0  0
    2.6483   -1.4765   -0.5533 H   0  0  0  0  0  0  0  0  0  0  0  0
    2.5584    0.2825   -0.4218 H   0  0  0  0  0  0  0  0  0  0  0  0
    2.1366   -0.8244    1.0040 H   0  0  0  0  0  0  0  0  0  0  0  0
  1  2  1  0
  2  3  1  0
  3  4  1  0
  4  5  1  0
  5  6  2  0
  5  7  1  0
  7  8  1  0
  7  9  1  0
  7  2  1  0
  9  2  1  0
  1 10  1  0
  1 11  1  0
  1 12  1  0
  3 13  1  0
  3 14  1  0
  4 15  1  0
  4 16  1  0
  8 17  1  0
  8 18  1  0
  8 19  1  0
M  END
