
     RDKit          3D

 16 17  0  0  0  0  0  0  0  0999 V2000
   -2.1556    0.4154   -0.1886 C   0  0  0  0  0  0  0  0  0  0  0  0
   -0.8767   -0.3803   -0.0671 C   0  0  0  0  0  0  0  0  0  0  0  0
    0.1656    0.0303    0.9339 C   0  0  0  0  0  0  0  0  0  0  0  0
    1.2201   -0.5098   -0.0408 C   0  0  0  0  0  0  0  0  0  0  0  0
    2.2475    0.4534   -0.4358 C   0  0  0  0  0  0  0  0  0  0  0  0
    3.3263    0.4383    0.1247 O   0  0  0  0  0  0  0  0  0  0  0  0
    0.0658   -0.6412   -1.0428 C   0  0  0  0  0  0  0  0  0  0  0  0
   -0.8435   -1.6049   -0.6755 O   0  0  0  0  0  0  0  0  0  0  0  0
   -1.9634    1.3515   -0.7691 H   0  0  0  0  0  0  0  0  0  0  0  0
   -2.9007   -0.1774   -0.7505 H   0  0  0  0  0  0  0  0  0  0  0  0
   -2.5774    0.6052    0.8107 H   0  0  0  0  0  0  0  0  0  0  0  0
    0.1101   -0.4969    1.8895 H   0  0  0  0  0  0  0  0  0  0  0  0
    0.2945    1.1260    1.0167 H   0  0  0  0  0  0  0  0  0  0  0  0
    1.5758   -1.4889    0.3368 H   0  0  0  0  0  0  0  0  0  0  0  0
    2.1079    1.1924   -1.2087 H   0  0  0  0  0  0  0  0  0  0  0  0
    0.2038   -0.3131   -2.0668 H   0  0  0  0  0  0  0  0  0  0  0  0
  1  2  1  0
  2  3  1  0
  3  4  1  0
  4  5  1  0
  5  6  2  0
  4  7  1  0
  7  8  1  0
  7  2  1  0
  8  2  1  0
  1  9  1  0
  1 10  1  0
  1 11  1  0
  3 12  1  0
  3 13  1  0
  4 14  1  0
  5 15  1  0
  7 16  1  0
M  END
