
     RDKit          3D

 23 25  0  0  0  0  0  0  0  0999 V2000
    2.2797    0.3497    0.7100 C   0  0  0  0  0  0  0  0  0  0  0  0
    0.8908    0.0440    0.3187 C   0  0  0  0  0  0  0  0  0  0  0  0
   -0.1417    1.0133    0.8014 C   0  0  0  0  0  0  0  0  0  0  0  0
   -1.5372    0.6281    0.4571 C   0  0  0  0  0  0  0  0  0  0  0  0
   -1.9256    0.8631   -0.9832 C   0  0  0  0  0  0  0  0  0  0  0  0
   -1.6761   -0.4856   -0.5089 C   0  0  0  0  0  0  0  0  0  0  0  0
   -0.3837   -1.2201   -0.7045 C   0  0  0  0  0  0  0  0  0  0  0  0
    0.3822   -1.3557    0.6247 C   0  0  0  0  0  0  0  0  0  0  0  0
    0.7426   -0.3198   -1.1360 C   0  0  0  0  0  0  0  0  0  0  0  0
    2.9791   -0.4590    0.4782 H   0  0  0  0  0  0  0  0  0  0  0  0
    2.3395    0.6824    1.7721 H   0  0  0  0  0  0  0  0  0  0  0  0
    2.6131    1.2506    0.1157 H   0  0  0  0  0  0  0  0  0  0  0  0
    0.1179    2.0147    0.4303 H   0  0  0  0  0  0  0  0  0  0  0  0
   -0.0624    1.0585    1.9107 H   0  0  0  0  0  0  0  0  0  0  0  0
   -2.3219    0.6606    1.2481 H   0  0  0  0  0  0  0  0  0  0  0  0
   -1.2527    1.4633   -1.6051 H   0  0  0  0  0  0  0  0  0  0  0  0
   -2.9965    1.1653   -1.0960 H   0  0  0  0  0  0  0  0  0  0  0  0
   -2.5568   -1.1827   -0.4071 H   0  0  0  0  0  0  0  0  0  0  0  0
   -0.4550   -2.1940   -1.1756 H   0  0  0  0  0  0  0  0  0  0  0  0
   -0.3109   -1.3921    1.4654 H   0  0  0  0  0  0  0  0  0  0  0  0
    1.1512   -2.1430    0.5907 H   0  0  0  0  0  0  0  0  0  0  0  0
    0.5168    0.4755   -1.8342 H   0  0  0  0  0  0  0  0  0  0  0  0
    1.6076   -0.9172   -1.4725 H   0  0  0  0  0  0  0  0  0  0  0  0
  1  2  1  0
  2  3  1  0
  3  4  1  0
  4  5  1  0
  5  6  1  0
  6  7  1  0
  7  8  1  0
  7  9  1  0
  8  2  1  0
  9  2  1  0
  6  4  1  0
  1 10  1  0
  1 11  1  0
  1 12  1  0
  3 13  1  0
  3 14  1  0
  4 15  1  0
  5 16  1  0
  5 17  1  0
  6 18  1  0
  7 19  1  0
  8 20  1  0
  8 21  1  0
  9 22  1  0
  9 23  1  0
M  END
