
     RDKit          3D

 21 22  0  0  0  0  0  0  0  0999 V2000
    0.6650   -1.4974   -0.8081 C   0  0  0  0  0  0  0  0  0  0  0  0
   -0.1992   -0.5781   -0.0267 C   0  0  0  0  0  0  0  0  0  0  0  0
   -1.4340   -1.1754    0.5590 C   0  0  0  0  0  0  0  0  0  0  0  0
   -1.5001   -0.0832   -0.4674 C   0  0  0  0  0  0  0  0  0  0  0  0
   -1.5998    1.3028    0.0874 C   0  0  0  0  0  0  0  0  0  0  0  0
   -0.5555    1.4955    0.9677 O   0  0  0  0  0  0  0  0  0  0  0  0
    0.4173    0.5676    0.7160 C   0  0  0  0  0  0  0  0  0  0  0  0
    1.5579    1.2054   -0.0358 C   0  0  0  0  0  0  0  0  0  0  0  0
    2.5788    0.3142   -0.3219 O   0  0  0  0  0  0  0  0  0  0  0  0
    1.4573   -1.8914   -0.1077 H   0  0  0  0  0  0  0  0  0  0  0  0
    0.1035   -2.3910   -1.1359 H   0  0  0  0  0  0  0  0  0  0  0  0
    1.1465   -1.0543   -1.6861 H   0  0  0  0  0  0  0  0  0  0  0  0
   -1.7610   -2.1837    0.2208 H   0  0  0  0  0  0  0  0  0  0  0  0
   -1.6067   -0.9713    1.6161 H   0  0  0  0  0  0  0  0  0  0  0  0
   -1.9747   -0.3134   -1.4165 H   0  0  0  0  0  0  0  0  0  0  0  0
   -1.6826    2.0578   -0.6980 H   0  0  0  0  0  0  0  0  0  0  0  0
   -2.5443    1.3541    0.7047 H   0  0  0  0  0  0  0  0  0  0  0  0
    0.8593    0.1868    1.6812 H   0  0  0  0  0  0  0  0  0  0  0  0
    1.9321    2.0434    0.6108 H   0  0  0  0  0  0  0  0  0  0  0  0
    1.2187    1.6955   -0.9747 H   0  0  0  0  0  0  0  0  0  0  0  0
    2.9212   -0.0839    0.5150 H   0  0  0  0  0  0  0  0  0  0  0  0
  1  2  1  0
  2  3  1  0
  3  4  1  0
  4  5  1  0
  5  6  1  0
  6  7  1  0
  7  8  1  0
  8  9  1  0
  4  2  1  0
  7  2  1  0
  1 10  1  0
  1 11  1  0
  1 12  1  0
  3 13  1  0
  3 14  1  0
  4 15  1  0
  5 16  1  0
  5 17  1  0
  7 18  1  0
  8 19  1  0
  8 20  1  0
  9 21  1  0
M  END
