
     RDKit          3D

 17 18  0  0  0  0  0  0  0  0999 V2000
   -1.2830    1.4586    0.3085 C   0  0  0  0  0  0  0  0  0  0  0  0
   -0.9015    0.2117   -0.1219 C   0  0  0  0  0  0  0  0  0  0  0  0
   -1.0514   -1.0951    0.5784 C   0  0  0  0  0  0  0  0  0  0  0  0
   -0.4275   -1.3710   -0.7482 C   0  0  0  0  0  0  0  0  0  0  0  0
   -1.3365   -0.4473   -1.2735 O   0  0  0  0  0  0  0  0  0  0  0  0
    0.4861   -0.2177   -0.5259 C   0  0  0  0  0  0  0  0  0  0  0  0
    1.4175   -0.3134    0.5078 O   0  0  0  0  0  0  0  0  0  0  0  0
    2.7165    0.1356    0.2722 C   0  0  0  0  0  0  0  0  0  0  0  0
    3.0158    0.6168   -0.8698 O   0  0  0  0  0  0  0  0  0  0  0  0
   -1.8675    2.0618   -0.4480 H   0  0  0  0  0  0  0  0  0  0  0  0
   -1.9404    1.4817    1.2273 H   0  0  0  0  0  0  0  0  0  0  0  0
   -0.4262    2.1424    0.5878 H   0  0  0  0  0  0  0  0  0  0  0  0
   -2.1030   -1.4399    0.6540 H   0  0  0  0  0  0  0  0  0  0  0  0
   -0.4234   -1.2653    1.4664 H   0  0  0  0  0  0  0  0  0  0  0  0
   -0.2088   -2.2696   -1.1513 H   0  0  0  0  0  0  0  0  0  0  0  0
    0.8363    0.2133   -1.4820 H   0  0  0  0  0  0  0  0  0  0  0  0
    3.4971    0.0972    1.0181 H   0  0  0  0  0  0  0  0  0  0  0  0
  1  2  1  0
  2  3  1  0
  3  4  1  0
  4  5  1  0
  4  6  1  0
  6  7  1  0
  7  8  1  0
  8  9  2  0
  5  2  1  0
  6  2  1  0
  1 10  1  0
  1 11  1  0
  1 12  1  0
  3 13  1  0
  3 14  1  0
  4 15  1  0
  6 16  1  0
  8 17  1  0
M  END
