
     RDKit          3D

 22 23  0  0  0  0  0  0  0  0999 V2000
    1.5189    1.2226    0.4517 C   0  0  0  0  0  0  0  0  0  0  0  0
    0.8053    0.1716   -0.0534 C   0  0  0  0  0  0  0  0  0  0  0  0
    1.0263   -1.2948    0.1660 C   0  0  0  0  0  0  0  0  0  0  0  0
   -0.1652   -1.2351   -0.7641 C   0  0  0  0  0  0  0  0  0  0  0  0
    0.6415   -0.2074   -1.5066 C   0  0  0  0  0  0  0  0  0  0  0  0
   -0.6601   -0.1120    0.0890 C   0  0  0  0  0  0  0  0  0  0  0  0
   -1.1333   -0.4614    1.4646 C   0  0  0  0  0  0  0  0  0  0  0  0
   -1.5969    0.8315   -0.5893 C   0  0  0  0  0  0  0  0  0  0  0  0
    2.0615    1.0150    1.4012 H   0  0  0  0  0  0  0  0  0  0  0  0
    2.3066    1.6322   -0.2363 H   0  0  0  0  0  0  0  0  0  0  0  0
    0.8855    2.1264    0.6906 H   0  0  0  0  0  0  0  0  0  0  0  0
    1.9500   -1.6200   -0.3655 H   0  0  0  0  0  0  0  0  0  0  0  0
    0.8536   -1.6953    1.1588 H   0  0  0  0  0  0  0  0  0  0  0  0
   -0.6698   -2.0086   -1.1399 H   0  0  0  0  0  0  0  0  0  0  0  0
    1.5966   -0.6057   -1.8990 H   0  0  0  0  0  0  0  0  0  0  0  0
    0.0991    0.4963   -2.1295 H   0  0  0  0  0  0  0  0  0  0  0  0
   -1.6482   -1.4475    1.4679 H   0  0  0  0  0  0  0  0  0  0  0  0
   -0.3239   -0.4225    2.2340 H   0  0  0  0  0  0  0  0  0  0  0  0
   -1.8830    0.3083    1.8155 H   0  0  0  0  0  0  0  0  0  0  0  0
   -2.5773    0.8999   -0.0332 H   0  0  0  0  0  0  0  0  0  0  0  0
   -1.8787    0.5233   -1.6203 H   0  0  0  0  0  0  0  0  0  0  0  0
   -1.2083    1.8833   -0.6024 H   0  0  0  0  0  0  0  0  0  0  0  0
  1  2  1  0
  2  3  1  0
  3  4  1  0
  4  5  1  0
  4  6  1  0
  6  7  1  0
  6  8  1  0
  5  2  1  0
  6  2  1  0
  1  9  1  0
  1 10  1  0
  1 11  1  0
  3 12  1  0
  3 13  1  0
  4 14  1  0
  5 15  1  0
  5 16  1  0
  7 17  1  0
  7 18  1  0
  7 19  1  0
  8 20  1  0
  8 21  1  0
  8 22  1  0
M  END
