
     RDKit          3D

 17 19  0  0  0  0  0  0  0  0999 V2000
    1.9555    0.2444   -0.4801 C   0  0  0  0  0  0  0  0  0  0  0  0
    0.5642    0.0791   -0.1000 C   0  0  0  0  0  0  0  0  0  0  0  0
   -0.2765    1.1153    0.5661 C   0  0  0  0  0  0  0  0  0  0  0  0
   -0.2219    0.3566    1.7365 O   0  0  0  0  0  0  0  0  0  0  0  0
    0.2580   -0.7634    1.1000 C   0  0  0  0  0  0  0  0  0  0  0  0
   -0.2968   -1.0675   -0.2876 C   0  0  0  0  0  0  0  0  0  0  0  0
   -1.7150   -0.5286   -0.4426 C   0  0  0  0  0  0  0  0  0  0  0  0
   -1.5771    0.9378   -0.1813 C   0  0  0  0  0  0  0  0  0  0  0  0
   -2.3650    1.7795   -0.5148 O   0  0  0  0  0  0  0  0  0  0  0  0
    2.2342   -0.4862   -1.2701 H   0  0  0  0  0  0  0  0  0  0  0  0
    2.6200    0.0118    0.3919 H   0  0  0  0  0  0  0  0  0  0  0  0
    2.2484    1.2469   -0.8404 H   0  0  0  0  0  0  0  0  0  0  0  0
    0.0938    2.1336    0.6199 H   0  0  0  0  0  0  0  0  0  0  0  0
    1.0144   -1.4107    1.5330 H   0  0  0  0  0  0  0  0  0  0  0  0
   -0.0021   -1.9868   -0.7828 H   0  0  0  0  0  0  0  0  0  0  0  0
   -2.3856   -0.9205    0.3703 H   0  0  0  0  0  0  0  0  0  0  0  0
   -2.1482   -0.7411   -1.4181 H   0  0  0  0  0  0  0  0  0  0  0  0
  1  2  1  0
  2  3  1  0
  3  4  1  0
  4  5  1  0
  5  6  1  0
  6  7  1  0
  7  8  1  0
  8  9  2  0
  5  2  1  0
  6  2  1  0
  8  3  1  0
  1 10  1  0
  1 11  1  0
  1 12  1  0
  3 13  1  0
  5 14  1  0
  6 15  1  0
  7 16  1  0
  7 17  1  0
M  END
