
     RDKit          3D

 23 24  0  0  0  0  0  0  0  0999 V2000
    1.8985   -0.6706   -0.3133 C   0  0  0  0  0  0  0  0  0  0  0  0
    0.5743   -0.1171    0.1359 C   0  0  0  0  0  0  0  0  0  0  0  0
   -0.2120   -1.0485    0.9934 C   0  0  0  0  0  0  0  0  0  0  0  0
   -1.3191   -1.5325    0.0944 C   0  0  0  0  0  0  0  0  0  0  0  0
   -1.6311   -0.3355   -0.7987 C   0  0  0  0  0  0  0  0  0  0  0  0
   -0.2512    0.1942   -1.0812 C   0  0  0  0  0  0  0  0  0  0  0  0
   -0.2022    1.5608   -1.2374 O   0  0  0  0  0  0  0  0  0  0  0  0
   -0.1046    2.1261    0.0305 C   0  0  0  0  0  0  0  0  0  0  0  0
    0.7947    1.1932    0.8391 C   0  0  0  0  0  0  0  0  0  0  0  0
    2.3763    0.1180   -0.9472 H   0  0  0  0  0  0  0  0  0  0  0  0
    1.8089   -1.5617   -0.9507 H   0  0  0  0  0  0  0  0  0  0  0  0
    2.5843   -0.8084    0.5502 H   0  0  0  0  0  0  0  0  0  0  0  0
    0.3818   -1.8557    1.4434 H   0  0  0  0  0  0  0  0  0  0  0  0
   -0.7014   -0.4634    1.8167 H   0  0  0  0  0  0  0  0  0  0  0  0
   -1.0507   -2.4253   -0.4931 H   0  0  0  0  0  0  0  0  0  0  0  0
   -2.2461   -1.7157    0.6939 H   0  0  0  0  0  0  0  0  0  0  0  0
   -2.1238   -0.6671   -1.7282 H   0  0  0  0  0  0  0  0  0  0  0  0
   -2.2244    0.3881   -0.2244 H   0  0  0  0  0  0  0  0  0  0  0  0
    0.1246   -0.3217   -1.9854 H   0  0  0  0  0  0  0  0  0  0  0  0
    0.2726    3.1486   -0.0050 H   0  0  0  0  0  0  0  0  0  0  0  0
   -1.0901    2.1088    0.5272 H   0  0  0  0  0  0  0  0  0  0  0  0
    1.8597    1.5158    0.7308 H   0  0  0  0  0  0  0  0  0  0  0  0
    0.4809    1.1695    1.9092 H   0  0  0  0  0  0  0  0  0  0  0  0
  1  2  1  0
  2  3  1  0
  3  4  1  0
  4  5  1  0
  5  6  1  0
  6  7  1  0
  7  8  1  0
  8  9  1  0
  6  2  1  0
  9  2  1  0
  1 10  1  0
  1 11  1  0
  1 12  1  0
  3 13  1  0
  3 14  1  0
  4 15  1  0
  4 16  1  0
  5 17  1  0
  5 18  1  0
  6 19  1  0
  8 20  1  0
  8 21  1  0
  9 22  1  0
  9 23  1  0
M  END
