
     RDKit          3D

 19 21  0  0  0  0  0  0  0  0999 V2000
   -1.9931    0.0812   -0.1739 C   0  0  0  0  0  0  0  0  0  0  0  0
   -0.5394    0.0160    0.0491 C   0  0  0  0  0  0  0  0  0  0  0  0
    0.1395    1.2937    0.5372 C   0  0  0  0  0  0  0  0  0  0  0  0
    1.5341    1.0680   -0.0660 C   0  0  0  0  0  0  0  0  0  0  0  0
    2.0865   -0.1212    0.3588 O   0  0  0  0  0  0  0  0  0  0  0  0
    1.2173   -1.1069   -0.0966 C   0  0  0  0  0  0  0  0  0  0  0  0
   -0.0080   -1.1963    0.7995 C   0  0  0  0  0  0  0  0  0  0  0  0
    0.3457   -0.3703   -1.0929 C   0  0  0  0  0  0  0  0  0  0  0  0
    1.1543    0.7320   -1.3878 O   0  0  0  0  0  0  0  0  0  0  0  0
   -2.1984    0.1109   -1.2592 H   0  0  0  0  0  0  0  0  0  0  0  0
   -2.4776   -0.8720    0.1931 H   0  0  0  0  0  0  0  0  0  0  0  0
   -2.5263    0.8935    0.3449 H   0  0  0  0  0  0  0  0  0  0  0  0
   -0.2682    2.1718    0.0275 H   0  0  0  0  0  0  0  0  0  0  0  0
    0.1707    1.3713    1.6234 H   0  0  0  0  0  0  0  0  0  0  0  0
    2.1680    1.9370   -0.0096 H   0  0  0  0  0  0  0  0  0  0  0  0
    1.6500   -2.0463   -0.4213 H   0  0  0  0  0  0  0  0  0  0  0  0
   -0.5949   -2.1120    0.6463 H   0  0  0  0  0  0  0  0  0  0  0  0
    0.2015   -0.9223    1.8403 H   0  0  0  0  0  0  0  0  0  0  0  0
   -0.0618   -0.9281   -1.9126 H   0  0  0  0  0  0  0  0  0  0  0  0
  1  2  1  0
  2  3  1  0
  3  4  1  0
  4  5  1  0
  5  6  1  0
  6  7  1  0
  6  8  1  0
  8  9  1  0
  7  2  1  0
  8  2  1  0
  9  4  1  0
  1 10  1  0
  1 11  1  0
  1 12  1  0
  3 13  1  0
  3 14  1  0
  4 15  1  0
  6 16  1  0
  7 17  1  0
  7 18  1  0
  8 19  1  0
M  END
