
     RDKit          3D

 17 19  0  0  0  0  0  0  0  0999 V2000
    2.2779    0.0381   -0.0304 C   0  0  0  0  0  0  0  0  0  0  0  0
    0.8176    0.2979   -0.0990 C   0  0  0  0  0  0  0  0  0  0  0  0
    0.3082    1.3185   -0.9339 O   0  0  0  0  0  0  0  0  0  0  0  0
   -1.0432    1.0697   -1.2121 C   0  0  0  0  0  0  0  0  0  0  0  0
   -1.8176    1.7757   -1.8834 O   0  0  0  0  0  0  0  0  0  0  0  0
   -1.4195   -0.2166   -0.5554 C   0  0  0  0  0  0  0  0  0  0  0  0
   -1.5370   -0.0014    0.9367 C   0  0  0  0  0  0  0  0  0  0  0  0
   -0.0189   -0.2194    1.0066 C   0  0  0  0  0  0  0  0  0  0  0  0
   -0.0776   -0.8334   -0.3170 C   0  0  0  0  0  0  0  0  0  0  0  0
    2.5933    0.1524    1.0481 H   0  0  0  0  0  0  0  0  0  0  0  0
    2.9008    0.7320   -0.6062 H   0  0  0  0  0  0  0  0  0  0  0  0
    2.4925   -1.0245   -0.2965 H   0  0  0  0  0  0  0  0  0  0  0  0
   -2.1868   -0.8074   -1.0374 H   0  0  0  0  0  0  0  0  0  0  0  0
   -1.7907    1.0225    1.2101 H   0  0  0  0  0  0  0  0  0  0  0  0
   -2.0976   -0.8040    1.4557 H   0  0  0  0  0  0  0  0  0  0  0  0
    0.4159   -0.6649    1.8978 H   0  0  0  0  0  0  0  0  0  0  0  0
    0.1826   -1.8350   -0.5837 H   0  0  0  0  0  0  0  0  0  0  0  0
  1  2  1  0
  2  3  1  0
  3  4  1  0
  4  5  2  0
  4  6  1  0
  6  7  1  0
  7  8  1  0
  8  9  1  0
  8  2  1  0
  9  2  1  0
  9  6  1  0
  1 10  1  0
  1 11  1  0
  1 12  1  0
  6 13  1  0
  7 14  1  0
  7 15  1  0
  8 16  1  0
  9 17  1  0
M  END
