
     RDKit          3D

 17 18  0  0  0  0  0  0  0  0999 V2000
   -0.7018    1.8575   -0.1827 C   0  0  0  0  0  0  0  0  0  0  0  0
   -0.4028    0.4027   -0.4151 C   0  0  0  0  0  0  0  0  0  0  0  0
   -1.0057   -0.2645   -1.4777 O   0  0  0  0  0  0  0  0  0  0  0  0
   -1.3644   -0.6026   -0.1933 C   0  0  0  0  0  0  0  0  0  0  0  0
   -0.6708   -1.7249    0.5292 C   0  0  0  0  0  0  0  0  0  0  0  0
    0.7476   -1.3453    0.4796 C   0  0  0  0  0  0  0  0  0  0  0  0
    0.9157   -0.1498   -0.0493 C   0  0  0  0  0  0  0  0  0  0  0  0
    2.1750    0.5280   -0.2480 C   0  0  0  0  0  0  0  0  0  0  0  0
    3.2874    0.0196    0.0798 O   0  0  0  0  0  0  0  0  0  0  0  0
   -0.8151    2.1104    0.8943 H   0  0  0  0  0  0  0  0  0  0  0  0
   -1.6846    2.0756   -0.6621 H   0  0  0  0  0  0  0  0  0  0  0  0
    0.1040    2.4781   -0.6595 H   0  0  0  0  0  0  0  0  0  0  0  0
   -2.4237   -0.4449    0.0804 H   0  0  0  0  0  0  0  0  0  0  0  0
   -0.8765   -2.7104    0.0672 H   0  0  0  0  0  0  0  0  0  0  0  0
   -0.9929   -1.7205    1.5976 H   0  0  0  0  0  0  0  0  0  0  0  0
    1.5379   -2.0169    0.8536 H   0  0  0  0  0  0  0  0  0  0  0  0
    2.1707    1.5080   -0.6940 H   0  0  0  0  0  0  0  0  0  0  0  0
  1  2  1  0
  2  3  1  0
  3  4  1  0
  4  5  1  0
  5  6  1  0
  6  7  2  0
  7  8  1  0
  8  9  2  0
  4  2  1  0
  7  2  1  0
  1 10  1  0
  1 11  1  0
  1 12  1  0
  4 13  1  0
  5 14  1  0
  5 15  1  0
  6 16  1  0
  8 17  1  0
M  END
