
     RDKit          3D

 15 16  0  0  0  0  0  0  0  0999 V2000
   -1.7938   -0.4438   -0.5796 C   0  0  0  0  0  0  0  0  0  0  0  0
   -0.3644   -0.0675   -0.3801 C   0  0  0  0  0  0  0  0  0  0  0  0
    0.0348    1.3731   -0.2465 C   0  0  0  0  0  0  0  0  0  0  0  0
    0.1686    0.4360    0.8821 C   0  0  0  0  0  0  0  0  0  0  0  0
    1.4249   -0.3166    1.0819 C   0  0  0  0  0  0  0  0  0  0  0  0
    2.0992   -0.4476    2.1193 O   0  0  0  0  0  0  0  0  0  0  0  0
    1.7327   -0.9018   -0.2357 C   0  0  0  0  0  0  0  0  0  0  0  0
    2.8477   -1.3523   -0.6009 O   0  0  0  0  0  0  0  0  0  0  0  0
    0.6028   -0.8795   -1.0121 O   0  0  0  0  0  0  0  0  0  0  0  0
   -2.1730    0.0422   -1.4893 H   0  0  0  0  0  0  0  0  0  0  0  0
   -2.3624   -0.1779    0.3362 H   0  0  0  0  0  0  0  0  0  0  0  0
   -1.8361   -1.5641   -0.6430 H   0  0  0  0  0  0  0  0  0  0  0  0
    0.9294    1.7400   -0.7751 H   0  0  0  0  0  0  0  0  0  0  0  0
   -0.8208    2.0752   -0.2256 H   0  0  0  0  0  0  0  0  0  0  0  0
   -0.4897    0.4844    1.7682 H   0  0  0  0  0  0  0  0  0  0  0  0
  1  2  1  0
  2  3  1  0
  3  4  1  0
  4  5  1  0
  5  6  2  0
  5  7  1  0
  7  8  2  0
  7  9  1  0
  4  2  1  0
  9  2  1  0
  1 10  1  0
  1 11  1  0
  1 12  1  0
  3 13  1  0
  3 14  1  0
  4 15  1  0
M  END
