
     RDKit          3D

 19 21  0  0  0  0  0  0  0  0999 V2000
   -0.8201    1.8374   -0.6285 C   0  0  0  0  0  0  0  0  0  0  0  0
   -0.2651    0.5469   -0.1748 C   0  0  0  0  0  0  0  0  0  0  0  0
    0.3568   -0.4423   -1.1053 C   0  0  0  0  0  0  0  0  0  0  0  0
    1.7172   -0.6880   -0.5187 C   0  0  0  0  0  0  0  0  0  0  0  0
    1.7434   -0.2073    0.7193 C   0  0  0  0  0  0  0  0  0  0  0  0
    0.4693    0.3966    1.1146 C   0  0  0  0  0  0  0  0  0  0  0  0
   -0.8305   -0.2720    0.9072 C   0  0  0  0  0  0  0  0  0  0  0  0
   -0.9214   -1.6411    0.2908 C   0  0  0  0  0  0  0  0  0  0  0  0
   -0.3824   -1.5870   -0.9686 O   0  0  0  0  0  0  0  0  0  0  0  0
   -0.0204    2.6204   -0.6999 H   0  0  0  0  0  0  0  0  0  0  0  0
   -1.2862    1.7440   -1.6042 H   0  0  0  0  0  0  0  0  0  0  0  0
   -1.5630    2.2155    0.1121 H   0  0  0  0  0  0  0  0  0  0  0  0
    0.4063   -0.0918   -2.1453 H   0  0  0  0  0  0  0  0  0  0  0  0
    2.5415   -1.1798   -1.0300 H   0  0  0  0  0  0  0  0  0  0  0  0
    2.6217   -0.2652    1.3524 H   0  0  0  0  0  0  0  0  0  0  0  0
    0.4483    1.2984    1.7539 H   0  0  0  0  0  0  0  0  0  0  0  0
   -1.6800    0.0320    1.5280 H   0  0  0  0  0  0  0  0  0  0  0  0
   -2.0188   -1.8805    0.1638 H   0  0  0  0  0  0  0  0  0  0  0  0
   -0.5166   -2.4361    0.9332 H   0  0  0  0  0  0  0  0  0  0  0  0
  1  2  1  0
  2  3  1  0
  3  4  1  0
  4  5  2  0
  5  6  1  0
  6  7  1  0
  7  8  1  0
  8  9  1  0
  6  2  1  0
  7  2  1  0
  9  3  1  0
  1 10  1  0
  1 11  1  0
  1 12  1  0
  3 13  1  0
  4 14  1  0
  5 15  1  0
  6 16  1  0
  7 17  1  0
  8 18  1  0
  8 19  1  0
M  END
