
     RDKit          3D

 21 22  0  0  0  0  0  0  0  0999 V2000
    1.8890    0.5802    0.5255 C   0  0  0  0  0  0  0  0  0  0  0  0
    0.6273   -0.0219    0.1264 C   0  0  0  0  0  0  0  0  0  0  0  0
   -0.0778   -0.8789    1.1370 C   0  0  0  0  0  0  0  0  0  0  0  0
   -1.5232   -0.9133    0.6074 C   0  0  0  0  0  0  0  0  0  0  0  0
   -1.4594   -0.1221   -0.6825 C   0  0  0  0  0  0  0  0  0  0  0  0
   -0.6870   -0.7786   -1.6302 O   0  0  0  0  0  0  0  0  0  0  0  0
    0.6259   -0.7804   -1.1843 C   0  0  0  0  0  0  0  0  0  0  0  0
   -0.4889    0.9807   -0.2128 C   0  0  0  0  0  0  0  0  0  0  0  0
   -0.1439    1.8323   -1.2171 O   0  0  0  0  0  0  0  0  0  0  0  0
    2.1716    0.3200    1.5855 H   0  0  0  0  0  0  0  0  0  0  0  0
    2.7660    0.3714   -0.1210 H   0  0  0  0  0  0  0  0  0  0  0  0
    1.7829    1.7035    0.5486 H   0  0  0  0  0  0  0  0  0  0  0  0
   -0.0386   -0.4878    2.1630 H   0  0  0  0  0  0  0  0  0  0  0  0
    0.3116   -1.9143    1.0352 H   0  0  0  0  0  0  0  0  0  0  0  0
   -2.1506   -0.2923    1.3108 H   0  0  0  0  0  0  0  0  0  0  0  0
   -1.8941   -1.9264    0.4890 H   0  0  0  0  0  0  0  0  0  0  0  0
   -2.3942    0.2614   -1.0377 H   0  0  0  0  0  0  0  0  0  0  0  0
    1.2313   -0.2572   -1.9643 H   0  0  0  0  0  0  0  0  0  0  0  0
    1.0539   -1.7736   -1.0590 H   0  0  0  0  0  0  0  0  0  0  0  0
   -0.9363    1.4180    0.6730 H   0  0  0  0  0  0  0  0  0  0  0  0
   -0.6653    2.6791   -1.0925 H   0  0  0  0  0  0  0  0  0  0  0  0
  1  2  1  0
  2  3  1  0
  3  4  1  0
  4  5  1  0
  5  6  1  0
  6  7  1  0
  5  8  1  0
  8  9  1  0
  7  2  1  0
  8  2  1  0
  1 10  1  0
  1 11  1  0
  1 12  1  0
  3 13  1  0
  3 14  1  0
  4 15  1  0
  4 16  1  0
  5 17  1  0
  7 18  1  0
  7 19  1  0
  8 20  1  0
  9 21  1  0
M  END
