
     RDKit          3D

 17 18  0  0  0  0  0  0  0  0999 V2000
   -1.8584    0.9311    0.2766 C   0  0  0  0  0  0  0  0  0  0  0  0
   -0.5471    0.3889   -0.2593 C   0  0  0  0  0  0  0  0  0  0  0  0
   -0.5061   -0.8008   -1.1151 C   0  0  0  0  0  0  0  0  0  0  0  0
   -0.0738   -0.8489    0.3175 C   0  0  0  0  0  0  0  0  0  0  0  0
    1.3415   -0.9738    0.6966 C   0  0  0  0  0  0  0  0  0  0  0  0
    2.1943    0.0342    0.2459 O   0  0  0  0  0  0  0  0  0  0  0  0
    1.7529    1.2263   -0.2630 C   0  0  0  0  0  0  0  0  0  0  0  0
    2.5968    2.1282   -0.4917 O   0  0  0  0  0  0  0  0  0  0  0  0
    0.4121    1.3902   -0.5030 O   0  0  0  0  0  0  0  0  0  0  0  0
   -2.3453    1.6390   -0.3871 H   0  0  0  0  0  0  0  0  0  0  0  0
   -2.5365    0.0807    0.4950 H   0  0  0  0  0  0  0  0  0  0  0  0
   -1.6127    1.3825    1.2823 H   0  0  0  0  0  0  0  0  0  0  0  0
   -1.4596   -1.2982   -1.4244 H   0  0  0  0  0  0  0  0  0  0  0  0
    0.2662   -0.8827   -1.9153 H   0  0  0  0  0  0  0  0  0  0  0  0
   -0.7858   -1.4338    0.9659 H   0  0  0  0  0  0  0  0  0  0  0  0
    1.7377   -1.9443    0.2776 H   0  0  0  0  0  0  0  0  0  0  0  0
    1.4240   -1.0186    1.8015 H   0  0  0  0  0  0  0  0  0  0  0  0
  1  2  1  0
  2  3  1  0
  3  4  1  0
  4  5  1  0
  5  6  1  0
  6  7  1  0
  7  8  2  0
  7  9  1  0
  4  2  1  0
  9  2  1  0
  1 10  1  0
  1 11  1  0
  1 12  1  0
  3 13  1  0
  3 14  1  0
  4 15  1  0
  5 16  1  0
  5 17  1  0
M  END
