
     RDKit          3D

 21 22  0  0  0  0  0  0  0  0999 V2000
   -2.3572    0.3975    0.0949 C   0  0  0  0  0  0  0  0  0  0  0  0
   -1.0102    0.0380   -0.2021 C   0  0  0  0  0  0  0  0  0  0  0  0
   -0.5555   -0.3000   -1.5582 C   0  0  0  0  0  0  0  0  0  0  0  0
    0.7608   -0.5710   -1.3738 C   0  0  0  0  0  0  0  0  0  0  0  0
    0.9333   -0.3674    0.0693 C   0  0  0  0  0  0  0  0  0  0  0  0
    2.1922   -0.5386    0.7289 C   0  0  0  0  0  0  0  0  0  0  0  0
   -0.3149   -1.0507    0.6287 C   0  0  0  0  0  0  0  0  0  0  0  0
    0.1396    0.9276    0.2891 C   0  0  0  0  0  0  0  0  0  0  0  0
    0.4716    1.9366   -0.5941 O   0  0  0  0  0  0  0  0  0  0  0  0
   -3.0478    0.1543   -0.7293 H   0  0  0  0  0  0  0  0  0  0  0  0
   -2.7313   -0.0826    1.0212 H   0  0  0  0  0  0  0  0  0  0  0  0
   -2.4593    1.5073    0.2602 H   0  0  0  0  0  0  0  0  0  0  0  0
   -1.1378   -0.3231   -2.4698 H   0  0  0  0  0  0  0  0  0  0  0  0
    1.4917   -0.8639   -2.1164 H   0  0  0  0  0  0  0  0  0  0  0  0
    2.8549   -1.2224    0.1691 H   0  0  0  0  0  0  0  0  0  0  0  0
    2.7395    0.4217    0.8199 H   0  0  0  0  0  0  0  0  0  0  0  0
    2.0558   -0.9415    1.7540 H   0  0  0  0  0  0  0  0  0  0  0  0
   -0.4442   -0.9540    1.7094 H   0  0  0  0  0  0  0  0  0  0  0  0
   -0.4909   -2.0498    0.2340 H   0  0  0  0  0  0  0  0  0  0  0  0
    0.0756    1.2013    1.3415 H   0  0  0  0  0  0  0  0  0  0  0  0
    0.8341    2.6810   -0.0765 H   0  0  0  0  0  0  0  0  0  0  0  0
  1  2  1  0
  2  3  1  0
  3  4  2  0
  4  5  1  0
  5  6  1  0
  5  7  1  0
  5  8  1  0
  8  9  1  0
  7  2  1  0
  8  2  1  0
  1 10  1  0
  1 11  1  0
  1 12  1  0
  3 13  1  0
  4 14  1  0
  6 15  1  0
  6 16  1  0
  6 17  1  0
  7 18  1  0
  7 19  1  0
  8 20  1  0
  9 21  1  0
M  END
