
     RDKit          3D

 25 26  0  0  0  0  0  0  0  0999 V2000
   -2.2031   -1.2399    0.1351 C   0  0  0  0  0  0  0  0  0  0  0  0
   -1.0206   -0.3352    0.0088 C   0  0  0  0  0  0  0  0  0  0  0  0
   -1.2977    1.1109   -0.2252 C   0  0  0  0  0  0  0  0  0  0  0  0
   -0.1486    1.9548    0.3287 C   0  0  0  0  0  0  0  0  0  0  0  0
    1.1313    1.2917   -0.1639 C   0  0  0  0  0  0  0  0  0  0  0  0
    1.0579   -0.1936   -0.0670 C   0  0  0  0  0  0  0  0  0  0  0  0
    2.3631   -0.9197   -0.0051 C   0  0  0  0  0  0  0  0  0  0  0  0
    0.0745   -0.5652    1.0442 C   0  0  0  0  0  0  0  0  0  0  0  0
    0.0287   -0.7933   -1.0164 C   0  0  0  0  0  0  0  0  0  0  0  0
   -1.9651   -2.2864   -0.0816 H   0  0  0  0  0  0  0  0  0  0  0  0
   -2.6519   -1.1476    1.1492 H   0  0  0  0  0  0  0  0  0  0  0  0
   -2.9699   -0.9076   -0.5772 H   0  0  0  0  0  0  0  0  0  0  0  0
   -2.2747    1.4519    0.1343 H   0  0  0  0  0  0  0  0  0  0  0  0
   -1.2544    1.2759   -1.3418 H   0  0  0  0  0  0  0  0  0  0  0  0
   -0.1863    2.0603    1.4101 H   0  0  0  0  0  0  0  0  0  0  0  0
   -0.1760    2.9837   -0.1090 H   0  0  0  0  0  0  0  0  0  0  0  0
    2.0054    1.6507    0.3784 H   0  0  0  0  0  0  0  0  0  0  0  0
    1.2527    1.6427   -1.2305 H   0  0  0  0  0  0  0  0  0  0  0  0
    2.9546   -0.5471    0.8247 H   0  0  0  0  0  0  0  0  0  0  0  0
    2.9016   -0.7261   -0.9550 H   0  0  0  0  0  0  0  0  0  0  0  0
    2.1352   -2.0139    0.1106 H   0  0  0  0  0  0  0  0  0  0  0  0
    0.1386   -1.6348    1.3098 H   0  0  0  0  0  0  0  0  0  0  0  0
    0.0616    0.0956    1.9033 H   0  0  0  0  0  0  0  0  0  0  0  0
   -0.0467   -0.3176   -1.9899 H   0  0  0  0  0  0  0  0  0  0  0  0
    0.0898   -1.8903   -0.9746 H   0  0  0  0  0  0  0  0  0  0  0  0
  1  2  1  0
  2  3  1  0
  3  4  1  0
  4  5  1  0
  5  6  1  0
  6  7  1  0
  6  8  1  0
  6  9  1  0
  8  2  1  0
  9  2  1  0
  1 10  1  0
  1 11  1  0
  1 12  1  0
  3 13  1  0
  3 14  1  0
  4 15  1  0
  4 16  1  0
  5 17  1  0
  5 18  1  0
  7 19  1  0
  7 20  1  0
  7 21  1  0
  8 22  1  0
  8 23  1  0
  9 24  1  0
  9 25  1  0
M  END
