
     RDKit          3D

 18 20  0  0  0  0  0  0  0  0999 V2000
   -1.4692    1.3192   -0.1071 C   0  0  0  0  0  0  0  0  0  0  0  0
   -0.7635    0.0034   -0.0670 C   0  0  0  0  0  0  0  0  0  0  0  0
   -1.4628   -1.1502    0.5376 C   0  0  0  0  0  0  0  0  0  0  0  0
   -0.2061   -0.5881    1.1451 C   0  0  0  0  0  0  0  0  0  0  0  0
    1.0712   -0.9253    0.4513 C   0  0  0  0  0  0  0  0  0  0  0  0
    1.8329    0.1244   -0.2620 C   0  0  0  0  0  0  0  0  0  0  0  0
    2.0226    1.3219    0.4019 O   0  0  0  0  0  0  0  0  0  0  0  0
    0.5016   -0.2401   -0.8042 C   0  0  0  0  0  0  0  0  0  0  0  0
   -0.7689    2.1476   -0.3748 H   0  0  0  0  0  0  0  0  0  0  0  0
   -2.3106    1.2746   -0.8396 H   0  0  0  0  0  0  0  0  0  0  0  0
   -1.9027    1.5959    0.8833 H   0  0  0  0  0  0  0  0  0  0  0  0
   -1.3849   -2.1327    0.0145 H   0  0  0  0  0  0  0  0  0  0  0  0
   -2.4381   -0.9512    0.9996 H   0  0  0  0  0  0  0  0  0  0  0  0
   -0.2302   -0.0378    2.0929 H   0  0  0  0  0  0  0  0  0  0  0  0
    1.4083   -1.9652    0.3701 H   0  0  0  0  0  0  0  0  0  0  0  0
    2.6933   -0.2058   -0.8808 H   0  0  0  0  0  0  0  0  0  0  0  0
    2.9847    1.3364    0.6857 H   0  0  0  0  0  0  0  0  0  0  0  0
    0.4225   -0.9270   -1.6632 H   0  0  0  0  0  0  0  0  0  0  0  0
  1  2  1  0
  2  3  1  0
  3  4  1  0
  4  5  1  0
  5  6  1  0
  6  7  1  0
  6  8  1  0
  4  2  1  0
  8  5  1  0
  8  2  1  0
  1  9  1  0
  1 10  1  0
  1 11  1  0
  3 12  1  0
  3 13  1  0
  4 14  1  0
  5 15  1  0
  6 16  1  0
  7 17  1  0
  8 18  1  0
M  END
