
     RDKit          3D

 23 25  0  0  0  0  0  0  0  0999 V2000
   -0.3383    2.1297   -0.0686 C   0  0  0  0  0  0  0  0  0  0  0  0
   -0.1064    0.6661   -0.1969 C   0  0  0  0  0  0  0  0  0  0  0  0
   -1.2409    0.0052   -0.9562 C   0  0  0  0  0  0  0  0  0  0  0  0
   -1.2505   -1.4094   -0.4152 C   0  0  0  0  0  0  0  0  0  0  0  0
   -1.0629   -1.1654    1.0702 C   0  0  0  0  0  0  0  0  0  0  0  0
    0.0534   -0.1259    1.0547 C   0  0  0  0  0  0  0  0  0  0  0  0
    1.2949   -0.7583    0.4530 C   0  0  0  0  0  0  0  0  0  0  0  0
    2.4263    0.1476    0.1207 C   0  0  0  0  0  0  0  0  0  0  0  0
    1.2106    0.2139   -0.7207 C   0  0  0  0  0  0  0  0  0  0  0  0
   -1.4429    2.3151   -0.0213 H   0  0  0  0  0  0  0  0  0  0  0  0
    0.1063    2.6090    0.8013 H   0  0  0  0  0  0  0  0  0  0  0  0
    0.0093    2.6617   -0.9936 H   0  0  0  0  0  0  0  0  0  0  0  0
   -1.0624   -0.0361   -2.0405 H   0  0  0  0  0  0  0  0  0  0  0  0
   -2.1903    0.4817   -0.6666 H   0  0  0  0  0  0  0  0  0  0  0  0
   -0.3767   -1.9287   -0.8352 H   0  0  0  0  0  0  0  0  0  0  0  0
   -2.1728   -1.9471   -0.6522 H   0  0  0  0  0  0  0  0  0  0  0  0
   -1.9870   -0.7828    1.5199 H   0  0  0  0  0  0  0  0  0  0  0  0
   -0.6564   -2.0680    1.5583 H   0  0  0  0  0  0  0  0  0  0  0  0
    0.2045    0.4142    1.9928 H   0  0  0  0  0  0  0  0  0  0  0  0
    1.3383   -1.8307    0.2686 H   0  0  0  0  0  0  0  0  0  0  0  0
    2.7050    0.9418    0.8277 H   0  0  0  0  0  0  0  0  0  0  0  0
    3.2966   -0.3621   -0.3558 H   0  0  0  0  0  0  0  0  0  0  0  0
    1.2423   -0.1715   -1.7444 H   0  0  0  0  0  0  0  0  0  0  0  0
  1  2  1  0
  2  3  1  0
  3  4  1  0
  4  5  1  0
  5  6  1  0
  6  7  1  0
  7  8  1  0
  8  9  1  0
  6  2  1  0
  9  7  1  0
  9  2  1  0
  1 10  1  0
  1 11  1  0
  1 12  1  0
  3 13  1  0
  3 14  1  0
  4 15  1  0
  4 16  1  0
  5 17  1  0
  5 18  1  0
  6 19  1  0
  7 20  1  0
  8 21  1  0
  8 22  1  0
  9 23  1  0
M  END
