
     RDKit          3D

 19 20  0  0  0  0  0  0  0  0999 V2000
   -1.4948    1.3543   -0.0084 C   0  0  0  0  0  0  0  0  0  0  0  0
   -0.6646    0.1869   -0.4594 C   0  0  0  0  0  0  0  0  0  0  0  0
   -1.2196   -1.2154   -0.2225 C   0  0  0  0  0  0  0  0  0  0  0  0
   -0.1420   -1.9373    0.4725 C   0  0  0  0  0  0  0  0  0  0  0  0
   -0.3108   -2.9357    1.1499 O   0  0  0  0  0  0  0  0  0  0  0  0
    1.1122   -1.2239    0.1825 C   0  0  0  0  0  0  0  0  0  0  0  0
    0.7357    0.1412   -0.3208 C   0  0  0  0  0  0  0  0  0  0  0  0
    1.6403    1.2772    0.0777 C   0  0  0  0  0  0  0  0  0  0  0  0
    0.1379    0.2785   -1.5655 O   0  0  0  0  0  0  0  0  0  0  0  0
   -0.9007    2.2175    0.3200 H   0  0  0  0  0  0  0  0  0  0  0  0
   -2.1941    1.7188   -0.7856 H   0  0  0  0  0  0  0  0  0  0  0  0
   -2.1106    1.0341    0.8571 H   0  0  0  0  0  0  0  0  0  0  0  0
   -2.1594   -1.1608    0.3581 H   0  0  0  0  0  0  0  0  0  0  0  0
   -1.4272   -1.6847   -1.1927 H   0  0  0  0  0  0  0  0  0  0  0  0
    1.8043   -1.7709   -0.4658 H   0  0  0  0  0  0  0  0  0  0  0  0
    1.6343   -1.0688    1.1647 H   0  0  0  0  0  0  0  0  0  0  0  0
    2.4971    1.2983   -0.6308 H   0  0  0  0  0  0  0  0  0  0  0  0
    1.9547    1.2300    1.1343 H   0  0  0  0  0  0  0  0  0  0  0  0
    1.1073    2.2608   -0.0655 H   0  0  0  0  0  0  0  0  0  0  0  0
  1  2  1  0
  2  3  1  0
  3  4  1  0
  4  5  2  0
  4  6  1  0
  6  7  1  0
  7  8  1  0
  7  9  1  0
  7  2  1  0
  9  2  1  0
  1 10  1  0
  1 11  1  0
  1 12  1  0
  3 13  1  0
  3 14  1  0
  6 15  1  0
  6 16  1  0
  8 17  1  0
  8 18  1  0
  8 19  1  0
M  END
