
     RDKit          3D

 19 20  0  0  0  0  0  0  0  0999 V2000
   -1.6277    1.1064   -0.4848 C   0  0  0  0  0  0  0  0  0  0  0  0
   -0.7969    0.0512    0.1836 C   0  0  0  0  0  0  0  0  0  0  0  0
    0.3550    0.5422    0.9874 C   0  0  0  0  0  0  0  0  0  0  0  0
    1.4844   -0.3798    0.6180 C   0  0  0  0  0  0  0  0  0  0  0  0
    2.4640    0.2741   -0.2798 C   0  0  0  0  0  0  0  0  0  0  0  0
    2.6737   -0.1967   -1.3815 O   0  0  0  0  0  0  0  0  0  0  0  0
    0.9564   -1.4755   -0.0044 O   0  0  0  0  0  0  0  0  0  0  0  0
   -0.2678   -1.1118   -0.5544 C   0  0  0  0  0  0  0  0  0  0  0  0
   -1.4210   -1.2657    0.4004 C   0  0  0  0  0  0  0  0  0  0  0  0
   -1.0367    1.7789   -1.1357 H   0  0  0  0  0  0  0  0  0  0  0  0
   -2.4832    0.6668   -1.0427 H   0  0  0  0  0  0  0  0  0  0  0  0
   -2.0376    1.7521    0.3296 H   0  0  0  0  0  0  0  0  0  0  0  0
    0.1694    0.5892    2.0752 H   0  0  0  0  0  0  0  0  0  0  0  0
    0.6323    1.5620    0.6560 H   0  0  0  0  0  0  0  0  0  0  0  0
    2.0151   -0.6468    1.5621 H   0  0  0  0  0  0  0  0  0  0  0  0
    3.0215    1.1642   -0.0198 H   0  0  0  0  0  0  0  0  0  0  0  0
   -0.4194   -1.1241   -1.6337 H   0  0  0  0  0  0  0  0  0  0  0  0
   -2.3907   -1.4446   -0.0948 H   0  0  0  0  0  0  0  0  0  0  0  0
   -1.2908   -1.8420    1.3366 H   0  0  0  0  0  0  0  0  0  0  0  0
  1  2  1  0
  2  3  1  0
  3  4  1  0
  4  5  1  0
  5  6  2  0
  4  7  1  0
  7  8  1  0
  8  9  1  0
  8  2  1  0
  9  2  1  0
  1 10  1  0
  1 11  1  0
  1 12  1  0
  3 13  1  0
  3 14  1  0
  4 15  1  0
  5 16  1  0
  8 17  1  0
  9 18  1  0
  9 19  1  0
M  END
