
     RDKit          3D

 17 18  0  0  0  0  0  0  0  0999 V2000
    2.1473    0.0634    0.0951 C   0  0  0  0  0  0  0  0  0  0  0  0
    0.7261    0.0587   -0.1793 C   0  0  0  0  0  0  0  0  0  0  0  0
   -0.1842   -0.7979    0.7043 C   0  0  0  0  0  0  0  0  0  0  0  0
   -1.4541   -0.6186   -0.1490 C   0  0  0  0  0  0  0  0  0  0  0  0
   -2.5325   -0.2443    0.5833 O   0  0  0  0  0  0  0  0  0  0  0  0
   -0.9148    0.4389   -1.0755 C   0  0  0  0  0  0  0  0  0  0  0  0
    0.2847   -0.1971   -1.4892 O   0  0  0  0  0  0  0  0  0  0  0  0
   -0.0359    1.3025   -0.2730 C   0  0  0  0  0  0  0  0  0  0  0  0
    0.0050    2.4284    0.0925 O   0  0  0  0  0  0  0  0  0  0  0  0
    2.4104   -0.6953    0.8817 H   0  0  0  0  0  0  0  0  0  0  0  0
    2.5662    1.0668    0.3819 H   0  0  0  0  0  0  0  0  0  0  0  0
    2.7398   -0.2396   -0.8051 H   0  0  0  0  0  0  0  0  0  0  0  0
   -0.3613   -0.3379    1.6778 H   0  0  0  0  0  0  0  0  0  0  0  0
    0.1305   -1.8442    0.7261 H   0  0  0  0  0  0  0  0  0  0  0  0
   -1.6065   -1.5557   -0.6884 H   0  0  0  0  0  0  0  0  0  0  0  0
   -2.3858    0.3249    1.3492 H   0  0  0  0  0  0  0  0  0  0  0  0
   -1.5350    0.8469   -1.8322 H   0  0  0  0  0  0  0  0  0  0  0  0
  1  2  1  0
  2  3  1  0
  3  4  1  0
  4  5  1  0
  4  6  1  0
  6  7  1  0
  6  8  1  0
  8  9  2  0
  7  2  1  0
  8  2  1  0
  1 10  1  0
  1 11  1  0
  1 12  1  0
  3 13  1  0
  3 14  1  0
  4 15  1  0
  5 16  1  0
  6 17  1  0
M  END
