
     RDKit          3D

 21 23  0  0  0  0  0  0  0  0999 V2000
    2.1271   -0.3947   -0.0093 C   0  0  0  0  0  0  0  0  0  0  0  0
    0.7314   -0.0041   -0.1713 C   0  0  0  0  0  0  0  0  0  0  0  0
    0.4513    1.2197   -0.9932 C   0  0  0  0  0  0  0  0  0  0  0  0
   -0.6127    1.8607   -0.5140 C   0  0  0  0  0  0  0  0  0  0  0  0
   -1.3121    0.8276    0.2949 C   0  0  0  0  0  0  0  0  0  0  0  0
   -1.5241   -0.3504   -0.6677 C   0  0  0  0  0  0  0  0  0  0  0  0
   -0.2911   -1.1262   -0.3546 C   0  0  0  0  0  0  0  0  0  0  0  0
   -0.3604   -1.1574    1.1775 C   0  0  0  0  0  0  0  0  0  0  0  0
   -0.0959    0.2964    1.0602 C   0  0  0  0  0  0  0  0  0  0  0  0
    2.7934    0.3851   -0.4814 H   0  0  0  0  0  0  0  0  0  0  0  0
    2.3157   -1.3158   -0.6343 H   0  0  0  0  0  0  0  0  0  0  0  0
    2.4633   -0.6487    1.0035 H   0  0  0  0  0  0  0  0  0  0  0  0
    1.0204    1.5552   -1.8584 H   0  0  0  0  0  0  0  0  0  0  0  0
   -0.8878    2.8826   -0.6807 H   0  0  0  0  0  0  0  0  0  0  0  0
   -2.1396    1.1160    0.8695 H   0  0  0  0  0  0  0  0  0  0  0  0
   -1.4733   -0.0286   -1.7265 H   0  0  0  0  0  0  0  0  0  0  0  0
   -2.4553   -0.8941   -0.4433 H   0  0  0  0  0  0  0  0  0  0  0  0
   -0.0150   -1.9952   -0.8681 H   0  0  0  0  0  0  0  0  0  0  0  0
    0.3865   -1.7829    1.6535 H   0  0  0  0  0  0  0  0  0  0  0  0
   -1.4276   -1.3186    1.5036 H   0  0  0  0  0  0  0  0  0  0  0  0
    0.3059    0.8734    1.8399 H   0  0  0  0  0  0  0  0  0  0  0  0
  1  2  1  0
  2  3  1  0
  3  4  2  0
  4  5  1  0
  5  6  1  0
  6  7  1  0
  7  8  1  0
  8  9  1  0
  7  2  1  0
  9  2  1  0
  9  5  1  0
  1 10  1  0
  1 11  1  0
  1 12  1  0
  3 13  1  0
  4 14  1  0
  5 15  1  0
  6 16  1  0
  6 17  1  0
  7 18  1  0
  8 19  1  0
  8 20  1  0
  9 21  1  0
M  END
