
     RDKit          3D

 15 17  0  0  0  0  0  0  0  0999 V2000
    1.9189    0.2548    0.6083 C   0  0  0  0  0  0  0  0  0  0  0  0
    0.5007   -0.3479    0.6794 C   0  0  0  0  0  0  0  0  0  0  0  0
    0.7251   -1.7051    0.4967 O   0  0  0  0  0  0  0  0  0  0  0  0
   -0.0384   -1.2160   -0.4703 C   0  0  0  0  0  0  0  0  0  0  0  0
   -1.4033   -0.6663   -0.0218 C   0  0  0  0  0  0  0  0  0  0  0  0
   -1.8218    0.7350   -0.0032 C   0  0  0  0  0  0  0  0  0  0  0  0
   -0.4194    0.5573   -0.0389 C   0  0  0  0  0  0  0  0  0  0  0  0
    2.6222   -0.2598    1.2490 H   0  0  0  0  0  0  0  0  0  0  0  0
    2.1953    0.3884   -0.4328 H   0  0  0  0  0  0  0  0  0  0  0  0
    1.7886    1.2879    1.0425 H   0  0  0  0  0  0  0  0  0  0  0  0
    0.3190   -0.9314   -1.4830 H   0  0  0  0  0  0  0  0  0  0  0  0
   -1.6853   -1.1218    0.9492 H   0  0  0  0  0  0  0  0  0  0  0  0
   -2.4476    1.0283   -0.8870 H   0  0  0  0  0  0  0  0  0  0  0  0
   -2.2336    1.2620    0.9093 H   0  0  0  0  0  0  0  0  0  0  0  0
   -0.0206    0.7345   -1.0988 H   0  0  0  0  0  0  0  0  0  0  0  0
  1  2  1  0
  2  3  1  0
  3  4  1  0
  4  5  1  0
  5  6  1  0
  6  7  1  0
  4  2  1  0
  7  5  1  0
  7  2  1  0
  1  8  1  0
  1  9  1  0
  1 10  1  0
  4 11  1  0
  5 12  1  0
  6 13  1  0
  6 14  1  0
  7 15  1  0
M  END
