
     RDKit          3D

 19 20  0  0  0  0  0  0  0  0999 V2000
    2.3411   -0.0126   -0.0099 C   0  0  0  0  0  0  0  0  0  0  0  0
    0.8527    0.0834   -0.1592 C   0  0  0  0  0  0  0  0  0  0  0  0
    0.4258    1.4941   -0.4861 C   0  0  0  0  0  0  0  0  0  0  0  0
   -0.7540    1.6355    0.0998 C   0  0  0  0  0  0  0  0  0  0  0  0
   -1.0181    0.4246    0.8766 C   0  0  0  0  0  0  0  0  0  0  0  0
   -1.7605   -0.6375    0.0824 C   0  0  0  0  0  0  0  0  0  0  0  0
   -0.6848   -1.5268   -0.5390 C   0  0  0  0  0  0  0  0  0  0  0  0
    0.3317   -0.7474   -1.1207 O   0  0  0  0  0  0  0  0  0  0  0  0
    0.2712   -0.0939    1.0916 O   0  0  0  0  0  0  0  0  0  0  0  0
    2.8937    0.1744   -0.9381 H   0  0  0  0  0  0  0  0  0  0  0  0
    2.6321    0.7353    0.7780 H   0  0  0  0  0  0  0  0  0  0  0  0
    2.5614   -1.0041    0.4480 H   0  0  0  0  0  0  0  0  0  0  0  0
    0.9857    2.2038   -1.0720 H   0  0  0  0  0  0  0  0  0  0  0  0
   -1.3977    2.4936    0.0136 H   0  0  0  0  0  0  0  0  0  0  0  0
   -1.5656    0.5717    1.8120 H   0  0  0  0  0  0  0  0  0  0  0  0
   -2.4084   -0.2004   -0.6953 H   0  0  0  0  0  0  0  0  0  0  0  0
   -2.3377   -1.2869    0.7742 H   0  0  0  0  0  0  0  0  0  0  0  0
   -0.2177   -2.0915    0.2985 H   0  0  0  0  0  0  0  0  0  0  0  0
   -1.1510   -2.2150   -1.2545 H   0  0  0  0  0  0  0  0  0  0  0  0
  1  2  1  0
  2  3  1  0
  3  4  2  0
  4  5  1  0
  5  6  1  0
  6  7  1  0
  7  8  1  0
  5  9  1  0
  8  2  1  0
  9  2  1  0
  1 10  1  0
  1 11  1  0
  1 12  1  0
  3 13  1  0
  4 14  1  0
  5 15  1  0
  6 16  1  0
  6 17  1  0
  7 18  1  0
  7 19  1  0
M  END
