
     RDKit          3D

 23 25  0  0  0  0  0  0  0  0999 V2000
    0.5050   -1.2463    1.7902 C   0  0  0  0  0  0  0  0  0  0  0  0
   -0.0474   -1.2136    0.3981 C   0  0  0  0  0  0  0  0  0  0  0  0
    0.3042   -2.3033   -0.5394 C   0  0  0  0  0  0  0  0  0  0  0  0
    0.8279   -0.9541   -0.7721 C   0  0  0  0  0  0  0  0  0  0  0  0
   -0.0815    0.1354   -1.2621 C   0  0  0  0  0  0  0  0  0  0  0  0
    0.4523    1.5349   -1.1822 C   0  0  0  0  0  0  0  0  0  0  0  0
   -0.6341    2.2183   -0.3429 C   0  0  0  0  0  0  0  0  0  0  0  0
   -0.7791    1.1926    0.7815 C   0  0  0  0  0  0  0  0  0  0  0  0
   -0.9249   -0.0824   -0.0090 C   0  0  0  0  0  0  0  0  0  0  0  0
    0.8915   -2.2710    2.0360 H   0  0  0  0  0  0  0  0  0  0  0  0
    1.2733   -0.4600    1.9697 H   0  0  0  0  0  0  0  0  0  0  0  0
   -0.2926   -1.0552    2.5473 H   0  0  0  0  0  0  0  0  0  0  0  0
    1.0373   -3.0473   -0.1339 H   0  0  0  0  0  0  0  0  0  0  0  0
   -0.4861   -2.7754   -1.1331 H   0  0  0  0  0  0  0  0  0  0  0  0
    1.9091   -0.7613   -0.6601 H   0  0  0  0  0  0  0  0  0  0  0  0
   -0.6035   -0.0400   -2.2120 H   0  0  0  0  0  0  0  0  0  0  0  0
    0.4439    2.0183   -2.1896 H   0  0  0  0  0  0  0  0  0  0  0  0
    1.4437    1.6096   -0.6977 H   0  0  0  0  0  0  0  0  0  0  0  0
   -1.5597    2.1710   -0.9248 H   0  0  0  0  0  0  0  0  0  0  0  0
   -0.3369    3.2001    0.0110 H   0  0  0  0  0  0  0  0  0  0  0  0
    0.2165    1.1446    1.2810 H   0  0  0  0  0  0  0  0  0  0  0  0
   -1.6089    1.4087    1.4497 H   0  0  0  0  0  0  0  0  0  0  0  0
   -1.9500   -0.4237   -0.2057 H   0  0  0  0  0  0  0  0  0  0  0  0
  1  2  1  0
  2  3  1  0
  3  4  1  0
  4  5  1  0
  5  6  1  0
  6  7  1  0
  7  8  1  0
  8  9  1  0
  4  2  1  0
  9  5  1  0
  9  2  1  0
  1 10  1  0
  1 11  1  0
  1 12  1  0
  3 13  1  0
  3 14  1  0
  4 15  1  0
  5 16  1  0
  6 17  1  0
  6 18  1  0
  7 19  1  0
  7 20  1  0
  8 21  1  0
  8 22  1  0
  9 23  1  0
M  END
