
     RDKit          3D

 17 18  0  0  0  0  0  0  0  0999 V2000
   -1.1631   -1.2620    1.0099 C   0  0  0  0  0  0  0  0  0  0  0  0
   -0.4194   -0.4712   -0.0187 C   0  0  0  0  0  0  0  0  0  0  0  0
   -1.1910    0.6197   -0.6227 C   0  0  0  0  0  0  0  0  0  0  0  0
   -0.4976    1.7466   -0.6782 C   0  0  0  0  0  0  0  0  0  0  0  0
    0.8224    1.5785   -0.1272 C   0  0  0  0  0  0  0  0  0  0  0  0
    1.7885    2.3557   -0.0637 O   0  0  0  0  0  0  0  0  0  0  0  0
    0.8550    0.1780    0.4136 C   0  0  0  0  0  0  0  0  0  0  0  0
    1.5132   -0.7245   -0.5933 C   0  0  0  0  0  0  0  0  0  0  0  0
    0.2779   -1.2970   -0.8754 O   0  0  0  0  0  0  0  0  0  0  0  0
   -2.2536   -1.2260    0.7317 H   0  0  0  0  0  0  0  0  0  0  0  0
   -0.8932   -2.3329    1.0319 H   0  0  0  0  0  0  0  0  0  0  0  0
   -1.0780   -0.8739    2.0363 H   0  0  0  0  0  0  0  0  0  0  0  0
   -2.2062    0.5367   -0.9862 H   0  0  0  0  0  0  0  0  0  0  0  0
   -0.8562    2.6999   -1.0857 H   0  0  0  0  0  0  0  0  0  0  0  0
    1.1563    0.0818    1.4512 H   0  0  0  0  0  0  0  0  0  0  0  0
    2.2511   -1.3835   -0.1098 H   0  0  0  0  0  0  0  0  0  0  0  0
    1.8941   -0.2258   -1.5137 H   0  0  0  0  0  0  0  0  0  0  0  0
  1  2  1  0
  2  3  1  0
  3  4  2  0
  4  5  1  0
  5  6  2  0
  5  7  1  0
  7  8  1  0
  8  9  1  0
  7  2  1  0
  9  2  1  0
  1 10  1  0
  1 11  1  0
  1 12  1  0
  3 13  1  0
  4 14  1  0
  7 15  1  0
  8 16  1  0
  8 17  1  0
M  END
