
     RDKit          3D

 17 19  0  0  0  0  0  0  0  0999 V2000
   -0.8707    1.2155   -1.0082 C   0  0  0  0  0  0  0  0  0  0  0  0
   -0.5237    0.0589   -0.2150 C   0  0  0  0  0  0  0  0  0  0  0  0
   -1.4947   -0.9898    0.0823 C   0  0  0  0  0  0  0  0  0  0  0  0
   -2.7016   -1.1182   -0.2491 O   0  0  0  0  0  0  0  0  0  0  0  0
   -0.7295   -1.8830    0.8737 O   0  0  0  0  0  0  0  0  0  0  0  0
    0.5318   -1.2554    0.9039 C   0  0  0  0  0  0  0  0  0  0  0  0
    0.7422   -0.6951   -0.4737 C   0  0  0  0  0  0  0  0  0  0  0  0
    1.4523    0.4379    0.2101 C   0  0  0  0  0  0  0  0  0  0  0  0
    0.2375    0.2077    1.0633 C   0  0  0  0  0  0  0  0  0  0  0  0
   -0.9246    2.1309   -0.3496 H   0  0  0  0  0  0  0  0  0  0  0  0
   -1.8691    1.1827   -1.5107 H   0  0  0  0  0  0  0  0  0  0  0  0
   -0.0553    1.4514   -1.7363 H   0  0  0  0  0  0  0  0  0  0  0  0
    1.3409   -1.7003    1.4301 H   0  0  0  0  0  0  0  0  0  0  0  0
    1.0180   -1.1849   -1.2985 H   0  0  0  0  0  0  0  0  0  0  0  0
    1.5118    1.3797   -0.3292 H   0  0  0  0  0  0  0  0  0  0  0  0
    2.3635    0.0691    0.7123 H   0  0  0  0  0  0  0  0  0  0  0  0
   -0.0287    0.6930    1.8945 H   0  0  0  0  0  0  0  0  0  0  0  0
  1  2  1  0
  2  3  1  0
  3  4  2  0
  3  5  1  0
  5  6  1  0
  6  7  1  0
  7  8  1  0
  8  9  1  0
  7  2  1  0
  9  2  1  0
  9  6  1  0
  1 10  1  0
  1 11  1  0
  1 12  1  0
  6 13  1  0
  7 14  1  0
  8 15  1  0
  8 16  1  0
  9 17  1  0
M  END
