
     RDKit          3D

 19 21  0  0  0  0  0  0  0  0999 V2000
   -1.9333   -0.3694    0.5170 C   0  0  0  0  0  0  0  0  0  0  0  0
   -0.6348   -0.0627   -0.0854 C   0  0  0  0  0  0  0  0  0  0  0  0
   -0.5121    1.1611   -0.9211 C   0  0  0  0  0  0  0  0  0  0  0  0
    0.7418    1.5883   -0.9272 C   0  0  0  0  0  0  0  0  0  0  0  0
    1.5751    0.6843   -0.0921 C   0  0  0  0  0  0  0  0  0  0  0  0
    1.3240   -0.7845   -0.2484 C   0  0  0  0  0  0  0  0  0  0  0  0
   -0.0114   -1.2528   -0.7996 C   0  0  0  0  0  0  0  0  0  0  0  0
    0.5853    0.0081    0.7583 C   0  0  0  0  0  0  0  0  0  0  0  0
    0.6367   -0.1587    2.0833 O   0  0  0  0  0  0  0  0  0  0  0  0
   -2.5156    0.5021    0.8307 H   0  0  0  0  0  0  0  0  0  0  0  0
   -2.5341   -0.9905   -0.2035 H   0  0  0  0  0  0  0  0  0  0  0  0
   -1.7752   -1.0439    1.4011 H   0  0  0  0  0  0  0  0  0  0  0  0
   -1.3156    1.6538   -1.4586 H   0  0  0  0  0  0  0  0  0  0  0  0
    1.0821    2.4598   -1.4626 H   0  0  0  0  0  0  0  0  0  0  0  0
    2.5702    0.9753    0.2121 H   0  0  0  0  0  0  0  0  0  0  0  0
    2.0278   -1.5270    0.1178 H   0  0  0  0  0  0  0  0  0  0  0  0
   -0.0353   -1.1734   -1.9090 H   0  0  0  0  0  0  0  0  0  0  0  0
   -0.3719   -2.2168   -0.4170 H   0  0  0  0  0  0  0  0  0  0  0  0
    1.0966    0.5469    2.6047 H   0  0  0  0  0  0  0  0  0  0  0  0
  1  2  1  0
  2  3  1  0
  3  4  2  0
  4  5  1  0
  5  6  1  0
  6  7  1  0
  6  8  1  0
  8  9  1  0
  7  2  1  0
  8  2  1  0
  8  5  1  0
  1 10  1  0
  1 11  1  0
  1 12  1  0
  3 13  1  0
  4 14  1  0
  5 15  1  0
  6 16  1  0
  7 17  1  0
  7 18  1  0
  9 19  1  0
M  END
