
     RDKit          3D

 17 18  0  0  0  0  0  0  0  0999 V2000
    1.7318   -0.7048    0.0703 C   0  0  0  0  0  0  0  0  0  0  0  0
    0.6234   -0.0525    0.7926 C   0  0  0  0  0  0  0  0  0  0  0  0
    0.7591    0.9610    1.6782 O   0  0  0  0  0  0  0  0  0  0  0  0
    0.4452    1.4264    0.4417 C   0  0  0  0  0  0  0  0  0  0  0  0
   -0.7079    0.9904   -0.3752 C   0  0  0  0  0  0  0  0  0  0  0  0
   -1.8266    1.7725   -0.4112 O   0  0  0  0  0  0  0  0  0  0  0  0
   -0.8263   -0.3123    0.3643 C   0  0  0  0  0  0  0  0  0  0  0  0
   -1.0062   -1.5190   -0.4624 C   0  0  0  0  0  0  0  0  0  0  0  0
   -1.4694   -1.4677   -1.5807 O   0  0  0  0  0  0  0  0  0  0  0  0
    2.1492   -1.5740    0.5941 H   0  0  0  0  0  0  0  0  0  0  0  0
    1.3260   -1.1051   -0.9043 H   0  0  0  0  0  0  0  0  0  0  0  0
    2.5608   -0.0324   -0.2230 H   0  0  0  0  0  0  0  0  0  0  0  0
    1.2791    1.9412   -0.0851 H   0  0  0  0  0  0  0  0  0  0  0  0
   -0.3665    0.7741   -1.4301 H   0  0  0  0  0  0  0  0  0  0  0  0
   -2.4647    1.6341    0.3328 H   0  0  0  0  0  0  0  0  0  0  0  0
   -1.4890   -0.2564    1.2602 H   0  0  0  0  0  0  0  0  0  0  0  0
   -0.7178   -2.4756   -0.0623 H   0  0  0  0  0  0  0  0  0  0  0  0
  1  2  1  0
  2  3  1  0
  3  4  1  0
  4  5  1  0
  5  6  1  0
  5  7  1  0
  7  8  1  0
  8  9  2  0
  4  2  1  0
  7  2  1  0
  1 10  1  0
  1 11  1  0
  1 12  1  0
  4 13  1  0
  5 14  1  0
  6 15  1  0
  7 16  1  0
  8 17  1  0
M  END
