
     RDKit          3D

 23 24  0  0  0  0  0  0  0  0999 V2000
   -0.5717    1.2534    1.1914 C   0  0  0  0  0  0  0  0  0  0  0  0
   -0.2355    0.4555   -0.0337 C   0  0  0  0  0  0  0  0  0  0  0  0
   -1.5124    0.2425   -0.8232 C   0  0  0  0  0  0  0  0  0  0  0  0
   -1.9528   -1.0850   -0.2860 C   0  0  0  0  0  0  0  0  0  0  0  0
   -0.7173   -1.7867    0.1292 C   0  0  0  0  0  0  0  0  0  0  0  0
    0.2448   -0.9101    0.2692 C   0  0  0  0  0  0  0  0  0  0  0  0
    1.6721   -0.7721    0.6256 C   0  0  0  0  0  0  0  0  0  0  0  0
    2.1351    0.2265   -0.4380 C   0  0  0  0  0  0  0  0  0  0  0  0
    0.8899    1.0167   -0.8291 C   0  0  0  0  0  0  0  0  0  0  0  0
   -0.8225    2.2762    0.8717 H   0  0  0  0  0  0  0  0  0  0  0  0
    0.2569    1.3288    1.9108 H   0  0  0  0  0  0  0  0  0  0  0  0
   -1.4053    0.7336    1.7076 H   0  0  0  0  0  0  0  0  0  0  0  0
   -1.2694    0.1818   -1.8881 H   0  0  0  0  0  0  0  0  0  0  0  0
   -2.2405    1.0589   -0.6026 H   0  0  0  0  0  0  0  0  0  0  0  0
   -2.5800   -0.9802    0.6393 H   0  0  0  0  0  0  0  0  0  0  0  0
   -2.4757   -1.6939   -1.0575 H   0  0  0  0  0  0  0  0  0  0  0  0
   -0.6453   -2.8949    0.2904 H   0  0  0  0  0  0  0  0  0  0  0  0
    2.2407   -1.7167    0.5657 H   0  0  0  0  0  0  0  0  0  0  0  0
    1.8255   -0.3646    1.6449 H   0  0  0  0  0  0  0  0  0  0  0  0
    2.9158    0.8838   -0.0224 H   0  0  0  0  0  0  0  0  0  0  0  0
    2.5186   -0.3506   -1.2840 H   0  0  0  0  0  0  0  0  0  0  0  0
    0.6825    0.8063   -1.9120 H   0  0  0  0  0  0  0  0  0  0  0  0
    1.0464    2.0908   -0.6693 H   0  0  0  0  0  0  0  0  0  0  0  0
  1  2  1  0
  2  3  1  0
  3  4  1  0
  4  5  1  0
  5  6  2  0
  6  7  1  0
  7  8  1  0
  8  9  1  0
  6  2  1  0
  9  2  1  0
  1 10  1  0
  1 11  1  0
  1 12  1  0
  3 13  1  0
  3 14  1  0
  4 15  1  0
  4 16  1  0
  5 17  1  0
  7 18  1  0
  7 19  1  0
  8 20  1  0
  8 21  1  0
  9 22  1  0
  9 23  1  0
M  END
