
     RDKit          3D

 21 22  0  0  0  0  0  0  0  0999 V2000
    0.1229    1.8659    0.0881 C   0  0  0  0  0  0  0  0  0  0  0  0
   -0.0834    0.3589   -0.1731 C   0  0  0  0  0  0  0  0  0  0  0  0
    1.0916   -0.1792   -0.9087 C   0  0  0  0  0  0  0  0  0  0  0  0
    2.1072   -0.0612    0.2500 C   0  0  0  0  0  0  0  0  0  0  0  0
    1.3141    0.1331    1.4133 O   0  0  0  0  0  0  0  0  0  0  0  0
    0.1928   -0.5661    1.0852 C   0  0  0  0  0  0  0  0  0  0  0  0
   -1.0880   -0.2475    0.5910 C   0  0  0  0  0  0  0  0  0  0  0  0
   -1.9394   -1.3240   -0.0974 C   0  0  0  0  0  0  0  0  0  0  0  0
   -2.5814   -0.7575   -1.1863 O   0  0  0  0  0  0  0  0  0  0  0  0
   -0.4728    2.4251   -0.6300 H   0  0  0  0  0  0  0  0  0  0  0  0
    1.1677    2.1603    0.1126 H   0  0  0  0  0  0  0  0  0  0  0  0
   -0.2921    2.1255    1.1053 H   0  0  0  0  0  0  0  0  0  0  0  0
    1.0220   -1.2532   -1.1309 H   0  0  0  0  0  0  0  0  0  0  0  0
    1.4179    0.4464   -1.7510 H   0  0  0  0  0  0  0  0  0  0  0  0
    2.7626    0.8265    0.0926 H   0  0  0  0  0  0  0  0  0  0  0  0
    2.7234   -0.9605    0.3241 H   0  0  0  0  0  0  0  0  0  0  0  0
    0.5163   -1.6289    0.8565 H   0  0  0  0  0  0  0  0  0  0  0  0
   -1.7587    0.3815    1.2359 H   0  0  0  0  0  0  0  0  0  0  0  0
   -1.3160   -2.1509   -0.4726 H   0  0  0  0  0  0  0  0  0  0  0  0
   -2.6965   -1.7404    0.5959 H   0  0  0  0  0  0  0  0  0  0  0  0
   -2.2102    0.1458   -1.4004 H   0  0  0  0  0  0  0  0  0  0  0  0
  1  2  1  0
  2  3  1  0
  3  4  1  0
  4  5  1  0
  5  6  1  0
  6  7  1  0
  7  8  1  0
  8  9  1  0
  6  2  1  0
  7  2  1  0
  1 10  1  0
  1 11  1  0
  1 12  1  0
  3 13  1  0
  3 14  1  0
  4 15  1  0
  4 16  1  0
  6 17  1  0
  7 18  1  0
  8 19  1  0
  8 20  1  0
  9 21  1  0
M  END
