
     RDKit          3D

 23 25  0  0  0  0  0  0  0  0999 V2000
    2.2983   -0.3672    0.2554 C   0  0  0  0  0  0  0  0  0  0  0  0
    0.9438   -0.4414    0.1116 C   0  0  0  0  0  0  0  0  0  0  0  0
    0.0859   -1.6733    0.0088 C   0  0  0  0  0  0  0  0  0  0  0  0
   -0.8906   -0.5287   -0.1036 C   0  0  0  0  0  0  0  0  0  0  0  0
   -2.2514   -0.6150   -0.2561 C   0  0  0  0  0  0  0  0  0  0  0  0
   -0.1236    0.1128    1.0073 C   0  0  0  0  0  0  0  0  0  0  0  0
   -0.1420    1.5951    0.7503 C   0  0  0  0  0  0  0  0  0  0  0  0
   -0.0598    1.5795   -0.7870 C   0  0  0  0  0  0  0  0  0  0  0  0
    0.1046    0.1129   -1.0140 C   0  0  0  0  0  0  0  0  0  0  0  0
    2.6486    0.3292    1.0629 H   0  0  0  0  0  0  0  0  0  0  0  0
    2.8053   -1.3470    0.4883 H   0  0  0  0  0  0  0  0  0  0  0  0
    2.8482   -0.0043   -0.6633 H   0  0  0  0  0  0  0  0  0  0  0  0
   -0.0480   -2.1846    0.9707 H   0  0  0  0  0  0  0  0  0  0  0  0
    0.2243   -2.2808   -0.8864 H   0  0  0  0  0  0  0  0  0  0  0  0
   -2.5706   -1.5676   -0.7757 H   0  0  0  0  0  0  0  0  0  0  0  0
   -2.6765    0.1937   -0.9150 H   0  0  0  0  0  0  0  0  0  0  0  0
   -2.8162   -0.6231    0.7009 H   0  0  0  0  0  0  0  0  0  0  0  0
   -0.2194   -0.2506    2.0072 H   0  0  0  0  0  0  0  0  0  0  0  0
    0.7672    2.0216    1.1974 H   0  0  0  0  0  0  0  0  0  0  0  0
   -1.0612    2.0864    1.0885 H   0  0  0  0  0  0  0  0  0  0  0  0
    0.8593    2.1229   -1.0532 H   0  0  0  0  0  0  0  0  0  0  0  0
   -0.9779    1.9972   -1.1932 H   0  0  0  0  0  0  0  0  0  0  0  0
    0.2516   -0.2675   -2.0019 H   0  0  0  0  0  0  0  0  0  0  0  0
  1  2  1  0
  2  3  1  0
  3  4  1  0
  4  5  1  0
  4  6  1  0
  6  7  1  0
  7  8  1  0
  8  9  1  0
  6  2  1  0
  9  2  1  0
  9  4  1  0
  1 10  1  0
  1 11  1  0
  1 12  1  0
  3 13  1  0
  3 14  1  0
  5 15  1  0
  5 16  1  0
  5 17  1  0
  6 18  1  0
  7 19  1  0
  7 20  1  0
  8 21  1  0
  8 22  1  0
  9 23  1  0
M  END
