
     RDKit          3D

 16 17  0  0  0  0  0  0  0  0999 V2000
    0.8618    1.4086    0.5768 C   0  0  0  0  0  0  0  0  0  0  0  0
    0.0511    0.1533    0.3882 C   0  0  0  0  0  0  0  0  0  0  0  0
   -1.2223    0.0637    0.9132 O   0  0  0  0  0  0  0  0  0  0  0  0
   -2.0770   -0.3430   -0.0832 C   0  0  0  0  0  0  0  0  0  0  0  0
   -1.3511   -0.6336   -1.2076 O   0  0  0  0  0  0  0  0  0  0  0  0
   -0.0286   -0.3802   -0.9776 C   0  0  0  0  0  0  0  0  0  0  0  0
    0.7118   -1.1421    0.0550 C   0  0  0  0  0  0  0  0  0  0  0  0
    2.0923   -1.1802    0.0614 O   0  0  0  0  0  0  0  0  0  0  0  0
    1.4152    1.6870   -0.3546 H   0  0  0  0  0  0  0  0  0  0  0  0
    0.1565    2.2144    0.8538 H   0  0  0  0  0  0  0  0  0  0  0  0
    1.6167    1.3026    1.3956 H   0  0  0  0  0  0  0  0  0  0  0  0
   -2.6313   -1.2574    0.2518 H   0  0  0  0  0  0  0  0  0  0  0  0
   -2.8708    0.4312   -0.2451 H   0  0  0  0  0  0  0  0  0  0  0  0
    0.5137    0.1321   -1.7916 H   0  0  0  0  0  0  0  0  0  0  0  0
    0.2488   -2.0689    0.4861 H   0  0  0  0  0  0  0  0  0  0  0  0
    2.5131   -0.3875   -0.3221 H   0  0  0  0  0  0  0  0  0  0  0  0
  1  2  1  0
  2  3  1  0
  3  4  1  0
  4  5  1  0
  5  6  1  0
  6  7  1  0
  7  8  1  0
  6  2  1  0
  7  2  1  0
  1  9  1  0
  1 10  1  0
  1 11  1  0
  4 12  1  0
  4 13  1  0
  6 14  1  0
  7 15  1  0
  8 16  1  0
M  END
