
     RDKit          3D

 18 20  0  0  0  0  0  0  0  0999 V2000
    2.3789    0.3580    0.0057 C   0  0  0  0  0  0  0  0  0  0  0  0
    0.8984    0.2617    0.1689 C   0  0  0  0  0  0  0  0  0  0  0  0
    0.2087    1.2228    0.8940 O   0  0  0  0  0  0  0  0  0  0  0  0
   -0.8964    1.1165    0.0195 C   0  0  0  0  0  0  0  0  0  0  0  0
   -1.8388    0.0097    0.4570 C   0  0  0  0  0  0  0  0  0  0  0  0
   -1.1925   -1.2922    0.0389 C   0  0  0  0  0  0  0  0  0  0  0  0
    0.2001   -0.9046   -0.4177 C   0  0  0  0  0  0  0  0  0  0  0  0
   -0.0110    0.4476   -0.9530 C   0  0  0  0  0  0  0  0  0  0  0  0
    2.6148    0.0270   -1.0456 H   0  0  0  0  0  0  0  0  0  0  0  0
    2.7085    1.4116    0.1173 H   0  0  0  0  0  0  0  0  0  0  0  0
    2.9354   -0.3147    0.6974 H   0  0  0  0  0  0  0  0  0  0  0  0
   -1.3659    2.0602   -0.2425 H   0  0  0  0  0  0  0  0  0  0  0  0
   -2.8131    0.0950   -0.0313 H   0  0  0  0  0  0  0  0  0  0  0  0
   -1.8936    0.0723    1.5651 H   0  0  0  0  0  0  0  0  0  0  0  0
   -1.2036   -2.0267    0.8410 H   0  0  0  0  0  0  0  0  0  0  0  0
   -1.7539   -1.7418   -0.8322 H   0  0  0  0  0  0  0  0  0  0  0  0
    0.8030   -1.5905   -1.0076 H   0  0  0  0  0  0  0  0  0  0  0  0
    0.2209    0.7883   -1.9383 H   0  0  0  0  0  0  0  0  0  0  0  0
  1  2  1  0
  2  3  1  0
  3  4  1  0
  4  5  1  0
  5  6  1  0
  6  7  1  0
  7  8  1  0
  7  2  1  0
  8  2  1  0
  8  4  1  0
  1  9  1  0
  1 10  1  0
  1 11  1  0
  4 12  1  0
  5 13  1  0
  5 14  1  0
  6 15  1  0
  6 16  1  0
  7 17  1  0
  8 18  1  0
M  END
