
     RDKit          3D

 17 18  0  0  0  0  0  0  0  0999 V2000
   -2.1107   -0.0260    0.0098 C   0  0  0  0  0  0  0  0  0  0  0  0
   -0.6062   -0.1062   -0.1070 C   0  0  0  0  0  0  0  0  0  0  0  0
    0.0345    1.2341   -0.2126 C   0  0  0  0  0  0  0  0  0  0  0  0
    1.5184    1.0258   -0.0146 C   0  0  0  0  0  0  0  0  0  0  0  0
    1.9358   -0.2102   -0.1718 C   0  0  0  0  0  0  0  0  0  0  0  0
    0.9285   -1.2835   -0.3009 C   0  0  0  0  0  0  0  0  0  0  0  0
   -0.1349   -0.9201   -1.1237 O   0  0  0  0  0  0  0  0  0  0  0  0
   -0.0132   -1.0326    0.8574 C   0  0  0  0  0  0  0  0  0  0  0  0
   -0.0821   -1.4784    1.9653 O   0  0  0  0  0  0  0  0  0  0  0  0
   -2.5511    0.4233   -0.8983 H   0  0  0  0  0  0  0  0  0  0  0  0
   -2.3245    0.6772    0.8486 H   0  0  0  0  0  0  0  0  0  0  0  0
   -2.5638   -0.9888    0.2735 H   0  0  0  0  0  0  0  0  0  0  0  0
   -0.0628    1.5745   -1.2790 H   0  0  0  0  0  0  0  0  0  0  0  0
   -0.3464    1.9802    0.4988 H   0  0  0  0  0  0  0  0  0  0  0  0
    2.1242    1.8751    0.2352 H   0  0  0  0  0  0  0  0  0  0  0  0
    2.9712   -0.4384   -0.2061 H   0  0  0  0  0  0  0  0  0  0  0  0
    1.2830   -2.3062   -0.3748 H   0  0  0  0  0  0  0  0  0  0  0  0
  1  2  1  0
  2  3  1  0
  3  4  1  0
  4  5  2  0
  5  6  1  0
  6  7  1  0
  6  8  1  0
  8  9  2  0
  7  2  1  0
  8  2  1  0
  1 10  1  0
  1 11  1  0
  1 12  1  0
  3 13  1  0
  3 14  1  0
  4 15  1  0
  5 16  1  0
  6 17  1  0
M  END
