
     RDKit          3D

 21 23  0  0  0  0  0  0  0  0999 V2000
    2.6180    0.5903    0.3973 C   0  0  0  0  0  0  0  0  0  0  0  0
    1.1284    0.3087    0.4953 C   0  0  0  0  0  0  0  0  0  0  0  0
    0.3250    1.2272    1.1082 O   0  0  0  0  0  0  0  0  0  0  0  0
   -0.4688    1.2665   -0.0255 C   0  0  0  0  0  0  0  0  0  0  0  0
   -1.8235    0.6754    0.2951 C   0  0  0  0  0  0  0  0  0  0  0  0
   -1.8747   -0.7546   -0.0963 C   0  0  0  0  0  0  0  0  0  0  0  0
   -0.6741   -1.5591    0.3139 C   0  0  0  0  0  0  0  0  0  0  0  0
    0.6308   -0.9476   -0.0922 C   0  0  0  0  0  0  0  0  0  0  0  0
    0.3996    0.3370   -0.7885 C   0  0  0  0  0  0  0  0  0  0  0  0
    2.8035    1.6271    0.0012 H   0  0  0  0  0  0  0  0  0  0  0  0
    3.0606   -0.0971   -0.3703 H   0  0  0  0  0  0  0  0  0  0  0  0
    3.1486    0.4091    1.3475 H   0  0  0  0  0  0  0  0  0  0  0  0
   -0.4882    2.2778   -0.4739 H   0  0  0  0  0  0  0  0  0  0  0  0
   -2.5625    1.2423   -0.3271 H   0  0  0  0  0  0  0  0  0  0  0  0
   -2.1139    0.8514    1.3472 H   0  0  0  0  0  0  0  0  0  0  0  0
   -2.0925   -0.8332   -1.1743 H   0  0  0  0  0  0  0  0  0  0  0  0
   -2.7580   -1.2140    0.4289 H   0  0  0  0  0  0  0  0  0  0  0  0
   -0.7764   -2.5532   -0.1901 H   0  0  0  0  0  0  0  0  0  0  0  0
   -0.7316   -1.7877    1.4073 H   0  0  0  0  0  0  0  0  0  0  0  0
    1.3965   -1.6462   -0.4659 H   0  0  0  0  0  0  0  0  0  0  0  0
    0.8533    0.5799   -1.7438 H   0  0  0  0  0  0  0  0  0  0  0  0
  1  2  1  0
  2  3  1  0
  3  4  1  0
  4  5  1  0
  5  6  1  0
  6  7  1  0
  7  8  1  0
  8  9  1  0
  8  2  1  0
  9  2  1  0
  9  4  1  0
  1 10  1  0
  1 11  1  0
  1 12  1  0
  4 13  1  0
  5 14  1  0
  5 15  1  0
  6 16  1  0
  6 17  1  0
  7 18  1  0
  7 19  1  0
  8 20  1  0
  9 21  1  0
M  END
