
     RDKit          3D

 17 20  0  0  0  0  0  0  0  0999 V2000
    2.2064   -0.0110   -0.2771 C   0  0  0  0  0  0  0  0  0  0  0  0
    0.7311    0.0699   -0.2435 C   0  0  0  0  0  0  0  0  0  0  0  0
    0.0214    1.2900    0.1994 C   0  0  0  0  0  0  0  0  0  0  0  0
    0.4894    2.3347    0.5564 O   0  0  0  0  0  0  0  0  0  0  0  0
   -1.4203    0.9626    0.1144 C   0  0  0  0  0  0  0  0  0  0  0  0
   -1.5263    0.0272   -1.0225 C   0  0  0  0  0  0  0  0  0  0  0  0
   -1.5195   -0.4877    0.3365 C   0  0  0  0  0  0  0  0  0  0  0  0
   -0.1469   -1.0349    0.1592 C   0  0  0  0  0  0  0  0  0  0  0  0
   -0.1527   -0.4760   -1.2816 C   0  0  0  0  0  0  0  0  0  0  0  0
    2.6411   -0.1348   -1.2904 H   0  0  0  0  0  0  0  0  0  0  0  0
    2.5879   -0.8779    0.3353 H   0  0  0  0  0  0  0  0  0  0  0  0
    2.6800    0.9137    0.1377 H   0  0  0  0  0  0  0  0  0  0  0  0
   -2.1847    1.6867    0.3822 H   0  0  0  0  0  0  0  0  0  0  0  0
   -2.3349   -0.0050   -1.7331 H   0  0  0  0  0  0  0  0  0  0  0  0
   -2.3168   -0.9972    0.8496 H   0  0  0  0  0  0  0  0  0  0  0  0
    0.1343   -2.0621    0.3169 H   0  0  0  0  0  0  0  0  0  0  0  0
    0.1104   -1.1981   -2.0373 H   0  0  0  0  0  0  0  0  0  0  0  0
  1  2  1  0
  2  3  1  0
  3  4  2  0
  3  5  1  0
  5  6  1  0
  6  7  1  0
  7  8  1  0
  8  9  1  0
  8  2  1  0
  9  2  1  0
  7  5  1  0
  9  6  1  0
  1 10  1  0
  1 11  1  0
  1 12  1  0
  5 13  1  0
  6 14  1  0
  7 15  1  0
  8 16  1  0
  9 17  1  0
M  END
