
     RDKit          3D

 21 22  0  0  0  0  0  0  0  0999 V2000
    2.2373   -0.4548   -0.7833 C   0  0  0  0  0  0  0  0  0  0  0  0
    0.9084   -0.1269   -0.1443 C   0  0  0  0  0  0  0  0  0  0  0  0
    0.1660   -1.3583    0.3071 C   0  0  0  0  0  0  0  0  0  0  0  0
   -1.2912   -1.2050    0.0054 C   0  0  0  0  0  0  0  0  0  0  0  0
   -1.7826    0.2167    0.1188 C   0  0  0  0  0  0  0  0  0  0  0  0
   -0.7594    1.2346   -0.2793 C   0  0  0  0  0  0  0  0  0  0  0  0
    0.1037    1.6972    0.8693 C   0  0  0  0  0  0  0  0  0  0  0  0
    1.0504    0.7016    0.9630 O   0  0  0  0  0  0  0  0  0  0  0  0
    0.1753    0.6050   -1.0932 O   0  0  0  0  0  0  0  0  0  0  0  0
    2.6632    0.5125   -1.1382 H   0  0  0  0  0  0  0  0  0  0  0  0
    2.0429   -1.0565   -1.6820 H   0  0  0  0  0  0  0  0  0  0  0  0
    2.9092   -0.9483   -0.0641 H   0  0  0  0  0  0  0  0  0  0  0  0
    0.2640   -1.4950    1.4201 H   0  0  0  0  0  0  0  0  0  0  0  0
    0.5694   -2.2711   -0.1756 H   0  0  0  0  0  0  0  0  0  0  0  0
   -1.8836   -1.8518    0.6959 H   0  0  0  0  0  0  0  0  0  0  0  0
   -1.4404   -1.5644   -1.0534 H   0  0  0  0  0  0  0  0  0  0  0  0
   -2.6292    0.3076   -0.6238 H   0  0  0  0  0  0  0  0  0  0  0  0
   -2.2568    0.4302    1.1043 H   0  0  0  0  0  0  0  0  0  0  0  0
   -1.2408    2.1022   -0.7422 H   0  0  0  0  0  0  0  0  0  0  0  0
   -0.4436    1.9073    1.7842 H   0  0  0  0  0  0  0  0  0  0  0  0
    0.6378    2.6177    0.5114 H   0  0  0  0  0  0  0  0  0  0  0  0
  1  2  1  0
  2  3  1  0
  3  4  1  0
  4  5  1  0
  5  6  1  0
  6  7  1  0
  7  8  1  0
  6  9  1  0
  8  2  1  0
  9  2  1  0
  1 10  1  0
  1 11  1  0
  1 12  1  0
  3 13  1  0
  3 14  1  0
  4 15  1  0
  4 16  1  0
  5 17  1  0
  5 18  1  0
  6 19  1  0
  7 20  1  0
  7 21  1  0
M  END
