
     RDKit          3D

 21 22  0  0  0  0  0  0  0  0999 V2000
   -2.2325    0.1148   -0.4760 C   0  0  0  0  0  0  0  0  0  0  0  0
   -0.8571    0.2133    0.1475 C   0  0  0  0  0  0  0  0  0  0  0  0
   -0.0586    1.4027   -0.2818 C   0  0  0  0  0  0  0  0  0  0  0  0
    1.3374    1.3849    0.1369 C   0  0  0  0  0  0  0  0  0  0  0  0
    2.0148    0.2563    0.1951 C   0  0  0  0  0  0  0  0  0  0  0  0
    1.3130   -0.9932   -0.1784 C   0  0  0  0  0  0  0  0  0  0  0  0
    1.2731   -1.0352   -1.5774 O   0  0  0  0  0  0  0  0  0  0  0  0
   -0.1151   -1.0389    0.3038 C   0  0  0  0  0  0  0  0  0  0  0  0
   -0.5720   -0.3280    1.4896 C   0  0  0  0  0  0  0  0  0  0  0  0
   -2.0594   -0.0675   -1.5686 H   0  0  0  0  0  0  0  0  0  0  0  0
   -2.8195    1.0313   -0.3010 H   0  0  0  0  0  0  0  0  0  0  0  0
   -2.7370   -0.7981   -0.1009 H   0  0  0  0  0  0  0  0  0  0  0  0
   -0.5683    2.3146    0.0930 H   0  0  0  0  0  0  0  0  0  0  0  0
   -0.0710    1.5042   -1.4078 H   0  0  0  0  0  0  0  0  0  0  0  0
    1.8126    2.3214    0.4013 H   0  0  0  0  0  0  0  0  0  0  0  0
    3.0515    0.1828    0.4982 H   0  0  0  0  0  0  0  0  0  0  0  0
    1.8381   -1.9045    0.2186 H   0  0  0  0  0  0  0  0  0  0  0  0
    1.3091   -1.9984   -1.8652 H   0  0  0  0  0  0  0  0  0  0  0  0
   -0.6228   -1.9915    0.0504 H   0  0  0  0  0  0  0  0  0  0  0  0
    0.1777    0.1791    2.1301 H   0  0  0  0  0  0  0  0  0  0  0  0
   -1.4140   -0.7499    2.0929 H   0  0  0  0  0  0  0  0  0  0  0  0
  1  2  1  0
  2  3  1  0
  3  4  1  0
  4  5  2  0
  5  6  1  0
  6  7  1  0
  6  8  1  0
  8  9  1  0
  8  2  1  0
  9  2  1  0
  1 10  1  0
  1 11  1  0
  1 12  1  0
  3 13  1  0
  3 14  1  0
  4 15  1  0
  5 16  1  0
  6 17  1  0
  7 18  1  0
  8 19  1  0
  9 20  1  0
  9 21  1  0
M  END
