
     RDKit          3D

 19 20  0  0  0  0  0  0  0  0999 V2000
    2.2882   -0.2142    0.1123 C   0  0  0  0  0  0  0  0  0  0  0  0
    0.8357    0.0947   -0.0542 C   0  0  0  0  0  0  0  0  0  0  0  0
   -0.0021   -1.1529    0.1329 C   0  0  0  0  0  0  0  0  0  0  0  0
   -1.4663   -0.8201    0.1695 C   0  0  0  0  0  0  0  0  0  0  0  0
   -1.7235    0.4606   -0.5511 C   0  0  0  0  0  0  0  0  0  0  0  0
   -0.5318    1.4005   -0.4389 C   0  0  0  0  0  0  0  0  0  0  0  0
    0.4875    0.7888   -1.2070 O   0  0  0  0  0  0  0  0  0  0  0  0
    0.2664    1.1540    0.7770 C   0  0  0  0  0  0  0  0  0  0  0  0
    0.4416    1.5518    1.9129 O   0  0  0  0  0  0  0  0  0  0  0  0
    2.5500   -0.9850   -0.6593 H   0  0  0  0  0  0  0  0  0  0  0  0
    2.9544    0.6426   -0.0718 H   0  0  0  0  0  0  0  0  0  0  0  0
    2.4262   -0.6131    1.1462 H   0  0  0  0  0  0  0  0  0  0  0  0
    0.2761   -1.8888   -0.6275 H   0  0  0  0  0  0  0  0  0  0  0  0
    0.2664   -1.5446    1.1553 H   0  0  0  0  0  0  0  0  0  0  0  0
   -1.8765   -0.8375    1.2033 H   0  0  0  0  0  0  0  0  0  0  0  0
   -1.9953   -1.6454   -0.3881 H   0  0  0  0  0  0  0  0  0  0  0  0
   -2.6703    0.9573   -0.2638 H   0  0  0  0  0  0  0  0  0  0  0  0
   -1.7943    0.2116   -1.6518 H   0  0  0  0  0  0  0  0  0  0  0  0
   -0.7323    2.4395   -0.6960 H   0  0  0  0  0  0  0  0  0  0  0  0
  1  2  1  0
  2  3  1  0
  3  4  1  0
  4  5  1  0
  5  6  1  0
  6  7  1  0
  6  8  1  0
  8  9  2  0
  7  2  1  0
  8  2  1  0
  1 10  1  0
  1 11  1  0
  1 12  1  0
  3 13  1  0
  3 14  1  0
  4 15  1  0
  4 16  1  0
  5 17  1  0
  5 18  1  0
  6 19  1  0
M  END
