
     RDKit          3D

 19 20  0  0  0  0  0  0  0  0999 V2000
   -2.0342    0.4531   -0.1037 C   0  0  0  0  0  0  0  0  0  0  0  0
   -0.5795    0.1466   -0.0441 C   0  0  0  0  0  0  0  0  0  0  0  0
   -0.1859   -0.9068   -1.0844 C   0  0  0  0  0  0  0  0  0  0  0  0
    1.1739   -0.7711   -1.2792 O   0  0  0  0  0  0  0  0  0  0  0  0
    1.7345   -0.3503   -0.0569 C   0  0  0  0  0  0  0  0  0  0  0  0
    1.4895    1.1533    0.0054 C   0  0  0  0  0  0  0  0  0  0  0  0
    0.1255    1.3324   -0.2779 O   0  0  0  0  0  0  0  0  0  0  0  0
    1.1362   -0.9953    1.0262 O   0  0  0  0  0  0  0  0  0  0  0  0
   -0.1527   -0.4674    1.2791 C   0  0  0  0  0  0  0  0  0  0  0  0
   -2.1903    1.1706   -0.9549 H   0  0  0  0  0  0  0  0  0  0  0  0
   -2.3807    0.9343    0.8182 H   0  0  0  0  0  0  0  0  0  0  0  0
   -2.5920   -0.4606   -0.3686 H   0  0  0  0  0  0  0  0  0  0  0  0
   -0.3445   -1.9367   -0.6629 H   0  0  0  0  0  0  0  0  0  0  0  0
   -0.7970   -0.8089   -1.9759 H   0  0  0  0  0  0  0  0  0  0  0  0
    2.8072   -0.5782   -0.0432 H   0  0  0  0  0  0  0  0  0  0  0  0
    2.0844    1.6203   -0.7883 H   0  0  0  0  0  0  0  0  0  0  0  0
    1.6956    1.5863    0.9762 H   0  0  0  0  0  0  0  0  0  0  0  0
   -0.1622    0.2325    2.1093 H   0  0  0  0  0  0  0  0  0  0  0  0
   -0.8278   -1.3541    1.4257 H   0  0  0  0  0  0  0  0  0  0  0  0
  1  2  1  0
  2  3  1  0
  3  4  1  0
  4  5  1  0
  5  6  1  0
  6  7  1  0
  5  8  1  0
  8  9  1  0
  7  2  1  0
  9  2  1  0
  1 10  1  0
  1 11  1  0
  1 12  1  0
  3 13  1  0
  3 14  1  0
  5 15  1  0
  6 16  1  0
  6 17  1  0
  9 18  1  0
  9 19  1  0
M  END
