
     RDKit          3D

 19 20  0  0  0  0  0  0  0  0999 V2000
   -2.0936    0.0713   -0.0171 C   0  0  0  0  0  0  0  0  0  0  0  0
   -0.6469    0.2564   -0.3063 C   0  0  0  0  0  0  0  0  0  0  0  0
   -0.0376   -0.0835   -1.6137 C   0  0  0  0  0  0  0  0  0  0  0  0
    0.2696   -0.9062   -0.4312 C   0  0  0  0  0  0  0  0  0  0  0  0
   -0.1594   -2.2025   -0.2949 O   0  0  0  0  0  0  0  0  0  0  0  0
    1.1448   -0.3071    0.6307 C   0  0  0  0  0  0  0  0  0  0  0  0
    2.4208   -0.0679    0.1170 O   0  0  0  0  0  0  0  0  0  0  0  0
    0.2640    0.9467    0.6733 C   0  0  0  0  0  0  0  0  0  0  0  0
    0.8710    2.0452    0.0463 O   0  0  0  0  0  0  0  0  0  0  0  0
   -2.4254    0.9012    0.6505 H   0  0  0  0  0  0  0  0  0  0  0  0
   -2.6692    0.0768   -0.9629 H   0  0  0  0  0  0  0  0  0  0  0  0
   -2.3047   -0.8647    0.5544 H   0  0  0  0  0  0  0  0  0  0  0  0
   -0.7178   -0.4070   -2.3987 H   0  0  0  0  0  0  0  0  0  0  0  0
    0.8012    0.5536   -1.9914 H   0  0  0  0  0  0  0  0  0  0  0  0
    0.6098   -2.8007   -0.4757 H   0  0  0  0  0  0  0  0  0  0  0  0
    1.1279   -0.8627    1.5984 H   0  0  0  0  0  0  0  0  0  0  0  0
    3.0741   -0.4341    0.7533 H   0  0  0  0  0  0  0  0  0  0  0  0
   -0.1443    1.1954    1.6495 H   0  0  0  0  0  0  0  0  0  0  0  0
    0.6157    2.8897    0.4737 H   0  0  0  0  0  0  0  0  0  0  0  0
  1  2  1  0
  2  3  1  0
  3  4  1  0
  4  5  1  0
  4  6  1  0
  6  7  1  0
  6  8  1  0
  8  9  1  0
  4  2  1  0
  8  2  1  0
  1 10  1  0
  1 11  1  0
  1 12  1  0
  3 13  1  0
  3 14  1  0
  5 15  1  0
  6 16  1  0
  7 17  1  0
  8 18  1  0
  9 19  1  0
M  END
