
     RDKit          3D

 19 20  0  0  0  0  0  0  0  0999 V2000
    1.2906   -1.5665   -0.3140 C   0  0  0  0  0  0  0  0  0  0  0  0
    0.6503   -0.3927    0.3663 C   0  0  0  0  0  0  0  0  0  0  0  0
   -0.6996   -0.6116    0.9625 C   0  0  0  0  0  0  0  0  0  0  0  0
   -1.6626    0.2362    0.2078 C   0  0  0  0  0  0  0  0  0  0  0  0
   -0.8698    0.9019   -0.8816 C   0  0  0  0  0  0  0  0  0  0  0  0
    0.5717    0.7876   -0.5590 C   0  0  0  0  0  0  0  0  0  0  0  0
    1.1199    1.5577    0.5365 C   0  0  0  0  0  0  0  0  0  0  0  0
    1.2197    2.7551    0.8334 O   0  0  0  0  0  0  0  0  0  0  0  0
    1.5112    0.3965    1.1605 O   0  0  0  0  0  0  0  0  0  0  0  0
    2.0241   -2.0068    0.3725 H   0  0  0  0  0  0  0  0  0  0  0  0
    1.7779   -1.2944   -1.2546 H   0  0  0  0  0  0  0  0  0  0  0  0
    0.4513   -2.2793   -0.5652 H   0  0  0  0  0  0  0  0  0  0  0  0
   -0.9376   -1.6954    0.8964 H   0  0  0  0  0  0  0  0  0  0  0  0
   -0.7599   -0.3268    2.0356 H   0  0  0  0  0  0  0  0  0  0  0  0
   -2.4556   -0.4386   -0.2163 H   0  0  0  0  0  0  0  0  0  0  0  0
   -2.1535    1.0159    0.8018 H   0  0  0  0  0  0  0  0  0  0  0  0
   -1.2212    1.9309   -1.0863 H   0  0  0  0  0  0  0  0  0  0  0  0
   -1.0500    0.3246   -1.8148 H   0  0  0  0  0  0  0  0  0  0  0  0
    1.1933    0.7056   -1.4815 H   0  0  0  0  0  0  0  0  0  0  0  0
  1  2  1  0
  2  3  1  0
  3  4  1  0
  4  5  1  0
  5  6  1  0
  6  7  1  0
  7  8  2  0
  7  9  1  0
  6  2  1  0
  9  2  1  0
  1 10  1  0
  1 11  1  0
  1 12  1  0
  3 13  1  0
  3 14  1  0
  4 15  1  0
  4 16  1  0
  5 17  1  0
  5 18  1  0
  6 19  1  0
M  END
