
     RDKit          3D

 19 20  0  0  0  0  0  0  0  0999 V2000
    1.4317   -1.1786    0.2371 C   0  0  0  0  0  0  0  0  0  0  0  0
    0.4073   -0.2225   -0.1147 C   0  0  0  0  0  0  0  0  0  0  0  0
   -0.7674   -0.7132   -0.9235 C   0  0  0  0  0  0  0  0  0  0  0  0
   -1.7976    0.1896   -0.6568 O   0  0  0  0  0  0  0  0  0  0  0  0
   -1.2273    1.2343    0.1050 C   0  0  0  0  0  0  0  0  0  0  0  0
   -0.3005    1.8799   -0.6738 O   0  0  0  0  0  0  0  0  0  0  0  0
    0.8512    1.0802   -0.7406 C   0  0  0  0  0  0  0  0  0  0  0  0
   -0.3630    0.3935    1.0679 C   0  0  0  0  0  0  0  0  0  0  0  0
   -1.1071   -0.5308    1.7421 O   0  0  0  0  0  0  0  0  0  0  0  0
    1.9021   -0.9208    1.2087 H   0  0  0  0  0  0  0  0  0  0  0  0
    0.9984   -2.2129    0.2409 H   0  0  0  0  0  0  0  0  0  0  0  0
    2.2698   -1.1413   -0.5107 H   0  0  0  0  0  0  0  0  0  0  0  0
   -1.0225   -1.7478   -0.6122 H   0  0  0  0  0  0  0  0  0  0  0  0
   -0.5576   -0.6476   -2.0166 H   0  0  0  0  0  0  0  0  0  0  0  0
   -1.9523    1.8365    0.6054 H   0  0  0  0  0  0  0  0  0  0  0  0
    1.2375    0.9699   -1.7522 H   0  0  0  0  0  0  0  0  0  0  0  0
    1.5763    1.5381   -0.0310 H   0  0  0  0  0  0  0  0  0  0  0  0
    0.2658    1.0428    1.6728 H   0  0  0  0  0  0  0  0  0  0  0  0
   -1.8448   -0.8493    1.1523 H   0  0  0  0  0  0  0  0  0  0  0  0
  1  2  1  0
  2  3  1  0
  3  4  1  0
  4  5  1  0
  5  6  1  0
  6  7  1  0
  5  8  1  0
  8  9  1  0
  7  2  1  0
  8  2  1  0
  1 10  1  0
  1 11  1  0
  1 12  1  0
  3 13  1  0
  3 14  1  0
  5 15  1  0
  7 16  1  0
  7 17  1  0
  8 18  1  0
  9 19  1  0
M  END
