
     RDKit          3D

 17 18  0  0  0  0  0  0  0  0999 V2000
    1.8534   -0.0895    0.7538 C   0  0  0  0  0  0  0  0  0  0  0  0
    0.6662    0.1845   -0.0587 C   0  0  0  0  0  0  0  0  0  0  0  0
    0.8969   -0.0203   -1.4571 O   0  0  0  0  0  0  0  0  0  0  0  0
   -0.2009   -0.5034   -0.8064 C   0  0  0  0  0  0  0  0  0  0  0  0
   -0.5304   -1.9238   -0.7376 C   0  0  0  0  0  0  0  0  0  0  0  0
   -1.5386   -2.2420   -0.1248 O   0  0  0  0  0  0  0  0  0  0  0  0
   -1.3115    0.5352   -0.6282 C   0  0  0  0  0  0  0  0  0  0  0  0
   -0.3003    1.2973    0.2434 C   0  0  0  0  0  0  0  0  0  0  0  0
   -0.7505    1.3299    1.5352 O   0  0  0  0  0  0  0  0  0  0  0  0
    1.7580    0.0429    1.8276 H   0  0  0  0  0  0  0  0  0  0  0  0
    2.7627    0.5031    0.4426 H   0  0  0  0  0  0  0  0  0  0  0  0
    2.1636   -1.1637    0.5943 H   0  0  0  0  0  0  0  0  0  0  0  0
    0.0702   -2.6975   -1.1988 H   0  0  0  0  0  0  0  0  0  0  0  0
   -1.5028    1.0007   -1.6068 H   0  0  0  0  0  0  0  0  0  0  0  0
   -2.1959    0.1803   -0.0990 H   0  0  0  0  0  0  0  0  0  0  0  0
   -0.0839    2.2729   -0.2402 H   0  0  0  0  0  0  0  0  0  0  0  0
   -1.7564    1.2935    1.5606 H   0  0  0  0  0  0  0  0  0  0  0  0
  1  2  1  0
  2  3  1  0
  3  4  1  0
  4  5  1  0
  5  6  2  0
  4  7  1  0
  7  8  1  0
  8  9  1  0
  4  2  1  0
  8  2  1  0
  1 10  1  0
  1 11  1  0
  1 12  1  0
  5 13  1  0
  7 14  1  0
  7 15  1  0
  8 16  1  0
  9 17  1  0
M  END
