
     RDKit          3D

 21 22  0  0  0  0  0  0  0  0999 V2000
    2.0747   -0.0430    0.0719 C   0  0  0  0  0  0  0  0  0  0  0  0
    0.5943    0.0613    0.1069 C   0  0  0  0  0  0  0  0  0  0  0  0
   -0.1018   -1.2757   -0.1643 C   0  0  0  0  0  0  0  0  0  0  0  0
   -1.5162   -0.8879   -0.5761 C   0  0  0  0  0  0  0  0  0  0  0  0
   -1.7807    0.4718    0.0547 C   0  0  0  0  0  0  0  0  0  0  0  0
   -1.3181    0.5360    1.3650 O   0  0  0  0  0  0  0  0  0  0  0  0
    0.0553    0.4956    1.4657 C   0  0  0  0  0  0  0  0  0  0  0  0
   -1.1732    1.4360   -0.7486 O   0  0  0  0  0  0  0  0  0  0  0  0
    0.1511    1.0974   -0.9203 C   0  0  0  0  0  0  0  0  0  0  0  0
    2.4951    0.9761   -0.1561 H   0  0  0  0  0  0  0  0  0  0  0  0
    2.5382   -0.4180    0.9937 H   0  0  0  0  0  0  0  0  0  0  0  0
    2.3539   -0.6877   -0.7974 H   0  0  0  0  0  0  0  0  0  0  0  0
   -0.2123   -1.8407    0.7973 H   0  0  0  0  0  0  0  0  0  0  0  0
    0.4142   -1.8803   -0.9011 H   0  0  0  0  0  0  0  0  0  0  0  0
   -1.5190   -0.7643   -1.6736 H   0  0  0  0  0  0  0  0  0  0  0  0
   -2.2674   -1.6156   -0.2775 H   0  0  0  0  0  0  0  0  0  0  0  0
   -2.8889    0.6186    0.1117 H   0  0  0  0  0  0  0  0  0  0  0  0
    0.3412   -0.3412    2.1683 H   0  0  0  0  0  0  0  0  0  0  0  0
    0.5304    1.4243    1.7714 H   0  0  0  0  0  0  0  0  0  0  0  0
    0.3805    0.6727   -1.9083 H   0  0  0  0  0  0  0  0  0  0  0  0
    0.8487    1.9648   -0.7832 H   0  0  0  0  0  0  0  0  0  0  0  0
  1  2  1  0
  2  3  1  0
  3  4  1  0
  4  5  1  0
  5  6  1  0
  6  7  1  0
  5  8  1  0
  8  9  1  0
  7  2  1  0
  9  2  1  0
  1 10  1  0
  1 11  1  0
  1 12  1  0
  3 13  1  0
  3 14  1  0
  4 15  1  0
  4 16  1  0
  5 17  1  0
  7 18  1  0
  7 19  1  0
  9 20  1  0
  9 21  1  0
M  END
