
     RDKit          3D

 19 22  0  0  0  0  0  0  0  0999 V2000
    2.6070    0.6738    0.2681 C   0  0  0  0  0  0  0  0  0  0  0  0
    1.2720    0.1031   -0.0372 C   0  0  0  0  0  0  0  0  0  0  0  0
    0.9164   -0.0860   -1.3734 O   0  0  0  0  0  0  0  0  0  0  0  0
   -0.3775   -0.5984   -1.3464 C   0  0  0  0  0  0  0  0  0  0  0  0
   -0.5753   -1.3320   -0.0871 C   0  0  0  0  0  0  0  0  0  0  0  0
    0.6047   -0.9281    0.7266 C   0  0  0  0  0  0  0  0  0  0  0  0
    0.0498    0.5355    0.6464 C   0  0  0  0  0  0  0  0  0  0  0  0
   -1.0557    0.0231   -0.1807 C   0  0  0  0  0  0  0  0  0  0  0  0
   -2.4336    0.4987   -0.1705 C   0  0  0  0  0  0  0  0  0  0  0  0
    3.2548    0.6181   -0.6130 H   0  0  0  0  0  0  0  0  0  0  0  0
    3.0531    0.1253    1.1429 H   0  0  0  0  0  0  0  0  0  0  0  0
    2.4882    1.7309    0.5671 H   0  0  0  0  0  0  0  0  0  0  0  0
   -0.9570   -0.7129   -2.2467 H   0  0  0  0  0  0  0  0  0  0  0  0
   -1.1250   -2.2414    0.0415 H   0  0  0  0  0  0  0  0  0  0  0  0
    0.8369   -1.3051    1.7017 H   0  0  0  0  0  0  0  0  0  0  0  0
   -0.0302    1.0281    1.5929 H   0  0  0  0  0  0  0  0  0  0  0  0
   -3.0652    0.1567    0.6734 H   0  0  0  0  0  0  0  0  0  0  0  0
   -2.9606    0.1235   -1.0967 H   0  0  0  0  0  0  0  0  0  0  0  0
   -2.5025    1.5871   -0.2091 H   0  0  0  0  0  0  0  0  0  0  0  0
  1  2  1  0
  2  3  1  0
  3  4  1  0
  4  5  1  0
  5  6  1  0
  6  7  1  0
  7  8  1  0
  8  9  1  0
  6  2  1  0
  7  2  1  0
  8  4  1  0
  8  5  1  0
  1 10  1  0
  1 11  1  0
  1 12  1  0
  4 13  1  0
  5 14  1  0
  6 15  1  0
  7 16  1  0
  9 17  1  0
  9 18  1  0
  9 19  1  0
M  END
