
     RDKit          3D

 18 19  0  0  0  0  0  0  0  0999 V2000
   -2.2959    0.4181    0.2263 C   0  0  0  0  0  0  0  0  0  0  0  0
   -1.1360   -0.1351   -0.5210 C   0  0  0  0  0  0  0  0  0  0  0  0
   -0.4611   -1.4067    0.0071 C   0  0  0  0  0  0  0  0  0  0  0  0
    0.8509   -0.7910   -0.4516 C   0  0  0  0  0  0  0  0  0  0  0  0
    1.7166   -0.4378    0.7327 C   0  0  0  0  0  0  0  0  0  0  0  0
    2.8950    0.1187    0.2195 O   0  0  0  0  0  0  0  0  0  0  0  0
    0.0388    0.4019   -0.9363 C   0  0  0  0  0  0  0  0  0  0  0  0
   -0.9726    0.0800   -1.8757 O   0  0  0  0  0  0  0  0  0  0  0  0
   -2.9810   -0.4478    0.4686 H   0  0  0  0  0  0  0  0  0  0  0  0
   -2.8056    1.1652   -0.4084 H   0  0  0  0  0  0  0  0  0  0  0  0
   -2.0369    0.8593    1.2165 H   0  0  0  0  0  0  0  0  0  0  0  0
   -0.8127   -2.2564   -0.6206 H   0  0  0  0  0  0  0  0  0  0  0  0
   -0.5626   -1.5281    1.0935 H   0  0  0  0  0  0  0  0  0  0  0  0
    1.3699   -1.3369   -1.2583 H   0  0  0  0  0  0  0  0  0  0  0  0
    1.9332   -1.3128    1.3599 H   0  0  0  0  0  0  0  0  0  0  0  0
    1.1690    0.3018    1.3632 H   0  0  0  0  0  0  0  0  0  0  0  0
    3.6089   -0.5445    0.3564 H   0  0  0  0  0  0  0  0  0  0  0  0
    0.4823    1.3933   -0.9720 H   0  0  0  0  0  0  0  0  0  0  0  0
  1  2  1  0
  2  3  1  0
  3  4  1  0
  4  5  1  0
  5  6  1  0
  4  7  1  0
  7  8  1  0
  7  2  1  0
  8  2  1  0
  1  9  1  0
  1 10  1  0
  1 11  1  0
  3 12  1  0
  3 13  1  0
  4 14  1  0
  5 15  1  0
  5 16  1  0
  6 17  1  0
  7 18  1  0
M  END
