
     RDKit          3D

 21 22  0  0  0  0  0  0  0  0999 V2000
    2.0775    0.1096    0.6750 C   0  0  0  0  0  0  0  0  0  0  0  0
    0.8672   -0.2015   -0.1706 C   0  0  0  0  0  0  0  0  0  0  0  0
    0.2959    0.9531   -0.9235 C   0  0  0  0  0  0  0  0  0  0  0  0
   -0.7977    1.6534   -0.1783 C   0  0  0  0  0  0  0  0  0  0  0  0
   -1.8262    1.1020    0.4093 C   0  0  0  0  0  0  0  0  0  0  0  0
   -2.1778   -0.3419    0.4927 C   0  0  0  0  0  0  0  0  0  0  0  0
   -1.3449   -1.1412   -0.2534 O   0  0  0  0  0  0  0  0  0  0  0  0
   -0.0706   -1.2531    0.2224 C   0  0  0  0  0  0  0  0  0  0  0  0
    0.9660   -1.5594   -0.8643 C   0  0  0  0  0  0  0  0  0  0  0  0
    2.6131   -0.8200    0.9884 H   0  0  0  0  0  0  0  0  0  0  0  0
    2.8028    0.6372   -0.0089 H   0  0  0  0  0  0  0  0  0  0  0  0
    1.8754    0.7989    1.5009 H   0  0  0  0  0  0  0  0  0  0  0  0
   -0.0883    0.5836   -1.9024 H   0  0  0  0  0  0  0  0  0  0  0  0
    1.1019    1.7034   -1.0856 H   0  0  0  0  0  0  0  0  0  0  0  0
   -0.7576    2.7262   -0.1029 H   0  0  0  0  0  0  0  0  0  0  0  0
   -2.5426    1.7416    0.9143 H   0  0  0  0  0  0  0  0  0  0  0  0
   -3.2061   -0.4364    0.0354 H   0  0  0  0  0  0  0  0  0  0  0  0
   -2.2942   -0.6680    1.5408 H   0  0  0  0  0  0  0  0  0  0  0  0
    0.0890   -1.7534    1.1989 H   0  0  0  0  0  0  0  0  0  0  0  0
    0.6506   -1.5853   -1.9098 H   0  0  0  0  0  0  0  0  0  0  0  0
    1.7666   -2.2488   -0.5782 H   0  0  0  0  0  0  0  0  0  0  0  0
  1  2  1  0
  2  3  1  0
  3  4  1  0
  4  5  2  0
  5  6  1  0
  6  7  1  0
  7  8  1  0
  8  9  1  0
  8  2  1  0
  9  2  1  0
  1 10  1  0
  1 11  1  0
  1 12  1  0
  3 13  1  0
  3 14  1  0
  4 15  1  0
  5 16  1  0
  6 17  1  0
  6 18  1  0
  8 19  1  0
  9 20  1  0
  9 21  1  0
M  END
