
     RDKit          3D

 19 20  0  0  0  0  0  0  0  0999 V2000
   -2.6439   -0.5932    0.1589 C   0  0  0  0  0  0  0  0  0  0  0  0
   -1.2313   -0.1423    0.3944 C   0  0  0  0  0  0  0  0  0  0  0  0
   -0.8442    1.2310   -0.0772 C   0  0  0  0  0  0  0  0  0  0  0  0
    0.6337    1.1537   -0.2320 C   0  0  0  0  0  0  0  0  0  0  0  0
    1.0704   -0.0699   -0.0171 C   0  0  0  0  0  0  0  0  0  0  0  0
    2.4604   -0.5572   -0.0727 C   0  0  0  0  0  0  0  0  0  0  0  0
    3.3678    0.4529   -0.3973 O   0  0  0  0  0  0  0  0  0  0  0  0
   -0.0818   -0.9425    0.3063 C   0  0  0  0  0  0  0  0  0  0  0  0
   -0.6427   -0.6584    1.5516 O   0  0  0  0  0  0  0  0  0  0  0  0
   -3.3186    0.2603    0.4285 H   0  0  0  0  0  0  0  0  0  0  0  0
   -2.8449   -0.8539   -0.8961 H   0  0  0  0  0  0  0  0  0  0  0  0
   -2.9287   -1.4375    0.8239 H   0  0  0  0  0  0  0  0  0  0  0  0
   -1.2691    1.3647   -1.0981 H   0  0  0  0  0  0  0  0  0  0  0  0
   -1.1771    2.0406    0.5778 H   0  0  0  0  0  0  0  0  0  0  0  0
    1.2369    2.0130   -0.4884 H   0  0  0  0  0  0  0  0  0  0  0  0
    2.5527   -1.4207   -0.7709 H   0  0  0  0  0  0  0  0  0  0  0  0
    2.8001   -0.9664    0.9239 H   0  0  0  0  0  0  0  0  0  0  0  0
    2.9784    1.1012   -1.0352 H   0  0  0  0  0  0  0  0  0  0  0  0
   -0.1180   -1.9755   -0.0804 H   0  0  0  0  0  0  0  0  0  0  0  0
  1  2  1  0
  2  3  1  0
  3  4  1  0
  4  5  2  0
  5  6  1  0
  6  7  1  0
  5  8  1  0
  8  9  1  0
  8  2  1  0
  9  2  1  0
  1 10  1  0
  1 11  1  0
  1 12  1  0
  3 13  1  0
  3 14  1  0
  4 15  1  0
  6 16  1  0
  6 17  1  0
  7 18  1  0
  8 19  1  0
M  END
