
     RDKit          3D

 21 22  0  0  0  0  0  0  0  0999 V2000
   -1.3766    1.6792   -0.6917 C   0  0  0  0  0  0  0  0  0  0  0  0
   -0.5701    0.5689   -0.0896 C   0  0  0  0  0  0  0  0  0  0  0  0
   -1.2375   -0.2685    0.9341 C   0  0  0  0  0  0  0  0  0  0  0  0
   -1.6865   -1.3689    0.1813 O   0  0  0  0  0  0  0  0  0  0  0  0
   -0.4717   -1.7692   -0.4180 C   0  0  0  0  0  0  0  0  0  0  0  0
   -0.0123   -0.5084   -1.0567 C   0  0  0  0  0  0  0  0  0  0  0  0
    0.8657    0.4661   -0.4096 C   0  0  0  0  0  0  0  0  0  0  0  0
    1.7789    0.1272    0.7349 C   0  0  0  0  0  0  0  0  0  0  0  0
    3.1130    0.0475    0.3598 O   0  0  0  0  0  0  0  0  0  0  0  0
   -0.7922    2.6411   -0.7699 H   0  0  0  0  0  0  0  0  0  0  0  0
   -1.7942    1.4073   -1.6634 H   0  0  0  0  0  0  0  0  0  0  0  0
   -2.2250    1.9344    0.0013 H   0  0  0  0  0  0  0  0  0  0  0  0
   -2.0923    0.1890    1.4403 H   0  0  0  0  0  0  0  0  0  0  0  0
   -0.5734   -0.6858    1.7112 H   0  0  0  0  0  0  0  0  0  0  0  0
   -0.7260   -2.5591   -1.1704 H   0  0  0  0  0  0  0  0  0  0  0  0
    0.1779   -2.1457    0.3842 H   0  0  0  0  0  0  0  0  0  0  0  0
   -0.2836   -0.3761   -2.1132 H   0  0  0  0  0  0  0  0  0  0  0  0
    1.2671    1.2661   -1.0688 H   0  0  0  0  0  0  0  0  0  0  0  0
    1.4940   -0.7595    1.2973 H   0  0  0  0  0  0  0  0  0  0  0  0
    1.7089    0.9908    1.4613 H   0  0  0  0  0  0  0  0  0  0  0  0
    3.4359   -0.8764    0.2868 H   0  0  0  0  0  0  0  0  0  0  0  0
  1  2  1  0
  2  3  1  0
  3  4  1  0
  4  5  1  0
  5  6  1  0
  6  7  1  0
  7  8  1  0
  8  9  1  0
  6  2  1  0
  7  2  1  0
  1 10  1  0
  1 11  1  0
  1 12  1  0
  3 13  1  0
  3 14  1  0
  5 15  1  0
  5 16  1  0
  6 17  1  0
  7 18  1  0
  8 19  1  0
  8 20  1  0
  9 21  1  0
M  END
