
     RDKit          3D

 21 23  0  0  0  0  0  0  0  0999 V2000
    2.4362   -0.3080    0.2163 C   0  0  0  0  0  0  0  0  0  0  0  0
    0.9316   -0.1504   -0.0007 C   0  0  0  0  0  0  0  0  0  0  0  0
    0.5059    1.1533   -0.6993 C   0  0  0  0  0  0  0  0  0  0  0  0
   -0.9023    1.4203   -0.2200 C   0  0  0  0  0  0  0  0  0  0  0  0
   -1.3091    0.2674    0.6261 C   0  0  0  0  0  0  0  0  0  0  0  0
   -1.9042   -0.8848   -0.1773 C   0  0  0  0  0  0  0  0  0  0  0  0
   -1.0395   -1.9197    0.2645 O   0  0  0  0  0  0  0  0  0  0  0  0
    0.1927   -1.3989   -0.1368 C   0  0  0  0  0  0  0  0  0  0  0  0
    0.0280   -0.3877    0.9538 C   0  0  0  0  0  0  0  0  0  0  0  0
    2.8791    0.6852    0.1849 H   0  0  0  0  0  0  0  0  0  0  0  0
    2.8033   -0.9806   -0.5674 H   0  0  0  0  0  0  0  0  0  0  0  0
    2.5524   -0.8019    1.2136 H   0  0  0  0  0  0  0  0  0  0  0  0
    1.2132    1.9394   -0.4478 H   0  0  0  0  0  0  0  0  0  0  0  0
    0.4394    0.9373   -1.7829 H   0  0  0  0  0  0  0  0  0  0  0  0
   -0.8339    2.3213    0.4576 H   0  0  0  0  0  0  0  0  0  0  0  0
   -1.5973    1.6965   -1.0148 H   0  0  0  0  0  0  0  0  0  0  0  0
   -1.8856    0.5081    1.5149 H   0  0  0  0  0  0  0  0  0  0  0  0
   -1.7863   -0.7321   -1.2690 H   0  0  0  0  0  0  0  0  0  0  0  0
   -2.9326   -1.1248    0.1314 H   0  0  0  0  0  0  0  0  0  0  0  0
    0.0639   -1.4233   -1.2062 H   0  0  0  0  0  0  0  0  0  0  0  0
    0.1450   -0.8165    1.9592 H   0  0  0  0  0  0  0  0  0  0  0  0
  1  2  1  0
  2  3  1  0
  3  4  1  0
  4  5  1  0
  5  6  1  0
  6  7  1  0
  7  8  1  0
  8  9  1  0
  8  2  1  0
  9  2  1  0
  9  5  1  0
  1 10  1  0
  1 11  1  0
  1 12  1  0
  3 13  1  0
  3 14  1  0
  4 15  1  0
  4 16  1  0
  5 17  1  0
  6 18  1  0
  6 19  1  0
  8 20  1  0
  9 21  1  0
M  END
