
     RDKit          3D

 17 19  0  0  0  0  0  0  0  0999 V2000
   -1.9109    0.0096    0.0992 C   0  0  0  0  0  0  0  0  0  0  0  0
   -0.6726    0.0136   -0.5202 C   0  0  0  0  0  0  0  0  0  0  0  0
   -0.4002    0.4210   -1.8183 O   0  0  0  0  0  0  0  0  0  0  0  0
    0.8681    0.0852   -1.3668 C   0  0  0  0  0  0  0  0  0  0  0  0
    0.2521   -1.1175   -0.7362 C   0  0  0  0  0  0  0  0  0  0  0  0
    0.9621   -1.2727    0.5596 C   0  0  0  0  0  0  0  0  0  0  0  0
    1.1751   -0.0093    0.9425 C   0  0  0  0  0  0  0  0  0  0  0  0
    0.5314    0.7930   -0.1025 C   0  0  0  0  0  0  0  0  0  0  0  0
    0.4992    2.1211   -0.0389 O   0  0  0  0  0  0  0  0  0  0  0  0
   -2.1367    0.9499    0.6459 H   0  0  0  0  0  0  0  0  0  0  0  0
   -2.0186   -0.8024    0.8547 H   0  0  0  0  0  0  0  0  0  0  0  0
   -2.7643   -0.1338   -0.6027 H   0  0  0  0  0  0  0  0  0  0  0  0
    1.7275    0.1314   -1.8935 H   0  0  0  0  0  0  0  0  0  0  0  0
   -0.0075   -1.9703   -1.3076 H   0  0  0  0  0  0  0  0  0  0  0  0
    1.2400   -2.1866    1.0704 H   0  0  0  0  0  0  0  0  0  0  0  0
    1.6899    0.3930    1.8035 H   0  0  0  0  0  0  0  0  0  0  0  0
    0.9653    2.5749   -0.8033 H   0  0  0  0  0  0  0  0  0  0  0  0
  1  2  1  0
  2  3  1  0
  3  4  1  0
  4  5  1  0
  5  6  1  0
  6  7  2  0
  7  8  1  0
  8  9  1  0
  5  2  1  0
  8  2  1  0
  8  4  1  0
  1 10  1  0
  1 11  1  0
  1 12  1  0
  4 13  1  0
  5 14  1  0
  6 15  1  0
  7 16  1  0
  9 17  1  0
M  END
