
     RDKit          3D

 18 19  0  0  0  0  0  0  0  0999 V2000
    1.8772   -0.5463   -0.2067 C   0  0  0  0  0  0  0  0  0  0  0  0
    0.4954   -0.1777   -0.1813 C   0  0  0  0  0  0  0  0  0  0  0  0
   -0.5780   -1.0813   -0.6172 C   0  0  0  0  0  0  0  0  0  0  0  0
   -1.6865   -0.3414   -0.4362 C   0  0  0  0  0  0  0  0  0  0  0  0
   -1.1539    0.9130    0.1200 C   0  0  0  0  0  0  0  0  0  0  0  0
    0.0545    1.1560   -0.7963 C   0  0  0  0  0  0  0  0  0  0  0  0
   -0.1103    0.3981    1.1062 C   0  0  0  0  0  0  0  0  0  0  0  0
   -0.5547   -0.5395    2.0017 O   0  0  0  0  0  0  0  0  0  0  0  0
    2.1851   -0.9944    0.7837 H   0  0  0  0  0  0  0  0  0  0  0  0
    2.0707   -1.3411   -0.9504 H   0  0  0  0  0  0  0  0  0  0  0  0
    2.5313    0.3403   -0.3298 H   0  0  0  0  0  0  0  0  0  0  0  0
   -0.4569   -2.0906   -0.9873 H   0  0  0  0  0  0  0  0  0  0  0  0
   -2.7104   -0.6200   -0.6534 H   0  0  0  0  0  0  0  0  0  0  0  0
   -1.7628    1.7207    0.3803 H   0  0  0  0  0  0  0  0  0  0  0  0
    0.6575    2.0080   -0.4433 H   0  0  0  0  0  0  0  0  0  0  0  0
   -0.1706    1.1019   -1.8665 H   0  0  0  0  0  0  0  0  0  0  0  0
    0.5330    1.1978    1.5204 H   0  0  0  0  0  0  0  0  0  0  0  0
   -1.2208   -1.1033    1.5561 H   0  0  0  0  0  0  0  0  0  0  0  0
  1  2  1  0
  2  3  1  0
  3  4  2  0
  4  5  1  0
  5  6  1  0
  5  7  1  0
  7  8  1  0
  6  2  1  0
  7  2  1  0
  1  9  1  0
  1 10  1  0
  1 11  1  0
  3 12  1  0
  4 13  1  0
  5 14  1  0
  6 15  1  0
  6 16  1  0
  7 17  1  0
  8 18  1  0
M  END
