
     RDKit          3D

 17 18  0  0  0  0  0  0  0  0999 V2000
    1.6223   -0.0862   -0.1336 C   0  0  0  0  0  0  0  0  0  0  0  0
    0.2646   -0.4525    0.4155 C   0  0  0  0  0  0  0  0  0  0  0  0
   -0.0542   -1.8864    0.0361 C   0  0  0  0  0  0  0  0  0  0  0  0
   -0.1173   -1.2567   -1.2491 O   0  0  0  0  0  0  0  0  0  0  0  0
   -0.9648   -0.4000   -0.5459 C   0  0  0  0  0  0  0  0  0  0  0  0
   -0.6701    0.6825    0.3057 C   0  0  0  0  0  0  0  0  0  0  0  0
   -1.2806    0.8999    1.5789 O   0  0  0  0  0  0  0  0  0  0  0  0
   -0.2515    1.9821   -0.2857 C   0  0  0  0  0  0  0  0  0  0  0  0
   -0.7819    2.3360   -1.3247 O   0  0  0  0  0  0  0  0  0  0  0  0
    1.5367    0.4294   -1.0929 H   0  0  0  0  0  0  0  0  0  0  0  0
    2.3158   -0.9497   -0.1555 H   0  0  0  0  0  0  0  0  0  0  0  0
    2.0975    0.6218    0.6041 H   0  0  0  0  0  0  0  0  0  0  0  0
    0.8155   -2.5401    0.0961 H   0  0  0  0  0  0  0  0  0  0  0  0
   -0.9962   -2.2875    0.3860 H   0  0  0  0  0  0  0  0  0  0  0  0
   -1.8611   -1.0275   -0.2273 H   0  0  0  0  0  0  0  0  0  0  0  0
   -2.1782    1.3188    1.4433 H   0  0  0  0  0  0  0  0  0  0  0  0
    0.5035    2.6160    0.1490 H   0  0  0  0  0  0  0  0  0  0  0  0
  1  2  1  0
  2  3  1  0
  3  4  1  0
  4  5  1  0
  5  6  1  0
  6  7  1  0
  6  8  1  0
  8  9  2  0
  5  2  1  0
  6  2  1  0
  1 10  1  0
  1 11  1  0
  1 12  1  0
  3 13  1  0
  3 14  1  0
  5 15  1  0
  7 16  1  0
  8 17  1  0
M  END
