
     RDKit          3D

 19 20  0  0  0  0  0  0  0  0999 V2000
   -0.1251    1.7247   -0.9739 C   0  0  0  0  0  0  0  0  0  0  0  0
    0.0069    0.5334   -0.0910 C   0  0  0  0  0  0  0  0  0  0  0  0
   -0.6903    0.5562    1.1953 C   0  0  0  0  0  0  0  0  0  0  0  0
   -1.0499   -0.4354    0.1584 C   0  0  0  0  0  0  0  0  0  0  0  0
   -2.2789   -0.3983   -0.4749 O   0  0  0  0  0  0  0  0  0  0  0  0
   -0.1033   -1.5660   -0.1056 C   0  0  0  0  0  0  0  0  0  0  0  0
    0.9756   -0.5703   -0.4112 C   0  0  0  0  0  0  0  0  0  0  0  0
    2.1082   -0.5555    0.5409 C   0  0  0  0  0  0  0  0  0  0  0  0
    1.8896   -0.7489    1.7023 O   0  0  0  0  0  0  0  0  0  0  0  0
    0.4380    1.5222   -1.9126 H   0  0  0  0  0  0  0  0  0  0  0  0
   -1.1618    1.9939   -1.2388 H   0  0  0  0  0  0  0  0  0  0  0  0
    0.3290    2.5946   -0.4211 H   0  0  0  0  0  0  0  0  0  0  0  0
   -1.4222    1.3657    1.3656 H   0  0  0  0  0  0  0  0  0  0  0  0
   -0.2054    0.2265    2.1496 H   0  0  0  0  0  0  0  0  0  0  0  0
   -2.9794   -0.8932   -0.0211 H   0  0  0  0  0  0  0  0  0  0  0  0
   -0.3425   -2.1854   -0.9857 H   0  0  0  0  0  0  0  0  0  0  0  0
    0.1804   -2.1836    0.7667 H   0  0  0  0  0  0  0  0  0  0  0  0
    1.3247   -0.6034   -1.4545 H   0  0  0  0  0  0  0  0  0  0  0  0
    3.1065   -0.3770    0.2118 H   0  0  0  0  0  0  0  0  0  0  0  0
  1  2  1  0
  2  3  1  0
  3  4  1  0
  4  5  1  0
  4  6  1  0
  6  7  1  0
  7  8  1  0
  8  9  2  0
  4  2  1  0
  7  2  1  0
  1 10  1  0
  1 11  1  0
  1 12  1  0
  3 13  1  0
  3 14  1  0
  5 15  1  0
  6 16  1  0
  6 17  1  0
  7 18  1  0
  8 19  1  0
M  END
