
     RDKit          3D

 19 20  0  0  0  0  0  0  0  0999 V2000
   -1.7435    1.3876   -0.6115 C   0  0  0  0  0  0  0  0  0  0  0  0
   -1.0129    0.4013    0.2228 C   0  0  0  0  0  0  0  0  0  0  0  0
   -1.5926   -0.9467    0.3861 C   0  0  0  0  0  0  0  0  0  0  0  0
   -0.3112   -0.7739   -0.3249 C   0  0  0  0  0  0  0  0  0  0  0  0
   -0.1330   -1.0004   -1.6507 O   0  0  0  0  0  0  0  0  0  0  0  0
    0.8507   -0.3880    0.5711 C   0  0  0  0  0  0  0  0  0  0  0  0
    2.1708   -0.2402   -0.1003 C   0  0  0  0  0  0  0  0  0  0  0  0
    2.0749    0.3706   -1.3274 O   0  0  0  0  0  0  0  0  0  0  0  0
    0.1591    0.7899    0.8314 O   0  0  0  0  0  0  0  0  0  0  0  0
   -2.8136    1.0369   -0.6957 H   0  0  0  0  0  0  0  0  0  0  0  0
   -1.8090    2.3595   -0.0758 H   0  0  0  0  0  0  0  0  0  0  0  0
   -1.3664    1.5086   -1.6393 H   0  0  0  0  0  0  0  0  0  0  0  0
   -1.5734   -1.3256    1.4482 H   0  0  0  0  0  0  0  0  0  0  0  0
   -2.5291   -1.1406   -0.1418 H   0  0  0  0  0  0  0  0  0  0  0  0
    0.7072   -1.4575   -1.8818 H   0  0  0  0  0  0  0  0  0  0  0  0
    0.9227   -0.9828    1.5090 H   0  0  0  0  0  0  0  0  0  0  0  0
    2.6415   -1.2372   -0.1654 H   0  0  0  0  0  0  0  0  0  0  0  0
    2.8275    0.3670    0.5830 H   0  0  0  0  0  0  0  0  0  0  0  0
    2.5303    1.2717   -1.2903 H   0  0  0  0  0  0  0  0  0  0  0  0
  1  2  1  0
  2  3  1  0
  3  4  1  0
  4  5  1  0
  4  6  1  0
  6  7  1  0
  7  8  1  0
  6  9  1  0
  4  2  1  0
  9  2  1  0
  1 10  1  0
  1 11  1  0
  1 12  1  0
  3 13  1  0
  3 14  1  0
  5 15  1  0
  6 16  1  0
  7 17  1  0
  7 18  1  0
  8 19  1  0
M  END
