
     RDKit          3D

 19 22  0  0  0  0  0  0  0  0999 V2000
   -2.3973   -0.0780   -0.4127 C   0  0  0  0  0  0  0  0  0  0  0  0
   -1.1171   -0.3453    0.2938 C   0  0  0  0  0  0  0  0  0  0  0  0
   -1.0908   -0.4740    1.6787 O   0  0  0  0  0  0  0  0  0  0  0  0
   -0.5331    0.7342    1.2218 C   0  0  0  0  0  0  0  0  0  0  0  0
    0.8903    0.7310    0.7400 C   0  0  0  0  0  0  0  0  0  0  0  0
    0.8785    0.5540   -0.7462 C   0  0  0  0  0  0  0  0  0  0  0  0
    2.1235   -0.2660   -0.5645 C   0  0  0  0  0  0  0  0  0  0  0  0
    1.2252   -0.7181    0.5528 C   0  0  0  0  0  0  0  0  0  0  0  0
    0.1249   -0.7125   -0.4663 C   0  0  0  0  0  0  0  0  0  0  0  0
   -2.5905    0.9647   -0.6710 H   0  0  0  0  0  0  0  0  0  0  0  0
   -2.3612   -0.6417   -1.3907 H   0  0  0  0  0  0  0  0  0  0  0  0
   -3.2291   -0.4852    0.1926 H   0  0  0  0  0  0  0  0  0  0  0  0
   -1.0801    1.6660    1.3569 H   0  0  0  0  0  0  0  0  0  0  0  0
    1.6036    1.3850    1.1944 H   0  0  0  0  0  0  0  0  0  0  0  0
    0.6920    1.2374   -1.4508 H   0  0  0  0  0  0  0  0  0  0  0  0
    2.3614   -0.9985   -1.3366 H   0  0  0  0  0  0  0  0  0  0  0  0
    2.9995    0.3321   -0.2356 H   0  0  0  0  0  0  0  0  0  0  0  0
    1.4146   -1.4043    1.2520 H   0  0  0  0  0  0  0  0  0  0  0  0
    0.0855   -1.4808   -1.2087 H   0  0  0  0  0  0  0  0  0  0  0  0
  1  2  1  0
  2  3  1  0
  3  4  1  0
  4  5  1  0
  5  6  1  0
  6  7  1  0
  7  8  1  0
  8  9  1  0
  4  2  1  0
  8  5  1  0
  9  2  1  0
  9  6  1  0
  1 10  1  0
  1 11  1  0
  1 12  1  0
  4 13  1  0
  5 14  1  0
  6 15  1  0
  7 16  1  0
  7 17  1  0
  8 18  1  0
  9 19  1  0
M  END
