
     RDKit          3D

 21 24  0  0  0  0  0  0  0  0999 V2000
    2.5310    0.7193    0.0678 C   0  0  0  0  0  0  0  0  0  0  0  0
    1.1953    0.1227   -0.1610 C   0  0  0  0  0  0  0  0  0  0  0  0
    0.9012   -1.3160    0.1236 C   0  0  0  0  0  0  0  0  0  0  0  0
   -0.6167   -1.3709   -0.0765 C   0  0  0  0  0  0  0  0  0  0  0  0
   -0.8598   -0.4476   -1.1756 C   0  0  0  0  0  0  0  0  0  0  0  0
    0.2790    0.4976   -1.2284 C   0  0  0  0  0  0  0  0  0  0  0  0
    0.0015    0.9102    0.1613 C   0  0  0  0  0  0  0  0  0  0  0  0
   -1.0976   -0.0591    0.3003 C   0  0  0  0  0  0  0  0  0  0  0  0
   -2.4997    0.3090    0.5912 C   0  0  0  0  0  0  0  0  0  0  0  0
    2.5693    1.7291   -0.3461 H   0  0  0  0  0  0  0  0  0  0  0  0
    2.6658    0.8373    1.1825 H   0  0  0  0  0  0  0  0  0  0  0  0
    3.3718    0.0807   -0.2581 H   0  0  0  0  0  0  0  0  0  0  0  0
    1.3683   -1.9662   -0.6519 H   0  0  0  0  0  0  0  0  0  0  0  0
    1.2055   -1.6652    1.1119 H   0  0  0  0  0  0  0  0  0  0  0  0
   -1.1360   -2.3114    0.0647 H   0  0  0  0  0  0  0  0  0  0  0  0
   -1.6907   -0.4518   -1.8592 H   0  0  0  0  0  0  0  0  0  0  0  0
    0.4799    1.1713   -2.0476 H   0  0  0  0  0  0  0  0  0  0  0  0
   -0.0142    1.9306    0.5052 H   0  0  0  0  0  0  0  0  0  0  0  0
   -3.1649   -0.5620    0.4061 H   0  0  0  0  0  0  0  0  0  0  0  0
   -2.6766    0.7509    1.5732 H   0  0  0  0  0  0  0  0  0  0  0  0
   -2.8123    1.0913   -0.1616 H   0  0  0  0  0  0  0  0  0  0  0  0
  1  2  1  0
  2  3  1  0
  3  4  1  0
  4  5  1  0
  5  6  1  0
  6  7  1  0
  7  8  1  0
  8  9  1  0
  6  2  1  0
  7  2  1  0
  8  4  1  0
  8  5  1  0
  1 10  1  0
  1 11  1  0
  1 12  1  0
  3 13  1  0
  3 14  1  0
  4 15  1  0
  5 16  1  0
  6 17  1  0
  7 18  1  0
  9 19  1  0
  9 20  1  0
  9 21  1  0
M  END
