
     RDKit          3D

 21 23  0  0  0  0  0  0  0  0999 V2000
   -1.2707    1.3666    0.6090 C   0  0  0  0  0  0  0  0  0  0  0  0
   -0.6436    0.2618   -0.1494 C   0  0  0  0  0  0  0  0  0  0  0  0
   -1.6536   -0.5340   -0.9239 C   0  0  0  0  0  0  0  0  0  0  0  0
   -0.9093   -1.6755   -0.6561 O   0  0  0  0  0  0  0  0  0  0  0  0
   -0.4961   -1.0583    0.5326 C   0  0  0  0  0  0  0  0  0  0  0  0
    0.9631   -1.3031    0.7509 C   0  0  0  0  0  0  0  0  0  0  0  0
    1.6515   -0.5058   -0.3211 C   0  0  0  0  0  0  0  0  0  0  0  0
    1.8585    0.9303   -0.0890 C   0  0  0  0  0  0  0  0  0  0  0  0
    0.6614    0.5189   -0.8204 C   0  0  0  0  0  0  0  0  0  0  0  0
   -0.5645    2.0415    1.1227 H   0  0  0  0  0  0  0  0  0  0  0  0
   -1.8765    1.9957   -0.1012 H   0  0  0  0  0  0  0  0  0  0  0  0
   -1.9168    0.9326    1.4069 H   0  0  0  0  0  0  0  0  0  0  0  0
   -2.6217   -0.5454   -0.3864 H   0  0  0  0  0  0  0  0  0  0  0  0
   -1.6794   -0.2037   -1.9738 H   0  0  0  0  0  0  0  0  0  0  0  0
   -1.1783   -1.2899    1.3539 H   0  0  0  0  0  0  0  0  0  0  0  0
    1.2849   -1.0105    1.7832 H   0  0  0  0  0  0  0  0  0  0  0  0
    1.1683   -2.3957    0.5881 H   0  0  0  0  0  0  0  0  0  0  0  0
    2.2468   -1.0578   -1.0816 H   0  0  0  0  0  0  0  0  0  0  0  0
    2.6583    1.4712   -0.6668 H   0  0  0  0  0  0  0  0  0  0  0  0
    1.6792    1.3370    0.9437 H   0  0  0  0  0  0  0  0  0  0  0  0
    0.6385    0.7242   -1.9210 H   0  0  0  0  0  0  0  0  0  0  0  0
  1  2  1  0
  2  3  1  0
  3  4  1  0
  4  5  1  0
  5  6  1  0
  6  7  1  0
  7  8  1  0
  8  9  1  0
  5  2  1  0
  9  7  1  0
  9  2  1  0
  1 10  1  0
  1 11  1  0
  1 12  1  0
  3 13  1  0
  3 14  1  0
  5 15  1  0
  6 16  1  0
  6 17  1  0
  7 18  1  0
  8 19  1  0
  8 20  1  0
  9 21  1  0
M  END
