
     RDKit          3D

 16 18  0  0  0  0  0  0  0  0999 V2000
   -2.0093    0.8171   -0.3040 C   0  0  0  0  0  0  0  0  0  0  0  0
   -1.2973   -0.4829   -0.1698 C   0  0  0  0  0  0  0  0  0  0  0  0
   -1.0970   -0.9804   -1.4131 O   0  0  0  0  0  0  0  0  0  0  0  0
    0.0597   -0.7581   -0.8570 C   0  0  0  0  0  0  0  0  0  0  0  0
    0.6261    0.2720    0.0271 C   0  0  0  0  0  0  0  0  0  0  0  0
    2.1523    0.1346    0.1387 C   0  0  0  0  0  0  0  0  0  0  0  0
    0.1863    0.7114    1.2649 O   0  0  0  0  0  0  0  0  0  0  0  0
   -0.2929   -0.5032    0.9873 C   0  0  0  0  0  0  0  0  0  0  0  0
   -2.8602    0.8393   -0.9852 H   0  0  0  0  0  0  0  0  0  0  0  0
   -2.3795    1.0992    0.7073 H   0  0  0  0  0  0  0  0  0  0  0  0
   -1.2918    1.6135   -0.6266 H   0  0  0  0  0  0  0  0  0  0  0  0
    0.4678   -1.7832   -0.5337 H   0  0  0  0  0  0  0  0  0  0  0  0
    2.4785   -0.3744    1.0353 H   0  0  0  0  0  0  0  0  0  0  0  0
    2.5901   -0.3421   -0.7360 H   0  0  0  0  0  0  0  0  0  0  0  0
    2.5242    1.1930    0.1667 H   0  0  0  0  0  0  0  0  0  0  0  0
    0.1429   -1.4557    1.2981 H   0  0  0  0  0  0  0  0  0  0  0  0
  1  2  1  0
  2  3  1  0
  3  4  1  0
  4  5  1  0
  5  6  1  0
  5  7  1  0
  7  8  1  0
  4  2  1  0
  8  5  1  0
  8  2  1  0
  1  9  1  0
  1 10  1  0
  1 11  1  0
  4 12  1  0
  6 13  1  0
  6 14  1  0
  6 15  1  0
  8 16  1  0
M  END
