
     RDKit          3D

 19 20  0  0  0  0  0  0  0  0999 V2000
    2.0425    0.0227    0.1031 C   0  0  0  0  0  0  0  0  0  0  0  0
    0.5929    0.0742    0.0006 C   0  0  0  0  0  0  0  0  0  0  0  0
   -0.0818   -1.0862   -0.7021 C   0  0  0  0  0  0  0  0  0  0  0  0
   -1.5510   -0.8240   -0.3414 C   0  0  0  0  0  0  0  0  0  0  0  0
   -1.5200    0.2764    0.7135 C   0  0  0  0  0  0  0  0  0  0  0  0
   -1.2923    1.4601    0.0176 O   0  0  0  0  0  0  0  0  0  0  0  0
    0.0096    1.3963   -0.5011 C   0  0  0  0  0  0  0  0  0  0  0  0
   -0.1671    0.0247    1.2831 C   0  0  0  0  0  0  0  0  0  0  0  0
    0.1382   -0.1506    2.4064 O   0  0  0  0  0  0  0  0  0  0  0  0
    2.3883    0.5226    1.0320 H   0  0  0  0  0  0  0  0  0  0  0  0
    2.4077   -1.0112    0.0286 H   0  0  0  0  0  0  0  0  0  0  0  0
    2.5087    0.5814   -0.7421 H   0  0  0  0  0  0  0  0  0  0  0  0
    0.0847   -1.1094   -1.7755 H   0  0  0  0  0  0  0  0  0  0  0  0
    0.2482   -2.0074   -0.1637 H   0  0  0  0  0  0  0  0  0  0  0  0
   -2.0455   -1.7271    0.0377 H   0  0  0  0  0  0  0  0  0  0  0  0
   -2.0595   -0.3968   -1.2327 H   0  0  0  0  0  0  0  0  0  0  0  0
   -2.3289    0.2898    1.4005 H   0  0  0  0  0  0  0  0  0  0  0  0
    0.5882    2.1905    0.0206 H   0  0  0  0  0  0  0  0  0  0  0  0
    0.0371    1.4739   -1.5852 H   0  0  0  0  0  0  0  0  0  0  0  0
  1  2  1  0
  2  3  1  0
  3  4  1  0
  4  5  1  0
  5  6  1  0
  6  7  1  0
  5  8  1  0
  8  9  2  0
  7  2  1  0
  8  2  1  0
  1 10  1  0
  1 11  1  0
  1 12  1  0
  3 13  1  0
  3 14  1  0
  4 15  1  0
  4 16  1  0
  5 17  1  0
  7 18  1  0
  7 19  1  0
M  END
