
     RDKit          3D

 21 23  0  0  0  0  0  0  0  0999 V2000
   -1.7814    1.1527    0.4664 C   0  0  0  0  0  0  0  0  0  0  0  0
   -1.0428   -0.1264    0.4999 C   0  0  0  0  0  0  0  0  0  0  0  0
   -1.4794   -1.2734   -0.4193 C   0  0  0  0  0  0  0  0  0  0  0  0
   -0.0830   -1.2083   -1.0085 C   0  0  0  0  0  0  0  0  0  0  0  0
    0.3419   -0.3155    0.0924 C   0  0  0  0  0  0  0  0  0  0  0  0
    1.2629    0.8173   -0.2525 C   0  0  0  0  0  0  0  0  0  0  0  0
    2.6470    0.6239   -0.6594 C   0  0  0  0  0  0  0  0  0  0  0  0
    2.4224    0.7903    0.7050 O   0  0  0  0  0  0  0  0  0  0  0  0
   -0.0444   -0.4951    1.5006 C   0  0  0  0  0  0  0  0  0  0  0  0
   -1.1561    1.9793    0.0655 H   0  0  0  0  0  0  0  0  0  0  0  0
   -2.6265    1.0525   -0.2769 H   0  0  0  0  0  0  0  0  0  0  0  0
   -2.2590    1.4423    1.4222 H   0  0  0  0  0  0  0  0  0  0  0  0
   -1.5700   -2.2394    0.1458 H   0  0  0  0  0  0  0  0  0  0  0  0
   -2.2942   -1.0364   -1.0995 H   0  0  0  0  0  0  0  0  0  0  0  0
   -0.1172   -0.6497   -1.9791 H   0  0  0  0  0  0  0  0  0  0  0  0
    0.4492   -2.1790   -1.0555 H   0  0  0  0  0  0  0  0  0  0  0  0
    0.8614    1.8411   -0.2004 H   0  0  0  0  0  0  0  0  0  0  0  0
    3.0135   -0.3908   -0.9129 H   0  0  0  0  0  0  0  0  0  0  0  0
    3.1562    1.4855   -1.1356 H   0  0  0  0  0  0  0  0  0  0  0  0
    0.2906    0.2778    2.2038 H   0  0  0  0  0  0  0  0  0  0  0  0
    0.0089   -1.5488    1.8978 H   0  0  0  0  0  0  0  0  0  0  0  0
  1  2  1  0
  2  3  1  0
  3  4  1  0
  4  5  1  0
  5  6  1  0
  6  7  1  0
  7  8  1  0
  5  9  1  0
  5  2  1  0
  8  6  1  0
  9  2  1  0
  1 10  1  0
  1 11  1  0
  1 12  1  0
  3 13  1  0
  3 14  1  0
  4 15  1  0
  4 16  1  0
  6 17  1  0
  7 18  1  0
  7 19  1  0
  9 20  1  0
  9 21  1  0
M  END
