
     RDKit          3D

 19 21  0  0  0  0  0  0  0  0999 V2000
    2.2625   -0.0188   -0.0715 C   0  0  0  0  0  0  0  0  0  0  0  0
    0.7688   -0.0247   -0.2587 C   0  0  0  0  0  0  0  0  0  0  0  0
    0.1808    1.3433   -0.5023 C   0  0  0  0  0  0  0  0  0  0  0  0
   -0.9854    1.1998   -1.2077 O   0  0  0  0  0  0  0  0  0  0  0  0
   -1.9462    0.6741   -0.3292 C   0  0  0  0  0  0  0  0  0  0  0  0
   -1.5406   -0.6840    0.1853 C   0  0  0  0  0  0  0  0  0  0  0  0
   -1.1709   -1.4788   -0.9043 O   0  0  0  0  0  0  0  0  0  0  0  0
    0.1703   -1.2478   -0.7791 C   0  0  0  0  0  0  0  0  0  0  0  0
   -0.1283   -0.7429    0.6587 C   0  0  0  0  0  0  0  0  0  0  0  0
    2.7210    0.9270   -0.4757 H   0  0  0  0  0  0  0  0  0  0  0  0
    2.7135   -0.8343   -0.6788 H   0  0  0  0  0  0  0  0  0  0  0  0
    2.5713   -0.1557    0.9643 H   0  0  0  0  0  0  0  0  0  0  0  0
    0.8963    2.0616   -0.9104 H   0  0  0  0  0  0  0  0  0  0  0  0
   -0.1031    1.7365    0.5178 H   0  0  0  0  0  0  0  0  0  0  0  0
   -2.2593    1.3741    0.4405 H   0  0  0  0  0  0  0  0  0  0  0  0
   -2.8495    0.4926   -0.9829 H   0  0  0  0  0  0  0  0  0  0  0  0
   -2.3006   -1.0918    0.8475 H   0  0  0  0  0  0  0  0  0  0  0  0
    0.8086   -2.1411   -0.8523 H   0  0  0  0  0  0  0  0  0  0  0  0
    0.1909   -1.3891    1.4678 H   0  0  0  0  0  0  0  0  0  0  0  0
  1  2  1  0
  2  3  1  0
  3  4  1  0
  4  5  1  0
  5  6  1  0
  6  7  1  0
  7  8  1  0
  8  9  1  0
  8  2  1  0
  9  2  1  0
  9  6  1  0
  1 10  1  0
  1 11  1  0
  1 12  1  0
  3 13  1  0
  3 14  1  0
  5 15  1  0
  5 16  1  0
  6 17  1  0
  8 18  1  0
  9 19  1  0
M  END
