
     RDKit          3D

 21 22  0  0  0  0  0  0  0  0999 V2000
   -1.0619   -0.9676   -1.0303 C   0  0  0  0  0  0  0  0  0  0  0  0
   -0.4385   -0.3039    0.1559 C   0  0  0  0  0  0  0  0  0  0  0  0
   -1.4229    0.4759    0.9994 C   0  0  0  0  0  0  0  0  0  0  0  0
   -1.1690    1.6085   -0.0163 C   0  0  0  0  0  0  0  0  0  0  0  0
    0.1880    1.0473   -0.1478 C   0  0  0  0  0  0  0  0  0  0  0  0
    1.4891    1.1136   -0.3586 C   0  0  0  0  0  0  0  0  0  0  0  0
    2.2267   -0.1814   -0.2726 C   0  0  0  0  0  0  0  0  0  0  0  0
    1.8172   -0.7542    0.9463 O   0  0  0  0  0  0  0  0  0  0  0  0
    0.5236   -1.1928    0.8590 C   0  0  0  0  0  0  0  0  0  0  0  0
   -0.3093   -1.5661   -1.5529 H   0  0  0  0  0  0  0  0  0  0  0  0
   -1.8181   -1.7040   -0.6307 H   0  0  0  0  0  0  0  0  0  0  0  0
   -1.5059   -0.2721   -1.7600 H   0  0  0  0  0  0  0  0  0  0  0  0
   -1.0192    0.7912    1.9794 H   0  0  0  0  0  0  0  0  0  0  0  0
   -2.4579    0.1253    0.9862 H   0  0  0  0  0  0  0  0  0  0  0  0
   -1.8200    1.5626   -0.8982 H   0  0  0  0  0  0  0  0  0  0  0  0
   -1.2479    2.6090    0.4492 H   0  0  0  0  0  0  0  0  0  0  0  0
    2.0524    2.0000   -0.5822 H   0  0  0  0  0  0  0  0  0  0  0  0
    1.9271   -0.7992   -1.1420 H   0  0  0  0  0  0  0  0  0  0  0  0
    3.3289   -0.0257   -0.2790 H   0  0  0  0  0  0  0  0  0  0  0  0
    0.1650   -1.3549    1.9151 H   0  0  0  0  0  0  0  0  0  0  0  0
    0.5527   -2.2114    0.3798 H   0  0  0  0  0  0  0  0  0  0  0  0
  1  2  1  0
  2  3  1  0
  3  4  1  0
  4  5  1  0
  5  6  2  0
  6  7  1  0
  7  8  1  0
  8  9  1  0
  5  2  1  0
  9  2  1  0
  1 10  1  0
  1 11  1  0
  1 12  1  0
  3 13  1  0
  3 14  1  0
  4 15  1  0
  4 16  1  0
  6 17  1  0
  7 18  1  0
  7 19  1  0
  9 20  1  0
  9 21  1  0
M  END
