
     RDKit          3D

 21 22  0  0  0  0  0  0  0  0999 V2000
   -2.3253    0.1829   -0.0430 C   0  0  0  0  0  0  0  0  0  0  0  0
   -0.8536    0.0753   -0.0275 C   0  0  0  0  0  0  0  0  0  0  0  0
   -0.1819    0.0038    1.3299 C   0  0  0  0  0  0  0  0  0  0  0  0
    0.7939   -0.9598    0.6769 C   0  0  0  0  0  0  0  0  0  0  0  0
    1.8988   -0.1506    0.0675 C   0  0  0  0  0  0  0  0  0  0  0  0
    1.3952    0.9576   -0.8067 C   0  0  0  0  0  0  0  0  0  0  0  0
   -0.0809    1.0720   -0.8060 C   0  0  0  0  0  0  0  0  0  0  0  0
   -0.6760    1.9299   -1.4035 O   0  0  0  0  0  0  0  0  0  0  0  0
   -0.2554   -1.2721   -0.3774 C   0  0  0  0  0  0  0  0  0  0  0  0
   -2.6287    1.1423   -0.5205 H   0  0  0  0  0  0  0  0  0  0  0  0
   -2.7447   -0.6590   -0.6338 H   0  0  0  0  0  0  0  0  0  0  0  0
   -2.8059    0.1293    0.9536 H   0  0  0  0  0  0  0  0  0  0  0  0
    0.3192    0.9593    1.6218 H   0  0  0  0  0  0  0  0  0  0  0  0
   -0.7834   -0.4079    2.1369 H   0  0  0  0  0  0  0  0  0  0  0  0
    1.0727   -1.8051    1.2923 H   0  0  0  0  0  0  0  0  0  0  0  0
    2.4658    0.3208    0.9018 H   0  0  0  0  0  0  0  0  0  0  0  0
    2.6297   -0.8228   -0.4600 H   0  0  0  0  0  0  0  0  0  0  0  0
    1.7240    0.8359   -1.8787 H   0  0  0  0  0  0  0  0  0  0  0  0
    1.7864    1.9621   -0.4864 H   0  0  0  0  0  0  0  0  0  0  0  0
   -0.9029   -2.1283   -0.1479 H   0  0  0  0  0  0  0  0  0  0  0  0
    0.1531   -1.3655   -1.3892 H   0  0  0  0  0  0  0  0  0  0  0  0
  1  2  1  0
  2  3  1  0
  3  4  1  0
  4  5  1  0
  5  6  1  0
  6  7  1  0
  7  8  2  0
  4  9  1  0
  7  2  1  0
  9  2  1  0
  1 10  1  0
  1 11  1  0
  1 12  1  0
  3 13  1  0
  3 14  1  0
  4 15  1  0
  5 16  1  0
  5 17  1  0
  6 18  1  0
  6 19  1  0
  9 20  1  0
  9 21  1  0
M  END
