
     RDKit          3D

 23 24  0  0  0  0  0  0  0  0999 V2000
   -0.5904    2.0829   -0.3538 C   0  0  0  0  0  0  0  0  0  0  0  0
   -0.4382    0.6724    0.0755 C   0  0  0  0  0  0  0  0  0  0  0  0
   -1.6619   -0.1406    0.2779 C   0  0  0  0  0  0  0  0  0  0  0  0
   -1.1873   -1.5641    0.3993 C   0  0  0  0  0  0  0  0  0  0  0  0
    0.0537   -1.6137   -0.4388 C   0  0  0  0  0  0  0  0  0  0  0  0
    0.3829   -0.2177   -0.8681 C   0  0  0  0  0  0  0  0  0  0  0  0
    1.6021    0.2889   -0.1487 C   0  0  0  0  0  0  0  0  0  0  0  0
    2.5071   -0.7386    0.1389 O   0  0  0  0  0  0  0  0  0  0  0  0
    0.6785    0.5052    1.0617 C   0  0  0  0  0  0  0  0  0  0  0  0
   -0.4076    2.7549    0.5282 H   0  0  0  0  0  0  0  0  0  0  0  0
    0.1210    2.2950   -1.1669 H   0  0  0  0  0  0  0  0  0  0  0  0
   -1.6560    2.2499   -0.6470 H   0  0  0  0  0  0  0  0  0  0  0  0
   -2.2570   -0.0942   -0.6813 H   0  0  0  0  0  0  0  0  0  0  0  0
   -2.3329    0.1841    1.0702 H   0  0  0  0  0  0  0  0  0  0  0  0
   -1.9405   -2.2513   -0.0553 H   0  0  0  0  0  0  0  0  0  0  0  0
   -1.0365   -1.8069    1.4567 H   0  0  0  0  0  0  0  0  0  0  0  0
    0.8822   -2.0662    0.1780 H   0  0  0  0  0  0  0  0  0  0  0  0
   -0.0338   -2.2465   -1.3280 H   0  0  0  0  0  0  0  0  0  0  0  0
    0.2479    0.0540   -1.9021 H   0  0  0  0  0  0  0  0  0  0  0  0
    2.0674    1.1992   -0.5333 H   0  0  0  0  0  0  0  0  0  0  0  0
    3.3471   -0.6147   -0.3524 H   0  0  0  0  0  0  0  0  0  0  0  0
    0.6404   -0.3681    1.7224 H   0  0  0  0  0  0  0  0  0  0  0  0
    1.0117    1.4361    1.5669 H   0  0  0  0  0  0  0  0  0  0  0  0
  1  2  1  0
  2  3  1  0
  3  4  1  0
  4  5  1  0
  5  6  1  0
  6  7  1  0
  7  8  1  0
  7  9  1  0
  6  2  1  0
  9  2  1  0
  1 10  1  0
  1 11  1  0
  1 12  1  0
  3 13  1  0
  3 14  1  0
  4 15  1  0
  4 16  1  0
  5 17  1  0
  5 18  1  0
  6 19  1  0
  7 20  1  0
  8 21  1  0
  9 22  1  0
  9 23  1  0
M  END
