
     RDKit          3D

 21 23  0  0  0  0  0  0  0  0999 V2000
   -2.6040   -0.1455    0.0772 C   0  0  0  0  0  0  0  0  0  0  0  0
   -1.1966    0.1358   -0.1019 C   0  0  0  0  0  0  0  0  0  0  0  0
   -0.6844    1.5328   -0.1163 C   0  0  0  0  0  0  0  0  0  0  0  0
    0.4136    0.8002   -0.8994 C   0  0  0  0  0  0  0  0  0  0  0  0
   -0.6367   -0.0042   -1.3907 O   0  0  0  0  0  0  0  0  0  0  0  0
    1.0381   -0.0921    0.0973 C   0  0  0  0  0  0  0  0  0  0  0  0
    1.9168   -1.2050   -0.4692 C   0  0  0  0  0  0  0  0  0  0  0  0
    2.3785   -0.1735    0.5350 C   0  0  0  0  0  0  0  0  0  0  0  0
   -0.1947   -0.5762    0.8217 C   0  0  0  0  0  0  0  0  0  0  0  0
   -3.0675    0.5431    0.8110 H   0  0  0  0  0  0  0  0  0  0  0  0
   -2.7728   -1.1875    0.3848 H   0  0  0  0  0  0  0  0  0  0  0  0
   -3.1411   -0.0293   -0.9090 H   0  0  0  0  0  0  0  0  0  0  0  0
   -1.2691    2.2314   -0.7337 H   0  0  0  0  0  0  0  0  0  0  0  0
   -0.3323    1.9430    0.8374 H   0  0  0  0  0  0  0  0  0  0  0  0
    0.9790    1.3657   -1.5976 H   0  0  0  0  0  0  0  0  0  0  0  0
    2.2565   -1.1100   -1.5259 H   0  0  0  0  0  0  0  0  0  0  0  0
    1.7239   -2.2346   -0.1604 H   0  0  0  0  0  0  0  0  0  0  0  0
    2.6164   -0.5517    1.5482 H   0  0  0  0  0  0  0  0  0  0  0  0
    3.1318    0.5297    0.1510 H   0  0  0  0  0  0  0  0  0  0  0  0
   -0.3204   -1.6570    0.8100 H   0  0  0  0  0  0  0  0  0  0  0  0
   -0.2352   -0.1152    1.8305 H   0  0  0  0  0  0  0  0  0  0  0  0
  1  2  1  0
  2  3  1  0
  3  4  1  0
  4  5  1  0
  4  6  1  0
  6  7  1  0
  7  8  1  0
  6  9  1  0
  5  2  1  0
  8  6  1  0
  9  2  1  0
  1 10  1  0
  1 11  1  0
  1 12  1  0
  3 13  1  0
  3 14  1  0
  4 15  1  0
  7 16  1  0
  7 17  1  0
  8 18  1  0
  8 19  1  0
  9 20  1  0
  9 21  1  0
M  END
