
     RDKit          3D

 21 22  0  0  0  0  0  0  0  0999 V2000
   -2.0072    1.0637    0.1052 C   0  0  0  0  0  0  0  0  0  0  0  0
   -0.8410    0.1588    0.4160 C   0  0  0  0  0  0  0  0  0  0  0  0
   -1.1353   -1.2289    0.9876 C   0  0  0  0  0  0  0  0  0  0  0  0
   -0.6250   -1.0039   -0.4157 C   0  0  0  0  0  0  0  0  0  0  0  0
    0.7821   -1.3929   -0.7124 C   0  0  0  0  0  0  0  0  0  0  0  0
    1.5267   -0.3754   -1.3161 O   0  0  0  0  0  0  0  0  0  0  0  0
    2.1414    0.3736   -0.3127 C   0  0  0  0  0  0  0  0  0  0  0  0
    1.0905    1.4040    0.1240 C   0  0  0  0  0  0  0  0  0  0  0  0
    0.2414    0.7694    0.9808 O   0  0  0  0  0  0  0  0  0  0  0  0
   -2.5206    0.7079   -0.8084 H   0  0  0  0  0  0  0  0  0  0  0  0
   -2.7556    1.1015    0.9287 H   0  0  0  0  0  0  0  0  0  0  0  0
   -1.5891    2.0587   -0.1397 H   0  0  0  0  0  0  0  0  0  0  0  0
   -0.4363   -1.6504    1.7350 H   0  0  0  0  0  0  0  0  0  0  0  0
   -2.1895   -1.4179    1.1798 H   0  0  0  0  0  0  0  0  0  0  0  0
   -1.4017   -1.2315   -1.1911 H   0  0  0  0  0  0  0  0  0  0  0  0
    1.3113   -1.8378    0.1626 H   0  0  0  0  0  0  0  0  0  0  0  0
    0.7380   -2.2177   -1.4842 H   0  0  0  0  0  0  0  0  0  0  0  0
    2.4044   -0.2344    0.5754 H   0  0  0  0  0  0  0  0  0  0  0  0
    2.9922    0.9035   -0.7622 H   0  0  0  0  0  0  0  0  0  0  0  0
    1.6568    2.1693    0.6975 H   0  0  0  0  0  0  0  0  0  0  0  0
    0.6165    1.8804   -0.7498 H   0  0  0  0  0  0  0  0  0  0  0  0
  1  2  1  0
  2  3  1  0
  3  4  1  0
  4  5  1  0
  5  6  1  0
  6  7  1  0
  7  8  1  0
  8  9  1  0
  4  2  1  0
  9  2  1  0
  1 10  1  0
  1 11  1  0
  1 12  1  0
  3 13  1  0
  3 14  1  0
  4 15  1  0
  5 16  1  0
  5 17  1  0
  7 18  1  0
  7 19  1  0
  8 20  1  0
  8 21  1  0
M  END
