
     RDKit          3D

 17 18  0  0  0  0  0  0  0  0999 V2000
   -0.0441    1.5111    0.6856 C   0  0  0  0  0  0  0  0  0  0  0  0
    0.1125    0.4131   -0.4271 C   0  0  0  0  0  0  0  0  0  0  0  0
   -1.1759    0.1049   -1.0582 C   0  0  0  0  0  0  0  0  0  0  0  0
   -1.4381   -0.5689    0.3774 C   0  0  0  0  0  0  0  0  0  0  0  0
    0.0196   -0.9676    0.2832 C   0  0  0  0  0  0  0  0  0  0  0  0
    1.2024   -1.4890    0.2868 C   0  0  0  0  0  0  0  0  0  0  0  0
    2.1400   -0.6080   -0.4225 C   0  0  0  0  0  0  0  0  0  0  0  0
    3.3746   -0.8242   -0.5684 O   0  0  0  0  0  0  0  0  0  0  0  0
    1.3677    0.4559   -0.8628 O   0  0  0  0  0  0  0  0  0  0  0  0
    0.0992    1.0949    1.6743 H   0  0  0  0  0  0  0  0  0  0  0  0
   -1.0247    1.9665    0.4865 H   0  0  0  0  0  0  0  0  0  0  0  0
    0.7176    2.2607    0.4731 H   0  0  0  0  0  0  0  0  0  0  0  0
   -1.2162   -0.6424   -1.8430 H   0  0  0  0  0  0  0  0  0  0  0  0
   -1.8888    0.9186   -1.1534 H   0  0  0  0  0  0  0  0  0  0  0  0
   -1.5857    0.1749    1.1316 H   0  0  0  0  0  0  0  0  0  0  0  0
   -2.1595   -1.3558    0.1956 H   0  0  0  0  0  0  0  0  0  0  0  0
    1.4993   -2.4444    0.7412 H   0  0  0  0  0  0  0  0  0  0  0  0
  1  2  1  0
  2  3  1  0
  3  4  1  0
  4  5  1  0
  5  6  2  0
  6  7  1  0
  7  8  2  0
  7  9  1  0
  5  2  1  0
  9  2  1  0
  1 10  1  0
  1 11  1  0
  1 12  1  0
  3 13  1  0
  3 14  1  0
  4 15  1  0
  4 16  1  0
  6 17  1  0
M  END
