
     RDKit          3D

 19 20  0  0  0  0  0  0  0  0999 V2000
   -1.5956    1.0936    0.6442 C   0  0  0  0  0  0  0  0  0  0  0  0
   -0.6405    0.3839   -0.2332 C   0  0  0  0  0  0  0  0  0  0  0  0
   -0.8275    0.2413   -1.5850 O   0  0  0  0  0  0  0  0  0  0  0  0
   -1.2221   -0.8729   -0.8961 C   0  0  0  0  0  0  0  0  0  0  0  0
   -0.2312   -1.9010   -0.4278 C   0  0  0  0  0  0  0  0  0  0  0  0
    0.9897   -1.2287   -0.4443 O   0  0  0  0  0  0  0  0  0  0  0  0
    0.7095   -0.0582    0.2676 C   0  0  0  0  0  0  0  0  0  0  0  0
    1.6987    1.0051   -0.2151 C   0  0  0  0  0  0  0  0  0  0  0  0
    2.9743    0.5539    0.0446 O   0  0  0  0  0  0  0  0  0  0  0  0
   -2.5212    0.4943    0.8610 H   0  0  0  0  0  0  0  0  0  0  0  0
   -1.1190    1.2466    1.6419 H   0  0  0  0  0  0  0  0  0  0  0  0
   -1.9054    2.0915    0.2650 H   0  0  0  0  0  0  0  0  0  0  0  0
   -2.2999   -1.0708   -0.7870 H   0  0  0  0  0  0  0  0  0  0  0  0
   -0.4594   -2.0769    0.6639 H   0  0  0  0  0  0  0  0  0  0  0  0
   -0.2440   -2.8197   -1.0082 H   0  0  0  0  0  0  0  0  0  0  0  0
    0.7697   -0.1903    1.3476 H   0  0  0  0  0  0  0  0  0  0  0  0
    1.4951    1.1142   -1.3082 H   0  0  0  0  0  0  0  0  0  0  0  0
    1.4475    1.9527    0.2579 H   0  0  0  0  0  0  0  0  0  0  0  0
    2.9812    0.0414    0.9112 H   0  0  0  0  0  0  0  0  0  0  0  0
  1  2  1  0
  2  3  1  0
  3  4  1  0
  4  5  1  0
  5  6  1  0
  6  7  1  0
  7  8  1  0
  8  9  1  0
  4  2  1  0
  7  2  1  0
  1 10  1  0
  1 11  1  0
  1 12  1  0
  4 13  1  0
  5 14  1  0
  5 15  1  0
  7 16  1  0
  8 17  1  0
  8 18  1  0
  9 19  1  0
M  END
