
     RDKit          3D

 21 22  0  0  0  0  0  0  0  0999 V2000
   -1.6981   -0.5463   -1.2550 C   0  0  0  0  0  0  0  0  0  0  0  0
   -0.8084   -0.1904   -0.1021 C   0  0  0  0  0  0  0  0  0  0  0  0
   -0.0496   -1.3555    0.4828 C   0  0  0  0  0  0  0  0  0  0  0  0
    1.3063   -1.2115   -0.2177 C   0  0  0  0  0  0  0  0  0  0  0  0
    1.5572    0.2850    0.0098 C   0  0  0  0  0  0  0  0  0  0  0  0
    2.6420    0.6608   -0.7396 O   0  0  0  0  0  0  0  0  0  0  0  0
    0.2589    0.8757   -0.4176 C   0  0  0  0  0  0  0  0  0  0  0  0
   -0.8227    1.1306    0.5401 C   0  0  0  0  0  0  0  0  0  0  0  0
   -1.8672    1.9650    0.2542 O   0  0  0  0  0  0  0  0  0  0  0  0
   -1.2156   -1.3972   -1.8043 H   0  0  0  0  0  0  0  0  0  0  0  0
   -1.8124    0.2607   -1.9922 H   0  0  0  0  0  0  0  0  0  0  0  0
   -2.7055   -0.8196   -0.8824 H   0  0  0  0  0  0  0  0  0  0  0  0
   -0.5113   -2.3254    0.2845 H   0  0  0  0  0  0  0  0  0  0  0  0
    0.1274   -1.1337    1.5478 H   0  0  0  0  0  0  0  0  0  0  0  0
    2.0767   -1.8365    0.2278 H   0  0  0  0  0  0  0  0  0  0  0  0
    1.1797   -1.3276   -1.3099 H   0  0  0  0  0  0  0  0  0  0  0  0
    1.7502    0.4100    1.0939 H   0  0  0  0  0  0  0  0  0  0  0  0
    2.7456    1.6354   -0.7858 H   0  0  0  0  0  0  0  0  0  0  0  0
    0.2002    1.3681   -1.4160 H   0  0  0  0  0  0  0  0  0  0  0  0
   -0.5352    1.1273    1.6319 H   0  0  0  0  0  0  0  0  0  0  0  0
   -1.8183    2.4248   -0.6160 H   0  0  0  0  0  0  0  0  0  0  0  0
  1  2  1  0
  2  3  1  0
  3  4  1  0
  4  5  1  0
  5  6  1  0
  5  7  1  0
  7  8  1  0
  8  9  1  0
  7  2  1  0
  8  2  1  0
  1 10  1  0
  1 11  1  0
  1 12  1  0
  3 13  1  0
  3 14  1  0
  4 15  1  0
  4 16  1  0
  5 17  1  0
  6 18  1  0
  7 19  1  0
  8 20  1  0
  9 21  1  0
M  END
