
     RDKit          3D

 19 21  0  0  0  0  0  0  0  0999 V2000
    2.0266    0.3929   -0.1815 C   0  0  0  0  0  0  0  0  0  0  0  0
    0.6819    0.0132    0.3232 C   0  0  0  0  0  0  0  0  0  0  0  0
   -0.1805    1.2057    0.6769 C   0  0  0  0  0  0  0  0  0  0  0  0
   -1.3351    1.1756   -0.3170 C   0  0  0  0  0  0  0  0  0  0  0  0
   -2.1097    0.0715    0.0560 O   0  0  0  0  0  0  0  0  0  0  0  0
   -1.4226   -1.1033   -0.2061 C   0  0  0  0  0  0  0  0  0  0  0  0
   -0.4226   -1.6582    0.7159 C   0  0  0  0  0  0  0  0  0  0  0  0
    0.5945   -0.9502    1.2859 O   0  0  0  0  0  0  0  0  0  0  0  0
   -0.0371   -0.9459   -0.6100 C   0  0  0  0  0  0  0  0  0  0  0  0
    1.9130    1.3747   -0.7287 H   0  0  0  0  0  0  0  0  0  0  0  0
    2.7913    0.5630    0.5810 H   0  0  0  0  0  0  0  0  0  0  0  0
    2.3502   -0.3250   -0.9788 H   0  0  0  0  0  0  0  0  0  0  0  0
   -0.6723    1.0741    1.6850 H   0  0  0  0  0  0  0  0  0  0  0  0
    0.3596    2.1481    0.6815 H   0  0  0  0  0  0  0  0  0  0  0  0
   -0.8621    1.0317   -1.3185 H   0  0  0  0  0  0  0  0  0  0  0  0
   -1.8845    2.1077   -0.3323 H   0  0  0  0  0  0  0  0  0  0  0  0
   -2.0331   -1.8455   -0.7620 H   0  0  0  0  0  0  0  0  0  0  0  0
   -0.2739   -2.7668    0.7336 H   0  0  0  0  0  0  0  0  0  0  0  0
    0.5163   -1.5635   -1.3041 H   0  0  0  0  0  0  0  0  0  0  0  0
  1  2  1  0
  2  3  1  0
  3  4  1  0
  4  5  1  0
  5  6  1  0
  6  7  1  0
  7  8  1  0
  7  9  1  0
  8  2  1  0
  9  2  1  0
  9  6  1  0
  1 10  1  0
  1 11  1  0
  1 12  1  0
  3 13  1  0
  3 14  1  0
  4 15  1  0
  4 16  1  0
  6 17  1  0
  7 18  1  0
  9 19  1  0
M  END
