
     RDKit          3D

 23 25  0  0  0  0  0  0  0  0999 V2000
   -1.9965    1.0780   -0.0380 C   0  0  0  0  0  0  0  0  0  0  0  0
   -0.7823    0.2417    0.2406 C   0  0  0  0  0  0  0  0  0  0  0  0
   -1.1087   -1.1104    0.8284 C   0  0  0  0  0  0  0  0  0  0  0  0
   -0.2130   -1.7626   -0.1906 C   0  0  0  0  0  0  0  0  0  0  0  0
   -0.1585   -0.4496   -0.9278 C   0  0  0  0  0  0  0  0  0  0  0  0
    1.2152    0.1048   -1.1283 C   0  0  0  0  0  0  0  0  0  0  0  0
    2.3256   -0.1437   -0.2014 C   0  0  0  0  0  0  0  0  0  0  0  0
    1.4758    1.0813   -0.0444 C   0  0  0  0  0  0  0  0  0  0  0  0
    0.3256    0.9929    0.9336 C   0  0  0  0  0  0  0  0  0  0  0  0
   -2.8553    0.4465   -0.3276 H   0  0  0  0  0  0  0  0  0  0  0  0
   -2.2845    1.5651    0.9240 H   0  0  0  0  0  0  0  0  0  0  0  0
   -1.8020    1.8961   -0.7490 H   0  0  0  0  0  0  0  0  0  0  0  0
   -2.1775   -1.3818    0.6381 H   0  0  0  0  0  0  0  0  0  0  0  0
   -0.8149   -1.2521    1.8904 H   0  0  0  0  0  0  0  0  0  0  0  0
    0.7390   -2.1326    0.2190 H   0  0  0  0  0  0  0  0  0  0  0  0
   -0.6900   -2.5626   -0.8067 H   0  0  0  0  0  0  0  0  0  0  0  0
   -0.7719   -0.4450   -1.8442 H   0  0  0  0  0  0  0  0  0  0  0  0
    1.4894    0.3316   -2.1925 H   0  0  0  0  0  0  0  0  0  0  0  0
    2.2648   -0.8483    0.6508 H   0  0  0  0  0  0  0  0  0  0  0  0
    3.3598   -0.0526   -0.5988 H   0  0  0  0  0  0  0  0  0  0  0  0
    1.8308    2.0705   -0.3689 H   0  0  0  0  0  0  0  0  0  0  0  0
   -0.0104    1.9758    1.2894 H   0  0  0  0  0  0  0  0  0  0  0  0
    0.6395    0.3572    1.8038 H   0  0  0  0  0  0  0  0  0  0  0  0
  1  2  1  0
  2  3  1  0
  3  4  1  0
  4  5  1  0
  5  6  1  0
  6  7  1  0
  7  8  1  0
  8  9  1  0
  5  2  1  0
  8  6  1  0
  9  2  1  0
  1 10  1  0
  1 11  1  0
  1 12  1  0
  3 13  1  0
  3 14  1  0
  4 15  1  0
  4 16  1  0
  5 17  1  0
  6 18  1  0
  7 19  1  0
  7 20  1  0
  8 21  1  0
  9 22  1  0
  9 23  1  0
M  END
