
     RDKit          3D

 17 19  0  0  0  0  0  0  0  0999 V2000
    2.1259    0.3830   -0.1020 C   0  0  0  0  0  0  0  0  0  0  0  0
    0.7028    0.0043   -0.1657 C   0  0  0  0  0  0  0  0  0  0  0  0
    0.0503   -0.1890   -1.3865 O   0  0  0  0  0  0  0  0  0  0  0  0
   -1.1306   -0.7766   -0.9726 C   0  0  0  0  0  0  0  0  0  0  0  0
   -0.6544   -1.7958   -0.1399 O   0  0  0  0  0  0  0  0  0  0  0  0
    0.2075   -1.0715    0.7073 C   0  0  0  0  0  0  0  0  0  0  0  0
   -0.3023    0.2945    0.8466 C   0  0  0  0  0  0  0  0  0  0  0  0
   -1.6203    0.2061    0.0613 C   0  0  0  0  0  0  0  0  0  0  0  0
   -2.0324    1.3993   -0.4272 O   0  0  0  0  0  0  0  0  0  0  0  0
    2.7999   -0.4973   -0.0303 H   0  0  0  0  0  0  0  0  0  0  0  0
    2.5046    1.0094   -0.9148 H   0  0  0  0  0  0  0  0  0  0  0  0
    2.2966    0.9510    0.8587 H   0  0  0  0  0  0  0  0  0  0  0  0
   -1.8247   -1.0693   -1.7223 H   0  0  0  0  0  0  0  0  0  0  0  0
    0.7891   -1.5803    1.4644 H   0  0  0  0  0  0  0  0  0  0  0  0
   -0.2164    0.9267    1.7031 H   0  0  0  0  0  0  0  0  0  0  0  0
   -2.3419   -0.3015    0.7223 H   0  0  0  0  0  0  0  0  0  0  0  0
   -1.3536    2.1072   -0.5026 H   0  0  0  0  0  0  0  0  0  0  0  0
  1  2  1  0
  2  3  1  0
  3  4  1  0
  4  5  1  0
  5  6  1  0
  6  7  1  0
  7  8  1  0
  8  9  1  0
  6  2  1  0
  7  2  1  0
  8  4  1  0
  1 10  1  0
  1 11  1  0
  1 12  1  0
  4 13  1  0
  6 14  1  0
  7 15  1  0
  8 16  1  0
  9 17  1  0
M  END
