
     RDKit          3D

 16 19  0  0  0  0  0  0  0  0999 V2000
   -2.0001   -0.3876   -0.4962 C   0  0  0  0  0  0  0  0  0  0  0  0
   -0.7121   -0.0985   -0.2749 C   0  0  0  0  0  0  0  0  0  0  0  0
    0.1918   -0.3426    0.5024 C   0  0  0  0  0  0  0  0  0  0  0  0
    0.6695    0.5711   -0.8229 C   0  0  0  0  0  0  0  0  0  0  0  0
    0.0982    1.1952    0.0119 C   0  0  0  0  0  0  0  0  0  0  0  0
    1.5102    0.3232   -0.0580 C   0  0  0  0  0  0  0  0  0  0  0  0
    2.2227    0.3219    1.0925 O   0  0  0  0  0  0  0  0  0  0  0  0
    0.6201   -1.0050   -0.3502 C   0  0  0  0  0  0  0  0  0  0  0  0
   -2.2185   -1.4944   -0.4182 H   0  0  0  0  0  0  0  0  0  0  0  0
   -2.4609   -0.0496   -1.4627 H   0  0  0  0  0  0  0  0  0  0  0  0
   -2.6832    0.0474    0.2971 H   0  0  0  0  0  0  0  0  0  0  0  0
    0.3916   -0.0033    1.4968 H   0  0  0  0  0  0  0  0  0  0  0  0
    0.4062    0.2241   -1.8203 H   0  0  0  0  0  0  0  0  0  0  0  0
   -0.0289    1.6518    1.0030 H   0  0  0  0  0  0  0  0  0  0  0  0
    3.1824    0.4651    0.9691 H   0  0  0  0  0  0  0  0  0  0  0  0
    0.8109   -1.4189   -1.3483 H   0  0  0  0  0  0  0  0  0  0  0  0
  1  2  1  0
  2  3  1  0
  3  4  1  0
  4  5  1  0
  5  6  1  0
  6  7  1  0
  6  8  1  0
  5  2  1  0
  8  2  1  0
  8  3  1  0
  6  4  1  0
  1  9  1  0
  1 10  1  0
  1 11  1  0
  3 12  1  0
  4 13  1  0
  5 14  1  0
  7 15  1  0
  8 16  1  0
M  END
