
     RDKit          3D

 21 23  0  0  0  0  0  0  0  0999 V2000
    1.5112    1.5922   -0.3616 C   0  0  0  0  0  0  0  0  0  0  0  0
    0.7432    0.3915    0.0235 C   0  0  0  0  0  0  0  0  0  0  0  0
    1.4316   -0.6660    0.5327 O   0  0  0  0  0  0  0  0  0  0  0  0
    0.7323   -1.8565    0.2517 C   0  0  0  0  0  0  0  0  0  0  0  0
   -0.6459   -1.3580   -0.1106 C   0  0  0  0  0  0  0  0  0  0  0  0
   -1.1343   -0.5697    1.1153 C   0  0  0  0  0  0  0  0  0  0  0  0
   -0.5465    0.7591    0.7553 C   0  0  0  0  0  0  0  0  0  0  0  0
   -1.1425    0.9383   -0.6486 C   0  0  0  0  0  0  0  0  0  0  0  0
   -0.2163   -0.1873   -0.9892 C   0  0  0  0  0  0  0  0  0  0  0  0
    0.9147    2.5236   -0.3153 H   0  0  0  0  0  0  0  0  0  0  0  0
    2.3340    1.7231    0.3748 H   0  0  0  0  0  0  0  0  0  0  0  0
    2.0075    1.5251   -1.3558 H   0  0  0  0  0  0  0  0  0  0  0  0
    1.1649   -2.3711   -0.6247 H   0  0  0  0  0  0  0  0  0  0  0  0
    0.7128   -2.4895    1.1671 H   0  0  0  0  0  0  0  0  0  0  0  0
   -1.3309   -2.0388   -0.5264 H   0  0  0  0  0  0  0  0  0  0  0  0
   -2.2448   -0.5434    1.0786 H   0  0  0  0  0  0  0  0  0  0  0  0
   -0.7193   -1.0397    2.0040 H   0  0  0  0  0  0  0  0  0  0  0  0
   -0.5527    1.5752    1.4138 H   0  0  0  0  0  0  0  0  0  0  0  0
   -0.9206    1.8769   -1.1313 H   0  0  0  0  0  0  0  0  0  0  0  0
   -2.1949    0.5843   -0.6769 H   0  0  0  0  0  0  0  0  0  0  0  0
    0.0965   -0.3695   -1.9764 H   0  0  0  0  0  0  0  0  0  0  0  0
  1  2  1  0
  2  3  1  0
  3  4  1  0
  4  5  1  0
  5  6  1  0
  6  7  1  0
  7  8  1  0
  8  9  1  0
  7  2  1  0
  9  2  1  0
  9  5  1  0
  1 10  1  0
  1 11  1  0
  1 12  1  0
  4 13  1  0
  4 14  1  0
  5 15  1  0
  6 16  1  0
  6 17  1  0
  7 18  1  0
  8 19  1  0
  8 20  1  0
  9 21  1  0
M  END
