
     RDKit          3D

 21 22  0  0  0  0  0  0  0  0999 V2000
    1.8000   -0.8931   -0.3450 C   0  0  0  0  0  0  0  0  0  0  0  0
    0.5215   -0.2243   -0.2826 C   0  0  0  0  0  0  0  0  0  0  0  0
   -0.2514    0.0571   -1.5488 C   0  0  0  0  0  0  0  0  0  0  0  0
   -1.4867    0.7318   -0.9191 C   0  0  0  0  0  0  0  0  0  0  0  0
   -1.1299    0.6150    0.5177 C   0  0  0  0  0  0  0  0  0  0  0  0
    0.3474    1.0349    0.5056 C   0  0  0  0  0  0  0  0  0  0  0  0
    0.8717    0.9853    1.8015 O   0  0  0  0  0  0  0  0  0  0  0  0
   -0.5684   -0.8074    0.6202 C   0  0  0  0  0  0  0  0  0  0  0  0
   -0.1420   -1.1692    1.8786 O   0  0  0  0  0  0  0  0  0  0  0  0
    1.8399   -1.5560   -1.2467 H   0  0  0  0  0  0  0  0  0  0  0  0
    2.6242   -0.1553   -0.4975 H   0  0  0  0  0  0  0  0  0  0  0  0
    1.9787   -1.5010    0.5634 H   0  0  0  0  0  0  0  0  0  0  0  0
    0.3022    0.7449   -2.1914 H   0  0  0  0  0  0  0  0  0  0  0  0
   -0.5307   -0.8725   -2.0553 H   0  0  0  0  0  0  0  0  0  0  0  0
   -2.3971    0.1837   -1.2192 H   0  0  0  0  0  0  0  0  0  0  0  0
   -1.4782    1.7853   -1.2757 H   0  0  0  0  0  0  0  0  0  0  0  0
   -1.7444    0.9718    1.2930 H   0  0  0  0  0  0  0  0  0  0  0  0
    0.5538    1.9407   -0.0656 H   0  0  0  0  0  0  0  0  0  0  0  0
    0.5612    1.7399    2.3347 H   0  0  0  0  0  0  0  0  0  0  0  0
   -1.2651   -1.4907    0.1129 H   0  0  0  0  0  0  0  0  0  0  0  0
   -0.4067   -2.1207    2.0194 H   0  0  0  0  0  0  0  0  0  0  0  0
  1  2  1  0
  2  3  1  0
  3  4  1  0
  4  5  1  0
  5  6  1  0
  6  7  1  0
  5  8  1  0
  8  9  1  0
  6  2  1  0
  8  2  1  0
  1 10  1  0
  1 11  1  0
  1 12  1  0
  3 13  1  0
  3 14  1  0
  4 15  1  0
  4 16  1  0
  5 17  1  0
  6 18  1  0
  7 19  1  0
  8 20  1  0
  9 21  1  0
M  END
