
     RDKit          3D

 23 24  0  0  0  0  0  0  0  0999 V2000
   -1.9958   -1.1603   -0.3378 C   0  0  0  0  0  0  0  0  0  0  0  0
   -0.9348   -0.2486    0.2610 C   0  0  0  0  0  0  0  0  0  0  0  0
    0.2967   -0.8591    0.8536 C   0  0  0  0  0  0  0  0  0  0  0  0
    1.3348   -1.1310   -0.1846 C   0  0  0  0  0  0  0  0  0  0  0  0
    2.2497    0.0412   -0.4457 C   0  0  0  0  0  0  0  0  0  0  0  0
    1.6114    1.1137   -1.0321 O   0  0  0  0  0  0  0  0  0  0  0  0
    0.6184    1.6619   -0.2613 C   0  0  0  0  0  0  0  0  0  0  0  0
   -0.7197    1.0209   -0.4088 C   0  0  0  0  0  0  0  0  0  0  0  0
   -1.5318    0.9997    0.8912 C   0  0  0  0  0  0  0  0  0  0  0  0
   -1.7798   -2.2182   -0.2130 H   0  0  0  0  0  0  0  0  0  0  0  0
   -2.0655   -0.9165   -1.4233 H   0  0  0  0  0  0  0  0  0  0  0  0
   -3.0068   -0.9410    0.0808 H   0  0  0  0  0  0  0  0  0  0  0  0
    0.6838   -0.2838    1.7105 H   0  0  0  0  0  0  0  0  0  0  0  0
   -0.0058   -1.8590    1.2810 H   0  0  0  0  0  0  0  0  0  0  0  0
    0.8744   -1.4068   -1.1458 H   0  0  0  0  0  0  0  0  0  0  0  0
    1.9731   -1.9688    0.1557 H   0  0  0  0  0  0  0  0  0  0  0  0
    3.0130   -0.3204   -1.1848 H   0  0  0  0  0  0  0  0  0  0  0  0
    2.8221    0.3024    0.4641 H   0  0  0  0  0  0  0  0  0  0  0  0
    0.9479    1.7320    0.8030 H   0  0  0  0  0  0  0  0  0  0  0  0
    0.5025    2.7383   -0.5866 H   0  0  0  0  0  0  0  0  0  0  0  0
   -1.2412    1.2334   -1.3530 H   0  0  0  0  0  0  0  0  0  0  0  0
   -2.6101    1.1739    0.8469 H   0  0  0  0  0  0  0  0  0  0  0  0
   -1.0365    1.2960    1.8269 H   0  0  0  0  0  0  0  0  0  0  0  0
  1  2  1  0
  2  3  1  0
  3  4  1  0
  4  5  1  0
  5  6  1  0
  6  7  1  0
  7  8  1  0
  8  9  1  0
  8  2  1  0
  9  2  1  0
  1 10  1  0
  1 11  1  0
  1 12  1  0
  3 13  1  0
  3 14  1  0
  4 15  1  0
  4 16  1  0
  5 17  1  0
  5 18  1  0
  7 19  1  0
  7 20  1  0
  8 21  1  0
  9 22  1  0
  9 23  1  0
M  END
