
     RDKit          3D

 19 20  0  0  0  0  0  0  0  0999 V2000
   -2.6577   -0.2300   -0.2760 C   0  0  0  0  0  0  0  0  0  0  0  0
   -1.2007   -0.0900   -0.0002 C   0  0  0  0  0  0  0  0  0  0  0  0
   -0.4349   -1.2849    0.5732 C   0  0  0  0  0  0  0  0  0  0  0  0
    0.8191   -0.7037    0.7828 O   0  0  0  0  0  0  0  0  0  0  0  0
    1.1057   -0.0789   -0.4284 C   0  0  0  0  0  0  0  0  0  0  0  0
    2.0837    1.0590   -0.2540 C   0  0  0  0  0  0  0  0  0  0  0  0
    3.2917    0.6713    0.2682 O   0  0  0  0  0  0  0  0  0  0  0  0
   -0.2336    0.5804   -0.7912 C   0  0  0  0  0  0  0  0  0  0  0  0
   -0.7977    1.1876    0.3764 O   0  0  0  0  0  0  0  0  0  0  0  0
   -2.9682   -1.2831   -0.3117 H   0  0  0  0  0  0  0  0  0  0  0  0
   -3.2099    0.3589    0.4881 H   0  0  0  0  0  0  0  0  0  0  0  0
   -2.8867    0.2289   -1.2797 H   0  0  0  0  0  0  0  0  0  0  0  0
   -0.8912   -1.6783    1.4750 H   0  0  0  0  0  0  0  0  0  0  0  0
   -0.3502   -2.0639   -0.2064 H   0  0  0  0  0  0  0  0  0  0  0  0
    1.4237   -0.8008   -1.1963 H   0  0  0  0  0  0  0  0  0  0  0  0
    2.2399    1.5066   -1.2596 H   0  0  0  0  0  0  0  0  0  0  0  0
    1.6202    1.8273    0.3907 H   0  0  0  0  0  0  0  0  0  0  0  0
    3.3829   -0.2999    0.1770 H   0  0  0  0  0  0  0  0  0  0  0  0
   -0.3363    1.0935   -1.7404 H   0  0  0  0  0  0  0  0  0  0  0  0
  1  2  1  0
  2  3  1  0
  3  4  1  0
  4  5  1  0
  5  6  1  0
  6  7  1  0
  5  8  1  0
  8  9  1  0
  8  2  1  0
  9  2  1  0
  1 10  1  0
  1 11  1  0
  1 12  1  0
  3 13  1  0
  3 14  1  0
  5 15  1  0
  6 16  1  0
  6 17  1  0
  7 18  1  0
  8 19  1  0
M  END
