
     RDKit          3D

 18 21  0  0  0  0  0  0  0  0999 V2000
    2.3849    0.4790    0.1153 C   0  0  0  0  0  0  0  0  0  0  0  0
    1.0871   -0.0375   -0.0778 C   0  0  0  0  0  0  0  0  0  0  0  0
    0.4451   -1.2865    0.1996 C   0  0  0  0  0  0  0  0  0  0  0  0
   -0.5500   -0.9589   -0.8350 C   0  0  0  0  0  0  0  0  0  0  0  0
    0.0051    0.3443   -1.0049 C   0  0  0  0  0  0  0  0  0  0  0  0
   -0.9510    0.2750    0.0490 C   0  0  0  0  0  0  0  0  0  0  0  0
   -2.3599    0.4769    0.1489 C   0  0  0  0  0  0  0  0  0  0  0  0
    0.0262   -0.1990    1.0123 C   0  0  0  0  0  0  0  0  0  0  0  0
    2.4462    1.5985    0.0199 H   0  0  0  0  0  0  0  0  0  0  0  0
    2.7772    0.2361    1.1469 H   0  0  0  0  0  0  0  0  0  0  0  0
    3.1381    0.0637   -0.5798 H   0  0  0  0  0  0  0  0  0  0  0  0
    0.8439   -2.2431    0.4285 H   0  0  0  0  0  0  0  0  0  0  0  0
   -1.2826   -1.5363   -1.2912 H   0  0  0  0  0  0  0  0  0  0  0  0
    0.0835    0.9766   -1.8556 H   0  0  0  0  0  0  0  0  0  0  0  0
   -2.9937   -0.3581   -0.2366 H   0  0  0  0  0  0  0  0  0  0  0  0
   -2.7223    1.3846   -0.4155 H   0  0  0  0  0  0  0  0  0  0  0  0
   -2.6817    0.6111    1.2190 H   0  0  0  0  0  0  0  0  0  0  0  0
    0.3041    0.1733    1.9571 H   0  0  0  0  0  0  0  0  0  0  0  0
  1  2  1  0
  2  3  1  0
  3  4  1  0
  4  5  1  0
  5  6  1  0
  6  7  1  0
  6  8  1  0
  5  2  1  0
  8  2  1  0
  8  3  1  0
  6  4  1  0
  1  9  1  0
  1 10  1  0
  1 11  1  0
  3 12  1  0
  4 13  1  0
  5 14  1  0
  7 15  1  0
  7 16  1  0
  7 17  1  0
  8 18  1  0
M  END
