
     RDKit          3D

 19 20  0  0  0  0  0  0  0  0999 V2000
   -1.5220    1.5557    0.0054 C   0  0  0  0  0  0  0  0  0  0  0  0
   -0.5060    0.4915    0.0614 C   0  0  0  0  0  0  0  0  0  0  0  0
    0.7197    0.5501    0.9320 C   0  0  0  0  0  0  0  0  0  0  0  0
    1.5733    0.0656   -0.2209 C   0  0  0  0  0  0  0  0  0  0  0  0
    2.1398   -1.1757   -0.0394 O   0  0  0  0  0  0  0  0  0  0  0  0
    0.3316    0.0635   -1.0678 C   0  0  0  0  0  0  0  0  0  0  0  0
   -0.7783   -0.7915   -0.6712 C   0  0  0  0  0  0  0  0  0  0  0  0
   -0.5587   -1.9939    0.1588 C   0  0  0  0  0  0  0  0  0  0  0  0
   -1.3696   -2.9193    0.0897 O   0  0  0  0  0  0  0  0  0  0  0  0
   -2.0680    1.5074   -0.9596 H   0  0  0  0  0  0  0  0  0  0  0  0
   -1.1380    2.5858    0.0959 H   0  0  0  0  0  0  0  0  0  0  0  0
   -2.2868    1.4015    0.8068 H   0  0  0  0  0  0  0  0  0  0  0  0
    1.0370    1.5350    1.2598 H   0  0  0  0  0  0  0  0  0  0  0  0
    0.6469   -0.2151    1.7285 H   0  0  0  0  0  0  0  0  0  0  0  0
    2.3255    0.8339   -0.5636 H   0  0  0  0  0  0  0  0  0  0  0  0
    2.5630   -1.2202    0.8620 H   0  0  0  0  0  0  0  0  0  0  0  0
    0.3285    0.6584   -2.0112 H   0  0  0  0  0  0  0  0  0  0  0  0
   -1.7058   -0.8042   -1.2984 H   0  0  0  0  0  0  0  0  0  0  0  0
    0.2677   -2.1283    0.8319 H   0  0  0  0  0  0  0  0  0  0  0  0
  1  2  1  0
  2  3  1  0
  3  4  1  0
  4  5  1  0
  4  6  1  0
  6  7  1  0
  7  8  1  0
  8  9  2  0
  6  2  1  0
  7  2  1  0
  1 10  1  0
  1 11  1  0
  1 12  1  0
  3 13  1  0
  3 14  1  0
  4 15  1  0
  5 16  1  0
  6 17  1  0
  7 18  1  0
  8 19  1  0
M  END
