
     RDKit          3D

 19 20  0  0  0  0  0  0  0  0999 V2000
   -2.0898    0.2169    0.3154 C   0  0  0  0  0  0  0  0  0  0  0  0
   -0.6397    0.0544    0.1131 C   0  0  0  0  0  0  0  0  0  0  0  0
   -0.1109    0.7872   -1.1020 C   0  0  0  0  0  0  0  0  0  0  0  0
    1.1875    0.5538   -1.2959 C   0  0  0  0  0  0  0  0  0  0  0  0
    1.8209   -0.3131   -0.2287 C   0  0  0  0  0  0  0  0  0  0  0  0
    1.4997    0.3886    1.0650 C   0  0  0  0  0  0  0  0  0  0  0  0
    0.1956    0.5755    1.2427 C   0  0  0  0  0  0  0  0  0  0  0  0
    1.1453   -1.5209   -0.1855 O   0  0  0  0  0  0  0  0  0  0  0  0
   -0.2188   -1.4019   -0.1425 C   0  0  0  0  0  0  0  0  0  0  0  0
   -2.4750   -0.6514    0.8956 H   0  0  0  0  0  0  0  0  0  0  0  0
   -2.6374    0.2500   -0.6368 H   0  0  0  0  0  0  0  0  0  0  0  0
   -2.2642    1.1419    0.9211 H   0  0  0  0  0  0  0  0  0  0  0  0
   -0.7377    1.4100   -1.7084 H   0  0  0  0  0  0  0  0  0  0  0  0
    1.7694    0.9220   -2.1122 H   0  0  0  0  0  0  0  0  0  0  0  0
    2.8743   -0.4149   -0.4269 H   0  0  0  0  0  0  0  0  0  0  0  0
    2.2756    0.6925    1.7505 H   0  0  0  0  0  0  0  0  0  0  0  0
   -0.2526    1.0495    2.0992 H   0  0  0  0  0  0  0  0  0  0  0  0
   -0.7060   -2.0852    0.5809 H   0  0  0  0  0  0  0  0  0  0  0  0
   -0.6363   -1.6549   -1.1444 H   0  0  0  0  0  0  0  0  0  0  0  0
  1  2  1  0
  2  3  1  0
  3  4  2  0
  4  5  1  0
  5  6  1  0
  6  7  2  0
  5  8  1  0
  8  9  1  0
  7  2  1  0
  9  2  1  0
  1 10  1  0
  1 11  1  0
  1 12  1  0
  3 13  1  0
  4 14  1  0
  5 15  1  0
  6 16  1  0
  7 17  1  0
  9 18  1  0
  9 19  1  0
M  END
