
     RDKit          3D

 19 21  0  0  0  0  0  0  0  0999 V2000
   -2.4271   -0.0795    0.0593 C   0  0  0  0  0  0  0  0  0  0  0  0
   -1.0034    0.1797    0.0347 C   0  0  0  0  0  0  0  0  0  0  0  0
   -0.5046    1.5709    0.0910 C   0  0  0  0  0  0  0  0  0  0  0  0
    0.8397    1.4072    0.0726 C   0  0  0  0  0  0  0  0  0  0  0  0
    1.0137   -0.0391   -0.0230 C   0  0  0  0  0  0  0  0  0  0  0  0
    2.3246   -0.6441   -0.0990 C   0  0  0  0  0  0  0  0  0  0  0  0
   -0.0559   -0.6435    0.8318 C   0  0  0  0  0  0  0  0  0  0  0  0
   -0.1742   -1.6269   -0.1308 O   0  0  0  0  0  0  0  0  0  0  0  0
   -0.0943   -0.4925   -0.9180 C   0  0  0  0  0  0  0  0  0  0  0  0
   -2.9454    0.4617   -0.7422 H   0  0  0  0  0  0  0  0  0  0  0  0
   -2.6284   -1.1549   -0.0211 H   0  0  0  0  0  0  0  0  0  0  0  0
   -2.8500    0.2348    1.0583 H   0  0  0  0  0  0  0  0  0  0  0  0
   -1.0456    2.5092    0.1363 H   0  0  0  0  0  0  0  0  0  0  0  0
    1.6159    2.1589    0.1174 H   0  0  0  0  0  0  0  0  0  0  0  0
    2.3780   -1.3736   -0.9596 H   0  0  0  0  0  0  0  0  0  0  0  0
    2.5184   -1.2766    0.8116 H   0  0  0  0  0  0  0  0  0  0  0  0
    3.1757    0.0333   -0.2206 H   0  0  0  0  0  0  0  0  0  0  0  0
   -0.0319   -0.7672    1.8313 H   0  0  0  0  0  0  0  0  0  0  0  0
   -0.1054   -0.4577   -1.9300 H   0  0  0  0  0  0  0  0  0  0  0  0
  1  2  1  0
  2  3  1  0
  3  4  2  0
  4  5  1  0
  5  6  1  0
  5  7  1  0
  7  8  1  0
  8  9  1  0
  7  2  1  0
  9  2  1  0
  9  5  1  0
  1 10  1  0
  1 11  1  0
  1 12  1  0
  3 13  1  0
  4 14  1  0
  6 15  1  0
  6 16  1  0
  6 17  1  0
  7 18  1  0
  9 19  1  0
M  END
