
     RDKit          3D

 19 20  0  0  0  0  0  0  0  0999 V2000
    1.9300    0.4002    0.6267 C   0  0  0  0  0  0  0  0  0  0  0  0
    0.6110    0.3421    0.0339 C   0  0  0  0  0  0  0  0  0  0  0  0
    0.4927   -0.4117   -1.2801 C   0  0  0  0  0  0  0  0  0  0  0  0
   -0.8545   -0.7419   -1.4084 O   0  0  0  0  0  0  0  0  0  0  0  0
   -1.4959   -0.2695   -0.2545 C   0  0  0  0  0  0  0  0  0  0  0  0
   -1.4195    1.2283   -0.3127 C   0  0  0  0  0  0  0  0  0  0  0  0
   -0.0716    1.5346   -0.1270 O   0  0  0  0  0  0  0  0  0  0  0  0
   -0.4149   -0.5005    0.8174 C   0  0  0  0  0  0  0  0  0  0  0  0
   -0.0459   -1.8183    0.8356 O   0  0  0  0  0  0  0  0  0  0  0  0
    2.7059   -0.0624   -0.0450 H   0  0  0  0  0  0  0  0  0  0  0  0
    2.2677    1.4653    0.7621 H   0  0  0  0  0  0  0  0  0  0  0  0
    2.0570   -0.0791    1.6207 H   0  0  0  0  0  0  0  0  0  0  0  0
    1.0335   -1.3973   -1.1877 H   0  0  0  0  0  0  0  0  0  0  0  0
    0.8840    0.1753   -2.1146 H   0  0  0  0  0  0  0  0  0  0  0  0
   -2.4351   -0.7090   -0.0324 H   0  0  0  0  0  0  0  0  0  0  0  0
   -1.7383    1.5402   -1.3264 H   0  0  0  0  0  0  0  0  0  0  0  0
   -2.0100    1.7128    0.4882 H   0  0  0  0  0  0  0  0  0  0  0  0
   -0.6751   -0.0559    1.7680 H   0  0  0  0  0  0  0  0  0  0  0  0
   -0.8211   -2.3534    1.1363 H   0  0  0  0  0  0  0  0  0  0  0  0
  1  2  1  0
  2  3  1  0
  3  4  1  0
  4  5  1  0
  5  6  1  0
  6  7  1  0
  5  8  1  0
  8  9  1  0
  7  2  1  0
  8  2  1  0
  1 10  1  0
  1 11  1  0
  1 12  1  0
  3 13  1  0
  3 14  1  0
  5 15  1  0
  6 16  1  0
  6 17  1  0
  8 18  1  0
  9 19  1  0
M  END
