
     RDKit          3D

 21 23  0  0  0  0  0  0  0  0999 V2000
    2.0324    0.6163    0.9217 C   0  0  0  0  0  0  0  0  0  0  0  0
    1.1625    0.1132   -0.1988 C   0  0  0  0  0  0  0  0  0  0  0  0
    1.6625   -1.0182   -0.9770 C   0  0  0  0  0  0  0  0  0  0  0  0
    0.4394   -1.1617   -0.1292 C   0  0  0  0  0  0  0  0  0  0  0  0
   -0.7797   -0.5108   -0.7223 C   0  0  0  0  0  0  0  0  0  0  0  0
   -2.0125   -0.4973    0.0990 C   0  0  0  0  0  0  0  0  0  0  0  0
   -2.0369    0.9276    0.6385 C   0  0  0  0  0  0  0  0  0  0  0  0
   -0.7158    1.3240    0.6597 O   0  0  0  0  0  0  0  0  0  0  0  0
   -0.1084    0.8266   -0.4922 C   0  0  0  0  0  0  0  0  0  0  0  0
    2.9369    1.0798    0.4281 H   0  0  0  0  0  0  0  0  0  0  0  0
    2.4219   -0.1840    1.5693 H   0  0  0  0  0  0  0  0  0  0  0  0
    1.5299    1.4336    1.4464 H   0  0  0  0  0  0  0  0  0  0  0  0
    1.4770   -1.0654   -2.0819 H   0  0  0  0  0  0  0  0  0  0  0  0
    2.5550   -1.5313   -0.6116 H   0  0  0  0  0  0  0  0  0  0  0  0
    0.3921   -1.7997    0.7412 H   0  0  0  0  0  0  0  0  0  0  0  0
   -0.9203   -0.7616   -1.7835 H   0  0  0  0  0  0  0  0  0  0  0  0
   -2.0365   -1.2540    0.8813 H   0  0  0  0  0  0  0  0  0  0  0  0
   -2.8997   -0.5899   -0.5933 H   0  0  0  0  0  0  0  0  0  0  0  0
   -2.4741    0.9562    1.6388 H   0  0  0  0  0  0  0  0  0  0  0  0
   -2.5659    1.5983   -0.0884 H   0  0  0  0  0  0  0  0  0  0  0  0
   -0.0597    1.4982   -1.3459 H   0  0  0  0  0  0  0  0  0  0  0  0
  1  2  1  0
  2  3  1  0
  3  4  1  0
  4  5  1  0
  5  6  1  0
  6  7  1  0
  7  8  1  0
  8  9  1  0
  4  2  1  0
  9  5  1  0
  9  2  1  0
  1 10  1  0
  1 11  1  0
  1 12  1  0
  3 13  1  0
  3 14  1  0
  4 15  1  0
  5 16  1  0
  6 17  1  0
  6 18  1  0
  7 19  1  0
  7 20  1  0
  9 21  1  0
M  END
