
     RDKit          3D

 17 18  0  0  0  0  0  0  0  0999 V2000
   -1.7656    0.9441    0.1458 C   0  0  0  0  0  0  0  0  0  0  0  0
   -0.5332    0.4385   -0.6401 C   0  0  0  0  0  0  0  0  0  0  0  0
   -0.4945   -1.0428   -0.6009 C   0  0  0  0  0  0  0  0  0  0  0  0
   -0.1333   -1.2633    0.7754 O   0  0  0  0  0  0  0  0  0  0  0  0
    0.2545   -0.0324    1.2985 C   0  0  0  0  0  0  0  0  0  0  0  0
    0.1129    0.3151    2.4718 O   0  0  0  0  0  0  0  0  0  0  0  0
    0.8187    0.6268    0.1234 C   0  0  0  0  0  0  0  0  0  0  0  0
    1.9974   -0.2231   -0.3702 C   0  0  0  0  0  0  0  0  0  0  0  0
    0.3423    1.3724   -0.8327 O   0  0  0  0  0  0  0  0  0  0  0  0
   -2.6324    0.5747   -0.4437 H   0  0  0  0  0  0  0  0  0  0  0  0
   -1.8376    2.0270    0.1789 H   0  0  0  0  0  0  0  0  0  0  0  0
   -1.7876    0.4554    1.1228 H   0  0  0  0  0  0  0  0  0  0  0  0
    0.1385   -1.5477   -1.3083 H   0  0  0  0  0  0  0  0  0  0  0  0
   -1.5209   -1.4637   -0.7012 H   0  0  0  0  0  0  0  0  0  0  0  0
    1.8456   -1.2945   -0.2344 H   0  0  0  0  0  0  0  0  0  0  0  0
    2.8195    0.0462    0.3611 H   0  0  0  0  0  0  0  0  0  0  0  0
    2.3757    0.0673   -1.3463 H   0  0  0  0  0  0  0  0  0  0  0  0
  1  2  1  0
  2  3  1  0
  3  4  1  0
  4  5  1  0
  5  6  2  0
  5  7  1  0
  7  8  1  0
  7  9  1  0
  7  2  1  0
  9  2  1  0
  1 10  1  0
  1 11  1  0
  1 12  1  0
  3 13  1  0
  3 14  1  0
  8 15  1  0
  8 16  1  0
  8 17  1  0
M  END
