
     RDKit          3D

 19 20  0  0  0  0  0  0  0  0999 V2000
    0.1223    1.5653   -0.7730 C   0  0  0  0  0  0  0  0  0  0  0  0
    0.3197    0.5464    0.2978 C   0  0  0  0  0  0  0  0  0  0  0  0
   -0.7726    0.4930    1.3406 C   0  0  0  0  0  0  0  0  0  0  0  0
   -1.5309   -0.2484    0.2158 C   0  0  0  0  0  0  0  0  0  0  0  0
   -2.5048   -1.0980    0.6620 O   0  0  0  0  0  0  0  0  0  0  0  0
   -0.2095   -0.8228   -0.0904 C   0  0  0  0  0  0  0  0  0  0  0  0
    0.8530   -1.5169   -0.4094 C   0  0  0  0  0  0  0  0  0  0  0  0
    2.0521   -0.6375   -0.2376 C   0  0  0  0  0  0  0  0  0  0  0  0
    1.6134    0.3059    0.7121 O   0  0  0  0  0  0  0  0  0  0  0  0
   -0.7358    2.2439   -0.4974 H   0  0  0  0  0  0  0  0  0  0  0  0
   -0.0900    1.1151   -1.7825 H   0  0  0  0  0  0  0  0  0  0  0  0
    1.0150    2.2127   -0.9335 H   0  0  0  0  0  0  0  0  0  0  0  0
   -1.2147    1.4301    1.6420 H   0  0  0  0  0  0  0  0  0  0  0  0
   -0.5375   -0.2510    2.1265 H   0  0  0  0  0  0  0  0  0  0  0  0
   -1.8223    0.4617   -0.5928 H   0  0  0  0  0  0  0  0  0  0  0  0
   -2.6289   -1.8837    0.0874 H   0  0  0  0  0  0  0  0  0  0  0  0
    0.8917   -2.5755   -0.7514 H   0  0  0  0  0  0  0  0  0  0  0  0
    2.9040   -1.2127    0.1707 H   0  0  0  0  0  0  0  0  0  0  0  0
    2.2759   -0.1274   -1.1872 H   0  0  0  0  0  0  0  0  0  0  0  0
  1  2  1  0
  2  3  1  0
  3  4  1  0
  4  5  1  0
  4  6  1  0
  6  7  2  0
  7  8  1  0
  8  9  1  0
  6  2  1  0
  9  2  1  0
  1 10  1  0
  1 11  1  0
  1 12  1  0
  3 13  1  0
  3 14  1  0
  4 15  1  0
  5 16  1  0
  7 17  1  0
  8 18  1  0
  8 19  1  0
M  END
