
     RDKit          3D

 19 20  0  0  0  0  0  0  0  0999 V2000
    2.5857   -0.0564   -0.1526 C   0  0  0  0  0  0  0  0  0  0  0  0
    1.1287   -0.0461   -0.5151 C   0  0  0  0  0  0  0  0  0  0  0  0
    0.2698   -1.0699    0.1218 C   0  0  0  0  0  0  0  0  0  0  0  0
   -0.8552   -0.0633    0.2991 C   0  0  0  0  0  0  0  0  0  0  0  0
   -1.3884   -0.1570    1.5553 O   0  0  0  0  0  0  0  0  0  0  0  0
   -1.8164   -0.1995   -0.8579 C   0  0  0  0  0  0  0  0  0  0  0  0
   -2.8097    0.7670   -0.8500 O   0  0  0  0  0  0  0  0  0  0  0  0
    0.2093    0.9907    0.0969 C   0  0  0  0  0  0  0  0  0  0  0  0
    0.6838    1.0471   -1.1831 O   0  0  0  0  0  0  0  0  0  0  0  0
    3.0770    0.9030   -0.4113 H   0  0  0  0  0  0  0  0  0  0  0  0
    3.0489   -0.9106   -0.6880 H   0  0  0  0  0  0  0  0  0  0  0  0
    2.6599   -0.2980    0.9291 H   0  0  0  0  0  0  0  0  0  0  0  0
    0.0196   -1.9455   -0.4993 H   0  0  0  0  0  0  0  0  0  0  0  0
    0.7111   -1.3766    1.1167 H   0  0  0  0  0  0  0  0  0  0  0  0
   -2.1110    0.5189    1.7096 H   0  0  0  0  0  0  0  0  0  0  0  0
   -2.3257   -1.1893   -0.7593 H   0  0  0  0  0  0  0  0  0  0  0  0
   -1.2307   -0.1786   -1.7961 H   0  0  0  0  0  0  0  0  0  0  0  0
   -2.4501    1.6872   -0.8776 H   0  0  0  0  0  0  0  0  0  0  0  0
    0.5935    1.5768    0.9173 H   0  0  0  0  0  0  0  0  0  0  0  0
  1  2  1  0
  2  3  1  0
  3  4  1  0
  4  5  1  0
  4  6  1  0
  6  7  1  0
  4  8  1  0
  8  9  1  0
  8  2  1  0
  9  2  1  0
  1 10  1  0
  1 11  1  0
  1 12  1  0
  3 13  1  0
  3 14  1  0
  5 15  1  0
  6 16  1  0
  6 17  1  0
  7 18  1  0
  8 19  1  0
M  END
