
     RDKit          3D

 19 21  0  0  0  0  0  0  0  0999 V2000
   -2.4848   -0.4682    0.1457 C   0  0  0  0  0  0  0  0  0  0  0  0
   -1.0874   -0.2899   -0.3665 C   0  0  0  0  0  0  0  0  0  0  0  0
   -0.5443    1.0656   -0.6646 C   0  0  0  0  0  0  0  0  0  0  0  0
    0.7117    1.2285    0.2013 C   0  0  0  0  0  0  0  0  0  0  0  0
    1.2514   -0.1556    0.2172 C   0  0  0  0  0  0  0  0  0  0  0  0
    2.5966   -0.5111    0.1929 C   0  0  0  0  0  0  0  0  0  0  0  0
    2.0241   -0.3861   -1.0520 O   0  0  0  0  0  0  0  0  0  0  0  0
    0.0538   -1.0279    0.3388 C   0  0  0  0  0  0  0  0  0  0  0  0
   -0.5034   -1.4330   -0.8699 O   0  0  0  0  0  0  0  0  0  0  0  0
   -2.4252   -1.0780    1.0714 H   0  0  0  0  0  0  0  0  0  0  0  0
   -2.9826    0.4941    0.3380 H   0  0  0  0  0  0  0  0  0  0  0  0
   -3.0979   -1.0813   -0.5749 H   0  0  0  0  0  0  0  0  0  0  0  0
   -1.2524    1.8391   -0.3797 H   0  0  0  0  0  0  0  0  0  0  0  0
   -0.2038    1.2030   -1.7067 H   0  0  0  0  0  0  0  0  0  0  0  0
    0.4457    1.5247    1.2344 H   0  0  0  0  0  0  0  0  0  0  0  0
    1.4327    1.9232   -0.2485 H   0  0  0  0  0  0  0  0  0  0  0  0
    3.3928    0.2109    0.4130 H   0  0  0  0  0  0  0  0  0  0  0  0
    2.9125   -1.5659    0.4287 H   0  0  0  0  0  0  0  0  0  0  0  0
   -0.2395   -1.4920    1.2815 H   0  0  0  0  0  0  0  0  0  0  0  0
  1  2  1  0
  2  3  1  0
  3  4  1  0
  4  5  1  0
  5  6  1  0
  6  7  1  0
  5  8  1  0
  8  9  1  0
  8  2  1  0
  9  2  1  0
  7  5  1  0
  1 10  1  0
  1 11  1  0
  1 12  1  0
  3 13  1  0
  3 14  1  0
  4 15  1  0
  4 16  1  0
  6 17  1  0
  6 18  1  0
  8 19  1  0
M  END
