
     RDKit          3D

 19 20  0  0  0  0  0  0  0  0999 V2000
    2.0958    0.1741   -0.7033 C   0  0  0  0  0  0  0  0  0  0  0  0
    1.0482   -0.0056    0.3644 C   0  0  0  0  0  0  0  0  0  0  0  0
    0.3538    1.1919    0.8200 C   0  0  0  0  0  0  0  0  0  0  0  0
   -0.9311    1.3659    0.5330 C   0  0  0  0  0  0  0  0  0  0  0  0
   -1.6104    0.2802   -0.2694 C   0  0  0  0  0  0  0  0  0  0  0  0
   -1.1842    0.2545   -1.5737 O   0  0  0  0  0  0  0  0  0  0  0  0
   -1.1815   -1.0000    0.4753 C   0  0  0  0  0  0  0  0  0  0  0  0
    0.2788   -1.2400    0.3223 C   0  0  0  0  0  0  0  0  0  0  0  0
    1.1984   -1.0044    1.3159 O   0  0  0  0  0  0  0  0  0  0  0  0
    1.6240    0.6229   -1.6025 H   0  0  0  0  0  0  0  0  0  0  0  0
    2.6038   -0.7580   -0.9483 H   0  0  0  0  0  0  0  0  0  0  0  0
    2.8150    0.9446   -0.3251 H   0  0  0  0  0  0  0  0  0  0  0  0
    0.8890    1.9744    1.4129 H   0  0  0  0  0  0  0  0  0  0  0  0
   -1.4607    2.2503    0.8636 H   0  0  0  0  0  0  0  0  0  0  0  0
   -2.6924    0.3902   -0.1314 H   0  0  0  0  0  0  0  0  0  0  0  0
   -1.1915   -0.6990   -1.9043 H   0  0  0  0  0  0  0  0  0  0  0  0
   -1.4067   -0.7891    1.5443 H   0  0  0  0  0  0  0  0  0  0  0  0
   -1.8044   -1.8500    0.1334 H   0  0  0  0  0  0  0  0  0  0  0  0
    0.5561   -2.1030   -0.3272 H   0  0  0  0  0  0  0  0  0  0  0  0
  1  2  1  0
  2  3  1  0
  3  4  2  0
  4  5  1  0
  5  6  1  0
  5  7  1  0
  7  8  1  0
  8  9  1  0
  8  2  1  0
  9  2  1  0
  1 10  1  0
  1 11  1  0
  1 12  1  0
  3 13  1  0
  4 14  1  0
  5 15  1  0
  6 16  1  0
  7 17  1  0
  7 18  1  0
  8 19  1  0
M  END
