
     RDKit          3D

 17 18  0  0  0  0  0  0  0  0999 V2000
   -1.0152   -1.3465   -0.4223 C   0  0  0  0  0  0  0  0  0  0  0  0
   -0.9581    0.0209    0.1500 C   0  0  0  0  0  0  0  0  0  0  0  0
   -0.6099    1.2148   -0.7021 C   0  0  0  0  0  0  0  0  0  0  0  0
    0.2762    0.7747    0.3772 C   0  0  0  0  0  0  0  0  0  0  0  0
    1.6423    0.2198    0.1576 C   0  0  0  0  0  0  0  0  0  0  0  0
    1.9663    0.0432   -1.1726 O   0  0  0  0  0  0  0  0  0  0  0  0
   -0.1276    0.9826    1.6887 O   0  0  0  0  0  0  0  0  0  0  0  0
   -1.2891    0.2145    1.5768 C   0  0  0  0  0  0  0  0  0  0  0  0
   -2.2370   -0.1856    2.2874 O   0  0  0  0  0  0  0  0  0  0  0  0
   -1.2929   -1.2950   -1.4966 H   0  0  0  0  0  0  0  0  0  0  0  0
   -1.8217   -1.9604    0.0704 H   0  0  0  0  0  0  0  0  0  0  0  0
   -0.0529   -1.9189   -0.3051 H   0  0  0  0  0  0  0  0  0  0  0  0
   -0.4463    0.9635   -1.7625 H   0  0  0  0  0  0  0  0  0  0  0  0
   -1.1641    2.1740   -0.5087 H   0  0  0  0  0  0  0  0  0  0  0  0
    1.7697   -0.7559    0.6718 H   0  0  0  0  0  0  0  0  0  0  0  0
    2.3936    0.9148    0.5959 H   0  0  0  0  0  0  0  0  0  0  0  0
    2.9665   -0.0603   -1.2059 H   0  0  0  0  0  0  0  0  0  0  0  0
  1  2  1  0
  2  3  1  0
  3  4  1  0
  4  5  1  0
  5  6  1  0
  4  7  1  0
  7  8  1  0
  8  9  2  0
  4  2  1  0
  8  2  1  0
  1 10  1  0
  1 11  1  0
  1 12  1  0
  3 13  1  0
  3 14  1  0
  5 15  1  0
  5 16  1  0
  6 17  1  0
M  END
