
     RDKit          3D

 21 22  0  0  0  0  0  0  0  0999 V2000
   -0.4990    1.6515   -0.2268 C   0  0  0  0  0  0  0  0  0  0  0  0
   -0.2336    0.3269    0.4021 C   0  0  0  0  0  0  0  0  0  0  0  0
   -1.4987   -0.3969    0.8031 C   0  0  0  0  0  0  0  0  0  0  0  0
   -1.7419   -1.2861   -0.3996 C   0  0  0  0  0  0  0  0  0  0  0  0
   -0.3683   -1.5405   -0.9582 C   0  0  0  0  0  0  0  0  0  0  0  0
    0.4732   -0.6302   -0.5023 C   0  0  0  0  0  0  0  0  0  0  0  0
    1.8797   -0.1268   -0.4917 C   0  0  0  0  0  0  0  0  0  0  0  0
    1.9351    0.5135    0.8793 C   0  0  0  0  0  0  0  0  0  0  0  0
    0.6627    0.4212    1.4410 O   0  0  0  0  0  0  0  0  0  0  0  0
   -0.0372    1.7744   -1.2270 H   0  0  0  0  0  0  0  0  0  0  0  0
   -1.6048    1.8346   -0.2958 H   0  0  0  0  0  0  0  0  0  0  0  0
   -0.1172    2.4756    0.4304 H   0  0  0  0  0  0  0  0  0  0  0  0
   -1.3000   -1.0014    1.7120 H   0  0  0  0  0  0  0  0  0  0  0  0
   -2.3572    0.2918    0.9146 H   0  0  0  0  0  0  0  0  0  0  0  0
   -2.3575   -0.8116   -1.1698 H   0  0  0  0  0  0  0  0  0  0  0  0
   -2.1232   -2.2711   -0.0601 H   0  0  0  0  0  0  0  0  0  0  0  0
   -0.1772   -2.3675   -1.6286 H   0  0  0  0  0  0  0  0  0  0  0  0
    2.6150   -0.9398   -0.6187 H   0  0  0  0  0  0  0  0  0  0  0  0
    1.9823    0.5777   -1.3152 H   0  0  0  0  0  0  0  0  0  0  0  0
    2.2402    1.5610    0.7525 H   0  0  0  0  0  0  0  0  0  0  0  0
    2.6277   -0.0560    1.5589 H   0  0  0  0  0  0  0  0  0  0  0  0
  1  2  1  0
  2  3  1  0
  3  4  1  0
  4  5  1  0
  5  6  2  0
  6  7  1  0
  7  8  1  0
  8  9  1  0
  6  2  1  0
  9  2  1  0
  1 10  1  0
  1 11  1  0
  1 12  1  0
  3 13  1  0
  3 14  1  0
  4 15  1  0
  4 16  1  0
  5 17  1  0
  7 18  1  0
  7 19  1  0
  8 20  1  0
  8 21  1  0
M  END
