
     RDKit          3D

 19 22  0  0  0  0  0  0  0  0999 V2000
    2.1454    0.5494   -0.0472 C   0  0  0  0  0  0  0  0  0  0  0  0
    0.7006    0.3047   -0.0388 C   0  0  0  0  0  0  0  0  0  0  0  0
   -0.2522    0.7462    0.9632 C   0  0  0  0  0  0  0  0  0  0  0  0
   -1.5751    0.8077    0.2097 C   0  0  0  0  0  0  0  0  0  0  0  0
   -1.4362   -0.3813   -0.6792 C   0  0  0  0  0  0  0  0  0  0  0  0
   -0.7547   -1.4588    0.1211 C   0  0  0  0  0  0  0  0  0  0  0  0
   -0.0094   -1.7153   -1.0568 O   0  0  0  0  0  0  0  0  0  0  0  0
   -0.0308   -0.3073   -1.2089 C   0  0  0  0  0  0  0  0  0  0  0  0
    0.1126   -0.6557    1.0570 C   0  0  0  0  0  0  0  0  0  0  0  0
    2.3409    1.5537    0.4329 H   0  0  0  0  0  0  0  0  0  0  0  0
    2.7759   -0.1906    0.4754 H   0  0  0  0  0  0  0  0  0  0  0  0
    2.5540    0.6631   -1.0840 H   0  0  0  0  0  0  0  0  0  0  0  0
   -0.0099    1.4891    1.7029 H   0  0  0  0  0  0  0  0  0  0  0  0
   -2.4442    0.8090    0.8649 H   0  0  0  0  0  0  0  0  0  0  0  0
   -1.4983    1.7354   -0.4304 H   0  0  0  0  0  0  0  0  0  0  0  0
   -2.2287   -0.6525   -1.3441 H   0  0  0  0  0  0  0  0  0  0  0  0
   -1.3362   -2.2661    0.5121 H   0  0  0  0  0  0  0  0  0  0  0  0
    0.1412    0.0790   -2.1900 H   0  0  0  0  0  0  0  0  0  0  0  0
    0.8054   -1.1099    1.7401 H   0  0  0  0  0  0  0  0  0  0  0  0
  1  2  1  0
  2  3  1  0
  3  4  1  0
  4  5  1  0
  5  6  1  0
  6  7  1  0
  7  8  1  0
  6  9  1  0
  8  2  1  0
  9  2  1  0
  9  3  1  0
  8  5  1  0
  1 10  1  0
  1 11  1  0
  1 12  1  0
  3 13  1  0
  4 14  1  0
  4 15  1  0
  5 16  1  0
  6 17  1  0
  8 18  1  0
  9 19  1  0
M  END
