
     RDKit          3D

 23 24  0  0  0  0  0  0  0  0999 V2000
    0.6810    1.6919    0.6404 C   0  0  0  0  0  0  0  0  0  0  0  0
   -0.0656    0.8166   -0.3153 C   0  0  0  0  0  0  0  0  0  0  0  0
   -1.0375    1.2871   -1.2930 C   0  0  0  0  0  0  0  0  0  0  0  0
   -1.5782    0.7843   -0.0393 C   0  0  0  0  0  0  0  0  0  0  0  0
   -1.9112   -0.6516    0.2134 C   0  0  0  0  0  0  0  0  0  0  0  0
   -0.5609   -1.2730    0.5979 C   0  0  0  0  0  0  0  0  0  0  0  0
    0.3383   -0.6458   -0.4127 C   0  0  0  0  0  0  0  0  0  0  0  0
    1.7971   -0.8300   -0.1361 C   0  0  0  0  0  0  0  0  0  0  0  0
    2.1187   -2.1669   -0.2349 O   0  0  0  0  0  0  0  0  0  0  0  0
    0.0291    2.5099    1.0661 H   0  0  0  0  0  0  0  0  0  0  0  0
    1.6225    2.0930    0.2582 H   0  0  0  0  0  0  0  0  0  0  0  0
    0.9126    1.0461    1.5383 H   0  0  0  0  0  0  0  0  0  0  0  0
   -1.1269    0.6788   -2.2405 H   0  0  0  0  0  0  0  0  0  0  0  0
   -1.1210    2.3625   -1.4946 H   0  0  0  0  0  0  0  0  0  0  0  0
   -2.0005    1.4976    0.6686 H   0  0  0  0  0  0  0  0  0  0  0  0
   -2.2349   -1.1996   -0.6948 H   0  0  0  0  0  0  0  0  0  0  0  0
   -2.5973   -0.7653    1.0537 H   0  0  0  0  0  0  0  0  0  0  0  0
   -0.5861   -2.3597    0.5938 H   0  0  0  0  0  0  0  0  0  0  0  0
   -0.3184   -0.8371    1.6057 H   0  0  0  0  0  0  0  0  0  0  0  0
    0.1116   -1.0505   -1.4046 H   0  0  0  0  0  0  0  0  0  0  0  0
    2.1444   -0.4068    0.8066 H   0  0  0  0  0  0  0  0  0  0  0  0
    2.3542   -0.3018   -0.9490 H   0  0  0  0  0  0  0  0  0  0  0  0
    3.0290   -2.2799    0.1723 H   0  0  0  0  0  0  0  0  0  0  0  0
  1  2  1  0
  2  3  1  0
  3  4  1  0
  4  5  1  0
  5  6  1  0
  6  7  1  0
  7  8  1  0
  8  9  1  0
  4  2  1  0
  7  2  1  0
  1 10  1  0
  1 11  1  0
  1 12  1  0
  3 13  1  0
  3 14  1  0
  4 15  1  0
  5 16  1  0
  5 17  1  0
  6 18  1  0
  6 19  1  0
  7 20  1  0
  8 21  1  0
  8 22  1  0
  9 23  1  0
M  END
