
     RDKit          3D

 23 25  0  0  0  0  0  0  0  0999 V2000
   -1.9965   -1.3140    0.5627 C   0  0  0  0  0  0  0  0  0  0  0  0
   -0.8212   -0.4487    0.0827 C   0  0  0  0  0  0  0  0  0  0  0  0
   -1.1989    0.5788   -0.9101 C   0  0  0  0  0  0  0  0  0  0  0  0
   -0.8859    0.9552    0.5005 C   0  0  0  0  0  0  0  0  0  0  0  0
    0.4244    1.5799    0.8591 C   0  0  0  0  0  0  0  0  0  0  0  0
    1.5129    1.1783   -0.1117 C   0  0  0  0  0  0  0  0  0  0  0  0
    1.6878   -0.2975   -0.0332 C   0  0  0  0  0  0  0  0  0  0  0  0
    1.3238   -1.1542   -1.1977 C   0  0  0  0  0  0  0  0  0  0  0  0
    0.4933   -1.1091    0.1076 C   0  0  0  0  0  0  0  0  0  0  0  0
   -2.9577   -0.7640    0.4695 H   0  0  0  0  0  0  0  0  0  0  0  0
   -1.9959   -2.2072   -0.0984 H   0  0  0  0  0  0  0  0  0  0  0  0
   -1.8800   -1.5726    1.6296 H   0  0  0  0  0  0  0  0  0  0  0  0
   -2.2768    0.7077   -1.1888 H   0  0  0  0  0  0  0  0  0  0  0  0
   -0.5240    0.9124   -1.7160 H   0  0  0  0  0  0  0  0  0  0  0  0
   -1.7302    1.2951    1.1648 H   0  0  0  0  0  0  0  0  0  0  0  0
    0.3305    2.6557    0.9984 H   0  0  0  0  0  0  0  0  0  0  0  0
    0.7343    1.1488    1.8545 H   0  0  0  0  0  0  0  0  0  0  0  0
    2.4385    1.7248    0.2301 H   0  0  0  0  0  0  0  0  0  0  0  0
    1.3224    1.5592   -1.1361 H   0  0  0  0  0  0  0  0  0  0  0  0
    2.6148   -0.6209    0.5252 H   0  0  0  0  0  0  0  0  0  0  0  0
    1.9281   -2.0569   -1.3851 H   0  0  0  0  0  0  0  0  0  0  0  0
    0.8720   -0.7064   -2.0986 H   0  0  0  0  0  0  0  0  0  0  0  0
    0.5845   -2.0443    0.7062 H   0  0  0  0  0  0  0  0  0  0  0  0
  1  2  1  0
  2  3  1  0
  3  4  1  0
  4  5  1  0
  5  6  1  0
  6  7  1  0
  7  8  1  0
  8  9  1  0
  4  2  1  0
  9  7  1  0
  9  2  1  0
  1 10  1  0
  1 11  1  0
  1 12  1  0
  3 13  1  0
  3 14  1  0
  4 15  1  0
  5 16  1  0
  5 17  1  0
  6 18  1  0
  6 19  1  0
  7 20  1  0
  8 21  1  0
  8 22  1  0
  9 23  1  0
M  END
