
     RDKit          3D

 19 21  0  0  0  0  0  0  0  0999 V2000
    2.1012   -0.4431   -0.0101 C   0  0  0  0  0  0  0  0  0  0  0  0
    0.6277   -0.3365    0.1547 C   0  0  0  0  0  0  0  0  0  0  0  0
    0.0320    0.7756    0.9755 C   0  0  0  0  0  0  0  0  0  0  0  0
    0.7766    1.9462    1.0212 O   0  0  0  0  0  0  0  0  0  0  0  0
   -1.0769    0.8750   -0.0351 C   0  0  0  0  0  0  0  0  0  0  0  0
   -2.0903   -0.1859    0.2328 C   0  0  0  0  0  0  0  0  0  0  0  0
   -1.6365   -1.3768   -0.1291 C   0  0  0  0  0  0  0  0  0  0  0  0
   -0.2424   -1.2027   -0.6834 C   0  0  0  0  0  0  0  0  0  0  0  0
   -0.2021    0.1994   -1.0324 C   0  0  0  0  0  0  0  0  0  0  0  0
    2.6222    0.5077    0.2048 H   0  0  0  0  0  0  0  0  0  0  0  0
    2.4600   -1.2479    0.6915 H   0  0  0  0  0  0  0  0  0  0  0  0
    2.4167   -0.7815   -1.0183 H   0  0  0  0  0  0  0  0  0  0  0  0
   -0.3352    0.4980    1.9760 H   0  0  0  0  0  0  0  0  0  0  0  0
    0.5523    2.5274    0.2784 H   0  0  0  0  0  0  0  0  0  0  0  0
   -1.4585    1.8663   -0.2632 H   0  0  0  0  0  0  0  0  0  0  0  0
   -3.0573    0.0400    0.6683 H   0  0  0  0  0  0  0  0  0  0  0  0
   -2.1136   -2.3298   -0.0693 H   0  0  0  0  0  0  0  0  0  0  0  0
    0.2294   -2.0294   -1.1947 H   0  0  0  0  0  0  0  0  0  0  0  0
    0.3948    0.6981   -1.7676 H   0  0  0  0  0  0  0  0  0  0  0  0
  1  2  1  0
  2  3  1  0
  3  4  1  0
  3  5  1  0
  5  6  1  0
  6  7  2  0
  7  8  1  0
  8  9  1  0
  8  2  1  0
  9  2  1  0
  9  5  1  0
  1 10  1  0
  1 11  1  0
  1 12  1  0
  3 13  1  0
  4 14  1  0
  5 15  1  0
  6 16  1  0
  7 17  1  0
  8 18  1  0
  9 19  1  0
M  END
