
     RDKit          3D

 18 20  0  0  0  0  0  0  0  0999 V2000
   -1.5825   -0.9207    0.5095 C   0  0  0  0  0  0  0  0  0  0  0  0
   -1.0804    0.2663   -0.2172 C   0  0  0  0  0  0  0  0  0  0  0  0
   -0.1776    0.0211   -1.3178 C   0  0  0  0  0  0  0  0  0  0  0  0
    1.1992   -0.0222   -0.6427 C   0  0  0  0  0  0  0  0  0  0  0  0
    1.3896   -0.6671    0.6506 C   0  0  0  0  0  0  0  0  0  0  0  0
    0.9765    0.7125    0.7312 C   0  0  0  0  0  0  0  0  0  0  0  0
   -0.2369    1.4075    0.3836 C   0  0  0  0  0  0  0  0  0  0  0  0
   -1.5217    1.3255    0.4694 O   0  0  0  0  0  0  0  0  0  0  0  0
   -1.3230   -1.9075    0.0400 H   0  0  0  0  0  0  0  0  0  0  0  0
   -1.4785   -0.9056    1.6056 H   0  0  0  0  0  0  0  0  0  0  0  0
   -2.7146   -0.8988    0.3681 H   0  0  0  0  0  0  0  0  0  0  0  0
   -0.1356    0.9060   -2.0179 H   0  0  0  0  0  0  0  0  0  0  0  0
   -0.4088   -0.8875   -1.8651 H   0  0  0  0  0  0  0  0  0  0  0  0
    2.0311    0.3238   -1.2481 H   0  0  0  0  0  0  0  0  0  0  0  0
    2.4768   -0.9252    0.8548 H   0  0  0  0  0  0  0  0  0  0  0  0
    0.7737   -1.4639    1.0760 H   0  0  0  0  0  0  0  0  0  0  0  0
    1.8197    1.4229    1.0250 H   0  0  0  0  0  0  0  0  0  0  0  0
   -0.0069    2.2129   -0.4050 H   0  0  0  0  0  0  0  0  0  0  0  0
  1  2  1  0
  2  3  1  0
  3  4  1  0
  4  5  1  0
  5  6  1  0
  6  7  1  0
  7  8  1  0
  7  2  1  0
  8  2  1  0
  6  4  1  0
  1  9  1  0
  1 10  1  0
  1 11  1  0
  3 12  1  0
  3 13  1  0
  4 14  1  0
  5 15  1  0
  5 16  1  0
  6 17  1  0
  7 18  1  0
M  END
