
     RDKit          3D

 17 20  0  0  0  0  0  0  0  0999 V2000
    2.2453    0.0478   -0.3286 C   0  0  0  0  0  0  0  0  0  0  0  0
    0.7975   -0.1200   -0.0524 C   0  0  0  0  0  0  0  0  0  0  0  0
    0.3792   -1.2463    0.6308 O   0  0  0  0  0  0  0  0  0  0  0  0
   -0.9929   -1.2830    0.5872 C   0  0  0  0  0  0  0  0  0  0  0  0
   -1.6805   -0.0013    0.9467 C   0  0  0  0  0  0  0  0  0  0  0  0
   -0.9167    1.1044    1.2072 O   0  0  0  0  0  0  0  0  0  0  0  0
    0.0735    1.1903    0.2664 C   0  0  0  0  0  0  0  0  0  0  0  0
   -0.2756    0.3720   -0.9126 C   0  0  0  0  0  0  0  0  0  0  0  0
   -1.4961   -0.3932   -0.4625 C   0  0  0  0  0  0  0  0  0  0  0  0
    2.7706   -0.9190   -0.2421 H   0  0  0  0  0  0  0  0  0  0  0  0
    2.6724    0.6932    0.4933 H   0  0  0  0  0  0  0  0  0  0  0  0
    2.4686    0.5812   -1.2759 H   0  0  0  0  0  0  0  0  0  0  0  0
   -1.4781   -2.2547    0.7048 H   0  0  0  0  0  0  0  0  0  0  0  0
   -2.6679   -0.0073    1.4484 H   0  0  0  0  0  0  0  0  0  0  0  0
    0.5747    2.1405    0.0719 H   0  0  0  0  0  0  0  0  0  0  0  0
   -0.1636    0.7107   -1.9394 H   0  0  0  0  0  0  0  0  0  0  0  0
   -2.3103   -0.6152   -1.1433 H   0  0  0  0  0  0  0  0  0  0  0  0
  1  2  1  0
  2  3  1  0
  3  4  1  0
  4  5  1  0
  5  6  1  0
  6  7  1  0
  7  8  1  0
  8  9  1  0
  7  2  1  0
  8  2  1  0
  9  4  1  0
  9  5  1  0
  1 10  1  0
  1 11  1  0
  1 12  1  0
  4 13  1  0
  5 14  1  0
  7 15  1  0
  8 16  1  0
  9 17  1  0
M  END
