
     RDKit          3D

 21 22  0  0  0  0  0  0  0  0999 V2000
   -2.2624   -0.7002    0.1355 C   0  0  0  0  0  0  0  0  0  0  0  0
   -0.8267   -0.1620    0.1571 C   0  0  0  0  0  0  0  0  0  0  0  0
    0.1378   -1.2785    0.1591 C   0  0  0  0  0  0  0  0  0  0  0  0
    1.4827   -1.0034   -0.4071 C   0  0  0  0  0  0  0  0  0  0  0  0
    2.0662    0.2825    0.0774 C   0  0  0  0  0  0  0  0  0  0  0  0
    1.4417    1.3830    0.4678 C   0  0  0  0  0  0  0  0  0  0  0  0
   -0.0328    1.6486    0.4549 C   0  0  0  0  0  0  0  0  0  0  0  0
   -0.5629    0.9456   -0.7943 C   0  0  0  0  0  0  0  0  0  0  0  0
   -0.7110    0.7118    1.2397 O   0  0  0  0  0  0  0  0  0  0  0  0
   -2.8951   -0.0991   -0.5240 H   0  0  0  0  0  0  0  0  0  0  0  0
   -2.2867   -1.7532   -0.2216 H   0  0  0  0  0  0  0  0  0  0  0  0
   -2.6692   -0.7399    1.1841 H   0  0  0  0  0  0  0  0  0  0  0  0
   -0.2875   -2.1563   -0.3704 H   0  0  0  0  0  0  0  0  0  0  0  0
    0.2661   -1.6221    1.2278 H   0  0  0  0  0  0  0  0  0  0  0  0
    1.4876   -1.0257   -1.5233 H   0  0  0  0  0  0  0  0  0  0  0  0
    2.1605   -1.8459   -0.0876 H   0  0  0  0  0  0  0  0  0  0  0  0
    3.1709    0.2932    0.1053 H   0  0  0  0  0  0  0  0  0  0  0  0
    2.0104    2.2220    0.8500 H   0  0  0  0  0  0  0  0  0  0  0  0
   -0.3225    2.6904    0.5717 H   0  0  0  0  0  0  0  0  0  0  0  0
   -1.5391    1.4135   -1.1153 H   0  0  0  0  0  0  0  0  0  0  0  0
    0.1719    0.7959   -1.5869 H   0  0  0  0  0  0  0  0  0  0  0  0
  1  2  1  0
  2  3  1  0
  3  4  1  0
  4  5  1  0
  5  6  2  0
  6  7  1  0
  7  8  1  0
  7  9  1  0
  8  2  1  0
  9  2  1  0
  1 10  1  0
  1 11  1  0
  1 12  1  0
  3 13  1  0
  3 14  1  0
  4 15  1  0
  4 16  1  0
  5 17  1  0
  6 18  1  0
  7 19  1  0
  8 20  1  0
  8 21  1  0
M  END
