
     RDKit          3D

 19 21  0  0  0  0  0  0  0  0999 V2000
   -0.9042   -1.0885    0.8421 C   0  0  0  0  0  0  0  0  0  0  0  0
   -0.4997   -0.1332   -0.0859 C   0  0  0  0  0  0  0  0  0  0  0  0
    0.3373    1.1865    0.3323 C   0  0  0  0  0  0  0  0  0  0  0  0
    1.5231    0.5906    0.4264 C   0  0  0  0  0  0  0  0  0  0  0  0
    1.6574   -0.8935    0.1162 C   0  0  0  0  0  0  0  0  0  0  0  0
    0.9386   -1.1767   -1.0864 O   0  0  0  0  0  0  0  0  0  0  0  0
    0.0799   -0.1814   -1.4691 C   0  0  0  0  0  0  0  0  0  0  0  0
   -1.0962    0.5719   -1.0811 C   0  0  0  0  0  0  0  0  0  0  0  0
   -1.0401    1.6249    0.1369 C   0  0  0  0  0  0  0  0  0  0  0  0
   -0.7303   -2.1523    0.5092 H   0  0  0  0  0  0  0  0  0  0  0  0
   -2.0398   -1.0920    0.9984 H   0  0  0  0  0  0  0  0  0  0  0  0
   -0.5508   -1.0034    1.9086 H   0  0  0  0  0  0  0  0  0  0  0  0
    2.3568    1.2067    0.7266 H   0  0  0  0  0  0  0  0  0  0  0  0
    2.7364   -0.9531   -0.2427 H   0  0  0  0  0  0  0  0  0  0  0  0
    1.4952   -1.5569    0.9214 H   0  0  0  0  0  0  0  0  0  0  0  0
    0.7351    0.5508   -1.9734 H   0  0  0  0  0  0  0  0  0  0  0  0
   -2.0374    0.5331   -1.6109 H   0  0  0  0  0  0  0  0  0  0  0  0
   -1.7531    1.3294    0.9081 H   0  0  0  0  0  0  0  0  0  0  0  0
   -1.2081    2.6370   -0.2769 H   0  0  0  0  0  0  0  0  0  0  0  0
  1  2  1  0
  2  3  1  0
  3  4  2  0
  4  5  1  0
  5  6  1  0
  6  7  1  0
  7  8  1  0
  8  9  1  0
  7  2  1  0
  8  2  1  0
  9  3  1  0
  1 10  1  0
  1 11  1  0
  1 12  1  0
  4 13  1  0
  5 14  1  0
  5 15  1  0
  7 16  1  0
  8 17  1  0
  9 18  1  0
  9 19  1  0
M  END
