
     RDKit          3D

 19 22  0  0  0  0  0  0  0  0999 V2000
   -1.9857   -0.8704    0.3031 C   0  0  0  0  0  0  0  0  0  0  0  0
   -0.7169   -0.2110    0.1520 C   0  0  0  0  0  0  0  0  0  0  0  0
    0.4338   -0.6822   -0.7115 C   0  0  0  0  0  0  0  0  0  0  0  0
    1.6122   -1.0230    0.1912 C   0  0  0  0  0  0  0  0  0  0  0  0
    1.8773    0.0899    0.9381 O   0  0  0  0  0  0  0  0  0  0  0  0
    1.2165    1.1772    0.4560 C   0  0  0  0  0  0  0  0  0  0  0  0
    0.7430    0.7723   -0.9489 C   0  0  0  0  0  0  0  0  0  0  0  0
   -0.5947    1.1451   -0.5770 C   0  0  0  0  0  0  0  0  0  0  0  0
   -0.2812    1.0631    0.8130 C   0  0  0  0  0  0  0  0  0  0  0  0
   -1.9667   -1.5443    1.2106 H   0  0  0  0  0  0  0  0  0  0  0  0
   -2.7860   -0.1150    0.5602 H   0  0  0  0  0  0  0  0  0  0  0  0
   -2.3091   -1.4533   -0.5601 H   0  0  0  0  0  0  0  0  0  0  0  0
    0.2333   -1.3196   -1.5407 H   0  0  0  0  0  0  0  0  0  0  0  0
    1.2694   -1.8531    0.8389 H   0  0  0  0  0  0  0  0  0  0  0  0
    2.4621   -1.3448   -0.4495 H   0  0  0  0  0  0  0  0  0  0  0  0
    1.6377    2.1615    0.5444 H   0  0  0  0  0  0  0  0  0  0  0  0
    1.2937    1.0884   -1.7784 H   0  0  0  0  0  0  0  0  0  0  0  0
   -1.4444    1.4265   -1.1223 H   0  0  0  0  0  0  0  0  0  0  0  0
   -0.6943    1.4926    1.6811 H   0  0  0  0  0  0  0  0  0  0  0  0
  1  2  1  0
  2  3  1  0
  3  4  1  0
  4  5  1  0
  5  6  1  0
  6  7  1  0
  7  8  1  0
  8  9  1  0
  8  2  1  0
  9  2  1  0
  7  3  1  0
  9  6  1  0
  1 10  1  0
  1 11  1  0
  1 12  1  0
  3 13  1  0
  4 14  1  0
  4 15  1  0
  6 16  1  0
  7 17  1  0
  8 18  1  0
  9 19  1  0
M  END
