
     RDKit          3D

 23 24  0  0  0  0  0  0  0  0999 V2000
   -1.4544    1.2601    0.7705 C   0  0  0  0  0  0  0  0  0  0  0  0
   -0.7323    0.3256   -0.1530 C   0  0  0  0  0  0  0  0  0  0  0  0
   -1.6695   -0.6965   -0.7232 C   0  0  0  0  0  0  0  0  0  0  0  0
   -0.9345   -1.8279    0.0004 C   0  0  0  0  0  0  0  0  0  0  0  0
    0.0241   -0.8018    0.5163 C   0  0  0  0  0  0  0  0  0  0  0  0
    1.3652   -0.9495   -0.2158 C   0  0  0  0  0  0  0  0  0  0  0  0
    2.0942    0.3472    0.0923 C   0  0  0  0  0  0  0  0  0  0  0  0
    1.2512    1.4651   -0.4757 C   0  0  0  0  0  0  0  0  0  0  0  0
    0.0658    1.0026   -1.0443 O   0  0  0  0  0  0  0  0  0  0  0  0
   -2.1914    1.8339    0.1440 H   0  0  0  0  0  0  0  0  0  0  0  0
   -0.7667    2.0389    1.1898 H   0  0  0  0  0  0  0  0  0  0  0  0
   -2.0174    0.7540    1.5572 H   0  0  0  0  0  0  0  0  0  0  0  0
   -1.6175   -0.7444   -1.8157 H   0  0  0  0  0  0  0  0  0  0  0  0
   -2.7194   -0.6464   -0.3310 H   0  0  0  0  0  0  0  0  0  0  0  0
   -1.5014   -2.2820    0.8296 H   0  0  0  0  0  0  0  0  0  0  0  0
   -0.5077   -2.5695   -0.7228 H   0  0  0  0  0  0  0  0  0  0  0  0
    0.1615   -0.7251    1.5943 H   0  0  0  0  0  0  0  0  0  0  0  0
    1.9094   -1.8400    0.0835 H   0  0  0  0  0  0  0  0  0  0  0  0
    1.1155   -0.9046   -1.3038 H   0  0  0  0  0  0  0  0  0  0  0  0
    2.0803    0.4308    1.2174 H   0  0  0  0  0  0  0  0  0  0  0  0
    3.1291    0.3559   -0.2437 H   0  0  0  0  0  0  0  0  0  0  0  0
    1.8488    1.9420   -1.2756 H   0  0  0  0  0  0  0  0  0  0  0  0
    1.0670    2.2314    0.3090 H   0  0  0  0  0  0  0  0  0  0  0  0
  1  2  1  0
  2  3  1  0
  3  4  1  0
  4  5  1  0
  5  6  1  0
  6  7  1  0
  7  8  1  0
  8  9  1  0
  5  2  1  0
  9  2  1  0
  1 10  1  0
  1 11  1  0
  1 12  1  0
  3 13  1  0
  3 14  1  0
  4 15  1  0
  4 16  1  0
  5 17  1  0
  6 18  1  0
  6 19  1  0
  7 20  1  0
  7 21  1  0
  8 22  1  0
  8 23  1  0
M  END
