
     RDKit          3D

 19 21  0  0  0  0  0  0  0  0999 V2000
    2.3067    0.2006   -0.2432 C   0  0  0  0  0  0  0  0  0  0  0  0
    0.9281    0.3319    0.2957 C   0  0  0  0  0  0  0  0  0  0  0  0
    0.7956    0.3769    1.6858 O   0  0  0  0  0  0  0  0  0  0  0  0
    0.3428   -0.8244    1.1329 C   0  0  0  0  0  0  0  0  0  0  0  0
   -1.0310   -0.8850    0.5308 C   0  0  0  0  0  0  0  0  0  0  0  0
   -0.7390   -0.7603   -0.9467 C   0  0  0  0  0  0  0  0  0  0  0  0
   -0.2454    0.6366   -0.5566 C   0  0  0  0  0  0  0  0  0  0  0  0
   -1.3927    0.6022    0.4640 C   0  0  0  0  0  0  0  0  0  0  0  0
   -2.6229    0.8756   -0.0764 O   0  0  0  0  0  0  0  0  0  0  0  0
    2.4245    0.6219   -1.2727 H   0  0  0  0  0  0  0  0  0  0  0  0
    2.6941   -0.8246   -0.2651 H   0  0  0  0  0  0  0  0  0  0  0  0
    2.9821    0.8315    0.4068 H   0  0  0  0  0  0  0  0  0  0  0  0
    0.9603   -1.7307    1.2296 H   0  0  0  0  0  0  0  0  0  0  0  0
   -1.7554   -1.5656    0.8766 H   0  0  0  0  0  0  0  0  0  0  0  0
   -1.6271   -0.6457   -1.5947 H   0  0  0  0  0  0  0  0  0  0  0  0
    0.0404   -1.4479   -1.2854 H   0  0  0  0  0  0  0  0  0  0  0  0
   -0.2489    1.3950   -1.2859 H   0  0  0  0  0  0  0  0  0  0  0  0
   -1.1510    1.0649    1.4307 H   0  0  0  0  0  0  0  0  0  0  0  0
   -2.6612    1.7471   -0.5263 H   0  0  0  0  0  0  0  0  0  0  0  0
  1  2  1  0
  2  3  1  0
  3  4  1  0
  4  5  1  0
  5  6  1  0
  6  7  1  0
  7  8  1  0
  8  9  1  0
  4  2  1  0
  8  5  1  0
  7  2  1  0
  1 10  1  0
  1 11  1  0
  1 12  1  0
  4 13  1  0
  5 14  1  0
  6 15  1  0
  6 16  1  0
  7 17  1  0
  8 18  1  0
  9 19  1  0
M  END
