
     RDKit          3D

 21 23  0  0  0  0  0  0  0  0999 V2000
    2.0855   -0.8110   -0.3348 C   0  0  0  0  0  0  0  0  0  0  0  0
    0.6491   -0.4473   -0.1009 C   0  0  0  0  0  0  0  0  0  0  0  0
   -0.1132   -1.5461    0.1464 O   0  0  0  0  0  0  0  0  0  0  0  0
   -1.4308   -1.4702   -0.1856 C   0  0  0  0  0  0  0  0  0  0  0  0
   -1.9629   -0.1322    0.2732 C   0  0  0  0  0  0  0  0  0  0  0  0
   -0.9184    0.8910    0.0661 C   0  0  0  0  0  0  0  0  0  0  0  0
    0.0742    0.5655   -1.0244 C   0  0  0  0  0  0  0  0  0  0  0  0
    0.9316    1.5889   -0.3219 C   0  0  0  0  0  0  0  0  0  0  0  0
    0.3852    0.7176    0.7913 C   0  0  0  0  0  0  0  0  0  0  0  0
    2.1682   -1.8929   -0.5734 H   0  0  0  0  0  0  0  0  0  0  0  0
    2.5443   -0.2783   -1.1945 H   0  0  0  0  0  0  0  0  0  0  0  0
    2.6357   -0.6530    0.6139 H   0  0  0  0  0  0  0  0  0  0  0  0
   -1.6427   -1.6868   -1.2326 H   0  0  0  0  0  0  0  0  0  0  0  0
   -1.9825   -2.2435    0.4251 H   0  0  0  0  0  0  0  0  0  0  0  0
   -2.2483   -0.1440    1.3456 H   0  0  0  0  0  0  0  0  0  0  0  0
   -2.8410    0.1180   -0.3391 H   0  0  0  0  0  0  0  0  0  0  0  0
   -1.2346    1.9453    0.0777 H   0  0  0  0  0  0  0  0  0  0  0  0
   -0.1106    0.5065   -2.0048 H   0  0  0  0  0  0  0  0  0  0  0  0
    1.9966    1.5576   -0.4948 H   0  0  0  0  0  0  0  0  0  0  0  0
    0.4507    2.5922   -0.3242 H   0  0  0  0  0  0  0  0  0  0  0  0
    0.5641    0.8226    1.7668 H   0  0  0  0  0  0  0  0  0  0  0  0
  1  2  1  0
  2  3  1  0
  3  4  1  0
  4  5  1  0
  5  6  1  0
  6  7  1  0
  7  8  1  0
  8  9  1  0
  7  2  1  0
  9  2  1  0
  9  6  1  0
  1 10  1  0
  1 11  1  0
  1 12  1  0
  4 13  1  0
  4 14  1  0
  5 15  1  0
  5 16  1  0
  6 17  1  0
  7 18  1  0
  8 19  1  0
  8 20  1  0
  9 21  1  0
M  END
