
     RDKit          3D

 21 22  0  0  0  0  0  0  0  0999 V2000
   -1.1277    1.4771    0.2868 C   0  0  0  0  0  0  0  0  0  0  0  0
   -0.6663    0.1340    0.1653 C   0  0  0  0  0  0  0  0  0  0  0  0
   -1.1586   -0.9770    1.0461 C   0  0  0  0  0  0  0  0  0  0  0  0
   -0.4339   -2.0624    0.4842 O   0  0  0  0  0  0  0  0  0  0  0  0
    0.3069   -1.4714   -0.5097 C   0  0  0  0  0  0  0  0  0  0  0  0
   -0.7005   -0.5677   -1.1997 C   0  0  0  0  0  0  0  0  0  0  0  0
    0.8129   -0.1945    0.1600 C   0  0  0  0  0  0  0  0  0  0  0  0
    1.6910    0.6587   -0.6627 C   0  0  0  0  0  0  0  0  0  0  0  0
    1.2812   -0.4638    1.4120 O   0  0  0  0  0  0  0  0  0  0  0  0
   -1.7483    1.8064   -0.5961 H   0  0  0  0  0  0  0  0  0  0  0  0
   -1.7618    1.7216    1.1747 H   0  0  0  0  0  0  0  0  0  0  0  0
   -0.2828    2.2072    0.3280 H   0  0  0  0  0  0  0  0  0  0  0  0
   -2.2317   -1.1489    1.0025 H   0  0  0  0  0  0  0  0  0  0  0  0
   -0.7590   -0.8636    2.0820 H   0  0  0  0  0  0  0  0  0  0  0  0
    0.9851   -2.0288   -1.1006 H   0  0  0  0  0  0  0  0  0  0  0  0
   -0.3352    0.0201   -2.0325 H   0  0  0  0  0  0  0  0  0  0  0  0
   -1.6909   -1.0522   -1.3042 H   0  0  0  0  0  0  0  0  0  0  0  0
    1.1916    1.2442   -1.4534 H   0  0  0  0  0  0  0  0  0  0  0  0
    2.5103    0.0105   -1.0851 H   0  0  0  0  0  0  0  0  0  0  0  0
    2.2149    1.3754    0.0058 H   0  0  0  0  0  0  0  0  0  0  0  0
    1.9029    0.1750    1.7965 H   0  0  0  0  0  0  0  0  0  0  0  0
  1  2  1  0
  2  3  1  0
  3  4  1  0
  4  5  1  0
  5  6  1  0
  5  7  1  0
  7  8  1  0
  7  9  1  0
  6  2  1  0
  7  2  1  0
  1 10  1  0
  1 11  1  0
  1 12  1  0
  3 13  1  0
  3 14  1  0
  5 15  1  0
  6 16  1  0
  6 17  1  0
  8 18  1  0
  8 19  1  0
  8 20  1  0
  9 21  1  0
M  END
