
     RDKit          3D

 19 21  0  0  0  0  0  0  0  0999 V2000
    2.4409   -0.3664    0.1632 C   0  0  0  0  0  0  0  0  0  0  0  0
    1.1045    0.0024   -0.3618 C   0  0  0  0  0  0  0  0  0  0  0  0
    0.8832    0.4156   -1.6389 O   0  0  0  0  0  0  0  0  0  0  0  0
    0.6075    1.3106   -0.6264 C   0  0  0  0  0  0  0  0  0  0  0  0
   -0.5723    1.0867    0.2876 C   0  0  0  0  0  0  0  0  0  0  0  0
   -1.8074    1.0779   -0.2942 O   0  0  0  0  0  0  0  0  0  0  0  0
   -2.3755   -0.1684    0.0314 C   0  0  0  0  0  0  0  0  0  0  0  0
   -1.1991   -1.0782   -0.3531 C   0  0  0  0  0  0  0  0  0  0  0  0
   -0.1135   -0.3501    0.4383 C   0  0  0  0  0  0  0  0  0  0  0  0
    2.3091   -1.2850    0.8038 H   0  0  0  0  0  0  0  0  0  0  0  0
    3.1689   -0.6280   -0.6176 H   0  0  0  0  0  0  0  0  0  0  0  0
    2.8030    0.4155    0.8630 H   0  0  0  0  0  0  0  0  0  0  0  0
    1.2358    2.1948   -0.5067 H   0  0  0  0  0  0  0  0  0  0  0  0
   -0.4994    1.7096    1.1881 H   0  0  0  0  0  0  0  0  0  0  0  0
   -3.2775   -0.3917   -0.5197 H   0  0  0  0  0  0  0  0  0  0  0  0
   -2.4424   -0.2081    1.1203 H   0  0  0  0  0  0  0  0  0  0  0  0
   -1.3453   -2.1050   -0.0290 H   0  0  0  0  0  0  0  0  0  0  0  0
   -0.9526   -0.9342   -1.4073 H   0  0  0  0  0  0  0  0  0  0  0  0
    0.0321   -0.6979    1.4589 H   0  0  0  0  0  0  0  0  0  0  0  0
  1  2  1  0
  2  3  1  0
  3  4  1  0
  4  5  1  0
  5  6  1  0
  6  7  1  0
  7  8  1  0
  8  9  1  0
  4  2  1  0
  9  5  1  0
  9  2  1  0
  1 10  1  0
  1 11  1  0
  1 12  1  0
  4 13  1  0
  5 14  1  0
  7 15  1  0
  7 16  1  0
  8 17  1  0
  8 18  1  0
  9 19  1  0
M  END
