
     RDKit          3D

 21 22  0  0  0  0  0  0  0  0999 V2000
   -1.7873   -0.2746    0.8138 C   0  0  0  0  0  0  0  0  0  0  0  0
   -1.2333    0.0686   -0.5299 C   0  0  0  0  0  0  0  0  0  0  0  0
   -0.6527    1.4141   -0.6709 C   0  0  0  0  0  0  0  0  0  0  0  0
    0.5527    1.6085    0.2029 C   0  0  0  0  0  0  0  0  0  0  0  0
    1.4924    0.7355    0.5452 C   0  0  0  0  0  0  0  0  0  0  0  0
    1.7211   -0.6643    0.2357 C   0  0  0  0  0  0  0  0  0  0  0  0
    0.4928   -1.4967   -0.0447 C   0  0  0  0  0  0  0  0  0  0  0  0
   -0.2089   -0.8799   -1.1783 C   0  0  0  0  0  0  0  0  0  0  0  0
   -1.5023   -0.8404   -1.4822 O   0  0  0  0  0  0  0  0  0  0  0  0
   -2.7525    0.3086    0.9083 H   0  0  0  0  0  0  0  0  0  0  0  0
   -1.1178    0.0873    1.5974 H   0  0  0  0  0  0  0  0  0  0  0  0
   -2.0930   -1.3308    0.9247 H   0  0  0  0  0  0  0  0  0  0  0  0
   -1.3989    2.1604   -0.3219 H   0  0  0  0  0  0  0  0  0  0  0  0
   -0.4050    1.7134   -1.7195 H   0  0  0  0  0  0  0  0  0  0  0  0
    0.6779    2.6097    0.6177 H   0  0  0  0  0  0  0  0  0  0  0  0
    2.2436    1.1670    1.1916 H   0  0  0  0  0  0  0  0  0  0  0  0
    2.3690   -1.1373    1.0094 H   0  0  0  0  0  0  0  0  0  0  0  0
    2.3371   -0.7092   -0.7061 H   0  0  0  0  0  0  0  0  0  0  0  0
    0.8504   -2.5066   -0.3260 H   0  0  0  0  0  0  0  0  0  0  0  0
   -0.0540   -1.5859    0.8942 H   0  0  0  0  0  0  0  0  0  0  0  0
    0.4686   -0.4474   -1.9616 H   0  0  0  0  0  0  0  0  0  0  0  0
  1  2  1  0
  2  3  1  0
  3  4  1  0
  4  5  2  0
  5  6  1  0
  6  7  1  0
  7  8  1  0
  8  9  1  0
  8  2  1  0
  9  2  1  0
  1 10  1  0
  1 11  1  0
  1 12  1  0
  3 13  1  0
  3 14  1  0
  4 15  1  0
  5 16  1  0
  6 17  1  0
  6 18  1  0
  7 19  1  0
  7 20  1  0
  8 21  1  0
M  END
