
     RDKit          3D

 19 20  0  0  0  0  0  0  0  0999 V2000
   -0.1411    1.3775   -0.8847 C   0  0  0  0  0  0  0  0  0  0  0  0
   -0.0784    0.3483    0.2229 C   0  0  0  0  0  0  0  0  0  0  0  0
   -1.3314    0.1346    0.9821 C   0  0  0  0  0  0  0  0  0  0  0  0
   -1.7018   -0.9111   -0.0953 C   0  0  0  0  0  0  0  0  0  0  0  0
   -0.2052   -1.0672   -0.2867 C   0  0  0  0  0  0  0  0  0  0  0  0
    1.0048   -1.4859   -0.5396 C   0  0  0  0  0  0  0  0  0  0  0  0
    1.9894   -0.4434   -0.2273 C   0  0  0  0  0  0  0  0  0  0  0  0
    3.0872   -0.2522   -0.7232 O   0  0  0  0  0  0  0  0  0  0  0  0
    1.2576    0.3196    0.8776 C   0  0  0  0  0  0  0  0  0  0  0  0
    0.8863    1.7773   -1.0928 H   0  0  0  0  0  0  0  0  0  0  0  0
   -0.5517    0.9808   -1.8174 H   0  0  0  0  0  0  0  0  0  0  0  0
   -0.7777    2.2070   -0.5159 H   0  0  0  0  0  0  0  0  0  0  0  0
   -2.0202    0.9916    0.8807 H   0  0  0  0  0  0  0  0  0  0  0  0
   -1.2717   -0.2501    1.9937 H   0  0  0  0  0  0  0  0  0  0  0  0
   -2.2383   -0.4972   -0.9502 H   0  0  0  0  0  0  0  0  0  0  0  0
   -2.1923   -1.7879    0.3624 H   0  0  0  0  0  0  0  0  0  0  0  0
    1.2381   -2.4722   -0.9293 H   0  0  0  0  0  0  0  0  0  0  0  0
    1.7502    1.3014    0.9392 H   0  0  0  0  0  0  0  0  0  0  0  0
    1.2961   -0.2707    1.8037 H   0  0  0  0  0  0  0  0  0  0  0  0
  1  2  1  0
  2  3  1  0
  3  4  1  0
  4  5  1  0
  5  6  2  0
  6  7  1  0
  7  8  2  0
  7  9  1  0
  5  2  1  0
  9  2  1  0
  1 10  1  0
  1 11  1  0
  1 12  1  0
  3 13  1  0
  3 14  1  0
  4 15  1  0
  4 16  1  0
  6 17  1  0
  9 18  1  0
  9 19  1  0
M  END
