
     RDKit          3D

 21 23  0  0  0  0  0  0  0  0999 V2000
    2.0905   -0.8854    0.4404 C   0  0  0  0  0  0  0  0  0  0  0  0
    0.8488   -0.1470   -0.0038 C   0  0  0  0  0  0  0  0  0  0  0  0
   -0.2101   -1.0180   -0.5917 C   0  0  0  0  0  0  0  0  0  0  0  0
   -1.4839   -0.2373   -0.5491 C   0  0  0  0  0  0  0  0  0  0  0  0
   -2.2170   -0.3161    0.7807 C   0  0  0  0  0  0  0  0  0  0  0  0
   -1.3131    0.8024    0.5541 C   0  0  0  0  0  0  0  0  0  0  0  0
    0.1401    0.7929    0.8582 C   0  0  0  0  0  0  0  0  0  0  0  0
    1.0022    1.2734   -0.3095 C   0  0  0  0  0  0  0  0  0  0  0  0
    0.3791    1.8363   -1.4091 O   0  0  0  0  0  0  0  0  0  0  0  0
    1.8596   -1.9625    0.6230 H   0  0  0  0  0  0  0  0  0  0  0  0
    2.7739   -0.8950   -0.4592 H   0  0  0  0  0  0  0  0  0  0  0  0
    2.6199   -0.4064    1.2634 H   0  0  0  0  0  0  0  0  0  0  0  0
   -0.3172   -1.9048    0.1020 H   0  0  0  0  0  0  0  0  0  0  0  0
    0.0384   -1.4434   -1.5714 H   0  0  0  0  0  0  0  0  0  0  0  0
   -2.0238    0.0286   -1.4591 H   0  0  0  0  0  0  0  0  0  0  0  0
   -3.2942   -0.1277    0.6993 H   0  0  0  0  0  0  0  0  0  0  0  0
   -1.9648   -1.1621    1.4439 H   0  0  0  0  0  0  0  0  0  0  0  0
   -1.7368    1.7983    0.2847 H   0  0  0  0  0  0  0  0  0  0  0  0
    0.4932    1.0590    1.8764 H   0  0  0  0  0  0  0  0  0  0  0  0
    1.9387    1.7593   -0.0226 H   0  0  0  0  0  0  0  0  0  0  0  0
    0.3765    1.1554   -2.1267 H   0  0  0  0  0  0  0  0  0  0  0  0
  1  2  1  0
  2  3  1  0
  3  4  1  0
  4  5  1  0
  5  6  1  0
  6  7  1  0
  7  8  1  0
  8  9  1  0
  7  2  1  0
  8  2  1  0
  6  4  1  0
  1 10  1  0
  1 11  1  0
  1 12  1  0
  3 13  1  0
  3 14  1  0
  4 15  1  0
  5 16  1  0
  5 17  1  0
  6 18  1  0
  7 19  1  0
  8 20  1  0
  9 21  1  0
M  END
