
     RDKit          3D

 19 21  0  0  0  0  0  0  0  0999 V2000
    1.6913    1.2491   -0.3583 C   0  0  0  0  0  0  0  0  0  0  0  0
    0.7041    0.2072    0.0101 C   0  0  0  0  0  0  0  0  0  0  0  0
    1.1026   -1.2047   -0.2186 C   0  0  0  0  0  0  0  0  0  0  0  0
    0.0437   -1.9604   -0.4904 C   0  0  0  0  0  0  0  0  0  0  0  0
   -1.1711   -1.1009   -0.4648 C   0  0  0  0  0  0  0  0  0  0  0  0
   -0.6301    0.2420   -0.6720 C   0  0  0  0  0  0  0  0  0  0  0  0
   -1.2967   -0.0532    0.5839 C   0  0  0  0  0  0  0  0  0  0  0  0
   -2.5237    0.3910    0.9669 O   0  0  0  0  0  0  0  0  0  0  0  0
   -0.0343    0.4187    1.3115 C   0  0  0  0  0  0  0  0  0  0  0  0
    2.3257    1.5091    0.4947 H   0  0  0  0  0  0  0  0  0  0  0  0
    2.2513    0.9143   -1.2463 H   0  0  0  0  0  0  0  0  0  0  0  0
    1.1466    2.1775   -0.6747 H   0  0  0  0  0  0  0  0  0  0  0  0
    2.1392   -1.5563   -0.1656 H   0  0  0  0  0  0  0  0  0  0  0  0
    0.0368   -3.0102   -0.6965 H   0  0  0  0  0  0  0  0  0  0  0  0
   -2.0719   -1.3641   -1.0060 H   0  0  0  0  0  0  0  0  0  0  0  0
   -0.9035    0.9473   -1.4224 H   0  0  0  0  0  0  0  0  0  0  0  0
   -2.9308    0.9890    0.3226 H   0  0  0  0  0  0  0  0  0  0  0  0
    0.1876   -0.2789    2.1190 H   0  0  0  0  0  0  0  0  0  0  0  0
   -0.0669    1.4835    1.6068 H   0  0  0  0  0  0  0  0  0  0  0  0
  1  2  1  0
  2  3  1  0
  3  4  2  0
  4  5  1  0
  5  6  1  0
  6  7  1  0
  7  8  1  0
  7  9  1  0
  6  2  1  0
  9  2  1  0
  7  5  1  0
  1 10  1  0
  1 11  1  0
  1 12  1  0
  3 13  1  0
  4 14  1  0
  5 15  1  0
  6 16  1  0
  8 17  1  0
  9 18  1  0
  9 19  1  0
M  END
