
     RDKit          3D

 15 16  0  0  0  0  0  0  0  0999 V2000
   -1.3468   -0.6123   -0.5563 C   0  0  0  0  0  0  0  0  0  0  0  0
   -0.4386    0.2170    0.2811 C   0  0  0  0  0  0  0  0  0  0  0  0
   -0.9253    0.6147    1.6043 C   0  0  0  0  0  0  0  0  0  0  0  0
   -1.9332    1.2750    1.9704 O   0  0  0  0  0  0  0  0  0  0  0  0
    0.1696   -0.0369    2.1621 O   0  0  0  0  0  0  0  0  0  0  0  0
    0.7594   -0.3913    0.9347 C   0  0  0  0  0  0  0  0  0  0  0  0
    0.8746    0.6958   -0.1434 C   0  0  0  0  0  0  0  0  0  0  0  0
    1.5654    0.2405   -1.3542 C   0  0  0  0  0  0  0  0  0  0  0  0
    2.4744    0.9020   -1.8291 O   0  0  0  0  0  0  0  0  0  0  0  0
   -2.3301   -0.0826   -0.6393 H   0  0  0  0  0  0  0  0  0  0  0  0
   -0.9914   -0.8142   -1.5657 H   0  0  0  0  0  0  0  0  0  0  0  0
   -1.5084   -1.5881   -0.0148 H   0  0  0  0  0  0  0  0  0  0  0  0
    1.0962   -1.3972    0.7209 H   0  0  0  0  0  0  0  0  0  0  0  0
    1.2192    1.6532    0.3035 H   0  0  0  0  0  0  0  0  0  0  0  0
    1.3149   -0.6756   -1.8742 H   0  0  0  0  0  0  0  0  0  0  0  0
  1  2  1  0
  2  3  1  0
  3  4  2  0
  3  5  1  0
  5  6  1  0
  6  7  1  0
  7  8  1  0
  8  9  2  0
  6  2  1  0
  7  2  1  0
  1 10  1  0
  1 11  1  0
  1 12  1  0
  6 13  1  0
  7 14  1  0
  8 15  1  0
M  END
