
     RDKit          3D

 21 23  0  0  0  0  0  0  0  0999 V2000
    2.4433   -0.1433    0.2615 C   0  0  0  0  0  0  0  0  0  0  0  0
    1.0004   -0.0316    0.0629 C   0  0  0  0  0  0  0  0  0  0  0  0
    0.2676   -1.1762   -0.5961 C   0  0  0  0  0  0  0  0  0  0  0  0
   -0.8360   -0.5151    0.1859 C   0  0  0  0  0  0  0  0  0  0  0  0
   -1.9896   -1.2907    0.5993 C   0  0  0  0  0  0  0  0  0  0  0  0
    0.1538   -0.2222    1.1505 O   0  0  0  0  0  0  0  0  0  0  0  0
   -1.0633    0.8381   -0.4734 C   0  0  0  0  0  0  0  0  0  0  0  0
   -0.5458    2.0576    0.1867 C   0  0  0  0  0  0  0  0  0  0  0  0
    0.4541    1.2327   -0.5698 C   0  0  0  0  0  0  0  0  0  0  0  0
    2.7395   -1.2003    0.3575 H   0  0  0  0  0  0  0  0  0  0  0  0
    2.7288    0.4344    1.1894 H   0  0  0  0  0  0  0  0  0  0  0  0
    2.9731    0.3575   -0.5765 H   0  0  0  0  0  0  0  0  0  0  0  0
    0.1800   -1.1123   -1.6896 H   0  0  0  0  0  0  0  0  0  0  0  0
    0.5538   -2.1283   -0.1560 H   0  0  0  0  0  0  0  0  0  0  0  0
   -2.0477   -1.5738    1.6684 H   0  0  0  0  0  0  0  0  0  0  0  0
   -2.9353   -0.7630    0.3173 H   0  0  0  0  0  0  0  0  0  0  0  0
   -2.0286   -2.2589    0.0315 H   0  0  0  0  0  0  0  0  0  0  0  0
   -1.6338    0.8844   -1.4037 H   0  0  0  0  0  0  0  0  0  0  0  0
   -0.3995    2.0509    1.2824 H   0  0  0  0  0  0  0  0  0  0  0  0
   -0.8118    3.0101   -0.2716 H   0  0  0  0  0  0  0  0  0  0  0  0
    0.7969    1.5501   -1.5566 H   0  0  0  0  0  0  0  0  0  0  0  0
  1  2  1  0
  2  3  1  0
  3  4  1  0
  4  5  1  0
  4  6  1  0
  4  7  1  0
  7  8  1  0
  8  9  1  0
  6  2  1  0
  9  7  1  0
  9  2  1  0
  1 10  1  0
  1 11  1  0
  1 12  1  0
  3 13  1  0
  3 14  1  0
  5 15  1  0
  5 16  1  0
  5 17  1  0
  7 18  1  0
  8 19  1  0
  8 20  1  0
  9 21  1  0
M  END
