
     RDKit          3D

 17 18  0  0  0  0  0  0  0  0999 V2000
   -1.7002   -0.6718    0.2247 C   0  0  0  0  0  0  0  0  0  0  0  0
   -0.5455    0.2638    0.0868 C   0  0  0  0  0  0  0  0  0  0  0  0
    0.3335    0.3647    1.2684 C   0  0  0  0  0  0  0  0  0  0  0  0
    1.5396   -0.1132    0.9915 C   0  0  0  0  0  0  0  0  0  0  0  0
    1.5904   -0.5892   -0.4245 C   0  0  0  0  0  0  0  0  0  0  0  0
    0.3844    0.0225   -1.0700 C   0  0  0  0  0  0  0  0  0  0  0  0
    0.5234    1.4344   -1.1218 O   0  0  0  0  0  0  0  0  0  0  0  0
   -0.7878    1.5133   -0.6505 C   0  0  0  0  0  0  0  0  0  0  0  0
   -1.7899    2.2584   -0.7474 O   0  0  0  0  0  0  0  0  0  0  0  0
   -2.5316   -0.1253    0.7182 H   0  0  0  0  0  0  0  0  0  0  0  0
   -2.0802   -1.0219   -0.7518 H   0  0  0  0  0  0  0  0  0  0  0  0
   -1.3741   -1.5284    0.8451 H   0  0  0  0  0  0  0  0  0  0  0  0
   -0.0103    0.7801    2.2072 H   0  0  0  0  0  0  0  0  0  0  0  0
    2.3536   -0.1494    1.6863 H   0  0  0  0  0  0  0  0  0  0  0  0
    1.5674   -1.6974   -0.4184 H   0  0  0  0  0  0  0  0  0  0  0  0
    2.5511   -0.2815   -0.8952 H   0  0  0  0  0  0  0  0  0  0  0  0
   -0.0237   -0.4592   -1.9488 H   0  0  0  0  0  0  0  0  0  0  0  0
  1  2  1  0
  2  3  1  0
  3  4  2  0
  4  5  1  0
  5  6  1  0
  6  7  1  0
  7  8  1  0
  8  9  2  0
  6  2  1  0
  8  2  1  0
  1 10  1  0
  1 11  1  0
  1 12  1  0
  3 13  1  0
  4 14  1  0
  5 15  1  0
  5 16  1  0
  6 17  1  0
M  END
