
     RDKit          3D

 21 23  0  0  0  0  0  0  0  0999 V2000
    2.7182    0.0356    0.0617 C   0  0  0  0  0  0  0  0  0  0  0  0
    1.2271   -0.0535    0.2886 C   0  0  0  0  0  0  0  0  0  0  0  0
    0.3181    1.0010   -0.2641 C   0  0  0  0  0  0  0  0  0  0  0  0
   -0.8374    0.3174   -0.9297 C   0  0  0  0  0  0  0  0  0  0  0  0
   -2.1536    0.7088   -0.2633 C   0  0  0  0  0  0  0  0  0  0  0  0
   -1.7235   -0.2206    0.8824 C   0  0  0  0  0  0  0  0  0  0  0  0
   -0.9365   -0.9966   -0.1787 C   0  0  0  0  0  0  0  0  0  0  0  0
    0.4868   -1.2931    0.1979 C   0  0  0  0  0  0  0  0  0  0  0  0
    0.8752   -0.7695    1.4200 O   0  0  0  0  0  0  0  0  0  0  0  0
    3.0682   -0.8113   -0.5478 H   0  0  0  0  0  0  0  0  0  0  0  0
    3.0036    0.9609   -0.4479 H   0  0  0  0  0  0  0  0  0  0  0  0
    3.2287    0.0058    1.0589 H   0  0  0  0  0  0  0  0  0  0  0  0
    0.8954    1.5647   -1.0327 H   0  0  0  0  0  0  0  0  0  0  0  0
   -0.0160    1.7421    0.4786 H   0  0  0  0  0  0  0  0  0  0  0  0
   -0.8487    0.2642   -2.0116 H   0  0  0  0  0  0  0  0  0  0  0  0
   -3.0030    0.2880   -0.8234 H   0  0  0  0  0  0  0  0  0  0  0  0
   -2.2253    1.7478    0.0624 H   0  0  0  0  0  0  0  0  0  0  0  0
   -2.5386   -0.7716    1.3509 H   0  0  0  0  0  0  0  0  0  0  0  0
   -1.0272    0.2602    1.5902 H   0  0  0  0  0  0  0  0  0  0  0  0
   -1.4845   -1.7974   -0.6712 H   0  0  0  0  0  0  0  0  0  0  0  0
    0.9730   -2.1830   -0.2209 H   0  0  0  0  0  0  0  0  0  0  0  0
  1  2  1  0
  2  3  1  0
  3  4  1  0
  4  5  1  0
  5  6  1  0
  6  7  1  0
  7  8  1  0
  8  9  1  0
  8  2  1  0
  9  2  1  0
  7  4  1  0
  1 10  1  0
  1 11  1  0
  1 12  1  0
  3 13  1  0
  3 14  1  0
  4 15  1  0
  5 16  1  0
  5 17  1  0
  6 18  1  0
  6 19  1  0
  7 20  1  0
  8 21  1  0
M  END
