
     RDKit          3D

 19 20  0  0  0  0  0  0  0  0999 V2000
    1.6466    0.2667   -0.8410 C   0  0  0  0  0  0  0  0  0  0  0  0
    0.5373    0.0837    0.1360 C   0  0  0  0  0  0  0  0  0  0  0  0
    0.8797   -0.6092    1.4085 C   0  0  0  0  0  0  0  0  0  0  0  0
   -0.2269   -1.4219    1.3547 O   0  0  0  0  0  0  0  0  0  0  0  0
   -0.3488   -1.0892   -0.0130 C   0  0  0  0  0  0  0  0  0  0  0  0
   -1.7535   -0.5956   -0.2874 C   0  0  0  0  0  0  0  0  0  0  0  0
   -1.4833    0.8215   -0.7216 C   0  0  0  0  0  0  0  0  0  0  0  0
   -1.9962    1.4532   -1.6182 O   0  0  0  0  0  0  0  0  0  0  0  0
   -0.4075    1.2597    0.2455 C   0  0  0  0  0  0  0  0  0  0  0  0
    1.5284    1.2875   -1.3089 H   0  0  0  0  0  0  0  0  0  0  0  0
    1.7112   -0.4842   -1.6263 H   0  0  0  0  0  0  0  0  0  0  0  0
    2.6352    0.3066   -0.3327 H   0  0  0  0  0  0  0  0  0  0  0  0
    1.8048   -1.2381    1.2551 H   0  0  0  0  0  0  0  0  0  0  0  0
    1.0046    0.0051    2.3094 H   0  0  0  0  0  0  0  0  0  0  0  0
   -0.0220   -1.9165   -0.6558 H   0  0  0  0  0  0  0  0  0  0  0  0
   -2.2819   -1.1728   -1.0420 H   0  0  0  0  0  0  0  0  0  0  0  0
   -2.3540   -0.4955    0.6538 H   0  0  0  0  0  0  0  0  0  0  0  0
   -0.8926    1.3405    1.2245 H   0  0  0  0  0  0  0  0  0  0  0  0
    0.0189    2.1984   -0.1406 H   0  0  0  0  0  0  0  0  0  0  0  0
  1  2  1  0
  2  3  1  0
  3  4  1  0
  4  5  1  0
  5  6  1  0
  6  7  1  0
  7  8  2  0
  7  9  1  0
  5  2  1  0
  9  2  1  0
  1 10  1  0
  1 11  1  0
  1 12  1  0
  3 13  1  0
  3 14  1  0
  5 15  1  0
  6 16  1  0
  6 17  1  0
  9 18  1  0
  9 19  1  0
M  END
