
     RDKit          3D

 17 18  0  0  0  0  0  0  0  0999 V2000
    0.9634    1.2224   -0.2275 C   0  0  0  0  0  0  0  0  0  0  0  0
    0.6759   -0.2537   -0.3893 C   0  0  0  0  0  0  0  0  0  0  0  0
    1.4392   -1.1225    0.4487 C   0  0  0  0  0  0  0  0  0  0  0  0
    0.0927   -1.0339    0.8452 C   0  0  0  0  0  0  0  0  0  0  0  0
   -0.6816   -0.0079    1.3751 O   0  0  0  0  0  0  0  0  0  0  0  0
   -1.4640    0.5930    0.3560 C   0  0  0  0  0  0  0  0  0  0  0  0
   -2.1030    1.6748    0.5656 O   0  0  0  0  0  0  0  0  0  0  0  0
   -1.4903   -0.1100   -0.9529 C   0  0  0  0  0  0  0  0  0  0  0  0
   -0.2124   -0.5175   -1.3739 O   0  0  0  0  0  0  0  0  0  0  0  0
    2.0023    1.3762   -0.6452 H   0  0  0  0  0  0  0  0  0  0  0  0
    1.0509    1.4673    0.8513 H   0  0  0  0  0  0  0  0  0  0  0  0
    0.3040    1.8715   -0.7934 H   0  0  0  0  0  0  0  0  0  0  0  0
    1.7961   -2.0891   -0.0122 H   0  0  0  0  0  0  0  0  0  0  0  0
    2.2410   -0.7082    1.0900 H   0  0  0  0  0  0  0  0  0  0  0  0
   -0.5798   -1.9120    0.6018 H   0  0  0  0  0  0  0  0  0  0  0  0
   -1.8998    0.5824   -1.7216 H   0  0  0  0  0  0  0  0  0  0  0  0
   -2.1345   -1.0326   -0.9165 H   0  0  0  0  0  0  0  0  0  0  0  0
  1  2  1  0
  2  3  1  0
  3  4  1  0
  4  5  1  0
  5  6  1  0
  6  7  2  0
  6  8  1  0
  8  9  1  0
  4  2  1  0
  9  2  1  0
  1 10  1  0
  1 11  1  0
  1 12  1  0
  3 13  1  0
  3 14  1  0
  4 15  1  0
  8 16  1  0
  8 17  1  0
M  END
