
     RDKit          3D

 21 23  0  0  0  0  0  0  0  0999 V2000
   -1.5867   -1.1818   -0.0862 C   0  0  0  0  0  0  0  0  0  0  0  0
   -0.7683   -0.0843   -0.1650 C   0  0  0  0  0  0  0  0  0  0  0  0
   -1.1679    1.3176   -0.5589 C   0  0  0  0  0  0  0  0  0  0  0  0
    0.3181    1.4064   -0.2865 C   0  0  0  0  0  0  0  0  0  0  0  0
    0.4256    0.1244   -1.0387 C   0  0  0  0  0  0  0  0  0  0  0  0
    1.5824   -0.7301   -0.6785 C   0  0  0  0  0  0  0  0  0  0  0  0
    2.1453   -0.2618    0.5037 O   0  0  0  0  0  0  0  0  0  0  0  0
    1.1732   -0.1610    1.4823 C   0  0  0  0  0  0  0  0  0  0  0  0
    0.0061    0.5751    0.9310 C   0  0  0  0  0  0  0  0  0  0  0  0
   -2.4938   -1.1159   -0.7276 H   0  0  0  0  0  0  0  0  0  0  0  0
   -1.0984   -2.1380   -0.3595 H   0  0  0  0  0  0  0  0  0  0  0  0
   -1.9898   -1.3532    0.9510 H   0  0  0  0  0  0  0  0  0  0  0  0
   -1.7208    1.8513    0.2286 H   0  0  0  0  0  0  0  0  0  0  0  0
   -1.4825    1.4671   -1.5869 H   0  0  0  0  0  0  0  0  0  0  0  0
    0.8862    2.2231   -0.3362 H   0  0  0  0  0  0  0  0  0  0  0  0
    0.2539    0.2203   -2.1168 H   0  0  0  0  0  0  0  0  0  0  0  0
    2.3780   -0.7056   -1.4580 H   0  0  0  0  0  0  0  0  0  0  0  0
    1.2771   -1.7927   -0.5377 H   0  0  0  0  0  0  0  0  0  0  0  0
    0.9251   -1.1741    1.8772 H   0  0  0  0  0  0  0  0  0  0  0  0
    1.6016    0.4324    2.3113 H   0  0  0  0  0  0  0  0  0  0  0  0
   -0.6642    1.0809    1.6513 H   0  0  0  0  0  0  0  0  0  0  0  0
  1  2  1  0
  2  3  1  0
  3  4  1  0
  4  5  1  0
  5  6  1  0
  6  7  1  0
  7  8  1  0
  8  9  1  0
  5  2  1  0
  9  2  1  0
  9  4  1  0
  1 10  1  0
  1 11  1  0
  1 12  1  0
  3 13  1  0
  3 14  1  0
  4 15  1  0
  5 16  1  0
  6 17  1  0
  6 18  1  0
  8 19  1  0
  8 20  1  0
  9 21  1  0
M  END
