
     RDKit          3D

 18 20  0  0  0  0  0  0  0  0999 V2000
   -1.0432    1.6147   -0.2279 C   0  0  0  0  0  0  0  0  0  0  0  0
   -0.5592    0.3439    0.3502 C   0  0  0  0  0  0  0  0  0  0  0  0
   -1.4986   -0.7903    0.4664 C   0  0  0  0  0  0  0  0  0  0  0  0
   -0.3364   -0.8915   -0.4203 C   0  0  0  0  0  0  0  0  0  0  0  0
   -0.4105   -0.9613   -1.7847 O   0  0  0  0  0  0  0  0  0  0  0  0
    1.0053   -1.0555    0.2726 C   0  0  0  0  0  0  0  0  0  0  0  0
    1.9882   -0.0096   -0.0363 C   0  0  0  0  0  0  0  0  0  0  0  0
    0.8360    0.2970    0.8531 C   0  0  0  0  0  0  0  0  0  0  0  0
   -1.2880    2.3093    0.6293 H   0  0  0  0  0  0  0  0  0  0  0  0
   -0.2625    2.1356   -0.8054 H   0  0  0  0  0  0  0  0  0  0  0  0
   -1.9994    1.5299   -0.7952 H   0  0  0  0  0  0  0  0  0  0  0  0
   -2.4775   -0.6548   -0.0255 H   0  0  0  0  0  0  0  0  0  0  0  0
   -1.5276   -1.3972    1.4079 H   0  0  0  0  0  0  0  0  0  0  0  0
    0.4073   -1.4600   -2.1054 H   0  0  0  0  0  0  0  0  0  0  0  0
    1.1650   -1.8764    0.9685 H   0  0  0  0  0  0  0  0  0  0  0  0
    1.9691    0.4125   -1.0624 H   0  0  0  0  0  0  0  0  0  0  0  0
    2.9706   -0.0843    0.4241 H   0  0  0  0  0  0  0  0  0  0  0  0
    1.0614    0.5380    1.8909 H   0  0  0  0  0  0  0  0  0  0  0  0
  1  2  1  0
  2  3  1  0
  3  4  1  0
  4  5  1  0
  4  6  1  0
  6  7  1  0
  7  8  1  0
  4  2  1  0
  8  6  1  0
  8  2  1  0
  1  9  1  0
  1 10  1  0
  1 11  1  0
  3 12  1  0
  3 13  1  0
  5 14  1  0
  6 15  1  0
  7 16  1  0
  7 17  1  0
  8 18  1  0
M  END
