
     RDKit          3D

 21 22  0  0  0  0  0  0  0  0999 V2000
   -2.3133   -1.0950    0.1048 C   0  0  0  0  0  0  0  0  0  0  0  0
   -1.2221   -0.0647   -0.1272 C   0  0  0  0  0  0  0  0  0  0  0  0
   -1.6687    1.3480   -0.2898 C   0  0  0  0  0  0  0  0  0  0  0  0
   -0.6408    1.8527    0.4995 O   0  0  0  0  0  0  0  0  0  0  0  0
   -0.6032    0.5885    1.1291 C   0  0  0  0  0  0  0  0  0  0  0  0
    0.1133   -0.4397    0.3665 C   0  0  0  0  0  0  0  0  0  0  0  0
    1.2836    0.0320   -0.4754 C   0  0  0  0  0  0  0  0  0  0  0  0
    2.5950   -0.4136    0.1326 C   0  0  0  0  0  0  0  0  0  0  0  0
    3.6325    0.0395   -0.6695 O   0  0  0  0  0  0  0  0  0  0  0  0
   -3.3064   -0.6194    0.2216 H   0  0  0  0  0  0  0  0  0  0  0  0
   -2.1115   -1.6926    1.0180 H   0  0  0  0  0  0  0  0  0  0  0  0
   -2.3580   -1.7466   -0.7888 H   0  0  0  0  0  0  0  0  0  0  0  0
   -2.6375    1.4992    0.2721 H   0  0  0  0  0  0  0  0  0  0  0  0
   -1.7408    1.7416   -1.3099 H   0  0  0  0  0  0  0  0  0  0  0  0
   -1.1865    0.4120    2.0255 H   0  0  0  0  0  0  0  0  0  0  0  0
    0.2547   -1.4331    0.8214 H   0  0  0  0  0  0  0  0  0  0  0  0
    1.1560   -0.4421   -1.4734 H   0  0  0  0  0  0  0  0  0  0  0  0
    1.2734    1.1239   -0.5573 H   0  0  0  0  0  0  0  0  0  0  0  0
    2.6543   -1.5365    0.1137 H   0  0  0  0  0  0  0  0  0  0  0  0
    2.7289    0.0046    1.1299 H   0  0  0  0  0  0  0  0  0  0  0  0
    4.0972    0.8412   -0.2838 H   0  0  0  0  0  0  0  0  0  0  0  0
  1  2  1  0
  2  3  1  0
  3  4  1  0
  4  5  1  0
  5  6  1  0
  6  7  1  0
  7  8  1  0
  8  9  1  0
  5  2  1  0
  6  2  1  0
  1 10  1  0
  1 11  1  0
  1 12  1  0
  3 13  1  0
  3 14  1  0
  5 15  1  0
  6 16  1  0
  7 17  1  0
  7 18  1  0
  8 19  1  0
  8 20  1  0
  9 21  1  0
M  END
