
     RDKit          3D

 21 23  0  0  0  0  0  0  0  0999 V2000
    1.9394   -0.5423   -0.8599 C   0  0  0  0  0  0  0  0  0  0  0  0
    0.9180    0.1637   -0.0415 C   0  0  0  0  0  0  0  0  0  0  0  0
    1.2586    1.2805    0.8717 C   0  0  0  0  0  0  0  0  0  0  0  0
    0.7508   -0.0213    1.4023 C   0  0  0  0  0  0  0  0  0  0  0  0
   -0.7110   -0.3369    1.1903 C   0  0  0  0  0  0  0  0  0  0  0  0
   -1.0509   -1.4980    0.3012 C   0  0  0  0  0  0  0  0  0  0  0  0
   -0.5036   -0.2468   -0.2668 C   0  0  0  0  0  0  0  0  0  0  0  0
   -1.3348    0.7147   -1.0476 C   0  0  0  0  0  0  0  0  0  0  0  0
   -2.6209    0.1730   -1.1593 O   0  0  0  0  0  0  0  0  0  0  0  0
    2.9786   -0.4216   -0.5174 H   0  0  0  0  0  0  0  0  0  0  0  0
    1.8641   -0.1330   -1.9098 H   0  0  0  0  0  0  0  0  0  0  0  0
    1.7495   -1.6334   -0.9743 H   0  0  0  0  0  0  0  0  0  0  0  0
    0.5777    2.1394    0.9995 H   0  0  0  0  0  0  0  0  0  0  0  0
    2.3374    1.4850    0.9887 H   0  0  0  0  0  0  0  0  0  0  0  0
    1.3727   -0.6511    2.0335 H   0  0  0  0  0  0  0  0  0  0  0  0
   -1.4883    0.2114    1.7325 H   0  0  0  0  0  0  0  0  0  0  0  0
   -2.1176   -1.6847    0.1156 H   0  0  0  0  0  0  0  0  0  0  0  0
   -0.4236   -2.3886    0.4335 H   0  0  0  0  0  0  0  0  0  0  0  0
   -1.3390    1.6900   -0.5309 H   0  0  0  0  0  0  0  0  0  0  0  0
   -0.9210    0.8890   -2.0620 H   0  0  0  0  0  0  0  0  0  0  0  0
   -3.2362    0.8110   -0.6994 H   0  0  0  0  0  0  0  0  0  0  0  0
  1  2  1  0
  2  3  1  0
  3  4  1  0
  4  5  1  0
  5  6  1  0
  6  7  1  0
  7  8  1  0
  8  9  1  0
  4  2  1  0
  7  5  1  0
  7  2  1  0
  1 10  1  0
  1 11  1  0
  1 12  1  0
  3 13  1  0
  3 14  1  0
  4 15  1  0
  5 16  1  0
  6 17  1  0
  6 18  1  0
  8 19  1  0
  8 20  1  0
  9 21  1  0
M  END
