
     RDKit          3D

 21 24  0  0  0  0  0  0  0  0999 V2000
    2.3577    0.0214   -0.5623 C   0  0  0  0  0  0  0  0  0  0  0  0
    0.9331   -0.0116   -0.2948 C   0  0  0  0  0  0  0  0  0  0  0  0
    0.2697   -0.6633    0.8669 C   0  0  0  0  0  0  0  0  0  0  0  0
   -0.7614   -1.5189    0.1015 C   0  0  0  0  0  0  0  0  0  0  0  0
   -1.3675   -0.3462   -0.6879 C   0  0  0  0  0  0  0  0  0  0  0  0
   -1.8454    0.4645    0.5275 C   0  0  0  0  0  0  0  0  0  0  0  0
   -0.4446    0.6162    1.1519 C   0  0  0  0  0  0  0  0  0  0  0  0
    0.2460    1.2390   -0.0138 C   0  0  0  0  0  0  0  0  0  0  0  0
   -0.1650    0.4052   -1.1584 C   0  0  0  0  0  0  0  0  0  0  0  0
    2.9127    0.2970    0.3829 H   0  0  0  0  0  0  0  0  0  0  0  0
    2.8262   -0.9256   -0.8969 H   0  0  0  0  0  0  0  0  0  0  0  0
    2.5983    0.8534   -1.2698 H   0  0  0  0  0  0  0  0  0  0  0  0
    0.8344   -1.1540    1.6215 H   0  0  0  0  0  0  0  0  0  0  0  0
   -0.2735   -2.2372   -0.5496 H   0  0  0  0  0  0  0  0  0  0  0  0
   -1.4573   -1.9177    0.8373 H   0  0  0  0  0  0  0  0  0  0  0  0
   -2.1151   -0.6065   -1.3823 H   0  0  0  0  0  0  0  0  0  0  0  0
   -2.5107   -0.1054    1.1702 H   0  0  0  0  0  0  0  0  0  0  0  0
   -2.1901    1.4570    0.2342 H   0  0  0  0  0  0  0  0  0  0  0  0
   -0.3955    1.0633    2.1171 H   0  0  0  0  0  0  0  0  0  0  0  0
    0.6300    2.2331   -0.0493 H   0  0  0  0  0  0  0  0  0  0  0  0
   -0.0821    0.8364   -2.1460 H   0  0  0  0  0  0  0  0  0  0  0  0
  1  2  1  0
  2  3  1  0
  3  4  1  0
  4  5  1  0
  5  6  1  0
  6  7  1  0
  7  8  1  0
  8  9  1  0
  8  2  1  0
  9  2  1  0
  7  3  1  0
  9  5  1  0
  1 10  1  0
  1 11  1  0
  1 12  1  0
  3 13  1  0
  4 14  1  0
  4 15  1  0
  5 16  1  0
  6 17  1  0
  6 18  1  0
  7 19  1  0
  8 20  1  0
  9 21  1  0
M  END
