
     RDKit          3D

 21 22  0  0  0  0  0  0  0  0999 V2000
   -1.6511    1.6081    0.1276 C   0  0  0  0  0  0  0  0  0  0  0  0
   -0.5007    0.6673    0.3544 C   0  0  0  0  0  0  0  0  0  0  0  0
    0.8769    1.2527    0.1285 C   0  0  0  0  0  0  0  0  0  0  0  0
    1.7593    0.0380    0.3259 C   0  0  0  0  0  0  0  0  0  0  0  0
    2.9766    0.2082   -0.2954 O   0  0  0  0  0  0  0  0  0  0  0  0
    0.9288   -1.0439   -0.3767 C   0  0  0  0  0  0  0  0  0  0  0  0
   -0.4658   -0.6792    0.0753 C   0  0  0  0  0  0  0  0  0  0  0  0
   -1.5782   -1.6356   -0.2050 C   0  0  0  0  0  0  0  0  0  0  0  0
   -0.5407   -0.2019    1.4558 O   0  0  0  0  0  0  0  0  0  0  0  0
   -1.4627    2.5191    0.7231 H   0  0  0  0  0  0  0  0  0  0  0  0
   -2.6158    1.1263    0.3252 H   0  0  0  0  0  0  0  0  0  0  0  0
   -1.6114    1.9304   -0.9459 H   0  0  0  0  0  0  0  0  0  0  0  0
    1.0728    1.9836    0.9438 H   0  0  0  0  0  0  0  0  0  0  0  0
    1.0154    1.6626   -0.8774 H   0  0  0  0  0  0  0  0  0  0  0  0
    1.9346   -0.2039    1.3810 H   0  0  0  0  0  0  0  0  0  0  0  0
    3.1478   -0.6057   -0.8519 H   0  0  0  0  0  0  0  0  0  0  0  0
    1.0611   -0.8499   -1.4640 H   0  0  0  0  0  0  0  0  0  0  0  0
    1.2382   -2.0511   -0.0978 H   0  0  0  0  0  0  0  0  0  0  0  0
   -1.7705   -1.7901   -1.2762 H   0  0  0  0  0  0  0  0  0  0  0  0
   -2.5004   -1.3094    0.2959 H   0  0  0  0  0  0  0  0  0  0  0  0
   -1.3144   -2.6256    0.2537 H   0  0  0  0  0  0  0  0  0  0  0  0
  1  2  1  0
  2  3  1  0
  3  4  1  0
  4  5  1  0
  4  6  1  0
  6  7  1  0
  7  8  1  0
  7  9  1  0
  7  2  1  0
  9  2  1  0
  1 10  1  0
  1 11  1  0
  1 12  1  0
  3 13  1  0
  3 14  1  0
  4 15  1  0
  5 16  1  0
  6 17  1  0
  6 18  1  0
  8 19  1  0
  8 20  1  0
  8 21  1  0
M  END
