
     RDKit          3D

 19 20  0  0  0  0  0  0  0  0999 V2000
   -2.0975    1.1340   -0.1472 C   0  0  0  0  0  0  0  0  0  0  0  0
   -0.7520    0.4168    0.0646 C   0  0  0  0  0  0  0  0  0  0  0  0
   -0.9175   -0.9564    0.6049 C   0  0  0  0  0  0  0  0  0  0  0  0
   -0.4823   -0.7380   -0.8011 C   0  0  0  0  0  0  0  0  0  0  0  0
    0.9848   -0.9050   -1.0500 C   0  0  0  0  0  0  0  0  0  0  0  0
    1.4120   -1.3397   -2.0875 O   0  0  0  0  0  0  0  0  0  0  0  0
    1.8905   -0.5079    0.0468 C   0  0  0  0  0  0  0  0  0  0  0  0
    1.4957    0.8225    0.5649 C   0  0  0  0  0  0  0  0  0  0  0  0
    0.2497    1.2489    0.3594 O   0  0  0  0  0  0  0  0  0  0  0  0
   -2.6604    0.6211   -0.9499 H   0  0  0  0  0  0  0  0  0  0  0  0
   -1.9698    2.2051   -0.3040 H   0  0  0  0  0  0  0  0  0  0  0  0
   -2.6860    0.9581    0.7967 H   0  0  0  0  0  0  0  0  0  0  0  0
   -0.1550   -1.3570    1.3328 H   0  0  0  0  0  0  0  0  0  0  0  0
   -1.9260   -1.3798    0.8168 H   0  0  0  0  0  0  0  0  0  0  0  0
   -1.1544   -0.8872   -1.6553 H   0  0  0  0  0  0  0  0  0  0  0  0
    2.9566   -0.5057   -0.2913 H   0  0  0  0  0  0  0  0  0  0  0  0
    1.8738   -1.2601    0.8909 H   0  0  0  0  0  0  0  0  0  0  0  0
    1.7198    0.8494    1.6716 H   0  0  0  0  0  0  0  0  0  0  0  0
    2.2181    1.5808    0.1368 H   0  0  0  0  0  0  0  0  0  0  0  0
  1  2  1  0
  2  3  1  0
  3  4  1  0
  4  5  1  0
  5  6  2  0
  5  7  1  0
  7  8  1  0
  8  9  1  0
  4  2  1  0
  9  2  1  0
  1 10  1  0
  1 11  1  0
  1 12  1  0
  3 13  1  0
  3 14  1  0
  4 15  1  0
  7 16  1  0
  7 17  1  0
  8 18  1  0
  8 19  1  0
M  END
