
     RDKit          3D

 21 22  0  0  0  0  0  0  0  0999 V2000
   -2.1685    0.2288    0.5015 C   0  0  0  0  0  0  0  0  0  0  0  0
   -0.7477    0.1326    0.0897 C   0  0  0  0  0  0  0  0  0  0  0  0
    0.1790    1.2243    0.5540 C   0  0  0  0  0  0  0  0  0  0  0  0
    1.2468    0.6801    1.2798 O   0  0  0  0  0  0  0  0  0  0  0  0
    2.1922    0.2404    0.3852 C   0  0  0  0  0  0  0  0  0  0  0  0
    1.7413   -0.1235   -0.8359 O   0  0  0  0  0  0  0  0  0  0  0  0
    0.6974   -0.9664   -0.9281 C   0  0  0  0  0  0  0  0  0  0  0  0
   -0.5145   -0.1446   -1.4027 C   0  0  0  0  0  0  0  0  0  0  0  0
   -0.0689   -1.2099    0.3399 C   0  0  0  0  0  0  0  0  0  0  0  0
   -2.8648    0.3880   -0.3719 H   0  0  0  0  0  0  0  0  0  0  0  0
   -2.5692   -0.6164    1.0576 H   0  0  0  0  0  0  0  0  0  0  0  0
   -2.2698    1.1400    1.1602 H   0  0  0  0  0  0  0  0  0  0  0  0
   -0.3157    1.9474    1.2429 H   0  0  0  0  0  0  0  0  0  0  0  0
    0.6292    1.7829   -0.3108 H   0  0  0  0  0  0  0  0  0  0  0  0
    2.8355   -0.5460    0.8787 H   0  0  0  0  0  0  0  0  0  0  0  0
    2.9097    1.1026    0.2336 H   0  0  0  0  0  0  0  0  0  0  0  0
    0.8708   -1.8815   -1.5479 H   0  0  0  0  0  0  0  0  0  0  0  0
   -1.3341   -0.7705   -1.7793 H   0  0  0  0  0  0  0  0  0  0  0  0
   -0.2184    0.7263   -1.9891 H   0  0  0  0  0  0  0  0  0  0  0  0
   -0.7768   -2.0680    0.2113 H   0  0  0  0  0  0  0  0  0  0  0  0
    0.5465   -1.2664    1.2311 H   0  0  0  0  0  0  0  0  0  0  0  0
  1  2  1  0
  2  3  1  0
  3  4  1  0
  4  5  1  0
  5  6  1  0
  6  7  1  0
  7  8  1  0
  7  9  1  0
  8  2  1  0
  9  2  1  0
  1 10  1  0
  1 11  1  0
  1 12  1  0
  3 13  1  0
  3 14  1  0
  5 15  1  0
  5 16  1  0
  7 17  1  0
  8 18  1  0
  8 19  1  0
  9 20  1  0
  9 21  1  0
M  END
