
     RDKit          3D

 17 18  0  0  0  0  0  0  0  0999 V2000
   -1.9372    0.2760   -0.0913 C   0  0  0  0  0  0  0  0  0  0  0  0
   -0.5784    0.1164   -0.1499 C   0  0  0  0  0  0  0  0  0  0  0  0
    0.1874   -1.0288   -0.7566 C   0  0  0  0  0  0  0  0  0  0  0  0
    1.2620   -0.1028   -0.2268 C   0  0  0  0  0  0  0  0  0  0  0  0
    2.4989   -0.2545   -0.2912 O   0  0  0  0  0  0  0  0  0  0  0  0
    0.3926    0.0329    0.9923 C   0  0  0  0  0  0  0  0  0  0  0  0
    0.4276    1.0063   -0.8225 C   0  0  0  0  0  0  0  0  0  0  0  0
   -2.2816    1.3333   -0.2674 H   0  0  0  0  0  0  0  0  0  0  0  0
   -2.4941   -0.3152   -0.8749 H   0  0  0  0  0  0  0  0  0  0  0  0
   -2.3838   -0.0958    0.8777 H   0  0  0  0  0  0  0  0  0  0  0  0
    0.0408   -1.9473   -0.1746 H   0  0  0  0  0  0  0  0  0  0  0  0
    0.1512   -1.1159   -1.8546 H   0  0  0  0  0  0  0  0  0  0  0  0
    2.8386   -0.9737   -0.8680 H   0  0  0  0  0  0  0  0  0  0  0  0
    0.6087    0.9783    1.5199 H   0  0  0  0  0  0  0  0  0  0  0  0
    0.2523   -0.8538    1.6095 H   0  0  0  0  0  0  0  0  0  0  0  0
    0.6376    1.9689   -0.3535 H   0  0  0  0  0  0  0  0  0  0  0  0
    0.3775    0.9758   -1.9277 H   0  0  0  0  0  0  0  0  0  0  0  0
  1  2  1  0
  2  3  1  0
  3  4  1  0
  4  5  1  0
  4  6  1  0
  4  7  1  0
  6  2  1  0
  7  2  1  0
  1  8  1  0
  1  9  1  0
  1 10  1  0
  3 11  1  0
  3 12  1  0
  5 13  1  0
  6 14  1  0
  6 15  1  0
  7 16  1  0
  7 17  1  0
M  END
