
     RDKit          3D

 19 21  0  0  0  0  0  0  0  0999 V2000
    2.3362   -0.3369   -0.2205 C   0  0  0  0  0  0  0  0  0  0  0  0
    0.8538   -0.4639   -0.2796 C   0  0  0  0  0  0  0  0  0  0  0  0
    0.2988   -1.6729    0.0449 O   0  0  0  0  0  0  0  0  0  0  0  0
   -0.8225   -1.0238    0.5848 C   0  0  0  0  0  0  0  0  0  0  0  0
   -1.7827   -0.7248   -0.5462 C   0  0  0  0  0  0  0  0  0  0  0  0
   -1.3877    0.6216   -1.0545 C   0  0  0  0  0  0  0  0  0  0  0  0
    0.0810    0.7370   -0.6238 C   0  0  0  0  0  0  0  0  0  0  0  0
    0.7711    1.8547   -0.9907 O   0  0  0  0  0  0  0  0  0  0  0  0
    0.0209    0.1914    0.7270 C   0  0  0  0  0  0  0  0  0  0  0  0
    2.7169   -0.9367    0.6551 H   0  0  0  0  0  0  0  0  0  0  0  0
    2.6037    0.7114   -0.0112 H   0  0  0  0  0  0  0  0  0  0  0  0
    2.7848   -0.6733   -1.1767 H   0  0  0  0  0  0  0  0  0  0  0  0
   -1.2275   -1.4987    1.4645 H   0  0  0  0  0  0  0  0  0  0  0  0
   -1.6685   -1.4940   -1.3657 H   0  0  0  0  0  0  0  0  0  0  0  0
   -2.8381   -0.7993   -0.2306 H   0  0  0  0  0  0  0  0  0  0  0  0
   -1.9231    1.3819   -0.4217 H   0  0  0  0  0  0  0  0  0  0  0  0
   -1.5217    0.7744   -2.1189 H   0  0  0  0  0  0  0  0  0  0  0  0
    0.3782    2.7139   -0.7001 H   0  0  0  0  0  0  0  0  0  0  0  0
    0.3265    0.6382    1.6414 H   0  0  0  0  0  0  0  0  0  0  0  0
  1  2  1  0
  2  3  1  0
  3  4  1  0
  4  5  1  0
  5  6  1  0
  6  7  1  0
  7  8  1  0
  7  9  1  0
  7  2  1  0
  9  2  1  0
  9  4  1  0
  1 10  1  0
  1 11  1  0
  1 12  1  0
  4 13  1  0
  5 14  1  0
  5 15  1  0
  6 16  1  0
  6 17  1  0
  8 18  1  0
  9 19  1  0
M  END
