
     RDKit          3D

 23 25  0  0  0  0  0  0  0  0999 V2000
   -1.2655    1.5010   -0.4384 C   0  0  0  0  0  0  0  0  0  0  0  0
   -0.8893    0.2586    0.3342 C   0  0  0  0  0  0  0  0  0  0  0  0
   -2.0013   -0.4302    1.0158 C   0  0  0  0  0  0  0  0  0  0  0  0
   -1.4929   -1.0860   -0.1952 C   0  0  0  0  0  0  0  0  0  0  0  0
   -0.1129   -1.7382   -0.0247 C   0  0  0  0  0  0  0  0  0  0  0  0
    0.4245   -0.3548    0.0760 C   0  0  0  0  0  0  0  0  0  0  0  0
    1.2244    0.1443   -1.0885 C   0  0  0  0  0  0  0  0  0  0  0  0
    2.1646    0.8083   -0.1057 C   0  0  0  0  0  0  0  0  0  0  0  0
    1.5545   -0.0895    0.9795 C   0  0  0  0  0  0  0  0  0  0  0  0
   -0.3939    2.1271   -0.7059 H   0  0  0  0  0  0  0  0  0  0  0  0
   -1.9397    1.2798   -1.2731 H   0  0  0  0  0  0  0  0  0  0  0  0
   -1.8642    2.1294    0.2858 H   0  0  0  0  0  0  0  0  0  0  0  0
   -1.8343   -1.0025    1.9719 H   0  0  0  0  0  0  0  0  0  0  0  0
   -3.0028    0.0056    0.9660 H   0  0  0  0  0  0  0  0  0  0  0  0
   -1.9240   -0.9980   -1.1862 H   0  0  0  0  0  0  0  0  0  0  0  0
    0.2554   -2.2704   -0.8996 H   0  0  0  0  0  0  0  0  0  0  0  0
   -0.0241   -2.2605    0.9561 H   0  0  0  0  0  0  0  0  0  0  0  0
    0.7091    0.7971   -1.7908 H   0  0  0  0  0  0  0  0  0  0  0  0
    1.7011   -0.7214   -1.6180 H   0  0  0  0  0  0  0  0  0  0  0  0
    1.9174    1.8657    0.0965 H   0  0  0  0  0  0  0  0  0  0  0  0
    3.2054    0.5850   -0.3537 H   0  0  0  0  0  0  0  0  0  0  0  0
    1.3702    0.4408    1.9221 H   0  0  0  0  0  0  0  0  0  0  0  0
    2.2183   -0.9911    1.0761 H   0  0  0  0  0  0  0  0  0  0  0  0
  1  2  1  0
  2  3  1  0
  3  4  1  0
  4  5  1  0
  5  6  1  0
  6  7  1  0
  7  8  1  0
  8  9  1  0
  4  2  1  0
  9  6  1  0
  6  2  1  0
  1 10  1  0
  1 11  1  0
  1 12  1  0
  3 13  1  0
  3 14  1  0
  4 15  1  0
  5 16  1  0
  5 17  1  0
  7 18  1  0
  7 19  1  0
  8 20  1  0
  8 21  1  0
  9 22  1  0
  9 23  1  0
M  END
