
     RDKit          3D

 23 24  0  0  0  0  0  0  0  0999 V2000
    2.5091   -0.2684   -0.2390 C   0  0  0  0  0  0  0  0  0  0  0  0
    0.9943   -0.0330   -0.1536 C   0  0  0  0  0  0  0  0  0  0  0  0
    0.3203   -1.3372    0.0983 C   0  0  0  0  0  0  0  0  0  0  0  0
   -1.1414   -1.2981    0.2796 C   0  0  0  0  0  0  0  0  0  0  0  0
   -1.8739   -0.2754   -0.5242 C   0  0  0  0  0  0  0  0  0  0  0  0
   -1.5716    1.1334   -0.1283 C   0  0  0  0  0  0  0  0  0  0  0  0
   -0.1416    1.5163   -0.3550 C   0  0  0  0  0  0  0  0  0  0  0  0
    0.6606    1.0289    0.8333 C   0  0  0  0  0  0  0  0  0  0  0  0
    0.5047    0.6618   -1.2268 O   0  0  0  0  0  0  0  0  0  0  0  0
    2.7486   -0.7621   -1.2124 H   0  0  0  0  0  0  0  0  0  0  0  0
    3.0400    0.6839   -0.2009 H   0  0  0  0  0  0  0  0  0  0  0  0
    2.7899   -0.9242    0.6295 H   0  0  0  0  0  0  0  0  0  0  0  0
    0.7701   -1.7585    1.0456 H   0  0  0  0  0  0  0  0  0  0  0  0
    0.6655   -2.0500   -0.6992 H   0  0  0  0  0  0  0  0  0  0  0  0
   -1.5569   -2.3044   -0.0196 H   0  0  0  0  0  0  0  0  0  0  0  0
   -1.4399   -1.1759    1.3418 H   0  0  0  0  0  0  0  0  0  0  0  0
   -2.9724   -0.4384   -0.3157 H   0  0  0  0  0  0  0  0  0  0  0  0
   -1.7720   -0.4468   -1.6193 H   0  0  0  0  0  0  0  0  0  0  0  0
   -2.2283    1.8117   -0.7041 H   0  0  0  0  0  0  0  0  0  0  0  0
   -1.8226    1.2593    0.9323 H   0  0  0  0  0  0  0  0  0  0  0  0
   -0.0211    2.5935   -0.5386 H   0  0  0  0  0  0  0  0  0  0  0  0
    1.4976    1.7041    1.0931 H   0  0  0  0  0  0  0  0  0  0  0  0
    0.0411    0.6794    1.6832 H   0  0  0  0  0  0  0  0  0  0  0  0
  1  2  1  0
  2  3  1  0
  3  4  1  0
  4  5  1  0
  5  6  1  0
  6  7  1  0
  7  8  1  0
  7  9  1  0
  8  2  1  0
  9  2  1  0
  1 10  1  0
  1 11  1  0
  1 12  1  0
  3 13  1  0
  3 14  1  0
  4 15  1  0
  4 16  1  0
  5 17  1  0
  5 18  1  0
  6 19  1  0
  6 20  1  0
  7 21  1  0
  8 22  1  0
  8 23  1  0
M  END
