
     RDKit          3D

 21 22  0  0  0  0  0  0  0  0999 V2000
   -1.6545    1.1408   -0.5382 C   0  0  0  0  0  0  0  0  0  0  0  0
   -0.5143    0.3792    0.0488 C   0  0  0  0  0  0  0  0  0  0  0  0
    0.6864    1.1446    0.4743 C   0  0  0  0  0  0  0  0  0  0  0  0
    1.9029    0.4135    0.0107 C   0  0  0  0  0  0  0  0  0  0  0  0
    1.4234   -0.9847   -0.1881 C   0  0  0  0  0  0  0  0  0  0  0  0
    0.0300   -0.7551   -0.7702 C   0  0  0  0  0  0  0  0  0  0  0  0
   -0.9316   -1.6555   -0.1127 C   0  0  0  0  0  0  0  0  0  0  0  0
   -1.3959   -2.7335   -0.4469 O   0  0  0  0  0  0  0  0  0  0  0  0
   -1.0133   -0.6796    1.0095 C   0  0  0  0  0  0  0  0  0  0  0  0
   -2.6306    0.8816   -0.0455 H   0  0  0  0  0  0  0  0  0  0  0  0
   -1.7898    0.9865   -1.6283 H   0  0  0  0  0  0  0  0  0  0  0  0
   -1.4989    2.2219   -0.3255 H   0  0  0  0  0  0  0  0  0  0  0  0
    0.6685    2.1287   -0.0792 H   0  0  0  0  0  0  0  0  0  0  0  0
    0.7061    1.4138    1.5423 H   0  0  0  0  0  0  0  0  0  0  0  0
    2.7254    0.5013    0.7472 H   0  0  0  0  0  0  0  0  0  0  0  0
    2.2789    0.7769   -0.9875 H   0  0  0  0  0  0  0  0  0  0  0  0
    1.3606   -1.4937    0.7877 H   0  0  0  0  0  0  0  0  0  0  0  0
    2.0516   -1.5932   -0.8465 H   0  0  0  0  0  0  0  0  0  0  0  0
   -0.0046   -0.6635   -1.8466 H   0  0  0  0  0  0  0  0  0  0  0  0
   -2.0617   -0.5539    1.3347 H   0  0  0  0  0  0  0  0  0  0  0  0
   -0.3386   -0.8761    1.8601 H   0  0  0  0  0  0  0  0  0  0  0  0
  1  2  1  0
  2  3  1  0
  3  4  1  0
  4  5  1  0
  5  6  1  0
  6  7  1  0
  7  8  2  0
  7  9  1  0
  6  2  1  0
  9  2  1  0
  1 10  1  0
  1 11  1  0
  1 12  1  0
  3 13  1  0
  3 14  1  0
  4 15  1  0
  4 16  1  0
  5 17  1  0
  5 18  1  0
  6 19  1  0
  9 20  1  0
  9 21  1  0
M  END
