
     RDKit          3D

 23 24  0  0  0  0  0  0  0  0999 V2000
   -1.3337   -1.3413    0.8765 C   0  0  0  0  0  0  0  0  0  0  0  0
   -0.5509   -0.3370    0.0194 C   0  0  0  0  0  0  0  0  0  0  0  0
    0.5578   -0.9596   -0.7555 C   0  0  0  0  0  0  0  0  0  0  0  0
    1.9294   -0.6093   -0.2797 C   0  0  0  0  0  0  0  0  0  0  0  0
    2.0768    0.7124    0.3472 C   0  0  0  0  0  0  0  0  0  0  0  0
    0.9878    1.4413    0.6067 O   0  0  0  0  0  0  0  0  0  0  0  0
   -0.2213    0.9062    0.7274 C   0  0  0  0  0  0  0  0  0  0  0  0
   -1.2372    1.6521   -0.1361 C   0  0  0  0  0  0  0  0  0  0  0  0
   -1.5394    0.3860   -0.8826 C   0  0  0  0  0  0  0  0  0  0  0  0
   -2.4132   -1.0342    0.9495 H   0  0  0  0  0  0  0  0  0  0  0  0
   -0.9189   -1.3993    1.8925 H   0  0  0  0  0  0  0  0  0  0  0  0
   -1.2809   -2.3020    0.3287 H   0  0  0  0  0  0  0  0  0  0  0  0
    0.4713   -0.6961   -1.8433 H   0  0  0  0  0  0  0  0  0  0  0  0
    0.4133   -2.0732   -0.7204 H   0  0  0  0  0  0  0  0  0  0  0  0
    2.6214   -0.7456   -1.1639 H   0  0  0  0  0  0  0  0  0  0  0  0
    2.2478   -1.4341    0.4241 H   0  0  0  0  0  0  0  0  0  0  0  0
    2.6765    0.5987    1.2984 H   0  0  0  0  0  0  0  0  0  0  0  0
    2.7562    1.3363   -0.3099 H   0  0  0  0  0  0  0  0  0  0  0  0
   -0.6102    0.9037    1.7821 H   0  0  0  0  0  0  0  0  0  0  0  0
   -2.0489    2.1333    0.3967 H   0  0  0  0  0  0  0  0  0  0  0  0
   -0.7685    2.3888   -0.8415 H   0  0  0  0  0  0  0  0  0  0  0  0
   -1.2302    0.3688   -1.9437 H   0  0  0  0  0  0  0  0  0  0  0  0
   -2.5849    0.1042   -0.7725 H   0  0  0  0  0  0  0  0  0  0  0  0
  1  2  1  0
  2  3  1  0
  3  4  1  0
  4  5  1  0
  5  6  1  0
  6  7  1  0
  7  8  1  0
  8  9  1  0
  7  2  1  0
  9  2  1  0
  1 10  1  0
  1 11  1  0
  1 12  1  0
  3 13  1  0
  3 14  1  0
  4 15  1  0
  4 16  1  0
  5 17  1  0
  5 18  1  0
  7 19  1  0
  8 20  1  0
  8 21  1  0
  9 22  1  0
  9 23  1  0
M  END
