
     RDKit          3D

 17 18  0  0  0  0  0  0  0  0999 V2000
   -2.0585    0.6617   -0.6604 C   0  0  0  0  0  0  0  0  0  0  0  0
   -0.7778    0.3058    0.0377 C   0  0  0  0  0  0  0  0  0  0  0  0
   -0.4078   -1.1742    0.1225 C   0  0  0  0  0  0  0  0  0  0  0  0
    0.8887   -1.1177    0.8218 C   0  0  0  0  0  0  0  0  0  0  0  0
    1.2805   -1.9201    1.6257 O   0  0  0  0  0  0  0  0  0  0  0  0
    1.5707    0.0959    0.3333 C   0  0  0  0  0  0  0  0  0  0  0  0
    2.1273   -0.1804   -0.9160 O   0  0  0  0  0  0  0  0  0  0  0  0
    0.3880    1.0383    0.1050 C   0  0  0  0  0  0  0  0  0  0  0  0
   -0.5454    1.0120    1.2594 O   0  0  0  0  0  0  0  0  0  0  0  0
   -2.1130    1.7313   -0.8453 H   0  0  0  0  0  0  0  0  0  0  0  0
   -2.9224    0.3134   -0.0305 H   0  0  0  0  0  0  0  0  0  0  0  0
   -2.0776    0.1110   -1.6295 H   0  0  0  0  0  0  0  0  0  0  0  0
   -1.1922   -1.7155    0.6832 H   0  0  0  0  0  0  0  0  0  0  0  0
   -0.2208   -1.5940   -0.8883 H   0  0  0  0  0  0  0  0  0  0  0  0
    2.2948    0.5137    1.0381 H   0  0  0  0  0  0  0  0  0  0  0  0
    3.1266   -0.1479   -0.8934 H   0  0  0  0  0  0  0  0  0  0  0  0
    0.6392    2.0666   -0.1632 H   0  0  0  0  0  0  0  0  0  0  0  0
  1  2  1  0
  2  3  1  0
  3  4  1  0
  4  5  2  0
  4  6  1  0
  6  7  1  0
  6  8  1  0
  8  9  1  0
  8  2  1  0
  9  2  1  0
  1 10  1  0
  1 11  1  0
  1 12  1  0
  3 13  1  0
  3 14  1  0
  6 15  1  0
  7 16  1  0
  8 17  1  0
M  END
