
     RDKit          3D

 17 18  0  0  0  0  0  0  0  0999 V2000
    1.5847    0.2579   -0.6943 C   0  0  0  0  0  0  0  0  0  0  0  0
    0.4350    0.1816    0.2668 C   0  0  0  0  0  0  0  0  0  0  0  0
    0.5459   -0.6550    1.4806 C   0  0  0  0  0  0  0  0  0  0  0  0
    1.2587   -0.6051    2.4455 O   0  0  0  0  0  0  0  0  0  0  0  0
   -0.5517   -1.4722    0.9280 C   0  0  0  0  0  0  0  0  0  0  0  0
   -0.8587   -0.4325   -0.1282 C   0  0  0  0  0  0  0  0  0  0  0  0
   -1.0912   -0.8348   -1.4371 O   0  0  0  0  0  0  0  0  0  0  0  0
   -0.7617    1.0116    0.1627 C   0  0  0  0  0  0  0  0  0  0  0  0
   -0.8598    1.8513   -0.9412 O   0  0  0  0  0  0  0  0  0  0  0  0
    2.0889    1.2313   -0.5335 H   0  0  0  0  0  0  0  0  0  0  0  0
    2.2828   -0.5848   -0.4128 H   0  0  0  0  0  0  0  0  0  0  0  0
    1.2917    0.0797   -1.7363 H   0  0  0  0  0  0  0  0  0  0  0  0
   -0.1378   -2.3868    0.4101 H   0  0  0  0  0  0  0  0  0  0  0  0
   -1.3695   -1.7283    1.6063 H   0  0  0  0  0  0  0  0  0  0  0  0
   -1.6612   -0.1111   -1.8468 H   0  0  0  0  0  0  0  0  0  0  0  0
   -1.2012    1.4170    1.0967 H   0  0  0  0  0  0  0  0  0  0  0  0
   -0.9949    2.7802   -0.6665 H   0  0  0  0  0  0  0  0  0  0  0  0
  1  2  1  0
  2  3  1  0
  3  4  2  0
  3  5  1  0
  5  6  1  0
  6  7  1  0
  6  8  1  0
  8  9  1  0
  6  2  1  0
  8  2  1  0
  1 10  1  0
  1 11  1  0
  1 12  1  0
  5 13  1  0
  5 14  1  0
  7 15  1  0
  8 16  1  0
  9 17  1  0
M  END
