
     RDKit          3D

 21 23  0  0  0  0  0  0  0  0999 V2000
   -1.2961   -1.1567   -1.1577 C   0  0  0  0  0  0  0  0  0  0  0  0
   -0.6268   -0.2161   -0.2691 C   0  0  0  0  0  0  0  0  0  0  0  0
   -1.4402    0.6876    0.6093 C   0  0  0  0  0  0  0  0  0  0  0  0
   -0.2987    1.3335    1.4194 C   0  0  0  0  0  0  0  0  0  0  0  0
    0.8738    0.7646    0.6873 C   0  0  0  0  0  0  0  0  0  0  0  0
    0.4963    0.6225   -0.7633 C   0  0  0  0  0  0  0  0  0  0  0  0
    1.3331   -0.6325   -0.7377 C   0  0  0  0  0  0  0  0  0  0  0  0
    2.6733   -0.3099   -0.6344 O   0  0  0  0  0  0  0  0  0  0  0  0
    0.5558   -0.6923    0.5406 C   0  0  0  0  0  0  0  0  0  0  0  0
   -1.4483   -2.1344   -0.6126 H   0  0  0  0  0  0  0  0  0  0  0  0
   -0.8366   -1.3082   -2.1458 H   0  0  0  0  0  0  0  0  0  0  0  0
   -2.3473   -0.7982   -1.3511 H   0  0  0  0  0  0  0  0  0  0  0  0
   -2.1604    0.1835    1.2492 H   0  0  0  0  0  0  0  0  0  0  0  0
   -1.8948    1.4662   -0.0414 H   0  0  0  0  0  0  0  0  0  0  0  0
   -0.3845    2.4192    1.3927 H   0  0  0  0  0  0  0  0  0  0  0  0
   -0.3562    0.9315    2.4672 H   0  0  0  0  0  0  0  0  0  0  0  0
    1.8665    1.0684    0.9405 H   0  0  0  0  0  0  0  0  0  0  0  0
    0.5006    1.3351   -1.4629 H   0  0  0  0  0  0  0  0  0  0  0  0
    1.0863   -1.4044   -1.4693 H   0  0  0  0  0  0  0  0  0  0  0  0
    3.1448   -0.7568    0.0987 H   0  0  0  0  0  0  0  0  0  0  0  0
    0.5595   -1.4024    1.2406 H   0  0  0  0  0  0  0  0  0  0  0  0
  1  2  1  0
  2  3  1  0
  3  4  1  0
  4  5  1  0
  5  6  1  0
  6  7  1  0
  7  8  1  0
  7  9  1  0
  6  2  1  0
  9  2  1  0
  9  5  1  0
  1 10  1  0
  1 11  1  0
  1 12  1  0
  3 13  1  0
  3 14  1  0
  4 15  1  0
  4 16  1  0
  5 17  1  0
  6 18  1  0
  7 19  1  0
  8 20  1  0
  9 21  1  0
M  END
