
     RDKit          3D

 23 24  0  0  0  0  0  0  0  0999 V2000
   -1.3636    2.1277    0.5707 C   0  0  0  0  0  0  0  0  0  0  0  0
   -0.9586    0.7425    0.1663 C   0  0  0  0  0  0  0  0  0  0  0  0
   -1.9875   -0.2182   -0.3539 C   0  0  0  0  0  0  0  0  0  0  0  0
   -1.4622   -1.3071    0.5309 C   0  0  0  0  0  0  0  0  0  0  0  0
   -0.5537   -0.2815    1.1604 C   0  0  0  0  0  0  0  0  0  0  0  0
    0.4516    0.3516    0.3208 C   0  0  0  0  0  0  0  0  0  0  0  0
    1.0752   -0.4465   -0.7918 C   0  0  0  0  0  0  0  0  0  0  0  0
    2.5113   -0.7116   -0.3855 C   0  0  0  0  0  0  0  0  0  0  0  0
    3.1218   -1.4458   -1.3857 O   0  0  0  0  0  0  0  0  0  0  0  0
   -0.7660    2.4382    1.4556 H   0  0  0  0  0  0  0  0  0  0  0  0
   -2.4281    2.2150    0.8218 H   0  0  0  0  0  0  0  0  0  0  0  0
   -1.1035    2.8426   -0.2431 H   0  0  0  0  0  0  0  0  0  0  0  0
   -1.9398   -0.4390   -1.4426 H   0  0  0  0  0  0  0  0  0  0  0  0
   -3.0096    0.1417   -0.0377 H   0  0  0  0  0  0  0  0  0  0  0  0
   -2.2143   -1.7447    1.2335 H   0  0  0  0  0  0  0  0  0  0  0  0
   -0.9542   -2.1118   -0.0297 H   0  0  0  0  0  0  0  0  0  0  0  0
   -0.6535   -0.0781    2.2502 H   0  0  0  0  0  0  0  0  0  0  0  0
    1.0916    1.1039    0.8389 H   0  0  0  0  0  0  0  0  0  0  0  0
    1.1443    0.1997   -1.7122 H   0  0  0  0  0  0  0  0  0  0  0  0
    0.6276   -1.4143   -0.9951 H   0  0  0  0  0  0  0  0  0  0  0  0
    2.4956   -1.2977    0.5416 H   0  0  0  0  0  0  0  0  0  0  0  0
    3.0685    0.2286   -0.2126 H   0  0  0  0  0  0  0  0  0  0  0  0
    3.8071   -0.8952   -1.8227 H   0  0  0  0  0  0  0  0  0  0  0  0
  1  2  1  0
  2  3  1  0
  3  4  1  0
  4  5  1  0
  5  6  1  0
  6  7  1  0
  7  8  1  0
  8  9  1  0
  5  2  1  0
  6  2  1  0
  1 10  1  0
  1 11  1  0
  1 12  1  0
  3 13  1  0
  3 14  1  0
  4 15  1  0
  4 16  1  0
  5 17  1  0
  6 18  1  0
  7 19  1  0
  7 20  1  0
  8 21  1  0
  8 22  1  0
  9 23  1  0
M  END
