
     RDKit          3D

 18 19  0  0  0  0  0  0  0  0999 V2000
    1.8786   -0.1304   -0.4492 C   0  0  0  0  0  0  0  0  0  0  0  0
    0.5670   -0.0597    0.2260 C   0  0  0  0  0  0  0  0  0  0  0  0
    0.0204   -1.3985    0.7037 C   0  0  0  0  0  0  0  0  0  0  0  0
   -0.9941   -1.6420   -0.2008 O   0  0  0  0  0  0  0  0  0  0  0  0
   -1.6722   -0.4288   -0.3272 C   0  0  0  0  0  0  0  0  0  0  0  0
   -0.5919    0.6137   -0.3927 C   0  0  0  0  0  0  0  0  0  0  0  0
   -0.4877    1.4631   -1.4642 O   0  0  0  0  0  0  0  0  0  0  0  0
    0.0269    1.1213    0.8951 C   0  0  0  0  0  0  0  0  0  0  0  0
    1.7395   -0.7030   -1.4129 H   0  0  0  0  0  0  0  0  0  0  0  0
    2.5939   -0.7370    0.1391 H   0  0  0  0  0  0  0  0  0  0  0  0
    2.3477    0.8204   -0.6917 H   0  0  0  0  0  0  0  0  0  0  0  0
    0.7924   -2.1642    0.7152 H   0  0  0  0  0  0  0  0  0  0  0  0
   -0.3568   -1.3062    1.7572 H   0  0  0  0  0  0  0  0  0  0  0  0
   -2.2362   -0.3644   -1.2946 H   0  0  0  0  0  0  0  0  0  0  0  0
   -2.3804   -0.3025    0.4907 H   0  0  0  0  0  0  0  0  0  0  0  0
   -1.1697    2.1937   -1.3192 H   0  0  0  0  0  0  0  0  0  0  0  0
    0.5908    2.0504    0.8539 H   0  0  0  0  0  0  0  0  0  0  0  0
   -0.6682    0.9740    1.7715 H   0  0  0  0  0  0  0  0  0  0  0  0
  1  2  1  0
  2  3  1  0
  3  4  1  0
  4  5  1  0
  5  6  1  0
  6  7  1  0
  6  8  1  0
  6  2  1  0
  8  2  1  0
  1  9  1  0
  1 10  1  0
  1 11  1  0
  3 12  1  0
  3 13  1  0
  5 14  1  0
  5 15  1  0
  7 16  1  0
  8 17  1  0
  8 18  1  0
M  END
