
     RDKit          3D

 19 21  0  0  0  0  0  0  0  0999 V2000
   -1.9304   -0.0261   -0.4109 C   0  0  0  0  0  0  0  0  0  0  0  0
   -0.6290   -0.1139    0.2892 C   0  0  0  0  0  0  0  0  0  0  0  0
   -0.2136    0.7689    1.3824 C   0  0  0  0  0  0  0  0  0  0  0  0
    0.3751    0.9281    0.0430 C   0  0  0  0  0  0  0  0  0  0  0  0
    0.0704    2.1179   -0.6144 O   0  0  0  0  0  0  0  0  0  0  0  0
    1.5863    0.2005   -0.4151 C   0  0  0  0  0  0  0  0  0  0  0  0
    1.3447   -1.2831   -0.1762 C   0  0  0  0  0  0  0  0  0  0  0  0
    1.1690   -1.6423    1.1353 O   0  0  0  0  0  0  0  0  0  0  0  0
    0.0572   -1.4625    0.2215 C   0  0  0  0  0  0  0  0  0  0  0  0
   -1.9628    0.7932   -1.1707 H   0  0  0  0  0  0  0  0  0  0  0  0
   -2.1947   -0.9489   -0.9407 H   0  0  0  0  0  0  0  0  0  0  0  0
   -2.7214    0.1891    0.3466 H   0  0  0  0  0  0  0  0  0  0  0  0
    0.4558    0.3815    2.1961 H   0  0  0  0  0  0  0  0  0  0  0  0
   -0.9285    1.5109    1.7344 H   0  0  0  0  0  0  0  0  0  0  0  0
    0.0490    2.0273   -1.5969 H   0  0  0  0  0  0  0  0  0  0  0  0
    1.6322    0.3059   -1.5398 H   0  0  0  0  0  0  0  0  0  0  0  0
    2.5334    0.5518    0.0195 H   0  0  0  0  0  0  0  0  0  0  0  0
    1.9302   -1.9893   -0.7993 H   0  0  0  0  0  0  0  0  0  0  0  0
   -0.6229   -2.3089    0.2960 H   0  0  0  0  0  0  0  0  0  0  0  0
  1  2  1  0
  2  3  1  0
  3  4  1  0
  4  5  1  0
  4  6  1  0
  6  7  1  0
  7  8  1  0
  8  9  1  0
  4  2  1  0
  9  7  1  0
  9  2  1  0
  1 10  1  0
  1 11  1  0
  1 12  1  0
  3 13  1  0
  3 14  1  0
  5 15  1  0
  6 16  1  0
  6 17  1  0
  7 18  1  0
  9 19  1  0
M  END
