
     RDKit          3D

 18 19  0  0  0  0  0  0  0  0999 V2000
   -1.8688   -0.8412   -0.0613 C   0  0  0  0  0  0  0  0  0  0  0  0
   -0.5764   -0.0692    0.2029 C   0  0  0  0  0  0  0  0  0  0  0  0
    0.5633   -0.9174    0.6231 C   0  0  0  0  0  0  0  0  0  0  0  0
    1.8132   -0.2189    0.2226 C   0  0  0  0  0  0  0  0  0  0  0  0
    1.4313    0.6957   -0.8608 C   0  0  0  0  0  0  0  0  0  0  0  0
    2.1763    1.2591   -1.6247 O   0  0  0  0  0  0  0  0  0  0  0  0
   -0.0467    0.8160   -0.8625 C   0  0  0  0  0  0  0  0  0  0  0  0
   -0.6560    1.3751    0.3695 C   0  0  0  0  0  0  0  0  0  0  0  0
   -2.5979   -0.4654    0.6932 H   0  0  0  0  0  0  0  0  0  0  0  0
   -2.2219   -0.5650   -1.0741 H   0  0  0  0  0  0  0  0  0  0  0  0
   -1.7194   -1.9331    0.0318 H   0  0  0  0  0  0  0  0  0  0  0  0
    0.5303   -1.9139    0.1140 H   0  0  0  0  0  0  0  0  0  0  0  0
    0.5917   -1.1425    1.7209 H   0  0  0  0  0  0  0  0  0  0  0  0
    2.5694   -0.9739   -0.0971 H   0  0  0  0  0  0  0  0  0  0  0  0
    2.2796    0.3140    1.0856 H   0  0  0  0  0  0  0  0  0  0  0  0
   -0.5793    0.7937   -1.8190 H   0  0  0  0  0  0  0  0  0  0  0  0
    0.0074    1.9724    1.0081 H   0  0  0  0  0  0  0  0  0  0  0  0
   -1.6960    1.8144    0.3279 H   0  0  0  0  0  0  0  0  0  0  0  0
  1  2  1  0
  2  3  1  0
  3  4  1  0
  4  5  1  0
  5  6  2  0
  5  7  1  0
  7  8  1  0
  7  2  1  0
  8  2  1  0
  1  9  1  0
  1 10  1  0
  1 11  1  0
  3 12  1  0
  3 13  1  0
  4 14  1  0
  4 15  1  0
  7 16  1  0
  8 17  1  0
  8 18  1  0
M  END
