
     RDKit          3D

 21 22  0  0  0  0  0  0  0  0999 V2000
   -0.7546    1.9964    0.4636 C   0  0  0  0  0  0  0  0  0  0  0  0
   -0.6109    0.5457    0.3525 C   0  0  0  0  0  0  0  0  0  0  0  0
   -1.1410   -0.1603   -0.8541 C   0  0  0  0  0  0  0  0  0  0  0  0
   -0.7956   -1.5991   -0.4270 C   0  0  0  0  0  0  0  0  0  0  0  0
   -0.2729   -1.2340    0.9467 C   0  0  0  0  0  0  0  0  0  0  0  0
   -1.1962   -0.2371    1.3832 O   0  0  0  0  0  0  0  0  0  0  0  0
    0.6579   -0.1107    0.7740 C   0  0  0  0  0  0  0  0  0  0  0  0
    1.8125   -0.1370   -0.1027 C   0  0  0  0  0  0  0  0  0  0  0  0
    1.7367   -0.7285   -1.3236 O   0  0  0  0  0  0  0  0  0  0  0  0
    0.2764    2.4531    0.5390 H   0  0  0  0  0  0  0  0  0  0  0  0
   -1.2824    2.3605    1.3765 H   0  0  0  0  0  0  0  0  0  0  0  0
   -1.1933    2.4942   -0.4504 H   0  0  0  0  0  0  0  0  0  0  0  0
   -0.6777    0.1112   -1.7976 H   0  0  0  0  0  0  0  0  0  0  0  0
   -2.2393   -0.0199   -0.9062 H   0  0  0  0  0  0  0  0  0  0  0  0
   -0.0848   -2.0886   -1.0770 H   0  0  0  0  0  0  0  0  0  0  0  0
   -1.7302   -2.2034   -0.3592 H   0  0  0  0  0  0  0  0  0  0  0  0
   -0.0838   -2.0249    1.6403 H   0  0  0  0  0  0  0  0  0  0  0  0
    0.9362    0.3254    1.7885 H   0  0  0  0  0  0  0  0  0  0  0  0
    2.1361    0.9330   -0.2898 H   0  0  0  0  0  0  0  0  0  0  0  0
    2.7183   -0.5715    0.4147 H   0  0  0  0  0  0  0  0  0  0  0  0
    1.7887   -0.1046   -2.0915 H   0  0  0  0  0  0  0  0  0  0  0  0
  1  2  1  0
  2  3  1  0
  3  4  1  0
  4  5  1  0
  5  6  1  0
  5  7  1  0
  7  8  1  0
  8  9  1  0
  6  2  1  0
  7  2  1  0
  1 10  1  0
  1 11  1  0
  1 12  1  0
  3 13  1  0
  3 14  1  0
  4 15  1  0
  4 16  1  0
  5 17  1  0
  7 18  1  0
  8 19  1  0
  8 20  1  0
  9 21  1  0
M  END
