
     RDKit          3D

 17 18  0  0  0  0  0  0  0  0999 V2000
   -1.7861   -0.7857   -0.3155 C   0  0  0  0  0  0  0  0  0  0  0  0
   -0.6191   -0.1359    0.3752 C   0  0  0  0  0  0  0  0  0  0  0  0
    0.6480   -0.9118    0.3572 C   0  0  0  0  0  0  0  0  0  0  0  0
    1.4709    0.3126   -0.0045 C   0  0  0  0  0  0  0  0  0  0  0  0
    2.3588    0.1537   -1.0378 O   0  0  0  0  0  0  0  0  0  0  0  0
    0.1490    0.9601   -0.4072 C   0  0  0  0  0  0  0  0  0  0  0  0
   -0.7359    1.2699    0.7285 C   0  0  0  0  0  0  0  0  0  0  0  0
   -1.4603   -1.6424   -0.9325 H   0  0  0  0  0  0  0  0  0  0  0  0
   -2.4642   -1.1715    0.5009 H   0  0  0  0  0  0  0  0  0  0  0  0
   -2.2772   -0.0343   -0.9402 H   0  0  0  0  0  0  0  0  0  0  0  0
    0.9494   -1.4479    1.2553 H   0  0  0  0  0  0  0  0  0  0  0  0
    0.6869   -1.6176   -0.5217 H   0  0  0  0  0  0  0  0  0  0  0  0
    1.8992    0.8488    0.8798 H   0  0  0  0  0  0  0  0  0  0  0  0
    3.1976   -0.2080   -0.6632 H   0  0  0  0  0  0  0  0  0  0  0  0
   -0.1384    1.0106   -1.4511 H   0  0  0  0  0  0  0  0  0  0  0  0
   -0.2128    1.6117    1.6611 H   0  0  0  0  0  0  0  0  0  0  0  0
   -1.6657    1.7876    0.5156 H   0  0  0  0  0  0  0  0  0  0  0  0
  1  2  1  0
  2  3  1  0
  3  4  1  0
  4  5  1  0
  4  6  1  0
  6  7  1  0
  6  2  1  0
  7  2  1  0
  1  8  1  0
  1  9  1  0
  1 10  1  0
  3 11  1  0
  3 12  1  0
  4 13  1  0
  5 14  1  0
  6 15  1  0
  7 16  1  0
  7 17  1  0
M  END
