
     RDKit          3D

 19 20  0  0  0  0  0  0  0  0999 V2000
   -1.4326   -1.3456    0.2572 C   0  0  0  0  0  0  0  0  0  0  0  0
   -0.7051   -0.2062    0.0128 C   0  0  0  0  0  0  0  0  0  0  0  0
   -0.3093    0.2417   -1.2712 O   0  0  0  0  0  0  0  0  0  0  0  0
    0.2088    1.2261   -0.4561 C   0  0  0  0  0  0  0  0  0  0  0  0
   -1.0904    1.2112    0.2889 C   0  0  0  0  0  0  0  0  0  0  0  0
   -2.2204    1.5538   -0.4015 O   0  0  0  0  0  0  0  0  0  0  0  0
    0.6710    0.1307    0.4575 C   0  0  0  0  0  0  0  0  0  0  0  0
    1.7467   -0.7736   -0.0790 C   0  0  0  0  0  0  0  0  0  0  0  0
    3.0035   -0.4322    0.3527 O   0  0  0  0  0  0  0  0  0  0  0  0
   -2.3444   -1.1974    0.9080 H   0  0  0  0  0  0  0  0  0  0  0  0
   -1.8501   -1.8551   -0.6613 H   0  0  0  0  0  0  0  0  0  0  0  0
   -0.8618   -2.1727    0.7742 H   0  0  0  0  0  0  0  0  0  0  0  0
    0.7374    2.0408   -0.7349 H   0  0  0  0  0  0  0  0  0  0  0  0
   -0.9653    1.5868    1.3051 H   0  0  0  0  0  0  0  0  0  0  0  0
   -2.0918    2.3789   -0.9271 H   0  0  0  0  0  0  0  0  0  0  0  0
    0.7590    0.4605    1.4901 H   0  0  0  0  0  0  0  0  0  0  0  0
    1.6366   -0.8176   -1.1793 H   0  0  0  0  0  0  0  0  0  0  0  0
    1.5249   -1.7984    0.3065 H   0  0  0  0  0  0  0  0  0  0  0  0
    3.5831   -0.2317   -0.4427 H   0  0  0  0  0  0  0  0  0  0  0  0
  1  2  1  0
  2  3  1  0
  3  4  1  0
  4  5  1  0
  5  6  1  0
  4  7  1  0
  7  8  1  0
  8  9  1  0
  5  2  1  0
  7  2  1  0
  1 10  1  0
  1 11  1  0
  1 12  1  0
  4 13  1  0
  5 14  1  0
  6 15  1  0
  7 16  1  0
  8 17  1  0
  8 18  1  0
  9 19  1  0
M  END
