
     RDKit          3D

 19 20  0  0  0  0  0  0  0  0999 V2000
   -1.0794    1.3866   -0.0163 C   0  0  0  0  0  0  0  0  0  0  0  0
   -0.7071   -0.0184   -0.1529 C   0  0  0  0  0  0  0  0  0  0  0  0
   -1.8438   -1.0103    0.1246 C   0  0  0  0  0  0  0  0  0  0  0  0
   -0.6433   -0.9868    0.9716 C   0  0  0  0  0  0  0  0  0  0  0  0
    0.5445   -1.6594    0.3758 C   0  0  0  0  0  0  0  0  0  0  0  0
    1.1416   -2.6820    0.6528 O   0  0  0  0  0  0  0  0  0  0  0  0
    0.5922   -0.5403   -0.6135 C   0  0  0  0  0  0  0  0  0  0  0  0
    1.8236    0.2622   -0.3674 C   0  0  0  0  0  0  0  0  0  0  0  0
    1.8317    1.5097   -0.9345 O   0  0  0  0  0  0  0  0  0  0  0  0
   -1.5494    1.7561   -0.9737 H   0  0  0  0  0  0  0  0  0  0  0  0
   -1.8848    1.5139    0.7505 H   0  0  0  0  0  0  0  0  0  0  0  0
   -0.2965    2.1037    0.2306 H   0  0  0  0  0  0  0  0  0  0  0  0
   -2.7779   -0.6320    0.5315 H   0  0  0  0  0  0  0  0  0  0  0  0
   -1.9531   -1.8728   -0.5632 H   0  0  0  0  0  0  0  0  0  0  0  0
   -0.5915   -0.5469    1.9667 H   0  0  0  0  0  0  0  0  0  0  0  0
    0.5684   -0.9261   -1.6537 H   0  0  0  0  0  0  0  0  0  0  0  0
    2.6991   -0.2908   -0.7702 H   0  0  0  0  0  0  0  0  0  0  0  0
    2.0453    0.3941    0.7273 H   0  0  0  0  0  0  0  0  0  0  0  0
    2.0804    2.2394   -0.2861 H   0  0  0  0  0  0  0  0  0  0  0  0
  1  2  1  0
  2  3  1  0
  3  4  1  0
  4  5  1  0
  5  6  2  0
  5  7  1  0
  7  8  1  0
  8  9  1  0
  4  2  1  0
  7  2  1  0
  1 10  1  0
  1 11  1  0
  1 12  1  0
  3 13  1  0
  3 14  1  0
  4 15  1  0
  7 16  1  0
  8 17  1  0
  8 18  1  0
  9 19  1  0
M  END
