
     RDKit          3D

 19 20  0  0  0  0  0  0  0  0999 V2000
   -1.5324   -1.0498   -0.0735 C   0  0  0  0  0  0  0  0  0  0  0  0
   -0.6949    0.0960    0.3207 C   0  0  0  0  0  0  0  0  0  0  0  0
   -0.8309    1.4292   -0.4288 C   0  0  0  0  0  0  0  0  0  0  0  0
    0.6278    1.2430   -0.8008 C   0  0  0  0  0  0  0  0  0  0  0  0
    0.7687    0.1507    0.1852 C   0  0  0  0  0  0  0  0  0  0  0  0
    1.6149   -1.0039   -0.1955 C   0  0  0  0  0  0  0  0  0  0  0  0
    0.1375    0.1596    1.5240 C   0  0  0  0  0  0  0  0  0  0  0  0
   -1.0194   -1.9862   -0.2947 H   0  0  0  0  0  0  0  0  0  0  0  0
   -2.2698   -1.2503    0.7506 H   0  0  0  0  0  0  0  0  0  0  0  0
   -2.0978   -0.7697   -1.0064 H   0  0  0  0  0  0  0  0  0  0  0  0
   -1.5494    1.3833   -1.2433 H   0  0  0  0  0  0  0  0  0  0  0  0
   -0.9225    2.2307    0.3124 H   0  0  0  0  0  0  0  0  0  0  0  0
    0.6613    0.8270   -1.8499 H   0  0  0  0  0  0  0  0  0  0  0  0
    1.2453    2.1379   -0.6953 H   0  0  0  0  0  0  0  0  0  0  0  0
    2.1304   -1.3729    0.7333 H   0  0  0  0  0  0  0  0  0  0  0  0
    0.9945   -1.8064   -0.5892 H   0  0  0  0  0  0  0  0  0  0  0  0
    2.4399   -0.7150   -0.8926 H   0  0  0  0  0  0  0  0  0  0  0  0
    0.2425   -0.7744    2.1050 H   0  0  0  0  0  0  0  0  0  0  0  0
    0.0543    1.0711    2.1389 H   0  0  0  0  0  0  0  0  0  0  0  0
  1  2  1  0
  2  3  1  0
  3  4  1  0
  4  5  1  0
  5  6  1  0
  5  7  1  0
  5  2  1  0
  7  2  1  0
  1  8  1  0
  1  9  1  0
  1 10  1  0
  3 11  1  0
  3 12  1  0
  4 13  1  0
  4 14  1  0
  6 15  1  0
  6 16  1  0
  6 17  1  0
  7 18  1  0
  7 19  1  0
M  END
