
     RDKit          3D

 17 18  0  0  0  0  0  0  0  0999 V2000
    1.6899   -0.5226   -0.1559 C   0  0  0  0  0  0  0  0  0  0  0  0
    0.3708   -0.0251    0.0557 C   0  0  0  0  0  0  0  0  0  0  0  0
    0.1279    1.4290    0.4210 C   0  0  0  0  0  0  0  0  0  0  0  0
   -1.2919    1.4278    0.4385 O   0  0  0  0  0  0  0  0  0  0  0  0
   -1.6054    0.1107    0.2487 C   0  0  0  0  0  0  0  0  0  0  0  0
   -0.5694   -0.7040    1.0424 C   0  0  0  0  0  0  0  0  0  0  0  0
   -0.7273   -0.2481   -0.9619 C   0  0  0  0  0  0  0  0  0  0  0  0
    2.4469    0.3169   -0.1675 H   0  0  0  0  0  0  0  0  0  0  0  0
    1.8897   -1.0661   -1.1261 H   0  0  0  0  0  0  0  0  0  0  0  0
    2.0413   -1.2312    0.6355 H   0  0  0  0  0  0  0  0  0  0  0  0
    0.5312    2.0855   -0.3463 H   0  0  0  0  0  0  0  0  0  0  0  0
    0.5395    1.5717    1.4329 H   0  0  0  0  0  0  0  0  0  0  0  0
   -2.6032   -0.2394    0.2473 H   0  0  0  0  0  0  0  0  0  0  0  0
   -0.4069   -0.3161    2.0510 H   0  0  0  0  0  0  0  0  0  0  0  0
   -0.7199   -1.7700    0.9058 H   0  0  0  0  0  0  0  0  0  0  0  0
   -0.9258   -1.2820   -1.2456 H   0  0  0  0  0  0  0  0  0  0  0  0
   -0.7872    0.4630   -1.7824 H   0  0  0  0  0  0  0  0  0  0  0  0
  1  2  1  0
  2  3  1  0
  3  4  1  0
  4  5  1  0
  5  6  1  0
  5  7  1  0
  6  2  1  0
  7  2  1  0
  1  8  1  0
  1  9  1  0
  1 10  1  0
  3 11  1  0
  3 12  1  0
  5 13  1  0
  6 14  1  0
  6 15  1  0
  7 16  1  0
  7 17  1  0
M  END
