
     RDKit          3D

 21 23  0  0  0  0  0  0  0  0999 V2000
   -0.1937    1.9585   -0.5370 C   0  0  0  0  0  0  0  0  0  0  0  0
    0.0563    0.6066    0.0253 C   0  0  0  0  0  0  0  0  0  0  0  0
   -0.6164    0.3532    1.3387 C   0  0  0  0  0  0  0  0  0  0  0  0
   -1.3795   -0.7813    1.2240 O   0  0  0  0  0  0  0  0  0  0  0  0
   -1.6714   -0.9537   -0.1154 C   0  0  0  0  0  0  0  0  0  0  0  0
   -0.4151   -0.5595   -0.8131 C   0  0  0  0  0  0  0  0  0  0  0  0
    0.8135   -1.3293   -0.5704 C   0  0  0  0  0  0  0  0  0  0  0  0
    1.6891   -1.2117    0.6001 C   0  0  0  0  0  0  0  0  0  0  0  0
    1.4348    0.0356   -0.1417 C   0  0  0  0  0  0  0  0  0  0  0  0
    0.1520    2.7137    0.1765 H   0  0  0  0  0  0  0  0  0  0  0  0
    0.2771    2.0927   -1.5224 H   0  0  0  0  0  0  0  0  0  0  0  0
   -1.3063    2.0920   -0.6150 H   0  0  0  0  0  0  0  0  0  0  0  0
   -1.3006    1.2196    1.5588 H   0  0  0  0  0  0  0  0  0  0  0  0
    0.0989    0.3172    2.1924 H   0  0  0  0  0  0  0  0  0  0  0  0
   -2.0424   -1.9506   -0.3426 H   0  0  0  0  0  0  0  0  0  0  0  0
   -2.4334   -0.1583   -0.3755 H   0  0  0  0  0  0  0  0  0  0  0  0
   -0.5604   -0.2545   -1.8860 H   0  0  0  0  0  0  0  0  0  0  0  0
    1.2681   -1.7892   -1.4907 H   0  0  0  0  0  0  0  0  0  0  0  0
    2.7176   -1.6174    0.5185 H   0  0  0  0  0  0  0  0  0  0  0  0
    1.3065   -1.2541    1.6493 H   0  0  0  0  0  0  0  0  0  0  0  0
    2.1053    0.4705   -0.8736 H   0  0  0  0  0  0  0  0  0  0  0  0
  1  2  1  0
  2  3  1  0
  3  4  1  0
  4  5  1  0
  5  6  1  0
  6  7  1  0
  7  8  1  0
  8  9  1  0
  6  2  1  0
  9  7  1  0
  9  2  1  0
  1 10  1  0
  1 11  1  0
  1 12  1  0
  3 13  1  0
  3 14  1  0
  5 15  1  0
  5 16  1  0
  6 17  1  0
  7 18  1  0
  8 19  1  0
  8 20  1  0
  9 21  1  0
M  END
