
     RDKit          3D

 21 23  0  0  0  0  0  0  0  0999 V2000
   -2.3387   -0.2933   -0.1257 C   0  0  0  0  0  0  0  0  0  0  0  0
   -0.8782    0.0331   -0.1549 C   0  0  0  0  0  0  0  0  0  0  0  0
   -0.4997    0.9690    0.9359 C   0  0  0  0  0  0  0  0  0  0  0  0
    0.3619    1.5520   -0.1750 C   0  0  0  0  0  0  0  0  0  0  0  0
    1.6782    0.8008   -0.0931 C   0  0  0  0  0  0  0  0  0  0  0  0
    1.4674   -0.6458   -0.4008 C   0  0  0  0  0  0  0  0  0  0  0  0
    0.9962   -1.5842    0.6653 C   0  0  0  0  0  0  0  0  0  0  0  0
    0.0658   -1.1097   -0.3483 C   0  0  0  0  0  0  0  0  0  0  0  0
   -0.5120    1.0296   -1.0861 O   0  0  0  0  0  0  0  0  0  0  0  0
   -2.5650   -0.6562    0.9203 H   0  0  0  0  0  0  0  0  0  0  0  0
   -2.6748   -0.9844   -0.8963 H   0  0  0  0  0  0  0  0  0  0  0  0
   -2.8890    0.6901   -0.1850 H   0  0  0  0  0  0  0  0  0  0  0  0
    0.0340    0.5657    1.7937 H   0  0  0  0  0  0  0  0  0  0  0  0
   -1.3569    1.6305    1.2091 H   0  0  0  0  0  0  0  0  0  0  0  0
    0.4339    2.6430   -0.1971 H   0  0  0  0  0  0  0  0  0  0  0  0
    1.9798    0.8591    0.9942 H   0  0  0  0  0  0  0  0  0  0  0  0
    2.4865    1.2819   -0.6502 H   0  0  0  0  0  0  0  0  0  0  0  0
    2.1914   -1.0512   -1.1550 H   0  0  0  0  0  0  0  0  0  0  0  0
    1.3529   -2.6449    0.5609 H   0  0  0  0  0  0  0  0  0  0  0  0
    0.9008   -1.2787    1.7096 H   0  0  0  0  0  0  0  0  0  0  0  0
   -0.2345   -1.8063   -1.1592 H   0  0  0  0  0  0  0  0  0  0  0  0
  1  2  1  0
  2  3  1  0
  3  4  1  0
  4  5  1  0
  5  6  1  0
  6  7  1  0
  7  8  1  0
  4  9  1  0
  8  2  1  0
  9  2  1  0
  8  6  1  0
  1 10  1  0
  1 11  1  0
  1 12  1  0
  3 13  1  0
  3 14  1  0
  4 15  1  0
  5 16  1  0
  5 17  1  0
  6 18  1  0
  7 19  1  0
  7 20  1  0
  8 21  1  0
M  END
