
     RDKit          3D

 21 22  0  0  0  0  0  0  0  0999 V2000
   -1.4986    0.6897   -0.6368 C   0  0  0  0  0  0  0  0  0  0  0  0
   -0.7994   -0.1019    0.4798 C   0  0  0  0  0  0  0  0  0  0  0  0
    0.0648    0.7738    1.2876 C   0  0  0  0  0  0  0  0  0  0  0  0
    1.1006    1.2993    0.3109 C   0  0  0  0  0  0  0  0  0  0  0  0
    1.3760    0.6462   -0.8140 C   0  0  0  0  0  0  0  0  0  0  0  0
    0.7179   -0.6319   -1.2236 C   0  0  0  0  0  0  0  0  0  0  0  0
    0.2106   -1.2166    0.0326 C   0  0  0  0  0  0  0  0  0  0  0  0
    1.2425   -1.5451    0.8873 O   0  0  0  0  0  0  0  0  0  0  0  0
   -1.0992   -1.4811    0.5031 C   0  0  0  0  0  0  0  0  0  0  0  0
   -1.9150    0.0260   -1.4085 H   0  0  0  0  0  0  0  0  0  0  0  0
   -0.9139    1.5305   -0.9915 H   0  0  0  0  0  0  0  0  0  0  0  0
   -2.3995    1.1310   -0.1160 H   0  0  0  0  0  0  0  0  0  0  0  0
   -0.5117    1.6785    1.5774 H   0  0  0  0  0  0  0  0  0  0  0  0
    0.5049    0.3701    2.1879 H   0  0  0  0  0  0  0  0  0  0  0  0
    1.6063    2.2207    0.5596 H   0  0  0  0  0  0  0  0  0  0  0  0
    2.1245    1.0758   -1.4654 H   0  0  0  0  0  0  0  0  0  0  0  0
    1.4578   -1.3327   -1.6903 H   0  0  0  0  0  0  0  0  0  0  0  0
   -0.0087   -0.3907   -1.9918 H   0  0  0  0  0  0  0  0  0  0  0  0
    1.8179   -0.8598    1.2149 H   0  0  0  0  0  0  0  0  0  0  0  0
   -1.2330   -1.9772    1.5012 H   0  0  0  0  0  0  0  0  0  0  0  0
   -1.8448   -1.9044   -0.2045 H   0  0  0  0  0  0  0  0  0  0  0  0
  1  2  1  0
  2  3  1  0
  3  4  1  0
  4  5  2  0
  5  6  1  0
  6  7  1  0
  7  8  1  0
  7  9  1  0
  7  2  1  0
  9  2  1  0
  1 10  1  0
  1 11  1  0
  1 12  1  0
  3 13  1  0
  3 14  1  0
  4 15  1  0
  5 16  1  0
  6 17  1  0
  6 18  1  0
  8 19  1  0
  9 20  1  0
  9 21  1  0
M  END
