
     RDKit          3D

 21 22  0  0  0  0  0  0  0  0999 V2000
   -2.5047    0.4533   -0.5701 C   0  0  0  0  0  0  0  0  0  0  0  0
   -1.0751    0.0683   -0.1747 C   0  0  0  0  0  0  0  0  0  0  0  0
   -0.8375   -0.4439    1.1705 C   0  0  0  0  0  0  0  0  0  0  0  0
   -0.4301    0.9382    0.9348 C   0  0  0  0  0  0  0  0  0  0  0  0
    0.8156    1.3475    0.5803 O   0  0  0  0  0  0  0  0  0  0  0  0
    1.8114    0.4235    0.6536 C   0  0  0  0  0  0  0  0  0  0  0  0
    2.0361   -0.2735   -0.6907 C   0  0  0  0  0  0  0  0  0  0  0  0
    0.7716   -0.9792   -1.1017 C   0  0  0  0  0  0  0  0  0  0  0  0
   -0.2263   -0.0589   -1.2300 O   0  0  0  0  0  0  0  0  0  0  0  0
   -3.2293   -0.2552   -0.1074 H   0  0  0  0  0  0  0  0  0  0  0  0
   -2.7750    1.4567   -0.1599 H   0  0  0  0  0  0  0  0  0  0  0  0
   -2.6574    0.4081   -1.6577 H   0  0  0  0  0  0  0  0  0  0  0  0
   -0.0880   -1.2216    1.4184 H   0  0  0  0  0  0  0  0  0  0  0  0
   -1.7600   -0.5735    1.8092 H   0  0  0  0  0  0  0  0  0  0  0  0
   -1.0970    1.7722    1.3023 H   0  0  0  0  0  0  0  0  0  0  0  0
    2.7778    0.9781    0.8444 H   0  0  0  0  0  0  0  0  0  0  0  0
    1.7314   -0.3014    1.4829 H   0  0  0  0  0  0  0  0  0  0  0  0
    2.8704   -0.9922   -0.5573 H   0  0  0  0  0  0  0  0  0  0  0  0
    2.3036    0.5198   -1.4242 H   0  0  0  0  0  0  0  0  0  0  0  0
    0.5693   -1.8126   -0.4201 H   0  0  0  0  0  0  0  0  0  0  0  0
    0.9934   -1.4538   -2.1026 H   0  0  0  0  0  0  0  0  0  0  0  0
  1  2  1  0
  2  3  1  0
  3  4  1  0
  4  5  1  0
  5  6  1  0
  6  7  1  0
  7  8  1  0
  8  9  1  0
  4  2  1  0
  9  2  1  0
  1 10  1  0
  1 11  1  0
  1 12  1  0
  3 13  1  0
  3 14  1  0
  4 15  1  0
  6 16  1  0
  6 17  1  0
  7 18  1  0
  7 19  1  0
  8 20  1  0
  8 21  1  0
M  END
