
     RDKit          3D

 21 23  0  0  0  0  0  0  0  0999 V2000
   -1.1988    1.2089    0.9173 C   0  0  0  0  0  0  0  0  0  0  0  0
   -0.7077    0.0772    0.1151 C   0  0  0  0  0  0  0  0  0  0  0  0
   -1.2394   -0.0278   -1.3203 C   0  0  0  0  0  0  0  0  0  0  0  0
   -0.4275   -0.9410   -1.9450 O   0  0  0  0  0  0  0  0  0  0  0  0
    0.7994   -0.9737   -1.2813 C   0  0  0  0  0  0  0  0  0  0  0  0
    0.7073   -1.4698    0.1301 C   0  0  0  0  0  0  0  0  0  0  0  0
   -0.6431   -1.2835    0.7983 C   0  0  0  0  0  0  0  0  0  0  0  0
    0.7562   -0.0468   -0.1445 C   0  0  0  0  0  0  0  0  0  0  0  0
    1.7722    0.9103    0.2467 C   0  0  0  0  0  0  0  0  0  0  0  0
   -1.3546    0.8979    1.9907 H   0  0  0  0  0  0  0  0  0  0  0  0
   -0.5828    2.1085    0.9138 H   0  0  0  0  0  0  0  0  0  0  0  0
   -2.2404    1.4656    0.5636 H   0  0  0  0  0  0  0  0  0  0  0  0
   -2.3019   -0.2467   -1.3566 H   0  0  0  0  0  0  0  0  0  0  0  0
   -1.0372    0.9777   -1.7943 H   0  0  0  0  0  0  0  0  0  0  0  0
    1.7276   -1.0453   -1.8437 H   0  0  0  0  0  0  0  0  0  0  0  0
    1.5118   -1.9990    0.6233 H   0  0  0  0  0  0  0  0  0  0  0  0
   -1.4023   -2.0056    0.4868 H   0  0  0  0  0  0  0  0  0  0  0  0
   -0.4953   -1.1353    1.8840 H   0  0  0  0  0  0  0  0  0  0  0  0
    2.5287    1.0290   -0.5830 H   0  0  0  0  0  0  0  0  0  0  0  0
    1.4311    1.9356    0.4775 H   0  0  0  0  0  0  0  0  0  0  0  0
    2.3967    0.5636    1.1216 H   0  0  0  0  0  0  0  0  0  0  0  0
  1  2  1  0
  2  3  1  0
  3  4  1  0
  4  5  1  0
  5  6  1  0
  6  7  1  0
  6  8  1  0
  8  9  1  0
  7  2  1  0
  8  2  1  0
  8  5  1  0
  1 10  1  0
  1 11  1  0
  1 12  1  0
  3 13  1  0
  3 14  1  0
  5 15  1  0
  6 16  1  0
  7 17  1  0
  7 18  1  0
  9 19  1  0
  9 20  1  0
  9 21  1  0
M  END
