
     RDKit          3D

 19 21  0  0  0  0  0  0  0  0999 V2000
   -1.9952   -0.4119   -0.0163 C   0  0  0  0  0  0  0  0  0  0  0  0
   -0.5582   -0.2010   -0.0287 C   0  0  0  0  0  0  0  0  0  0  0  0
    0.3037   -0.1646   -1.2386 C   0  0  0  0  0  0  0  0  0  0  0  0
    0.8807    1.1600   -0.7200 C   0  0  0  0  0  0  0  0  0  0  0  0
    0.2101    0.8491    0.5990 C   0  0  0  0  0  0  0  0  0  0  0  0
   -0.4044    1.8137    1.3328 O   0  0  0  0  0  0  0  0  0  0  0  0
    0.3792   -0.5535    1.0583 C   0  0  0  0  0  0  0  0  0  0  0  0
    1.4558   -1.3261    0.2922 C   0  0  0  0  0  0  0  0  0  0  0  0
    1.1557   -1.2424   -1.0396 O   0  0  0  0  0  0  0  0  0  0  0  0
   -2.5219    0.2808   -0.7062 H   0  0  0  0  0  0  0  0  0  0  0  0
   -2.2267   -1.4752   -0.3147 H   0  0  0  0  0  0  0  0  0  0  0  0
   -2.3972   -0.2440    1.0044 H   0  0  0  0  0  0  0  0  0  0  0  0
   -0.1490   -0.1300   -2.2174 H   0  0  0  0  0  0  0  0  0  0  0  0
    0.5052    2.0236   -1.2674 H   0  0  0  0  0  0  0  0  0  0  0  0
    1.9928    1.1153   -0.6038 H   0  0  0  0  0  0  0  0  0  0  0  0
   -0.5713    2.6077    0.7897 H   0  0  0  0  0  0  0  0  0  0  0  0
    0.0164   -0.9267    2.0092 H   0  0  0  0  0  0  0  0  0  0  0  0
    2.4433   -0.8016    0.4421 H   0  0  0  0  0  0  0  0  0  0  0  0
    1.4808   -2.3731    0.6249 H   0  0  0  0  0  0  0  0  0  0  0  0
  1  2  1  0
  2  3  1  0
  3  4  1  0
  4  5  1  0
  5  6  1  0
  5  7  1  0
  7  8  1  0
  8  9  1  0
  5  2  1  0
  7  2  1  0
  9  3  1  0
  1 10  1  0
  1 11  1  0
  1 12  1  0
  3 13  1  0
  4 14  1  0
  4 15  1  0
  6 16  1  0
  7 17  1  0
  8 18  1  0
  8 19  1  0
M  END
