
     RDKit          3D

 19 21  0  0  0  0  0  0  0  0999 V2000
   -1.7874   -0.5570   -0.7646 C   0  0  0  0  0  0  0  0  0  0  0  0
   -0.8471   -0.0135    0.2467 C   0  0  0  0  0  0  0  0  0  0  0  0
   -0.7618    1.5228    0.4182 C   0  0  0  0  0  0  0  0  0  0  0  0
    0.2825    0.8930   -0.3581 C   0  0  0  0  0  0  0  0  0  0  0  0
    1.5353    0.2769    0.2710 C   0  0  0  0  0  0  0  0  0  0  0  0
    2.5851    0.3999   -0.6442 O   0  0  0  0  0  0  0  0  0  0  0  0
    1.0901   -1.1533    0.2551 C   0  0  0  0  0  0  0  0  0  0  0  0
    0.5600   -1.9575    1.1275 O   0  0  0  0  0  0  0  0  0  0  0  0
   -0.1081   -0.8345    1.2067 C   0  0  0  0  0  0  0  0  0  0  0  0
   -1.3060   -0.7176   -1.7728 H   0  0  0  0  0  0  0  0  0  0  0  0
   -2.5819    0.2003   -0.9453 H   0  0  0  0  0  0  0  0  0  0  0  0
   -2.2800   -1.4892   -0.4957 H   0  0  0  0  0  0  0  0  0  0  0  0
   -1.5401    2.0647   -0.1086 H   0  0  0  0  0  0  0  0  0  0  0  0
   -0.6502    1.8237    1.4868 H   0  0  0  0  0  0  0  0  0  0  0  0
    0.2844    1.0139   -1.4423 H   0  0  0  0  0  0  0  0  0  0  0  0
    1.7565    0.6822    1.2546 H   0  0  0  0  0  0  0  0  0  0  0  0
    2.8110   -0.4657   -1.0797 H   0  0  0  0  0  0  0  0  0  0  0  0
    0.7914   -1.4157   -0.8094 H   0  0  0  0  0  0  0  0  0  0  0  0
    0.1663   -0.2732    2.1541 H   0  0  0  0  0  0  0  0  0  0  0  0
  1  2  1  0
  2  3  1  0
  3  4  1  0
  4  5  1  0
  5  6  1  0
  5  7  1  0
  7  8  1  0
  8  9  1  0
  4  2  1  0
  9  7  1  0
  9  2  1  0
  1 10  1  0
  1 11  1  0
  1 12  1  0
  3 13  1  0
  3 14  1  0
  4 15  1  0
  5 16  1  0
  6 17  1  0
  7 18  1  0
  9 19  1  0
M  END
