
     RDKit          3D

 19 21  0  0  0  0  0  0  0  0999 V2000
    2.4498   -0.3305    0.5630 C   0  0  0  0  0  0  0  0  0  0  0  0
    1.2483    0.4312    0.0313 C   0  0  0  0  0  0  0  0  0  0  0  0
    1.6275    1.4232   -0.8479 O   0  0  0  0  0  0  0  0  0  0  0  0
    0.9816    0.4022   -1.4915 C   0  0  0  0  0  0  0  0  0  0  0  0
   -0.4896    0.3919   -1.1632 C   0  0  0  0  0  0  0  0  0  0  0  0
   -1.7983    0.4701   -1.0715 C   0  0  0  0  0  0  0  0  0  0  0  0
   -2.3292   -0.0425    0.2248 C   0  0  0  0  0  0  0  0  0  0  0  0
   -1.0685    0.0132    1.1101 C   0  0  0  0  0  0  0  0  0  0  0  0
   -0.0284   -0.2626    0.1032 C   0  0  0  0  0  0  0  0  0  0  0  0
    2.8085   -1.0981   -0.1252 H   0  0  0  0  0  0  0  0  0  0  0  0
    3.2519    0.4250    0.7812 H   0  0  0  0  0  0  0  0  0  0  0  0
    2.1544   -0.7303    1.5624 H   0  0  0  0  0  0  0  0  0  0  0  0
    1.4406   -0.4143   -2.0141 H   0  0  0  0  0  0  0  0  0  0  0  0
   -2.4634    0.8582   -1.8310 H   0  0  0  0  0  0  0  0  0  0  0  0
   -2.6780   -1.0658    0.0911 H   0  0  0  0  0  0  0  0  0  0  0  0
   -3.0471    0.6449    0.6961 H   0  0  0  0  0  0  0  0  0  0  0  0
   -1.2063   -0.7460    1.8789 H   0  0  0  0  0  0  0  0  0  0  0  0
   -0.9366    0.9983    1.5618 H   0  0  0  0  0  0  0  0  0  0  0  0
    0.0827   -1.3679   -0.0597 H   0  0  0  0  0  0  0  0  0  0  0  0
  1  2  1  0
  2  3  1  0
  3  4  1  0
  4  5  1  0
  5  6  2  0
  6  7  1  0
  7  8  1  0
  8  9  1  0
  4  2  1  0
  9  5  1  0
  9  2  1  0
  1 10  1  0
  1 11  1  0
  1 12  1  0
  4 13  1  0
  6 14  1  0
  7 15  1  0
  7 16  1  0
  8 17  1  0
  8 18  1  0
  9 19  1  0
M  END
