
     RDKit          3D

 21 23  0  0  0  0  0  0  0  0999 V2000
   -2.0352    0.6907   -0.2910 C   0  0  0  0  0  0  0  0  0  0  0  0
   -0.9552   -0.2264    0.1321 C   0  0  0  0  0  0  0  0  0  0  0  0
   -1.0691   -1.6288   -0.2389 C   0  0  0  0  0  0  0  0  0  0  0  0
    0.0772   -0.7704   -0.8601 C   0  0  0  0  0  0  0  0  0  0  0  0
    1.3495   -0.7363   -0.1472 C   0  0  0  0  0  0  0  0  0  0  0  0
    2.3634    0.2426    0.0508 C   0  0  0  0  0  0  0  0  0  0  0  0
    1.1012    0.7289    0.4101 C   0  0  0  0  0  0  0  0  0  0  0  0
    0.5564    1.6392   -0.5411 O   0  0  0  0  0  0  0  0  0  0  0  0
   -0.0245    0.2499    1.2622 C   0  0  0  0  0  0  0  0  0  0  0  0
   -2.6934    0.8336    0.6175 H   0  0  0  0  0  0  0  0  0  0  0  0
   -2.7014    0.1754   -1.0208 H   0  0  0  0  0  0  0  0  0  0  0  0
   -1.7558    1.6375   -0.7445 H   0  0  0  0  0  0  0  0  0  0  0  0
   -0.7156   -2.3720    0.5279 H   0  0  0  0  0  0  0  0  0  0  0  0
   -1.8860   -1.9245   -0.8829 H   0  0  0  0  0  0  0  0  0  0  0  0
   -0.0623   -0.5922   -1.9256 H   0  0  0  0  0  0  0  0  0  0  0  0
    1.4045   -1.5469    0.6484 H   0  0  0  0  0  0  0  0  0  0  0  0
    3.1314    0.1459    0.8683 H   0  0  0  0  0  0  0  0  0  0  0  0
    2.8908    0.6014   -0.8670 H   0  0  0  0  0  0  0  0  0  0  0  0
    1.2996    2.3100   -0.6622 H   0  0  0  0  0  0  0  0  0  0  0  0
    0.2335   -0.5699    1.9318 H   0  0  0  0  0  0  0  0  0  0  0  0
   -0.5087    1.1125    1.7321 H   0  0  0  0  0  0  0  0  0  0  0  0
  1  2  1  0
  2  3  1  0
  3  4  1  0
  4  5  1  0
  5  6  1  0
  6  7  1  0
  7  8  1  0
  7  9  1  0
  4  2  1  0
  7  5  1  0
  9  2  1  0
  1 10  1  0
  1 11  1  0
  1 12  1  0
  3 13  1  0
  3 14  1  0
  4 15  1  0
  5 16  1  0
  6 17  1  0
  6 18  1  0
  8 19  1  0
  9 20  1  0
  9 21  1  0
M  END
