
     RDKit          3D

 19 21  0  0  0  0  0  0  0  0999 V2000
   -0.1055   -2.0498    0.1833 C   0  0  0  0  0  0  0  0  0  0  0  0
   -0.3596   -0.6204   -0.1176 C   0  0  0  0  0  0  0  0  0  0  0  0
   -1.5485   -0.3498   -0.8025 O   0  0  0  0  0  0  0  0  0  0  0  0
   -1.9529    0.9208   -0.5049 C   0  0  0  0  0  0  0  0  0  0  0  0
   -0.7386    1.6366    0.1069 C   0  0  0  0  0  0  0  0  0  0  0  0
    0.3248    1.6225   -0.7941 O   0  0  0  0  0  0  0  0  0  0  0  0
    0.7270    0.3426   -0.4254 C   0  0  0  0  0  0  0  0  0  0  0  0
    2.1662    0.0221   -0.2208 C   0  0  0  0  0  0  0  0  0  0  0  0
   -0.0940    0.4787    0.7946 C   0  0  0  0  0  0  0  0  0  0  0  0
    0.4795   -2.5157   -0.6103 H   0  0  0  0  0  0  0  0  0  0  0  0
    0.3525   -2.1875    1.2037 H   0  0  0  0  0  0  0  0  0  0  0  0
   -1.0914   -2.5776    0.2452 H   0  0  0  0  0  0  0  0  0  0  0  0
   -2.7227    0.8786    0.3186 H   0  0  0  0  0  0  0  0  0  0  0  0
   -2.3380    1.4996   -1.3745 H   0  0  0  0  0  0  0  0  0  0  0  0
   -0.9400    2.5385    0.6513 H   0  0  0  0  0  0  0  0  0  0  0  0
    2.7975    0.2910   -1.1011 H   0  0  0  0  0  0  0  0  0  0  0  0
    2.5308    0.6502    0.6368 H   0  0  0  0  0  0  0  0  0  0  0  0
    2.2632   -1.0431    0.0125 H   0  0  0  0  0  0  0  0  0  0  0  0
    0.2496    0.4628    1.7982 H   0  0  0  0  0  0  0  0  0  0  0  0
  1  2  1  0
  2  3  1  0
  3  4  1  0
  4  5  1  0
  5  6  1  0
  6  7  1  0
  7  8  1  0
  7  9  1  0
  7  2  1  0
  9  2  1  0
  9  5  1  0
  1 10  1  0
  1 11  1  0
  1 12  1  0
  4 13  1  0
  4 14  1  0
  5 15  1  0
  8 16  1  0
  8 17  1  0
  8 18  1  0
  9 19  1  0
M  END
