
     RDKit          3D

 19 20  0  0  0  0  0  0  0  0999 V2000
   -1.4680   -1.3224    0.4967 C   0  0  0  0  0  0  0  0  0  0  0  0
   -0.7401   -0.2729   -0.3355 C   0  0  0  0  0  0  0  0  0  0  0  0
    0.1911   -0.8582   -1.3291 C   0  0  0  0  0  0  0  0  0  0  0  0
    1.4339   -0.4448   -1.1091 C   0  0  0  0  0  0  0  0  0  0  0  0
    1.4530    0.4674    0.0668 C   0  0  0  0  0  0  0  0  0  0  0  0
    2.1617   -0.1775    1.0896 O   0  0  0  0  0  0  0  0  0  0  0  0
    0.0507    0.6487    0.5274 C   0  0  0  0  0  0  0  0  0  0  0  0
   -0.7603    1.7149   -0.1209 C   0  0  0  0  0  0  0  0  0  0  0  0
   -1.5400    0.7600   -0.7876 O   0  0  0  0  0  0  0  0  0  0  0  0
   -0.7784   -1.5887    1.3301 H   0  0  0  0  0  0  0  0  0  0  0  0
   -1.6060   -2.2164   -0.1126 H   0  0  0  0  0  0  0  0  0  0  0  0
   -2.3906   -0.8636    0.8510 H   0  0  0  0  0  0  0  0  0  0  0  0
   -0.1206   -1.5244   -2.1125 H   0  0  0  0  0  0  0  0  0  0  0  0
    2.3016   -0.7061   -1.6673 H   0  0  0  0  0  0  0  0  0  0  0  0
    1.9768    1.4246   -0.1756 H   0  0  0  0  0  0  0  0  0  0  0  0
    1.6186   -0.2685    1.9198 H   0  0  0  0  0  0  0  0  0  0  0  0
   -0.0956    0.5533    1.6194 H   0  0  0  0  0  0  0  0  0  0  0  0
   -0.2555    2.4354   -0.7655 H   0  0  0  0  0  0  0  0  0  0  0  0
   -1.4321    2.2392    0.6150 H   0  0  0  0  0  0  0  0  0  0  0  0
  1  2  1  0
  2  3  1  0
  3  4  2  0
  4  5  1  0
  5  6  1  0
  5  7  1  0
  7  8  1  0
  8  9  1  0
  7  2  1  0
  9  2  1  0
  1 10  1  0
  1 11  1  0
  1 12  1  0
  3 13  1  0
  4 14  1  0
  5 15  1  0
  6 16  1  0
  7 17  1  0
  8 18  1  0
  8 19  1  0
M  END
