
     RDKit          3D

 19 20  0  0  0  0  0  0  0  0999 V2000
   -1.2522    1.3497    0.3933 C   0  0  0  0  0  0  0  0  0  0  0  0
   -0.9295    0.0104   -0.1917 C   0  0  0  0  0  0  0  0  0  0  0  0
   -1.8886   -1.0711   -0.3992 C   0  0  0  0  0  0  0  0  0  0  0  0
   -1.1437   -1.1453    0.8391 C   0  0  0  0  0  0  0  0  0  0  0  0
    0.2285   -1.0691    0.9851 O   0  0  0  0  0  0  0  0  0  0  0  0
    0.5055   -0.5003   -0.2288 C   0  0  0  0  0  0  0  0  0  0  0  0
    1.5585    0.5179   -0.3552 C   0  0  0  0  0  0  0  0  0  0  0  0
    2.9064   -0.0982   -0.3890 C   0  0  0  0  0  0  0  0  0  0  0  0
    3.6726    0.0566    0.5525 O   0  0  0  0  0  0  0  0  0  0  0  0
   -1.6681    2.0598   -0.3543 H   0  0  0  0  0  0  0  0  0  0  0  0
   -0.4253    1.8012    0.9773 H   0  0  0  0  0  0  0  0  0  0  0  0
   -2.0890    1.2041    1.1461 H   0  0  0  0  0  0  0  0  0  0  0  0
   -1.6718   -1.8010   -1.2363 H   0  0  0  0  0  0  0  0  0  0  0  0
   -2.9387   -0.7862   -0.3772 H   0  0  0  0  0  0  0  0  0  0  0  0
   -1.6979   -0.9012    1.7687 H   0  0  0  0  0  0  0  0  0  0  0  0
    0.6142   -1.3083   -1.0066 H   0  0  0  0  0  0  0  0  0  0  0  0
    1.4330    1.0601   -1.3228 H   0  0  0  0  0  0  0  0  0  0  0  0
    1.5307    1.3145    0.4286 H   0  0  0  0  0  0  0  0  0  0  0  0
    3.2554   -0.6934   -1.2297 H   0  0  0  0  0  0  0  0  0  0  0  0
  1  2  1  0
  2  3  1  0
  3  4  1  0
  4  5  1  0
  5  6  1  0
  6  7  1  0
  7  8  1  0
  8  9  2  0
  4  2  1  0
  6  2  1  0
  1 10  1  0
  1 11  1  0
  1 12  1  0
  3 13  1  0
  3 14  1  0
  4 15  1  0
  6 16  1  0
  7 17  1  0
  7 18  1  0
  8 19  1  0
M  END
