
     RDKit          3D

 17 19  0  0  0  0  0  0  0  0999 V2000
   -1.8066   -0.7212    0.2554 C   0  0  0  0  0  0  0  0  0  0  0  0
   -0.4660   -0.2169    0.1096 C   0  0  0  0  0  0  0  0  0  0  0  0
   -0.2384    1.0225   -0.7704 C   0  0  0  0  0  0  0  0  0  0  0  0
    1.0266    1.1159    0.0986 C   0  0  0  0  0  0  0  0  0  0  0  0
    0.1712    0.5806    1.1772 C   0  0  0  0  0  0  0  0  0  0  0  0
    0.0454    0.7194    2.3562 O   0  0  0  0  0  0  0  0  0  0  0  0
    1.7942   -0.0840   -0.3789 C   0  0  0  0  0  0  0  0  0  0  0  0
    1.3680   -0.7469   -1.5083 O   0  0  0  0  0  0  0  0  0  0  0  0
    0.6428   -1.1084   -0.3948 C   0  0  0  0  0  0  0  0  0  0  0  0
   -2.5836   -0.3187   -0.4253 H   0  0  0  0  0  0  0  0  0  0  0  0
   -2.1851   -0.6169    1.3144 H   0  0  0  0  0  0  0  0  0  0  0  0
   -1.8244   -1.8374    0.0813 H   0  0  0  0  0  0  0  0  0  0  0  0
   -0.8833    1.8681   -0.5355 H   0  0  0  0  0  0  0  0  0  0  0  0
   -0.0505    0.7763   -1.8152 H   0  0  0  0  0  0  0  0  0  0  0  0
    1.4919    2.0589    0.1910 H   0  0  0  0  0  0  0  0  0  0  0  0
    2.6988   -0.4179    0.1470 H   0  0  0  0  0  0  0  0  0  0  0  0
    0.7990   -2.0734    0.0979 H   0  0  0  0  0  0  0  0  0  0  0  0
  1  2  1  0
  2  3  1  0
  3  4  1  0
  4  5  1  0
  5  6  2  0
  4  7  1  0
  7  8  1  0
  8  9  1  0
  5  2  1  0
  9  7  1  0
  9  2  1  0
  1 10  1  0
  1 11  1  0
  1 12  1  0
  3 13  1  0
  3 14  1  0
  4 15  1  0
  7 16  1  0
  9 17  1  0
M  END
