
     RDKit          3D

 19 20  0  0  0  0  0  0  0  0999 V2000
   -0.5359   -1.4438   -0.7615 C   0  0  0  0  0  0  0  0  0  0  0  0
   -0.5739   -0.4294    0.3317 C   0  0  0  0  0  0  0  0  0  0  0  0
   -0.4952   -0.8483    1.7702 C   0  0  0  0  0  0  0  0  0  0  0  0
    0.4942    0.1380    1.9686 O   0  0  0  0  0  0  0  0  0  0  0  0
    0.5068    0.4949    0.6268 C   0  0  0  0  0  0  0  0  0  0  0  0
    1.7993    0.5541   -0.0968 C   0  0  0  0  0  0  0  0  0  0  0  0
   -0.7620    1.0140    0.0741 C   0  0  0  0  0  0  0  0  0  0  0  0
   -0.8439    1.5663   -1.2819 C   0  0  0  0  0  0  0  0  0  0  0  0
   -0.1954    1.0888   -2.2023 O   0  0  0  0  0  0  0  0  0  0  0  0
    0.4295   -1.5298   -1.2797 H   0  0  0  0  0  0  0  0  0  0  0  0
   -1.3070   -1.2801   -1.5511 H   0  0  0  0  0  0  0  0  0  0  0  0
   -0.7279   -2.4449   -0.2927 H   0  0  0  0  0  0  0  0  0  0  0  0
   -0.0759   -1.8563    1.8653 H   0  0  0  0  0  0  0  0  0  0  0  0
   -1.4321   -0.6498    2.3203 H   0  0  0  0  0  0  0  0  0  0  0  0
    2.0116    1.5052   -0.6019 H   0  0  0  0  0  0  0  0  0  0  0  0
    2.6243    0.4213    0.6603 H   0  0  0  0  0  0  0  0  0  0  0  0
    1.9589   -0.2517   -0.8380 H   0  0  0  0  0  0  0  0  0  0  0  0
   -1.4048    1.5412    0.8251 H   0  0  0  0  0  0  0  0  0  0  0  0
   -1.4707    2.4102   -1.5365 H   0  0  0  0  0  0  0  0  0  0  0  0
  1  2  1  0
  2  3  1  0
  3  4  1  0
  4  5  1  0
  5  6  1  0
  5  7  1  0
  7  8  1  0
  8  9  2  0
  5  2  1  0
  7  2  1  0
  1 10  1  0
  1 11  1  0
  1 12  1  0
  3 13  1  0
  3 14  1  0
  6 15  1  0
  6 16  1  0
  6 17  1  0
  7 18  1  0
  8 19  1  0
M  END
