
     RDKit          3D

 23 24  0  0  0  0  0  0  0  0999 V2000
   -2.3373    0.7945    0.4591 C   0  0  0  0  0  0  0  0  0  0  0  0
   -1.0146    0.2020   -0.0520 C   0  0  0  0  0  0  0  0  0  0  0  0
    0.0361    1.1781   -0.3419 C   0  0  0  0  0  0  0  0  0  0  0  0
    1.2390    1.1019    0.5702 C   0  0  0  0  0  0  0  0  0  0  0  0
    2.2303    0.1748   -0.1001 C   0  0  0  0  0  0  0  0  0  0  0  0
    1.8491   -1.2044    0.2411 C   0  0  0  0  0  0  0  0  0  0  0  0
    0.6136   -1.6733    0.3510 C   0  0  0  0  0  0  0  0  0  0  0  0
   -0.7318   -1.1593    0.2156 C   0  0  0  0  0  0  0  0  0  0  0  0
   -1.2300   -0.8466   -1.1866 C   0  0  0  0  0  0  0  0  0  0  0  0
   -2.4199    1.8599    0.2384 H   0  0  0  0  0  0  0  0  0  0  0  0
   -3.2012    0.2235    0.0596 H   0  0  0  0  0  0  0  0  0  0  0  0
   -2.3065    0.7062    1.5819 H   0  0  0  0  0  0  0  0  0  0  0  0
    0.4218    1.1085   -1.3963 H   0  0  0  0  0  0  0  0  0  0  0  0
   -0.3437    2.2261   -0.2613 H   0  0  0  0  0  0  0  0  0  0  0  0
    1.7050    2.1196    0.6738 H   0  0  0  0  0  0  0  0  0  0  0  0
    0.9733    0.7732    1.5935 H   0  0  0  0  0  0  0  0  0  0  0  0
    3.2804    0.4039    0.1706 H   0  0  0  0  0  0  0  0  0  0  0  0
    2.1536    0.3540   -1.2101 H   0  0  0  0  0  0  0  0  0  0  0  0
    2.6717   -1.8906    0.4165 H   0  0  0  0  0  0  0  0  0  0  0  0
    0.6562   -2.7499    0.6171 H   0  0  0  0  0  0  0  0  0  0  0  0
   -1.5176   -1.7309    0.8001 H   0  0  0  0  0  0  0  0  0  0  0  0
   -0.4698   -0.9031   -1.9649 H   0  0  0  0  0  0  0  0  0  0  0  0
   -2.2574   -1.0680   -1.4753 H   0  0  0  0  0  0  0  0  0  0  0  0
  1  2  1  0
  2  3  1  0
  3  4  1  0
  4  5  1  0
  5  6  1  0
  6  7  2  0
  7  8  1  0
  8  9  1  0
  8  2  1  0
  9  2  1  0
  1 10  1  0
  1 11  1  0
  1 12  1  0
  3 13  1  0
  3 14  1  0
  4 15  1  0
  4 16  1  0
  5 17  1  0
  5 18  1  0
  6 19  1  0
  7 20  1  0
  8 21  1  0
  9 22  1  0
  9 23  1  0
M  END
