
     RDKit          3D

 21 22  0  0  0  0  0  0  0  0999 V2000
   -0.9748   -1.7165   -0.2613 C   0  0  0  0  0  0  0  0  0  0  0  0
   -0.6687   -0.3305    0.1330 C   0  0  0  0  0  0  0  0  0  0  0  0
   -1.7405    0.5510    0.7210 C   0  0  0  0  0  0  0  0  0  0  0  0
   -1.2615    1.6598   -0.1850 C   0  0  0  0  0  0  0  0  0  0  0  0
   -0.1939    0.7423   -0.6940 C   0  0  0  0  0  0  0  0  0  0  0  0
    0.7249    0.1728    0.3085 C   0  0  0  0  0  0  0  0  0  0  0  0
    0.9551    0.8131    1.5323 O   0  0  0  0  0  0  0  0  0  0  0  0
    1.8925   -0.6669   -0.1483 C   0  0  0  0  0  0  0  0  0  0  0  0
    3.0342    0.1066   -0.3117 O   0  0  0  0  0  0  0  0  0  0  0  0
   -0.4979   -2.4214    0.4785 H   0  0  0  0  0  0  0  0  0  0  0  0
   -2.0764   -1.8770   -0.1802 H   0  0  0  0  0  0  0  0  0  0  0  0
   -0.6800   -1.9953   -1.2909 H   0  0  0  0  0  0  0  0  0  0  0  0
   -1.5337    0.7936    1.7662 H   0  0  0  0  0  0  0  0  0  0  0  0
   -2.7607    0.1918    0.5544 H   0  0  0  0  0  0  0  0  0  0  0  0
   -2.0685    1.9133   -0.9058 H   0  0  0  0  0  0  0  0  0  0  0  0
   -0.8404    2.5400    0.3106 H   0  0  0  0  0  0  0  0  0  0  0  0
    0.0465    0.6954   -1.7677 H   0  0  0  0  0  0  0  0  0  0  0  0
    1.2276    1.7419    1.4382 H   0  0  0  0  0  0  0  0  0  0  0  0
    2.0985   -1.5000    0.5417 H   0  0  0  0  0  0  0  0  0  0  0  0
    1.6194   -1.1018   -1.1386 H   0  0  0  0  0  0  0  0  0  0  0  0
    3.6983   -0.3123   -0.9009 H   0  0  0  0  0  0  0  0  0  0  0  0
  1  2  1  0
  2  3  1  0
  3  4  1  0
  4  5  1  0
  5  6  1  0
  6  7  1  0
  6  8  1  0
  8  9  1  0
  5  2  1  0
  6  2  1  0
  1 10  1  0
  1 11  1  0
  1 12  1  0
  3 13  1  0
  3 14  1  0
  4 15  1  0
  4 16  1  0
  5 17  1  0
  7 18  1  0
  8 19  1  0
  8 20  1  0
  9 21  1  0
M  END
