
     RDKit          3D

 19 20  0  0  0  0  0  0  0  0999 V2000
    2.4162   -0.3597   -0.0623 C   0  0  0  0  0  0  0  0  0  0  0  0
    1.0195   -0.1868   -0.3612 C   0  0  0  0  0  0  0  0  0  0  0  0
    0.2699    0.9986    0.2581 C   0  0  0  0  0  0  0  0  0  0  0  0
   -0.9407    0.1203   -0.0751 C   0  0  0  0  0  0  0  0  0  0  0  0
   -2.1777    0.3317    0.6065 C   0  0  0  0  0  0  0  0  0  0  0  0
   -0.0194   -1.0246    0.3653 C   0  0  0  0  0  0  0  0  0  0  0  0
   -0.8195    0.0402   -1.5217 C   0  0  0  0  0  0  0  0  0  0  0  0
   -1.7488    0.1316   -2.3532 O   0  0  0  0  0  0  0  0  0  0  0  0
    0.5531   -0.1560   -1.6913 O   0  0  0  0  0  0  0  0  0  0  0  0
    2.9464   -0.8293   -0.9129 H   0  0  0  0  0  0  0  0  0  0  0  0
    2.9032    0.6478    0.0832 H   0  0  0  0  0  0  0  0  0  0  0  0
    2.5562   -0.9477    0.8689 H   0  0  0  0  0  0  0  0  0  0  0  0
    0.3306    1.9248   -0.3456 H   0  0  0  0  0  0  0  0  0  0  0  0
    0.4335    1.1127    1.3425 H   0  0  0  0  0  0  0  0  0  0  0  0
   -3.0458    0.0249   -0.0031 H   0  0  0  0  0  0  0  0  0  0  0  0
   -2.2034   -0.2084    1.5757 H   0  0  0  0  0  0  0  0  0  0  0  0
   -2.3365    1.4044    0.8539 H   0  0  0  0  0  0  0  0  0  0  0  0
    0.1053   -1.0318    1.4620 H   0  0  0  0  0  0  0  0  0  0  0  0
   -0.2421   -1.9926   -0.0894 H   0  0  0  0  0  0  0  0  0  0  0  0
  1  2  1  0
  2  3  1  0
  3  4  1  0
  4  5  1  0
  4  6  1  0
  4  7  1  0
  7  8  2  0
  7  9  1  0
  6  2  1  0
  9  2  1  0
  1 10  1  0
  1 11  1  0
  1 12  1  0
  3 13  1  0
  3 14  1  0
  5 15  1  0
  5 16  1  0
  5 17  1  0
  6 18  1  0
  6 19  1  0
M  END
