
     RDKit          3D

 19 21  0  0  0  0  0  0  0  0999 V2000
    2.0193   -0.6682    0.2644 C   0  0  0  0  0  0  0  0  0  0  0  0
    0.7121   -0.0248    0.2779 C   0  0  0  0  0  0  0  0  0  0  0  0
    0.6117    1.4616    0.1215 C   0  0  0  0  0  0  0  0  0  0  0  0
   -0.6443    1.1748    0.8774 C   0  0  0  0  0  0  0  0  0  0  0  0
    0.0707    0.1408    1.5248 O   0  0  0  0  0  0  0  0  0  0  0  0
   -1.5318    0.3615   -0.0488 C   0  0  0  0  0  0  0  0  0  0  0  0
   -1.5648   -1.1330    0.0919 C   0  0  0  0  0  0  0  0  0  0  0  0
   -0.3952   -0.5866   -0.5762 C   0  0  0  0  0  0  0  0  0  0  0  0
   -0.1899   -0.5940   -1.9320 O   0  0  0  0  0  0  0  0  0  0  0  0
    2.8830    0.0139    0.2671 H   0  0  0  0  0  0  0  0  0  0  0  0
    2.0987   -1.3300   -0.6485 H   0  0  0  0  0  0  0  0  0  0  0  0
    2.1065   -1.3857    1.1233 H   0  0  0  0  0  0  0  0  0  0  0  0
    1.3146    2.0380    0.7280 H   0  0  0  0  0  0  0  0  0  0  0  0
    0.4763    1.8316   -0.9122 H   0  0  0  0  0  0  0  0  0  0  0  0
   -1.0929    1.9210    1.4897 H   0  0  0  0  0  0  0  0  0  0  0  0
   -2.1195    0.8520   -0.8234 H   0  0  0  0  0  0  0  0  0  0  0  0
   -2.3794   -1.6194   -0.4708 H   0  0  0  0  0  0  0  0  0  0  0  0
   -1.4061   -1.5938    1.0923 H   0  0  0  0  0  0  0  0  0  0  0  0
   -0.9691   -0.8597   -2.4466 H   0  0  0  0  0  0  0  0  0  0  0  0
  1  2  1  0
  2  3  1  0
  3  4  1  0
  4  5  1  0
  4  6  1  0
  6  7  1  0
  7  8  1  0
  8  9  1  0
  5  2  1  0
  8  6  1  0
  8  2  1  0
  1 10  1  0
  1 11  1  0
  1 12  1  0
  3 13  1  0
  3 14  1  0
  4 15  1  0
  6 16  1  0
  7 17  1  0
  7 18  1  0
  9 19  1  0
M  END
