
     RDKit          3D

 18 19  0  0  0  0  0  0  0  0999 V2000
   -1.3098   -1.5008   -0.0112 C   0  0  0  0  0  0  0  0  0  0  0  0
   -0.4798   -0.2867   -0.1467 C   0  0  0  0  0  0  0  0  0  0  0  0
    0.6593   -0.2089   -1.1121 C   0  0  0  0  0  0  0  0  0  0  0  0
    1.4599    0.5948   -0.0914 C   0  0  0  0  0  0  0  0  0  0  0  0
    2.7043    0.1105    0.1991 O   0  0  0  0  0  0  0  0  0  0  0  0
    0.3665    0.2786    0.9077 C   0  0  0  0  0  0  0  0  0  0  0  0
   -0.9311    0.9280    0.6042 C   0  0  0  0  0  0  0  0  0  0  0  0
   -0.9254    2.0987   -0.1669 O   0  0  0  0  0  0  0  0  0  0  0  0
   -0.9623   -2.1366    0.8236 H   0  0  0  0  0  0  0  0  0  0  0  0
   -2.3659   -1.1715    0.2189 H   0  0  0  0  0  0  0  0  0  0  0  0
   -1.4046   -2.0921   -0.9486 H   0  0  0  0  0  0  0  0  0  0  0  0
    0.4587    0.3169   -2.0601 H   0  0  0  0  0  0  0  0  0  0  0  0
    1.1894   -1.1910   -1.2515 H   0  0  0  0  0  0  0  0  0  0  0  0
    1.4446    1.6786   -0.3920 H   0  0  0  0  0  0  0  0  0  0  0  0
    2.9532   -0.5690   -0.4714 H   0  0  0  0  0  0  0  0  0  0  0  0
    0.5666   -0.2962    1.8021 H   0  0  0  0  0  0  0  0  0  0  0  0
   -1.7131    0.7846    1.3463 H   0  0  0  0  0  0  0  0  0  0  0  0
   -1.7103    2.6618    0.0068 H   0  0  0  0  0  0  0  0  0  0  0  0
  1  2  1  0
  2  3  1  0
  3  4  1  0
  4  5  1  0
  4  6  1  0
  6  7  1  0
  7  8  1  0
  6  2  1  0
  7  2  1  0
  1  9  1  0
  1 10  1  0
  1 11  1  0
  3 12  1  0
  3 13  1  0
  4 14  1  0
  5 15  1  0
  6 16  1  0
  7 17  1  0
  8 18  1  0
M  END
