
     RDKit          3D

 19 21  0  0  0  0  0  0  0  0999 V2000
    1.9400   -0.5639    0.6438 C   0  0  0  0  0  0  0  0  0  0  0  0
    0.9348   -0.3151   -0.4352 C   0  0  0  0  0  0  0  0  0  0  0  0
    1.4033   -0.0524   -1.7148 O   0  0  0  0  0  0  0  0  0  0  0  0
    0.8949    1.0682   -1.0967 C   0  0  0  0  0  0  0  0  0  0  0  0
   -0.6044    1.1383   -0.8020 C   0  0  0  0  0  0  0  0  0  0  0  0
   -0.8745    2.2598   -0.0593 O   0  0  0  0  0  0  0  0  0  0  0  0
   -0.5117   -0.1632   -0.1473 C   0  0  0  0  0  0  0  0  0  0  0  0
   -1.2083   -0.6410    1.0130 C   0  0  0  0  0  0  0  0  0  0  0  0
   -1.4912   -1.2469   -0.3316 C   0  0  0  0  0  0  0  0  0  0  0  0
    2.5832    0.3182    0.8609 H   0  0  0  0  0  0  0  0  0  0  0  0
    1.4222   -0.8955    1.5711 H   0  0  0  0  0  0  0  0  0  0  0  0
    2.5954   -1.4057    0.3089 H   0  0  0  0  0  0  0  0  0  0  0  0
    1.5520    1.8536   -0.6998 H   0  0  0  0  0  0  0  0  0  0  0  0
   -1.2446    1.1151   -1.7093 H   0  0  0  0  0  0  0  0  0  0  0  0
   -1.1627    2.1108    0.8539 H   0  0  0  0  0  0  0  0  0  0  0  0
   -0.6778   -1.2845    1.7547 H   0  0  0  0  0  0  0  0  0  0  0  0
   -2.0458   -0.0727    1.4663 H   0  0  0  0  0  0  0  0  0  0  0  0
   -1.0764   -2.2304   -0.6089 H   0  0  0  0  0  0  0  0  0  0  0  0
   -2.4285   -0.9926   -0.8677 H   0  0  0  0  0  0  0  0  0  0  0  0
  1  2  1  0
  2  3  1  0
  3  4  1  0
  4  5  1  0
  5  6  1  0
  5  7  1  0
  7  8  1  0
  8  9  1  0
  4  2  1  0
  9  7  1  0
  7  2  1  0
  1 10  1  0
  1 11  1  0
  1 12  1  0
  4 13  1  0
  5 14  1  0
  6 15  1  0
  8 16  1  0
  8 17  1  0
  9 18  1  0
  9 19  1  0
M  END
