
     RDKit          3D

 23 25  0  0  0  0  0  0  0  0999 V2000
   -1.6096   -0.7028   -1.2343 C   0  0  0  0  0  0  0  0  0  0  0  0
   -0.6424   -0.2098   -0.2684 C   0  0  0  0  0  0  0  0  0  0  0  0
    0.3088   -1.1470    0.3861 C   0  0  0  0  0  0  0  0  0  0  0  0
    1.6373   -0.7570   -0.1524 C   0  0  0  0  0  0  0  0  0  0  0  0
    1.4930    0.5755   -0.8410 C   0  0  0  0  0  0  0  0  0  0  0  0
    0.0893    1.0364   -0.6493 C   0  0  0  0  0  0  0  0  0  0  0  0
   -0.2663    1.6398    0.6679 C   0  0  0  0  0  0  0  0  0  0  0  0
   -1.0013    0.3688    1.0174 C   0  0  0  0  0  0  0  0  0  0  0  0
   -0.0845   -0.5871    1.7217 C   0  0  0  0  0  0  0  0  0  0  0  0
   -2.6021   -0.2439   -1.2524 H   0  0  0  0  0  0  0  0  0  0  0  0
   -1.1884   -0.5584   -2.2742 H   0  0  0  0  0  0  0  0  0  0  0  0
   -1.6920   -1.8267   -1.1439 H   0  0  0  0  0  0  0  0  0  0  0  0
   -0.0120   -2.1997    0.2417 H   0  0  0  0  0  0  0  0  0  0  0  0
    1.9379   -1.5426   -0.9039 H   0  0  0  0  0  0  0  0  0  0  0  0
    2.4248   -0.6380    0.6204 H   0  0  0  0  0  0  0  0  0  0  0  0
    1.6422    0.4315   -1.9520 H   0  0  0  0  0  0  0  0  0  0  0  0
    2.2349    1.3189   -0.5296 H   0  0  0  0  0  0  0  0  0  0  0  0
   -0.3824    1.5873   -1.4851 H   0  0  0  0  0  0  0  0  0  0  0  0
    0.5938    1.8294    1.3576 H   0  0  0  0  0  0  0  0  0  0  0  0
   -0.9902    2.4841    0.6530 H   0  0  0  0  0  0  0  0  0  0  0  0
   -2.0202    0.4500    1.3514 H   0  0  0  0  0  0  0  0  0  0  0  0
    0.7560   -0.0733    2.2647 H   0  0  0  0  0  0  0  0  0  0  0  0
   -0.6266   -1.2354    2.4045 H   0  0  0  0  0  0  0  0  0  0  0  0
  1  2  1  0
  2  3  1  0
  3  4  1  0
  4  5  1  0
  5  6  1  0
  6  7  1  0
  7  8  1  0
  8  9  1  0
  6  2  1  0
  8  2  1  0
  9  3  1  0
  1 10  1  0
  1 11  1  0
  1 12  1  0
  3 13  1  0
  4 14  1  0
  4 15  1  0
  5 16  1  0
  5 17  1  0
  6 18  1  0
  7 19  1  0
  7 20  1  0
  8 21  1  0
  9 22  1  0
  9 23  1  0
M  END
