
     RDKit          3D

 19 20  0  0  0  0  0  0  0  0999 V2000
   -1.2687    1.4876    0.3663 C   0  0  0  0  0  0  0  0  0  0  0  0
   -0.4455    0.3339   -0.1041 C   0  0  0  0  0  0  0  0  0  0  0  0
    0.6230    0.6205   -1.0946 C   0  0  0  0  0  0  0  0  0  0  0  0
    1.8715    0.2266   -0.9039 C   0  0  0  0  0  0  0  0  0  0  0  0
    2.1643   -0.5201    0.3515 C   0  0  0  0  0  0  0  0  0  0  0  0
    1.1123   -1.3415    0.6713 O   0  0  0  0  0  0  0  0  0  0  0  0
   -0.0873   -0.7178    0.8594 C   0  0  0  0  0  0  0  0  0  0  0  0
   -1.1583   -1.0003   -0.1903 C   0  0  0  0  0  0  0  0  0  0  0  0
   -2.4840   -1.0422    0.2009 O   0  0  0  0  0  0  0  0  0  0  0  0
   -1.4084    1.4201    1.4637 H   0  0  0  0  0  0  0  0  0  0  0  0
   -0.7968    2.4616    0.1124 H   0  0  0  0  0  0  0  0  0  0  0  0
   -2.2853    1.4430   -0.0854 H   0  0  0  0  0  0  0  0  0  0  0  0
    0.3989    1.1649   -2.0053 H   0  0  0  0  0  0  0  0  0  0  0  0
    2.6126    0.4566   -1.6487 H   0  0  0  0  0  0  0  0  0  0  0  0
    2.3388    0.2414    1.1617 H   0  0  0  0  0  0  0  0  0  0  0  0
    3.0659   -1.1323    0.2103 H   0  0  0  0  0  0  0  0  0  0  0  0
   -0.4053   -0.6301    1.9210 H   0  0  0  0  0  0  0  0  0  0  0  0
   -0.8598   -1.6937   -1.0231 H   0  0  0  0  0  0  0  0  0  0  0  0
   -2.9880   -1.7783   -0.2632 H   0  0  0  0  0  0  0  0  0  0  0  0
  1  2  1  0
  2  3  1  0
  3  4  2  0
  4  5  1  0
  5  6  1  0
  6  7  1  0
  7  8  1  0
  8  9  1  0
  7  2  1  0
  8  2  1  0
  1 10  1  0
  1 11  1  0
  1 12  1  0
  3 13  1  0
  4 14  1  0
  5 15  1  0
  5 16  1  0
  7 17  1  0
  8 18  1  0
  9 19  1  0
M  END
