
     RDKit          3D

 21 22  0  0  0  0  0  0  0  0999 V2000
   -1.8654   -0.1230    0.8635 C   0  0  0  0  0  0  0  0  0  0  0  0
   -0.6324   -0.0509    0.0052 C   0  0  0  0  0  0  0  0  0  0  0  0
    0.0593    1.2434    0.1101 C   0  0  0  0  0  0  0  0  0  0  0  0
    1.5295    1.2327    0.0149 C   0  0  0  0  0  0  0  0  0  0  0  0
    2.0916    0.0694   -0.4615 O   0  0  0  0  0  0  0  0  0  0  0  0
    1.6409   -0.9864    0.3296 C   0  0  0  0  0  0  0  0  0  0  0  0
    0.2130   -1.2587   -0.0821 C   0  0  0  0  0  0  0  0  0  0  0  0
    0.1403   -1.2548   -1.4874 O   0  0  0  0  0  0  0  0  0  0  0  0
   -0.9633   -0.4049   -1.4216 C   0  0  0  0  0  0  0  0  0  0  0  0
   -2.5102    0.7440    0.5671 H   0  0  0  0  0  0  0  0  0  0  0  0
   -1.5557    0.0595    1.9219 H   0  0  0  0  0  0  0  0  0  0  0  0
   -2.3779   -1.0860    0.7303 H   0  0  0  0  0  0  0  0  0  0  0  0
   -0.3416    1.9223   -0.6989 H   0  0  0  0  0  0  0  0  0  0  0  0
   -0.2262    1.7718    1.0653 H   0  0  0  0  0  0  0  0  0  0  0  0
    2.0109    1.4474    1.0084 H   0  0  0  0  0  0  0  0  0  0  0  0
    1.9081    2.0632   -0.6501 H   0  0  0  0  0  0  0  0  0  0  0  0
    2.2495   -1.8950    0.1130 H   0  0  0  0  0  0  0  0  0  0  0  0
    1.6490   -0.7427    1.3978 H   0  0  0  0  0  0  0  0  0  0  0  0
   -0.2374   -2.1817    0.2958 H   0  0  0  0  0  0  0  0  0  0  0  0
   -0.8946    0.4482   -2.1167 H   0  0  0  0  0  0  0  0  0  0  0  0
   -1.8873   -1.0177   -1.5045 H   0  0  0  0  0  0  0  0  0  0  0  0
  1  2  1  0
  2  3  1  0
  3  4  1  0
  4  5  1  0
  5  6  1  0
  6  7  1  0
  7  8  1  0
  8  9  1  0
  7  2  1  0
  9  2  1  0
  1 10  1  0
  1 11  1  0
  1 12  1  0
  3 13  1  0
  3 14  1  0
  4 15  1  0
  4 16  1  0
  6 17  1  0
  6 18  1  0
  7 19  1  0
  9 20  1  0
  9 21  1  0
M  END
