
     RDKit          3D

 21 23  0  0  0  0  0  0  0  0999 V2000
    2.4658    0.4116    0.0794 C   0  0  0  0  0  0  0  0  0  0  0  0
    0.9854    0.1705    0.3042 C   0  0  0  0  0  0  0  0  0  0  0  0
    0.3445    1.1846    0.9684 O   0  0  0  0  0  0  0  0  0  0  0  0
   -0.7536    1.7007    0.3254 C   0  0  0  0  0  0  0  0  0  0  0  0
   -1.8057    0.6503    0.0636 C   0  0  0  0  0  0  0  0  0  0  0  0
   -1.1894   -0.5336   -0.6108 C   0  0  0  0  0  0  0  0  0  0  0  0
   -0.8604   -1.6783    0.3259 C   0  0  0  0  0  0  0  0  0  0  0  0
    0.5386   -1.2235    0.4604 C   0  0  0  0  0  0  0  0  0  0  0  0
    0.2810   -0.4050   -0.8499 C   0  0  0  0  0  0  0  0  0  0  0  0
    3.0725    0.1382    0.9540 H   0  0  0  0  0  0  0  0  0  0  0  0
    2.6409    1.5124   -0.1060 H   0  0  0  0  0  0  0  0  0  0  0  0
    2.8327   -0.0866   -0.8469 H   0  0  0  0  0  0  0  0  0  0  0  0
   -0.4282    2.2187   -0.5937 H   0  0  0  0  0  0  0  0  0  0  0  0
   -1.2120    2.4567    1.0015 H   0  0  0  0  0  0  0  0  0  0  0  0
   -2.2953    0.3851    1.0204 H   0  0  0  0  0  0  0  0  0  0  0  0
   -2.5802    1.1139   -0.5748 H   0  0  0  0  0  0  0  0  0  0  0  0
   -1.7164   -0.8133   -1.5323 H   0  0  0  0  0  0  0  0  0  0  0  0
   -1.4823   -1.7830    1.2089 H   0  0  0  0  0  0  0  0  0  0  0  0
   -0.9160   -2.6356   -0.2711 H   0  0  0  0  0  0  0  0  0  0  0  0
    1.3101   -1.9927    0.4137 H   0  0  0  0  0  0  0  0  0  0  0  0
    0.7681   -0.7912   -1.7403 H   0  0  0  0  0  0  0  0  0  0  0  0
  1  2  1  0
  2  3  1  0
  3  4  1  0
  4  5  1  0
  5  6  1  0
  6  7  1  0
  7  8  1  0
  8  9  1  0
  8  2  1  0
  9  2  1  0
  9  6  1  0
  1 10  1  0
  1 11  1  0
  1 12  1  0
  4 13  1  0
  4 14  1  0
  5 15  1  0
  5 16  1  0
  6 17  1  0
  7 18  1  0
  7 19  1  0
  8 20  1  0
  9 21  1  0
M  END
