
     RDKit          3D

 21 22  0  0  0  0  0  0  0  0999 V2000
    2.1795   -0.1426    0.3063 C   0  0  0  0  0  0  0  0  0  0  0  0
    0.7550   -0.1531    0.0774 C   0  0  0  0  0  0  0  0  0  0  0  0
    0.0243   -1.4604   -0.1164 C   0  0  0  0  0  0  0  0  0  0  0  0
   -1.3888   -0.9081   -0.4090 C   0  0  0  0  0  0  0  0  0  0  0  0
   -1.1017    0.5478   -0.2998 C   0  0  0  0  0  0  0  0  0  0  0  0
   -2.0325    1.4695   -0.4707 O   0  0  0  0  0  0  0  0  0  0  0  0
    0.2021    0.6584   -1.1049 C   0  0  0  0  0  0  0  0  0  0  0  0
   -0.1740    0.6524    0.9201 C   0  0  0  0  0  0  0  0  0  0  0  0
   -0.7000    0.0458    2.0339 O   0  0  0  0  0  0  0  0  0  0  0  0
    2.6545   -1.0221   -0.1784 H   0  0  0  0  0  0  0  0  0  0  0  0
    2.4118   -0.2332    1.3895 H   0  0  0  0  0  0  0  0  0  0  0  0
    2.6491    0.7699   -0.1071 H   0  0  0  0  0  0  0  0  0  0  0  0
    0.4046   -2.0127   -0.9823 H   0  0  0  0  0  0  0  0  0  0  0  0
    0.0249   -2.0344    0.8156 H   0  0  0  0  0  0  0  0  0  0  0  0
   -1.6680   -1.1793   -1.4479 H   0  0  0  0  0  0  0  0  0  0  0  0
   -2.1069   -1.2904    0.3444 H   0  0  0  0  0  0  0  0  0  0  0  0
   -1.9406    2.0909   -1.2387 H   0  0  0  0  0  0  0  0  0  0  0  0
    0.5509    1.6883   -1.1453 H   0  0  0  0  0  0  0  0  0  0  0  0
    0.2082    0.0653   -2.0286 H   0  0  0  0  0  0  0  0  0  0  0  0
    0.1571    1.7068    1.0305 H   0  0  0  0  0  0  0  0  0  0  0  0
   -1.1095    0.7411    2.6114 H   0  0  0  0  0  0  0  0  0  0  0  0
  1  2  1  0
  2  3  1  0
  3  4  1  0
  4  5  1  0
  5  6  1  0
  5  7  1  0
  5  8  1  0
  8  9  1  0
  7  2  1  0
  8  2  1  0
  1 10  1  0
  1 11  1  0
  1 12  1  0
  3 13  1  0
  3 14  1  0
  4 15  1  0
  4 16  1  0
  6 17  1  0
  7 18  1  0
  7 19  1  0
  8 20  1  0
  9 21  1  0
M  END
