
     RDKit          3D

 19 21  0  0  0  0  0  0  0  0999 V2000
    1.5834    0.8130    0.8091 C   0  0  0  0  0  0  0  0  0  0  0  0
    0.5057   -0.0470    0.2987 C   0  0  0  0  0  0  0  0  0  0  0  0
    0.8929   -1.0874   -0.7517 C   0  0  0  0  0  0  0  0  0  0  0  0
   -0.3126   -1.5700   -1.2394 O   0  0  0  0  0  0  0  0  0  0  0  0
   -1.2619   -0.5569   -1.1098 C   0  0  0  0  0  0  0  0  0  0  0  0
   -1.5841   -0.2200    0.3142 C   0  0  0  0  0  0  0  0  0  0  0  0
   -0.5012   -0.5790    1.3082 C   0  0  0  0  0  0  0  0  0  0  0  0
   -0.6408    0.5860   -0.4256 C   0  0  0  0  0  0  0  0  0  0  0  0
   -0.7173    1.8711   -0.7710 O   0  0  0  0  0  0  0  0  0  0  0  0
    2.5500    0.5405    0.3088 H   0  0  0  0  0  0  0  0  0  0  0  0
    1.3257    1.8727    0.6585 H   0  0  0  0  0  0  0  0  0  0  0  0
    1.7396    0.6129    1.8868 H   0  0  0  0  0  0  0  0  0  0  0  0
    1.3527   -0.4932   -1.5898 H   0  0  0  0  0  0  0  0  0  0  0  0
    1.5487   -1.8563   -0.3588 H   0  0  0  0  0  0  0  0  0  0  0  0
   -2.0332   -0.4492   -1.8968 H   0  0  0  0  0  0  0  0  0  0  0  0
   -2.5436    0.1657    0.6288 H   0  0  0  0  0  0  0  0  0  0  0  0
   -0.5245    0.0231    2.2233 H   0  0  0  0  0  0  0  0  0  0  0  0
   -0.4814   -1.6783    1.4431 H   0  0  0  0  0  0  0  0  0  0  0  0
   -0.8981    2.0524   -1.7368 H   0  0  0  0  0  0  0  0  0  0  0  0
  1  2  1  0
  2  3  1  0
  3  4  1  0
  4  5  1  0
  5  6  1  0
  6  7  1  0
  6  8  1  0
  8  9  1  0
  7  2  1  0
  8  2  1  0
  8  5  1  0
  1 10  1  0
  1 11  1  0
  1 12  1  0
  3 13  1  0
  3 14  1  0
  5 15  1  0
  6 16  1  0
  7 17  1  0
  7 18  1  0
  9 19  1  0
M  END
