
     RDKit          3D

 19 20  0  0  0  0  0  0  0  0999 V2000
   -1.7707   -0.7006    0.8944 C   0  0  0  0  0  0  0  0  0  0  0  0
   -0.7174   -0.1287   -0.0079 C   0  0  0  0  0  0  0  0  0  0  0  0
   -0.1040   -1.1444   -0.8500 C   0  0  0  0  0  0  0  0  0  0  0  0
    1.1848   -0.9145   -1.0136 C   0  0  0  0  0  0  0  0  0  0  0  0
    1.5518    0.3079   -0.2762 C   0  0  0  0  0  0  0  0  0  0  0  0
    2.8103    0.1970    0.3186 O   0  0  0  0  0  0  0  0  0  0  0  0
    0.4592    0.5128    0.7173 C   0  0  0  0  0  0  0  0  0  0  0  0
   -0.2302    1.7297    0.5646 O   0  0  0  0  0  0  0  0  0  0  0  0
   -0.9614    1.2387   -0.5496 C   0  0  0  0  0  0  0  0  0  0  0  0
   -2.6741   -0.9044    0.2887 H   0  0  0  0  0  0  0  0  0  0  0  0
   -2.0627   -0.0518    1.7183 H   0  0  0  0  0  0  0  0  0  0  0  0
   -1.3949   -1.7071    1.2251 H   0  0  0  0  0  0  0  0  0  0  0  0
   -0.6410   -1.9892   -1.2907 H   0  0  0  0  0  0  0  0  0  0  0  0
    1.8885   -1.5494   -1.6179 H   0  0  0  0  0  0  0  0  0  0  0  0
    1.5778    1.1914   -0.9817 H   0  0  0  0  0  0  0  0  0  0  0  0
    2.8733    0.7321    1.1478 H   0  0  0  0  0  0  0  0  0  0  0  0
    0.6202    0.1915    1.7443 H   0  0  0  0  0  0  0  0  0  0  0  0
   -2.0225    1.5546   -0.5562 H   0  0  0  0  0  0  0  0  0  0  0  0
   -0.3871    1.4344   -1.4752 H   0  0  0  0  0  0  0  0  0  0  0  0
  1  2  1  0
  2  3  1  0
  3  4  2  0
  4  5  1  0
  5  6  1  0
  5  7  1  0
  7  8  1  0
  8  9  1  0
  7  2  1  0
  9  2  1  0
  1 10  1  0
  1 11  1  0
  1 12  1  0
  3 13  1  0
  4 14  1  0
  5 15  1  0
  6 16  1  0
  7 17  1  0
  9 18  1  0
  9 19  1  0
M  END
