
     RDKit          3D

 17 18  0  0  0  0  0  0  0  0999 V2000
   -0.0587    1.9773   -0.3021 C   0  0  0  0  0  0  0  0  0  0  0  0
   -0.2974    0.6163    0.0957 C   0  0  0  0  0  0  0  0  0  0  0  0
   -1.1832   -0.2602   -0.7616 C   0  0  0  0  0  0  0  0  0  0  0  0
   -1.2279   -1.3561   -0.0002 C   0  0  0  0  0  0  0  0  0  0  0  0
   -0.3690   -0.9589    1.1490 C   0  0  0  0  0  0  0  0  0  0  0  0
   -0.8563    0.3529    1.3707 O   0  0  0  0  0  0  0  0  0  0  0  0
    0.8260   -0.2791    0.5370 C   0  0  0  0  0  0  0  0  0  0  0  0
    1.5319   -1.0186   -0.5165 C   0  0  0  0  0  0  0  0  0  0  0  0
    2.7377   -0.7987   -0.6548 O   0  0  0  0  0  0  0  0  0  0  0  0
   -0.6723    2.7027    0.3024 H   0  0  0  0  0  0  0  0  0  0  0  0
    1.0033    2.3110   -0.1394 H   0  0  0  0  0  0  0  0  0  0  0  0
   -0.3179    2.1926   -1.3610 H   0  0  0  0  0  0  0  0  0  0  0  0
   -1.6408   -0.0422   -1.7175 H   0  0  0  0  0  0  0  0  0  0  0  0
   -1.7243   -2.3057   -0.1148 H   0  0  0  0  0  0  0  0  0  0  0  0
   -0.2609   -1.5989    1.9781 H   0  0  0  0  0  0  0  0  0  0  0  0
    1.4376    0.1922    1.2979 H   0  0  0  0  0  0  0  0  0  0  0  0
    1.0723   -1.7266   -1.1629 H   0  0  0  0  0  0  0  0  0  0  0  0
  1  2  1  0
  2  3  1  0
  3  4  2  0
  4  5  1  0
  5  6  1  0
  5  7  1  0
  7  8  1  0
  8  9  2  0
  6  2  1  0
  7  2  1  0
  1 10  1  0
  1 11  1  0
  1 12  1  0
  3 13  1  0
  4 14  1  0
  5 15  1  0
  7 16  1  0
  8 17  1  0
M  END
