
     RDKit          3D

 21 23  0  0  0  0  0  0  0  0999 V2000
    1.3416    1.0438   -0.8330 C   0  0  0  0  0  0  0  0  0  0  0  0
    0.7472    0.0296   -0.0150 C   0  0  0  0  0  0  0  0  0  0  0  0
    1.5752   -0.9431    0.7717 C   0  0  0  0  0  0  0  0  0  0  0  0
    0.5538   -1.7434    1.3462 O   0  0  0  0  0  0  0  0  0  0  0  0
   -0.5847   -1.1375    0.8997 C   0  0  0  0  0  0  0  0  0  0  0  0
   -0.3219   -0.8887   -0.5929 C   0  0  0  0  0  0  0  0  0  0  0  0
   -1.4822   -0.0325   -0.9731 C   0  0  0  0  0  0  0  0  0  0  0  0
   -1.4722    0.9545    0.2136 C   0  0  0  0  0  0  0  0  0  0  0  0
   -0.3294    0.3751    0.9896 C   0  0  0  0  0  0  0  0  0  0  0  0
    1.2007    0.8575   -1.9384 H   0  0  0  0  0  0  0  0  0  0  0  0
    2.4648    1.0496   -0.7101 H   0  0  0  0  0  0  0  0  0  0  0  0
    1.0369    2.0985   -0.6669 H   0  0  0  0  0  0  0  0  0  0  0  0
    2.2732   -1.5326    0.1830 H   0  0  0  0  0  0  0  0  0  0  0  0
    2.0561   -0.4042    1.6354 H   0  0  0  0  0  0  0  0  0  0  0  0
   -1.5512   -1.4830    1.1715 H   0  0  0  0  0  0  0  0  0  0  0  0
   -0.0209   -1.7141   -1.1832 H   0  0  0  0  0  0  0  0  0  0  0  0
   -1.3546    0.5443   -1.8891 H   0  0  0  0  0  0  0  0  0  0  0  0
   -2.4000   -0.6571   -0.9524 H   0  0  0  0  0  0  0  0  0  0  0  0
   -1.2575    1.9790   -0.1308 H   0  0  0  0  0  0  0  0  0  0  0  0
   -2.4195    0.8346    0.7382 H   0  0  0  0  0  0  0  0  0  0  0  0
   -0.0552    0.7695    1.9359 H   0  0  0  0  0  0  0  0  0  0  0  0
  1  2  1  0
  2  3  1  0
  3  4  1  0
  4  5  1  0
  5  6  1  0
  6  7  1  0
  7  8  1  0
  8  9  1  0
  6  2  1  0
  9  2  1  0
  9  5  1  0
  1 10  1  0
  1 11  1  0
  1 12  1  0
  3 13  1  0
  3 14  1  0
  5 15  1  0
  6 16  1  0
  7 17  1  0
  7 18  1  0
  8 19  1  0
  8 20  1  0
  9 21  1  0
M  END
