
     RDKit          3D

 21 22  0  0  0  0  0  0  0  0999 V2000
    1.1424    1.6117    0.5835 C   0  0  0  0  0  0  0  0  0  0  0  0
    0.3287    0.3624    0.5365 C   0  0  0  0  0  0  0  0  0  0  0  0
    0.8184   -0.9460    0.9737 C   0  0  0  0  0  0  0  0  0  0  0  0
    0.6711   -0.6851   -0.4584 C   0  0  0  0  0  0  0  0  0  0  0  0
    1.8289   -0.6135   -1.2175 O   0  0  0  0  0  0  0  0  0  0  0  0
   -0.5746   -0.9482   -1.2320 C   0  0  0  0  0  0  0  0  0  0  0  0
   -1.3798    0.3460   -1.0384 C   0  0  0  0  0  0  0  0  0  0  0  0
   -1.1944    0.4929    0.4818 C   0  0  0  0  0  0  0  0  0  0  0  0
   -1.8251   -0.6145    1.0284 O   0  0  0  0  0  0  0  0  0  0  0  0
    0.7596    2.3509   -0.1804 H   0  0  0  0  0  0  0  0  0  0  0  0
    0.9973    2.0778    1.5848 H   0  0  0  0  0  0  0  0  0  0  0  0
    2.1813    1.4228    0.3266 H   0  0  0  0  0  0  0  0  0  0  0  0
    0.1380   -1.6832    1.4732 H   0  0  0  0  0  0  0  0  0  0  0  0
    1.8411   -0.9878    1.3795 H   0  0  0  0  0  0  0  0  0  0  0  0
    2.3010   -1.4966   -1.0811 H   0  0  0  0  0  0  0  0  0  0  0  0
   -0.3870   -1.0163   -2.3165 H   0  0  0  0  0  0  0  0  0  0  0  0
   -1.2079   -1.7525   -0.8314 H   0  0  0  0  0  0  0  0  0  0  0  0
   -0.8390    1.1757   -1.5043 H   0  0  0  0  0  0  0  0  0  0  0  0
   -2.4224    0.2336   -1.3189 H   0  0  0  0  0  0  0  0  0  0  0  0
   -1.5515    1.4506    0.8504 H   0  0  0  0  0  0  0  0  0  0  0  0
   -1.6261   -0.7808    1.9605 H   0  0  0  0  0  0  0  0  0  0  0  0
  1  2  1  0
  2  3  1  0
  3  4  1  0
  4  5  1  0
  4  6  1  0
  6  7  1  0
  7  8  1  0
  8  9  1  0
  4  2  1  0
  8  2  1  0
  1 10  1  0
  1 11  1  0
  1 12  1  0
  3 13  1  0
  3 14  1  0
  5 15  1  0
  6 16  1  0
  6 17  1  0
  7 18  1  0
  7 19  1  0
  8 20  1  0
  9 21  1  0
M  END
