
     RDKit          3D

 15 17  0  0  0  0  0  0  0  0999 V2000
    1.7322    0.2085   -0.1319 C   0  0  0  0  0  0  0  0  0  0  0  0
    0.3145    0.1513    0.1188 C   0  0  0  0  0  0  0  0  0  0  0  0
   -0.3080    0.8566    1.2299 C   0  0  0  0  0  0  0  0  0  0  0  0
    0.2595    1.5772    2.0844 O   0  0  0  0  0  0  0  0  0  0  0  0
   -1.6750    0.5295    1.1005 O   0  0  0  0  0  0  0  0  0  0  0  0
   -1.6668   -0.3158   -0.0387 C   0  0  0  0  0  0  0  0  0  0  0  0
   -0.6775    0.2662   -0.9864 C   0  0  0  0  0  0  0  0  0  0  0  0
   -0.3370   -1.0313   -1.3394 O   0  0  0  0  0  0  0  0  0  0  0  0
   -0.4350   -1.1366    0.0428 C   0  0  0  0  0  0  0  0  0  0  0  0
    2.3231    0.7953    0.5953 H   0  0  0  0  0  0  0  0  0  0  0  0
    2.1765   -0.8293   -0.1019 H   0  0  0  0  0  0  0  0  0  0  0  0
    1.9642    0.5779   -1.1584 H   0  0  0  0  0  0  0  0  0  0  0  0
   -2.5874   -0.7244   -0.3882 H   0  0  0  0  0  0  0  0  0  0  0  0
   -0.8104    1.0447   -1.6158 H   0  0  0  0  0  0  0  0  0  0  0  0
   -0.2728   -1.9698    0.5890 H   0  0  0  0  0  0  0  0  0  0  0  0
  1  2  1  0
  2  3  1  0
  3  4  2  0
  3  5  1  0
  5  6  1  0
  6  7  1  0
  7  8  1  0
  8  9  1  0
  7  2  1  0
  9  2  1  0
  9  6  1  0
  1 10  1  0
  1 11  1  0
  1 12  1  0
  6 13  1  0
  7 14  1  0
  9 15  1  0
M  END
