
     RDKit          3D

 21 22  0  0  0  0  0  0  0  0999 V2000
   -1.6331    1.2409   -0.4121 C   0  0  0  0  0  0  0  0  0  0  0  0
   -0.5227    0.4350    0.2426 C   0  0  0  0  0  0  0  0  0  0  0  0
   -1.0174   -0.8047    0.9651 C   0  0  0  0  0  0  0  0  0  0  0  0
   -0.9946   -1.4952   -0.3972 C   0  0  0  0  0  0  0  0  0  0  0  0
    0.0906   -0.4765   -0.7661 C   0  0  0  0  0  0  0  0  0  0  0  0
    1.4254   -0.9325   -0.3758 C   0  0  0  0  0  0  0  0  0  0  0  0
    2.2144   -0.0837    0.2716 C   0  0  0  0  0  0  0  0  0  0  0  0
    1.6215    1.2688    0.5271 C   0  0  0  0  0  0  0  0  0  0  0  0
    0.3282    1.1569    1.0271 O   0  0  0  0  0  0  0  0  0  0  0  0
   -1.1964    1.6450   -1.3603 H   0  0  0  0  0  0  0  0  0  0  0  0
   -2.4446    0.5667   -0.6894 H   0  0  0  0  0  0  0  0  0  0  0  0
   -1.9400    2.1015    0.2152 H   0  0  0  0  0  0  0  0  0  0  0  0
   -2.0021   -0.7230    1.4301 H   0  0  0  0  0  0  0  0  0  0  0  0
   -0.1995   -1.2214    1.5903 H   0  0  0  0  0  0  0  0  0  0  0  0
   -1.9306   -1.3857   -0.9810 H   0  0  0  0  0  0  0  0  0  0  0  0
   -0.5946   -2.5273   -0.3724 H   0  0  0  0  0  0  0  0  0  0  0  0
   -0.0262   -0.1511   -1.8291 H   0  0  0  0  0  0  0  0  0  0  0  0
    1.7424   -1.9343   -0.6160 H   0  0  0  0  0  0  0  0  0  0  0  0
    3.2026   -0.3677    0.5803 H   0  0  0  0  0  0  0  0  0  0  0  0
    1.6595    1.9146   -0.3656 H   0  0  0  0  0  0  0  0  0  0  0  0
    2.2173    1.7738    1.3159 H   0  0  0  0  0  0  0  0  0  0  0  0
  1  2  1  0
  2  3  1  0
  3  4  1  0
  4  5  1  0
  5  6  1  0
  6  7  2  0
  7  8  1  0
  8  9  1  0
  5  2  1  0
  9  2  1  0
  1 10  1  0
  1 11  1  0
  1 12  1  0
  3 13  1  0
  3 14  1  0
  4 15  1  0
  4 16  1  0
  5 17  1  0
  6 18  1  0
  7 19  1  0
  8 20  1  0
  8 21  1  0
M  END
