
     RDKit          3D

 21 23  0  0  0  0  0  0  0  0999 V2000
   -2.1227   -0.8957   -0.0611 C   0  0  0  0  0  0  0  0  0  0  0  0
   -0.7976   -0.5641   -0.0279 C   0  0  0  0  0  0  0  0  0  0  0  0
    0.3578   -1.1861   -0.7454 C   0  0  0  0  0  0  0  0  0  0  0  0
    0.9919   -0.0399    0.0597 C   0  0  0  0  0  0  0  0  0  0  0  0
    2.3212    0.2441    0.1248 C   0  0  0  0  0  0  0  0  0  0  0  0
    0.1069   -0.5447    1.1887 C   0  0  0  0  0  0  0  0  0  0  0  0
   -0.1652    0.7633   -0.3425 C   0  0  0  0  0  0  0  0  0  0  0  0
   -0.6104    2.0096   -0.1510 C   0  0  0  0  0  0  0  0  0  0  0  0
   -0.3316    1.4134   -1.5079 O   0  0  0  0  0  0  0  0  0  0  0  0
   -2.4337   -1.4826   -0.9731 H   0  0  0  0  0  0  0  0  0  0  0  0
   -2.4928   -1.4938    0.8249 H   0  0  0  0  0  0  0  0  0  0  0  0
   -2.8213   -0.0060   -0.0765 H   0  0  0  0  0  0  0  0  0  0  0  0
    0.4206   -1.0487   -1.8244 H   0  0  0  0  0  0  0  0  0  0  0  0
    0.6621   -2.1768   -0.3487 H   0  0  0  0  0  0  0  0  0  0  0  0
    3.0125   -0.5480   -0.2930 H   0  0  0  0  0  0  0  0  0  0  0  0
    2.6446    1.1781   -0.4258 H   0  0  0  0  0  0  0  0  0  0  0  0
    2.7288    0.4113    1.1669 H   0  0  0  0  0  0  0  0  0  0  0  0
   -0.1684    0.2755    1.8477 H   0  0  0  0  0  0  0  0  0  0  0  0
    0.3654   -1.5094    1.6108 H   0  0  0  0  0  0  0  0  0  0  0  0
   -1.7002    2.2945   -0.0723 H   0  0  0  0  0  0  0  0  0  0  0  0
    0.0320    2.9061    0.0260 H   0  0  0  0  0  0  0  0  0  0  0  0
  1  2  1  0
  2  3  1  0
  3  4  1  0
  4  5  1  0
  4  6  1  0
  4  7  1  0
  7  8  1  0
  8  9  1  0
  6  2  1  0
  9  7  1  0
  7  2  1  0
  1 10  1  0
  1 11  1  0
  1 12  1  0
  3 13  1  0
  3 14  1  0
  5 15  1  0
  5 16  1  0
  5 17  1  0
  6 18  1  0
  6 19  1  0
  8 20  1  0
  8 21  1  0
M  END
