
     RDKit          3D

 21 24  0  0  0  0  0  0  0  0999 V2000
   -1.9316   -0.1096   -1.2126 C   0  0  0  0  0  0  0  0  0  0  0  0
   -0.7040   -0.1097   -0.3724 C   0  0  0  0  0  0  0  0  0  0  0  0
   -0.5527    0.9981    0.5959 C   0  0  0  0  0  0  0  0  0  0  0  0
    0.7605    1.6223    0.2330 C   0  0  0  0  0  0  0  0  0  0  0  0
    1.6066    0.4967   -0.2966 C   0  0  0  0  0  0  0  0  0  0  0  0
    1.5075   -0.8744    0.2214 C   0  0  0  0  0  0  0  0  0  0  0  0
    0.5086   -1.2861    1.2572 C   0  0  0  0  0  0  0  0  0  0  0  0
   -0.6865   -0.3836    1.0581 C   0  0  0  0  0  0  0  0  0  0  0  0
    0.6395   -0.4174   -0.9237 C   0  0  0  0  0  0  0  0  0  0  0  0
   -1.9967    0.8954   -1.7117 H   0  0  0  0  0  0  0  0  0  0  0  0
   -1.9712   -0.8658   -1.9947 H   0  0  0  0  0  0  0  0  0  0  0  0
   -2.8124   -0.1528   -0.5356 H   0  0  0  0  0  0  0  0  0  0  0  0
   -1.3913    1.6818    0.8201 H   0  0  0  0  0  0  0  0  0  0  0  0
    1.2358    2.1691    1.0570 H   0  0  0  0  0  0  0  0  0  0  0  0
    0.5672    2.3091   -0.6339 H   0  0  0  0  0  0  0  0  0  0  0  0
    2.5634    0.7807   -0.7712 H   0  0  0  0  0  0  0  0  0  0  0  0
    2.3481   -1.5547    0.0566 H   0  0  0  0  0  0  0  0  0  0  0  0
    0.8873   -1.2582    2.2906 H   0  0  0  0  0  0  0  0  0  0  0  0
    0.1846   -2.3341    1.0670 H   0  0  0  0  0  0  0  0  0  0  0  0
   -1.5633   -0.6638    1.6561 H   0  0  0  0  0  0  0  0  0  0  0  0
    0.8005   -0.9431   -1.8606 H   0  0  0  0  0  0  0  0  0  0  0  0
  1  2  1  0
  2  3  1  0
  3  4  1  0
  4  5  1  0
  5  6  1  0
  6  7  1  0
  7  8  1  0
  6  9  1  0
  8  2  1  0
  9  2  1  0
  8  3  1  0
  9  5  1  0
  1 10  1  0
  1 11  1  0
  1 12  1  0
  3 13  1  0
  4 14  1  0
  4 15  1  0
  5 16  1  0
  6 17  1  0
  7 18  1  0
  7 19  1  0
  8 20  1  0
  9 21  1  0
M  END
