
     RDKit          3D

 17 18  0  0  0  0  0  0  0  0999 V2000
   -1.2692   -1.1317    0.3678 C   0  0  0  0  0  0  0  0  0  0  0  0
   -0.8318    0.2741    0.0819 C   0  0  0  0  0  0  0  0  0  0  0  0
   -1.8478    1.3309   -0.0849 C   0  0  0  0  0  0  0  0  0  0  0  0
   -2.7522    1.8671    0.5969 O   0  0  0  0  0  0  0  0  0  0  0  0
   -1.4241    1.5573   -1.3847 O   0  0  0  0  0  0  0  0  0  0  0  0
   -0.3625    0.6463   -1.2649 C   0  0  0  0  0  0  0  0  0  0  0  0
    0.5594    0.6688   -0.1086 C   0  0  0  0  0  0  0  0  0  0  0  0
    1.6907   -0.3312   -0.1748 C   0  0  0  0  0  0  0  0  0  0  0  0
    2.9075    0.2963   -0.3603 O   0  0  0  0  0  0  0  0  0  0  0  0
   -0.4038   -1.7939    0.4092 H   0  0  0  0  0  0  0  0  0  0  0  0
   -1.8587   -1.2178    1.2941 H   0  0  0  0  0  0  0  0  0  0  0  0
   -1.9204   -1.4834   -0.4748 H   0  0  0  0  0  0  0  0  0  0  0  0
   -0.2532   -0.0579   -2.0873 H   0  0  0  0  0  0  0  0  0  0  0  0
    0.8666    1.6340    0.3691 H   0  0  0  0  0  0  0  0  0  0  0  0
    1.7422   -0.9064    0.7719 H   0  0  0  0  0  0  0  0  0  0  0  0
    1.5408   -1.0552   -1.0005 H   0  0  0  0  0  0  0  0  0  0  0  0
    3.6166   -0.2973   -0.0201 H   0  0  0  0  0  0  0  0  0  0  0  0
  1  2  1  0
  2  3  1  0
  3  4  2  0
  3  5  1  0
  5  6  1  0
  6  7  1  0
  7  8  1  0
  8  9  1  0
  6  2  1  0
  7  2  1  0
  1 10  1  0
  1 11  1  0
  1 12  1  0
  6 13  1  0
  7 14  1  0
  8 15  1  0
  8 16  1  0
  9 17  1  0
M  END
