
     RDKit          3D

 18 19  0  0  0  0  0  0  0  0999 V2000
   -0.8996   -1.7635   -0.4711 C   0  0  0  0  0  0  0  0  0  0  0  0
   -0.3532   -0.4302   -0.3396 C   0  0  0  0  0  0  0  0  0  0  0  0
   -0.8985    0.4718    0.7718 C   0  0  0  0  0  0  0  0  0  0  0  0
   -0.1454    1.7436    0.3347 C   0  0  0  0  0  0  0  0  0  0  0  0
    0.6930    1.1105   -0.7453 C   0  0  0  0  0  0  0  0  0  0  0  0
   -0.2897    0.3976   -1.4715 O   0  0  0  0  0  0  0  0  0  0  0  0
    1.1195   -0.2201   -0.1984 C   0  0  0  0  0  0  0  0  0  0  0  0
    1.4968   -0.2388    1.1334 O   0  0  0  0  0  0  0  0  0  0  0  0
   -0.8299   -2.1380   -1.5032 H   0  0  0  0  0  0  0  0  0  0  0  0
   -1.9776   -1.7765   -0.1957 H   0  0  0  0  0  0  0  0  0  0  0  0
   -0.3681   -2.4743    0.2227 H   0  0  0  0  0  0  0  0  0  0  0  0
   -1.9750    0.5943    0.7199 H   0  0  0  0  0  0  0  0  0  0  0  0
   -0.4953    0.0774    1.7062 H   0  0  0  0  0  0  0  0  0  0  0  0
    0.4193    2.1864    1.1480 H   0  0  0  0  0  0  0  0  0  0  0  0
   -0.8926    2.3868   -0.1432 H   0  0  0  0  0  0  0  0  0  0  0  0
    1.3791    1.7066   -1.2998 H   0  0  0  0  0  0  0  0  0  0  0  0
    1.7536   -0.7704   -0.8933 H   0  0  0  0  0  0  0  0  0  0  0  0
    2.2636   -0.8631    1.2245 H   0  0  0  0  0  0  0  0  0  0  0  0
  1  2  1  0
  2  3  1  0
  3  4  1  0
  4  5  1  0
  5  6  1  0
  5  7  1  0
  7  8  1  0
  6  2  1  0
  7  2  1  0
  1  9  1  0
  1 10  1  0
  1 11  1  0
  3 12  1  0
  3 13  1  0
  4 14  1  0
  4 15  1  0
  5 16  1  0
  7 17  1  0
  8 18  1  0
M  END
