
     RDKit          3D

 22 23  0  0  0  0  0  0  0  0999 V2000
   -1.5430   -1.3343    0.0585 C   0  0  0  0  0  0  0  0  0  0  0  0
   -0.5378   -0.2631   -0.3169 C   0  0  0  0  0  0  0  0  0  0  0  0
    0.6568   -0.8300   -1.0160 C   0  0  0  0  0  0  0  0  0  0  0  0
    1.8567   -0.6038   -0.1344 C   0  0  0  0  0  0  0  0  0  0  0  0
    1.4364    0.3651    0.9445 C   0  0  0  0  0  0  0  0  0  0  0  0
   -0.0560    0.4530    0.9149 C   0  0  0  0  0  0  0  0  0  0  0  0
   -0.6491    1.7179    0.3756 C   0  0  0  0  0  0  0  0  0  0  0  0
   -1.1126    0.9999   -0.8722 C   0  0  0  0  0  0  0  0  0  0  0  0
   -2.4290   -0.8690    0.5550 H   0  0  0  0  0  0  0  0  0  0  0  0
   -1.8009   -1.9741   -0.7918 H   0  0  0  0  0  0  0  0  0  0  0  0
   -1.0409   -1.9572    0.8450 H   0  0  0  0  0  0  0  0  0  0  0  0
    0.5520   -1.9400   -1.1350 H   0  0  0  0  0  0  0  0  0  0  0  0
    0.8268   -0.3750   -2.0131 H   0  0  0  0  0  0  0  0  0  0  0  0
    2.7072   -0.1733   -0.7202 H   0  0  0  0  0  0  0  0  0  0  0  0
    2.2573   -1.5587    0.2915 H   0  0  0  0  0  0  0  0  0  0  0  0
    1.7947   -0.0640    1.9161 H   0  0  0  0  0  0  0  0  0  0  0  0
    1.9459    1.3441    0.8011 H   0  0  0  0  0  0  0  0  0  0  0  0
   -0.5068    0.0853    1.8733 H   0  0  0  0  0  0  0  0  0  0  0  0
    0.0421    2.5237    0.1042 H   0  0  0  0  0  0  0  0  0  0  0  0
   -1.4742    2.0625    1.0471 H   0  0  0  0  0  0  0  0  0  0  0  0
   -2.2318    1.0120   -0.9141 H   0  0  0  0  0  0  0  0  0  0  0  0
   -0.6937    1.3788   -1.8132 H   0  0  0  0  0  0  0  0  0  0  0  0
  1  2  1  0
  2  3  1  0
  3  4  1  0
  4  5  1  0
  5  6  1  0
  6  7  1  0
  7  8  1  0
  6  2  1  0
  8  2  1  0
  1  9  1  0
  1 10  1  0
  1 11  1  0
  3 12  1  0
  3 13  1  0
  4 14  1  0
  4 15  1  0
  5 16  1  0
  5 17  1  0
  6 18  1  0
  7 19  1  0
  7 20  1  0
  8 21  1  0
  8 22  1  0
M  END
