
     RDKit          3D

 17 20  0  0  0  0  0  0  0  0999 V2000
    1.9150    0.2343   -0.5342 C   0  0  0  0  0  0  0  0  0  0  0  0
    0.4834    0.2273   -0.2417 C   0  0  0  0  0  0  0  0  0  0  0  0
   -0.3720    1.3524    0.0539 C   0  0  0  0  0  0  0  0  0  0  0  0
   -1.6507    1.0546   -0.3992 O   0  0  0  0  0  0  0  0  0  0  0  0
   -1.7852   -0.3153   -0.4331 C   0  0  0  0  0  0  0  0  0  0  0  0
   -1.1856   -1.1608    0.6309 C   0  0  0  0  0  0  0  0  0  0  0  0
   -0.4727   -0.5775    1.6510 O   0  0  0  0  0  0  0  0  0  0  0  0
    0.1074    0.5729    1.2037 C   0  0  0  0  0  0  0  0  0  0  0  0
   -0.4378   -0.8929   -0.6117 C   0  0  0  0  0  0  0  0  0  0  0  0
    2.2535    0.8140   -1.3988 H   0  0  0  0  0  0  0  0  0  0  0  0
    2.2667   -0.8310   -0.6685 H   0  0  0  0  0  0  0  0  0  0  0  0
    2.5295    0.6027    0.3387 H   0  0  0  0  0  0  0  0  0  0  0  0
   -0.1000    2.4057    0.0010 H   0  0  0  0  0  0  0  0  0  0  0  0
   -2.6774   -0.6822   -0.9375 H   0  0  0  0  0  0  0  0  0  0  0  0
   -1.5817   -2.1557    0.8506 H   0  0  0  0  0  0  0  0  0  0  0  0
    0.8905    0.9939    1.8492 H   0  0  0  0  0  0  0  0  0  0  0  0
   -0.1830   -1.6426   -1.3542 H   0  0  0  0  0  0  0  0  0  0  0  0
  1  2  1  0
  2  3  1  0
  3  4  1  0
  4  5  1  0
  5  6  1  0
  6  7  1  0
  7  8  1  0
  6  9  1  0
  8  2  1  0
  9  2  1  0
  8  3  1  0
  9  5  1  0
  1 10  1  0
  1 11  1  0
  1 12  1  0
  3 13  1  0
  5 14  1  0
  6 15  1  0
  8 16  1  0
  9 17  1  0
M  END
