
     RDKit          3D

 19 20  0  0  0  0  0  0  0  0999 V2000
    1.9843   -0.4460    0.3485 C   0  0  0  0  0  0  0  0  0  0  0  0
    0.6042   -0.1412    0.0065 C   0  0  0  0  0  0  0  0  0  0  0  0
    0.3772    1.0304   -0.8845 C   0  0  0  0  0  0  0  0  0  0  0  0
   -0.8190    1.5403   -0.6358 C   0  0  0  0  0  0  0  0  0  0  0  0
   -1.4847    0.5755    0.2708 C   0  0  0  0  0  0  0  0  0  0  0  0
   -0.2773    0.2901    1.1951 C   0  0  0  0  0  0  0  0  0  0  0  0
   -1.5916   -0.6794   -0.5028 C   0  0  0  0  0  0  0  0  0  0  0  0
   -2.5854   -1.1173   -1.0051 O   0  0  0  0  0  0  0  0  0  0  0  0
   -0.2370   -1.2730   -0.5274 C   0  0  0  0  0  0  0  0  0  0  0  0
    2.3905   -1.2221   -0.3206 H   0  0  0  0  0  0  0  0  0  0  0  0
    2.0162   -0.8200    1.4139 H   0  0  0  0  0  0  0  0  0  0  0  0
    2.6027    0.4748    0.3141 H   0  0  0  0  0  0  0  0  0  0  0  0
    1.0821    1.3957   -1.6121 H   0  0  0  0  0  0  0  0  0  0  0  0
   -1.2356    2.4489   -0.9989 H   0  0  0  0  0  0  0  0  0  0  0  0
   -2.3464    0.9070    0.7835 H   0  0  0  0  0  0  0  0  0  0  0  0
   -0.4741   -0.5236    1.8801 H   0  0  0  0  0  0  0  0  0  0  0  0
    0.0411    1.2366    1.6204 H   0  0  0  0  0  0  0  0  0  0  0  0
    0.1130   -1.5412   -1.5367 H   0  0  0  0  0  0  0  0  0  0  0  0
   -0.1604   -2.1354    0.1912 H   0  0  0  0  0  0  0  0  0  0  0  0
  1  2  1  0
  2  3  1  0
  3  4  2  0
  4  5  1  0
  5  6  1  0
  5  7  1  0
  7  8  2  0
  7  9  1  0
  6  2  1  0
  9  2  1  0
  1 10  1  0
  1 11  1  0
  1 12  1  0
  3 13  1  0
  4 14  1  0
  5 15  1  0
  6 16  1  0
  6 17  1  0
  9 18  1  0
  9 19  1  0
M  END
