
     RDKit          3D

 23 25  0  0  0  0  0  0  0  0999 V2000
    2.4004    0.0680    0.6029 C   0  0  0  0  0  0  0  0  0  0  0  0
    0.9517    0.1606    0.3144 C   0  0  0  0  0  0  0  0  0  0  0  0
    0.0471   -0.6954    1.1368 C   0  0  0  0  0  0  0  0  0  0  0  0
   -1.0981   -0.9755    0.1842 C   0  0  0  0  0  0  0  0  0  0  0  0
   -1.9643    0.2384    0.1365 C   0  0  0  0  0  0  0  0  0  0  0  0
   -1.1438    1.4513   -0.1034 C   0  0  0  0  0  0  0  0  0  0  0  0
    0.2869    1.1983   -0.4394 C   0  0  0  0  0  0  0  0  0  0  0  0
    0.6068   -0.0295   -1.1295 C   0  0  0  0  0  0  0  0  0  0  0  0
   -0.3924   -1.1190   -1.1296 C   0  0  0  0  0  0  0  0  0  0  0  0
    2.6563    0.4371    1.5907 H   0  0  0  0  0  0  0  0  0  0  0  0
    3.0502    0.4910   -0.2088 H   0  0  0  0  0  0  0  0  0  0  0  0
    2.6615   -1.0325    0.6009 H   0  0  0  0  0  0  0  0  0  0  0  0
   -0.2975   -0.0684    2.0075 H   0  0  0  0  0  0  0  0  0  0  0  0
    0.5826   -1.5911    1.4550 H   0  0  0  0  0  0  0  0  0  0  0  0
   -1.6149   -1.9063    0.4128 H   0  0  0  0  0  0  0  0  0  0  0  0
   -2.5046    0.3001    1.1187 H   0  0  0  0  0  0  0  0  0  0  0  0
   -2.7600    0.0702   -0.6252 H   0  0  0  0  0  0  0  0  0  0  0  0
   -1.5969    1.9969   -0.9819 H   0  0  0  0  0  0  0  0  0  0  0  0
   -1.2686    2.1513    0.7536 H   0  0  0  0  0  0  0  0  0  0  0  0
    0.8601    2.1067   -0.6973 H   0  0  0  0  0  0  0  0  0  0  0  0
    1.4110    0.0017   -1.9057 H   0  0  0  0  0  0  0  0  0  0  0  0
    0.1628   -2.0976   -1.0912 H   0  0  0  0  0  0  0  0  0  0  0  0
   -1.0364   -1.1564   -2.0016 H   0  0  0  0  0  0  0  0  0  0  0  0
  1  2  1  0
  2  3  1  0
  3  4  1  0
  4  5  1  0
  5  6  1  0
  6  7  1  0
  7  8  1  0
  8  9  1  0
  7  2  1  0
  8  2  1  0
  9  4  1  0
  1 10  1  0
  1 11  1  0
  1 12  1  0
  3 13  1  0
  3 14  1  0
  4 15  1  0
  5 16  1  0
  5 17  1  0
  6 18  1  0
  6 19  1  0
  7 20  1  0
  8 21  1  0
  9 22  1  0
  9 23  1  0
M  END
