
     RDKit          3D

 17 18  0  0  0  0  0  0  0  0999 V2000
    1.7670   -0.5931    0.5398 C   0  0  0  0  0  0  0  0  0  0  0  0
    0.5996    0.0114   -0.1932 C   0  0  0  0  0  0  0  0  0  0  0  0
   -0.1555   -0.9981   -1.0100 C   0  0  0  0  0  0  0  0  0  0  0  0
   -1.4391   -0.4796   -1.0863 O   0  0  0  0  0  0  0  0  0  0  0  0
   -1.7294    0.0036    0.1859 C   0  0  0  0  0  0  0  0  0  0  0  0
   -0.4523    0.6547    0.6277 C   0  0  0  0  0  0  0  0  0  0  0  0
   -0.1608    1.8537   -0.1831 C   0  0  0  0  0  0  0  0  0  0  0  0
   -0.6728    2.9970   -0.2063 O   0  0  0  0  0  0  0  0  0  0  0  0
    0.8578    1.2154   -0.8661 O   0  0  0  0  0  0  0  0  0  0  0  0
    1.5584   -1.6795    0.6452 H   0  0  0  0  0  0  0  0  0  0  0  0
    2.6516   -0.5240   -0.1362 H   0  0  0  0  0  0  0  0  0  0  0  0
    1.9275   -0.1880    1.5347 H   0  0  0  0  0  0  0  0  0  0  0  0
   -0.2171   -1.9599   -0.4729 H   0  0  0  0  0  0  0  0  0  0  0  0
    0.3362   -1.0967   -1.9795 H   0  0  0  0  0  0  0  0  0  0  0  0
   -2.5050    0.7838    0.0713 H   0  0  0  0  0  0  0  0  0  0  0  0
   -2.0730   -0.8096    0.8442 H   0  0  0  0  0  0  0  0  0  0  0  0
   -0.2931    0.8089    1.6846 H   0  0  0  0  0  0  0  0  0  0  0  0
  1  2  1  0
  2  3  1  0
  3  4  1  0
  4  5  1  0
  5  6  1  0
  6  7  1  0
  7  8  2  0
  7  9  1  0
  6  2  1  0
  9  2  1  0
  1 10  1  0
  1 11  1  0
  1 12  1  0
  3 13  1  0
  3 14  1  0
  5 15  1  0
  5 16  1  0
  6 17  1  0
M  END
