
     RDKit          3D

 21 22  0  0  0  0  0  0  0  0999 V2000
    2.0935   -0.8255    0.4467 C   0  0  0  0  0  0  0  0  0  0  0  0
    0.7526   -0.5695    0.3135 C   0  0  0  0  0  0  0  0  0  0  0  0
   -0.3340   -1.4979   -0.1018 C   0  0  0  0  0  0  0  0  0  0  0  0
   -0.9843   -0.2039    0.2693 C   0  0  0  0  0  0  0  0  0  0  0  0
   -2.3267    0.0973    0.2590 C   0  0  0  0  0  0  0  0  0  0  0  0
   -0.1150   -0.1658    1.3519 O   0  0  0  0  0  0  0  0  0  0  0  0
    0.1006    0.5040   -0.5030 C   0  0  0  0  0  0  0  0  0  0  0  0
    0.3281    1.9084    0.0047 C   0  0  0  0  0  0  0  0  0  0  0  0
    0.0963    0.3582   -1.8582 O   0  0  0  0  0  0  0  0  0  0  0  0
    2.7403   -0.4261   -0.3898 H   0  0  0  0  0  0  0  0  0  0  0  0
    2.3723   -1.9183    0.4876 H   0  0  0  0  0  0  0  0  0  0  0  0
    2.5772   -0.3980    1.3744 H   0  0  0  0  0  0  0  0  0  0  0  0
   -0.3625   -1.7982   -1.1546 H   0  0  0  0  0  0  0  0  0  0  0  0
   -0.5465   -2.2939    0.6466 H   0  0  0  0  0  0  0  0  0  0  0  0
   -3.0168   -0.7958    0.2736 H   0  0  0  0  0  0  0  0  0  0  0  0
   -2.6740    0.6790   -0.6469 H   0  0  0  0  0  0  0  0  0  0  0  0
   -2.6737    0.7384    1.1241 H   0  0  0  0  0  0  0  0  0  0  0  0
    0.6585    1.9495    1.0415 H   0  0  0  0  0  0  0  0  0  0  0  0
    1.1318    2.3831   -0.6108 H   0  0  0  0  0  0  0  0  0  0  0  0
   -0.5963    2.5214   -0.1341 H   0  0  0  0  0  0  0  0  0  0  0  0
    0.7785   -0.2465   -2.1936 H   0  0  0  0  0  0  0  0  0  0  0  0
  1  2  1  0
  2  3  1  0
  3  4  1  0
  4  5  1  0
  4  6  1  0
  4  7  1  0
  7  8  1  0
  7  9  1  0
  6  2  1  0
  7  2  1  0
  1 10  1  0
  1 11  1  0
  1 12  1  0
  3 13  1  0
  3 14  1  0
  5 15  1  0
  5 16  1  0
  5 17  1  0
  8 18  1  0
  8 19  1  0
  8 20  1  0
  9 21  1  0
M  END
