
     RDKit          3D

 21 23  0  0  0  0  0  0  0  0999 V2000
    2.4131    0.2659   -0.1772 C   0  0  0  0  0  0  0  0  0  0  0  0
    0.9483    0.0519   -0.1168 C   0  0  0  0  0  0  0  0  0  0  0  0
    0.5737   -1.4532   -0.3044 C   0  0  0  0  0  0  0  0  0  0  0  0
   -0.9403   -1.3356    0.0386 C   0  0  0  0  0  0  0  0  0  0  0  0
   -1.3855   -0.0946   -0.6270 C   0  0  0  0  0  0  0  0  0  0  0  0
   -2.0848    0.9257    0.1910 C   0  0  0  0  0  0  0  0  0  0  0  0
   -1.1620    1.4340    0.9761 C   0  0  0  0  0  0  0  0  0  0  0  0
    0.1486    0.8638    0.8076 C   0  0  0  0  0  0  0  0  0  0  0  0
   -0.0780    0.6917   -0.6899 C   0  0  0  0  0  0  0  0  0  0  0  0
    2.8215   -0.1696   -1.1281 H   0  0  0  0  0  0  0  0  0  0  0  0
    2.6314    1.3506   -0.1870 H   0  0  0  0  0  0  0  0  0  0  0  0
    2.9380   -0.2161    0.6696 H   0  0  0  0  0  0  0  0  0  0  0  0
    0.7454   -1.7562   -1.3261 H   0  0  0  0  0  0  0  0  0  0  0  0
    1.0669   -1.9956    0.4927 H   0  0  0  0  0  0  0  0  0  0  0  0
   -1.4385   -2.2540   -0.3693 H   0  0  0  0  0  0  0  0  0  0  0  0
   -1.0726   -1.3184    1.1178 H   0  0  0  0  0  0  0  0  0  0  0  0
   -1.8085   -0.2226   -1.6328 H   0  0  0  0  0  0  0  0  0  0  0  0
   -3.1321    1.1721    0.1276 H   0  0  0  0  0  0  0  0  0  0  0  0
   -1.3226    2.2379    1.7180 H   0  0  0  0  0  0  0  0  0  0  0  0
    0.1950    0.1853    1.6561 H   0  0  0  0  0  0  0  0  0  0  0  0
   -0.0570    1.6368   -1.2363 H   0  0  0  0  0  0  0  0  0  0  0  0
  1  2  1  0
  2  3  1  0
  3  4  1  0
  4  5  1  0
  5  6  1  0
  6  7  2  0
  7  8  1  0
  8  9  1  0
  8  2  1  0
  9  2  1  0
  9  5  1  0
  1 10  1  0
  1 11  1  0
  1 12  1  0
  3 13  1  0
  3 14  1  0
  4 15  1  0
  4 16  1  0
  5 17  1  0
  6 18  1  0
  7 19  1  0
  8 20  1  0
  9 21  1  0
M  END
