
     RDKit          3D

 23 25  0  0  0  0  0  0  0  0999 V2000
   -2.0211   -1.0733   -0.2791 C   0  0  0  0  0  0  0  0  0  0  0  0
   -0.7555   -0.3048   -0.1042 C   0  0  0  0  0  0  0  0  0  0  0  0
   -0.6568    0.9043   -1.0049 C   0  0  0  0  0  0  0  0  0  0  0  0
    0.2269    1.4407    0.1339 C   0  0  0  0  0  0  0  0  0  0  0  0
   -0.8630    0.8027    0.9567 C   0  0  0  0  0  0  0  0  0  0  0  0
    1.5108    0.7073    0.1167 C   0  0  0  0  0  0  0  0  0  0  0  0
    1.5771   -0.4505   -0.8488 C   0  0  0  0  0  0  0  0  0  0  0  0
    0.5046   -1.0582    0.0695 C   0  0  0  0  0  0  0  0  0  0  0  0
    1.4447   -0.4563    1.1193 C   0  0  0  0  0  0  0  0  0  0  0  0
   -2.5090   -0.7301   -1.2206 H   0  0  0  0  0  0  0  0  0  0  0  0
   -1.8388   -2.1567   -0.3431 H   0  0  0  0  0  0  0  0  0  0  0  0
   -2.7435   -0.8515    0.5399 H   0  0  0  0  0  0  0  0  0  0  0  0
   -0.2596    0.8460   -1.9778 H   0  0  0  0  0  0  0  0  0  0  0  0
   -1.6172    1.4610   -0.9695 H   0  0  0  0  0  0  0  0  0  0  0  0
    0.2324    2.5200    0.2432 H   0  0  0  0  0  0  0  0  0  0  0  0
   -0.7360    0.5584    1.9707 H   0  0  0  0  0  0  0  0  0  0  0  0
   -1.8229    1.3476    0.7646 H   0  0  0  0  0  0  0  0  0  0  0  0
    2.4418    1.2785    0.1420 H   0  0  0  0  0  0  0  0  0  0  0  0
    2.5202   -1.0175   -0.6657 H   0  0  0  0  0  0  0  0  0  0  0  0
    1.3736   -0.3400   -1.8749 H   0  0  0  0  0  0  0  0  0  0  0  0
    0.4756   -2.1460    0.0839 H   0  0  0  0  0  0  0  0  0  0  0  0
    1.1011   -0.2764    2.0947 H   0  0  0  0  0  0  0  0  0  0  0  0
    2.4147   -1.0052    1.0534 H   0  0  0  0  0  0  0  0  0  0  0  0
  1  2  1  0
  2  3  1  0
  3  4  1  0
  4  5  1  0
  4  6  1  0
  6  7  1  0
  7  8  1  0
  8  9  1  0
  5  2  1  0
  9  6  1  0
  8  2  1  0
  1 10  1  0
  1 11  1  0
  1 12  1  0
  3 13  1  0
  3 14  1  0
  4 15  1  0
  5 16  1  0
  5 17  1  0
  6 18  1  0
  7 19  1  0
  7 20  1  0
  8 21  1  0
  9 22  1  0
  9 23  1  0
M  END
