
     RDKit          3D

 19 20  0  0  0  0  0  0  0  0999 V2000
    2.1722   -0.1238    0.1124 C   0  0  0  0  0  0  0  0  0  0  0  0
    0.7444    0.1165    0.2413 C   0  0  0  0  0  0  0  0  0  0  0  0
   -0.1024   -1.0529    0.6653 C   0  0  0  0  0  0  0  0  0  0  0  0
   -1.4182   -0.9050   -0.0930 C   0  0  0  0  0  0  0  0  0  0  0  0
   -1.3213    0.5655   -0.4760 C   0  0  0  0  0  0  0  0  0  0  0  0
    0.0907    0.5417   -1.0894 C   0  0  0  0  0  0  0  0  0  0  0  0
   -1.0090    1.3959    0.7183 C   0  0  0  0  0  0  0  0  0  0  0  0
   -1.8339    2.1164    1.3305 O   0  0  0  0  0  0  0  0  0  0  0  0
    0.3424    1.2206    1.0144 O   0  0  0  0  0  0  0  0  0  0  0  0
    2.5830    0.5010   -0.7330 H   0  0  0  0  0  0  0  0  0  0  0  0
    2.7001    0.0721    1.0620 H   0  0  0  0  0  0  0  0  0  0  0  0
    2.3373   -1.1720   -0.2180 H   0  0  0  0  0  0  0  0  0  0  0  0
   -0.3851   -0.9525    1.7521 H   0  0  0  0  0  0  0  0  0  0  0  0
    0.3638   -2.0207    0.5201 H   0  0  0  0  0  0  0  0  0  0  0  0
   -1.4214   -1.4965   -1.0279 H   0  0  0  0  0  0  0  0  0  0  0  0
   -2.2942   -1.0990    0.5522 H   0  0  0  0  0  0  0  0  0  0  0  0
   -2.0769    0.9285   -1.1234 H   0  0  0  0  0  0  0  0  0  0  0  0
    0.3286    1.5683   -1.3488 H   0  0  0  0  0  0  0  0  0  0  0  0
    0.1998   -0.2040   -1.8592 H   0  0  0  0  0  0  0  0  0  0  0  0
  1  2  1  0
  2  3  1  0
  3  4  1  0
  4  5  1  0
  5  6  1  0
  5  7  1  0
  7  8  2  0
  7  9  1  0
  6  2  1  0
  9  2  1  0
  1 10  1  0
  1 11  1  0
  1 12  1  0
  3 13  1  0
  3 14  1  0
  4 15  1  0
  4 16  1  0
  5 17  1  0
  6 18  1  0
  6 19  1  0
M  END
