
     RDKit          3D

 21 22  0  0  0  0  0  0  0  0999 V2000
   -0.8733   -1.5998   -0.6622 C   0  0  0  0  0  0  0  0  0  0  0  0
   -0.5446   -0.3449    0.1120 C   0  0  0  0  0  0  0  0  0  0  0  0
   -1.4031    0.0187    1.2877 C   0  0  0  0  0  0  0  0  0  0  0  0
   -1.4666    0.8020    0.0584 C   0  0  0  0  0  0  0  0  0  0  0  0
   -0.6344    2.0157   -0.1754 C   0  0  0  0  0  0  0  0  0  0  0  0
    0.7579    1.5149   -0.0647 C   0  0  0  0  0  0  0  0  0  0  0  0
    0.8107    0.2034    0.0951 C   0  0  0  0  0  0  0  0  0  0  0  0
    2.0615   -0.6330    0.2411 C   0  0  0  0  0  0  0  0  0  0  0  0
    2.1265   -1.5634   -0.7793 O   0  0  0  0  0  0  0  0  0  0  0  0
   -0.9568   -1.4299   -1.7449 H   0  0  0  0  0  0  0  0  0  0  0  0
   -1.8091   -2.0572   -0.2366 H   0  0  0  0  0  0  0  0  0  0  0  0
   -0.0619   -2.3340   -0.4845 H   0  0  0  0  0  0  0  0  0  0  0  0
   -2.2172   -0.6958    1.4891 H   0  0  0  0  0  0  0  0  0  0  0  0
   -0.8508    0.3216    2.1895 H   0  0  0  0  0  0  0  0  0  0  0  0
   -2.4163    0.7755   -0.5063 H   0  0  0  0  0  0  0  0  0  0  0  0
   -0.7573    2.7667    0.6524 H   0  0  0  0  0  0  0  0  0  0  0  0
   -0.8431    2.4915   -1.1461 H   0  0  0  0  0  0  0  0  0  0  0  0
    1.6897    2.1071   -0.1022 H   0  0  0  0  0  0  0  0  0  0  0  0
    2.9624   -0.0131    0.2276 H   0  0  0  0  0  0  0  0  0  0  0  0
    2.0497   -1.1842    1.2039 H   0  0  0  0  0  0  0  0  0  0  0  0
    2.3761   -1.1615   -1.6547 H   0  0  0  0  0  0  0  0  0  0  0  0
  1  2  1  0
  2  3  1  0
  3  4  1  0
  4  5  1  0
  5  6  1  0
  6  7  2  0
  7  8  1  0
  8  9  1  0
  4  2  1  0
  7  2  1  0
  1 10  1  0
  1 11  1  0
  1 12  1  0
  3 13  1  0
  3 14  1  0
  4 15  1  0
  5 16  1  0
  5 17  1  0
  6 18  1  0
  8 19  1  0
  8 20  1  0
  9 21  1  0
M  END
