
     RDKit          3D

 21 23  0  0  0  0  0  0  0  0999 V2000
    2.3299    0.6877   -0.6246 C   0  0  0  0  0  0  0  0  0  0  0  0
    0.9097    0.5180   -0.1789 C   0  0  0  0  0  0  0  0  0  0  0  0
    0.7184    0.5445    1.1842 O   0  0  0  0  0  0  0  0  0  0  0  0
    0.2570   -0.6916    1.5866 C   0  0  0  0  0  0  0  0  0  0  0  0
   -0.6035   -1.1685    0.4083 C   0  0  0  0  0  0  0  0  0  0  0  0
   -1.8862   -0.3985    0.3318 C   0  0  0  0  0  0  0  0  0  0  0  0
   -1.5878    0.9182   -0.3422 C   0  0  0  0  0  0  0  0  0  0  0  0
   -0.2430    0.7373   -1.0450 C   0  0  0  0  0  0  0  0  0  0  0  0
    0.1790   -0.6338   -0.7557 C   0  0  0  0  0  0  0  0  0  0  0  0
    2.6575    1.7099   -0.2996 H   0  0  0  0  0  0  0  0  0  0  0  0
    2.4993    0.5095   -1.6926 H   0  0  0  0  0  0  0  0  0  0  0  0
    2.9492   -0.0099    0.0126 H   0  0  0  0  0  0  0  0  0  0  0  0
   -0.3188   -0.6605    2.5131 H   0  0  0  0  0  0  0  0  0  0  0  0
    1.1417   -1.3712    1.6244 H   0  0  0  0  0  0  0  0  0  0  0  0
   -0.7494   -2.2467    0.4084 H   0  0  0  0  0  0  0  0  0  0  0  0
   -2.2270   -0.2136    1.3703 H   0  0  0  0  0  0  0  0  0  0  0  0
   -2.6305   -0.9858   -0.2366 H   0  0  0  0  0  0  0  0  0  0  0  0
   -1.4100    1.7325    0.4194 H   0  0  0  0  0  0  0  0  0  0  0  0
   -2.3792    1.2351   -1.0406 H   0  0  0  0  0  0  0  0  0  0  0  0
   -0.1747    1.0612   -2.1043 H   0  0  0  0  0  0  0  0  0  0  0  0
    0.5687   -1.2737   -1.5390 H   0  0  0  0  0  0  0  0  0  0  0  0
  1  2  1  0
  2  3  1  0
  3  4  1  0
  4  5  1  0
  5  6  1  0
  6  7  1  0
  7  8  1  0
  8  9  1  0
  8  2  1  0
  9  2  1  0
  9  5  1  0
  1 10  1  0
  1 11  1  0
  1 12  1  0
  4 13  1  0
  4 14  1  0
  5 15  1  0
  6 16  1  0
  6 17  1  0
  7 18  1  0
  7 19  1  0
  8 20  1  0
  9 21  1  0
M  END
