
     RDKit          3D

 19 21  0  0  0  0  0  0  0  0999 V2000
    1.9360   -0.1463   -0.6730 C   0  0  0  0  0  0  0  0  0  0  0  0
    0.7328    0.1152    0.1641 C   0  0  0  0  0  0  0  0  0  0  0  0
    0.3836   -0.8246    1.2267 C   0  0  0  0  0  0  0  0  0  0  0  0
   -0.4647   -0.8945    0.0344 C   0  0  0  0  0  0  0  0  0  0  0  0
   -0.2651   -1.8327   -0.9682 O   0  0  0  0  0  0  0  0  0  0  0  0
   -1.5233    0.1317   -0.2732 C   0  0  0  0  0  0  0  0  0  0  0  0
   -1.3251    1.2872    0.6556 C   0  0  0  0  0  0  0  0  0  0  0  0
   -0.0614    1.3504   -0.1415 C   0  0  0  0  0  0  0  0  0  0  0  0
   -0.8376    0.9064   -1.2415 O   0  0  0  0  0  0  0  0  0  0  0  0
    1.6252   -0.7706   -1.5387 H   0  0  0  0  0  0  0  0  0  0  0  0
    2.7477   -0.6677   -0.1077 H   0  0  0  0  0  0  0  0  0  0  0  0
    2.3021    0.8138   -1.0863 H   0  0  0  0  0  0  0  0  0  0  0  0
    1.0808   -1.6749    1.3674 H   0  0  0  0  0  0  0  0  0  0  0  0
   -0.1222   -0.5255    2.1751 H   0  0  0  0  0  0  0  0  0  0  0  0
   -0.8824   -2.5836   -0.8807 H   0  0  0  0  0  0  0  0  0  0  0  0
   -2.5092   -0.1926   -0.5238 H   0  0  0  0  0  0  0  0  0  0  0  0
   -1.2625    1.0983    1.7197 H   0  0  0  0  0  0  0  0  0  0  0  0
   -2.0007    2.1220    0.3527 H   0  0  0  0  0  0  0  0  0  0  0  0
    0.4460    2.2880   -0.2612 H   0  0  0  0  0  0  0  0  0  0  0  0
  1  2  1  0
  2  3  1  0
  3  4  1  0
  4  5  1  0
  4  6  1  0
  6  7  1  0
  7  8  1  0
  8  9  1  0
  4  2  1  0
  9  6  1  0
  8  2  1  0
  1 10  1  0
  1 11  1  0
  1 12  1  0
  3 13  1  0
  3 14  1  0
  5 15  1  0
  6 16  1  0
  7 17  1  0
  7 18  1  0
  8 19  1  0
M  END
