
     RDKit          3D

 19 21  0  0  0  0  0  0  0  0999 V2000
    2.4146   -0.1563    0.4473 C   0  0  0  0  0  0  0  0  0  0  0  0
    0.9946   -0.6223    0.4451 C   0  0  0  0  0  0  0  0  0  0  0  0
    0.5853   -1.7058   -0.5179 C   0  0  0  0  0  0  0  0  0  0  0  0
    0.2100   -0.2739   -0.7844 C   0  0  0  0  0  0  0  0  0  0  0  0
   -0.6373    0.3884    0.2320 C   0  0  0  0  0  0  0  0  0  0  0  0
   -1.1511    1.7414    0.1627 C   0  0  0  0  0  0  0  0  0  0  0  0
   -2.0702    0.5706    0.1563 C   0  0  0  0  0  0  0  0  0  0  0  0
   -2.8804    0.2811    1.2399 O   0  0  0  0  0  0  0  0  0  0  0  0
    0.0586   -0.0970    1.3006 O   0  0  0  0  0  0  0  0  0  0  0  0
    2.8125   -0.3286   -0.5954 H   0  0  0  0  0  0  0  0  0  0  0  0
    3.0004   -0.8503    1.0877 H   0  0  0  0  0  0  0  0  0  0  0  0
    2.5614    0.8989    0.6667 H   0  0  0  0  0  0  0  0  0  0  0  0
    1.4420   -2.1683   -1.0483 H   0  0  0  0  0  0  0  0  0  0  0  0
   -0.2765   -2.3451   -0.2185 H   0  0  0  0  0  0  0  0  0  0  0  0
    0.6779    0.2763   -1.6209 H   0  0  0  0  0  0  0  0  0  0  0  0
   -1.1052    2.4049   -0.7120 H   0  0  0  0  0  0  0  0  0  0  0  0
   -1.1695    2.3179    1.1334 H   0  0  0  0  0  0  0  0  0  0  0  0
   -2.5486    0.3828   -0.8475 H   0  0  0  0  0  0  0  0  0  0  0  0
   -2.9184   -0.7148    1.3059 H   0  0  0  0  0  0  0  0  0  0  0  0
  1  2  1  0
  2  3  1  0
  3  4  1  0
  4  5  1  0
  5  6  1  0
  6  7  1  0
  7  8  1  0
  5  9  1  0
  4  2  1  0
  7  5  1  0
  9  2  1  0
  1 10  1  0
  1 11  1  0
  1 12  1  0
  3 13  1  0
  3 14  1  0
  4 15  1  0
  6 16  1  0
  6 17  1  0
  7 18  1  0
  8 19  1  0
M  END
