
     RDKit          3D

 19 20  0  0  0  0  0  0  0  0999 V2000
   -1.5385   -1.2423    0.5270 C   0  0  0  0  0  0  0  0  0  0  0  0
   -0.3610   -0.4464    0.2612 C   0  0  0  0  0  0  0  0  0  0  0  0
    0.5321   -0.7883   -0.9087 C   0  0  0  0  0  0  0  0  0  0  0  0
    1.6402    0.2492   -0.6451 C   0  0  0  0  0  0  0  0  0  0  0  0
    0.9693    1.0208    0.4593 C   0  0  0  0  0  0  0  0  0  0  0  0
    0.5468   -0.0615    1.3632 C   0  0  0  0  0  0  0  0  0  0  0  0
    0.7671   -0.4901    2.4494 O   0  0  0  0  0  0  0  0  0  0  0  0
   -0.5162    1.0535    0.0493 C   0  0  0  0  0  0  0  0  0  0  0  0
   -0.6880    1.4521   -1.2522 O   0  0  0  0  0  0  0  0  0  0  0  0
   -1.2950   -2.0331    1.2973 H   0  0  0  0  0  0  0  0  0  0  0  0
   -2.4058   -0.6969    0.9259 H   0  0  0  0  0  0  0  0  0  0  0  0
   -1.8417   -1.8141   -0.3793 H   0  0  0  0  0  0  0  0  0  0  0  0
    0.9183   -1.8062   -0.8888 H   0  0  0  0  0  0  0  0  0  0  0  0
    0.0341   -0.5771   -1.8765 H   0  0  0  0  0  0  0  0  0  0  0  0
    1.8765    0.8306   -1.5306 H   0  0  0  0  0  0  0  0  0  0  0  0
    2.4768   -0.3162   -0.2064 H   0  0  0  0  0  0  0  0  0  0  0  0
    1.3927    1.9126    0.8302 H   0  0  0  0  0  0  0  0  0  0  0  0
   -1.1366    1.5585    0.7876 H   0  0  0  0  0  0  0  0  0  0  0  0
   -1.3710    2.1948   -1.2626 H   0  0  0  0  0  0  0  0  0  0  0  0
  1  2  1  0
  2  3  1  0
  3  4  1  0
  4  5  1  0
  5  6  1  0
  6  7  2  0
  5  8  1  0
  8  9  1  0
  6  2  1  0
  8  2  1  0
  1 10  1  0
  1 11  1  0
  1 12  1  0
  3 13  1  0
  3 14  1  0
  4 15  1  0
  4 16  1  0
  5 17  1  0
  8 18  1  0
  9 19  1  0
M  END
