
     RDKit          3D

 21 23  0  0  0  0  0  0  0  0999 V2000
   -2.3542    0.5644    0.4557 C   0  0  0  0  0  0  0  0  0  0  0  0
   -0.9625    0.2377   -0.0485 C   0  0  0  0  0  0  0  0  0  0  0  0
   -0.8509   -0.8187   -1.0794 C   0  0  0  0  0  0  0  0  0  0  0  0
    0.3130   -1.4125   -0.3427 C   0  0  0  0  0  0  0  0  0  0  0  0
    1.5016   -1.0945   -0.9524 O   0  0  0  0  0  0  0  0  0  0  0  0
    2.2470   -0.1416   -0.2987 C   0  0  0  0  0  0  0  0  0  0  0  0
    1.4825    1.1394   -0.0811 C   0  0  0  0  0  0  0  0  0  0  0  0
    0.1820    0.8766    0.6108 C   0  0  0  0  0  0  0  0  0  0  0  0
   -0.0312   -0.5582    0.8365 C   0  0  0  0  0  0  0  0  0  0  0  0
   -2.8517    1.1348   -0.3739 H   0  0  0  0  0  0  0  0  0  0  0  0
   -2.3212    1.2153    1.3656 H   0  0  0  0  0  0  0  0  0  0  0  0
   -2.9137   -0.3391    0.7455 H   0  0  0  0  0  0  0  0  0  0  0  0
   -0.6673   -0.4590   -2.0993 H   0  0  0  0  0  0  0  0  0  0  0  0
   -1.7404   -1.4924   -1.0614 H   0  0  0  0  0  0  0  0  0  0  0  0
    0.2593   -2.4975   -0.1439 H   0  0  0  0  0  0  0  0  0  0  0  0
    3.1192    0.0993   -0.9588 H   0  0  0  0  0  0  0  0  0  0  0  0
    2.6692   -0.5030    0.6737 H   0  0  0  0  0  0  0  0  0  0  0  0
    1.3705    1.7038   -1.0259 H   0  0  0  0  0  0  0  0  0  0  0  0
    2.1227    1.7785    0.5808 H   0  0  0  0  0  0  0  0  0  0  0  0
   -0.0633    1.5438    1.4659 H   0  0  0  0  0  0  0  0  0  0  0  0
   -0.5107   -0.9773    1.7314 H   0  0  0  0  0  0  0  0  0  0  0  0
  1  2  1  0
  2  3  1  0
  3  4  1  0
  4  5  1  0
  5  6  1  0
  6  7  1  0
  7  8  1  0
  8  9  1  0
  8  2  1  0
  9  2  1  0
  9  4  1  0
  1 10  1  0
  1 11  1  0
  1 12  1  0
  3 13  1  0
  3 14  1  0
  4 15  1  0
  6 16  1  0
  6 17  1  0
  7 18  1  0
  7 19  1  0
  8 20  1  0
  9 21  1  0
M  END
