
     RDKit          3D

 23 25  0  0  0  0  0  0  0  0999 V2000
   -2.7197   -0.5452   -0.0337 C   0  0  0  0  0  0  0  0  0  0  0  0
   -1.4505    0.1711    0.3778 C   0  0  0  0  0  0  0  0  0  0  0  0
   -1.2838    1.5672   -0.0568 C   0  0  0  0  0  0  0  0  0  0  0  0
   -0.5254    0.4878   -0.8260 C   0  0  0  0  0  0  0  0  0  0  0  0
    0.5797   -0.1175   -0.0750 C   0  0  0  0  0  0  0  0  0  0  0  0
    1.5817   -0.9657   -0.6937 C   0  0  0  0  0  0  0  0  0  0  0  0
    2.6462   -0.2664    0.1700 C   0  0  0  0  0  0  0  0  0  0  0  0
    1.6507    0.8605    0.3420 C   0  0  0  0  0  0  0  0  0  0  0  0
   -0.3262   -0.6235    0.9703 C   0  0  0  0  0  0  0  0  0  0  0  0
   -3.4367    0.2033   -0.4182 H   0  0  0  0  0  0  0  0  0  0  0  0
   -2.4408   -1.2941   -0.8275 H   0  0  0  0  0  0  0  0  0  0  0  0
   -3.1678   -1.1029    0.7927 H   0  0  0  0  0  0  0  0  0  0  0  0
   -0.5907    2.2610    0.4661 H   0  0  0  0  0  0  0  0  0  0  0  0
   -2.1384    2.0551   -0.5133 H   0  0  0  0  0  0  0  0  0  0  0  0
   -0.8495    0.1957   -1.8170 H   0  0  0  0  0  0  0  0  0  0  0  0
    1.7545   -0.7909   -1.7873 H   0  0  0  0  0  0  0  0  0  0  0  0
    1.6035   -2.0447   -0.4316 H   0  0  0  0  0  0  0  0  0  0  0  0
    3.5180   -0.0057   -0.4411 H   0  0  0  0  0  0  0  0  0  0  0  0
    2.8455   -0.8002    1.1234 H   0  0  0  0  0  0  0  0  0  0  0  0
    1.5474    1.2671    1.3498 H   0  0  0  0  0  0  0  0  0  0  0  0
    1.7713    1.6149   -0.4820 H   0  0  0  0  0  0  0  0  0  0  0  0
   -0.0309   -0.4055    1.9936 H   0  0  0  0  0  0  0  0  0  0  0  0
   -0.5380   -1.7216    0.8176 H   0  0  0  0  0  0  0  0  0  0  0  0
  1  2  1  0
  2  3  1  0
  3  4  1  0
  4  5  1  0
  5  6  1  0
  6  7  1  0
  7  8  1  0
  5  9  1  0
  4  2  1  0
  8  5  1  0
  9  2  1  0
  1 10  1  0
  1 11  1  0
  1 12  1  0
  3 13  1  0
  3 14  1  0
  4 15  1  0
  6 16  1  0
  6 17  1  0
  7 18  1  0
  7 19  1  0
  8 20  1  0
  8 21  1  0
  9 22  1  0
  9 23  1  0
M  END
