
     RDKit          3D

 19 21  0  0  0  0  0  0  0  0999 V2000
    2.2852    0.0927    0.1741 C   0  0  0  0  0  0  0  0  0  0  0  0
    0.8406    0.2064    0.2315 C   0  0  0  0  0  0  0  0  0  0  0  0
    0.3419    1.5400    0.2287 O   0  0  0  0  0  0  0  0  0  0  0  0
   -1.0251    1.1529    0.2097 C   0  0  0  0  0  0  0  0  0  0  0  0
   -0.9699    0.5270   -1.1992 C   0  0  0  0  0  0  0  0  0  0  0  0
    0.0363   -0.5562   -0.7626 C   0  0  0  0  0  0  0  0  0  0  0  0
   -0.9503   -1.2801    0.1770 C   0  0  0  0  0  0  0  0  0  0  0  0
   -1.0491   -0.0401    1.0944 C   0  0  0  0  0  0  0  0  0  0  0  0
    0.3071   -0.1087    1.5160 O   0  0  0  0  0  0  0  0  0  0  0  0
    2.7609    0.9564    0.6817 H   0  0  0  0  0  0  0  0  0  0  0  0
    2.6595   -0.0930   -0.8411 H   0  0  0  0  0  0  0  0  0  0  0  0
    2.6078   -0.8066    0.7800 H   0  0  0  0  0  0  0  0  0  0  0  0
   -1.7230    1.9218    0.3351 H   0  0  0  0  0  0  0  0  0  0  0  0
   -1.9484    0.1169   -1.4147 H   0  0  0  0  0  0  0  0  0  0  0  0
   -0.5392    1.2032   -1.9291 H   0  0  0  0  0  0  0  0  0  0  0  0
    0.4762   -1.1192   -1.5067 H   0  0  0  0  0  0  0  0  0  0  0  0
   -1.8961   -1.4931   -0.3073 H   0  0  0  0  0  0  0  0  0  0  0  0
   -0.4496   -2.1084    0.6725 H   0  0  0  0  0  0  0  0  0  0  0  0
   -1.7647   -0.1119    1.8601 H   0  0  0  0  0  0  0  0  0  0  0  0
  1  2  1  0
  2  3  1  0
  3  4  1  0
  4  5  1  0
  5  6  1  0
  6  7  1  0
  7  8  1  0
  8  9  1  0
  6  2  1  0
  9  2  1  0
  8  4  1  0
  1 10  1  0
  1 11  1  0
  1 12  1  0
  4 13  1  0
  5 14  1  0
  5 15  1  0
  6 16  1  0
  7 17  1  0
  7 18  1  0
  8 19  1  0
M  END
