
     RDKit          3D

 21 22  0  0  0  0  0  0  0  0999 V2000
   -2.2967   -0.1293    0.1558 C   0  0  0  0  0  0  0  0  0  0  0  0
   -0.9091   -0.0103   -0.2191 C   0  0  0  0  0  0  0  0  0  0  0  0
   -0.3279   -1.0489   -1.1413 C   0  0  0  0  0  0  0  0  0  0  0  0
    1.0441   -0.8546   -1.0122 O   0  0  0  0  0  0  0  0  0  0  0  0
    1.2892    0.0664   -0.0341 C   0  0  0  0  0  0  0  0  0  0  0  0
    2.5979   -0.0110    0.6275 C   0  0  0  0  0  0  0  0  0  0  0  0
    0.1080   -0.1732    0.9280 C   0  0  0  0  0  0  0  0  0  0  0  0
    0.9501    1.3308   -0.5219 O   0  0  0  0  0  0  0  0  0  0  0  0
   -0.4346    1.3812   -0.6503 C   0  0  0  0  0  0  0  0  0  0  0  0
   -2.8739    0.7756   -0.1998 H   0  0  0  0  0  0  0  0  0  0  0  0
   -2.5121   -0.1894    1.2418 H   0  0  0  0  0  0  0  0  0  0  0  0
   -2.7869   -0.9842   -0.3881 H   0  0  0  0  0  0  0  0  0  0  0  0
   -0.6947   -1.0031   -2.1638 H   0  0  0  0  0  0  0  0  0  0  0  0
   -0.5584   -2.0479   -0.6658 H   0  0  0  0  0  0  0  0  0  0  0  0
    2.5621   -0.8020    1.4317 H   0  0  0  0  0  0  0  0  0  0  0  0
    3.3505   -0.4053   -0.1050 H   0  0  0  0  0  0  0  0  0  0  0  0
    2.9103    0.9072    1.1107 H   0  0  0  0  0  0  0  0  0  0  0  0
    0.0441    0.6434    1.6465 H   0  0  0  0  0  0  0  0  0  0  0  0
    0.1090   -1.1796    1.3333 H   0  0  0  0  0  0  0  0  0  0  0  0
   -0.7760    1.6487   -1.6476 H   0  0  0  0  0  0  0  0  0  0  0  0
   -0.7950    2.0856    0.1519 H   0  0  0  0  0  0  0  0  0  0  0  0
  1  2  1  0
  2  3  1  0
  3  4  1  0
  4  5  1  0
  5  6  1  0
  5  7  1  0
  5  8  1  0
  8  9  1  0
  7  2  1  0
  9  2  1  0
  1 10  1  0
  1 11  1  0
  1 12  1  0
  3 13  1  0
  3 14  1  0
  6 15  1  0
  6 16  1  0
  6 17  1  0
  7 18  1  0
  7 19  1  0
  9 20  1  0
  9 21  1  0
M  END
