
     RDKit          3D

 21 22  0  0  0  0  0  0  0  0999 V2000
    2.3437   -0.0763   -0.2435 C   0  0  0  0  0  0  0  0  0  0  0  0
    0.8622   -0.0291   -0.2061 C   0  0  0  0  0  0  0  0  0  0  0  0
    0.2183    1.1701   -0.8171 C   0  0  0  0  0  0  0  0  0  0  0  0
   -1.0581    1.3826   -0.4983 C   0  0  0  0  0  0  0  0  0  0  0  0
   -1.8489    0.1665   -0.1143 C   0  0  0  0  0  0  0  0  0  0  0  0
   -2.6385    0.5433    0.9702 O   0  0  0  0  0  0  0  0  0  0  0  0
   -0.9239   -0.9210    0.3642 C   0  0  0  0  0  0  0  0  0  0  0  0
    0.2218   -0.2767    1.1586 C   0  0  0  0  0  0  0  0  0  0  0  0
    0.1321   -1.2708   -0.6806 C   0  0  0  0  0  0  0  0  0  0  0  0
    2.7126   -0.7943   -0.9797 H   0  0  0  0  0  0  0  0  0  0  0  0
    2.7066    0.9341   -0.5862 H   0  0  0  0  0  0  0  0  0  0  0  0
    2.7824   -0.2239    0.7618 H   0  0  0  0  0  0  0  0  0  0  0  0
    0.8031    1.7805   -1.4633 H   0  0  0  0  0  0  0  0  0  0  0  0
   -1.5207    2.3668   -0.5083 H   0  0  0  0  0  0  0  0  0  0  0  0
   -2.4945   -0.1786   -0.9455 H   0  0  0  0  0  0  0  0  0  0  0  0
   -2.0497    1.0737    1.5929 H   0  0  0  0  0  0  0  0  0  0  0  0
   -1.4114   -1.7589    0.8485 H   0  0  0  0  0  0  0  0  0  0  0  0
    0.7984   -1.0572    1.7274 H   0  0  0  0  0  0  0  0  0  0  0  0
   -0.0531    0.6173    1.7164 H   0  0  0  0  0  0  0  0  0  0  0  0
    0.6381   -2.2082   -0.3743 H   0  0  0  0  0  0  0  0  0  0  0  0
   -0.2206   -1.2399   -1.7227 H   0  0  0  0  0  0  0  0  0  0  0  0
  1  2  1  0
  2  3  1  0
  3  4  2  0
  4  5  1  0
  5  6  1  0
  5  7  1  0
  7  8  1  0
  7  9  1  0
  8  2  1  0
  9  2  1  0
  1 10  1  0
  1 11  1  0
  1 12  1  0
  3 13  1  0
  4 14  1  0
  5 15  1  0
  6 16  1  0
  7 17  1  0
  8 18  1  0
  8 19  1  0
  9 20  1  0
  9 21  1  0
M  END
