
     RDKit          3D

 21 23  0  0  0  0  0  0  0  0999 V2000
    2.0997   -0.5622    0.2735 C   0  0  0  0  0  0  0  0  0  0  0  0
    0.6935   -0.1758    0.2591 C   0  0  0  0  0  0  0  0  0  0  0  0
   -0.2344   -0.2252    1.3874 C   0  0  0  0  0  0  0  0  0  0  0  0
   -1.4387   -0.9424    0.8308 C   0  0  0  0  0  0  0  0  0  0  0  0
   -1.4677   -0.5593   -0.6216 C   0  0  0  0  0  0  0  0  0  0  0  0
   -0.1308    0.0837   -0.9358 C   0  0  0  0  0  0  0  0  0  0  0  0
    0.3846   -0.1424   -2.1728 O   0  0  0  0  0  0  0  0  0  0  0  0
   -0.2081    1.5568   -0.5091 C   0  0  0  0  0  0  0  0  0  0  0  0
    0.1811    1.1011    0.8669 C   0  0  0  0  0  0  0  0  0  0  0  0
    2.2875   -1.6603    0.4006 H   0  0  0  0  0  0  0  0  0  0  0  0
    2.6028   -0.0898    1.1665 H   0  0  0  0  0  0  0  0  0  0  0  0
    2.6346   -0.2437   -0.6192 H   0  0  0  0  0  0  0  0  0  0  0  0
    0.1594   -0.4935    2.3753 H   0  0  0  0  0  0  0  0  0  0  0  0
   -1.2652   -2.0386    0.8958 H   0  0  0  0  0  0  0  0  0  0  0  0
   -2.3384   -0.6209    1.3858 H   0  0  0  0  0  0  0  0  0  0  0  0
   -1.7168   -1.3746   -1.3016 H   0  0  0  0  0  0  0  0  0  0  0  0
   -2.2865    0.2119   -0.7256 H   0  0  0  0  0  0  0  0  0  0  0  0
   -0.2176    0.3198   -2.8401 H   0  0  0  0  0  0  0  0  0  0  0  0
    0.6486    2.1189   -0.9697 H   0  0  0  0  0  0  0  0  0  0  0  0
   -1.1966    2.0001   -0.6324 H   0  0  0  0  0  0  0  0  0  0  0  0
    0.8091    1.7363    1.4864 H   0  0  0  0  0  0  0  0  0  0  0  0
  1  2  1  0
  2  3  1  0
  3  4  1  0
  4  5  1  0
  5  6  1  0
  6  7  1  0
  6  8  1  0
  8  9  1  0
  6  2  1  0
  9  2  1  0
  9  3  1  0
  1 10  1  0
  1 11  1  0
  1 12  1  0
  3 13  1  0
  4 14  1  0
  4 15  1  0
  5 16  1  0
  5 17  1  0
  7 18  1  0
  8 19  1  0
  8 20  1  0
  9 21  1  0
M  END
