
     RDKit          3D

 19 20  0  0  0  0  0  0  0  0999 V2000
   -2.2236   -0.4881    0.1121 C   0  0  0  0  0  0  0  0  0  0  0  0
   -0.8530   -0.2466   -0.1378 C   0  0  0  0  0  0  0  0  0  0  0  0
   -0.5816    1.2030   -0.2586 C   0  0  0  0  0  0  0  0  0  0  0  0
    0.7833    1.4853    0.2575 C   0  0  0  0  0  0  0  0  0  0  0  0
    1.4515    0.3770    0.0321 C   0  0  0  0  0  0  0  0  0  0  0  0
    2.8399    0.1386    0.3555 C   0  0  0  0  0  0  0  0  0  0  0  0
    3.3607   -0.9634    0.0885 O   0  0  0  0  0  0  0  0  0  0  0  0
    0.4536   -0.5211   -0.6106 C   0  0  0  0  0  0  0  0  0  0  0  0
   -0.1573   -1.4820    0.1063 C   0  0  0  0  0  0  0  0  0  0  0  0
   -2.5387   -0.0644    1.1165 H   0  0  0  0  0  0  0  0  0  0  0  0
   -2.8630    0.1118   -0.6111 H   0  0  0  0  0  0  0  0  0  0  0  0
   -2.6929   -1.4892    0.0845 H   0  0  0  0  0  0  0  0  0  0  0  0
   -1.2546    1.8635    0.2659 H   0  0  0  0  0  0  0  0  0  0  0  0
   -0.5757    1.5382   -1.3377 H   0  0  0  0  0  0  0  0  0  0  0  0
    1.1394    2.3946    0.7125 H   0  0  0  0  0  0  0  0  0  0  0  0
    3.4371    0.8941    0.8237 H   0  0  0  0  0  0  0  0  0  0  0  0
    0.6143   -0.5702   -1.7284 H   0  0  0  0  0  0  0  0  0  0  0  0
    0.2217   -1.7864    1.1320 H   0  0  0  0  0  0  0  0  0  0  0  0
   -0.5610   -2.3949   -0.4029 H   0  0  0  0  0  0  0  0  0  0  0  0
  1  2  1  0
  2  3  1  0
  3  4  1  0
  4  5  2  0
  5  6  1  0
  6  7  2  0
  5  8  1  0
  8  9  1  0
  8  2  1  0
  9  2  1  0
  1 10  1  0
  1 11  1  0
  1 12  1  0
  3 13  1  0
  3 14  1  0
  4 15  1  0
  6 16  1  0
  8 17  1  0
  9 18  1  0
  9 19  1  0
M  END
