
     RDKit          3D

 15 17  0  0  0  0  0  0  0  0999 V2000
    2.1983   -0.3960    0.0617 C   0  0  0  0  0  0  0  0  0  0  0  0
    0.8032    0.0297    0.3401 C   0  0  0  0  0  0  0  0  0  0  0  0
    0.4839    1.0610    1.1680 O   0  0  0  0  0  0  0  0  0  0  0  0
    0.0326    1.0308   -0.1398 C   0  0  0  0  0  0  0  0  0  0  0  0
   -1.0696    0.0994   -0.5505 C   0  0  0  0  0  0  0  0  0  0  0  0
   -2.4476    0.3742   -0.1538 C   0  0  0  0  0  0  0  0  0  0  0  0
   -2.7133    1.4566    0.3467 O   0  0  0  0  0  0  0  0  0  0  0  0
   -0.7803   -1.1297   -1.1162 O   0  0  0  0  0  0  0  0  0  0  0  0
   -0.2841   -1.0084    0.1596 C   0  0  0  0  0  0  0  0  0  0  0  0
    2.4807   -1.2194    0.7514 H   0  0  0  0  0  0  0  0  0  0  0  0
    2.2086   -0.8411   -0.9749 H   0  0  0  0  0  0  0  0  0  0  0  0
    2.9102    0.4314    0.0736 H   0  0  0  0  0  0  0  0  0  0  0  0
    0.1581    1.9614   -0.6781 H   0  0  0  0  0  0  0  0  0  0  0  0
   -3.2078   -0.3908   -0.3125 H   0  0  0  0  0  0  0  0  0  0  0  0
   -0.7728   -1.4593    1.0248 H   0  0  0  0  0  0  0  0  0  0  0  0
  1  2  1  0
  2  3  1  0
  3  4  1  0
  4  5  1  0
  5  6  1  0
  6  7  2  0
  5  8  1  0
  8  9  1  0
  4  2  1  0
  9  5  1  0
  9  2  1  0
  1 10  1  0
  1 11  1  0
  1 12  1  0
  4 13  1  0
  6 14  1  0
  9 15  1  0
M  END
