
     RDKit          3D

 18 20  0  0  0  0  0  0  0  0999 V2000
   -1.1000    0.9381   -1.0594 C   0  0  0  0  0  0  0  0  0  0  0  0
   -0.5003    0.3171    0.1385 C   0  0  0  0  0  0  0  0  0  0  0  0
   -1.5072   -0.4003    1.0639 C   0  0  0  0  0  0  0  0  0  0  0  0
   -0.6313   -1.2443    0.2892 C   0  0  0  0  0  0  0  0  0  0  0  0
    0.6755   -1.6054    0.6832 O   0  0  0  0  0  0  0  0  0  0  0  0
    1.3974   -0.8018   -0.1564 C   0  0  0  0  0  0  0  0  0  0  0  0
    2.1538    0.3705   -0.0221 C   0  0  0  0  0  0  0  0  0  0  0  0
    0.8837    0.5049    0.5782 C   0  0  0  0  0  0  0  0  0  0  0  0
   -1.6447    1.8703   -0.7345 H   0  0  0  0  0  0  0  0  0  0  0  0
   -1.9053    0.3015   -1.5194 H   0  0  0  0  0  0  0  0  0  0  0  0
   -0.3606    1.2681   -1.7970 H   0  0  0  0  0  0  0  0  0  0  0  0
   -2.5613   -0.3681    0.7966 H   0  0  0  0  0  0  0  0  0  0  0  0
   -1.3220   -0.2223    2.1493 H   0  0  0  0  0  0  0  0  0  0  0  0
   -0.9564   -1.7837   -0.6069 H   0  0  0  0  0  0  0  0  0  0  0  0
    0.9864   -0.9578   -1.2042 H   0  0  0  0  0  0  0  0  0  0  0  0
    2.3704    1.0288   -0.9102 H   0  0  0  0  0  0  0  0  0  0  0  0
    3.0936    0.3232    0.5969 H   0  0  0  0  0  0  0  0  0  0  0  0
    0.9282    0.4613    1.7142 H   0  0  0  0  0  0  0  0  0  0  0  0
  1  2  1  0
  2  3  1  0
  3  4  1  0
  4  5  1  0
  5  6  1  0
  6  7  1  0
  7  8  1  0
  4  2  1  0
  8  6  1  0
  8  2  1  0
  1  9  1  0
  1 10  1  0
  1 11  1  0
  3 12  1  0
  3 13  1  0
  4 14  1  0
  6 15  1  0
  7 16  1  0
  7 17  1  0
  8 18  1  0
M  END
