
     RDKit          3D

 19 20  0  0  0  0  0  0  0  0999 V2000
   -0.3522    1.5217   -1.0589 C   0  0  0  0  0  0  0  0  0  0  0  0
   -0.1005    0.5037    0.0063 C   0  0  0  0  0  0  0  0  0  0  0  0
   -1.1729    0.2499    1.0368 C   0  0  0  0  0  0  0  0  0  0  0  0
   -1.3096   -1.2128    1.0167 C   0  0  0  0  0  0  0  0  0  0  0  0
   -0.4068   -1.7834    0.2248 C   0  0  0  0  0  0  0  0  0  0  0  0
    0.4745   -0.7905   -0.4082 C   0  0  0  0  0  0  0  0  0  0  0  0
    0.9109   -0.9996   -1.7159 O   0  0  0  0  0  0  0  0  0  0  0  0
    1.2733    0.1201    0.4149 C   0  0  0  0  0  0  0  0  0  0  0  0
    2.3031    0.8522   -0.1570 O   0  0  0  0  0  0  0  0  0  0  0  0
   -1.4001    1.3651   -1.4278 H   0  0  0  0  0  0  0  0  0  0  0  0
    0.3059    1.3631   -1.9353 H   0  0  0  0  0  0  0  0  0  0  0  0
   -0.3055    2.5417   -0.6812 H   0  0  0  0  0  0  0  0  0  0  0  0
   -2.1094    0.7957    0.8332 H   0  0  0  0  0  0  0  0  0  0  0  0
   -0.7649    0.5958    2.0263 H   0  0  0  0  0  0  0  0  0  0  0  0
   -2.0862   -1.7329    1.6066 H   0  0  0  0  0  0  0  0  0  0  0  0
   -0.3496   -2.8516    0.0814 H   0  0  0  0  0  0  0  0  0  0  0  0
    1.1615   -1.9633   -1.7771 H   0  0  0  0  0  0  0  0  0  0  0  0
    1.4545   -0.1945    1.4700 H   0  0  0  0  0  0  0  0  0  0  0  0
    2.4739    1.6197    0.4443 H   0  0  0  0  0  0  0  0  0  0  0  0
  1  2  1  0
  2  3  1  0
  3  4  1  0
  4  5  2  0
  5  6  1  0
  6  7  1  0
  6  8  1  0
  8  9  1  0
  6  2  1  0
  8  2  1  0
  1 10  1  0
  1 11  1  0
  1 12  1  0
  3 13  1  0
  3 14  1  0
  4 15  1  0
  5 16  1  0
  7 17  1  0
  8 18  1  0
  9 19  1  0
M  END
