
     RDKit          3D

 17 18  0  0  0  0  0  0  0  0999 V2000
    1.9508    0.3304    0.1490 C   0  0  0  0  0  0  0  0  0  0  0  0
    0.5599   -0.0555   -0.2141 C   0  0  0  0  0  0  0  0  0  0  0  0
    0.2519   -0.4077   -1.5309 O   0  0  0  0  0  0  0  0  0  0  0  0
    0.1218   -1.3560   -0.4449 C   0  0  0  0  0  0  0  0  0  0  0  0
   -1.2953   -1.4384    0.1119 C   0  0  0  0  0  0  0  0  0  0  0  0
   -1.5152   -0.3001    0.8222 O   0  0  0  0  0  0  0  0  0  0  0  0
   -0.5460    0.6291    0.5730 C   0  0  0  0  0  0  0  0  0  0  0  0
   -1.0885    1.7986   -0.1588 C   0  0  0  0  0  0  0  0  0  0  0  0
   -0.4338    2.7605   -0.4995 O   0  0  0  0  0  0  0  0  0  0  0  0
    2.0302    1.4351    0.1217 H   0  0  0  0  0  0  0  0  0  0  0  0
    2.6955   -0.0939   -0.5478 H   0  0  0  0  0  0  0  0  0  0  0  0
    2.1877    0.0420    1.2077 H   0  0  0  0  0  0  0  0  0  0  0  0
    0.6379   -2.2804   -0.6779 H   0  0  0  0  0  0  0  0  0  0  0  0
   -1.9720   -1.4674   -0.7506 H   0  0  0  0  0  0  0  0  0  0  0  0
   -1.3414   -2.3627    0.7135 H   0  0  0  0  0  0  0  0  0  0  0  0
   -0.1066    0.9719    1.5310 H   0  0  0  0  0  0  0  0  0  0  0  0
   -2.1370    1.7945   -0.4055 H   0  0  0  0  0  0  0  0  0  0  0  0
  1  2  1  0
  2  3  1  0
  3  4  1  0
  4  5  1  0
  5  6  1  0
  6  7  1  0
  7  8  1  0
  8  9  2  0
  4  2  1  0
  7  2  1  0
  1 10  1  0
  1 11  1  0
  1 12  1  0
  4 13  1  0
  5 14  1  0
  5 15  1  0
  7 16  1  0
  8 17  1  0
M  END
