
     RDKit          3D

 19 21  0  0  0  0  0  0  0  0999 V2000
    0.4305    1.3573   -0.6407 C   0  0  0  0  0  0  0  0  0  0  0  0
    0.2906    0.5730    0.6773 C   0  0  0  0  0  0  0  0  0  0  0  0
    1.4326   -0.2189    0.9366 C   0  0  0  0  0  0  0  0  0  0  0  0
    2.5631   -0.2208    0.0839 O   0  0  0  0  0  0  0  0  0  0  0  0
    0.3458   -1.0047    0.5202 C   0  0  0  0  0  0  0  0  0  0  0  0
   -0.6625   -0.9413   -0.5676 C   0  0  0  0  0  0  0  0  0  0  0  0
   -1.8323   -0.3595    0.2365 C   0  0  0  0  0  0  0  0  0  0  0  0
   -2.1528    0.9521    0.2148 O   0  0  0  0  0  0  0  0  0  0  0  0
   -1.0791    0.5834    1.1760 C   0  0  0  0  0  0  0  0  0  0  0  0
    0.9134    2.3248   -0.3007 H   0  0  0  0  0  0  0  0  0  0  0  0
   -0.5226    1.6516   -1.0748 H   0  0  0  0  0  0  0  0  0  0  0  0
    1.1453    0.9137   -1.3349 H   0  0  0  0  0  0  0  0  0  0  0  0
    1.8024   -0.2267    1.9950 H   0  0  0  0  0  0  0  0  0  0  0  0
    2.8144   -1.1732   -0.0664 H   0  0  0  0  0  0  0  0  0  0  0  0
   -0.1276   -1.5830    1.3787 H   0  0  0  0  0  0  0  0  0  0  0  0
   -0.4452   -0.3497   -1.4370 H   0  0  0  0  0  0  0  0  0  0  0  0
   -0.9426   -1.9876   -0.8395 H   0  0  0  0  0  0  0  0  0  0  0  0
   -2.5534   -1.0647    0.6607 H   0  0  0  0  0  0  0  0  0  0  0  0
   -1.4200    0.7742    2.1693 H   0  0  0  0  0  0  0  0  0  0  0  0
  1  2  1  0
  2  3  1  0
  3  4  1  0
  3  5  1  0
  5  6  1  0
  6  7  1  0
  7  8  1  0
  8  9  1  0
  5  2  1  0
  9  7  1  0
  9  2  1  0
  1 10  1  0
  1 11  1  0
  1 12  1  0
  3 13  1  0
  4 14  1  0
  5 15  1  0
  6 16  1  0
  6 17  1  0
  7 18  1  0
  9 19  1  0
M  END
