
     RDKit          3D

 21 23  0  0  0  0  0  0  0  0999 V2000
   -1.9924    1.3719    0.1585 C   0  0  0  0  0  0  0  0  0  0  0  0
   -1.0552    0.2239    0.2503 C   0  0  0  0  0  0  0  0  0  0  0  0
   -1.5138   -1.1763   -0.0766 C   0  0  0  0  0  0  0  0  0  0  0  0
   -0.4603   -0.4330   -0.9084 C   0  0  0  0  0  0  0  0  0  0  0  0
    0.9045   -0.3496   -0.3339 C   0  0  0  0  0  0  0  0  0  0  0  0
    1.6304   -1.6369   -0.1515 C   0  0  0  0  0  0  0  0  0  0  0  0
    1.4621    0.8881    0.2493 C   0  0  0  0  0  0  0  0  0  0  0  0
    1.4274    2.0700   -0.4523 O   0  0  0  0  0  0  0  0  0  0  0  0
    0.2700    0.3163    0.9135 C   0  0  0  0  0  0  0  0  0  0  0  0
   -3.0378    0.9430    0.1422 H   0  0  0  0  0  0  0  0  0  0  0  0
   -1.9682    2.0608    1.0185 H   0  0  0  0  0  0  0  0  0  0  0  0
   -1.9080    1.9297   -0.8172 H   0  0  0  0  0  0  0  0  0  0  0  0
   -1.1677   -1.9398    0.6423 H   0  0  0  0  0  0  0  0  0  0  0  0
   -2.4927   -1.3342   -0.5726 H   0  0  0  0  0  0  0  0  0  0  0  0
   -0.6889   -0.2121   -1.9495 H   0  0  0  0  0  0  0  0  0  0  0  0
    1.1520   -2.4314   -0.7960 H   0  0  0  0  0  0  0  0  0  0  0  0
    2.6529   -1.5071   -0.6137 H   0  0  0  0  0  0  0  0  0  0  0  0
    1.7818   -1.9550    0.8781 H   0  0  0  0  0  0  0  0  0  0  0  0
    2.4178    0.7431    0.8208 H   0  0  0  0  0  0  0  0  0  0  0  0
    2.2300    2.6570   -0.2714 H   0  0  0  0  0  0  0  0  0  0  0  0
    0.3562   -0.2285    1.8696 H   0  0  0  0  0  0  0  0  0  0  0  0
  1  2  1  0
  2  3  1  0
  3  4  1  0
  4  5  1  0
  5  6  1  0
  5  7  1  0
  7  8  1  0
  7  9  1  0
  4  2  1  0
  9  5  1  0
  9  2  1  0
  1 10  1  0
  1 11  1  0
  1 12  1  0
  3 13  1  0
  3 14  1  0
  4 15  1  0
  6 16  1  0
  6 17  1  0
  6 18  1  0
  7 19  1  0
  8 20  1  0
  9 21  1  0
M  END
