
     RDKit          3D

 20 21  0  0  0  0  0  0  0  0999 V2000
    1.9613   -0.6369   -0.1061 C   0  0  0  0  0  0  0  0  0  0  0  0
    0.6528   -0.0648    0.3167 C   0  0  0  0  0  0  0  0  0  0  0  0
   -0.3250   -1.0905    0.8724 C   0  0  0  0  0  0  0  0  0  0  0  0
   -1.4275   -1.0850   -0.1299 C   0  0  0  0  0  0  0  0  0  0  0  0
   -1.4789    0.3563   -0.5711 C   0  0  0  0  0  0  0  0  0  0  0  0
   -0.0991    0.9105   -0.4739 C   0  0  0  0  0  0  0  0  0  0  0  0
    0.4270    1.5657   -1.5706 O   0  0  0  0  0  0  0  0  0  0  0  0
    0.4981    1.2975    0.8448 C   0  0  0  0  0  0  0  0  0  0  0  0
    1.7464   -1.3684   -0.9391 H   0  0  0  0  0  0  0  0  0  0  0  0
    2.3256   -1.2905    0.7361 H   0  0  0  0  0  0  0  0  0  0  0  0
    2.7155    0.0888   -0.4041 H   0  0  0  0  0  0  0  0  0  0  0  0
    0.1479   -2.0731    1.0264 H   0  0  0  0  0  0  0  0  0  0  0  0
   -0.7413   -0.7410    1.8504 H   0  0  0  0  0  0  0  0  0  0  0  0
   -2.3941   -1.4031    0.3289 H   0  0  0  0  0  0  0  0  0  0  0  0
   -1.1497   -1.7305   -0.9842 H   0  0  0  0  0  0  0  0  0  0  0  0
   -2.2498    0.9270   -0.0457 H   0  0  0  0  0  0  0  0  0  0  0  0
   -1.7617    0.3436   -1.6559 H   0  0  0  0  0  0  0  0  0  0  0  0
    0.0468    2.4977   -1.5695 H   0  0  0  0  0  0  0  0  0  0  0  0
   -0.2566    1.5406    1.6246 H   0  0  0  0  0  0  0  0  0  0  0  0
    1.3626    1.9562    0.8497 H   0  0  0  0  0  0  0  0  0  0  0  0
  1  2  1  0
  2  3  1  0
  3  4  1  0
  4  5  1  0
  5  6  1  0
  6  7  1  0
  6  8  1  0
  6  2  1  0
  8  2  1  0
  1  9  1  0
  1 10  1  0
  1 11  1  0
  3 12  1  0
  3 13  1  0
  4 14  1  0
  4 15  1  0
  5 16  1  0
  5 17  1  0
  7 18  1  0
  8 19  1  0
  8 20  1  0
M  END
