
     RDKit          3D

 18 19  0  0  0  0  0  0  0  0999 V2000
    2.0120   -0.7752    0.4796 C   0  0  0  0  0  0  0  0  0  0  0  0
    0.7063   -0.1935    0.1271 C   0  0  0  0  0  0  0  0  0  0  0  0
   -0.3650   -1.2209   -0.2095 C   0  0  0  0  0  0  0  0  0  0  0  0
   -1.6023   -0.3167   -0.1341 C   0  0  0  0  0  0  0  0  0  0  0  0
   -1.0524    0.9170    0.4738 C   0  0  0  0  0  0  0  0  0  0  0  0
   -0.2851    1.6732   -0.6058 C   0  0  0  0  0  0  0  0  0  0  0  0
    0.7402    0.7503   -0.8931 O   0  0  0  0  0  0  0  0  0  0  0  0
    0.0593    0.4428    1.2151 O   0  0  0  0  0  0  0  0  0  0  0  0
    2.2493   -1.5957   -0.2418 H   0  0  0  0  0  0  0  0  0  0  0  0
    2.0912   -1.1047    1.5164 H   0  0  0  0  0  0  0  0  0  0  0  0
    2.8081    0.0021    0.2853 H   0  0  0  0  0  0  0  0  0  0  0  0
   -0.2368   -1.6613   -1.2051 H   0  0  0  0  0  0  0  0  0  0  0  0
   -0.4086   -2.0178    0.5524 H   0  0  0  0  0  0  0  0  0  0  0  0
   -2.4228   -0.7960    0.3990 H   0  0  0  0  0  0  0  0  0  0  0  0
   -1.8604   -0.0971   -1.2105 H   0  0  0  0  0  0  0  0  0  0  0  0
   -1.7195    1.5296    1.0498 H   0  0  0  0  0  0  0  0  0  0  0  0
   -0.9061    1.9029   -1.4682 H   0  0  0  0  0  0  0  0  0  0  0  0
    0.1926    2.5610   -0.1304 H   0  0  0  0  0  0  0  0  0  0  0  0
  1  2  1  0
  2  3  1  0
  3  4  1  0
  4  5  1  0
  5  6  1  0
  6  7  1  0
  5  8  1  0
  7  2  1  0
  8  2  1  0
  1  9  1  0
  1 10  1  0
  1 11  1  0
  3 12  1  0
  3 13  1  0
  4 14  1  0
  4 15  1  0
  5 16  1  0
  6 17  1  0
  6 18  1  0
M  END
