
     RDKit          3D

 17 19  0  0  0  0  0  0  0  0999 V2000
    1.9944   -0.8526    0.1615 C   0  0  0  0  0  0  0  0  0  0  0  0
    0.8017    0.0124    0.4192 C   0  0  0  0  0  0  0  0  0  0  0  0
    0.7677    0.8990    1.4699 O   0  0  0  0  0  0  0  0  0  0  0  0
    0.8921    1.4216    0.2042 C   0  0  0  0  0  0  0  0  0  0  0  0
   -0.2463    1.3990   -0.7681 C   0  0  0  0  0  0  0  0  0  0  0  0
   -0.3190    0.4083   -1.7429 O   0  0  0  0  0  0  0  0  0  0  0  0
   -0.4102   -0.0840   -0.4727 C   0  0  0  0  0  0  0  0  0  0  0  0
   -1.7136   -0.4638    0.1402 C   0  0  0  0  0  0  0  0  0  0  0  0
   -2.3719   -1.4679   -0.5740 O   0  0  0  0  0  0  0  0  0  0  0  0
    2.0041   -1.7338    0.8454 H   0  0  0  0  0  0  0  0  0  0  0  0
    2.0388   -1.1422   -0.9077 H   0  0  0  0  0  0  0  0  0  0  0  0
    2.9006   -0.2623    0.4126 H   0  0  0  0  0  0  0  0  0  0  0  0
    1.7862    2.0177    0.0307 H   0  0  0  0  0  0  0  0  0  0  0  0
   -1.1040    2.0636   -0.6463 H   0  0  0  0  0  0  0  0  0  0  0  0
   -1.5355   -0.7909    1.1883 H   0  0  0  0  0  0  0  0  0  0  0  0
   -2.4077    0.4029    0.1972 H   0  0  0  0  0  0  0  0  0  0  0  0
   -3.0774   -1.8271    0.0424 H   0  0  0  0  0  0  0  0  0  0  0  0
  1  2  1  0
  2  3  1  0
  3  4  1  0
  4  5  1  0
  5  6  1  0
  6  7  1  0
  7  8  1  0
  8  9  1  0
  4  2  1  0
  7  5  1  0
  7  2  1  0
  1 10  1  0
  1 11  1  0
  1 12  1  0
  4 13  1  0
  5 14  1  0
  8 15  1  0
  8 16  1  0
  9 17  1  0
M  END
