
     RDKit          3D

 21 22  0  0  0  0  0  0  0  0999 V2000
   -1.9171    1.5459    0.4435 C   0  0  0  0  0  0  0  0  0  0  0  0
   -1.1922    0.2690    0.1685 C   0  0  0  0  0  0  0  0  0  0  0  0
   -0.0251    0.0044    1.0404 C   0  0  0  0  0  0  0  0  0  0  0  0
    1.0102   -0.3621    0.3295 C   0  0  0  0  0  0  0  0  0  0  0  0
    2.3898   -0.7202    0.8521 C   0  0  0  0  0  0  0  0  0  0  0  0
    3.3407    0.1439    0.3026 O   0  0  0  0  0  0  0  0  0  0  0  0
    0.6409   -0.3804   -1.0999 C   0  0  0  0  0  0  0  0  0  0  0  0
   -0.8243   -0.1610   -1.1977 C   0  0  0  0  0  0  0  0  0  0  0  0
   -1.8277   -0.9078   -0.4395 C   0  0  0  0  0  0  0  0  0  0  0  0
   -2.6333    1.4010    1.2962 H   0  0  0  0  0  0  0  0  0  0  0  0
   -2.4056    1.9828   -0.4303 H   0  0  0  0  0  0  0  0  0  0  0  0
   -1.1735    2.2884    0.8094 H   0  0  0  0  0  0  0  0  0  0  0  0
    0.0065    0.0925    2.1407 H   0  0  0  0  0  0  0  0  0  0  0  0
    2.3980   -0.6007    1.9503 H   0  0  0  0  0  0  0  0  0  0  0  0
    2.5909   -1.7361    0.5085 H   0  0  0  0  0  0  0  0  0  0  0  0
    3.1188    0.3155   -0.6569 H   0  0  0  0  0  0  0  0  0  0  0  0
    0.9900   -1.3122   -1.5889 H   0  0  0  0  0  0  0  0  0  0  0  0
    1.1591    0.4844   -1.6078 H   0  0  0  0  0  0  0  0  0  0  0  0
   -1.1892    0.3827   -2.0947 H   0  0  0  0  0  0  0  0  0  0  0  0
   -1.5811   -1.9031    0.0067 H   0  0  0  0  0  0  0  0  0  0  0  0
   -2.8756   -0.8270   -0.7327 H   0  0  0  0  0  0  0  0  0  0  0  0
  1  2  1  0
  2  3  1  0
  3  4  2  0
  4  5  1  0
  5  6  1  0
  4  7  1  0
  7  8  1  0
  8  9  1  0
  8  2  1  0
  9  2  1  0
  1 10  1  0
  1 11  1  0
  1 12  1  0
  3 13  1  0
  5 14  1  0
  5 15  1  0
  6 16  1  0
  7 17  1  0
  7 18  1  0
  8 19  1  0
  9 20  1  0
  9 21  1  0
M  END
