
     RDKit          3D

 19 21  0  0  0  0  0  0  0  0999 V2000
   -2.1945   -0.6044    0.1840 C   0  0  0  0  0  0  0  0  0  0  0  0
   -0.7975   -0.0409    0.3522 C   0  0  0  0  0  0  0  0  0  0  0  0
   -0.5814    1.4046    0.5327 C   0  0  0  0  0  0  0  0  0  0  0  0
   -0.2318    0.7678   -0.7513 C   0  0  0  0  0  0  0  0  0  0  0  0
    1.1331    0.2179   -1.0261 C   0  0  0  0  0  0  0  0  0  0  0  0
    2.2070    0.2599   -0.0106 C   0  0  0  0  0  0  0  0  0  0  0  0
    1.3740   -0.9349   -0.1307 C   0  0  0  0  0  0  0  0  0  0  0  0
    0.2018   -1.0287    0.7720 C   0  0  0  0  0  0  0  0  0  0  0  0
    0.0809   -1.7918    1.7045 O   0  0  0  0  0  0  0  0  0  0  0  0
   -2.4021   -1.2292    1.0756 H   0  0  0  0  0  0  0  0  0  0  0  0
   -2.1473   -1.3320   -0.6773 H   0  0  0  0  0  0  0  0  0  0  0  0
   -2.9490    0.1772    0.0099 H   0  0  0  0  0  0  0  0  0  0  0  0
   -1.4832    2.0635    0.5232 H   0  0  0  0  0  0  0  0  0  0  0  0
    0.1742    1.7050    1.2789 H   0  0  0  0  0  0  0  0  0  0  0  0
   -0.8886    0.9461   -1.6207 H   0  0  0  0  0  0  0  0  0  0  0  0
    1.4251    0.0679   -2.0831 H   0  0  0  0  0  0  0  0  0  0  0  0
    3.2588    0.2968   -0.4068 H   0  0  0  0  0  0  0  0  0  0  0  0
    2.0668    0.9456    0.8479 H   0  0  0  0  0  0  0  0  0  0  0  0
    1.7536   -1.8902   -0.5741 H   0  0  0  0  0  0  0  0  0  0  0  0
  1  2  1  0
  2  3  1  0
  3  4  1  0
  4  5  1  0
  5  6  1  0
  6  7  1  0
  7  8  1  0
  8  9  2  0
  4  2  1  0
  7  5  1  0
  8  2  1  0
  1 10  1  0
  1 11  1  0
  1 12  1  0
  3 13  1  0
  3 14  1  0
  4 15  1  0
  5 16  1  0
  6 17  1  0
  6 18  1  0
  7 19  1  0
M  END
