
     RDKit          3D

 17 18  0  0  0  0  0  0  0  0999 V2000
   -1.8109   -1.0602    0.1490 C   0  0  0  0  0  0  0  0  0  0  0  0
   -0.4813   -0.3214    0.1673 C   0  0  0  0  0  0  0  0  0  0  0  0
   -0.6206    1.1648    0.3027 C   0  0  0  0  0  0  0  0  0  0  0  0
   -0.1343    0.5089   -0.9718 C   0  0  0  0  0  0  0  0  0  0  0  0
    1.3181    0.6848   -1.2255 C   0  0  0  0  0  0  0  0  0  0  0  0
    1.7732    1.1334   -2.2836 O   0  0  0  0  0  0  0  0  0  0  0  0
    2.1567    0.3185   -0.2083 O   0  0  0  0  0  0  0  0  0  0  0  0
    1.7500   -0.4903    0.8328 C   0  0  0  0  0  0  0  0  0  0  0  0
    0.5127   -1.0058    0.7965 O   0  0  0  0  0  0  0  0  0  0  0  0
   -1.7470   -2.0683    0.5680 H   0  0  0  0  0  0  0  0  0  0  0  0
   -2.5544   -0.4805    0.7712 H   0  0  0  0  0  0  0  0  0  0  0  0
   -2.2150   -1.0520   -0.8727 H   0  0  0  0  0  0  0  0  0  0  0  0
   -1.6158    1.6410    0.2098 H   0  0  0  0  0  0  0  0  0  0  0  0
    0.0900    1.7420    0.9195 H   0  0  0  0  0  0  0  0  0  0  0  0
   -0.8007    0.5549   -1.8743 H   0  0  0  0  0  0  0  0  0  0  0  0
    2.4913   -1.3399    0.9151 H   0  0  0  0  0  0  0  0  0  0  0  0
    1.8878    0.0701    1.8042 H   0  0  0  0  0  0  0  0  0  0  0  0
  1  2  1  0
  2  3  1  0
  3  4  1  0
  4  5  1  0
  5  6  2  0
  5  7  1  0
  7  8  1  0
  8  9  1  0
  4  2  1  0
  9  2  1  0
  1 10  1  0
  1 11  1  0
  1 12  1  0
  3 13  1  0
  3 14  1  0
  4 15  1  0
  8 16  1  0
  8 17  1  0
M  END
