
     RDKit          3D

 21 23  0  0  0  0  0  0  0  0999 V2000
   -1.0393    1.6198    0.0114 C   0  0  0  0  0  0  0  0  0  0  0  0
   -0.6957    0.2034    0.2601 C   0  0  0  0  0  0  0  0  0  0  0  0
   -1.6009   -0.5948    1.1277 C   0  0  0  0  0  0  0  0  0  0  0  0
   -1.4576   -0.9269   -0.3325 C   0  0  0  0  0  0  0  0  0  0  0  0
   -0.1493   -1.5211   -0.8198 C   0  0  0  0  0  0  0  0  0  0  0  0
    0.5733   -0.4292   -0.1258 C   0  0  0  0  0  0  0  0  0  0  0  0
    1.6197    0.3163   -0.8144 C   0  0  0  0  0  0  0  0  0  0  0  0
    2.1868    0.2947    0.6129 C   0  0  0  0  0  0  0  0  0  0  0  0
    1.4059   -0.8509    0.8962 O   0  0  0  0  0  0  0  0  0  0  0  0
   -0.3562    2.1576   -0.6495 H   0  0  0  0  0  0  0  0  0  0  0  0
   -1.1552    2.1284    1.0066 H   0  0  0  0  0  0  0  0  0  0  0  0
   -2.0730    1.6517   -0.4323 H   0  0  0  0  0  0  0  0  0  0  0  0
   -2.5698   -0.1900    1.4220 H   0  0  0  0  0  0  0  0  0  0  0  0
   -1.0590   -1.2468    1.8684 H   0  0  0  0  0  0  0  0  0  0  0  0
   -2.2825   -0.7588   -1.0300 H   0  0  0  0  0  0  0  0  0  0  0  0
   -0.0947   -1.5609   -1.9109 H   0  0  0  0  0  0  0  0  0  0  0  0
   -0.0154   -2.5199   -0.3315 H   0  0  0  0  0  0  0  0  0  0  0  0
    2.2664   -0.2459   -1.5101 H   0  0  0  0  0  0  0  0  0  0  0  0
    1.4326    1.3330   -1.1810 H   0  0  0  0  0  0  0  0  0  0  0  0
    3.2399    0.0204    0.6840 H   0  0  0  0  0  0  0  0  0  0  0  0
    1.8240    1.1201    1.2483 H   0  0  0  0  0  0  0  0  0  0  0  0
  1  2  1  0
  2  3  1  0
  3  4  1  0
  4  5  1  0
  5  6  1  0
  6  7  1  0
  7  8  1  0
  8  9  1  0
  4  2  1  0
  9  6  1  0
  6  2  1  0
  1 10  1  0
  1 11  1  0
  1 12  1  0
  3 13  1  0
  3 14  1  0
  4 15  1  0
  5 16  1  0
  5 17  1  0
  7 18  1  0
  7 19  1  0
  8 20  1  0
  8 21  1  0
M  END
