
     RDKit          3D

 18 20  0  0  0  0  0  0  0  0999 V2000
   -2.0038    0.7088   -0.6913 C   0  0  0  0  0  0  0  0  0  0  0  0
   -0.8321    0.2329    0.0885 C   0  0  0  0  0  0  0  0  0  0  0  0
   -0.9392   -1.0382    0.8434 C   0  0  0  0  0  0  0  0  0  0  0  0
   -0.0099   -0.9311   -0.3205 C   0  0  0  0  0  0  0  0  0  0  0  0
    1.2231   -0.1506   -0.1149 C   0  0  0  0  0  0  0  0  0  0  0  0
    2.4089   -0.4355    0.5001 C   0  0  0  0  0  0  0  0  0  0  0  0
    2.2845   -0.1540   -0.9666 O   0  0  0  0  0  0  0  0  0  0  0  0
    0.4083    1.0712    0.1577 C   0  0  0  0  0  0  0  0  0  0  0  0
   -1.7341    1.6358   -1.2651 H   0  0  0  0  0  0  0  0  0  0  0  0
   -2.7754    1.0675    0.0512 H   0  0  0  0  0  0  0  0  0  0  0  0
   -2.4565   -0.0256   -1.3639 H   0  0  0  0  0  0  0  0  0  0  0  0
   -1.8269   -1.6474    0.6811 H   0  0  0  0  0  0  0  0  0  0  0  0
   -0.5638   -1.0281    1.8696 H   0  0  0  0  0  0  0  0  0  0  0  0
   -0.1853   -1.4874   -1.2506 H   0  0  0  0  0  0  0  0  0  0  0  0
    3.0534    0.3634    0.9449 H   0  0  0  0  0  0  0  0  0  0  0  0
    2.7864   -1.4696    0.6821 H   0  0  0  0  0  0  0  0  0  0  0  0
    0.5055    1.8171   -0.6371 H   0  0  0  0  0  0  0  0  0  0  0  0
    0.6570    1.4706    1.1703 H   0  0  0  0  0  0  0  0  0  0  0  0
  1  2  1  0
  2  3  1  0
  3  4  1  0
  4  5  1  0
  5  6  1  0
  6  7  1  0
  5  8  1  0
  4  2  1  0
  7  5  1  0
  8  2  1  0
  1  9  1  0
  1 10  1  0
  1 11  1  0
  3 12  1  0
  3 13  1  0
  4 14  1  0
  6 15  1  0
  6 16  1  0
  8 17  1  0
  8 18  1  0
M  END
