
     RDKit          3D

 14 15  0  0  0  0  0  0  0  0999 V2000
   -0.7490   -1.3474   -0.0707 C   0  0  0  0  0  0  0  0  0  0  0  0
   -0.0038   -0.0719   -0.1583 C   0  0  0  0  0  0  0  0  0  0  0  0
    1.4906   -0.0234   -0.1352 C   0  0  0  0  0  0  0  0  0  0  0  0
    1.4266    0.9353    0.8637 O   0  0  0  0  0  0  0  0  0  0  0  0
    0.0502    0.9589    0.8558 C   0  0  0  0  0  0  0  0  0  0  0  0
   -0.6987    1.2213   -0.3900 C   0  0  0  0  0  0  0  0  0  0  0  0
   -0.0350   -2.1998   -0.0262 H   0  0  0  0  0  0  0  0  0  0  0  0
   -1.3115   -1.4891   -1.0339 H   0  0  0  0  0  0  0  0  0  0  0  0
   -1.4726   -1.4236    0.7538 H   0  0  0  0  0  0  0  0  0  0  0  0
    1.9173    0.4015   -1.0794 H   0  0  0  0  0  0  0  0  0  0  0  0
    1.9309   -0.9883    0.1392 H   0  0  0  0  0  0  0  0  0  0  0  0
   -0.5134    0.9679    1.7978 H   0  0  0  0  0  0  0  0  0  0  0  0
   -0.2345    1.8480   -1.1963 H   0  0  0  0  0  0  0  0  0  0  0  0
   -1.7971    1.2106   -0.3204 H   0  0  0  0  0  0  0  0  0  0  0  0
  1  2  1  0
  2  3  1  0
  3  4  1  0
  4  5  1  0
  5  6  1  0
  5  2  1  0
  6  2  1  0
  1  7  1  0
  1  8  1  0
  1  9  1  0
  3 10  1  0
  3 11  1  0
  5 12  1  0
  6 13  1  0
  6 14  1  0
M  END
