
     RDKit          3D

 21 23  0  0  0  0  0  0  0  0999 V2000
   -1.0267    1.8256    0.3134 C   0  0  0  0  0  0  0  0  0  0  0  0
    0.0054    0.8480    0.0492 C   0  0  0  0  0  0  0  0  0  0  0  0
    1.0325    0.5512    1.1419 C   0  0  0  0  0  0  0  0  0  0  0  0
    1.9337   -0.3829    0.3090 C   0  0  0  0  0  0  0  0  0  0  0  0
    1.1051   -0.3394   -0.9754 C   0  0  0  0  0  0  0  0  0  0  0  0
    0.8653    1.0548   -1.0553 O   0  0  0  0  0  0  0  0  0  0  0  0
   -0.2677   -0.4791   -0.4996 C   0  0  0  0  0  0  0  0  0  0  0  0
   -1.4242   -0.9795   -1.1547 C   0  0  0  0  0  0  0  0  0  0  0  0
   -0.8837   -1.6006    0.1548 C   0  0  0  0  0  0  0  0  0  0  0  0
   -1.0410    2.6602   -0.4224 H   0  0  0  0  0  0  0  0  0  0  0  0
   -0.8615    2.3108    1.3078 H   0  0  0  0  0  0  0  0  0  0  0  0
   -2.0546    1.4099    0.3518 H   0  0  0  0  0  0  0  0  0  0  0  0
    0.5128   -0.0212    1.9230 H   0  0  0  0  0  0  0  0  0  0  0  0
    1.5558    1.4410    1.4709 H   0  0  0  0  0  0  0  0  0  0  0  0
    2.9170    0.0713    0.1880 H   0  0  0  0  0  0  0  0  0  0  0  0
    1.9386   -1.3639    0.7775 H   0  0  0  0  0  0  0  0  0  0  0  0
    1.4901   -0.8238   -1.8374 H   0  0  0  0  0  0  0  0  0  0  0  0
   -1.2819   -1.6064   -2.0840 H   0  0  0  0  0  0  0  0  0  0  0  0
   -2.4422   -0.5427   -1.1070 H   0  0  0  0  0  0  0  0  0  0  0  0
   -1.4790   -1.3780    1.0837 H   0  0  0  0  0  0  0  0  0  0  0  0
   -0.5937   -2.6554    0.0648 H   0  0  0  0  0  0  0  0  0  0  0  0
  1  2  1  0
  2  3  1  0
  3  4  1  0
  4  5  1  0
  5  6  1  0
  5  7  1  0
  7  8  1  0
  8  9  1  0
  6  2  1  0
  9  7  1  0
  7  2  1  0
  1 10  1  0
  1 11  1  0
  1 12  1  0
  3 13  1  0
  3 14  1  0
  4 15  1  0
  4 16  1  0
  5 17  1  0
  8 18  1  0
  8 19  1  0
  9 20  1  0
  9 21  1  0
M  END
