
     RDKit          3D

 19 21  0  0  0  0  0  0  0  0999 V2000
   -1.6377   -0.7729    0.4948 C   0  0  0  0  0  0  0  0  0  0  0  0
   -0.5259    0.0735    0.1372 C   0  0  0  0  0  0  0  0  0  0  0  0
   -0.6052    1.5616    0.2742 C   0  0  0  0  0  0  0  0  0  0  0  0
    0.7138    2.0358    0.3114 O   0  0  0  0  0  0  0  0  0  0  0  0
    1.5020    0.9842   -0.1006 C   0  0  0  0  0  0  0  0  0  0  0  0
    1.0859    0.6725   -1.4189 O   0  0  0  0  0  0  0  0  0  0  0  0
    0.1398   -0.2937   -1.1954 C   0  0  0  0  0  0  0  0  0  0  0  0
    0.9674   -1.2820   -0.3607 C   0  0  0  0  0  0  0  0  0  0  0  0
    0.8606   -0.1855    0.6495 C   0  0  0  0  0  0  0  0  0  0  0  0
   -2.3469   -0.3729    1.2169 H   0  0  0  0  0  0  0  0  0  0  0  0
   -1.2971   -1.7564    0.8653 H   0  0  0  0  0  0  0  0  0  0  0  0
   -2.2370   -1.0052   -0.4357 H   0  0  0  0  0  0  0  0  0  0  0  0
   -1.0799    1.8440    1.2344 H   0  0  0  0  0  0  0  0  0  0  0  0
   -1.1781    2.0382   -0.5349 H   0  0  0  0  0  0  0  0  0  0  0  0
    2.5517    1.0782    0.0283 H   0  0  0  0  0  0  0  0  0  0  0  0
   -0.4659   -0.6820   -1.9637 H   0  0  0  0  0  0  0  0  0  0  0  0
    2.0123   -1.3816   -0.7217 H   0  0  0  0  0  0  0  0  0  0  0  0
    0.4776   -2.2296   -0.1458 H   0  0  0  0  0  0  0  0  0  0  0  0
    1.0626   -0.3260    1.6654 H   0  0  0  0  0  0  0  0  0  0  0  0
  1  2  1  0
  2  3  1  0
  3  4  1  0
  4  5  1  0
  5  6  1  0
  6  7  1  0
  7  8  1  0
  8  9  1  0
  7  2  1  0
  9  2  1  0
  9  5  1  0
  1 10  1  0
  1 11  1  0
  1 12  1  0
  3 13  1  0
  3 14  1  0
  5 15  1  0
  7 16  1  0
  8 17  1  0
  8 18  1  0
  9 19  1  0
M  END
