
     RDKit          3D

 17 19  0  0  0  0  0  0  0  0999 V2000
    2.0846   -0.6651   -0.0736 C   0  0  0  0  0  0  0  0  0  0  0  0
    0.6507   -0.2342    0.0893 C   0  0  0  0  0  0  0  0  0  0  0  0
   -0.2268   -1.0841    0.6711 O   0  0  0  0  0  0  0  0  0  0  0  0
   -1.3758   -0.3392    0.8410 C   0  0  0  0  0  0  0  0  0  0  0  0
   -1.9112   -0.1274   -0.5827 C   0  0  0  0  0  0  0  0  0  0  0  0
   -1.1354    0.8465   -1.1418 O   0  0  0  0  0  0  0  0  0  0  0  0
    0.1625    0.8349   -0.7563 C   0  0  0  0  0  0  0  0  0  0  0  0
    0.3136    1.0957    0.6777 C   0  0  0  0  0  0  0  0  0  0  0  0
   -0.8904    0.8740    1.3429 O   0  0  0  0  0  0  0  0  0  0  0  0
    2.6916    0.1583   -0.4563 H   0  0  0  0  0  0  0  0  0  0  0  0
    2.4277   -1.0813    0.8732 H   0  0  0  0  0  0  0  0  0  0  0  0
    2.0854   -1.4796   -0.8403 H   0  0  0  0  0  0  0  0  0  0  0  0
   -2.1272   -0.7925    1.4783 H   0  0  0  0  0  0  0  0  0  0  0  0
   -2.9822    0.0467   -0.5947 H   0  0  0  0  0  0  0  0  0  0  0  0
   -1.7281   -1.0748   -1.1704 H   0  0  0  0  0  0  0  0  0  0  0  0
    0.8775    1.2848   -1.4759 H   0  0  0  0  0  0  0  0  0  0  0  0
    1.0835    1.7371    1.1184 H   0  0  0  0  0  0  0  0  0  0  0  0
  1  2  1  0
  2  3  1  0
  3  4  1  0
  4  5  1  0
  5  6  1  0
  6  7  1  0
  7  8  1  0
  8  9  1  0
  7  2  1  0
  8  2  1  0
  9  4  1  0
  1 10  1  0
  1 11  1  0
  1 12  1  0
  4 13  1  0
  5 14  1  0
  5 15  1  0
  7 16  1  0
  8 17  1  0
M  END
