
     RDKit          3D

 19 21  0  0  0  0  0  0  0  0999 V2000
   -1.3262   -1.1234   -1.0141 C   0  0  0  0  0  0  0  0  0  0  0  0
   -0.6774   -0.2619   -0.0619 C   0  0  0  0  0  0  0  0  0  0  0  0
   -1.3513    0.1247    1.1988 C   0  0  0  0  0  0  0  0  0  0  0  0
   -0.4628    0.9152    1.7977 C   0  0  0  0  0  0  0  0  0  0  0  0
    0.6822    0.9059    0.8544 C   0  0  0  0  0  0  0  0  0  0  0  0
    0.0720    0.9595   -0.5102 C   0  0  0  0  0  0  0  0  0  0  0  0
    1.1646    0.0202   -0.9353 C   0  0  0  0  0  0  0  0  0  0  0  0
    2.4358    0.6062   -0.8976 O   0  0  0  0  0  0  0  0  0  0  0  0
    0.7246   -0.5218    0.3912 C   0  0  0  0  0  0  0  0  0  0  0  0
   -0.7198   -1.9237   -1.4891 H   0  0  0  0  0  0  0  0  0  0  0  0
   -2.1916   -1.6625   -0.5289 H   0  0  0  0  0  0  0  0  0  0  0  0
   -1.8096   -0.5222   -1.8333 H   0  0  0  0  0  0  0  0  0  0  0  0
   -2.3376   -0.2102    1.4777 H   0  0  0  0  0  0  0  0  0  0  0  0
   -0.5553    1.4366    2.7425 H   0  0  0  0  0  0  0  0  0  0  0  0
    1.5732    1.4289    1.0810 H   0  0  0  0  0  0  0  0  0  0  0  0
   -0.2837    1.7516   -1.0031 H   0  0  0  0  0  0  0  0  0  0  0  0
    0.9632   -0.6128   -1.8053 H   0  0  0  0  0  0  0  0  0  0  0  0
    3.0186    0.0048   -0.3488 H   0  0  0  0  0  0  0  0  0  0  0  0
    1.0812   -1.3150    0.8842 H   0  0  0  0  0  0  0  0  0  0  0  0
  1  2  1  0
  2  3  1  0
  3  4  2  0
  4  5  1  0
  5  6  1  0
  6  7  1  0
  7  8  1  0
  7  9  1  0
  6  2  1  0
  9  2  1  0
  9  5  1  0
  1 10  1  0
  1 11  1  0
  1 12  1  0
  3 13  1  0
  4 14  1  0
  5 15  1  0
  6 16  1  0
  7 17  1  0
  8 18  1  0
  9 19  1  0
M  END
