
     RDKit          3D

 21 22  0  0  0  0  0  0  0  0999 V2000
    2.6709    0.3271   -0.2235 C   0  0  0  0  0  0  0  0  0  0  0  0
    1.1902    0.0503    0.1266 C   0  0  0  0  0  0  0  0  0  0  0  0
    0.4829    1.2495    0.5218 C   0  0  0  0  0  0  0  0  0  0  0  0
   -0.7883    1.5650    0.4203 C   0  0  0  0  0  0  0  0  0  0  0  0
   -1.8836    0.7575   -0.1431 C   0  0  0  0  0  0  0  0  0  0  0  0
   -1.7842   -0.6946    0.2702 C   0  0  0  0  0  0  0  0  0  0  0  0
   -0.7695   -1.4230   -0.5255 C   0  0  0  0  0  0  0  0  0  0  0  0
    0.6541   -1.1326   -0.2505 C   0  0  0  0  0  0  0  0  0  0  0  0
    1.0265   -0.9791    1.1286 O   0  0  0  0  0  0  0  0  0  0  0  0
    3.1245   -0.5172   -0.7367 H   0  0  0  0  0  0  0  0  0  0  0  0
    2.6324    1.2316   -0.8774 H   0  0  0  0  0  0  0  0  0  0  0  0
    3.1815    0.6422    0.7035 H   0  0  0  0  0  0  0  0  0  0  0  0
    1.1131    2.0359    0.9911 H   0  0  0  0  0  0  0  0  0  0  0  0
   -1.0918    2.5430    0.7931 H   0  0  0  0  0  0  0  0  0  0  0  0
   -1.9364    0.8225   -1.2487 H   0  0  0  0  0  0  0  0  0  0  0  0
   -2.8402    1.1407    0.2507 H   0  0  0  0  0  0  0  0  0  0  0  0
   -1.6189   -0.7460    1.3650 H   0  0  0  0  0  0  0  0  0  0  0  0
   -2.7737   -1.1525    0.0822 H   0  0  0  0  0  0  0  0  0  0  0  0
   -0.9336   -2.5250   -0.3575 H   0  0  0  0  0  0  0  0  0  0  0  0
   -0.9925   -1.2657   -1.6014 H   0  0  0  0  0  0  0  0  0  0  0  0
    1.3368   -1.9294   -0.6888 H   0  0  0  0  0  0  0  0  0  0  0  0
  1  2  1  0
  2  3  1  0
  3  4  2  0
  4  5  1  0
  5  6  1  0
  6  7  1  0
  7  8  1  0
  8  9  1  0
  8  2  1  0
  9  2  1  0
  1 10  1  0
  1 11  1  0
  1 12  1  0
  3 13  1  0
  4 14  1  0
  5 15  1  0
  5 16  1  0
  6 17  1  0
  6 18  1  0
  7 19  1  0
  7 20  1  0
  8 21  1  0
M  END
