
     RDKit          3D

 18 19  0  0  0  0  0  0  0  0999 V2000
    2.2827    0.0429    0.2476 C   0  0  0  0  0  0  0  0  0  0  0  0
    0.9175   -0.1588    0.1578 C   0  0  0  0  0  0  0  0  0  0  0  0
    0.1427   -0.5604   -1.0525 C   0  0  0  0  0  0  0  0  0  0  0  0
   -0.8086   -0.4513    0.0900 C   0  0  0  0  0  0  0  0  0  0  0  0
   -2.1629   -0.7329    0.0830 C   0  0  0  0  0  0  0  0  0  0  0  0
    0.1619   -1.0793    0.8633 O   0  0  0  0  0  0  0  0  0  0  0  0
   -0.1571    0.8366    0.4626 C   0  0  0  0  0  0  0  0  0  0  0  0
   -0.2265    1.8721   -0.4329 O   0  0  0  0  0  0  0  0  0  0  0  0
    2.7631    0.2847   -0.7236 H   0  0  0  0  0  0  0  0  0  0  0  0
    2.8326   -0.8184    0.7088 H   0  0  0  0  0  0  0  0  0  0  0  0
    2.5425    0.9154    0.9154 H   0  0  0  0  0  0  0  0  0  0  0  0
    0.0488    0.1813   -1.8565 H   0  0  0  0  0  0  0  0  0  0  0  0
    0.3125   -1.6042   -1.3669 H   0  0  0  0  0  0  0  0  0  0  0  0
   -2.8050    0.1571   -0.0756 H   0  0  0  0  0  0  0  0  0  0  0  0
   -2.4561   -1.4990   -0.6659 H   0  0  0  0  0  0  0  0  0  0  0  0
   -2.5085   -1.1588    1.0710 H   0  0  0  0  0  0  0  0  0  0  0  0
   -0.3179    1.0759    1.5307 H   0  0  0  0  0  0  0  0  0  0  0  0
   -0.5617    2.6970    0.0436 H   0  0  0  0  0  0  0  0  0  0  0  0
  1  2  1  0
  2  3  1  0
  3  4  1  0
  4  5  1  0
  4  6  1  0
  4  7  1  0
  7  8  1  0
  6  2  1  0
  7  2  1  0
  1  9  1  0
  1 10  1  0
  1 11  1  0
  3 12  1  0
  3 13  1  0
  5 14  1  0
  5 15  1  0
  5 16  1  0
  7 17  1  0
  8 18  1  0
M  END
