
     RDKit          3D

 19 21  0  0  0  0  0  0  0  0999 V2000
   -1.5676    0.8184    0.5836 C   0  0  0  0  0  0  0  0  0  0  0  0
   -0.5061    0.0185   -0.0942 C   0  0  0  0  0  0  0  0  0  0  0  0
   -1.0468   -1.3275   -0.5507 C   0  0  0  0  0  0  0  0  0  0  0  0
    0.0716   -1.9087    0.0499 O   0  0  0  0  0  0  0  0  0  0  0  0
    0.3274   -0.7889    0.8635 C   0  0  0  0  0  0  0  0  0  0  0  0
    1.7247   -0.2586    0.7186 C   0  0  0  0  0  0  0  0  0  0  0  0
    2.3845   -0.6834   -0.4194 O   0  0  0  0  0  0  0  0  0  0  0  0
    1.7915    0.5491   -0.5335 C   0  0  0  0  0  0  0  0  0  0  0  0
    0.3988    0.7164   -1.0367 C   0  0  0  0  0  0  0  0  0  0  0  0
   -2.0565    0.1312    1.3370 H   0  0  0  0  0  0  0  0  0  0  0  0
   -1.1926    1.6705    1.1776 H   0  0  0  0  0  0  0  0  0  0  0  0
   -2.4005    1.1233   -0.0906 H   0  0  0  0  0  0  0  0  0  0  0  0
   -2.0202   -1.5837   -0.0878 H   0  0  0  0  0  0  0  0  0  0  0  0
   -1.0517   -1.3803   -1.6677 H   0  0  0  0  0  0  0  0  0  0  0  0
   -0.0650   -0.8710    1.8920 H   0  0  0  0  0  0  0  0  0  0  0  0
    2.2681    0.1619    1.5740 H   0  0  0  0  0  0  0  0  0  0  0  0
    2.5057    1.3924   -0.6130 H   0  0  0  0  0  0  0  0  0  0  0  0
    0.1590    1.8107   -0.9996 H   0  0  0  0  0  0  0  0  0  0  0  0
    0.2759    0.4099   -2.1029 H   0  0  0  0  0  0  0  0  0  0  0  0
  1  2  1  0
  2  3  1  0
  3  4  1  0
  4  5  1  0
  5  6  1  0
  6  7  1  0
  7  8  1  0
  8  9  1  0
  5  2  1  0
  8  6  1  0
  9  2  1  0
  1 10  1  0
  1 11  1  0
  1 12  1  0
  3 13  1  0
  3 14  1  0
  5 15  1  0
  6 16  1  0
  8 17  1  0
  9 18  1  0
  9 19  1  0
M  END
