
     RDKit          3D

 21 23  0  0  0  0  0  0  0  0999 V2000
   -2.1143   -0.9337   -0.0838 C   0  0  0  0  0  0  0  0  0  0  0  0
   -0.8081   -0.2451    0.2349 C   0  0  0  0  0  0  0  0  0  0  0  0
   -0.9293    1.2183    0.5950 C   0  0  0  0  0  0  0  0  0  0  0  0
    0.0765    1.5735   -0.4325 C   0  0  0  0  0  0  0  0  0  0  0  0
    1.2427    0.7440   -0.7655 C   0  0  0  0  0  0  0  0  0  0  0  0
    1.9932   -0.0559    0.2421 C   0  0  0  0  0  0  0  0  0  0  0  0
    1.2136   -1.2222    0.7946 C   0  0  0  0  0  0  0  0  0  0  0  0
   -0.0650   -0.9130    1.1718 O   0  0  0  0  0  0  0  0  0  0  0  0
   -0.0884    0.1423   -1.0014 C   0  0  0  0  0  0  0  0  0  0  0  0
   -2.5645   -0.4154   -0.9663 H   0  0  0  0  0  0  0  0  0  0  0  0
   -1.8555   -1.9555   -0.4368 H   0  0  0  0  0  0  0  0  0  0  0  0
   -2.8074   -0.9446    0.7760 H   0  0  0  0  0  0  0  0  0  0  0  0
   -1.9540    1.6330    0.4158 H   0  0  0  0  0  0  0  0  0  0  0  0
   -0.6582    1.4398    1.6633 H   0  0  0  0  0  0  0  0  0  0  0  0
   -0.1951    2.4064   -1.0983 H   0  0  0  0  0  0  0  0  0  0  0  0
    1.7985    1.0406   -1.6835 H   0  0  0  0  0  0  0  0  0  0  0  0
    2.3851    0.5955    1.0472 H   0  0  0  0  0  0  0  0  0  0  0  0
    2.9013   -0.4937   -0.2514 H   0  0  0  0  0  0  0  0  0  0  0  0
    1.7607   -1.5815    1.6926 H   0  0  0  0  0  0  0  0  0  0  0  0
    1.1765   -2.0639    0.0857 H   0  0  0  0  0  0  0  0  0  0  0  0
   -0.5082    0.0311   -1.9994 H   0  0  0  0  0  0  0  0  0  0  0  0
  1  2  1  0
  2  3  1  0
  3  4  1  0
  4  5  1  0
  5  6  1  0
  6  7  1  0
  7  8  1  0
  5  9  1  0
  8  2  1  0
  9  2  1  0
  9  4  1  0
  1 10  1  0
  1 11  1  0
  1 12  1  0
  3 13  1  0
  3 14  1  0
  4 15  1  0
  5 16  1  0
  6 17  1  0
  6 18  1  0
  7 19  1  0
  7 20  1  0
  9 21  1  0
M  END
