
     RDKit          3D

 17 18  0  0  0  0  0  0  0  0999 V2000
   -2.2193   -0.4590    0.0098 C   0  0  0  0  0  0  0  0  0  0  0  0
   -0.8157    0.0488    0.1553 C   0  0  0  0  0  0  0  0  0  0  0  0
   -0.8506    1.3403    0.8619 O   0  0  0  0  0  0  0  0  0  0  0  0
   -0.3097    1.1210   -0.5084 C   0  0  0  0  0  0  0  0  0  0  0  0
    1.1639    1.3168   -0.4398 C   0  0  0  0  0  0  0  0  0  0  0  0
    2.0257    0.3284   -0.2301 C   0  0  0  0  0  0  0  0  0  0  0  0
    1.4588   -1.0391   -0.0580 C   0  0  0  0  0  0  0  0  0  0  0  0
    0.1924   -0.8904    0.7115 C   0  0  0  0  0  0  0  0  0  0  0  0
    0.0315   -1.5189    1.7310 O   0  0  0  0  0  0  0  0  0  0  0  0
   -2.8628    0.3439   -0.4058 H   0  0  0  0  0  0  0  0  0  0  0  0
   -2.3039   -1.3721   -0.5758 H   0  0  0  0  0  0  0  0  0  0  0  0
   -2.6155   -0.6527    1.0435 H   0  0  0  0  0  0  0  0  0  0  0  0
   -0.8420    1.7579   -1.2236 H   0  0  0  0  0  0  0  0  0  0  0  0
    1.5232    2.3297   -0.5713 H   0  0  0  0  0  0  0  0  0  0  0  0
    3.0954    0.4931   -0.1837 H   0  0  0  0  0  0  0  0  0  0  0  0
    2.1681   -1.7260    0.4425 H   0  0  0  0  0  0  0  0  0  0  0  0
    1.1606   -1.4218   -1.0731 H   0  0  0  0  0  0  0  0  0  0  0  0
  1  2  1  0
  2  3  1  0
  3  4  1  0
  4  5  1  0
  5  6  2  0
  6  7  1  0
  7  8  1  0
  8  9  2  0
  4  2  1  0
  8  2  1  0
  1 10  1  0
  1 11  1  0
  1 12  1  0
  4 13  1  0
  5 14  1  0
  6 15  1  0
  7 16  1  0
  7 17  1  0
M  END
