
     RDKit          3D

 18 19  0  0  0  0  0  0  0  0999 V2000
   -1.8286    0.2928   -0.3770 C   0  0  0  0  0  0  0  0  0  0  0  0
   -0.4097    0.1863    0.0736 C   0  0  0  0  0  0  0  0  0  0  0  0
   -0.0402   -1.0276    0.8507 C   0  0  0  0  0  0  0  0  0  0  0  0
    1.3041   -1.4614    0.3709 C   0  0  0  0  0  0  0  0  0  0  0  0
    1.6808   -0.7282   -0.6440 C   0  0  0  0  0  0  0  0  0  0  0  0
    0.6489    0.2908   -0.9822 C   0  0  0  0  0  0  0  0  0  0  0  0
    1.0641    1.5358   -0.5073 O   0  0  0  0  0  0  0  0  0  0  0  0
    0.1308    1.4956    0.5278 C   0  0  0  0  0  0  0  0  0  0  0  0
   -2.4188    0.6799    0.5055 H   0  0  0  0  0  0  0  0  0  0  0  0
   -2.2376   -0.6828   -0.7022 H   0  0  0  0  0  0  0  0  0  0  0  0
   -1.9239    1.0730   -1.1551 H   0  0  0  0  0  0  0  0  0  0  0  0
   -0.0428   -0.8832    1.9439 H   0  0  0  0  0  0  0  0  0  0  0  0
   -0.7461   -1.8442    0.5705 H   0  0  0  0  0  0  0  0  0  0  0  0
    1.8789   -2.2689    0.8064 H   0  0  0  0  0  0  0  0  0  0  0  0
    2.6114   -0.8285   -1.1821 H   0  0  0  0  0  0  0  0  0  0  0  0
    0.3234    0.3048   -2.0199 H   0  0  0  0  0  0  0  0  0  0  0  0
    0.5849    1.5044    1.5421 H   0  0  0  0  0  0  0  0  0  0  0  0
   -0.5795    2.3612    0.3784 H   0  0  0  0  0  0  0  0  0  0  0  0
  1  2  1  0
  2  3  1  0
  3  4  1  0
  4  5  2  0
  5  6  1  0
  6  7  1  0
  7  8  1  0
  6  2  1  0
  8  2  1  0
  1  9  1  0
  1 10  1  0
  1 11  1  0
  3 12  1  0
  3 13  1  0
  4 14  1  0
  5 15  1  0
  6 16  1  0
  8 17  1  0
  8 18  1  0
M  END
