
     RDKit          3D

 18 19  0  0  0  0  0  0  0  0999 V2000
   -0.3282   -1.4594    0.8295 C   0  0  0  0  0  0  0  0  0  0  0  0
   -0.1423   -0.5579   -0.3339 C   0  0  0  0  0  0  0  0  0  0  0  0
   -1.0443   -0.4935   -1.4847 C   0  0  0  0  0  0  0  0  0  0  0  0
   -1.2316    0.5581   -0.4499 C   0  0  0  0  0  0  0  0  0  0  0  0
   -0.1599    1.5303   -0.0975 C   0  0  0  0  0  0  0  0  0  0  0  0
    0.9367    0.5241   -0.2966 C   0  0  0  0  0  0  0  0  0  0  0  0
    1.9089    0.3712    0.7792 C   0  0  0  0  0  0  0  0  0  0  0  0
    2.5014   -0.6767    0.9135 O   0  0  0  0  0  0  0  0  0  0  0  0
   -1.3704   -1.4306    1.2461 H   0  0  0  0  0  0  0  0  0  0  0  0
   -0.0136   -2.5100    0.6624 H   0  0  0  0  0  0  0  0  0  0  0  0
    0.3156   -1.0927    1.6805 H   0  0  0  0  0  0  0  0  0  0  0  0
   -1.8916   -1.1646   -1.6402 H   0  0  0  0  0  0  0  0  0  0  0  0
   -0.5806   -0.1515   -2.4524 H   0  0  0  0  0  0  0  0  0  0  0  0
   -2.0848    0.4849    0.2278 H   0  0  0  0  0  0  0  0  0  0  0  0
   -0.0935    2.4491   -0.7188 H   0  0  0  0  0  0  0  0  0  0  0  0
   -0.2090    1.8021    0.9927 H   0  0  0  0  0  0  0  0  0  0  0  0
    1.3673    0.6475   -1.3246 H   0  0  0  0  0  0  0  0  0  0  0  0
    2.1200    1.1697    1.4670 H   0  0  0  0  0  0  0  0  0  0  0  0
  1  2  1  0
  2  3  1  0
  3  4  1  0
  4  5  1  0
  5  6  1  0
  6  7  1  0
  7  8  2  0
  4  2  1  0
  6  2  1  0
  1  9  1  0
  1 10  1  0
  1 11  1  0
  3 12  1  0
  3 13  1  0
  4 14  1  0
  5 15  1  0
  5 16  1  0
  6 17  1  0
  7 18  1  0
M  END
