
     RDKit          3D

 19 21  0  0  0  0  0  0  0  0999 V2000
    2.4873   -0.0822   -0.0562 C   0  0  0  0  0  0  0  0  0  0  0  0
    1.0851    0.2858    0.2873 C   0  0  0  0  0  0  0  0  0  0  0  0
    0.2914    1.0082   -0.7608 C   0  0  0  0  0  0  0  0  0  0  0  0
   -1.1617    0.7085   -0.5186 C   0  0  0  0  0  0  0  0  0  0  0  0
   -1.6553   -0.3276   -1.3029 O   0  0  0  0  0  0  0  0  0  0  0  0
   -2.1146   -0.9878   -0.1896 C   0  0  0  0  0  0  0  0  0  0  0  0
   -1.2454   -0.1747    0.6812 C   0  0  0  0  0  0  0  0  0  0  0  0
    0.1579   -0.6253    0.9188 C   0  0  0  0  0  0  0  0  0  0  0  0
    0.8475    0.5072    1.6319 O   0  0  0  0  0  0  0  0  0  0  0  0
    2.9898    0.8538   -0.4388 H   0  0  0  0  0  0  0  0  0  0  0  0
    3.0834   -0.3415    0.8657 H   0  0  0  0  0  0  0  0  0  0  0  0
    2.5387   -0.8437   -0.8278 H   0  0  0  0  0  0  0  0  0  0  0  0
    0.5268    2.0657   -0.8664 H   0  0  0  0  0  0  0  0  0  0  0  0
    0.5624    0.5291   -1.7477 H   0  0  0  0  0  0  0  0  0  0  0  0
   -1.8168    1.5884   -0.4271 H   0  0  0  0  0  0  0  0  0  0  0  0
   -3.1990   -0.7172   -0.0201 H   0  0  0  0  0  0  0  0  0  0  0  0
   -2.0291   -2.0776   -0.1668 H   0  0  0  0  0  0  0  0  0  0  0  0
   -1.7434    0.2261    1.5745 H   0  0  0  0  0  0  0  0  0  0  0  0
    0.3950   -1.5952    1.3635 H   0  0  0  0  0  0  0  0  0  0  0  0
  1  2  1  0
  2  3  1  0
  3  4  1  0
  4  5  1  0
  5  6  1  0
  6  7  1  0
  7  8  1  0
  8  9  1  0
  8  2  1  0
  9  2  1  0
  7  4  1  0
  1 10  1  0
  1 11  1  0
  1 12  1  0
  3 13  1  0
  3 14  1  0
  4 15  1  0
  6 16  1  0
  6 17  1  0
  7 18  1  0
  8 19  1  0
M  END
