
     RDKit          3D

 21 22  0  0  0  0  0  0  0  0999 V2000
   -2.2296   -0.4533   -0.2728 C   0  0  0  0  0  0  0  0  0  0  0  0
   -0.7657   -0.2261   -0.0885 C   0  0  0  0  0  0  0  0  0  0  0  0
    0.1609   -1.1085   -0.8750 C   0  0  0  0  0  0  0  0  0  0  0  0
    1.5232   -1.0982   -0.2353 C   0  0  0  0  0  0  0  0  0  0  0  0
    1.7715    0.1281    0.6065 C   0  0  0  0  0  0  0  0  0  0  0  0
    0.4497    0.6479    1.1306 C   0  0  0  0  0  0  0  0  0  0  0  0
   -0.4282   -0.4039    1.2720 O   0  0  0  0  0  0  0  0  0  0  0  0
   -0.2912    1.1791   -0.0982 C   0  0  0  0  0  0  0  0  0  0  0  0
   -1.1872    2.1717    0.1994 O   0  0  0  0  0  0  0  0  0  0  0  0
   -2.5435   -1.2969    0.3886 H   0  0  0  0  0  0  0  0  0  0  0  0
   -2.5102   -0.6481   -1.3382 H   0  0  0  0  0  0  0  0  0  0  0  0
   -2.7626    0.4708    0.0793 H   0  0  0  0  0  0  0  0  0  0  0  0
    0.1882   -0.8770   -1.9553 H   0  0  0  0  0  0  0  0  0  0  0  0
   -0.2166   -2.1643   -0.7918 H   0  0  0  0  0  0  0  0  0  0  0  0
    2.2662   -1.0610   -1.0713 H   0  0  0  0  0  0  0  0  0  0  0  0
    1.6889   -1.9777    0.4292 H   0  0  0  0  0  0  0  0  0  0  0  0
    2.1737    0.9489   -0.0529 H   0  0  0  0  0  0  0  0  0  0  0  0
    2.5163   -0.0437    1.3930 H   0  0  0  0  0  0  0  0  0  0  0  0
    0.5034    1.3432    1.9757 H   0  0  0  0  0  0  0  0  0  0  0  0
    0.3638    1.4407   -0.9484 H   0  0  0  0  0  0  0  0  0  0  0  0
   -0.6710    3.0283    0.2533 H   0  0  0  0  0  0  0  0  0  0  0  0
  1  2  1  0
  2  3  1  0
  3  4  1  0
  4  5  1  0
  5  6  1  0
  6  7  1  0
  6  8  1  0
  8  9  1  0
  7  2  1  0
  8  2  1  0
  1 10  1  0
  1 11  1  0
  1 12  1  0
  3 13  1  0
  3 14  1  0
  4 15  1  0
  4 16  1  0
  5 17  1  0
  5 18  1  0
  6 19  1  0
  8 20  1  0
  9 21  1  0
M  END
