
     RDKit          3D

 21 23  0  0  0  0  0  0  0  0999 V2000
    2.2265   -0.0126   -0.8085 C   0  0  0  0  0  0  0  0  0  0  0  0
    0.8270    0.0153   -0.3172 C   0  0  0  0  0  0  0  0  0  0  0  0
   -0.2687   -0.6526   -1.0812 C   0  0  0  0  0  0  0  0  0  0  0  0
   -1.5444   -0.2381   -0.3668 C   0  0  0  0  0  0  0  0  0  0  0  0
   -1.5349   -0.9979    0.9348 C   0  0  0  0  0  0  0  0  0  0  0  0
   -0.4125   -0.8240    1.6577 C   0  0  0  0  0  0  0  0  0  0  0  0
    0.6250    0.0712    1.1472 C   0  0  0  0  0  0  0  0  0  0  0  0
    0.1957    1.1826    0.3090 C   0  0  0  0  0  0  0  0  0  0  0  0
   -1.2586    1.2140   -0.0620 C   0  0  0  0  0  0  0  0  0  0  0  0
    2.5578    0.8918   -1.3398 H   0  0  0  0  0  0  0  0  0  0  0  0
    2.9454   -0.2970    0.0121 H   0  0  0  0  0  0  0  0  0  0  0  0
    2.3109   -0.8698   -1.5401 H   0  0  0  0  0  0  0  0  0  0  0  0
   -0.3300   -0.1698   -2.0971 H   0  0  0  0  0  0  0  0  0  0  0  0
   -0.1562   -1.7420   -1.1380 H   0  0  0  0  0  0  0  0  0  0  0  0
   -2.4461   -0.4063   -0.9477 H   0  0  0  0  0  0  0  0  0  0  0  0
   -2.3506   -1.6130    1.2413 H   0  0  0  0  0  0  0  0  0  0  0  0
   -0.3141   -1.3528    2.5941 H   0  0  0  0  0  0  0  0  0  0  0  0
    1.4865    0.2218    1.8018 H   0  0  0  0  0  0  0  0  0  0  0  0
    0.7021    2.1744    0.3303 H   0  0  0  0  0  0  0  0  0  0  0  0
   -1.3580    1.7619   -1.0365 H   0  0  0  0  0  0  0  0  0  0  0  0
   -1.9030    1.6428    0.7067 H   0  0  0  0  0  0  0  0  0  0  0  0
  1  2  1  0
  2  3  1  0
  3  4  1  0
  4  5  1  0
  5  6  2  0
  6  7  1  0
  7  8  1  0
  8  9  1  0
  7  2  1  0
  8  2  1  0
  9  4  1  0
  1 10  1  0
  1 11  1  0
  1 12  1  0
  3 13  1  0
  3 14  1  0
  4 15  1  0
  5 16  1  0
  6 17  1  0
  7 18  1  0
  8 19  1  0
  9 20  1  0
  9 21  1  0
M  END
