
     RDKit          3D

 17 19  0  0  0  0  0  0  0  0999 V2000
    0.0675    1.3868   -0.9592 C   0  0  0  0  0  0  0  0  0  0  0  0
   -0.3214    0.3327   -0.0009 C   0  0  0  0  0  0  0  0  0  0  0  0
    0.7265   -0.2695    0.8822 C   0  0  0  0  0  0  0  0  0  0  0  0
    2.1439    0.0435    0.5977 C   0  0  0  0  0  0  0  0  0  0  0  0
    2.8871    0.2461    1.5394 O   0  0  0  0  0  0  0  0  0  0  0  0
    0.0112   -1.0809   -0.1311 C   0  0  0  0  0  0  0  0  0  0  0  0
   -1.4148   -1.4509    0.1746 C   0  0  0  0  0  0  0  0  0  0  0  0
   -1.9523   -0.9163    1.3256 O   0  0  0  0  0  0  0  0  0  0  0  0
   -1.7380    0.0360    0.3510 C   0  0  0  0  0  0  0  0  0  0  0  0
    0.0766    1.0686   -2.0190 H   0  0  0  0  0  0  0  0  0  0  0  0
   -0.5344    2.3090   -0.8222 H   0  0  0  0  0  0  0  0  0  0  0  0
    1.1276    1.6895   -0.7338 H   0  0  0  0  0  0  0  0  0  0  0  0
    0.4276   -0.2998    1.9548 H   0  0  0  0  0  0  0  0  0  0  0  0
    2.5213    0.0941   -0.4032 H   0  0  0  0  0  0  0  0  0  0  0  0
    0.5603   -1.5328   -0.9515 H   0  0  0  0  0  0  0  0  0  0  0  0
   -2.0164   -2.0336   -0.5263 H   0  0  0  0  0  0  0  0  0  0  0  0
   -2.5723    0.3776   -0.2782 H   0  0  0  0  0  0  0  0  0  0  0  0
  1  2  1  0
  2  3  1  0
  3  4  1  0
  4  5  2  0
  3  6  1  0
  6  7  1  0
  7  8  1  0
  8  9  1  0
  6  2  1  0
  9  7  1  0
  9  2  1  0
  1 10  1  0
  1 11  1  0
  1 12  1  0
  3 13  1  0
  4 14  1  0
  6 15  1  0
  7 16  1  0
  9 17  1  0
M  END
