
     RDKit          3D

 19 21  0  0  0  0  0  0  0  0999 V2000
    2.0796    0.4456    0.2720 C   0  0  0  0  0  0  0  0  0  0  0  0
    0.7380    0.1592   -0.1515 C   0  0  0  0  0  0  0  0  0  0  0  0
    0.1843   -1.2179    0.2919 C   0  0  0  0  0  0  0  0  0  0  0  0
   -1.2252   -0.8714   -0.2304 C   0  0  0  0  0  0  0  0  0  0  0  0
   -1.4417    0.2696    0.7833 C   0  0  0  0  0  0  0  0  0  0  0  0
   -0.3442    1.1391    0.1377 C   0  0  0  0  0  0  0  0  0  0  0  0
   -1.0091    1.2599   -1.1122 O   0  0  0  0  0  0  0  0  0  0  0  0
   -0.8770   -0.1140   -1.4608 C   0  0  0  0  0  0  0  0  0  0  0  0
    0.5459   -0.0770   -1.5392 O   0  0  0  0  0  0  0  0  0  0  0  0
    2.3457   -0.1955    1.1653 H   0  0  0  0  0  0  0  0  0  0  0  0
    2.1813    1.4982    0.6711 H   0  0  0  0  0  0  0  0  0  0  0  0
    2.9092    0.3049   -0.4385 H   0  0  0  0  0  0  0  0  0  0  0  0
    0.6386   -2.0308   -0.2654 H   0  0  0  0  0  0  0  0  0  0  0  0
    0.2135   -1.2841    1.3757 H   0  0  0  0  0  0  0  0  0  0  0  0
   -1.9228   -1.6342   -0.2341 H   0  0  0  0  0  0  0  0  0  0  0  0
   -2.4241    0.7159    0.6986 H   0  0  0  0  0  0  0  0  0  0  0  0
   -1.1114   -0.0230    1.7768 H   0  0  0  0  0  0  0  0  0  0  0  0
   -0.1270    2.0350    0.6321 H   0  0  0  0  0  0  0  0  0  0  0  0
   -1.3535   -0.3793   -2.3727 H   0  0  0  0  0  0  0  0  0  0  0  0
  1  2  1  0
  2  3  1  0
  3  4  1  0
  4  5  1  0
  5  6  1  0
  6  7  1  0
  7  8  1  0
  8  9  1  0
  6  2  1  0
  9  2  1  0
  8  4  1  0
  1 10  1  0
  1 11  1  0
  1 12  1  0
  3 13  1  0
  3 14  1  0
  4 15  1  0
  5 16  1  0
  5 17  1  0
  6 18  1  0
  8 19  1  0
M  END
