
     RDKit          3D

 15 16  0  0  0  0  0  0  0  0999 V2000
   -1.9598    0.4981   -0.1142 C   0  0  0  0  0  0  0  0  0  0  0  0
   -0.5897    0.0333   -0.4977 C   0  0  0  0  0  0  0  0  0  0  0  0
   -0.4685   -1.2223   -1.0413 O   0  0  0  0  0  0  0  0  0  0  0  0
   -0.0050   -1.1184    0.2598 C   0  0  0  0  0  0  0  0  0  0  0  0
    1.4677   -0.8486    0.4613 C   0  0  0  0  0  0  0  0  0  0  0  0
    1.7079    0.5416    0.0327 C   0  0  0  0  0  0  0  0  0  0  0  0
    2.7439    1.2257    0.1931 O   0  0  0  0  0  0  0  0  0  0  0  0
    0.5089    1.0239   -0.6348 C   0  0  0  0  0  0  0  0  0  0  0  0
    0.4141    2.1185   -1.2398 O   0  0  0  0  0  0  0  0  0  0  0  0
   -2.2207    0.0241    0.8737 H   0  0  0  0  0  0  0  0  0  0  0  0
   -2.0395    1.5832    0.0250 H   0  0  0  0  0  0  0  0  0  0  0  0
   -2.7160    0.1207   -0.8411 H   0  0  0  0  0  0  0  0  0  0  0  0
   -0.6143   -1.5308    1.0779 H   0  0  0  0  0  0  0  0  0  0  0  0
    1.6582   -0.9080    1.5624 H   0  0  0  0  0  0  0  0  0  0  0  0
    2.1129   -1.5409   -0.1169 H   0  0  0  0  0  0  0  0  0  0  0  0
  1  2  1  0
  2  3  1  0
  3  4  1  0
  4  5  1  0
  5  6  1  0
  6  7  2  0
  6  8  1  0
  8  9  2  0
  4  2  1  0
  8  2  1  0
  1 10  1  0
  1 11  1  0
  1 12  1  0
  4 13  1  0
  5 14  1  0
  5 15  1  0
M  END
