
     RDKit          3D

 21 22  0  0  0  0  0  0  0  0999 V2000
   -0.9056   -1.4591   -0.5515 C   0  0  0  0  0  0  0  0  0  0  0  0
   -0.9210   -0.1621    0.2274 C   0  0  0  0  0  0  0  0  0  0  0  0
   -0.2282   -0.3125    1.4986 C   0  0  0  0  0  0  0  0  0  0  0  0
    1.0997   -0.3869    1.3615 C   0  0  0  0  0  0  0  0  0  0  0  0
    1.8195   -0.3254    0.0626 C   0  0  0  0  0  0  0  0  0  0  0  0
    1.0031    0.3491   -1.0436 C   0  0  0  0  0  0  0  0  0  0  0  0
   -0.1077    1.0398   -0.3780 C   0  0  0  0  0  0  0  0  0  0  0  0
   -1.5157    0.9457   -0.4176 C   0  0  0  0  0  0  0  0  0  0  0  0
   -2.2865    1.9069    0.2818 O   0  0  0  0  0  0  0  0  0  0  0  0
   -1.8529   -1.9945   -0.2327 H   0  0  0  0  0  0  0  0  0  0  0  0
   -0.0942   -2.1516   -0.2591 H   0  0  0  0  0  0  0  0  0  0  0  0
   -1.0183   -1.3221   -1.6354 H   0  0  0  0  0  0  0  0  0  0  0  0
   -0.7035   -0.3627    2.4716 H   0  0  0  0  0  0  0  0  0  0  0  0
    1.7343   -0.5026    2.2589 H   0  0  0  0  0  0  0  0  0  0  0  0
    2.1506   -1.3191   -0.3000 H   0  0  0  0  0  0  0  0  0  0  0  0
    2.7844    0.2362    0.2430 H   0  0  0  0  0  0  0  0  0  0  0  0
    0.7551   -0.3435   -1.8507 H   0  0  0  0  0  0  0  0  0  0  0  0
    1.6804    1.1023   -1.5045 H   0  0  0  0  0  0  0  0  0  0  0  0
    0.2952    1.7988    0.3599 H   0  0  0  0  0  0  0  0  0  0  0  0
   -2.0023    0.7877   -1.4232 H   0  0  0  0  0  0  0  0  0  0  0  0
   -1.6864    2.4755    0.8309 H   0  0  0  0  0  0  0  0  0  0  0  0
  1  2  1  0
  2  3  1  0
  3  4  2  0
  4  5  1  0
  5  6  1  0
  6  7  1  0
  7  8  1  0
  8  9  1  0
  7  2  1  0
  8  2  1  0
  1 10  1  0
  1 11  1  0
  1 12  1  0
  3 13  1  0
  4 14  1  0
  5 15  1  0
  5 16  1  0
  6 17  1  0
  6 18  1  0
  7 19  1  0
  8 20  1  0
  9 21  1  0
M  END
