
     RDKit          3D

 18 20  0  0  0  0  0  0  0  0999 V2000
    0.8866    1.5488   -0.0689 C   0  0  0  0  0  0  0  0  0  0  0  0
   -0.0561    0.4922    0.4198 C   0  0  0  0  0  0  0  0  0  0  0  0
   -1.3849    0.7823    0.9542 C   0  0  0  0  0  0  0  0  0  0  0  0
   -1.3380    0.3151   -0.4441 C   0  0  0  0  0  0  0  0  0  0  0  0
   -0.9393   -1.1145   -0.7105 C   0  0  0  0  0  0  0  0  0  0  0  0
    0.2802   -0.9265    0.0961 C   0  0  0  0  0  0  0  0  0  0  0  0
    1.5660   -1.3945   -0.0403 C   0  0  0  0  0  0  0  0  0  0  0  0
    0.6585   -1.8267    1.0469 O   0  0  0  0  0  0  0  0  0  0  0  0
    1.0470    2.2897    0.7364 H   0  0  0  0  0  0  0  0  0  0  0  0
    1.8453    1.0638   -0.3495 H   0  0  0  0  0  0  0  0  0  0  0  0
    0.4912    2.0486   -0.9681 H   0  0  0  0  0  0  0  0  0  0  0  0
   -1.6655    1.8444    1.1258 H   0  0  0  0  0  0  0  0  0  0  0  0
   -1.7554    0.0622    1.7380 H   0  0  0  0  0  0  0  0  0  0  0  0
   -1.4761    1.0170   -1.2783 H   0  0  0  0  0  0  0  0  0  0  0  0
   -1.6996   -1.7902   -0.2272 H   0  0  0  0  0  0  0  0  0  0  0  0
   -0.8343   -1.3550   -1.7835 H   0  0  0  0  0  0  0  0  0  0  0  0
    2.4284   -0.8097    0.3986 H   0  0  0  0  0  0  0  0  0  0  0  0
    1.9460   -2.2471   -0.6455 H   0  0  0  0  0  0  0  0  0  0  0  0
  1  2  1  0
  2  3  1  0
  3  4  1  0
  4  5  1  0
  5  6  1  0
  6  7  1  0
  7  8  1  0
  4  2  1  0
  8  6  1  0
  6  2  1  0
  1  9  1  0
  1 10  1  0
  1 11  1  0
  3 12  1  0
  3 13  1  0
  4 14  1  0
  5 15  1  0
  5 16  1  0
  7 17  1  0
  7 18  1  0
M  END
