
     RDKit          3D

 21 23  0  0  0  0  0  0  0  0999 V2000
    1.5279   -0.8368    0.9753 C   0  0  0  0  0  0  0  0  0  0  0  0
    0.6217   -0.3634   -0.1009 C   0  0  0  0  0  0  0  0  0  0  0  0
   -0.7083   -1.0241   -0.1861 C   0  0  0  0  0  0  0  0  0  0  0  0
   -1.5379   -0.2064   -1.1703 C   0  0  0  0  0  0  0  0  0  0  0  0
   -1.3330    0.8927   -0.1312 C   0  0  0  0  0  0  0  0  0  0  0  0
   -1.5005   -0.2511    0.8828 C   0  0  0  0  0  0  0  0  0  0  0  0
    0.1375    1.1296   -0.0401 C   0  0  0  0  0  0  0  0  0  0  0  0
    1.0968    0.6469   -1.0461 C   0  0  0  0  0  0  0  0  0  0  0  0
    2.4200    1.0828   -0.8423 O   0  0  0  0  0  0  0  0  0  0  0  0
    1.1762   -1.8369    1.3603 H   0  0  0  0  0  0  0  0  0  0  0  0
    2.5350   -1.0693    0.5206 H   0  0  0  0  0  0  0  0  0  0  0  0
    1.6571   -0.1017    1.7758 H   0  0  0  0  0  0  0  0  0  0  0  0
   -0.8086   -2.0800   -0.1956 H   0  0  0  0  0  0  0  0  0  0  0  0
   -1.0944   -0.0328   -2.1444 H   0  0  0  0  0  0  0  0  0  0  0  0
   -2.5760   -0.5747   -1.1448 H   0  0  0  0  0  0  0  0  0  0  0  0
   -2.0282    1.6882   -0.0911 H   0  0  0  0  0  0  0  0  0  0  0  0
   -2.5312   -0.6140    0.9650 H   0  0  0  0  0  0  0  0  0  0  0  0
   -0.9286   -0.0995    1.7964 H   0  0  0  0  0  0  0  0  0  0  0  0
    0.4807    1.6333    0.8649 H   0  0  0  0  0  0  0  0  0  0  0  0
    0.8506    0.5761   -2.1200 H   0  0  0  0  0  0  0  0  0  0  0  0
    2.5433    1.4413    0.0719 H   0  0  0  0  0  0  0  0  0  0  0  0
  1  2  1  0
  2  3  1  0
  3  4  1  0
  4  5  1  0
  5  6  1  0
  5  7  1  0
  7  8  1  0
  8  9  1  0
  7  2  1  0
  8  2  1  0
  6  3  1  0
  1 10  1  0
  1 11  1  0
  1 12  1  0
  3 13  1  0
  4 14  1  0
  4 15  1  0
  5 16  1  0
  6 17  1  0
  6 18  1  0
  7 19  1  0
  8 20  1  0
  9 21  1  0
M  END
