
     RDKit          3D

 19 20  0  0  0  0  0  0  0  0999 V2000
    1.8170   -0.1211   -0.6091 C   0  0  0  0  0  0  0  0  0  0  0  0
    0.4690   -0.1272    0.0259 C   0  0  0  0  0  0  0  0  0  0  0  0
    0.2735    0.8128    1.1880 C   0  0  0  0  0  0  0  0  0  0  0  0
   -0.6780    1.6160    0.3317 C   0  0  0  0  0  0  0  0  0  0  0  0
   -0.6030    0.5778   -0.7583 C   0  0  0  0  0  0  0  0  0  0  0  0
   -1.6742   -0.2423   -0.9115 O   0  0  0  0  0  0  0  0  0  0  0  0
   -1.4597   -1.4583   -0.2875 C   0  0  0  0  0  0  0  0  0  0  0  0
   -0.1294   -1.4416    0.3087 C   0  0  0  0  0  0  0  0  0  0  0  0
    0.3959   -2.3298    0.9214 O   0  0  0  0  0  0  0  0  0  0  0  0
    1.9491   -1.0612   -1.1699 H   0  0  0  0  0  0  0  0  0  0  0  0
    2.5767   -0.0733    0.1960 H   0  0  0  0  0  0  0  0  0  0  0  0
    1.9462    0.7293   -1.3380 H   0  0  0  0  0  0  0  0  0  0  0  0
   -0.2528    0.3563    2.0609 H   0  0  0  0  0  0  0  0  0  0  0  0
    1.2136    1.3198    1.4594 H   0  0  0  0  0  0  0  0  0  0  0  0
   -0.1734    2.5803    0.0456 H   0  0  0  0  0  0  0  0  0  0  0  0
   -1.6808    1.7429    0.7834 H   0  0  0  0  0  0  0  0  0  0  0  0
   -0.1705    1.0009   -1.6885 H   0  0  0  0  0  0  0  0  0  0  0  0
   -2.2714   -1.5866    0.4593 H   0  0  0  0  0  0  0  0  0  0  0  0
   -1.5478   -2.2948   -1.0177 H   0  0  0  0  0  0  0  0  0  0  0  0
  1  2  1  0
  2  3  1  0
  3  4  1  0
  4  5  1  0
  5  6  1  0
  6  7  1  0
  7  8  1  0
  8  9  2  0
  5  2  1  0
  8  2  1  0
  1 10  1  0
  1 11  1  0
  1 12  1  0
  3 13  1  0
  3 14  1  0
  4 15  1  0
  4 16  1  0
  5 17  1  0
  7 18  1  0
  7 19  1  0
M  END
