
     RDKit          3D

 21 22  0  0  0  0  0  0  0  0999 V2000
   -2.2948   -0.1473    0.6122 C   0  0  0  0  0  0  0  0  0  0  0  0
   -1.0331   -0.0737   -0.1842 C   0  0  0  0  0  0  0  0  0  0  0  0
   -0.3023   -1.3536   -0.5338 C   0  0  0  0  0  0  0  0  0  0  0  0
    1.1642   -1.0935   -0.3286 C   0  0  0  0  0  0  0  0  0  0  0  0
    1.1981    0.1436    0.5067 C   0  0  0  0  0  0  0  0  0  0  0  0
    2.4534    0.9196    0.3781 C   0  0  0  0  0  0  0  0  0  0  0  0
    2.7764    1.6598    1.3137 O   0  0  0  0  0  0  0  0  0  0  0  0
   -0.0348    0.9264    0.2544 C   0  0  0  0  0  0  0  0  0  0  0  0
   -0.6871    1.0794   -1.0346 C   0  0  0  0  0  0  0  0  0  0  0  0
   -2.3046    0.5721    1.4783 H   0  0  0  0  0  0  0  0  0  0  0  0
   -3.2115    0.0366    0.0532 H   0  0  0  0  0  0  0  0  0  0  0  0
   -2.3205   -1.1740    1.0826 H   0  0  0  0  0  0  0  0  0  0  0  0
   -0.4986   -1.5189   -1.6327 H   0  0  0  0  0  0  0  0  0  0  0  0
   -0.6851   -2.2343   -0.0220 H   0  0  0  0  0  0  0  0  0  0  0  0
    1.5589   -1.9709    0.2645 H   0  0  0  0  0  0  0  0  0  0  0  0
    1.6807   -1.0086   -1.2949 H   0  0  0  0  0  0  0  0  0  0  0  0
    1.1560   -0.1888    1.5865 H   0  0  0  0  0  0  0  0  0  0  0  0
    3.1133    0.8925   -0.4693 H   0  0  0  0  0  0  0  0  0  0  0  0
   -0.2954    1.6584    1.0633 H   0  0  0  0  0  0  0  0  0  0  0  0
   -0.0565    0.9271   -1.9358 H   0  0  0  0  0  0  0  0  0  0  0  0
   -1.3769    1.9481   -1.1577 H   0  0  0  0  0  0  0  0  0  0  0  0
  1  2  1  0
  2  3  1  0
  3  4  1  0
  4  5  1  0
  5  6  1  0
  6  7  2  0
  5  8  1  0
  8  9  1  0
  8  2  1  0
  9  2  1  0
  1 10  1  0
  1 11  1  0
  1 12  1  0
  3 13  1  0
  3 14  1  0
  4 15  1  0
  4 16  1  0
  5 17  1  0
  6 18  1  0
  8 19  1  0
  9 20  1  0
  9 21  1  0
M  END
