
     RDKit          3D

 21 22  0  0  0  0  0  0  0  0999 V2000
   -1.9846   -1.2273    0.2518 C   0  0  0  0  0  0  0  0  0  0  0  0
   -0.7024   -0.4713    0.2779 C   0  0  0  0  0  0  0  0  0  0  0  0
    0.4146   -1.1921    0.9212 C   0  0  0  0  0  0  0  0  0  0  0  0
    1.6388   -0.8019    0.6258 C   0  0  0  0  0  0  0  0  0  0  0  0
    1.8054    0.5672    0.0618 C   0  0  0  0  0  0  0  0  0  0  0  0
    0.6575    1.0525   -0.7474 C   0  0  0  0  0  0  0  0  0  0  0  0
   -0.3991    1.7578    0.0804 C   0  0  0  0  0  0  0  0  0  0  0  0
   -0.9192    0.7662    0.8555 O   0  0  0  0  0  0  0  0  0  0  0  0
   -0.1879   -0.1715   -1.1435 C   0  0  0  0  0  0  0  0  0  0  0  0
   -2.8114   -0.4861    0.0711 H   0  0  0  0  0  0  0  0  0  0  0  0
   -2.0146   -2.0609   -0.4708 H   0  0  0  0  0  0  0  0  0  0  0  0
   -2.1434   -1.6731    1.2535 H   0  0  0  0  0  0  0  0  0  0  0  0
    0.2167   -1.9938    1.5946 H   0  0  0  0  0  0  0  0  0  0  0  0
    2.5156   -1.4580    0.7868 H   0  0  0  0  0  0  0  0  0  0  0  0
    2.7690    0.6463   -0.4807 H   0  0  0  0  0  0  0  0  0  0  0  0
    1.8926    1.2495    0.9579 H   0  0  0  0  0  0  0  0  0  0  0  0
    0.9384    1.6400   -1.6363 H   0  0  0  0  0  0  0  0  0  0  0  0
   -1.1984    2.1067   -0.6163 H   0  0  0  0  0  0  0  0  0  0  0  0
    0.0215    2.5936    0.6716 H   0  0  0  0  0  0  0  0  0  0  0  0
   -1.0023    0.0989   -1.8162 H   0  0  0  0  0  0  0  0  0  0  0  0
    0.4933   -0.9426   -1.4987 H   0  0  0  0  0  0  0  0  0  0  0  0
  1  2  1  0
  2  3  1  0
  3  4  2  0
  4  5  1  0
  5  6  1  0
  6  7  1  0
  7  8  1  0
  6  9  1  0
  8  2  1  0
  9  2  1  0
  1 10  1  0
  1 11  1  0
  1 12  1  0
  3 13  1  0
  4 14  1  0
  5 15  1  0
  5 16  1  0
  6 17  1  0
  7 18  1  0
  7 19  1  0
  9 20  1  0
  9 21  1  0
M  END
