
     RDKit          3D

 18 20  0  0  0  0  0  0  0  0999 V2000
   -1.9944   -0.7795   -0.1102 C   0  0  0  0  0  0  0  0  0  0  0  0
   -0.7232   -0.0790    0.0442 C   0  0  0  0  0  0  0  0  0  0  0  0
   -0.2173    0.7798   -1.0792 C   0  0  0  0  0  0  0  0  0  0  0  0
    0.4368    1.4400    0.0805 C   0  0  0  0  0  0  0  0  0  0  0  0
   -0.7294    1.1113    0.8145 O   0  0  0  0  0  0  0  0  0  0  0  0
    1.4170    0.4534    0.6797 C   0  0  0  0  0  0  0  0  0  0  0  0
    1.7898   -0.7661   -0.0244 C   0  0  0  0  0  0  0  0  0  0  0  0
    0.4633   -0.7958    0.5962 C   0  0  0  0  0  0  0  0  0  0  0  0
   -2.7494   -0.3266    0.5973 H   0  0  0  0  0  0  0  0  0  0  0  0
   -2.4641   -0.6679   -1.1178 H   0  0  0  0  0  0  0  0  0  0  0  0
   -1.9068   -1.8351    0.2052 H   0  0  0  0  0  0  0  0  0  0  0  0
    0.3852    0.3208   -1.8465 H   0  0  0  0  0  0  0  0  0  0  0  0
   -0.9802    1.4399   -1.5215 H   0  0  0  0  0  0  0  0  0  0  0  0
    0.7090    2.4724    0.0426 H   0  0  0  0  0  0  0  0  0  0  0  0
    1.7303    0.6838    1.7269 H   0  0  0  0  0  0  0  0  0  0  0  0
    1.9744   -0.7137   -1.1056 H   0  0  0  0  0  0  0  0  0  0  0  0
    2.5609   -1.3989    0.4947 H   0  0  0  0  0  0  0  0  0  0  0  0
    0.2979   -1.3387    1.5237 H   0  0  0  0  0  0  0  0  0  0  0  0
  1  2  1  0
  2  3  1  0
  3  4  1  0
  4  5  1  0
  4  6  1  0
  6  7  1  0
  7  8  1  0
  5  2  1  0
  8  6  1  0
  8  2  1  0
  1  9  1  0
  1 10  1  0
  1 11  1  0
  3 12  1  0
  3 13  1  0
  4 14  1  0
  6 15  1  0
  7 16  1  0
  7 17  1  0
  8 18  1  0
M  END
