
     RDKit          3D

 19 21  0  0  0  0  0  0  0  0999 V2000
    2.3641    0.0818    0.2068 C   0  0  0  0  0  0  0  0  0  0  0  0
    0.8608    0.0435    0.3431 C   0  0  0  0  0  0  0  0  0  0  0  0
    0.1802    1.2735    0.8341 C   0  0  0  0  0  0  0  0  0  0  0  0
   -0.9543    1.4146    0.1746 C   0  0  0  0  0  0  0  0  0  0  0  0
   -1.1602    0.3333   -0.8012 C   0  0  0  0  0  0  0  0  0  0  0  0
   -2.0029   -0.7214   -0.0979 C   0  0  0  0  0  0  0  0  0  0  0  0
   -1.1420   -1.4037    0.7429 O   0  0  0  0  0  0  0  0  0  0  0  0
    0.1395   -1.2220    0.3683 C   0  0  0  0  0  0  0  0  0  0  0  0
    0.1458   -0.3973   -0.8564 C   0  0  0  0  0  0  0  0  0  0  0  0
    2.6053    1.0710   -0.2727 H   0  0  0  0  0  0  0  0  0  0  0  0
    2.7874    0.0553    1.2205 H   0  0  0  0  0  0  0  0  0  0  0  0
    2.6604   -0.7719   -0.4183 H   0  0  0  0  0  0  0  0  0  0  0  0
    0.6051    1.9008    1.6076 H   0  0  0  0  0  0  0  0  0  0  0  0
   -1.6243    2.2506    0.3672 H   0  0  0  0  0  0  0  0  0  0  0  0
   -1.5646    0.6405   -1.7600 H   0  0  0  0  0  0  0  0  0  0  0  0
   -2.7902   -0.2574    0.5453 H   0  0  0  0  0  0  0  0  0  0  0  0
   -2.4674   -1.3508   -0.8697 H   0  0  0  0  0  0  0  0  0  0  0  0
    0.7819   -2.1476    0.4228 H   0  0  0  0  0  0  0  0  0  0  0  0
    0.5755   -0.7928   -1.7572 H   0  0  0  0  0  0  0  0  0  0  0  0
  1  2  1  0
  2  3  1  0
  3  4  2  0
  4  5  1  0
  5  6  1  0
  6  7  1  0
  7  8  1  0
  8  9  1  0
  8  2  1  0
  9  2  1  0
  9  5  1  0
  1 10  1  0
  1 11  1  0
  1 12  1  0
  3 13  1  0
  4 14  1  0
  5 15  1  0
  6 16  1  0
  6 17  1  0
  8 18  1  0
  9 19  1  0
M  END
