
     RDKit          3D

 19 20  0  0  0  0  0  0  0  0999 V2000
   -0.6630    1.5618    0.4197 C   0  0  0  0  0  0  0  0  0  0  0  0
   -0.0839    0.3902   -0.3485 C   0  0  0  0  0  0  0  0  0  0  0  0
    1.1512    0.5747   -0.8751 O   0  0  0  0  0  0  0  0  0  0  0  0
    2.0279    0.4290    0.2346 C   0  0  0  0  0  0  0  0  0  0  0  0
    1.4053   -0.7785    0.8926 C   0  0  0  0  0  0  0  0  0  0  0  0
    0.1370   -0.8205    0.5492 C   0  0  0  0  0  0  0  0  0  0  0  0
   -1.3427   -1.1478    0.3300 C   0  0  0  0  0  0  0  0  0  0  0  0
   -1.1381   -0.4035   -1.0262 C   0  0  0  0  0  0  0  0  0  0  0  0
   -0.7198   -1.2425   -2.0376 O   0  0  0  0  0  0  0  0  0  0  0  0
   -0.4901    2.4825   -0.1819 H   0  0  0  0  0  0  0  0  0  0  0  0
   -0.1830    1.6738    1.3927 H   0  0  0  0  0  0  0  0  0  0  0  0
   -1.7636    1.4467    0.5079 H   0  0  0  0  0  0  0  0  0  0  0  0
    2.9951    0.1154   -0.1900 H   0  0  0  0  0  0  0  0  0  0  0  0
    2.0731    1.3035    0.8686 H   0  0  0  0  0  0  0  0  0  0  0  0
    1.8851   -1.5042    1.5389 H   0  0  0  0  0  0  0  0  0  0  0  0
   -1.5011   -2.2314    0.2019 H   0  0  0  0  0  0  0  0  0  0  0  0
   -1.9678   -0.5976    1.0285 H   0  0  0  0  0  0  0  0  0  0  0  0
   -2.0753    0.1058   -1.2889 H   0  0  0  0  0  0  0  0  0  0  0  0
    0.2536   -1.3573   -2.0166 H   0  0  0  0  0  0  0  0  0  0  0  0
  1  2  1  0
  2  3  1  0
  3  4  1  0
  4  5  1  0
  5  6  2  0
  6  7  1  0
  7  8  1  0
  8  9  1  0
  6  2  1  0
  8  2  1  0
  1 10  1  0
  1 11  1  0
  1 12  1  0
  4 13  1  0
  4 14  1  0
  5 15  1  0
  7 16  1  0
  7 17  1  0
  8 18  1  0
  9 19  1  0
M  END
