
     RDKit          3D

 21 22  0  0  0  0  0  0  0  0999 V2000
   -2.1644    0.7329    0.5224 C   0  0  0  0  0  0  0  0  0  0  0  0
   -0.7680    0.2774    0.2427 C   0  0  0  0  0  0  0  0  0  0  0  0
   -0.3504   -1.0019    0.9714 C   0  0  0  0  0  0  0  0  0  0  0  0
    0.3050   -1.4251   -0.3120 C   0  0  0  0  0  0  0  0  0  0  0  0
   -0.5989   -0.4574   -1.0367 C   0  0  0  0  0  0  0  0  0  0  0  0
    1.6202   -1.1819   -0.4151 O   0  0  0  0  0  0  0  0  0  0  0  0
    2.1368    0.0003   -0.0981 C   0  0  0  0  0  0  0  0  0  0  0  0
    1.2911    1.2199   -0.2386 C   0  0  0  0  0  0  0  0  0  0  0  0
    0.1542    1.2318    0.5176 O   0  0  0  0  0  0  0  0  0  0  0  0
   -2.6392    0.1568    1.3143 H   0  0  0  0  0  0  0  0  0  0  0  0
   -2.1832    1.8298    0.7685 H   0  0  0  0  0  0  0  0  0  0  0  0
   -2.7309    0.6620   -0.4517 H   0  0  0  0  0  0  0  0  0  0  0  0
    0.2896   -0.8597    1.8384 H   0  0  0  0  0  0  0  0  0  0  0  0
   -1.2856   -1.6052    1.1345 H   0  0  0  0  0  0  0  0  0  0  0  0
    0.0546   -2.4675   -0.5889 H   0  0  0  0  0  0  0  0  0  0  0  0
   -1.5727   -0.9393   -1.3371 H   0  0  0  0  0  0  0  0  0  0  0  0
   -0.1868    0.0601   -1.8955 H   0  0  0  0  0  0  0  0  0  0  0  0
    2.5301   -0.0099    0.9559 H   0  0  0  0  0  0  0  0  0  0  0  0
    3.0598    0.1816   -0.7249 H   0  0  0  0  0  0  0  0  0  0  0  0
    1.9171    2.0820    0.1469 H   0  0  0  0  0  0  0  0  0  0  0  0
    1.1216    1.5132   -1.3142 H   0  0  0  0  0  0  0  0  0  0  0  0
  1  2  1  0
  2  3  1  0
  3  4  1  0
  4  5  1  0
  4  6  1  0
  6  7  1  0
  7  8  1  0
  8  9  1  0
  5  2  1  0
  9  2  1  0
  1 10  1  0
  1 11  1  0
  1 12  1  0
  3 13  1  0
  3 14  1  0
  4 15  1  0
  5 16  1  0
  5 17  1  0
  7 18  1  0
  7 19  1  0
  8 20  1  0
  8 21  1  0
M  END
