
     RDKit          3D

 19 21  0  0  0  0  0  0  0  0999 V2000
    2.2211   -0.5993   -0.1490 C   0  0  0  0  0  0  0  0  0  0  0  0
    0.9717    0.1546    0.0191 C   0  0  0  0  0  0  0  0  0  0  0  0
    0.9866    0.9030    1.3060 O   0  0  0  0  0  0  0  0  0  0  0  0
    0.5823    1.4303    0.0253 C   0  0  0  0  0  0  0  0  0  0  0  0
   -0.8907    1.0713   -0.2172 C   0  0  0  0  0  0  0  0  0  0  0  0
   -1.7924    1.2469    0.8012 O   0  0  0  0  0  0  0  0  0  0  0  0
   -1.2251    0.2150   -1.3725 C   0  0  0  0  0  0  0  0  0  0  0  0
   -0.3724   -0.4011   -0.3477 C   0  0  0  0  0  0  0  0  0  0  0  0
   -0.9281   -1.4000    0.6149 C   0  0  0  0  0  0  0  0  0  0  0  0
    3.1113   -0.0230   -0.4072 H   0  0  0  0  0  0  0  0  0  0  0  0
    2.4401   -1.1442    0.8156 H   0  0  0  0  0  0  0  0  0  0  0  0
    2.0458   -1.4255   -0.8974 H   0  0  0  0  0  0  0  0  0  0  0  0
    0.9502    2.4086   -0.2539 H   0  0  0  0  0  0  0  0  0  0  0  0
   -1.8175    2.1305    1.1975 H   0  0  0  0  0  0  0  0  0  0  0  0
   -2.2609   -0.1268   -1.4424 H   0  0  0  0  0  0  0  0  0  0  0  0
   -0.8019    0.5259   -2.3570 H   0  0  0  0  0  0  0  0  0  0  0  0
   -1.7413   -0.9217    1.1804 H   0  0  0  0  0  0  0  0  0  0  0  0
   -1.3110   -2.3217    0.1349 H   0  0  0  0  0  0  0  0  0  0  0  0
   -0.1678   -1.7228    1.3494 H   0  0  0  0  0  0  0  0  0  0  0  0
  1  2  1  0
  2  3  1  0
  3  4  1  0
  4  5  1  0
  5  6  1  0
  5  7  1  0
  7  8  1  0
  8  9  1  0
  4  2  1  0
  8  5  1  0
  8  2  1  0
  1 10  1  0
  1 11  1  0
  1 12  1  0
  4 13  1  0
  6 14  1  0
  7 15  1  0
  7 16  1  0
  9 17  1  0
  9 18  1  0
  9 19  1  0
M  END
