
     RDKit          3D

 23 25  0  0  0  0  0  0  0  0999 V2000
   -1.6531    1.1976    0.9195 C   0  0  0  0  0  0  0  0  0  0  0  0
   -0.8956    0.3080    0.0031 C   0  0  0  0  0  0  0  0  0  0  0  0
   -1.5107   -0.1008   -1.3377 C   0  0  0  0  0  0  0  0  0  0  0  0
   -1.2094   -1.5450   -0.9364 C   0  0  0  0  0  0  0  0  0  0  0  0
   -0.5189   -1.0761    0.3306 C   0  0  0  0  0  0  0  0  0  0  0  0
    0.4944   -0.0649    0.2024 C   0  0  0  0  0  0  0  0  0  0  0  0
    1.5443    0.0127   -0.8461 C   0  0  0  0  0  0  0  0  0  0  0  0
    2.5675    0.1707    0.2856 C   0  0  0  0  0  0  0  0  0  0  0  0
    1.3995    0.4364    1.2428 C   0  0  0  0  0  0  0  0  0  0  0  0
   -2.7197    1.1944    0.6268 H   0  0  0  0  0  0  0  0  0  0  0  0
   -1.5922    0.8955    1.9928 H   0  0  0  0  0  0  0  0  0  0  0  0
   -1.2629    2.2437    0.8123 H   0  0  0  0  0  0  0  0  0  0  0  0
   -0.8142    0.2189   -2.1430 H   0  0  0  0  0  0  0  0  0  0  0  0
   -2.5636    0.1421   -1.4616 H   0  0  0  0  0  0  0  0  0  0  0  0
   -2.1382   -2.1430   -0.7504 H   0  0  0  0  0  0  0  0  0  0  0  0
   -0.5304   -2.0751   -1.6232 H   0  0  0  0  0  0  0  0  0  0  0  0
   -0.8333   -1.5267    1.3064 H   0  0  0  0  0  0  0  0  0  0  0  0
    1.7104   -0.8580   -1.4854 H   0  0  0  0  0  0  0  0  0  0  0  0
    1.4358    0.9792   -1.4146 H   0  0  0  0  0  0  0  0  0  0  0  0
    3.0346   -0.8093    0.4642 H   0  0  0  0  0  0  0  0  0  0  0  0
    3.2210    1.0263    0.1073 H   0  0  0  0  0  0  0  0  0  0  0  0
    1.4996   -0.1469    2.1866 H   0  0  0  0  0  0  0  0  0  0  0  0
    1.3350    1.5203    1.5176 H   0  0  0  0  0  0  0  0  0  0  0  0
  1  2  1  0
  2  3  1  0
  3  4  1  0
  4  5  1  0
  5  6  1  0
  6  7  1  0
  7  8  1  0
  8  9  1  0
  5  2  1  0
  9  6  1  0
  6  2  1  0
  1 10  1  0
  1 11  1  0
  1 12  1  0
  3 13  1  0
  3 14  1  0
  4 15  1  0
  4 16  1  0
  5 17  1  0
  7 18  1  0
  7 19  1  0
  8 20  1  0
  8 21  1  0
  9 22  1  0
  9 23  1  0
M  END
