
     RDKit          3D

 21 22  0  0  0  0  0  0  0  0999 V2000
   -0.0100    2.1182   -0.3474 C   0  0  0  0  0  0  0  0  0  0  0  0
    0.1818    0.6262   -0.2309 C   0  0  0  0  0  0  0  0  0  0  0  0
   -0.7635   -0.1809   -1.0513 C   0  0  0  0  0  0  0  0  0  0  0  0
   -1.6974   -0.7824   -0.0211 C   0  0  0  0  0  0  0  0  0  0  0  0
   -0.6804   -1.2469    1.0173 C   0  0  0  0  0  0  0  0  0  0  0  0
    0.2061   -0.0358    1.1032 C   0  0  0  0  0  0  0  0  0  0  0  0
    1.4455    0.1207    0.3260 C   0  0  0  0  0  0  0  0  0  0  0  0
    2.1531   -0.9898   -0.3231 C   0  0  0  0  0  0  0  0  0  0  0  0
    1.5964   -1.9462   -0.8159 O   0  0  0  0  0  0  0  0  0  0  0  0
    0.7045    2.6211    0.3551 H   0  0  0  0  0  0  0  0  0  0  0  0
   -1.0570    2.3552   -0.1444 H   0  0  0  0  0  0  0  0  0  0  0  0
    0.3286    2.4127   -1.3647 H   0  0  0  0  0  0  0  0  0  0  0  0
   -0.3009   -0.9418   -1.6944 H   0  0  0  0  0  0  0  0  0  0  0  0
   -1.4041    0.4477   -1.7069 H   0  0  0  0  0  0  0  0  0  0  0  0
   -2.2971    0.0115    0.4327 H   0  0  0  0  0  0  0  0  0  0  0  0
   -2.2793   -1.6328   -0.4170 H   0  0  0  0  0  0  0  0  0  0  0  0
   -1.2591   -1.4220    1.9496 H   0  0  0  0  0  0  0  0  0  0  0  0
   -0.2138   -2.1467    0.6181 H   0  0  0  0  0  0  0  0  0  0  0  0
   -0.0039    0.6440    1.9528 H   0  0  0  0  0  0  0  0  0  0  0  0
    2.1206    0.9309    0.7318 H   0  0  0  0  0  0  0  0  0  0  0  0
    3.2299   -0.9627   -0.3695 H   0  0  0  0  0  0  0  0  0  0  0  0
  1  2  1  0
  2  3  1  0
  3  4  1  0
  4  5  1  0
  5  6  1  0
  6  7  1  0
  7  8  1  0
  8  9  2  0
  6  2  1  0
  7  2  1  0
  1 10  1  0
  1 11  1  0
  1 12  1  0
  3 13  1  0
  3 14  1  0
  4 15  1  0
  4 16  1  0
  5 17  1  0
  5 18  1  0
  6 19  1  0
  7 20  1  0
  8 21  1  0
M  END
