
     RDKit          3D

 20 22  0  0  0  0  0  0  0  0999 V2000
   -0.6246    1.8031   -0.1876 C   0  0  0  0  0  0  0  0  0  0  0  0
   -0.1895    0.5912    0.5554 C   0  0  0  0  0  0  0  0  0  0  0  0
    1.1073    0.4843    1.2293 C   0  0  0  0  0  0  0  0  0  0  0  0
    0.7587   -0.3949    0.0442 C   0  0  0  0  0  0  0  0  0  0  0  0
    1.5343   -0.2241   -1.2211 C   0  0  0  0  0  0  0  0  0  0  0  0
   -0.2546   -1.4773    0.1837 C   0  0  0  0  0  0  0  0  0  0  0  0
   -1.6296   -1.2991   -0.3170 C   0  0  0  0  0  0  0  0  0  0  0  0
   -1.2183   -0.4773    0.8408 C   0  0  0  0  0  0  0  0  0  0  0  0
   -1.3778    2.3449    0.4469 H   0  0  0  0  0  0  0  0  0  0  0  0
   -1.1339    1.6050   -1.1470 H   0  0  0  0  0  0  0  0  0  0  0  0
    0.2343    2.4967   -0.2789 H   0  0  0  0  0  0  0  0  0  0  0  0
    1.2847   -0.0741    2.1549 H   0  0  0  0  0  0  0  0  0  0  0  0
    1.8597    1.2587    1.0184 H   0  0  0  0  0  0  0  0  0  0  0  0
    1.8931    0.7961   -1.3944 H   0  0  0  0  0  0  0  0  0  0  0  0
    2.4568   -0.8653   -1.1264 H   0  0  0  0  0  0  0  0  0  0  0  0
    0.9570   -0.6583   -2.0517 H   0  0  0  0  0  0  0  0  0  0  0  0
    0.0047   -2.3823    0.7705 H   0  0  0  0  0  0  0  0  0  0  0  0
   -2.3601   -2.0925   -0.1309 H   0  0  0  0  0  0  0  0  0  0  0  0
   -1.8023   -0.7236   -1.2630 H   0  0  0  0  0  0  0  0  0  0  0  0
   -1.4999   -0.7114    1.8741 H   0  0  0  0  0  0  0  0  0  0  0  0
  1  2  1  0
  2  3  1  0
  3  4  1  0
  4  5  1  0
  4  6  1  0
  6  7  1  0
  7  8  1  0
  4  2  1  0
  8  6  1  0
  8  2  1  0
  1  9  1  0
  1 10  1  0
  1 11  1  0
  3 12  1  0
  3 13  1  0
  5 14  1  0
  5 15  1  0
  5 16  1  0
  6 17  1  0
  7 18  1  0
  7 19  1  0
  8 20  1  0
M  END
