
     RDKit          3D

 21 22  0  0  0  0  0  0  0  0999 V2000
   -1.6973   -0.4381   -0.8628 C   0  0  0  0  0  0  0  0  0  0  0  0
   -0.7167   -0.2098    0.2497 C   0  0  0  0  0  0  0  0  0  0  0  0
   -0.7432    1.1605    0.8477 C   0  0  0  0  0  0  0  0  0  0  0  0
    0.5331    1.7754    0.3310 C   0  0  0  0  0  0  0  0  0  0  0  0
    1.4948    0.5962    0.4148 C   0  0  0  0  0  0  0  0  0  0  0  0
    0.7036   -0.6296    0.0806 C   0  0  0  0  0  0  0  0  0  0  0  0
    1.1149   -1.4440   -1.0931 C   0  0  0  0  0  0  0  0  0  0  0  0
    1.8250   -2.4368   -0.8977 O   0  0  0  0  0  0  0  0  0  0  0  0
   -0.1697   -1.2917    1.0652 C   0  0  0  0  0  0  0  0  0  0  0  0
   -2.7245   -0.6769   -0.5047 H   0  0  0  0  0  0  0  0  0  0  0  0
   -1.7894    0.5335   -1.4176 H   0  0  0  0  0  0  0  0  0  0  0  0
   -1.3553   -1.1942   -1.5995 H   0  0  0  0  0  0  0  0  0  0  0  0
   -0.7869    1.1460    1.9580 H   0  0  0  0  0  0  0  0  0  0  0  0
   -1.5886    1.7777    0.5096 H   0  0  0  0  0  0  0  0  0  0  0  0
    0.8875    2.5953    0.9776 H   0  0  0  0  0  0  0  0  0  0  0  0
    0.3593    2.1017   -0.6965 H   0  0  0  0  0  0  0  0  0  0  0  0
    2.0327    0.5505    1.3617 H   0  0  0  0  0  0  0  0  0  0  0  0
    2.2581    0.7418   -0.3868 H   0  0  0  0  0  0  0  0  0  0  0  0
    0.8290   -1.2188   -2.1104 H   0  0  0  0  0  0  0  0  0  0  0  0
   -0.4471   -2.3479    0.8816 H   0  0  0  0  0  0  0  0  0  0  0  0
   -0.0193   -1.0907    2.1571 H   0  0  0  0  0  0  0  0  0  0  0  0
  1  2  1  0
  2  3  1  0
  3  4  1  0
  4  5  1  0
  5  6  1  0
  6  7  1  0
  7  8  2  0
  6  9  1  0
  6  2  1  0
  9  2  1  0
  1 10  1  0
  1 11  1  0
  1 12  1  0
  3 13  1  0
  3 14  1  0
  4 15  1  0
  4 16  1  0
  5 17  1  0
  5 18  1  0
  7 19  1  0
  9 20  1  0
  9 21  1  0
M  END
