
     RDKit          3D

 21 22  0  0  0  0  0  0  0  0999 V2000
    2.0836    0.3349   -0.4802 C   0  0  0  0  0  0  0  0  0  0  0  0
    0.6774    0.1427   -0.2334 C   0  0  0  0  0  0  0  0  0  0  0  0
   -0.1398   -0.7032   -1.2065 C   0  0  0  0  0  0  0  0  0  0  0  0
   -1.0690   -0.8439    0.0063 C   0  0  0  0  0  0  0  0  0  0  0  0
   -1.8834   -1.8889    0.0622 O   0  0  0  0  0  0  0  0  0  0  0  0
   -1.5725    0.5549    0.1460 C   0  0  0  0  0  0  0  0  0  0  0  0
   -0.2350    1.3104    0.0065 C   0  0  0  0  0  0  0  0  0  0  0  0
    0.0606    2.0408    1.1246 O   0  0  0  0  0  0  0  0  0  0  0  0
    0.2358   -0.8827    0.8077 C   0  0  0  0  0  0  0  0  0  0  0  0
    2.6855   -0.5264   -0.1282 H   0  0  0  0  0  0  0  0  0  0  0  0
    2.2712    0.4583   -1.5874 H   0  0  0  0  0  0  0  0  0  0  0  0
    2.4552    1.2635   -0.0195 H   0  0  0  0  0  0  0  0  0  0  0  0
    0.3476   -1.6777   -1.4183 H   0  0  0  0  0  0  0  0  0  0  0  0
   -0.5760   -0.1693   -2.0472 H   0  0  0  0  0  0  0  0  0  0  0  0
   -2.0340   -2.1680    1.0007 H   0  0  0  0  0  0  0  0  0  0  0  0
   -2.1789    0.8232   -0.7325 H   0  0  0  0  0  0  0  0  0  0  0  0
   -2.0439    0.7721    1.1106 H   0  0  0  0  0  0  0  0  0  0  0  0
   -0.2498    1.9852   -0.8652 H   0  0  0  0  0  0  0  0  0  0  0  0
    0.3163    1.5405    1.9133 H   0  0  0  0  0  0  0  0  0  0  0  0
    0.1533   -0.4999    1.8251 H   0  0  0  0  0  0  0  0  0  0  0  0
    0.6957   -1.8666    0.7153 H   0  0  0  0  0  0  0  0  0  0  0  0
  1  2  1  0
  2  3  1  0
  3  4  1  0
  4  5  1  0
  4  6  1  0
  6  7  1  0
  7  8  1  0
  4  9  1  0
  7  2  1  0
  9  2  1  0
  1 10  1  0
  1 11  1  0
  1 12  1  0
  3 13  1  0
  3 14  1  0
  5 15  1  0
  6 16  1  0
  6 17  1  0
  7 18  1  0
  8 19  1  0
  9 20  1  0
  9 21  1  0
M  END
