
     RDKit          3D

 19 20  0  0  0  0  0  0  0  0999 V2000
    1.6950   -1.1471   -0.6275 C   0  0  0  0  0  0  0  0  0  0  0  0
    0.5427   -0.3110   -0.2133 C   0  0  0  0  0  0  0  0  0  0  0  0
   -0.6328   -1.0830    0.3181 C   0  0  0  0  0  0  0  0  0  0  0  0
   -1.7828   -0.1068    0.0782 C   0  0  0  0  0  0  0  0  0  0  0  0
   -1.0634    1.0498   -0.5729 C   0  0  0  0  0  0  0  0  0  0  0  0
   -0.0506    0.3757   -1.2962 O   0  0  0  0  0  0  0  0  0  0  0  0
   -0.2466    1.7494    0.4448 C   0  0  0  0  0  0  0  0  0  0  0  0
   -0.4154    2.8083    1.0049 O   0  0  0  0  0  0  0  0  0  0  0  0
    0.9185    0.8520    0.6829 C   0  0  0  0  0  0  0  0  0  0  0  0
    1.3908   -2.2177   -0.5576 H   0  0  0  0  0  0  0  0  0  0  0  0
    1.9492   -0.8814   -1.6863 H   0  0  0  0  0  0  0  0  0  0  0  0
    2.5573   -1.0087    0.0547 H   0  0  0  0  0  0  0  0  0  0  0  0
   -0.5448   -1.3830    1.3629 H   0  0  0  0  0  0  0  0  0  0  0  0
   -0.7748   -1.9607   -0.3410 H   0  0  0  0  0  0  0  0  0  0  0  0
   -2.5349   -0.5098   -0.6050 H   0  0  0  0  0  0  0  0  0  0  0  0
   -2.2020    0.2596    1.0356 H   0  0  0  0  0  0  0  0  0  0  0  0
   -1.6793    1.6836   -1.1892 H   0  0  0  0  0  0  0  0  0  0  0  0
    1.0044    0.5565    1.7486 H   0  0  0  0  0  0  0  0  0  0  0  0
    1.8695    1.2743    0.3583 H   0  0  0  0  0  0  0  0  0  0  0  0
  1  2  1  0
  2  3  1  0
  3  4  1  0
  4  5  1  0
  5  6  1  0
  5  7  1  0
  7  8  2  0
  7  9  1  0
  6  2  1  0
  9  2  1  0
  1 10  1  0
  1 11  1  0
  1 12  1  0
  3 13  1  0
  3 14  1  0
  4 15  1  0
  4 16  1  0
  5 17  1  0
  9 18  1  0
  9 19  1  0
M  END
