
     RDKit          3D

 19 20  0  0  0  0  0  0  0  0999 V2000
   -1.6063   -1.3127   -0.2102 C   0  0  0  0  0  0  0  0  0  0  0  0
   -0.6798   -0.2431    0.2561 C   0  0  0  0  0  0  0  0  0  0  0  0
    0.0868   -0.5569    1.3586 O   0  0  0  0  0  0  0  0  0  0  0  0
    0.6626   -0.0885    0.2062 C   0  0  0  0  0  0  0  0  0  0  0  0
    1.7413   -0.8147   -0.5049 C   0  0  0  0  0  0  0  0  0  0  0  0
    2.8895   -1.0152    0.2565 O   0  0  0  0  0  0  0  0  0  0  0  0
    0.5590    1.4364    0.0613 C   0  0  0  0  0  0  0  0  0  0  0  0
   -0.9515    1.2073   -0.0902 C   0  0  0  0  0  0  0  0  0  0  0  0
   -1.7297    1.7950    0.8642 O   0  0  0  0  0  0  0  0  0  0  0  0
   -1.0587   -2.2835   -0.1510 H   0  0  0  0  0  0  0  0  0  0  0  0
   -2.0602   -1.1414   -1.1898 H   0  0  0  0  0  0  0  0  0  0  0  0
   -2.4356   -1.3954    0.5279 H   0  0  0  0  0  0  0  0  0  0  0  0
    1.3336   -1.7820   -0.8837 H   0  0  0  0  0  0  0  0  0  0  0  0
    2.0564   -0.1842   -1.3800 H   0  0  0  0  0  0  0  0  0  0  0  0
    2.6580   -1.4348    1.1170 H   0  0  0  0  0  0  0  0  0  0  0  0
    0.7451    1.9456    1.0205 H   0  0  0  0  0  0  0  0  0  0  0  0
    1.0496    1.8421   -0.8303 H   0  0  0  0  0  0  0  0  0  0  0  0
   -1.3035    1.2911   -1.1440 H   0  0  0  0  0  0  0  0  0  0  0  0
   -1.9567    2.7350    0.7156 H   0  0  0  0  0  0  0  0  0  0  0  0
  1  2  1  0
  2  3  1  0
  3  4  1  0
  4  5  1  0
  5  6  1  0
  4  7  1  0
  7  8  1  0
  8  9  1  0
  4  2  1  0
  8  2  1  0
  1 10  1  0
  1 11  1  0
  1 12  1  0
  5 13  1  0
  5 14  1  0
  6 15  1  0
  7 16  1  0
  7 17  1  0
  8 18  1  0
  9 19  1  0
M  END
