
     RDKit          3D

 17 18  0  0  0  0  0  0  0  0999 V2000
   -2.0879    0.8444   -0.4324 C   0  0  0  0  0  0  0  0  0  0  0  0
   -0.8316    0.1714   -0.2301 C   0  0  0  0  0  0  0  0  0  0  0  0
    0.4306    0.9650   -0.1206 C   0  0  0  0  0  0  0  0  0  0  0  0
    1.3311   -0.0064   -0.0479 C   0  0  0  0  0  0  0  0  0  0  0  0
    2.7804    0.0432    0.0789 C   0  0  0  0  0  0  0  0  0  0  0  0
    3.5046   -0.9614    0.1359 O   0  0  0  0  0  0  0  0  0  0  0  0
    0.4497   -1.2160   -0.1323 C   0  0  0  0  0  0  0  0  0  0  0  0
   -0.6561   -0.8621    0.8336 C   0  0  0  0  0  0  0  0  0  0  0  0
   -0.4247   -0.8243   -1.1479 O   0  0  0  0  0  0  0  0  0  0  0  0
   -2.5983    1.0304    0.5475 H   0  0  0  0  0  0  0  0  0  0  0  0
   -2.7803    0.2300   -1.0496 H   0  0  0  0  0  0  0  0  0  0  0  0
   -1.9557    1.7984   -0.9657 H   0  0  0  0  0  0  0  0  0  0  0  0
    0.5196    2.0383   -0.1092 H   0  0  0  0  0  0  0  0  0  0  0  0
    3.2200    1.0404    0.1234 H   0  0  0  0  0  0  0  0  0  0  0  0
    0.8790   -2.1753   -0.1331 H   0  0  0  0  0  0  0  0  0  0  0  0
   -1.4981   -1.5807    0.8414 H   0  0  0  0  0  0  0  0  0  0  0  0
   -0.2822   -0.5356    1.8081 H   0  0  0  0  0  0  0  0  0  0  0  0
  1  2  1  0
  2  3  1  0
  3  4  2  0
  4  5  1  0
  5  6  2  0
  4  7  1  0
  7  8  1  0
  7  9  1  0
  8  2  1  0
  9  2  1  0
  1 10  1  0
  1 11  1  0
  1 12  1  0
  3 13  1  0
  5 14  1  0
  7 15  1  0
  8 16  1  0
  8 17  1  0
M  END
