
     RDKit          3D

 19 21  0  0  0  0  0  0  0  0999 V2000
    2.2133   -0.0635    0.3751 C   0  0  0  0  0  0  0  0  0  0  0  0
    0.7308    0.1141    0.2992 C   0  0  0  0  0  0  0  0  0  0  0  0
    0.2492    1.4558   -0.1828 C   0  0  0  0  0  0  0  0  0  0  0  0
   -0.5696    1.2780   -1.2671 O   0  0  0  0  0  0  0  0  0  0  0  0
   -1.7213    0.5860   -0.8919 C   0  0  0  0  0  0  0  0  0  0  0  0
   -1.4321   -0.7861   -0.3560 C   0  0  0  0  0  0  0  0  0  0  0  0
   -0.8490   -0.9875    0.9835 C   0  0  0  0  0  0  0  0  0  0  0  0
    0.1268   -0.1892    1.5110 O   0  0  0  0  0  0  0  0  0  0  0  0
    0.0139   -1.0424   -0.3138 C   0  0  0  0  0  0  0  0  0  0  0  0
    2.6448    0.3827    1.2956 H   0  0  0  0  0  0  0  0  0  0  0  0
    2.4078   -1.1712    0.4720 H   0  0  0  0  0  0  0  0  0  0  0  0
    2.7453    0.2439   -0.5402 H   0  0  0  0  0  0  0  0  0  0  0  0
   -0.3549    1.9985    0.5983 H   0  0  0  0  0  0  0  0  0  0  0  0
    1.1149    2.0833   -0.3885 H   0  0  0  0  0  0  0  0  0  0  0  0
   -2.3136    1.1396   -0.1233 H   0  0  0  0  0  0  0  0  0  0  0  0
   -2.3233    0.4777   -1.8386 H   0  0  0  0  0  0  0  0  0  0  0  0
   -2.1600   -1.5762   -0.6655 H   0  0  0  0  0  0  0  0  0  0  0  0
   -1.0098   -1.9410    1.5088 H   0  0  0  0  0  0  0  0  0  0  0  0
    0.4869   -2.0024   -0.4759 H   0  0  0  0  0  0  0  0  0  0  0  0
  1  2  1  0
  2  3  1  0
  3  4  1  0
  4  5  1  0
  5  6  1  0
  6  7  1  0
  7  8  1  0
  7  9  1  0
  8  2  1  0
  9  2  1  0
  9  6  1  0
  1 10  1  0
  1 11  1  0
  1 12  1  0
  3 13  1  0
  3 14  1  0
  5 15  1  0
  5 16  1  0
  6 17  1  0
  7 18  1  0
  9 19  1  0
M  END
