
     RDKit          3D

 21 23  0  0  0  0  0  0  0  0999 V2000
   -0.5643    1.6778    0.7790 C   0  0  0  0  0  0  0  0  0  0  0  0
   -0.0831    0.7430   -0.2796 C   0  0  0  0  0  0  0  0  0  0  0  0
    1.3449    0.7120   -0.7100 C   0  0  0  0  0  0  0  0  0  0  0  0
    2.3333   -0.0317    0.1155 C   0  0  0  0  0  0  0  0  0  0  0  0
    1.2851   -0.8245   -0.5703 C   0  0  0  0  0  0  0  0  0  0  0  0
   -0.1437   -0.7130   -0.1640 C   0  0  0  0  0  0  0  0  0  0  0  0
   -0.6846   -1.4374    1.0191 C   0  0  0  0  0  0  0  0  0  0  0  0
   -1.0906   -0.0062   -1.0851 C   0  0  0  0  0  0  0  0  0  0  0  0
   -2.4040    0.1657   -0.6917 O   0  0  0  0  0  0  0  0  0  0  0  0
   -1.5116    2.1552    0.4036 H   0  0  0  0  0  0  0  0  0  0  0  0
   -0.8485    1.1813    1.7299 H   0  0  0  0  0  0  0  0  0  0  0  0
    0.1263    2.5363    0.9653 H   0  0  0  0  0  0  0  0  0  0  0  0
    1.6263    1.1171   -1.6978 H   0  0  0  0  0  0  0  0  0  0  0  0
    3.3558   -0.1650   -0.2499 H   0  0  0  0  0  0  0  0  0  0  0  0
    2.2300    0.0972    1.2146 H   0  0  0  0  0  0  0  0  0  0  0  0
    1.4786   -1.4312   -1.4588 H   0  0  0  0  0  0  0  0  0  0  0  0
   -0.4489   -2.5264    0.8844 H   0  0  0  0  0  0  0  0  0  0  0  0
   -1.7937   -1.3601    0.9907 H   0  0  0  0  0  0  0  0  0  0  0  0
   -0.2583   -1.1233    1.9845 H   0  0  0  0  0  0  0  0  0  0  0  0
   -0.9314   -0.2259   -2.1542 H   0  0  0  0  0  0  0  0  0  0  0  0
   -3.0176   -0.5409   -1.0250 H   0  0  0  0  0  0  0  0  0  0  0  0
  1  2  1  0
  2  3  1  0
  3  4  1  0
  4  5  1  0
  5  6  1  0
  6  7  1  0
  6  8  1  0
  8  9  1  0
  6  2  1  0
  8  2  1  0
  5  3  1  0
  1 10  1  0
  1 11  1  0
  1 12  1  0
  3 13  1  0
  4 14  1  0
  4 15  1  0
  5 16  1  0
  7 17  1  0
  7 18  1  0
  7 19  1  0
  8 20  1  0
  9 21  1  0
M  END
