
     RDKit          3D

 25 26  0  0  0  0  0  0  0  0999 V2000
    2.5315   -0.0236   -0.0420 C   0  0  0  0  0  0  0  0  0  0  0  0
    1.0387   -0.1103    0.0591 C   0  0  0  0  0  0  0  0  0  0  0  0
    0.3492    1.0233    0.7464 C   0  0  0  0  0  0  0  0  0  0  0  0
   -0.7317    1.6657   -0.1048 C   0  0  0  0  0  0  0  0  0  0  0  0
   -1.9220    0.7972   -0.2954 C   0  0  0  0  0  0  0  0  0  0  0  0
   -1.7743   -0.6028    0.2041 C   0  0  0  0  0  0  0  0  0  0  0  0
   -0.6058   -1.3486   -0.2825 C   0  0  0  0  0  0  0  0  0  0  0  0
    0.3231   -0.5904   -1.1799 C   0  0  0  0  0  0  0  0  0  0  0  0
    0.5424   -1.3992    0.7335 C   0  0  0  0  0  0  0  0  0  0  0  0
    2.9131   -0.9827   -0.4183 H   0  0  0  0  0  0  0  0  0  0  0  0
    2.9331    0.2780    0.9275 H   0  0  0  0  0  0  0  0  0  0  0  0
    2.7834    0.7647   -0.7715 H   0  0  0  0  0  0  0  0  0  0  0  0
    1.0981    1.7689    1.0304 H   0  0  0  0  0  0  0  0  0  0  0  0
   -0.1603    0.7125    1.6948 H   0  0  0  0  0  0  0  0  0  0  0  0
   -1.0029    2.6133    0.4517 H   0  0  0  0  0  0  0  0  0  0  0  0
   -0.2992    2.0508   -1.0697 H   0  0  0  0  0  0  0  0  0  0  0  0
   -2.2248    0.8275   -1.3616 H   0  0  0  0  0  0  0  0  0  0  0  0
   -2.7897    1.2513    0.2648 H   0  0  0  0  0  0  0  0  0  0  0  0
   -2.7002   -1.1566   -0.0888 H   0  0  0  0  0  0  0  0  0  0  0  0
   -1.7985   -0.5965    1.3297 H   0  0  0  0  0  0  0  0  0  0  0  0
   -0.7853   -2.3788   -0.6452 H   0  0  0  0  0  0  0  0  0  0  0  0
    0.9926   -1.2554   -1.7582 H   0  0  0  0  0  0  0  0  0  0  0  0
   -0.1427    0.1562   -1.8095 H   0  0  0  0  0  0  0  0  0  0  0  0
    1.2146   -2.2484    0.6115 H   0  0  0  0  0  0  0  0  0  0  0  0
    0.2175   -1.2163    1.7736 H   0  0  0  0  0  0  0  0  0  0  0  0
  1  2  1  0
  2  3  1  0
  3  4  1  0
  4  5  1  0
  5  6  1  0
  6  7  1  0
  7  8  1  0
  7  9  1  0
  8  2  1  0
  9  2  1  0
  1 10  1  0
  1 11  1  0
  1 12  1  0
  3 13  1  0
  3 14  1  0
  4 15  1  0
  4 16  1  0
  5 17  1  0
  5 18  1  0
  6 19  1  0
  6 20  1  0
  7 21  1  0
  8 22  1  0
  8 23  1  0
  9 24  1  0
  9 25  1  0
M  END
