
     RDKit          3D

 21 23  0  0  0  0  0  0  0  0999 V2000
   -2.2291    0.5871   -0.6233 C   0  0  0  0  0  0  0  0  0  0  0  0
   -0.9321    0.0796   -0.2744 C   0  0  0  0  0  0  0  0  0  0  0  0
   -0.4149    0.2857    1.1583 C   0  0  0  0  0  0  0  0  0  0  0  0
    0.4323   -0.9209    0.8382 C   0  0  0  0  0  0  0  0  0  0  0  0
   -0.7774   -1.4164    0.0357 C   0  0  0  0  0  0  0  0  0  0  0  0
    1.3291   -0.4020   -0.2495 C   0  0  0  0  0  0  0  0  0  0  0  0
    2.4914    0.4774    0.1041 C   0  0  0  0  0  0  0  0  0  0  0  0
    1.0561   -0.7475   -1.5469 O   0  0  0  0  0  0  0  0  0  0  0  0
    0.2739    0.3231   -1.1131 C   0  0  0  0  0  0  0  0  0  0  0  0
   -2.6866    1.1468    0.2451 H   0  0  0  0  0  0  0  0  0  0  0  0
   -2.1584    1.3712   -1.4313 H   0  0  0  0  0  0  0  0  0  0  0  0
   -2.9757   -0.1374   -0.9868 H   0  0  0  0  0  0  0  0  0  0  0  0
    0.1209    1.2195    1.3187 H   0  0  0  0  0  0  0  0  0  0  0  0
   -1.1595    0.0222    1.9307 H   0  0  0  0  0  0  0  0  0  0  0  0
    0.8056   -1.5332    1.6106 H   0  0  0  0  0  0  0  0  0  0  0  0
   -1.5786   -1.8369    0.6396 H   0  0  0  0  0  0  0  0  0  0  0  0
   -0.4277   -2.0139   -0.8301 H   0  0  0  0  0  0  0  0  0  0  0  0
    3.3908    0.2937   -0.5182 H   0  0  0  0  0  0  0  0  0  0  0  0
    2.2100    1.5673    0.0247 H   0  0  0  0  0  0  0  0  0  0  0  0
    2.7079    0.3390    1.2006 H   0  0  0  0  0  0  0  0  0  0  0  0
    0.5220    1.2955   -1.5328 H   0  0  0  0  0  0  0  0  0  0  0  0
  1  2  1  0
  2  3  1  0
  3  4  1  0
  4  5  1  0
  4  6  1  0
  6  7  1  0
  6  8  1  0
  8  9  1  0
  5  2  1  0
  9  6  1  0
  9  2  1  0
  1 10  1  0
  1 11  1  0
  1 12  1  0
  3 13  1  0
  3 14  1  0
  4 15  1  0
  5 16  1  0
  5 17  1  0
  7 18  1  0
  7 19  1  0
  7 20  1  0
  9 21  1  0
M  END
