
     RDKit          3D

 17 19  0  0  0  0  0  0  0  0999 V2000
   -2.3059   -0.2084   -0.1360 C   0  0  0  0  0  0  0  0  0  0  0  0
   -0.8961   -0.1761    0.3164 C   0  0  0  0  0  0  0  0  0  0  0  0
   -0.5355   -0.1680    1.6383 O   0  0  0  0  0  0  0  0  0  0  0  0
   -0.2499    0.9504    0.8906 C   0  0  0  0  0  0  0  0  0  0  0  0
    0.8186    0.9160   -0.1695 C   0  0  0  0  0  0  0  0  0  0  0  0
    2.0359    0.6079    0.3585 O   0  0  0  0  0  0  0  0  0  0  0  0
    2.2163   -0.7529    0.3399 C   0  0  0  0  0  0  0  0  0  0  0  0
    1.1029   -1.3523   -0.1792 O   0  0  0  0  0  0  0  0  0  0  0  0
    0.2439   -0.3915   -0.6506 C   0  0  0  0  0  0  0  0  0  0  0  0
   -2.8531   -1.0131    0.3761 H   0  0  0  0  0  0  0  0  0  0  0  0
   -2.8021    0.7471    0.1510 H   0  0  0  0  0  0  0  0  0  0  0  0
   -2.3558   -0.3067   -1.2201 H   0  0  0  0  0  0  0  0  0  0  0  0
   -0.6706    1.8838    1.2520 H   0  0  0  0  0  0  0  0  0  0  0  0
    0.7441    1.7335   -0.8908 H   0  0  0  0  0  0  0  0  0  0  0  0
    2.4321   -1.0716    1.3919 H   0  0  0  0  0  0  0  0  0  0  0  0
    3.1314   -0.9567   -0.2708 H   0  0  0  0  0  0  0  0  0  0  0  0
   -0.0562   -0.4416   -1.7019 H   0  0  0  0  0  0  0  0  0  0  0  0
  1  2  1  0
  2  3  1  0
  3  4  1  0
  4  5  1  0
  5  6  1  0
  6  7  1  0
  7  8  1  0
  8  9  1  0
  4  2  1  0
  9  5  1  0
  9  2  1  0
  1 10  1  0
  1 11  1  0
  1 12  1  0
  4 13  1  0
  5 14  1  0
  7 15  1  0
  7 16  1  0
  9 17  1  0
M  END
