
     RDKit          3D

 21 22  0  0  0  0  0  0  0  0999 V2000
    1.9440   -0.0919    1.0372 C   0  0  0  0  0  0  0  0  0  0  0  0
    0.8410   -0.0966   -0.0038 C   0  0  0  0  0  0  0  0  0  0  0  0
    0.3426    1.2469   -0.4353 C   0  0  0  0  0  0  0  0  0  0  0  0
   -1.0305    1.5480    0.0189 C   0  0  0  0  0  0  0  0  0  0  0  0
   -1.4054    2.7013   -0.0274 O   0  0  0  0  0  0  0  0  0  0  0  0
   -1.8661    0.4188    0.5042 C   0  0  0  0  0  0  0  0  0  0  0  0
   -1.5433   -0.8171   -0.3209 C   0  0  0  0  0  0  0  0  0  0  0  0
   -0.1204   -1.1961   -0.0717 C   0  0  0  0  0  0  0  0  0  0  0  0
    0.9154   -1.1186   -1.1145 C   0  0  0  0  0  0  0  0  0  0  0  0
    2.1159   -1.0700    1.4925 H   0  0  0  0  0  0  0  0  0  0  0  0
    2.8750    0.2953    0.5565 H   0  0  0  0  0  0  0  0  0  0  0  0
    1.6757    0.6292    1.8217 H   0  0  0  0  0  0  0  0  0  0  0  0
    0.3517    1.3777   -1.5443 H   0  0  0  0  0  0  0  0  0  0  0  0
    1.0010    2.0526   -0.0191 H   0  0  0  0  0  0  0  0  0  0  0  0
   -2.9322    0.6961    0.4525 H   0  0  0  0  0  0  0  0  0  0  0  0
   -1.5501    0.2371    1.5663 H   0  0  0  0  0  0  0  0  0  0  0  0
   -1.7598   -0.5956   -1.3822 H   0  0  0  0  0  0  0  0  0  0  0  0
   -2.2484   -1.6071    0.0224 H   0  0  0  0  0  0  0  0  0  0  0  0
   -0.0061   -2.0363    0.6637 H   0  0  0  0  0  0  0  0  0  0  0  0
    0.5950   -0.8204   -2.1430 H   0  0  0  0  0  0  0  0  0  0  0  0
    1.8051   -1.7534   -1.0738 H   0  0  0  0  0  0  0  0  0  0  0  0
  1  2  1  0
  2  3  1  0
  3  4  1  0
  4  5  2  0
  4  6  1  0
  6  7  1  0
  7  8  1  0
  8  9  1  0
  8  2  1  0
  9  2  1  0
  1 10  1  0
  1 11  1  0
  1 12  1  0
  3 13  1  0
  3 14  1  0
  6 15  1  0
  6 16  1  0
  7 17  1  0
  7 18  1  0
  8 19  1  0
  9 20  1  0
  9 21  1  0
M  END
