
     RDKit          3D

 23 24  0  0  0  0  0  0  0  0999 V2000
    2.3135    0.9804   -0.2444 C   0  0  0  0  0  0  0  0  0  0  0  0
    1.1162    0.2500    0.0869 C   0  0  0  0  0  0  0  0  0  0  0  0
    1.1125   -0.8401    1.1135 C   0  0  0  0  0  0  0  0  0  0  0  0
   -0.3647   -1.2806    0.9967 C   0  0  0  0  0  0  0  0  0  0  0  0
   -0.8330   -0.2860   -0.0033 C   0  0  0  0  0  0  0  0  0  0  0  0
   -2.2062   -0.2121   -0.4422 C   0  0  0  0  0  0  0  0  0  0  0  0
   -2.3169    0.8333   -1.3900 O   0  0  0  0  0  0  0  0  0  0  0  0
    0.2678   -0.3413   -1.0461 C   0  0  0  0  0  0  0  0  0  0  0  0
   -0.1553    1.0197    0.4469 C   0  0  0  0  0  0  0  0  0  0  0  0
    2.4002    1.9080    0.3645 H   0  0  0  0  0  0  0  0  0  0  0  0
    2.3550    1.1930   -1.3425 H   0  0  0  0  0  0  0  0  0  0  0  0
    3.2195    0.3840   -0.0185 H   0  0  0  0  0  0  0  0  0  0  0  0
    1.2798   -0.3617    2.1059 H   0  0  0  0  0  0  0  0  0  0  0  0
    1.7939   -1.6664    0.8957 H   0  0  0  0  0  0  0  0  0  0  0  0
   -0.3452   -2.3212    0.6142 H   0  0  0  0  0  0  0  0  0  0  0  0
   -0.8517   -1.2274    1.9793 H   0  0  0  0  0  0  0  0  0  0  0  0
   -2.9732    0.0030    0.3109 H   0  0  0  0  0  0  0  0  0  0  0  0
   -2.4855   -1.1299   -1.0005 H   0  0  0  0  0  0  0  0  0  0  0  0
   -3.2409    1.0996   -1.5367 H   0  0  0  0  0  0  0  0  0  0  0  0
    0.5773   -1.3681   -1.3175 H   0  0  0  0  0  0  0  0  0  0  0  0
    0.0444    0.3419   -1.8612 H   0  0  0  0  0  0  0  0  0  0  0  0
   -0.4004    1.8384   -0.2306 H   0  0  0  0  0  0  0  0  0  0  0  0
   -0.3072    1.1833    1.5192 H   0  0  0  0  0  0  0  0  0  0  0  0
  1  2  1  0
  2  3  1  0
  3  4  1  0
  4  5  1  0
  5  6  1  0
  6  7  1  0
  5  8  1  0
  5  9  1  0
  8  2  1  0
  9  2  1  0
  1 10  1  0
  1 11  1  0
  1 12  1  0
  3 13  1  0
  3 14  1  0
  4 15  1  0
  4 16  1  0
  6 17  1  0
  6 18  1  0
  7 19  1  0
  8 20  1  0
  8 21  1  0
  9 22  1  0
  9 23  1  0
M  END
