
     RDKit          3D

 21 22  0  0  0  0  0  0  0  0999 V2000
   -1.8334   -0.9473   -0.6188 C   0  0  0  0  0  0  0  0  0  0  0  0
   -0.6455   -0.3537    0.0695 C   0  0  0  0  0  0  0  0  0  0  0  0
   -1.0179    0.6091    1.1149 C   0  0  0  0  0  0  0  0  0  0  0  0
   -0.4088    1.7655    0.9344 C   0  0  0  0  0  0  0  0  0  0  0  0
    0.4647    1.6899   -0.2953 C   0  0  0  0  0  0  0  0  0  0  0  0
    0.3934    0.2869   -0.7922 C   0  0  0  0  0  0  0  0  0  0  0  0
    1.4375   -0.6137   -0.1282 C   0  0  0  0  0  0  0  0  0  0  0  0
    2.2304    0.0398    0.8013 O   0  0  0  0  0  0  0  0  0  0  0  0
    0.3385   -1.4213    0.4721 C   0  0  0  0  0  0  0  0  0  0  0  0
   -2.5760   -0.1937   -0.9067 H   0  0  0  0  0  0  0  0  0  0  0  0
   -1.5249   -1.6176   -1.4479 H   0  0  0  0  0  0  0  0  0  0  0  0
   -2.3500   -1.6050    0.1412 H   0  0  0  0  0  0  0  0  0  0  0  0
   -1.6971    0.4259    1.9357 H   0  0  0  0  0  0  0  0  0  0  0  0
   -0.4680    2.6637    1.5179 H   0  0  0  0  0  0  0  0  0  0  0  0
    0.0241    2.3845   -1.0301 H   0  0  0  0  0  0  0  0  0  0  0  0
    1.4742    1.9604    0.0409 H   0  0  0  0  0  0  0  0  0  0  0  0
    0.3616    0.1130   -1.8605 H   0  0  0  0  0  0  0  0  0  0  0  0
    2.0577   -1.1894   -0.8312 H   0  0  0  0  0  0  0  0  0  0  0  0
    3.2031   -0.1136    0.6371 H   0  0  0  0  0  0  0  0  0  0  0  0
    0.3731   -1.4948    1.5763 H   0  0  0  0  0  0  0  0  0  0  0  0
    0.1632   -2.3887   -0.0454 H   0  0  0  0  0  0  0  0  0  0  0  0
  1  2  1  0
  2  3  1  0
  3  4  2  0
  4  5  1  0
  5  6  1  0
  6  7  1  0
  7  8  1  0
  7  9  1  0
  6  2  1  0
  9  2  1  0
  1 10  1  0
  1 11  1  0
  1 12  1  0
  3 13  1  0
  4 14  1  0
  5 15  1  0
  5 16  1  0
  6 17  1  0
  7 18  1  0
  8 19  1  0
  9 20  1  0
  9 21  1  0
M  END
