
     RDKit          3D

 19 21  0  0  0  0  0  0  0  0999 V2000
    1.8653   -0.9990   -0.0288 C   0  0  0  0  0  0  0  0  0  0  0  0
    0.5491   -0.3322    0.0741 C   0  0  0  0  0  0  0  0  0  0  0  0
   -0.2238    0.1579   -1.0801 C   0  0  0  0  0  0  0  0  0  0  0  0
   -1.5979   -0.4262   -0.8962 C   0  0  0  0  0  0  0  0  0  0  0  0
   -1.7233   -0.8857    0.3314 C   0  0  0  0  0  0  0  0  0  0  0  0
   -0.4683   -0.6644    1.0877 C   0  0  0  0  0  0  0  0  0  0  0  0
    0.2300    0.6144    1.1821 C   0  0  0  0  0  0  0  0  0  0  0  0
   -0.1237    1.8396    0.4300 C   0  0  0  0  0  0  0  0  0  0  0  0
   -0.3799    1.6080   -0.8373 C   0  0  0  0  0  0  0  0  0  0  0  0
    1.7477   -2.0999   -0.1127 H   0  0  0  0  0  0  0  0  0  0  0  0
    2.3383   -0.6806   -0.9986 H   0  0  0  0  0  0  0  0  0  0  0  0
    2.5824   -0.7311    0.7788 H   0  0  0  0  0  0  0  0  0  0  0  0
    0.1883   -0.0800   -2.0714 H   0  0  0  0  0  0  0  0  0  0  0  0
   -2.3383   -0.4462   -1.6754 H   0  0  0  0  0  0  0  0  0  0  0  0
   -2.6138   -1.3587    0.7358 H   0  0  0  0  0  0  0  0  0  0  0  0
   -0.1475   -1.4342    1.8259 H   0  0  0  0  0  0  0  0  0  0  0  0
    0.9507    0.7644    2.0155 H   0  0  0  0  0  0  0  0  0  0  0  0
   -0.1704    2.8398    0.8719 H   0  0  0  0  0  0  0  0  0  0  0  0
   -0.6650    2.3143   -1.6327 H   0  0  0  0  0  0  0  0  0  0  0  0
  1  2  1  0
  2  3  1  0
  3  4  1  0
  4  5  2  0
  5  6  1  0
  6  7  1  0
  7  8  1  0
  8  9  2  0
  6  2  1  0
  7  2  1  0
  9  3  1  0
  1 10  1  0
  1 11  1  0
  1 12  1  0
  3 13  1  0
  4 14  1  0
  5 15  1  0
  6 16  1  0
  7 17  1  0
  8 18  1  0
  9 19  1  0
M  END
