
     RDKit          3D

 21 22  0  0  0  0  0  0  0  0999 V2000
   -1.0754   -1.4430    0.8090 C   0  0  0  0  0  0  0  0  0  0  0  0
   -0.2187   -0.5031    0.0372 C   0  0  0  0  0  0  0  0  0  0  0  0
   -1.0787    0.2955   -0.8899 C   0  0  0  0  0  0  0  0  0  0  0  0
   -1.2717    1.5733   -0.2078 C   0  0  0  0  0  0  0  0  0  0  0  0
   -0.4022    1.6946    0.7697 C   0  0  0  0  0  0  0  0  0  0  0  0
    0.4838    0.5287    0.8775 C   0  0  0  0  0  0  0  0  0  0  0  0
    1.7452    0.8088    0.1307 C   0  0  0  0  0  0  0  0  0  0  0  0
    2.0132   -0.1370   -0.7514 C   0  0  0  0  0  0  0  0  0  0  0  0
    0.9338   -1.1577   -0.6742 C   0  0  0  0  0  0  0  0  0  0  0  0
   -0.5227   -2.2507    1.3182 H   0  0  0  0  0  0  0  0  0  0  0  0
   -1.7731   -1.9388    0.0890 H   0  0  0  0  0  0  0  0  0  0  0  0
   -1.7136   -0.8516    1.4997 H   0  0  0  0  0  0  0  0  0  0  0  0
   -0.5793    0.3696   -1.8752 H   0  0  0  0  0  0  0  0  0  0  0  0
   -2.0764   -0.1852   -1.0663 H   0  0  0  0  0  0  0  0  0  0  0  0
   -2.0188    2.3416   -0.4465 H   0  0  0  0  0  0  0  0  0  0  0  0
   -0.3476    2.5773    1.4337 H   0  0  0  0  0  0  0  0  0  0  0  0
    0.6696    0.2367    1.9032 H   0  0  0  0  0  0  0  0  0  0  0  0
    2.3695    1.7012    0.3035 H   0  0  0  0  0  0  0  0  0  0  0  0
    2.8837   -0.1253   -1.3982 H   0  0  0  0  0  0  0  0  0  0  0  0
    1.3216   -2.0425   -0.1538 H   0  0  0  0  0  0  0  0  0  0  0  0
    0.6579   -1.4924   -1.7082 H   0  0  0  0  0  0  0  0  0  0  0  0
  1  2  1  0
  2  3  1  0
  3  4  1  0
  4  5  2  0
  5  6  1  0
  6  7  1  0
  7  8  2  0
  8  9  1  0
  6  2  1  0
  9  2  1  0
  1 10  1  0
  1 11  1  0
  1 12  1  0
  3 13  1  0
  3 14  1  0
  4 15  1  0
  5 16  1  0
  6 17  1  0
  7 18  1  0
  8 19  1  0
  9 20  1  0
  9 21  1  0
M  END
