
     RDKit          3D

 19 20  0  0  0  0  0  0  0  0999 V2000
    2.1189    0.2756    0.5431 C   0  0  0  0  0  0  0  0  0  0  0  0
    0.7052    0.1977    0.2002 C   0  0  0  0  0  0  0  0  0  0  0  0
   -0.1627   -0.5562    1.2211 C   0  0  0  0  0  0  0  0  0  0  0  0
   -1.4435   -0.7507    0.4016 C   0  0  0  0  0  0  0  0  0  0  0  0
   -1.1007   -0.2706   -0.9982 C   0  0  0  0  0  0  0  0  0  0  0  0
   -0.9511    1.2404   -0.9293 C   0  0  0  0  0  0  0  0  0  0  0  0
    0.0361    1.4178    0.0506 O   0  0  0  0  0  0  0  0  0  0  0  0
    0.3492   -0.5859   -1.0014 C   0  0  0  0  0  0  0  0  0  0  0  0
    0.9505   -1.2569   -1.7574 O   0  0  0  0  0  0  0  0  0  0  0  0
    2.2466    0.4117    1.6358 H   0  0  0  0  0  0  0  0  0  0  0  0
    2.5748    1.1782    0.0712 H   0  0  0  0  0  0  0  0  0  0  0  0
    2.6846   -0.5920    0.1499 H   0  0  0  0  0  0  0  0  0  0  0  0
    0.3458   -1.5323    1.3948 H   0  0  0  0  0  0  0  0  0  0  0  0
   -0.3311    0.0258    2.1258 H   0  0  0  0  0  0  0  0  0  0  0  0
   -1.7671   -1.8000    0.4071 H   0  0  0  0  0  0  0  0  0  0  0  0
   -2.1963   -0.0668    0.8486 H   0  0  0  0  0  0  0  0  0  0  0  0
   -1.6879   -0.6571   -1.7916 H   0  0  0  0  0  0  0  0  0  0  0  0
   -0.4868    1.5727   -1.8815 H   0  0  0  0  0  0  0  0  0  0  0  0
   -1.8844    1.7485   -0.6905 H   0  0  0  0  0  0  0  0  0  0  0  0
  1  2  1  0
  2  3  1  0
  3  4  1  0
  4  5  1  0
  5  6  1  0
  6  7  1  0
  5  8  1  0
  8  9  2  0
  7  2  1  0
  8  2  1  0
  1 10  1  0
  1 11  1  0
  1 12  1  0
  3 13  1  0
  3 14  1  0
  4 15  1  0
  4 16  1  0
  5 17  1  0
  6 18  1  0
  6 19  1  0
M  END
