
     RDKit          3D

 17 18  0  0  0  0  0  0  0  0999 V2000
   -2.3162    0.6343    0.2061 C   0  0  0  0  0  0  0  0  0  0  0  0
   -0.8826    0.2526    0.2733 C   0  0  0  0  0  0  0  0  0  0  0  0
   -0.5718   -1.2438    0.2042 C   0  0  0  0  0  0  0  0  0  0  0  0
    0.9135   -1.2545    0.0401 C   0  0  0  0  0  0  0  0  0  0  0  0
    1.3807   -0.0454   -0.0726 C   0  0  0  0  0  0  0  0  0  0  0  0
    2.7764    0.3228   -0.2457 C   0  0  0  0  0  0  0  0  0  0  0  0
    3.6659   -0.5649   -0.2996 O   0  0  0  0  0  0  0  0  0  0  0  0
    0.2647    0.9307    0.0022 C   0  0  0  0  0  0  0  0  0  0  0  0
   -0.2340    0.9360    1.3845 O   0  0  0  0  0  0  0  0  0  0  0  0
   -2.7416    0.5426    1.2485 H   0  0  0  0  0  0  0  0  0  0  0  0
   -2.9438    0.0025   -0.4276 H   0  0  0  0  0  0  0  0  0  0  0  0
   -2.4511    1.7024   -0.0604 H   0  0  0  0  0  0  0  0  0  0  0  0
   -0.8781   -1.7078    1.1562 H   0  0  0  0  0  0  0  0  0  0  0  0
   -1.0897   -1.6250   -0.6731 H   0  0  0  0  0  0  0  0  0  0  0  0
    1.5285   -2.1523    0.0172 H   0  0  0  0  0  0  0  0  0  0  0  0
    3.1204    1.3442   -0.3353 H   0  0  0  0  0  0  0  0  0  0  0  0
    0.4589    1.9257   -0.4173 H   0  0  0  0  0  0  0  0  0  0  0  0
  1  2  1  0
  2  3  1  0
  3  4  1  0
  4  5  2  0
  5  6  1  0
  6  7  2  0
  5  8  1  0
  8  9  1  0
  8  2  1  0
  9  2  1  0
  1 10  1  0
  1 11  1  0
  1 12  1  0
  3 13  1  0
  3 14  1  0
  4 15  1  0
  6 16  1  0
  8 17  1  0
M  END
