
     RDKit          3D

 17 18  0  0  0  0  0  0  0  0999 V2000
   -1.7920    0.0650    0.2908 C   0  0  0  0  0  0  0  0  0  0  0  0
   -0.4044   -0.0144   -0.1026 C   0  0  0  0  0  0  0  0  0  0  0  0
    0.2755    1.2574   -0.5414 C   0  0  0  0  0  0  0  0  0  0  0  0
    1.6415    1.0639   -0.3243 O   0  0  0  0  0  0  0  0  0  0  0  0
    1.7940   -0.2788    0.0722 C   0  0  0  0  0  0  0  0  0  0  0  0
    0.5813   -0.3979    1.0198 C   0  0  0  0  0  0  0  0  0  0  0  0
    1.3820   -1.1145   -0.9726 O   0  0  0  0  0  0  0  0  0  0  0  0
   -0.0260   -1.0645   -1.0810 C   0  0  0  0  0  0  0  0  0  0  0  0
   -0.7093   -1.7669   -1.8398 O   0  0  0  0  0  0  0  0  0  0  0  0
   -1.8642    0.3128    1.3911 H   0  0  0  0  0  0  0  0  0  0  0  0
   -2.2913   -0.9161    0.1797 H   0  0  0  0  0  0  0  0  0  0  0  0
   -2.3626    0.8585   -0.2223 H   0  0  0  0  0  0  0  0  0  0  0  0
   -0.0909    2.1171    0.0508 H   0  0  0  0  0  0  0  0  0  0  0  0
    0.0982    1.4500   -1.6125 H   0  0  0  0  0  0  0  0  0  0  0  0
    2.7246   -0.4961    0.5415 H   0  0  0  0  0  0  0  0  0  0  0  0
    0.4330   -1.4258    1.3413 H   0  0  0  0  0  0  0  0  0  0  0  0
    0.6107    0.3502    1.8093 H   0  0  0  0  0  0  0  0  0  0  0  0
  1  2  1  0
  2  3  1  0
  3  4  1  0
  4  5  1  0
  5  6  1  0
  5  7  1  0
  7  8  1  0
  8  9  2  0
  6  2  1  0
  8  2  1  0
  1 10  1  0
  1 11  1  0
  1 12  1  0
  3 13  1  0
  3 14  1  0
  5 15  1  0
  6 16  1  0
  6 17  1  0
M  END
