
     RDKit          3D

 23 24  0  0  0  0  0  0  0  0999 V2000
   -1.1215    1.2393    1.3998 C   0  0  0  0  0  0  0  0  0  0  0  0
   -0.6085    0.4538    0.2500 C   0  0  0  0  0  0  0  0  0  0  0  0
   -1.4966   -0.6583   -0.2277 C   0  0  0  0  0  0  0  0  0  0  0  0
   -0.6237   -1.7246   -0.8162 C   0  0  0  0  0  0  0  0  0  0  0  0
    0.7953   -1.2455   -0.7411 C   0  0  0  0  0  0  0  0  0  0  0  0
    0.7702    0.0398    0.0597 C   0  0  0  0  0  0  0  0  0  0  0  0
    1.7974    0.2624    1.1202 C   0  0  0  0  0  0  0  0  0  0  0  0
    0.2340    1.2199   -0.7342 C   0  0  0  0  0  0  0  0  0  0  0  0
   -0.0447    1.0528   -2.0837 O   0  0  0  0  0  0  0  0  0  0  0  0
   -1.8665    1.9887    1.0036 H   0  0  0  0  0  0  0  0  0  0  0  0
   -0.3769    1.7711    1.9905 H   0  0  0  0  0  0  0  0  0  0  0  0
   -1.7033    0.6005    2.0932 H   0  0  0  0  0  0  0  0  0  0  0  0
   -1.9906   -1.0881    0.6820 H   0  0  0  0  0  0  0  0  0  0  0  0
   -2.2755   -0.3419   -0.9358 H   0  0  0  0  0  0  0  0  0  0  0  0
   -0.9065   -1.9194   -1.8859 H   0  0  0  0  0  0  0  0  0  0  0  0
   -0.7637   -2.7071   -0.3043 H   0  0  0  0  0  0  0  0  0  0  0  0
    1.1287   -0.9533   -1.7729 H   0  0  0  0  0  0  0  0  0  0  0  0
    1.4687   -2.0021   -0.3412 H   0  0  0  0  0  0  0  0  0  0  0  0
    2.8226    0.0305    0.8177 H   0  0  0  0  0  0  0  0  0  0  0  0
    1.7654    1.2935    1.4713 H   0  0  0  0  0  0  0  0  0  0  0  0
    1.5750   -0.4036    1.9995 H   0  0  0  0  0  0  0  0  0  0  0  0
    0.6399    2.1791   -0.4184 H   0  0  0  0  0  0  0  0  0  0  0  0
    0.7807    0.9126   -2.6262 H   0  0  0  0  0  0  0  0  0  0  0  0
  1  2  1  0
  2  3  1  0
  3  4  1  0
  4  5  1  0
  5  6  1  0
  6  7  1  0
  6  8  1  0
  8  9  1  0
  6  2  1  0
  8  2  1  0
  1 10  1  0
  1 11  1  0
  1 12  1  0
  3 13  1  0
  3 14  1  0
  4 15  1  0
  4 16  1  0
  5 17  1  0
  5 18  1  0
  7 19  1  0
  7 20  1  0
  7 21  1  0
  8 22  1  0
  9 23  1  0
M  END
