
     RDKit          3D

 19 20  0  0  0  0  0  0  0  0999 V2000
    1.6745   -0.8670    0.3262 C   0  0  0  0  0  0  0  0  0  0  0  0
    0.4346   -0.3847   -0.3448 C   0  0  0  0  0  0  0  0  0  0  0  0
    0.5367    0.9666   -0.9544 C   0  0  0  0  0  0  0  0  0  0  0  0
   -0.2327    1.8515   -0.0544 C   0  0  0  0  0  0  0  0  0  0  0  0
   -0.9716    1.1115    0.7416 C   0  0  0  0  0  0  0  0  0  0  0  0
   -0.8092   -0.3222    0.4990 C   0  0  0  0  0  0  0  0  0  0  0  0
   -0.8403   -1.1359    1.6093 O   0  0  0  0  0  0  0  0  0  0  0  0
   -1.4266   -0.8935   -0.7563 C   0  0  0  0  0  0  0  0  0  0  0  0
   -0.1586   -1.3112   -1.2130 O   0  0  0  0  0  0  0  0  0  0  0  0
    1.5431   -1.8333    0.8286 H   0  0  0  0  0  0  0  0  0  0  0  0
    2.0149   -0.0630    1.0209 H   0  0  0  0  0  0  0  0  0  0  0  0
    2.4683   -0.9501   -0.4443 H   0  0  0  0  0  0  0  0  0  0  0  0
    0.0391    0.9692   -1.9702 H   0  0  0  0  0  0  0  0  0  0  0  0
    1.5957    1.2846   -1.0593 H   0  0  0  0  0  0  0  0  0  0  0  0
   -0.1770    2.9683   -0.0688 H   0  0  0  0  0  0  0  0  0  0  0  0
   -1.6434    1.5303    1.5116 H   0  0  0  0  0  0  0  0  0  0  0  0
   -0.0847   -1.0319    2.2232 H   0  0  0  0  0  0  0  0  0  0  0  0
   -2.0681   -1.7854   -0.5482 H   0  0  0  0  0  0  0  0  0  0  0  0
   -1.8946   -0.1039   -1.3466 H   0  0  0  0  0  0  0  0  0  0  0  0
  1  2  1  0
  2  3  1  0
  3  4  1  0
  4  5  2  0
  5  6  1  0
  6  7  1  0
  6  8  1  0
  8  9  1  0
  6  2  1  0
  9  2  1  0
  1 10  1  0
  1 11  1  0
  1 12  1  0
  3 13  1  0
  3 14  1  0
  4 15  1  0
  5 16  1  0
  7 17  1  0
  8 18  1  0
  8 19  1  0
M  END
