
     RDKit          3D

 19 21  0  0  0  0  0  0  0  0999 V2000
   -1.4194    1.1772   -0.0227 C   0  0  0  0  0  0  0  0  0  0  0  0
   -0.6816   -0.1087    0.0209 C   0  0  0  0  0  0  0  0  0  0  0  0
   -1.5144   -1.3838   -0.0066 C   0  0  0  0  0  0  0  0  0  0  0  0
   -0.5661   -1.0453   -1.0899 C   0  0  0  0  0  0  0  0  0  0  0  0
    0.7810   -1.3502   -0.7799 O   0  0  0  0  0  0  0  0  0  0  0  0
    0.7738   -0.2252    0.0210 C   0  0  0  0  0  0  0  0  0  0  0  0
    1.6573    0.8405   -0.4247 C   0  0  0  0  0  0  0  0  0  0  0  0
    2.5192    0.5459    0.6585 O   0  0  0  0  0  0  0  0  0  0  0  0
    1.5321   -0.2525    1.2802 C   0  0  0  0  0  0  0  0  0  0  0  0
   -1.1836    1.7531    0.9203 H   0  0  0  0  0  0  0  0  0  0  0  0
   -2.5178    0.9788    0.0488 H   0  0  0  0  0  0  0  0  0  0  0  0
   -1.2386    1.8004   -0.9086 H   0  0  0  0  0  0  0  0  0  0  0  0
   -2.5943   -1.2338   -0.2180 H   0  0  0  0  0  0  0  0  0  0  0  0
   -1.2117   -2.1738    0.7229 H   0  0  0  0  0  0  0  0  0  0  0  0
   -0.8520   -0.8690   -2.1169 H   0  0  0  0  0  0  0  0  0  0  0  0
    1.3412    1.8808   -0.4190 H   0  0  0  0  0  0  0  0  0  0  0  0
    2.2371    0.6213   -1.3689 H   0  0  0  0  0  0  0  0  0  0  0  0
    1.0687    0.3110    2.1360 H   0  0  0  0  0  0  0  0  0  0  0  0
    1.8690   -1.2667    1.5466 H   0  0  0  0  0  0  0  0  0  0  0  0
  1  2  1  0
  2  3  1  0
  3  4  1  0
  4  5  1  0
  5  6  1  0
  6  7  1  0
  7  8  1  0
  8  9  1  0
  4  2  1  0
  9  6  1  0
  6  2  1  0
  1 10  1  0
  1 11  1  0
  1 12  1  0
  3 13  1  0
  3 14  1  0
  4 15  1  0
  7 16  1  0
  7 17  1  0
  9 18  1  0
  9 19  1  0
M  END
