
     RDKit          3D

 17 19  0  0  0  0  0  0  0  0999 V2000
   -2.0763   -0.8371    0.2298 C   0  0  0  0  0  0  0  0  0  0  0  0
   -0.8800   -0.0044   -0.0901 C   0  0  0  0  0  0  0  0  0  0  0  0
   -1.1545    0.8324   -1.2817 O   0  0  0  0  0  0  0  0  0  0  0  0
   -0.7480    1.3895   -0.0416 C   0  0  0  0  0  0  0  0  0  0  0  0
    0.7061    1.6514    0.0567 C   0  0  0  0  0  0  0  0  0  0  0  0
    1.4088    0.5598    0.1091 C   0  0  0  0  0  0  0  0  0  0  0  0
    2.2980   -0.6304    0.1755 C   0  0  0  0  0  0  0  0  0  0  0  0
    1.1183   -1.2553    0.7663 O   0  0  0  0  0  0  0  0  0  0  0  0
    0.4554   -0.6046   -0.2385 C   0  0  0  0  0  0  0  0  0  0  0  0
   -2.2946   -0.8867    1.3265 H   0  0  0  0  0  0  0  0  0  0  0  0
   -1.8648   -1.8771   -0.0942 H   0  0  0  0  0  0  0  0  0  0  0  0
   -3.0171   -0.4778   -0.2401 H   0  0  0  0  0  0  0  0  0  0  0  0
   -1.4164    2.1411    0.4213 H   0  0  0  0  0  0  0  0  0  0  0  0
    1.1688    2.6526    0.0843 H   0  0  0  0  0  0  0  0  0  0  0  0
    3.1282   -0.5858    0.8780 H   0  0  0  0  0  0  0  0  0  0  0  0
    2.4408   -1.1093   -0.7907 H   0  0  0  0  0  0  0  0  0  0  0  0
    0.7272   -0.9583   -1.2707 H   0  0  0  0  0  0  0  0  0  0  0  0
  1  2  1  0
  2  3  1  0
  3  4  1  0
  4  5  1  0
  5  6  2  0
  6  7  1  0
  7  8  1  0
  8  9  1  0
  4  2  1  0
  9  6  1  0
  9  2  1  0
  1 10  1  0
  1 11  1  0
  1 12  1  0
  4 13  1  0
  5 14  1  0
  7 15  1  0
  7 16  1  0
  9 17  1  0
M  END
