
     RDKit          3D

 21 22  0  0  0  0  0  0  0  0999 V2000
   -0.2948    2.0491   -0.6326 C   0  0  0  0  0  0  0  0  0  0  0  0
   -0.1717    0.6539   -0.1403 C   0  0  0  0  0  0  0  0  0  0  0  0
   -1.2882    0.1589    0.7155 C   0  0  0  0  0  0  0  0  0  0  0  0
   -1.0666    0.0844    2.0653 O   0  0  0  0  0  0  0  0  0  0  0  0
   -1.3614   -1.1403   -0.0355 C   0  0  0  0  0  0  0  0  0  0  0  0
   -0.4718   -0.5146   -1.0793 C   0  0  0  0  0  0  0  0  0  0  0  0
    0.8972   -0.2108   -0.6679 C   0  0  0  0  0  0  0  0  0  0  0  0
    1.7047   -1.1091    0.2260 C   0  0  0  0  0  0  0  0  0  0  0  0
    2.3636   -0.3407    1.1752 O   0  0  0  0  0  0  0  0  0  0  0  0
   -1.0000    2.0832   -1.4687 H   0  0  0  0  0  0  0  0  0  0  0  0
   -0.7597    2.6620    0.1885 H   0  0  0  0  0  0  0  0  0  0  0  0
    0.7033    2.4849   -0.8804 H   0  0  0  0  0  0  0  0  0  0  0  0
   -2.2389    0.7391    0.5289 H   0  0  0  0  0  0  0  0  0  0  0  0
   -1.0309   -0.8222    2.4354 H   0  0  0  0  0  0  0  0  0  0  0  0
   -0.9390   -2.0229    0.4393 H   0  0  0  0  0  0  0  0  0  0  0  0
   -2.3780   -1.3941   -0.4345 H   0  0  0  0  0  0  0  0  0  0  0  0
   -0.8778   -0.2916   -2.0805 H   0  0  0  0  0  0  0  0  0  0  0  0
    1.5340    0.2768   -1.4637 H   0  0  0  0  0  0  0  0  0  0  0  0
    2.4726   -1.6070   -0.3992 H   0  0  0  0  0  0  0  0  0  0  0  0
    1.0639   -1.8356    0.7660 H   0  0  0  0  0  0  0  0  0  0  0  0
    3.1395    0.0966    0.7424 H   0  0  0  0  0  0  0  0  0  0  0  0
  1  2  1  0
  2  3  1  0
  3  4  1  0
  3  5  1  0
  5  6  1  0
  6  7  1  0
  7  8  1  0
  8  9  1  0
  6  2  1  0
  7  2  1  0
  1 10  1  0
  1 11  1  0
  1 12  1  0
  3 13  1  0
  4 14  1  0
  5 15  1  0
  5 16  1  0
  6 17  1  0
  7 18  1  0
  8 19  1  0
  8 20  1  0
  9 21  1  0
M  END
