
     RDKit          3D

 19 21  0  0  0  0  0  0  0  0999 V2000
    2.2050    0.1717   -0.3805 C   0  0  0  0  0  0  0  0  0  0  0  0
    0.7643   -0.0483   -0.1030 C   0  0  0  0  0  0  0  0  0  0  0  0
    0.3843   -1.2736    0.7167 C   0  0  0  0  0  0  0  0  0  0  0  0
   -1.0970   -1.3191    0.6472 C   0  0  0  0  0  0  0  0  0  0  0  0
   -1.7885   -2.0985    1.2671 O   0  0  0  0  0  0  0  0  0  0  0  0
   -1.5615   -0.2868   -0.2751 C   0  0  0  0  0  0  0  0  0  0  0  0
   -1.5448    1.0754    0.3812 C   0  0  0  0  0  0  0  0  0  0  0  0
   -0.0759    1.1524    0.1006 C   0  0  0  0  0  0  0  0  0  0  0  0
   -0.3213    0.1224   -1.0275 C   0  0  0  0  0  0  0  0  0  0  0  0
    2.3278    0.6602   -1.3626 H   0  0  0  0  0  0  0  0  0  0  0  0
    2.6160    0.8266    0.4407 H   0  0  0  0  0  0  0  0  0  0  0  0
    2.7526   -0.7836   -0.4128 H   0  0  0  0  0  0  0  0  0  0  0  0
    0.7785   -1.1263    1.7278 H   0  0  0  0  0  0  0  0  0  0  0  0
    0.8172   -2.1497    0.1953 H   0  0  0  0  0  0  0  0  0  0  0  0
   -2.3857   -0.5032   -0.9447 H   0  0  0  0  0  0  0  0  0  0  0  0
   -1.7514    1.0926    1.4611 H   0  0  0  0  0  0  0  0  0  0  0  0
   -2.1207    1.7870   -0.2383 H   0  0  0  0  0  0  0  0  0  0  0  0
    0.3443    2.1315   -0.1924 H   0  0  0  0  0  0  0  0  0  0  0  0
   -0.3432    0.5695   -2.0007 H   0  0  0  0  0  0  0  0  0  0  0  0
  1  2  1  0
  2  3  1  0
  3  4  1  0
  4  5  2  0
  4  6  1  0
  6  7  1  0
  7  8  1  0
  8  9  1  0
  8  2  1  0
  9  2  1  0
  9  6  1  0
  1 10  1  0
  1 11  1  0
  1 12  1  0
  3 13  1  0
  3 14  1  0
  6 15  1  0
  7 16  1  0
  7 17  1  0
  8 18  1  0
  9 19  1  0
M  END
