
     RDKit          3D

 23 24  0  0  0  0  0  0  0  0999 V2000
    1.9837    0.4342   -0.6978 C   0  0  0  0  0  0  0  0  0  0  0  0
    0.7533    0.0759    0.0749 C   0  0  0  0  0  0  0  0  0  0  0  0
    0.1860    1.2578    0.8134 C   0  0  0  0  0  0  0  0  0  0  0  0
   -1.0055    1.6234   -0.0400 C   0  0  0  0  0  0  0  0  0  0  0  0
   -1.5987    0.2826   -0.3645 C   0  0  0  0  0  0  0  0  0  0  0  0
   -2.2948   -0.2787    0.6819 O   0  0  0  0  0  0  0  0  0  0  0  0
   -0.3729   -0.5329   -0.7146 C   0  0  0  0  0  0  0  0  0  0  0  0
   -0.2303   -1.8343    0.0166 C   0  0  0  0  0  0  0  0  0  0  0  0
    0.8819   -1.1957    0.8372 C   0  0  0  0  0  0  0  0  0  0  0  0
    2.0098    1.4950   -1.0301 H   0  0  0  0  0  0  0  0  0  0  0  0
    2.8650    0.3233   -0.0014 H   0  0  0  0  0  0  0  0  0  0  0  0
    2.1429   -0.2440   -1.5480 H   0  0  0  0  0  0  0  0  0  0  0  0
   -0.0748    1.0146    1.8479 H   0  0  0  0  0  0  0  0  0  0  0  0
    0.8982    2.1225    0.7978 H   0  0  0  0  0  0  0  0  0  0  0  0
   -1.6897    2.3265    0.4286 H   0  0  0  0  0  0  0  0  0  0  0  0
   -0.5819    2.0232   -1.0060 H   0  0  0  0  0  0  0  0  0  0  0  0
   -2.2984    0.3653   -1.2304 H   0  0  0  0  0  0  0  0  0  0  0  0
   -2.8109   -1.0518    0.2989 H   0  0  0  0  0  0  0  0  0  0  0  0
   -0.2325   -0.6263   -1.7924 H   0  0  0  0  0  0  0  0  0  0  0  0
   -1.0970   -2.1230    0.6564 H   0  0  0  0  0  0  0  0  0  0  0  0
    0.0870   -2.6842   -0.6140 H   0  0  0  0  0  0  0  0  0  0  0  0
    0.6043   -1.0865    1.9080 H   0  0  0  0  0  0  0  0  0  0  0  0
    1.8753   -1.6869    0.6777 H   0  0  0  0  0  0  0  0  0  0  0  0
  1  2  1  0
  2  3  1  0
  3  4  1  0
  4  5  1  0
  5  6  1  0
  5  7  1  0
  7  8  1  0
  8  9  1  0
  7  2  1  0
  9  2  1  0
  1 10  1  0
  1 11  1  0
  1 12  1  0
  3 13  1  0
  3 14  1  0
  4 15  1  0
  4 16  1  0
  5 17  1  0
  6 18  1  0
  7 19  1  0
  8 20  1  0
  8 21  1  0
  9 22  1  0
  9 23  1  0
M  END
