
     RDKit          3D

 21 22  0  0  0  0  0  0  0  0999 V2000
    1.8412    0.4865    0.1088 C   0  0  0  0  0  0  0  0  0  0  0  0
    0.6313   -0.3644    0.1335 C   0  0  0  0  0  0  0  0  0  0  0  0
    0.0807   -0.7531    1.4758 C   0  0  0  0  0  0  0  0  0  0  0  0
   -1.3156   -0.6670    0.8445 C   0  0  0  0  0  0  0  0  0  0  0  0
   -0.6815    0.2648   -0.1943 C   0  0  0  0  0  0  0  0  0  0  0  0
   -0.8711    1.6965    0.1204 C   0  0  0  0  0  0  0  0  0  0  0  0
   -0.9126   -0.0740   -1.4980 O   0  0  0  0  0  0  0  0  0  0  0  0
   -0.0549   -1.0863   -1.8607 C   0  0  0  0  0  0  0  0  0  0  0  0
    0.6597   -1.4649   -0.7258 O   0  0  0  0  0  0  0  0  0  0  0  0
    1.7027    1.4263   -0.4822 H   0  0  0  0  0  0  0  0  0  0  0  0
    2.6404   -0.0772   -0.4589 H   0  0  0  0  0  0  0  0  0  0  0  0
    2.2980    0.6827    1.1048 H   0  0  0  0  0  0  0  0  0  0  0  0
    0.3133   -1.8022    1.7311 H   0  0  0  0  0  0  0  0  0  0  0  0
    0.2220   -0.0032    2.2652 H   0  0  0  0  0  0  0  0  0  0  0  0
   -1.6204   -1.5973    0.3171 H   0  0  0  0  0  0  0  0  0  0  0  0
   -2.0700   -0.2027    1.4749 H   0  0  0  0  0  0  0  0  0  0  0  0
   -0.5301    1.9962    1.1144 H   0  0  0  0  0  0  0  0  0  0  0  0
   -1.9776    1.9145    0.0749 H   0  0  0  0  0  0  0  0  0  0  0  0
   -0.4257    2.3026   -0.7032 H   0  0  0  0  0  0  0  0  0  0  0  0
   -0.6379   -1.9470   -2.2451 H   0  0  0  0  0  0  0  0  0  0  0  0
    0.7081   -0.7308   -2.5972 H   0  0  0  0  0  0  0  0  0  0  0  0
  1  2  1  0
  2  3  1  0
  3  4  1  0
  4  5  1  0
  5  6  1  0
  5  7  1  0
  7  8  1  0
  8  9  1  0
  5  2  1  0
  9  2  1  0
  1 10  1  0
  1 11  1  0
  1 12  1  0
  3 13  1  0
  3 14  1  0
  4 15  1  0
  4 16  1  0
  6 17  1  0
  6 18  1  0
  6 19  1  0
  8 20  1  0
  8 21  1  0
M  END
