
     RDKit          3D

 21 22  0  0  0  0  0  0  0  0999 V2000
    1.9312   -0.3528   -0.5149 C   0  0  0  0  0  0  0  0  0  0  0  0
    0.6913    0.1936    0.1313 C   0  0  0  0  0  0  0  0  0  0  0  0
    0.4061   -0.0432    1.5671 C   0  0  0  0  0  0  0  0  0  0  0  0
   -0.9990   -0.4862    1.2383 C   0  0  0  0  0  0  0  0  0  0  0  0
   -0.6567   -0.2912   -0.2104 C   0  0  0  0  0  0  0  0  0  0  0  0
   -0.9028   -1.3776   -1.2012 C   0  0  0  0  0  0  0  0  0  0  0  0
   -0.2092    1.0316   -0.6672 C   0  0  0  0  0  0  0  0  0  0  0  0
   -0.7735    2.2601   -0.0775 C   0  0  0  0  0  0  0  0  0  0  0  0
   -0.9713    2.3167    1.1125 O   0  0  0  0  0  0  0  0  0  0  0  0
    2.7993   -0.0562    0.1312 H   0  0  0  0  0  0  0  0  0  0  0  0
    1.9465   -1.4364   -0.6223 H   0  0  0  0  0  0  0  0  0  0  0  0
    2.0928    0.1836   -1.4837 H   0  0  0  0  0  0  0  0  0  0  0  0
    1.0230   -0.8186    2.0743 H   0  0  0  0  0  0  0  0  0  0  0  0
    0.5020    0.8926    2.1624 H   0  0  0  0  0  0  0  0  0  0  0  0
   -1.1332   -1.5511    1.5493 H   0  0  0  0  0  0  0  0  0  0  0  0
   -1.7431    0.1983    1.6814 H   0  0  0  0  0  0  0  0  0  0  0  0
   -0.6771   -0.9948   -2.2118 H   0  0  0  0  0  0  0  0  0  0  0  0
   -1.9886   -1.6455   -1.1750 H   0  0  0  0  0  0  0  0  0  0  0  0
   -0.2433   -2.2386   -1.0114 H   0  0  0  0  0  0  0  0  0  0  0  0
   -0.0826    1.1076   -1.7780 H   0  0  0  0  0  0  0  0  0  0  0  0
   -1.0118    3.1081   -0.6944 H   0  0  0  0  0  0  0  0  0  0  0  0
  1  2  1  0
  2  3  1  0
  3  4  1  0
  4  5  1  0
  5  6  1  0
  5  7  1  0
  7  8  1  0
  8  9  2  0
  5  2  1  0
  7  2  1  0
  1 10  1  0
  1 11  1  0
  1 12  1  0
  3 13  1  0
  3 14  1  0
  4 15  1  0
  4 16  1  0
  6 17  1  0
  6 18  1  0
  6 19  1  0
  7 20  1  0
  8 21  1  0
M  END
