
     RDKit          3D

 21 23  0  0  0  0  0  0  0  0999 V2000
    2.0460    0.3214   -0.5524 C   0  0  0  0  0  0  0  0  0  0  0  0
    0.7086    0.1501   -0.1085 C   0  0  0  0  0  0  0  0  0  0  0  0
    0.1242   -1.2784   -0.1853 C   0  0  0  0  0  0  0  0  0  0  0  0
   -1.2856   -0.8220    0.2535 C   0  0  0  0  0  0  0  0  0  0  0  0
   -1.5240   -0.0106   -1.0431 C   0  0  0  0  0  0  0  0  0  0  0  0
   -0.3948    0.9808   -0.6677 C   0  0  0  0  0  0  0  0  0  0  0  0
   -1.0876    1.4993    0.4621 O   0  0  0  0  0  0  0  0  0  0  0  0
   -1.0812    0.2923    1.2151 C   0  0  0  0  0  0  0  0  0  0  0  0
    0.4511    0.2882    1.4078 C   0  0  0  0  0  0  0  0  0  0  0  0
    2.7567    0.4858    0.3086 H   0  0  0  0  0  0  0  0  0  0  0  0
    2.1623    1.2602   -1.1702 H   0  0  0  0  0  0  0  0  0  0  0  0
    2.4749   -0.4838   -1.1956 H   0  0  0  0  0  0  0  0  0  0  0  0
    0.1218   -1.6492   -1.2138 H   0  0  0  0  0  0  0  0  0  0  0  0
    0.5716   -1.9364    0.5579 H   0  0  0  0  0  0  0  0  0  0  0  0
   -1.9728   -1.5806    0.4433 H   0  0  0  0  0  0  0  0  0  0  0  0
   -2.4976    0.4705   -1.0361 H   0  0  0  0  0  0  0  0  0  0  0  0
   -1.2687   -0.5967   -1.9188 H   0  0  0  0  0  0  0  0  0  0  0  0
   -0.1741    1.6894   -1.4184 H   0  0  0  0  0  0  0  0  0  0  0  0
   -1.6374    0.3179    2.1096 H   0  0  0  0  0  0  0  0  0  0  0  0
    0.6882   -0.6206    1.9474 H   0  0  0  0  0  0  0  0  0  0  0  0
    0.8185    1.2223    1.8047 H   0  0  0  0  0  0  0  0  0  0  0  0
  1  2  1  0
  2  3  1  0
  3  4  1  0
  4  5  1  0
  5  6  1  0
  6  7  1  0
  7  8  1  0
  8  9  1  0
  6  2  1  0
  9  2  1  0
  8  4  1  0
  1 10  1  0
  1 11  1  0
  1 12  1  0
  3 13  1  0
  3 14  1  0
  4 15  1  0
  5 16  1  0
  5 17  1  0
  6 18  1  0
  8 19  1  0
  9 20  1  0
  9 21  1  0
M  END
