
     RDKit          3D

 21 22  0  0  0  0  0  0  0  0999 V2000
    0.6953    1.9746   -0.2442 C   0  0  0  0  0  0  0  0  0  0  0  0
    0.2482    0.5800   -0.0166 C   0  0  0  0  0  0  0  0  0  0  0  0
    1.0404   -0.5042   -0.6957 C   0  0  0  0  0  0  0  0  0  0  0  0
    0.6780   -1.8395   -0.1254 C   0  0  0  0  0  0  0  0  0  0  0  0
   -0.5760   -1.9138    0.4159 O   0  0  0  0  0  0  0  0  0  0  0  0
   -1.0856   -0.7302    0.8845 C   0  0  0  0  0  0  0  0  0  0  0  0
    0.0126    0.1851    1.4400 C   0  0  0  0  0  0  0  0  0  0  0  0
   -1.2151    0.2931   -0.2551 C   0  0  0  0  0  0  0  0  0  0  0  0
   -1.5126   -0.3419   -1.4425 O   0  0  0  0  0  0  0  0  0  0  0  0
    0.3864    2.6715    0.5289 H   0  0  0  0  0  0  0  0  0  0  0  0
    0.3803    2.3410   -1.2426 H   0  0  0  0  0  0  0  0  0  0  0  0
    1.8126    1.9808   -0.2639 H   0  0  0  0  0  0  0  0  0  0  0  0
    2.1144   -0.3036   -0.6845 H   0  0  0  0  0  0  0  0  0  0  0  0
    0.7305   -0.4863   -1.7782 H   0  0  0  0  0  0  0  0  0  0  0  0
    1.4922   -2.1164    0.5976 H   0  0  0  0  0  0  0  0  0  0  0  0
    0.7190   -2.5903   -0.9678 H   0  0  0  0  0  0  0  0  0  0  0  0
   -1.9643   -0.8372    1.5111 H   0  0  0  0  0  0  0  0  0  0  0  0
    0.8543   -0.3326    1.8998 H   0  0  0  0  0  0  0  0  0  0  0  0
   -0.4523    1.0122    2.0297 H   0  0  0  0  0  0  0  0  0  0  0  0
   -1.8930    1.1107    0.0551 H   0  0  0  0  0  0  0  0  0  0  0  0
   -2.4653   -0.1531   -1.6463 H   0  0  0  0  0  0  0  0  0  0  0  0
  1  2  1  0
  2  3  1  0
  3  4  1  0
  4  5  1  0
  5  6  1  0
  6  7  1  0
  6  8  1  0
  8  9  1  0
  7  2  1  0
  8  2  1  0
  1 10  1  0
  1 11  1  0
  1 12  1  0
  3 13  1  0
  3 14  1  0
  4 15  1  0
  4 16  1  0
  6 17  1  0
  7 18  1  0
  7 19  1  0
  8 20  1  0
  9 21  1  0
M  END
