
     RDKit          3D

 17 19  0  0  0  0  0  0  0  0999 V2000
   -2.1001   -0.3988    0.2202 C   0  0  0  0  0  0  0  0  0  0  0  0
   -0.6292   -0.0871    0.2987 C   0  0  0  0  0  0  0  0  0  0  0  0
   -0.2315    1.3231    0.5611 C   0  0  0  0  0  0  0  0  0  0  0  0
    0.9515    1.5716    0.0072 C   0  0  0  0  0  0  0  0  0  0  0  0
    1.4346    0.3258   -0.6725 C   0  0  0  0  0  0  0  0  0  0  0  0
    1.8112   -0.7440    0.3215 C   0  0  0  0  0  0  0  0  0  0  0  0
    2.8200   -1.1406    0.8555 O   0  0  0  0  0  0  0  0  0  0  0  0
    0.3866   -1.1383    0.3900 C   0  0  0  0  0  0  0  0  0  0  0  0
    0.1702   -0.4200   -0.8847 C   0  0  0  0  0  0  0  0  0  0  0  0
   -2.2886   -1.4693    0.2792 H   0  0  0  0  0  0  0  0  0  0  0  0
   -2.4677    0.0566   -0.7456 H   0  0  0  0  0  0  0  0  0  0  0  0
   -2.6539    0.1462    1.0182 H   0  0  0  0  0  0  0  0  0  0  0  0
   -0.7920    2.0742    1.1172 H   0  0  0  0  0  0  0  0  0  0  0  0
    1.5126    2.4997    0.0173 H   0  0  0  0  0  0  0  0  0  0  0  0
    2.1153    0.4613   -1.4991 H   0  0  0  0  0  0  0  0  0  0  0  0
    0.1249   -2.2103    0.5174 H   0  0  0  0  0  0  0  0  0  0  0  0
   -0.1640   -0.8501   -1.8014 H   0  0  0  0  0  0  0  0  0  0  0  0
  1  2  1  0
  2  3  1  0
  3  4  2  0
  4  5  1  0
  5  6  1  0
  6  7  2  0
  6  8  1  0
  8  9  1  0
  8  2  1  0
  9  2  1  0
  9  5  1  0
  1 10  1  0
  1 11  1  0
  1 12  1  0
  3 13  1  0
  4 14  1  0
  5 15  1  0
  8 16  1  0
  9 17  1  0
M  END
