
     RDKit          3D

 21 22  0  0  0  0  0  0  0  0999 V2000
   -1.2063    1.4246    0.8774 C   0  0  0  0  0  0  0  0  0  0  0  0
   -0.1569    0.9328   -0.0628 C   0  0  0  0  0  0  0  0  0  0  0  0
   -0.5379    0.3441   -1.3861 C   0  0  0  0  0  0  0  0  0  0  0  0
    0.1013   -0.4822   -0.3170 C   0  0  0  0  0  0  0  0  0  0  0  0
   -0.7068   -1.6081    0.2109 C   0  0  0  0  0  0  0  0  0  0  0  0
   -2.0442   -1.5835   -0.1848 O   0  0  0  0  0  0  0  0  0  0  0  0
    1.5879   -0.6241   -0.2509 C   0  0  0  0  0  0  0  0  0  0  0  0
    2.0704    0.7623    0.0584 C   0  0  0  0  0  0  0  0  0  0  0  0
    1.0248    1.6299   -0.0422 O   0  0  0  0  0  0  0  0  0  0  0  0
   -1.2402    2.5330    0.8458 H   0  0  0  0  0  0  0  0  0  0  0  0
   -0.8822    1.1670    1.9165 H   0  0  0  0  0  0  0  0  0  0  0  0
   -2.2126    0.9994    0.6995 H   0  0  0  0  0  0  0  0  0  0  0  0
    0.1301    0.5321   -2.2636 H   0  0  0  0  0  0  0  0  0  0  0  0
   -1.6010    0.1612   -1.6188 H   0  0  0  0  0  0  0  0  0  0  0  0
   -0.2879   -2.5599   -0.2312 H   0  0  0  0  0  0  0  0  0  0  0  0
   -0.5819   -1.7182    1.3028 H   0  0  0  0  0  0  0  0  0  0  0  0
   -2.6365   -1.4538    0.6127 H   0  0  0  0  0  0  0  0  0  0  0  0
    1.9654   -1.0292   -1.2039 H   0  0  0  0  0  0  0  0  0  0  0  0
    1.8220   -1.2811    0.6237 H   0  0  0  0  0  0  0  0  0  0  0  0
    2.5074    0.8538    1.0729 H   0  0  0  0  0  0  0  0  0  0  0  0
    2.8851    0.9998   -0.6592 H   0  0  0  0  0  0  0  0  0  0  0  0
  1  2  1  0
  2  3  1  0
  3  4  1  0
  4  5  1  0
  5  6  1  0
  4  7  1  0
  7  8  1  0
  8  9  1  0
  4  2  1  0
  9  2  1  0
  1 10  1  0
  1 11  1  0
  1 12  1  0
  3 13  1  0
  3 14  1  0
  5 15  1  0
  5 16  1  0
  6 17  1  0
  7 18  1  0
  7 19  1  0
  8 20  1  0
  8 21  1  0
M  END
