
     RDKit          3D

 21 23  0  0  0  0  0  0  0  0999 V2000
    2.3831    0.5667   -0.1307 C   0  0  0  0  0  0  0  0  0  0  0  0
    0.9167    0.3076    0.0498 C   0  0  0  0  0  0  0  0  0  0  0  0
    0.0497    1.4842    0.1567 C   0  0  0  0  0  0  0  0  0  0  0  0
   -1.2784    1.3224    0.0982 C   0  0  0  0  0  0  0  0  0  0  0  0
   -1.7293   -0.0972    0.0492 C   0  0  0  0  0  0  0  0  0  0  0  0
   -1.0529   -0.7166   -1.1507 C   0  0  0  0  0  0  0  0  0  0  0  0
    0.3648   -0.8279   -0.7213 C   0  0  0  0  0  0  0  0  0  0  0  0
    0.4256   -0.8974    0.7556 C   0  0  0  0  0  0  0  0  0  0  0  0
   -0.9943   -0.7972    1.1882 C   0  0  0  0  0  0  0  0  0  0  0  0
    3.0238   -0.0153    0.5554 H   0  0  0  0  0  0  0  0  0  0  0  0
    2.5965    1.6510   -0.0492 H   0  0  0  0  0  0  0  0  0  0  0  0
    2.6353    0.2965   -1.1927 H   0  0  0  0  0  0  0  0  0  0  0  0
    0.4902    2.4656    0.2813 H   0  0  0  0  0  0  0  0  0  0  0  0
   -1.9936    2.1152    0.0854 H   0  0  0  0  0  0  0  0  0  0  0  0
   -2.8049   -0.2274    0.0818 H   0  0  0  0  0  0  0  0  0  0  0  0
   -1.1271    0.0043   -1.9871 H   0  0  0  0  0  0  0  0  0  0  0  0
   -1.4639   -1.7117   -1.4009 H   0  0  0  0  0  0  0  0  0  0  0  0
    1.0295   -1.3960   -1.3734 H   0  0  0  0  0  0  0  0  0  0  0  0
    1.0860   -1.5904    1.2866 H   0  0  0  0  0  0  0  0  0  0  0  0
   -1.1051   -0.1552    2.1063 H   0  0  0  0  0  0  0  0  0  0  0  0
   -1.4515   -1.7813    1.3115 H   0  0  0  0  0  0  0  0  0  0  0  0
  1  2  1  0
  2  3  1  0
  3  4  2  0
  4  5  1  0
  5  6  1  0
  6  7  1  0
  7  8  1  0
  8  9  1  0
  7  2  1  0
  8  2  1  0
  9  5  1  0
  1 10  1  0
  1 11  1  0
  1 12  1  0
  3 13  1  0
  4 14  1  0
  5 15  1  0
  6 16  1  0
  6 17  1  0
  7 18  1  0
  8 19  1  0
  9 20  1  0
  9 21  1  0
M  END
