
     RDKit          3D

 19 22  0  0  0  0  0  0  0  0999 V2000
    2.2032   -0.5303    0.1329 C   0  0  0  0  0  0  0  0  0  0  0  0
    0.8213   -0.1513   -0.0494 C   0  0  0  0  0  0  0  0  0  0  0  0
    0.3848    1.1581   -0.6846 C   0  0  0  0  0  0  0  0  0  0  0  0
   -0.8250    1.7141   -0.1788 O   0  0  0  0  0  0  0  0  0  0  0  0
   -1.9068    0.8321   -0.1218 C   0  0  0  0  0  0  0  0  0  0  0  0
   -1.2661   -0.2082   -0.5065 C   0  0  0  0  0  0  0  0  0  0  0  0
   -1.7245   -0.5968    0.5320 C   0  0  0  0  0  0  0  0  0  0  0  0
   -0.2928   -1.2534    0.2278 C   0  0  0  0  0  0  0  0  0  0  0  0
   -0.1917   -0.1937    0.7593 C   0  0  0  0  0  0  0  0  0  0  0  0
    2.3084   -1.6520    0.1783 H   0  0  0  0  0  0  0  0  0  0  0  0
    2.7897   -0.2502   -0.7899 H   0  0  0  0  0  0  0  0  0  0  0  0
    2.7080   -0.1495    1.0351 H   0  0  0  0  0  0  0  0  0  0  0  0
    0.3939    1.1350   -1.7763 H   0  0  0  0  0  0  0  0  0  0  0  0
    1.1593    1.8702   -0.3297 H   0  0  0  0  0  0  0  0  0  0  0  0
   -2.7783    1.2870    0.3265 H   0  0  0  0  0  0  0  0  0  0  0  0
   -0.9917   -0.5393   -1.4700 H   0  0  0  0  0  0  0  0  0  0  0  0
   -2.0751   -0.7428    1.5460 H   0  0  0  0  0  0  0  0  0  0  0  0
   -0.3194   -2.0928   -0.4617 H   0  0  0  0  0  0  0  0  0  0  0  0
   -0.3971    0.3636    1.6306 H   0  0  0  0  0  0  0  0  0  0  0  0
  1  2  1  0
  2  3  1  0
  3  4  1  0
  4  5  1  0
  5  6  1  0
  6  7  1  0
  7  8  1  0
  8  9  1  0
  8  2  1  0
  9  2  1  0
  7  5  1  0
  9  6  1  0
  1 10  1  0
  1 11  1  0
  1 12  1  0
  3 13  1  0
  3 14  1  0
  5 15  1  0
  6 16  1  0
  7 17  1  0
  8 18  1  0
  9 19  1  0
M  END
