
     RDKit          3D

 23 24  0  0  0  0  0  0  0  0999 V2000
   -1.2001   -1.7077   -0.4731 C   0  0  0  0  0  0  0  0  0  0  0  0
   -0.1368   -0.7904    0.0518 C   0  0  0  0  0  0  0  0  0  0  0  0
    1.2680   -1.1196   -0.2842 C   0  0  0  0  0  0  0  0  0  0  0  0
    2.2724   -0.1004   -0.0022 C   0  0  0  0  0  0  0  0  0  0  0  0
    1.9442    1.1720    0.0099 C   0  0  0  0  0  0  0  0  0  0  0  0
    0.5759    1.5974   -0.2564 C   0  0  0  0  0  0  0  0  0  0  0  0
   -0.4712    0.6280    0.2082 C   0  0  0  0  0  0  0  0  0  0  0  0
   -1.8734    1.0371   -0.1941 C   0  0  0  0  0  0  0  0  0  0  0  0
   -0.3282   -0.1639    1.4326 C   0  0  0  0  0  0  0  0  0  0  0  0
   -0.9441   -2.7658   -0.2537 H   0  0  0  0  0  0  0  0  0  0  0  0
   -2.1958   -1.5248   -0.0332 H   0  0  0  0  0  0  0  0  0  0  0  0
   -1.3117   -1.5535   -1.5691 H   0  0  0  0  0  0  0  0  0  0  0  0
    1.3492   -1.4032   -1.3695 H   0  0  0  0  0  0  0  0  0  0  0  0
    1.5565   -2.0653    0.2575 H   0  0  0  0  0  0  0  0  0  0  0  0
    3.3010   -0.4169    0.1981 H   0  0  0  0  0  0  0  0  0  0  0  0
    2.6985    1.9155    0.2201 H   0  0  0  0  0  0  0  0  0  0  0  0
    0.4453    1.7224   -1.3555 H   0  0  0  0  0  0  0  0  0  0  0  0
    0.3639    2.6114    0.1791 H   0  0  0  0  0  0  0  0  0  0  0  0
   -1.9453    0.9250   -1.2929 H   0  0  0  0  0  0  0  0  0  0  0  0
   -2.6364    0.4526    0.3541 H   0  0  0  0  0  0  0  0  0  0  0  0
   -1.9849    2.1018    0.0820 H   0  0  0  0  0  0  0  0  0  0  0  0
    0.5280   -0.1007    2.1132 H   0  0  0  0  0  0  0  0  0  0  0  0
   -1.2750   -0.4509    1.9774 H   0  0  0  0  0  0  0  0  0  0  0  0
  1  2  1  0
  2  3  1  0
  3  4  1  0
  4  5  2  0
  5  6  1  0
  6  7  1  0
  7  8  1  0
  7  9  1  0
  7  2  1  0
  9  2  1  0
  1 10  1  0
  1 11  1  0
  1 12  1  0
  3 13  1  0
  3 14  1  0
  4 15  1  0
  5 16  1  0
  6 17  1  0
  6 18  1  0
  8 19  1  0
  8 20  1  0
  8 21  1  0
  9 22  1  0
  9 23  1  0
M  END
