
     RDKit          3D

 21 22  0  0  0  0  0  0  0  0999 V2000
   -1.5755    1.3809   -0.1689 C   0  0  0  0  0  0  0  0  0  0  0  0
   -1.3027    0.0692    0.5797 C   0  0  0  0  0  0  0  0  0  0  0  0
    0.1067    0.0787    1.0898 C   0  0  0  0  0  0  0  0  0  0  0  0
    0.3907   -0.0597   -0.4247 C   0  0  0  0  0  0  0  0  0  0  0  0
    1.7709   -0.5835   -0.6267 C   0  0  0  0  0  0  0  0  0  0  0  0
    2.7924    0.3244   -0.0463 C   0  0  0  0  0  0  0  0  0  0  0  0
    2.8030    1.5310   -0.3288 O   0  0  0  0  0  0  0  0  0  0  0  0
   -0.6589   -1.0977   -0.2794 C   0  0  0  0  0  0  0  0  0  0  0  0
   -2.0585   -1.0070   -0.0119 C   0  0  0  0  0  0  0  0  0  0  0  0
   -2.5774    1.7081    0.2519 H   0  0  0  0  0  0  0  0  0  0  0  0
   -0.8860    2.1893    0.0787 H   0  0  0  0  0  0  0  0  0  0  0  0
   -1.7574    1.2357   -1.2362 H   0  0  0  0  0  0  0  0  0  0  0  0
    0.3886    1.0341    1.5252 H   0  0  0  0  0  0  0  0  0  0  0  0
    0.4528   -0.8435    1.5852 H   0  0  0  0  0  0  0  0  0  0  0  0
    0.2108    0.8445   -0.9983 H   0  0  0  0  0  0  0  0  0  0  0  0
    1.9522   -0.7885   -1.6910 H   0  0  0  0  0  0  0  0  0  0  0  0
    1.8924   -1.5483   -0.0827 H   0  0  0  0  0  0  0  0  0  0  0  0
    3.5634   -0.0104    0.6388 H   0  0  0  0  0  0  0  0  0  0  0  0
   -0.1938   -1.9193    0.3615 H   0  0  0  0  0  0  0  0  0  0  0  0
   -2.6100   -1.6419    0.7161 H   0  0  0  0  0  0  0  0  0  0  0  0
   -2.7038   -0.8960   -0.9319 H   0  0  0  0  0  0  0  0  0  0  0  0
  1  2  1  0
  2  3  1  0
  3  4  1  0
  4  5  1  0
  5  6  1  0
  6  7  2  0
  4  8  1  0
  8  9  1  0
  8  2  1  0
  9  2  1  0
  1 10  1  0
  1 11  1  0
  1 12  1  0
  3 13  1  0
  3 14  1  0
  4 15  1  0
  5 16  1  0
  5 17  1  0
  6 18  1  0
  8 19  1  0
  9 20  1  0
  9 21  1  0
M  END
