
     RDKit          3D

 17 19  0  0  0  0  0  0  0  0999 V2000
    2.1366   -0.0802   -0.0828 C   0  0  0  0  0  0  0  0  0  0  0  0
    0.6453    0.0156   -0.0042 C   0  0  0  0  0  0  0  0  0  0  0  0
    0.1071    1.3898   -0.2091 C   0  0  0  0  0  0  0  0  0  0  0  0
   -1.2449    1.3850    0.0047 O   0  0  0  0  0  0  0  0  0  0  0  0
   -1.8187    0.1490    0.1240 C   0  0  0  0  0  0  0  0  0  0  0  0
   -1.1915   -0.9633   -0.5659 C   0  0  0  0  0  0  0  0  0  0  0  0
    0.0986   -0.8085   -0.9913 O   0  0  0  0  0  0  0  0  0  0  0  0
   -1.1105   -0.8513    0.9087 C   0  0  0  0  0  0  0  0  0  0  0  0
    0.1986   -0.4637    1.2149 O   0  0  0  0  0  0  0  0  0  0  0  0
    2.6595    0.5113    0.6807 H   0  0  0  0  0  0  0  0  0  0  0  0
    2.4044   -1.1499    0.1198 H   0  0  0  0  0  0  0  0  0  0  0  0
    2.5163    0.1294   -1.1011 H   0  0  0  0  0  0  0  0  0  0  0  0
    0.3349    1.7682   -1.2465 H   0  0  0  0  0  0  0  0  0  0  0  0
    0.6007    2.1120    0.4718 H   0  0  0  0  0  0  0  0  0  0  0  0
   -2.9215    0.1559    0.1846 H   0  0  0  0  0  0  0  0  0  0  0  0
   -1.8428   -1.7029   -1.0700 H   0  0  0  0  0  0  0  0  0  0  0  0
   -1.5722   -1.5965    1.5617 H   0  0  0  0  0  0  0  0  0  0  0  0
  1  2  1  0
  2  3  1  0
  3  4  1  0
  4  5  1  0
  5  6  1  0
  6  7  1  0
  6  8  1  0
  8  9  1  0
  7  2  1  0
  9  2  1  0
  8  5  1  0
  1 10  1  0
  1 11  1  0
  1 12  1  0
  3 13  1  0
  3 14  1  0
  5 15  1  0
  6 16  1  0
  8 17  1  0
M  END
