
     RDKit          3D

 18 20  0  0  0  0  0  0  0  0999 V2000
    1.8678    0.1514    0.6485 C   0  0  0  0  0  0  0  0  0  0  0  0
    0.8949   -0.2286   -0.4295 C   0  0  0  0  0  0  0  0  0  0  0  0
    1.0363   -1.4604   -1.0733 O   0  0  0  0  0  0  0  0  0  0  0  0
    0.1156   -1.5220   -0.1011 C   0  0  0  0  0  0  0  0  0  0  0  0
   -1.3144   -1.0030   -0.2357 C   0  0  0  0  0  0  0  0  0  0  0  0
   -1.1107    0.3633    0.3169 C   0  0  0  0  0  0  0  0  0  0  0  0
   -0.9750    1.6530   -0.2187 C   0  0  0  0  0  0  0  0  0  0  0  0
   -0.1182    0.7284   -0.8643 C   0  0  0  0  0  0  0  0  0  0  0  0
    1.6146    1.1766    0.9799 H   0  0  0  0  0  0  0  0  0  0  0  0
    2.9173    0.0619    0.3295 H   0  0  0  0  0  0  0  0  0  0  0  0
    1.7728   -0.4886    1.5655 H   0  0  0  0  0  0  0  0  0  0  0  0
    0.3736   -2.0735    0.8064 H   0  0  0  0  0  0  0  0  0  0  0  0
   -1.6787   -1.0438   -1.2615 H   0  0  0  0  0  0  0  0  0  0  0  0
   -1.9222   -1.5825    0.4842 H   0  0  0  0  0  0  0  0  0  0  0  0
   -0.6188    0.2442    1.3345 H   0  0  0  0  0  0  0  0  0  0  0  0
   -0.4890    2.4755    0.3627 H   0  0  0  0  0  0  0  0  0  0  0  0
   -1.8771    2.0870   -0.7389 H   0  0  0  0  0  0  0  0  0  0  0  0
   -0.4887    0.4610   -1.9050 H   0  0  0  0  0  0  0  0  0  0  0  0
  1  2  1  0
  2  3  1  0
  3  4  1  0
  4  5  1  0
  5  6  1  0
  6  7  1  0
  7  8  1  0
  4  2  1  0
  8  6  1  0
  8  2  1  0
  1  9  1  0
  1 10  1  0
  1 11  1  0
  4 12  1  0
  5 13  1  0
  5 14  1  0
  6 15  1  0
  7 16  1  0
  7 17  1  0
  8 18  1  0
M  END
