
     RDKit          3D

 21 23  0  0  0  0  0  0  0  0999 V2000
    2.3169    0.4187    0.7619 C   0  0  0  0  0  0  0  0  0  0  0  0
    0.9158    0.6635    0.2709 C   0  0  0  0  0  0  0  0  0  0  0  0
    0.6603    1.5260   -0.7588 O   0  0  0  0  0  0  0  0  0  0  0  0
    0.6700    0.2259   -1.1820 C   0  0  0  0  0  0  0  0  0  0  0  0
   -0.5577   -0.6373   -1.1049 C   0  0  0  0  0  0  0  0  0  0  0  0
   -1.7813    0.2012   -0.8026 C   0  0  0  0  0  0  0  0  0  0  0  0
   -1.5130    0.6812    0.6320 C   0  0  0  0  0  0  0  0  0  0  0  0
   -0.2143    0.0300    1.0354 C   0  0  0  0  0  0  0  0  0  0  0  0
   -0.3381   -1.2977    0.2687 C   0  0  0  0  0  0  0  0  0  0  0  0
    2.9666    0.0189   -0.0446 H   0  0  0  0  0  0  0  0  0  0  0  0
    2.2689   -0.3912    1.5317 H   0  0  0  0  0  0  0  0  0  0  0  0
    2.7512    1.3188    1.2442 H   0  0  0  0  0  0  0  0  0  0  0  0
    1.5381   -0.1887   -1.7413 H   0  0  0  0  0  0  0  0  0  0  0  0
   -0.6807   -1.3522   -1.9011 H   0  0  0  0  0  0  0  0  0  0  0  0
   -1.8997    1.0601   -1.4680 H   0  0  0  0  0  0  0  0  0  0  0  0
   -2.6580   -0.4641   -0.8498 H   0  0  0  0  0  0  0  0  0  0  0  0
   -2.3101    0.2253    1.2682 H   0  0  0  0  0  0  0  0  0  0  0  0
   -1.4886    1.7735    0.6792 H   0  0  0  0  0  0  0  0  0  0  0  0
   -0.0621   -0.0963    2.0888 H   0  0  0  0  0  0  0  0  0  0  0  0
   -1.2003   -1.8787    0.5868 H   0  0  0  0  0  0  0  0  0  0  0  0
    0.6163   -1.8368    0.2376 H   0  0  0  0  0  0  0  0  0  0  0  0
  1  2  1  0
  2  3  1  0
  3  4  1  0
  4  5  1  0
  5  6  1  0
  6  7  1  0
  7  8  1  0
  8  9  1  0
  4  2  1  0
  9  5  1  0
  8  2  1  0
  1 10  1  0
  1 11  1  0
  1 12  1  0
  4 13  1  0
  5 14  1  0
  6 15  1  0
  6 16  1  0
  7 17  1  0
  7 18  1  0
  8 19  1  0
  9 20  1  0
  9 21  1  0
M  END
