
     RDKit          3D

 15 16  0  0  0  0  0  0  0  0999 V2000
   -1.8020    0.4174   -0.1207 C   0  0  0  0  0  0  0  0  0  0  0  0
   -0.5072   -0.0986    0.4174 C   0  0  0  0  0  0  0  0  0  0  0  0
    0.0198   -1.3481   -0.1456 C   0  0  0  0  0  0  0  0  0  0  0  0
    0.7482   -0.0879   -0.3246 C   0  0  0  0  0  0  0  0  0  0  0  0
    0.9259    0.5246   -1.5418 O   0  0  0  0  0  0  0  0  0  0  0  0
    1.3560    0.5287    0.9078 C   0  0  0  0  0  0  0  0  0  0  0  0
    0.0993    0.5377    1.4806 O   0  0  0  0  0  0  0  0  0  0  0  0
   -1.9028    1.5246   -0.0672 H   0  0  0  0  0  0  0  0  0  0  0  0
   -1.9750    0.0173   -1.1405 H   0  0  0  0  0  0  0  0  0  0  0  0
   -2.6173    0.0178    0.5346 H   0  0  0  0  0  0  0  0  0  0  0  0
    0.4003   -2.0900    0.5912 H   0  0  0  0  0  0  0  0  0  0  0  0
   -0.4976   -1.7529   -1.0254 H   0  0  0  0  0  0  0  0  0  0  0  0
    1.9181    0.5296   -1.7172 H   0  0  0  0  0  0  0  0  0  0  0  0
    1.8353    1.5002    0.7319 H   0  0  0  0  0  0  0  0  0  0  0  0
    1.9988   -0.2203    1.4195 H   0  0  0  0  0  0  0  0  0  0  0  0
  1  2  1  0
  2  3  1  0
  3  4  1  0
  4  5  1  0
  4  6  1  0
  6  7  1  0
  4  2  1  0
  7  2  1  0
  1  8  1  0
  1  9  1  0
  1 10  1  0
  3 11  1  0
  3 12  1  0
  5 13  1  0
  6 14  1  0
  6 15  1  0
M  END
