
     RDKit          3D

 19 20  0  0  0  0  0  0  0  0999 V2000
   -1.9616    0.8931    0.8683 C   0  0  0  0  0  0  0  0  0  0  0  0
   -0.7610    0.2249    0.3153 C   0  0  0  0  0  0  0  0  0  0  0  0
    0.4795    1.1287    0.3261 C   0  0  0  0  0  0  0  0  0  0  0  0
    1.3420    0.3617   -0.6886 C   0  0  0  0  0  0  0  0  0  0  0  0
    2.4398   -0.2092   -0.0489 O   0  0  0  0  0  0  0  0  0  0  0  0
    0.3901   -0.6750   -1.2020 C   0  0  0  0  0  0  0  0  0  0  0  0
    0.1502   -1.7641   -0.1575 C   0  0  0  0  0  0  0  0  0  0  0  0
   -0.4815   -1.0158    0.8473 O   0  0  0  0  0  0  0  0  0  0  0  0
   -0.8458    0.0093   -1.0835 O   0  0  0  0  0  0  0  0  0  0  0  0
   -1.6395    1.5856    1.6754 H   0  0  0  0  0  0  0  0  0  0  0  0
   -2.4397    1.4879    0.0472 H   0  0  0  0  0  0  0  0  0  0  0  0
   -2.6667    0.1192    1.2379 H   0  0  0  0  0  0  0  0  0  0  0  0
    0.1391    2.0948   -0.0944 H   0  0  0  0  0  0  0  0  0  0  0  0
    0.9438    1.1882    1.3052 H   0  0  0  0  0  0  0  0  0  0  0  0
    1.6822    0.9971   -1.5039 H   0  0  0  0  0  0  0  0  0  0  0  0
    2.1514   -0.6407    0.8010 H   0  0  0  0  0  0  0  0  0  0  0  0
    0.5798   -1.0496   -2.1894 H   0  0  0  0  0  0  0  0  0  0  0  0
   -0.5674   -2.4875   -0.6262 H   0  0  0  0  0  0  0  0  0  0  0  0
    1.0652   -2.2486    0.1708 H   0  0  0  0  0  0  0  0  0  0  0  0
  1  2  1  0
  2  3  1  0
  3  4  1  0
  4  5  1  0
  4  6  1  0
  6  7  1  0
  7  8  1  0
  6  9  1  0
  8  2  1  0
  9  2  1  0
  1 10  1  0
  1 11  1  0
  1 12  1  0
  3 13  1  0
  3 14  1  0
  4 15  1  0
  5 16  1  0
  6 17  1  0
  7 18  1  0
  7 19  1  0
M  END
