
     RDKit          3D

 16 17  0  0  0  0  0  0  0  0999 V2000
   -1.7994    0.5407   -0.3309 C   0  0  0  0  0  0  0  0  0  0  0  0
   -0.4139    0.1822   -0.1712 C   0  0  0  0  0  0  0  0  0  0  0  0
    0.3364    0.6151    1.0875 C   0  0  0  0  0  0  0  0  0  0  0  0
    1.6840    0.2526    0.5790 C   0  0  0  0  0  0  0  0  0  0  0  0
    2.7586    0.4612    1.0157 O   0  0  0  0  0  0  0  0  0  0  0  0
    1.3175   -0.4618   -0.6585 C   0  0  0  0  0  0  0  0  0  0  0  0
    0.0512   -1.2277   -0.3469 C   0  0  0  0  0  0  0  0  0  0  0  0
    0.4572    0.5023   -1.2420 O   0  0  0  0  0  0  0  0  0  0  0  0
   -2.3247    0.6544    0.6267 H   0  0  0  0  0  0  0  0  0  0  0  0
   -1.9089    1.5168   -0.8645 H   0  0  0  0  0  0  0  0  0  0  0  0
   -2.3380   -0.2200   -0.9524 H   0  0  0  0  0  0  0  0  0  0  0  0
    0.2224    1.6878    1.2812 H   0  0  0  0  0  0  0  0  0  0  0  0
    0.1148   -0.0309    1.9409 H   0  0  0  0  0  0  0  0  0  0  0  0
    2.0575   -0.8996   -1.2741 H   0  0  0  0  0  0  0  0  0  0  0  0
    0.0857   -1.8465    0.5699 H   0  0  0  0  0  0  0  0  0  0  0  0
   -0.3003   -1.7266   -1.2603 H   0  0  0  0  0  0  0  0  0  0  0  0
  1  2  1  0
  2  3  1  0
  3  4  1  0
  4  5  2  0
  4  6  1  0
  6  7  1  0
  6  8  1  0
  7  2  1  0
  8  2  1  0
  1  9  1  0
  1 10  1  0
  1 11  1  0
  3 12  1  0
  3 13  1  0
  6 14  1  0
  7 15  1  0
  7 16  1  0
M  END
