
     RDKit          3D

 21 22  0  0  0  0  0  0  0  0999 V2000
    1.9935    1.0017   -0.7645 C   0  0  0  0  0  0  0  0  0  0  0  0
    0.6412    0.4716   -0.2550 C   0  0  0  0  0  0  0  0  0  0  0  0
    0.9107   -0.4460    0.9109 C   0  0  0  0  0  0  0  0  0  0  0  0
    0.0491   -1.4862    0.1991 C   0  0  0  0  0  0  0  0  0  0  0  0
   -1.3924   -1.2796    0.5750 C   0  0  0  0  0  0  0  0  0  0  0  0
   -1.9259   -0.0642    0.6598 C   0  0  0  0  0  0  0  0  0  0  0  0
   -1.4951    1.2814    0.2524 C   0  0  0  0  0  0  0  0  0  0  0  0
   -0.2157    1.4613   -0.0658 O   0  0  0  0  0  0  0  0  0  0  0  0
    0.2306   -0.6890   -1.0904 C   0  0  0  0  0  0  0  0  0  0  0  0
    1.8793    1.5499   -1.6984 H   0  0  0  0  0  0  0  0  0  0  0  0
    2.7147    0.1565   -0.8367 H   0  0  0  0  0  0  0  0  0  0  0  0
    2.3464    1.7324    0.0087 H   0  0  0  0  0  0  0  0  0  0  0  0
    0.4610   -0.0497    1.8386 H   0  0  0  0  0  0  0  0  0  0  0  0
    1.9421   -0.7972    1.0070 H   0  0  0  0  0  0  0  0  0  0  0  0
    0.4109   -2.5003    0.1989 H   0  0  0  0  0  0  0  0  0  0  0  0
   -1.9908   -2.1458    0.7764 H   0  0  0  0  0  0  0  0  0  0  0  0
   -2.9147   -0.0612    1.1445 H   0  0  0  0  0  0  0  0  0  0  0  0
   -1.7629    1.9636    1.1143 H   0  0  0  0  0  0  0  0  0  0  0  0
   -2.1989    1.6127   -0.5669 H   0  0  0  0  0  0  0  0  0  0  0  0
   -0.7052   -0.5688   -1.6843 H   0  0  0  0  0  0  0  0  0  0  0  0
    1.0222   -1.1432   -1.7237 H   0  0  0  0  0  0  0  0  0  0  0  0
  1  2  1  0
  2  3  1  0
  3  4  1  0
  4  5  1  0
  5  6  2  0
  6  7  1  0
  7  8  1  0
  4  9  1  0
  8  2  1  0
  9  2  1  0
  1 10  1  0
  1 11  1  0
  1 12  1  0
  3 13  1  0
  3 14  1  0
  4 15  1  0
  5 16  1  0
  6 17  1  0
  7 18  1  0
  7 19  1  0
  9 20  1  0
  9 21  1  0
M  END
