
     RDKit          3D

 17 18  0  0  0  0  0  0  0  0999 V2000
    1.7299    0.7710    0.2290 C   0  0  0  0  0  0  0  0  0  0  0  0
    0.4458    0.2963    0.1545 C   0  0  0  0  0  0  0  0  0  0  0  0
   -0.7677    1.0245   -0.3622 C   0  0  0  0  0  0  0  0  0  0  0  0
   -1.2768   -0.3371    0.0391 C   0  0  0  0  0  0  0  0  0  0  0  0
   -2.4448   -0.7770   -0.0339 O   0  0  0  0  0  0  0  0  0  0  0  0
   -0.4188   -0.1940    1.2314 C   0  0  0  0  0  0  0  0  0  0  0  0
   -0.3801   -0.3611    2.4280 O   0  0  0  0  0  0  0  0  0  0  0  0
   -0.0464   -0.8792   -0.6494 C   0  0  0  0  0  0  0  0  0  0  0  0
    0.3606   -2.0702   -0.1017 O   0  0  0  0  0  0  0  0  0  0  0  0
    2.5103   -0.0150   -0.0004 H   0  0  0  0  0  0  0  0  0  0  0  0
    2.0286    1.1684    1.2236 H   0  0  0  0  0  0  0  0  0  0  0  0
    1.9571    1.5913   -0.4949 H   0  0  0  0  0  0  0  0  0  0  0  0
   -0.7881    1.2719   -1.4203 H   0  0  0  0  0  0  0  0  0  0  0  0
   -1.1085    1.8078    0.3492 H   0  0  0  0  0  0  0  0  0  0  0  0
   -3.0960   -0.3234   -0.5890 H   0  0  0  0  0  0  0  0  0  0  0  0
   -0.0305   -0.7697   -1.7315 H   0  0  0  0  0  0  0  0  0  0  0  0
    1.3254   -2.2045   -0.2715 H   0  0  0  0  0  0  0  0  0  0  0  0
  1  2  1  0
  2  3  1  0
  3  4  1  0
  4  5  1  0
  4  6  1  0
  6  7  2  0
  4  8  1  0
  8  9  1  0
  6  2  1  0
  8  2  1  0
  1 10  1  0
  1 11  1  0
  1 12  1  0
  3 13  1  0
  3 14  1  0
  5 15  1  0
  8 16  1  0
  9 17  1  0
M  END
