
     RDKit          3D

 23 25  0  0  0  0  0  0  0  0999 V2000
   -2.0389   -0.9625   -0.4407 C   0  0  0  0  0  0  0  0  0  0  0  0
   -0.7475   -0.3220   -0.1688 C   0  0  0  0  0  0  0  0  0  0  0  0
   -0.7727    0.7670    0.8785 C   0  0  0  0  0  0  0  0  0  0  0  0
    0.4746    1.6047    0.5611 C   0  0  0  0  0  0  0  0  0  0  0  0
    1.0991    0.9083   -0.6429 C   0  0  0  0  0  0  0  0  0  0  0  0
   -0.1886    0.4746   -1.3586 C   0  0  0  0  0  0  0  0  0  0  0  0
    1.6520   -0.4122   -0.2117 C   0  0  0  0  0  0  0  0  0  0  0  0
    1.4067   -0.9475    1.1490 C   0  0  0  0  0  0  0  0  0  0  0  0
    0.4017   -1.2569    0.1002 C   0  0  0  0  0  0  0  0  0  0  0  0
   -2.6944   -1.0270    0.4560 H   0  0  0  0  0  0  0  0  0  0  0  0
   -1.8450   -2.0328   -0.7392 H   0  0  0  0  0  0  0  0  0  0  0  0
   -2.5434   -0.4587   -1.2912 H   0  0  0  0  0  0  0  0  0  0  0  0
   -1.6693    1.4094    0.7240 H   0  0  0  0  0  0  0  0  0  0  0  0
   -0.7808    0.4036    1.9026 H   0  0  0  0  0  0  0  0  0  0  0  0
    1.1495    1.6843    1.4088 H   0  0  0  0  0  0  0  0  0  0  0  0
    0.1865    2.6422    0.2694 H   0  0  0  0  0  0  0  0  0  0  0  0
    1.7356    1.5304   -1.2385 H   0  0  0  0  0  0  0  0  0  0  0  0
   -0.8009    1.3674   -1.5154 H   0  0  0  0  0  0  0  0  0  0  0  0
   -0.0001   -0.1442   -2.2246 H   0  0  0  0  0  0  0  0  0  0  0  0
    2.4578   -0.8964   -0.8038 H   0  0  0  0  0  0  0  0  0  0  0  0
    2.0302   -1.7940    1.4754 H   0  0  0  0  0  0  0  0  0  0  0  0
    1.1430   -0.2680    2.0008 H   0  0  0  0  0  0  0  0  0  0  0  0
    0.3451   -2.2697   -0.2905 H   0  0  0  0  0  0  0  0  0  0  0  0
  1  2  1  0
  2  3  1  0
  3  4  1  0
  4  5  1  0
  5  6  1  0
  5  7  1  0
  7  8  1  0
  8  9  1  0
  6  2  1  0
  9  7  1  0
  9  2  1  0
  1 10  1  0
  1 11  1  0
  1 12  1  0
  3 13  1  0
  3 14  1  0
  4 15  1  0
  4 16  1  0
  5 17  1  0
  6 18  1  0
  6 19  1  0
  7 20  1  0
  8 21  1  0
  8 22  1  0
  9 23  1  0
M  END
