
     RDKit          3D

 21 23  0  0  0  0  0  0  0  0999 V2000
    1.7528   -0.8979    0.5621 C   0  0  0  0  0  0  0  0  0  0  0  0
    0.8556    0.1866    0.2076 C   0  0  0  0  0  0  0  0  0  0  0  0
    1.2951    1.4843    0.1551 O   0  0  0  0  0  0  0  0  0  0  0  0
    0.1145    2.2032   -0.1712 C   0  0  0  0  0  0  0  0  0  0  0  0
   -0.8401    1.0696   -0.3529 C   0  0  0  0  0  0  0  0  0  0  0  0
    0.0166    0.0439   -1.0593 C   0  0  0  0  0  0  0  0  0  0  0  0
   -0.7560   -1.2341   -0.8981 C   0  0  0  0  0  0  0  0  0  0  0  0
   -1.1930   -1.0644    0.5697 C   0  0  0  0  0  0  0  0  0  0  0  0
   -0.5196    0.2230    0.8820 C   0  0  0  0  0  0  0  0  0  0  0  0
    2.7989   -0.6130    0.3219 H   0  0  0  0  0  0  0  0  0  0  0  0
    1.7146   -1.1489    1.6618 H   0  0  0  0  0  0  0  0  0  0  0  0
    1.5603   -1.8546    0.0417 H   0  0  0  0  0  0  0  0  0  0  0  0
   -0.1009    2.8107    0.7507 H   0  0  0  0  0  0  0  0  0  0  0  0
    0.2740    2.8234   -1.0561 H   0  0  0  0  0  0  0  0  0  0  0  0
   -1.8443    1.2110   -0.6270 H   0  0  0  0  0  0  0  0  0  0  0  0
    0.4653    0.2898   -1.9903 H   0  0  0  0  0  0  0  0  0  0  0  0
   -0.1738   -2.1396   -1.0502 H   0  0  0  0  0  0  0  0  0  0  0  0
   -1.6384   -1.2689   -1.5389 H   0  0  0  0  0  0  0  0  0  0  0  0
   -2.3017   -0.8870    0.5838 H   0  0  0  0  0  0  0  0  0  0  0  0
   -0.8849   -1.9194    1.1751 H   0  0  0  0  0  0  0  0  0  0  0  0
   -0.5950    0.6824    1.8327 H   0  0  0  0  0  0  0  0  0  0  0  0
  1  2  1  0
  2  3  1  0
  3  4  1  0
  4  5  1  0
  5  6  1  0
  6  7  1  0
  7  8  1  0
  8  9  1  0
  6  2  1  0
  9  2  1  0
  9  5  1  0
  1 10  1  0
  1 11  1  0
  1 12  1  0
  4 13  1  0
  4 14  1  0
  5 15  1  0
  6 16  1  0
  7 17  1  0
  7 18  1  0
  8 19  1  0
  8 20  1  0
  9 21  1  0
M  END
