
     RDKit          3D

 21 23  0  0  0  0  0  0  0  0999 V2000
    2.3171   -0.2690    0.4767 C   0  0  0  0  0  0  0  0  0  0  0  0
    0.8912   -0.1808    0.1995 C   0  0  0  0  0  0  0  0  0  0  0  0
    0.2465    1.1669    0.4729 C   0  0  0  0  0  0  0  0  0  0  0  0
   -1.1507    0.9437   -0.1183 C   0  0  0  0  0  0  0  0  0  0  0  0
   -1.9517   -0.0062    0.7849 C   0  0  0  0  0  0  0  0  0  0  0  0
   -1.1396   -1.1203    0.1351 C   0  0  0  0  0  0  0  0  0  0  0  0
    0.1048   -1.2063    0.7418 O   0  0  0  0  0  0  0  0  0  0  0  0
   -0.9871   -0.1946   -1.0569 C   0  0  0  0  0  0  0  0  0  0  0  0
    0.5235   -0.3296   -1.2880 C   0  0  0  0  0  0  0  0  0  0  0  0
    2.9626   -0.6704   -0.3268 H   0  0  0  0  0  0  0  0  0  0  0  0
    2.4840   -0.9537    1.3571 H   0  0  0  0  0  0  0  0  0  0  0  0
    2.6913    0.7307    0.8429 H   0  0  0  0  0  0  0  0  0  0  0  0
    0.2200    1.4361    1.5242 H   0  0  0  0  0  0  0  0  0  0  0  0
    0.7343    1.9020   -0.1930 H   0  0  0  0  0  0  0  0  0  0  0  0
   -1.6738    1.8340   -0.4409 H   0  0  0  0  0  0  0  0  0  0  0  0
   -3.0164    0.0078    0.5229 H   0  0  0  0  0  0  0  0  0  0  0  0
   -1.6844    0.0896    1.8358 H   0  0  0  0  0  0  0  0  0  0  0  0
   -1.6673   -2.0417   -0.0725 H   0  0  0  0  0  0  0  0  0  0  0  0
   -1.6269   -0.3256   -1.8932 H   0  0  0  0  0  0  0  0  0  0  0  0
    0.9266    0.5118   -1.8525 H   0  0  0  0  0  0  0  0  0  0  0  0
    0.7960   -1.3243   -1.6516 H   0  0  0  0  0  0  0  0  0  0  0  0
  1  2  1  0
  2  3  1  0
  3  4  1  0
  4  5  1  0
  5  6  1  0
  6  7  1  0
  6  8  1  0
  8  9  1  0
  7  2  1  0
  9  2  1  0
  8  4  1  0
  1 10  1  0
  1 11  1  0
  1 12  1  0
  3 13  1  0
  3 14  1  0
  4 15  1  0
  5 16  1  0
  5 17  1  0
  6 18  1  0
  8 19  1  0
  9 20  1  0
  9 21  1  0
M  END
