
     RDKit          3D

 21 23  0  0  0  0  0  0  0  0999 V2000
   -1.4825   -0.2153    1.2008 C   0  0  0  0  0  0  0  0  0  0  0  0
   -1.1650    0.3581   -0.1438 C   0  0  0  0  0  0  0  0  0  0  0  0
   -2.2077    0.5884   -1.1674 C   0  0  0  0  0  0  0  0  0  0  0  0
   -1.4126   -0.6406   -1.3226 C   0  0  0  0  0  0  0  0  0  0  0  0
   -0.0428   -0.6341   -1.4814 O   0  0  0  0  0  0  0  0  0  0  0  0
    0.2493    0.4169   -0.6444 C   0  0  0  0  0  0  0  0  0  0  0  0
    1.2399    0.1756    0.4451 C   0  0  0  0  0  0  0  0  0  0  0  0
    2.7201    0.1969    0.1256 C   0  0  0  0  0  0  0  0  0  0  0  0
    2.0235   -1.0554    0.5741 C   0  0  0  0  0  0  0  0  0  0  0  0
   -0.9257    0.2382    2.0351 H   0  0  0  0  0  0  0  0  0  0  0  0
   -1.3684   -1.3180    1.1731 H   0  0  0  0  0  0  0  0  0  0  0  0
   -2.5667    0.0152    1.4047 H   0  0  0  0  0  0  0  0  0  0  0  0
   -2.0221    1.4858   -1.8256 H   0  0  0  0  0  0  0  0  0  0  0  0
   -3.2516    0.4724   -0.8785 H   0  0  0  0  0  0  0  0  0  0  0  0
   -1.8774   -1.5919   -1.0745 H   0  0  0  0  0  0  0  0  0  0  0  0
    0.4118    1.4015   -1.1607 H   0  0  0  0  0  0  0  0  0  0  0  0
    0.9660    0.6815    1.4146 H   0  0  0  0  0  0  0  0  0  0  0  0
    3.0338    0.2175   -0.9439 H   0  0  0  0  0  0  0  0  0  0  0  0
    3.3750    0.7605    0.8033 H   0  0  0  0  0  0  0  0  0  0  0  0
    1.9856   -1.8921   -0.1401 H   0  0  0  0  0  0  0  0  0  0  0  0
    2.3174   -1.4034    1.6064 H   0  0  0  0  0  0  0  0  0  0  0  0
  1  2  1  0
  2  3  1  0
  3  4  1  0
  4  5  1  0
  5  6  1  0
  6  7  1  0
  7  8  1  0
  8  9  1  0
  4  2  1  0
  9  7  1  0
  6  2  1  0
  1 10  1  0
  1 11  1  0
  1 12  1  0
  3 13  1  0
  3 14  1  0
  4 15  1  0
  6 16  1  0
  7 17  1  0
  8 18  1  0
  8 19  1  0
  9 20  1  0
  9 21  1  0
M  END
