
     RDKit          3D

 21 22  0  0  0  0  0  0  0  0999 V2000
    2.3193   -0.6616    0.2546 C   0  0  0  0  0  0  0  0  0  0  0  0
    1.0013   -0.1043    0.0888 C   0  0  0  0  0  0  0  0  0  0  0  0
    0.8001    1.2919   -0.4145 C   0  0  0  0  0  0  0  0  0  0  0  0
   -0.7423    1.3285   -0.3955 C   0  0  0  0  0  0  0  0  0  0  0  0
   -0.9964   -0.0622    0.1104 C   0  0  0  0  0  0  0  0  0  0  0  0
   -2.3444   -0.5479    0.2919 C   0  0  0  0  0  0  0  0  0  0  0  0
   -0.0273   -0.8682   -0.7449 C   0  0  0  0  0  0  0  0  0  0  0  0
    0.0040   -0.1903    1.1857 C   0  0  0  0  0  0  0  0  0  0  0  0
    0.0546   -0.3082    2.3710 O   0  0  0  0  0  0  0  0  0  0  0  0
    2.3907   -1.2124    1.2339 H   0  0  0  0  0  0  0  0  0  0  0  0
    3.0902    0.1291    0.2816 H   0  0  0  0  0  0  0  0  0  0  0  0
    2.5516   -1.4419   -0.5182 H   0  0  0  0  0  0  0  0  0  0  0  0
    1.2153    2.0762    0.2143 H   0  0  0  0  0  0  0  0  0  0  0  0
    1.1215    1.4506   -1.4544 H   0  0  0  0  0  0  0  0  0  0  0  0
   -1.1336    1.4999   -1.4122 H   0  0  0  0  0  0  0  0  0  0  0  0
   -1.0982    2.1229    0.2664 H   0  0  0  0  0  0  0  0  0  0  0  0
   -2.7186   -0.3233    1.3084 H   0  0  0  0  0  0  0  0  0  0  0  0
   -3.0407   -0.0828   -0.4190 H   0  0  0  0  0  0  0  0  0  0  0  0
   -2.3834   -1.6493    0.1352 H   0  0  0  0  0  0  0  0  0  0  0  0
   -0.0442   -1.9473   -0.5941 H   0  0  0  0  0  0  0  0  0  0  0  0
   -0.0195   -0.4995   -1.7895 H   0  0  0  0  0  0  0  0  0  0  0  0
  1  2  1  0
  2  3  1  0
  3  4  1  0
  4  5  1  0
  5  6  1  0
  5  7  1  0
  5  8  1  0
  8  9  2  0
  7  2  1  0
  8  2  1  0
  1 10  1  0
  1 11  1  0
  1 12  1  0
  3 13  1  0
  3 14  1  0
  4 15  1  0
  4 16  1  0
  6 17  1  0
  6 18  1  0
  6 19  1  0
  7 20  1  0
  7 21  1  0
M  END
