
     RDKit          3D

 17 19  0  0  0  0  0  0  0  0999 V2000
    2.1264    0.0747    0.1028 C   0  0  0  0  0  0  0  0  0  0  0  0
    0.6479    0.1282    0.2086 C   0  0  0  0  0  0  0  0  0  0  0  0
    0.1219    1.4085    0.3370 O   0  0  0  0  0  0  0  0  0  0  0  0
   -1.2311    1.3490    0.1159 C   0  0  0  0  0  0  0  0  0  0  0  0
   -1.4952    0.0649   -0.6836 C   0  0  0  0  0  0  0  0  0  0  0  0
   -0.9835   -1.1545    0.0095 C   0  0  0  0  0  0  0  0  0  0  0  0
    0.0100   -0.8904    1.0878 C   0  0  0  0  0  0  0  0  0  0  0  0
    0.1790   -1.3397    2.1860 O   0  0  0  0  0  0  0  0  0  0  0  0
   -0.1441   -0.4288   -0.9342 C   0  0  0  0  0  0  0  0  0  0  0  0
    2.4713   -0.8432   -0.4211 H   0  0  0  0  0  0  0  0  0  0  0  0
    2.4752    0.9747   -0.4323 H   0  0  0  0  0  0  0  0  0  0  0  0
    2.5689    0.1466    1.1336 H   0  0  0  0  0  0  0  0  0  0  0  0
   -1.7204    1.1611    1.1149 H   0  0  0  0  0  0  0  0  0  0  0  0
   -1.6467    2.2281   -0.3762 H   0  0  0  0  0  0  0  0  0  0  0  0
   -2.2724    0.0451   -1.4335 H   0  0  0  0  0  0  0  0  0  0  0  0
   -1.3808   -2.1492   -0.1637 H   0  0  0  0  0  0  0  0  0  0  0  0
    0.2735   -0.7753   -1.8516 H   0  0  0  0  0  0  0  0  0  0  0  0
  1  2  1  0
  2  3  1  0
  3  4  1  0
  4  5  1  0
  5  6  1  0
  6  7  1  0
  7  8  2  0
  6  9  1  0
  7  2  1  0
  9  2  1  0
  9  5  1  0
  1 10  1  0
  1 11  1  0
  1 12  1  0
  4 13  1  0
  4 14  1  0
  5 15  1  0
  6 16  1  0
  9 17  1  0
M  END
