
     RDKit          3D

 19 20  0  0  0  0  0  0  0  0999 V2000
    2.0434   -0.7421   -0.0495 C   0  0  0  0  0  0  0  0  0  0  0  0
    0.6285   -0.4317    0.0006 C   0  0  0  0  0  0  0  0  0  0  0  0
   -0.2238   -0.6643   -1.2278 C   0  0  0  0  0  0  0  0  0  0  0  0
   -1.2479   -0.8000   -0.1191 C   0  0  0  0  0  0  0  0  0  0  0  0
   -0.2331   -1.3442    0.6531 O   0  0  0  0  0  0  0  0  0  0  0  0
   -1.3544    0.6422    0.3371 C   0  0  0  0  0  0  0  0  0  0  0  0
   -2.0614    0.7990    1.4986 O   0  0  0  0  0  0  0  0  0  0  0  0
    0.1562    0.8715    0.5691 C   0  0  0  0  0  0  0  0  0  0  0  0
    0.5055    1.9723   -0.1676 O   0  0  0  0  0  0  0  0  0  0  0  0
    2.1873   -1.8417    0.1617 H   0  0  0  0  0  0  0  0  0  0  0  0
    2.6020   -0.2035    0.7252 H   0  0  0  0  0  0  0  0  0  0  0  0
    2.4479   -0.5890   -1.0676 H   0  0  0  0  0  0  0  0  0  0  0  0
    0.0568   -1.5776   -1.7406 H   0  0  0  0  0  0  0  0  0  0  0  0
   -0.4021    0.2417   -1.8193 H   0  0  0  0  0  0  0  0  0  0  0  0
   -2.1358   -1.3517   -0.3018 H   0  0  0  0  0  0  0  0  0  0  0  0
   -1.7139    1.2296   -0.5109 H   0  0  0  0  0  0  0  0  0  0  0  0
   -2.9586    0.4495    1.3770 H   0  0  0  0  0  0  0  0  0  0  0  0
    0.3292    0.9784    1.6557 H   0  0  0  0  0  0  0  0  0  0  0  0
    1.3742    2.3619    0.0259 H   0  0  0  0  0  0  0  0  0  0  0  0
  1  2  1  0
  2  3  1  0
  3  4  1  0
  4  5  1  0
  4  6  1  0
  6  7  1  0
  6  8  1  0
  8  9  1  0
  5  2  1  0
  8  2  1  0
  1 10  1  0
  1 11  1  0
  1 12  1  0
  3 13  1  0
  3 14  1  0
  4 15  1  0
  6 16  1  0
  7 17  1  0
  8 18  1  0
  9 19  1  0
M  END
