
     RDKit          3D

 18 19  0  0  0  0  0  0  0  0999 V2000
    1.9738    0.0940    0.2318 C   0  0  0  0  0  0  0  0  0  0  0  0
    0.5128    0.1826   -0.1302 C   0  0  0  0  0  0  0  0  0  0  0  0
    0.0200   -0.7962   -1.1486 C   0  0  0  0  0  0  0  0  0  0  0  0
   -0.8382   -1.6747   -0.5095 O   0  0  0  0  0  0  0  0  0  0  0  0
   -1.4776   -0.9040    0.4782 C   0  0  0  0  0  0  0  0  0  0  0  0
   -0.4351    0.0337    1.0034 C   0  0  0  0  0  0  0  0  0  0  0  0
   -0.2601    1.3748    0.2598 C   0  0  0  0  0  0  0  0  0  0  0  0
   -1.3901    1.7736   -0.4081 O   0  0  0  0  0  0  0  0  0  0  0  0
    2.0750   -0.7817    0.9303 H   0  0  0  0  0  0  0  0  0  0  0  0
    2.5553   -0.0776   -0.7066 H   0  0  0  0  0  0  0  0  0  0  0  0
    2.3348    0.9683    0.7901 H   0  0  0  0  0  0  0  0  0  0  0  0
    0.8755   -1.4102   -1.5370 H   0  0  0  0  0  0  0  0  0  0  0  0
   -0.4355   -0.3295   -2.0412 H   0  0  0  0  0  0  0  0  0  0  0  0
   -1.8360   -1.5769    1.2697 H   0  0  0  0  0  0  0  0  0  0  0  0
   -2.3080   -0.3720   -0.0458 H   0  0  0  0  0  0  0  0  0  0  0  0
   -0.0967   -0.0116    2.0455 H   0  0  0  0  0  0  0  0  0  0  0  0
    0.2748    2.1703    0.7900 H   0  0  0  0  0  0  0  0  0  0  0  0
   -1.5447    1.3370   -1.2720 H   0  0  0  0  0  0  0  0  0  0  0  0
  1  2  1  0
  2  3  1  0
  3  4  1  0
  4  5  1  0
  5  6  1  0
  6  7  1  0
  7  8  1  0
  6  2  1  0
  7  2  1  0
  1  9  1  0
  1 10  1  0
  1 11  1  0
  3 12  1  0
  3 13  1  0
  5 14  1  0
  5 15  1  0
  6 16  1  0
  7 17  1  0
  8 18  1  0
M  END
