
     RDKit          3D

 17 19  0  0  0  0  0  0  0  0999 V2000
   -2.1698    0.0677    0.0768 C   0  0  0  0  0  0  0  0  0  0  0  0
   -0.7261    0.2517   -0.0703 C   0  0  0  0  0  0  0  0  0  0  0  0
   -0.1876    1.5117   -0.0585 O   0  0  0  0  0  0  0  0  0  0  0  0
    1.1927    1.2698   -0.2637 C   0  0  0  0  0  0  0  0  0  0  0  0
    1.2206   -0.2150   -0.3496 C   0  0  0  0  0  0  0  0  0  0  0  0
    2.3670   -0.8764   -0.5126 O   0  0  0  0  0  0  0  0  0  0  0  0
    0.0030   -0.5642   -1.1055 C   0  0  0  0  0  0  0  0  0  0  0  0
   -0.1660   -1.6461   -0.2632 O   0  0  0  0  0  0  0  0  0  0  0  0
    0.2069   -0.6760    0.6406 C   0  0  0  0  0  0  0  0  0  0  0  0
   -2.6400    1.0552    0.3411 H   0  0  0  0  0  0  0  0  0  0  0  0
   -2.6469   -0.2474   -0.8840 H   0  0  0  0  0  0  0  0  0  0  0  0
   -2.4717   -0.6390    0.8911 H   0  0  0  0  0  0  0  0  0  0  0  0
    1.8161    1.7183    0.5031 H   0  0  0  0  0  0  0  0  0  0  0  0
    1.4471    1.6684   -1.2857 H   0  0  0  0  0  0  0  0  0  0  0  0
    2.5932   -1.3715    0.3385 H   0  0  0  0  0  0  0  0  0  0  0  0
   -0.1605   -0.5344   -2.1001 H   0  0  0  0  0  0  0  0  0  0  0  0
    0.3219   -0.7729    1.6392 H   0  0  0  0  0  0  0  0  0  0  0  0
  1  2  1  0
  2  3  1  0
  3  4  1  0
  4  5  1  0
  5  6  1  0
  5  7  1  0
  7  8  1  0
  8  9  1  0
  7  2  1  0
  9  2  1  0
  9  5  1  0
  1 10  1  0
  1 11  1  0
  1 12  1  0
  4 13  1  0
  4 14  1  0
  6 15  1  0
  7 16  1  0
  9 17  1  0
M  END
