
     RDKit          3D

 17 18  0  0  0  0  0  0  0  0999 V2000
   -1.0635   -1.5015    0.3517 C   0  0  0  0  0  0  0  0  0  0  0  0
   -0.4640   -0.2405    0.0845 C   0  0  0  0  0  0  0  0  0  0  0  0
   -0.7429    0.9538    0.9412 C   0  0  0  0  0  0  0  0  0  0  0  0
    0.0080    1.8932    0.3629 C   0  0  0  0  0  0  0  0  0  0  0  0
    0.6984    1.1469   -0.7224 C   0  0  0  0  0  0  0  0  0  0  0  0
   -0.4160    0.3448   -1.2721 C   0  0  0  0  0  0  0  0  0  0  0  0
   -0.9787    0.2455   -2.3157 O   0  0  0  0  0  0  0  0  0  0  0  0
    1.0722   -0.1255    0.0316 C   0  0  0  0  0  0  0  0  0  0  0  0
    1.6970   -1.0923   -0.7002 O   0  0  0  0  0  0  0  0  0  0  0  0
   -1.8015   -1.8261   -0.4393 H   0  0  0  0  0  0  0  0  0  0  0  0
   -1.6299   -1.5484    1.3218 H   0  0  0  0  0  0  0  0  0  0  0  0
   -0.3170   -2.3424    0.3816 H   0  0  0  0  0  0  0  0  0  0  0  0
   -1.4001    0.9540    1.7894 H   0  0  0  0  0  0  0  0  0  0  0  0
    0.1138    2.9465    0.5981 H   0  0  0  0  0  0  0  0  0  0  0  0
    1.4038    1.6116   -1.3410 H   0  0  0  0  0  0  0  0  0  0  0  0
    1.4376    0.1079    1.0301 H   0  0  0  0  0  0  0  0  0  0  0  0
    2.3828   -1.5275   -0.1022 H   0  0  0  0  0  0  0  0  0  0  0  0
  1  2  1  0
  2  3  1  0
  3  4  2  0
  4  5  1  0
  5  6  1  0
  6  7  2  0
  5  8  1  0
  8  9  1  0
  6  2  1  0
  8  2  1  0
  1 10  1  0
  1 11  1  0
  1 12  1  0
  3 13  1  0
  4 14  1  0
  5 15  1  0
  8 16  1  0
  9 17  1  0
M  END
