
     RDKit          3D

 19 20  0  0  0  0  0  0  0  0999 V2000
    2.3942    0.9604    0.2751 C   0  0  0  0  0  0  0  0  0  0  0  0
    1.2388    0.2385   -0.3568 C   0  0  0  0  0  0  0  0  0  0  0  0
    1.1946   -1.2252   -0.4857 C   0  0  0  0  0  0  0  0  0  0  0  0
    0.2681   -0.5386    0.4325 C   0  0  0  0  0  0  0  0  0  0  0  0
   -0.6363    0.5743   -0.0214 C   0  0  0  0  0  0  0  0  0  0  0  0
   -1.9642    0.1306   -0.5957 C   0  0  0  0  0  0  0  0  0  0  0  0
   -2.7643   -0.6405    0.3841 C   0  0  0  0  0  0  0  0  0  0  0  0
   -2.3472   -0.8675    1.5291 O   0  0  0  0  0  0  0  0  0  0  0  0
    0.2793    0.9991   -0.9658 O   0  0  0  0  0  0  0  0  0  0  0  0
    3.2235    0.2861    0.5620 H   0  0  0  0  0  0  0  0  0  0  0  0
    2.7395    1.7298   -0.4404 H   0  0  0  0  0  0  0  0  0  0  0  0
    2.0942    1.4950    1.2138 H   0  0  0  0  0  0  0  0  0  0  0  0
    2.0231   -1.7894   -0.0308 H   0  0  0  0  0  0  0  0  0  0  0  0
    0.8301   -1.6213   -1.4595 H   0  0  0  0  0  0  0  0  0  0  0  0
    0.3786   -0.7286    1.5083 H   0  0  0  0  0  0  0  0  0  0  0  0
   -0.8219    1.3649    0.7353 H   0  0  0  0  0  0  0  0  0  0  0  0
   -1.8614   -0.4278   -1.5291 H   0  0  0  0  0  0  0  0  0  0  0  0
   -2.5342    1.0642   -0.8229 H   0  0  0  0  0  0  0  0  0  0  0  0
   -3.7345   -1.0041    0.0679 H   0  0  0  0  0  0  0  0  0  0  0  0
  1  2  1  0
  2  3  1  0
  3  4  1  0
  4  5  1  0
  5  6  1  0
  6  7  1  0
  7  8  2  0
  5  9  1  0
  4  2  1  0
  9  2  1  0
  1 10  1  0
  1 11  1  0
  1 12  1  0
  3 13  1  0
  3 14  1  0
  4 15  1  0
  5 16  1  0
  6 17  1  0
  6 18  1  0
  7 19  1  0
M  END
