
     RDKit          3D

 21 22  0  0  0  0  0  0  0  0999 V2000
    2.0290    0.5171    0.0796 C   0  0  0  0  0  0  0  0  0  0  0  0
    0.8558   -0.2318   -0.2688 C   0  0  0  0  0  0  0  0  0  0  0  0
    0.6858   -1.6334    0.2810 C   0  0  0  0  0  0  0  0  0  0  0  0
   -0.4615   -1.9789   -0.3075 C   0  0  0  0  0  0  0  0  0  0  0  0
   -0.7513   -0.7570   -1.1136 C   0  0  0  0  0  0  0  0  0  0  0  0
    0.5125   -0.4259   -1.6175 O   0  0  0  0  0  0  0  0  0  0  0  0
   -0.5209    0.3222   -0.0848 C   0  0  0  0  0  0  0  0  0  0  0  0
   -0.7789    1.7035   -0.5664 C   0  0  0  0  0  0  0  0  0  0  0  0
   -1.0919    0.0274    1.2633 C   0  0  0  0  0  0  0  0  0  0  0  0
    2.6366   -0.0306    0.8592 H   0  0  0  0  0  0  0  0  0  0  0  0
    2.7726    0.7168   -0.7416 H   0  0  0  0  0  0  0  0  0  0  0  0
    1.8216    1.5088    0.5342 H   0  0  0  0  0  0  0  0  0  0  0  0
    1.3284   -2.1814    0.9603 H   0  0  0  0  0  0  0  0  0  0  0  0
   -1.0652   -2.8702   -0.2609 H   0  0  0  0  0  0  0  0  0  0  0  0
   -1.5941   -0.7263   -1.7434 H   0  0  0  0  0  0  0  0  0  0  0  0
   -0.3757    2.4385    0.1526 H   0  0  0  0  0  0  0  0  0  0  0  0
   -0.4444    1.8805   -1.5889 H   0  0  0  0  0  0  0  0  0  0  0  0
   -1.8943    1.8555   -0.5706 H   0  0  0  0  0  0  0  0  0  0  0  0
   -1.0079    0.9504    1.8792 H   0  0  0  0  0  0  0  0  0  0  0  0
   -0.5097   -0.7890    1.7359 H   0  0  0  0  0  0  0  0  0  0  0  0
   -2.1467   -0.2964    1.1187 H   0  0  0  0  0  0  0  0  0  0  0  0
  1  2  1  0
  2  3  1  0
  3  4  2  0
  4  5  1  0
  5  6  1  0
  5  7  1  0
  7  8  1  0
  7  9  1  0
  6  2  1  0
  7  2  1  0
  1 10  1  0
  1 11  1  0
  1 12  1  0
  3 13  1  0
  4 14  1  0
  5 15  1  0
  8 16  1  0
  8 17  1  0
  8 18  1  0
  9 19  1  0
  9 20  1  0
  9 21  1  0
M  END
