
     RDKit          3D

 21 23  0  0  0  0  0  0  0  0999 V2000
   -0.4515   -2.0111   -0.3736 C   0  0  0  0  0  0  0  0  0  0  0  0
   -0.0071   -0.6512   -0.1642 C   0  0  0  0  0  0  0  0  0  0  0  0
    0.9697   -0.0226   -1.1322 C   0  0  0  0  0  0  0  0  0  0  0  0
    1.2843    0.8850    0.0637 C   0  0  0  0  0  0  0  0  0  0  0  0
    1.1008   -0.4084    0.8752 C   0  0  0  0  0  0  0  0  0  0  0  0
    0.0287    1.6129    0.3640 C   0  0  0  0  0  0  0  0  0  0  0  0
   -1.1249    1.6654   -0.5442 C   0  0  0  0  0  0  0  0  0  0  0  0
   -0.9861    0.4221    0.2196 C   0  0  0  0  0  0  0  0  0  0  0  0
   -1.8025    0.1860    1.2950 O   0  0  0  0  0  0  0  0  0  0  0  0
   -0.2552   -2.6833    0.4937 H   0  0  0  0  0  0  0  0  0  0  0  0
   -0.0043   -2.4269   -1.3189 H   0  0  0  0  0  0  0  0  0  0  0  0
   -1.5608   -2.0374   -0.5492 H   0  0  0  0  0  0  0  0  0  0  0  0
    1.7967   -0.7066   -1.3467 H   0  0  0  0  0  0  0  0  0  0  0  0
    0.5701    0.4655   -2.0066 H   0  0  0  0  0  0  0  0  0  0  0  0
    2.2340    1.3509    0.0953 H   0  0  0  0  0  0  0  0  0  0  0  0
    0.7444   -0.2603    1.8899 H   0  0  0  0  0  0  0  0  0  0  0  0
    1.9417   -1.0830    0.6987 H   0  0  0  0  0  0  0  0  0  0  0  0
    0.0000    2.1512    1.3213 H   0  0  0  0  0  0  0  0  0  0  0  0
   -1.0468    1.6496   -1.6421 H   0  0  0  0  0  0  0  0  0  0  0  0
   -1.9595    2.3347   -0.2015 H   0  0  0  0  0  0  0  0  0  0  0  0
   -1.4717   -0.4324    1.9627 H   0  0  0  0  0  0  0  0  0  0  0  0
  1  2  1  0
  2  3  1  0
  3  4  1  0
  4  5  1  0
  4  6  1  0
  6  7  1  0
  7  8  1  0
  8  9  1  0
  5  2  1  0
  8  6  1  0
  8  2  1  0
  1 10  1  0
  1 11  1  0
  1 12  1  0
  3 13  1  0
  3 14  1  0
  4 15  1  0
  5 16  1  0
  5 17  1  0
  6 18  1  0
  7 19  1  0
  7 20  1  0
  9 21  1  0
M  END
