
     RDKit          3D

 17 18  0  0  0  0  0  0  0  0999 V2000
    2.1454    0.3842    0.1662 C   0  0  0  0  0  0  0  0  0  0  0  0
    0.6896    0.3021    0.2098 C   0  0  0  0  0  0  0  0  0  0  0  0
    0.1108   -0.9370   -0.5010 C   0  0  0  0  0  0  0  0  0  0  0  0
   -1.3317   -0.5341   -0.1301 C   0  0  0  0  0  0  0  0  0  0  0  0
   -1.2967    0.8680   -0.6928 C   0  0  0  0  0  0  0  0  0  0  0  0
   -0.0098    1.3326   -0.3514 O   0  0  0  0  0  0  0  0  0  0  0  0
   -1.1595   -0.4038    1.3261 C   0  0  0  0  0  0  0  0  0  0  0  0
   -2.0319   -0.6767    2.1782 O   0  0  0  0  0  0  0  0  0  0  0  0
    0.1340    0.0690    1.5136 O   0  0  0  0  0  0  0  0  0  0  0  0
    2.5116    0.0693   -0.8388 H   0  0  0  0  0  0  0  0  0  0  0  0
    2.6130   -0.2883    0.9067 H   0  0  0  0  0  0  0  0  0  0  0  0
    2.4909    1.4036    0.3269 H   0  0  0  0  0  0  0  0  0  0  0  0
    0.3569   -1.8578    0.0190 H   0  0  0  0  0  0  0  0  0  0  0  0
    0.2789   -0.9136   -1.5712 H   0  0  0  0  0  0  0  0  0  0  0  0
   -2.0792   -1.1849   -0.4923 H   0  0  0  0  0  0  0  0  0  0  0  0
   -2.0902    1.4905   -0.2665 H   0  0  0  0  0  0  0  0  0  0  0  0
   -1.3322    0.8771   -1.8023 H   0  0  0  0  0  0  0  0  0  0  0  0
  1  2  1  0
  2  3  1  0
  3  4  1  0
  4  5  1  0
  5  6  1  0
  4  7  1  0
  7  8  2  0
  7  9  1  0
  6  2  1  0
  9  2  1  0
  1 10  1  0
  1 11  1  0
  1 12  1  0
  3 13  1  0
  3 14  1  0
  4 15  1  0
  5 16  1  0
  5 17  1  0
M  END
