
     RDKit          3D

 17 18  0  0  0  0  0  0  0  0999 V2000
   -0.9959   -1.1534   -0.7349 C   0  0  0  0  0  0  0  0  0  0  0  0
   -0.6144   -0.0250    0.2015 C   0  0  0  0  0  0  0  0  0  0  0  0
   -1.3465    1.2331    0.0509 C   0  0  0  0  0  0  0  0  0  0  0  0
    0.0451    1.2224   -0.4457 C   0  0  0  0  0  0  0  0  0  0  0  0
    1.0759    1.2513    0.6185 C   0  0  0  0  0  0  0  0  0  0  0  0
    1.8574    2.1046    0.9614 O   0  0  0  0  0  0  0  0  0  0  0  0
    0.6777   -0.1249    0.9693 C   0  0  0  0  0  0  0  0  0  0  0  0
    1.6377   -1.0980    0.3340 C   0  0  0  0  0  0  0  0  0  0  0  0
    1.3558   -2.2838    0.2658 O   0  0  0  0  0  0  0  0  0  0  0  0
   -2.0887   -1.0245   -0.9862 H   0  0  0  0  0  0  0  0  0  0  0  0
   -0.9258   -2.1383   -0.2376 H   0  0  0  0  0  0  0  0  0  0  0  0
   -0.4115   -1.1189   -1.6812 H   0  0  0  0  0  0  0  0  0  0  0  0
   -1.5333    1.9285    0.9131 H   0  0  0  0  0  0  0  0  0  0  0  0
   -2.1326    1.2823   -0.7080 H   0  0  0  0  0  0  0  0  0  0  0  0
    0.3161    1.0673   -1.4884 H   0  0  0  0  0  0  0  0  0  0  0  0
    0.4962   -0.3292    2.0422 H   0  0  0  0  0  0  0  0  0  0  0  0
    2.5869   -0.7936   -0.0748 H   0  0  0  0  0  0  0  0  0  0  0  0
  1  2  1  0
  2  3  1  0
  3  4  1  0
  4  5  1  0
  5  6  2  0
  5  7  1  0
  7  8  1  0
  8  9  2  0
  4  2  1  0
  7  2  1  0
  1 10  1  0
  1 11  1  0
  1 12  1  0
  3 13  1  0
  3 14  1  0
  4 15  1  0
  7 16  1  0
  8 17  1  0
M  END
