
     RDKit          3D

 19 21  0  0  0  0  0  0  0  0999 V2000
    2.4025   -0.1658    0.4208 C   0  0  0  0  0  0  0  0  0  0  0  0
    0.9870    0.0176    0.0413 C   0  0  0  0  0  0  0  0  0  0  0  0
    0.5517    1.2273   -0.7419 C   0  0  0  0  0  0  0  0  0  0  0  0
   -0.7604    1.3706   -0.5810 C   0  0  0  0  0  0  0  0  0  0  0  0
   -1.3143    0.3039    0.2986 C   0  0  0  0  0  0  0  0  0  0  0  0
   -2.3830    0.6456    1.0774 O   0  0  0  0  0  0  0  0  0  0  0  0
   -1.3555   -1.0105   -0.4104 C   0  0  0  0  0  0  0  0  0  0  0  0
    0.1166   -1.1753   -0.1180 C   0  0  0  0  0  0  0  0  0  0  0  0
   -0.0794   -0.1568    1.0028 C   0  0  0  0  0  0  0  0  0  0  0  0
    2.9614    0.7804    0.2431 H   0  0  0  0  0  0  0  0  0  0  0  0
    2.8519   -1.0053   -0.1185 H   0  0  0  0  0  0  0  0  0  0  0  0
    2.5406   -0.3825    1.5193 H   0  0  0  0  0  0  0  0  0  0  0  0
    1.1461    1.8947   -1.3418 H   0  0  0  0  0  0  0  0  0  0  0  0
   -1.3781    2.1470   -1.0159 H   0  0  0  0  0  0  0  0  0  0  0  0
   -3.1368    0.9141    0.5331 H   0  0  0  0  0  0  0  0  0  0  0  0
   -1.6411   -1.0161   -1.4620 H   0  0  0  0  0  0  0  0  0  0  0  0
   -1.9375   -1.7687    0.1793 H   0  0  0  0  0  0  0  0  0  0  0  0
    0.4569   -2.1767    0.1516 H   0  0  0  0  0  0  0  0  0  0  0  0
   -0.0287   -0.4434    2.0278 H   0  0  0  0  0  0  0  0  0  0  0  0
  1  2  1  0
  2  3  1  0
  3  4  2  0
  4  5  1  0
  5  6  1  0
  5  7  1  0
  7  8  1  0
  8  9  1  0
  8  2  1  0
  9  2  1  0
  9  5  1  0
  1 10  1  0
  1 11  1  0
  1 12  1  0
  3 13  1  0
  4 14  1  0
  6 15  1  0
  7 16  1  0
  7 17  1  0
  8 18  1  0
  9 19  1  0
M  END
