
     RDKit          3D

 17 19  0  0  0  0  0  0  0  0999 V2000
    1.8392   -0.8080   -0.4545 C   0  0  0  0  0  0  0  0  0  0  0  0
    0.7839    0.2162   -0.5688 C   0  0  0  0  0  0  0  0  0  0  0  0
    1.0272    1.5364   -0.8139 O   0  0  0  0  0  0  0  0  0  0  0  0
    0.4228    1.1057    0.3942 C   0  0  0  0  0  0  0  0  0  0  0  0
   -1.0078    0.6681    0.3651 C   0  0  0  0  0  0  0  0  0  0  0  0
   -1.9451    1.6634    0.2948 O   0  0  0  0  0  0  0  0  0  0  0  0
   -1.3825   -0.7622    0.3570 C   0  0  0  0  0  0  0  0  0  0  0  0
   -0.7227   -1.7155    1.0869 O   0  0  0  0  0  0  0  0  0  0  0  0
   -0.6725   -0.1957   -0.8044 C   0  0  0  0  0  0  0  0  0  0  0  0
    1.5706   -1.6940   -1.0426 H   0  0  0  0  0  0  0  0  0  0  0  0
    1.9526   -1.1227    0.6169 H   0  0  0  0  0  0  0  0  0  0  0  0
    2.7916   -0.4204   -0.8197 H   0  0  0  0  0  0  0  0  0  0  0  0
    0.8736    1.5688    1.2623 H   0  0  0  0  0  0  0  0  0  0  0  0
   -1.5674    2.4054   -0.2444 H   0  0  0  0  0  0  0  0  0  0  0  0
   -2.4609   -0.9688    0.2010 H   0  0  0  0  0  0  0  0  0  0  0  0
   -0.3841   -1.4372    1.9542 H   0  0  0  0  0  0  0  0  0  0  0  0
   -1.1185   -0.0396   -1.7842 H   0  0  0  0  0  0  0  0  0  0  0  0
  1  2  1  0
  2  3  1  0
  3  4  1  0
  4  5  1  0
  5  6  1  0
  5  7  1  0
  7  8  1  0
  7  9  1  0
  4  2  1  0
  9  5  1  0
  9  2  1  0
  1 10  1  0
  1 11  1  0
  1 12  1  0
  4 13  1  0
  6 14  1  0
  7 15  1  0
  8 16  1  0
  9 17  1  0
M  END
