
     RDKit          3D

 23 24  0  0  0  0  0  0  0  0999 V2000
    2.2777   -0.1410   -0.5962 C   0  0  0  0  0  0  0  0  0  0  0  0
    0.8773   -0.0792   -0.0962 C   0  0  0  0  0  0  0  0  0  0  0  0
    0.7180   -0.2400    1.3456 C   0  0  0  0  0  0  0  0  0  0  0  0
   -0.4997   -0.7048    1.5857 C   0  0  0  0  0  0  0  0  0  0  0  0
   -1.1875   -1.0466    0.2954 C   0  0  0  0  0  0  0  0  0  0  0  0
   -1.9351    0.1952   -0.1403 C   0  0  0  0  0  0  0  0  0  0  0  0
   -1.0491    1.3858    0.1549 C   0  0  0  0  0  0  0  0  0  0  0  0
    0.2392    1.1756   -0.6438 C   0  0  0  0  0  0  0  0  0  0  0  0
    0.0308   -1.2485   -0.6163 C   0  0  0  0  0  0  0  0  0  0  0  0
    2.2367   -0.2079   -1.7115 H   0  0  0  0  0  0  0  0  0  0  0  0
    2.8606   -0.9646   -0.1485 H   0  0  0  0  0  0  0  0  0  0  0  0
    2.7772    0.8072   -0.3573 H   0  0  0  0  0  0  0  0  0  0  0  0
    1.4635   -0.0191    2.0970 H   0  0  0  0  0  0  0  0  0  0  0  0
   -0.9421   -0.8243    2.5617 H   0  0  0  0  0  0  0  0  0  0  0  0
   -1.8074   -1.9334    0.3670 H   0  0  0  0  0  0  0  0  0  0  0  0
   -2.8847    0.2393    0.4156 H   0  0  0  0  0  0  0  0  0  0  0  0
   -2.0756    0.1703   -1.2392 H   0  0  0  0  0  0  0  0  0  0  0  0
   -1.4850    2.3337   -0.2053 H   0  0  0  0  0  0  0  0  0  0  0  0
   -0.7516    1.4299    1.2158 H   0  0  0  0  0  0  0  0  0  0  0  0
   -0.0109    0.9846   -1.6955 H   0  0  0  0  0  0  0  0  0  0  0  0
    0.9093    2.0327   -0.5656 H   0  0  0  0  0  0  0  0  0  0  0  0
    0.4571   -2.2183   -0.3529 H   0  0  0  0  0  0  0  0  0  0  0  0
   -0.2187   -1.1266   -1.6701 H   0  0  0  0  0  0  0  0  0  0  0  0
  1  2  1  0
  2  3  1  0
  3  4  2  0
  4  5  1  0
  5  6  1  0
  6  7  1  0
  7  8  1  0
  5  9  1  0
  8  2  1  0
  9  2  1  0
  1 10  1  0
  1 11  1  0
  1 12  1  0
  3 13  1  0
  4 14  1  0
  5 15  1  0
  6 16  1  0
  6 17  1  0
  7 18  1  0
  7 19  1  0
  8 20  1  0
  8 21  1  0
  9 22  1  0
  9 23  1  0
M  END
