
     RDKit          3D

 21 23  0  0  0  0  0  0  0  0999 V2000
    2.1645    0.5222    0.0423 C   0  0  0  0  0  0  0  0  0  0  0  0
    0.7608   -0.0056    0.2225 C   0  0  0  0  0  0  0  0  0  0  0  0
    0.5957   -1.0358    1.2598 C   0  0  0  0  0  0  0  0  0  0  0  0
    0.3528   -1.3380   -0.2007 C   0  0  0  0  0  0  0  0  0  0  0  0
   -1.1317   -1.2813   -0.5626 C   0  0  0  0  0  0  0  0  0  0  0  0
   -1.5022    0.1624   -0.6226 C   0  0  0  0  0  0  0  0  0  0  0  0
   -1.5667    1.0243    0.5761 C   0  0  0  0  0  0  0  0  0  0  0  0
   -0.3192    0.9257   -0.1933 C   0  0  0  0  0  0  0  0  0  0  0  0
    0.0367    2.0244   -0.9603 O   0  0  0  0  0  0  0  0  0  0  0  0
    2.2820    1.3389    0.8146 H   0  0  0  0  0  0  0  0  0  0  0  0
    2.2420    1.0123   -0.9265 H   0  0  0  0  0  0  0  0  0  0  0  0
    2.9442   -0.2293    0.2516 H   0  0  0  0  0  0  0  0  0  0  0  0
   -0.2482   -0.9639    1.9611 H   0  0  0  0  0  0  0  0  0  0  0  0
    1.4877   -1.5077    1.6703 H   0  0  0  0  0  0  0  0  0  0  0  0
    0.9846   -2.0431   -0.7407 H   0  0  0  0  0  0  0  0  0  0  0  0
   -1.3511   -1.7750   -1.5138 H   0  0  0  0  0  0  0  0  0  0  0  0
   -1.6894   -1.7747    0.2614 H   0  0  0  0  0  0  0  0  0  0  0  0
   -2.1124    0.4708   -1.5122 H   0  0  0  0  0  0  0  0  0  0  0  0
   -2.1558    1.9604    0.4801 H   0  0  0  0  0  0  0  0  0  0  0  0
   -1.5412    0.6242    1.6049 H   0  0  0  0  0  0  0  0  0  0  0  0
   -0.2331    1.8889   -1.9119 H   0  0  0  0  0  0  0  0  0  0  0  0
  1  2  1  0
  2  3  1  0
  3  4  1  0
  4  5  1  0
  5  6  1  0
  6  7  1  0
  7  8  1  0
  8  9  1  0
  4  2  1  0
  8  6  1  0
  8  2  1  0
  1 10  1  0
  1 11  1  0
  1 12  1  0
  3 13  1  0
  3 14  1  0
  4 15  1  0
  5 16  1  0
  5 17  1  0
  6 18  1  0
  7 19  1  0
  7 20  1  0
  9 21  1  0
M  END
