
     RDKit          3D

 21 22  0  0  0  0  0  0  0  0999 V2000
   -2.1639    0.9984   -0.4577 C   0  0  0  0  0  0  0  0  0  0  0  0
   -1.0120    0.3168   -0.1782 C   0  0  0  0  0  0  0  0  0  0  0  0
    0.0644   -0.1176   -1.1464 C   0  0  0  0  0  0  0  0  0  0  0  0
    0.5346   -0.6547    0.1827 C   0  0  0  0  0  0  0  0  0  0  0  0
    1.7064   -1.2904    0.4599 C   0  0  0  0  0  0  0  0  0  0  0  0
    2.8401   -0.4870    0.1750 O   0  0  0  0  0  0  0  0  0  0  0  0
   -0.8680   -1.0573    0.4281 C   0  0  0  0  0  0  0  0  0  0  0  0
    0.1204    0.7211    0.7238 C   0  0  0  0  0  0  0  0  0  0  0  0
    0.8429    1.7557    0.1575 O   0  0  0  0  0  0  0  0  0  0  0  0
   -2.1598    1.5401   -1.4502 H   0  0  0  0  0  0  0  0  0  0  0  0
   -3.0822    0.3424   -0.5297 H   0  0  0  0  0  0  0  0  0  0  0  0
   -2.4257    1.7922    0.3038 H   0  0  0  0  0  0  0  0  0  0  0  0
    0.6732    0.7046   -1.5250 H   0  0  0  0  0  0  0  0  0  0  0  0
   -0.2519   -0.8792   -1.8874 H   0  0  0  0  0  0  0  0  0  0  0  0
    1.8888   -2.2183   -0.1338 H   0  0  0  0  0  0  0  0  0  0  0  0
    1.8456   -1.5956    1.5179 H   0  0  0  0  0  0  0  0  0  0  0  0
    2.5544    0.0964   -0.5724 H   0  0  0  0  0  0  0  0  0  0  0  0
   -1.2202   -1.8951   -0.1798 H   0  0  0  0  0  0  0  0  0  0  0  0
   -1.1384   -1.1345    1.4963 H   0  0  0  0  0  0  0  0  0  0  0  0
   -0.0737    0.7599    1.7902 H   0  0  0  0  0  0  0  0  0  0  0  0
    1.3251    2.3023    0.8254 H   0  0  0  0  0  0  0  0  0  0  0  0
  1  2  1  0
  2  3  1  0
  3  4  1  0
  4  5  1  0
  5  6  1  0
  4  7  1  0
  4  8  1  0
  8  9  1  0
  7  2  1  0
  8  2  1  0
  1 10  1  0
  1 11  1  0
  1 12  1  0
  3 13  1  0
  3 14  1  0
  5 15  1  0
  5 16  1  0
  6 17  1  0
  7 18  1  0
  7 19  1  0
  8 20  1  0
  9 21  1  0
M  END
