
     RDKit          3D

 21 22  0  0  0  0  0  0  0  0999 V2000
    1.8935   -0.0484   -0.6283 C   0  0  0  0  0  0  0  0  0  0  0  0
    0.5531   -0.3297   -0.0139 C   0  0  0  0  0  0  0  0  0  0  0  0
    0.0009   -1.6970   -0.3310 C   0  0  0  0  0  0  0  0  0  0  0  0
   -1.2228   -1.4931   -0.9875 O   0  0  0  0  0  0  0  0  0  0  0  0
   -2.0662   -0.8849   -0.0704 C   0  0  0  0  0  0  0  0  0  0  0  0
   -1.7354    0.3926    0.2555 O   0  0  0  0  0  0  0  0  0  0  0  0
   -0.4175    0.7199    0.2157 C   0  0  0  0  0  0  0  0  0  0  0  0
   -0.1723    2.1623   -0.2482 C   0  0  0  0  0  0  0  0  0  0  0  0
    0.4002    0.2184    1.3935 C   0  0  0  0  0  0  0  0  0  0  0  0
    2.6090   -0.7980   -0.1774 H   0  0  0  0  0  0  0  0  0  0  0  0
    1.9355   -0.2117   -1.7108 H   0  0  0  0  0  0  0  0  0  0  0  0
    2.3103    0.9381   -0.3665 H   0  0  0  0  0  0  0  0  0  0  0  0
    0.6565   -2.2625   -1.0351 H   0  0  0  0  0  0  0  0  0  0  0  0
   -0.2276   -2.2582    0.5869 H   0  0  0  0  0  0  0  0  0  0  0  0
   -3.1000   -0.8702   -0.5195 H   0  0  0  0  0  0  0  0  0  0  0  0
   -2.1747   -1.4936    0.8603 H   0  0  0  0  0  0  0  0  0  0  0  0
   -0.6306    2.8917    0.4536 H   0  0  0  0  0  0  0  0  0  0  0  0
   -0.6596    2.2428   -1.2611 H   0  0  0  0  0  0  0  0  0  0  0  0
    0.8855    2.3975   -0.3395 H   0  0  0  0  0  0  0  0  0  0  0  0
    1.2021    0.8555    1.8078 H   0  0  0  0  0  0  0  0  0  0  0  0
   -0.0401   -0.4715    2.1160 H   0  0  0  0  0  0  0  0  0  0  0  0
  1  2  1  0
  2  3  1  0
  3  4  1  0
  4  5  1  0
  5  6  1  0
  6  7  1  0
  7  8  1  0
  7  9  1  0
  7  2  1  0
  9  2  1  0
  1 10  1  0
  1 11  1  0
  1 12  1  0
  3 13  1  0
  3 14  1  0
  5 15  1  0
  5 16  1  0
  8 17  1  0
  8 18  1  0
  8 19  1  0
  9 20  1  0
  9 21  1  0
M  END
