
     RDKit          3D

 18 19  0  0  0  0  0  0  0  0999 V2000
   -1.3778   -1.1529   -0.1665 C   0  0  0  0  0  0  0  0  0  0  0  0
   -0.3711   -0.1446    0.2217 C   0  0  0  0  0  0  0  0  0  0  0  0
   -0.8638    1.3008    0.3033 C   0  0  0  0  0  0  0  0  0  0  0  0
    0.5638    1.6806   -0.1224 C   0  0  0  0  0  0  0  0  0  0  0  0
    0.5582    0.3459   -0.8812 C   0  0  0  0  0  0  0  0  0  0  0  0
    1.6843   -0.4228   -0.6949 O   0  0  0  0  0  0  0  0  0  0  0  0
    1.5244   -1.1398    0.4829 C   0  0  0  0  0  0  0  0  0  0  0  0
    0.5265   -0.4717    1.2178 O   0  0  0  0  0  0  0  0  0  0  0  0
   -2.3961   -0.7344    0.0470 H   0  0  0  0  0  0  0  0  0  0  0  0
   -1.3655   -1.4825   -1.2065 H   0  0  0  0  0  0  0  0  0  0  0  0
   -1.2848   -2.0241    0.5468 H   0  0  0  0  0  0  0  0  0  0  0  0
   -1.6113    1.4993   -0.4802 H   0  0  0  0  0  0  0  0  0  0  0  0
   -1.1102    1.5887    1.3289 H   0  0  0  0  0  0  0  0  0  0  0  0
    1.2203    1.5772    0.7482 H   0  0  0  0  0  0  0  0  0  0  0  0
    0.6415    2.5661   -0.7413 H   0  0  0  0  0  0  0  0  0  0  0  0
    0.1266    0.3891   -1.8820 H   0  0  0  0  0  0  0  0  0  0  0  0
    1.0854   -2.1219    0.2135 H   0  0  0  0  0  0  0  0  0  0  0  0
    2.4496   -1.2530    1.0647 H   0  0  0  0  0  0  0  0  0  0  0  0
  1  2  1  0
  2  3  1  0
  3  4  1  0
  4  5  1  0
  5  6  1  0
  6  7  1  0
  7  8  1  0
  5  2  1  0
  8  2  1  0
  1  9  1  0
  1 10  1  0
  1 11  1  0
  3 12  1  0
  3 13  1  0
  4 14  1  0
  4 15  1  0
  5 16  1  0
  7 17  1  0
  7 18  1  0
M  END
