
     RDKit          3D

 19 20  0  0  0  0  0  0  0  0999 V2000
   -1.6976    0.8434    0.1359 C   0  0  0  0  0  0  0  0  0  0  0  0
   -0.5653   -0.1195    0.3540 C   0  0  0  0  0  0  0  0  0  0  0  0
   -0.7701   -1.5602    0.4756 C   0  0  0  0  0  0  0  0  0  0  0  0
   -0.2319   -1.0069   -0.7753 C   0  0  0  0  0  0  0  0  0  0  0  0
    1.1275   -0.4036   -0.8578 C   0  0  0  0  0  0  0  0  0  0  0  0
    2.1065   -1.4063   -0.7026 O   0  0  0  0  0  0  0  0  0  0  0  0
    0.8501    0.3789    0.4106 C   0  0  0  0  0  0  0  0  0  0  0  0
    1.0311    1.8287    0.3135 C   0  0  0  0  0  0  0  0  0  0  0  0
    1.1243    2.5020    1.3141 O   0  0  0  0  0  0  0  0  0  0  0  0
   -1.8277    1.1020   -0.9387 H   0  0  0  0  0  0  0  0  0  0  0  0
   -1.6163    1.7562    0.7265 H   0  0  0  0  0  0  0  0  0  0  0  0
   -2.6544    0.3461    0.4498 H   0  0  0  0  0  0  0  0  0  0  0  0
   -1.8221   -1.9179    0.4325 H   0  0  0  0  0  0  0  0  0  0  0  0
   -0.1558   -2.1757    1.1731 H   0  0  0  0  0  0  0  0  0  0  0  0
   -0.8056   -1.0361   -1.7011 H   0  0  0  0  0  0  0  0  0  0  0  0
    1.3162    0.2882   -1.6846 H   0  0  0  0  0  0  0  0  0  0  0  0
    2.1273   -1.6050    0.2667 H   0  0  0  0  0  0  0  0  0  0  0  0
    1.3832   -0.1044    1.2700 H   0  0  0  0  0  0  0  0  0  0  0  0
    1.0806    2.2900   -0.6621 H   0  0  0  0  0  0  0  0  0  0  0  0
  1  2  1  0
  2  3  1  0
  3  4  1  0
  4  5  1  0
  5  6  1  0
  5  7  1  0
  7  8  1  0
  8  9  2  0
  4  2  1  0
  7  2  1  0
  1 10  1  0
  1 11  1  0
  1 12  1  0
  3 13  1  0
  3 14  1  0
  4 15  1  0
  5 16  1  0
  6 17  1  0
  7 18  1  0
  8 19  1  0
M  END
