
     RDKit          3D

 19 20  0  0  0  0  0  0  0  0999 V2000
   -1.3264    1.3587    0.3385 C   0  0  0  0  0  0  0  0  0  0  0  0
    0.0519    0.8678   -0.1554 C   0  0  0  0  0  0  0  0  0  0  0  0
   -0.1038    0.3959   -1.4309 O   0  0  0  0  0  0  0  0  0  0  0  0
   -1.0121   -0.6663   -1.1828 C   0  0  0  0  0  0  0  0  0  0  0  0
   -0.7890   -1.0527    0.1648 O   0  0  0  0  0  0  0  0  0  0  0  0
    0.4715   -0.5783    0.3538 C   0  0  0  0  0  0  0  0  0  0  0  0
    1.4415   -1.3407   -0.5695 C   0  0  0  0  0  0  0  0  0  0  0  0
    0.9863    0.6310    0.8630 C   0  0  0  0  0  0  0  0  0  0  0  0
    0.6692    0.9572    2.2019 O   0  0  0  0  0  0  0  0  0  0  0  0
   -1.1092    2.1191    1.1276 H   0  0  0  0  0  0  0  0  0  0  0  0
   -1.8828    1.8615   -0.4511 H   0  0  0  0  0  0  0  0  0  0  0  0
   -1.8809    0.5421    0.8196 H   0  0  0  0  0  0  0  0  0  0  0  0
   -2.0535   -0.3318   -1.3343 H   0  0  0  0  0  0  0  0  0  0  0  0
   -0.7703   -1.5400   -1.7863 H   0  0  0  0  0  0  0  0  0  0  0  0
    1.1365   -2.3706   -0.7329 H   0  0  0  0  0  0  0  0  0  0  0  0
    2.4349   -1.2801   -0.0428 H   0  0  0  0  0  0  0  0  0  0  0  0
    1.5487   -0.7285   -1.4838 H   0  0  0  0  0  0  0  0  0  0  0  0
    2.0577    0.9120    0.6777 H   0  0  0  0  0  0  0  0  0  0  0  0
    0.1298    0.2437    2.6229 H   0  0  0  0  0  0  0  0  0  0  0  0
  1  2  1  0
  2  3  1  0
  3  4  1  0
  4  5  1  0
  5  6  1  0
  6  7  1  0
  6  8  1  0
  8  9  1  0
  6  2  1  0
  8  2  1  0
  1 10  1  0
  1 11  1  0
  1 12  1  0
  4 13  1  0
  4 14  1  0
  7 15  1  0
  7 16  1  0
  7 17  1  0
  8 18  1  0
  9 19  1  0
M  END
