
     RDKit          3D

 18 19  0  0  0  0  0  0  0  0999 V2000
    2.1300   -0.0944   -0.0158 C   0  0  0  0  0  0  0  0  0  0  0  0
    0.6732    0.0746   -0.0184 C   0  0  0  0  0  0  0  0  0  0  0  0
    0.1567    1.2516    0.7046 C   0  0  0  0  0  0  0  0  0  0  0  0
   -1.0427    1.4794    0.1899 C   0  0  0  0  0  0  0  0  0  0  0  0
   -1.2247    0.4359   -0.8823 C   0  0  0  0  0  0  0  0  0  0  0  0
   -1.4272   -0.9301   -0.3012 C   0  0  0  0  0  0  0  0  0  0  0  0
   -0.1173   -1.1208    0.4543 C   0  0  0  0  0  0  0  0  0  0  0  0
    0.1248    0.3133   -1.3038 O   0  0  0  0  0  0  0  0  0  0  0  0
    2.5264    0.1300    0.9946 H   0  0  0  0  0  0  0  0  0  0  0  0
    2.3776   -1.1261   -0.3378 H   0  0  0  0  0  0  0  0  0  0  0  0
    2.5868    0.5812   -0.7643 H   0  0  0  0  0  0  0  0  0  0  0  0
    0.6554    1.7920    1.4747 H   0  0  0  0  0  0  0  0  0  0  0  0
   -1.7723    2.2361    0.4466 H   0  0  0  0  0  0  0  0  0  0  0  0
   -1.8951    0.7282   -1.6670 H   0  0  0  0  0  0  0  0  0  0  0  0
   -2.3059   -1.0110    0.3623 H   0  0  0  0  0  0  0  0  0  0  0  0
   -1.4212   -1.6575   -1.1216 H   0  0  0  0  0  0  0  0  0  0  0  0
   -0.3797   -1.0055    1.5440 H   0  0  0  0  0  0  0  0  0  0  0  0
    0.3553   -2.0771    0.2412 H   0  0  0  0  0  0  0  0  0  0  0  0
  1  2  1  0
  2  3  1  0
  3  4  2  0
  4  5  1  0
  5  6  1  0
  6  7  1  0
  5  8  1  0
  7  2  1  0
  8  2  1  0
  1  9  1  0
  1 10  1  0
  1 11  1  0
  3 12  1  0
  4 13  1  0
  5 14  1  0
  6 15  1  0
  6 16  1  0
  7 17  1  0
  7 18  1  0
M  END
