
     RDKit          3D

 21 23  0  0  0  0  0  0  0  0999 V2000
   -0.2963    2.0999   -0.1086 C   0  0  0  0  0  0  0  0  0  0  0  0
   -0.3952    0.6459   -0.0050 C   0  0  0  0  0  0  0  0  0  0  0  0
   -1.6362   -0.0854    0.4300 C   0  0  0  0  0  0  0  0  0  0  0  0
   -1.2579   -1.4695   -0.1198 C   0  0  0  0  0  0  0  0  0  0  0  0
    0.1120   -1.6342    0.4984 C   0  0  0  0  0  0  0  0  0  0  0  0
    0.7125   -0.3072    0.0063 C   0  0  0  0  0  0  0  0  0  0  0  0
    2.1197    0.0157    0.2780 C   0  0  0  0  0  0  0  0  0  0  0  0
    0.0228   -0.1289   -1.2678 C   0  0  0  0  0  0  0  0  0  0  0  0
   -0.9441   -1.1392   -1.4185 O   0  0  0  0  0  0  0  0  0  0  0  0
    0.5763    2.3627   -0.7550 H   0  0  0  0  0  0  0  0  0  0  0  0
   -0.2552    2.6488    0.8507 H   0  0  0  0  0  0  0  0  0  0  0  0
   -1.1847    2.5330   -0.6541 H   0  0  0  0  0  0  0  0  0  0  0  0
   -2.5611    0.2920   -0.0081 H   0  0  0  0  0  0  0  0  0  0  0  0
   -1.6516   -0.1693    1.5367 H   0  0  0  0  0  0  0  0  0  0  0  0
   -1.9644   -2.2335    0.0581 H   0  0  0  0  0  0  0  0  0  0  0  0
    0.1033   -1.7077    1.5809 H   0  0  0  0  0  0  0  0  0  0  0  0
    0.6322   -2.4262   -0.0418 H   0  0  0  0  0  0  0  0  0  0  0  0
    2.7901    0.0776   -0.5855 H   0  0  0  0  0  0  0  0  0  0  0  0
    2.1548    0.9732    0.8761 H   0  0  0  0  0  0  0  0  0  0  0  0
    2.5362   -0.7631    0.9748 H   0  0  0  0  0  0  0  0  0  0  0  0
    0.3868    0.4154   -2.1259 H   0  0  0  0  0  0  0  0  0  0  0  0
  1  2  1  0
  2  3  1  0
  3  4  1  0
  4  5  1  0
  5  6  1  0
  6  7  1  0
  6  8  1  0
  8  9  1  0
  6  2  1  0
  8  2  1  0
  9  4  1  0
  1 10  1  0
  1 11  1  0
  1 12  1  0
  3 13  1  0
  3 14  1  0
  4 15  1  0
  5 16  1  0
  5 17  1  0
  7 18  1  0
  7 19  1  0
  7 20  1  0
  8 21  1  0
M  END
