
     RDKit          3D

 23 24  0  0  0  0  0  0  0  0999 V2000
    0.8118    1.7470   -0.2379 C   0  0  0  0  0  0  0  0  0  0  0  0
    0.5701    0.2882   -0.0349 C   0  0  0  0  0  0  0  0  0  0  0  0
    1.2969   -0.3554    1.1211 C   0  0  0  0  0  0  0  0  0  0  0  0
    0.3986   -1.5690    1.3690 C   0  0  0  0  0  0  0  0  0  0  0  0
   -0.8803   -1.1440    1.0972 O   0  0  0  0  0  0  0  0  0  0  0  0
   -0.8316   -0.1671    0.1343 C   0  0  0  0  0  0  0  0  0  0  0  0
   -1.8962    0.8950    0.1970 C   0  0  0  0  0  0  0  0  0  0  0  0
   -0.8283   -0.8107   -1.2512 C   0  0  0  0  0  0  0  0  0  0  0  0
    0.6559   -0.4808   -1.3159 C   0  0  0  0  0  0  0  0  0  0  0  0
    0.4550    2.3925    0.5746 H   0  0  0  0  0  0  0  0  0  0  0  0
    1.9218    1.8919   -0.3026 H   0  0  0  0  0  0  0  0  0  0  0  0
    0.4226    2.0219   -1.2393 H   0  0  0  0  0  0  0  0  0  0  0  0
    2.3216   -0.6406    0.8649 H   0  0  0  0  0  0  0  0  0  0  0  0
    1.2208    0.2686    2.0188 H   0  0  0  0  0  0  0  0  0  0  0  0
    0.4795   -1.9440    2.3965 H   0  0  0  0  0  0  0  0  0  0  0  0
    0.7699   -2.3528    0.6665 H   0  0  0  0  0  0  0  0  0  0  0  0
   -2.8667    0.4546   -0.1434 H   0  0  0  0  0  0  0  0  0  0  0  0
   -2.0837    1.2570    1.2294 H   0  0  0  0  0  0  0  0  0  0  0  0
   -1.6423    1.7110   -0.4912 H   0  0  0  0  0  0  0  0  0  0  0  0
   -1.0382   -1.9034   -1.2438 H   0  0  0  0  0  0  0  0  0  0  0  0
   -1.4590   -0.3140   -1.9916 H   0  0  0  0  0  0  0  0  0  0  0  0
    1.3166   -1.3588   -1.2051 H   0  0  0  0  0  0  0  0  0  0  0  0
    0.8853    0.1130   -2.2125 H   0  0  0  0  0  0  0  0  0  0  0  0
  1  2  1  0
  2  3  1  0
  3  4  1  0
  4  5  1  0
  5  6  1  0
  6  7  1  0
  6  8  1  0
  8  9  1  0
  6  2  1  0
  9  2  1  0
  1 10  1  0
  1 11  1  0
  1 12  1  0
  3 13  1  0
  3 14  1  0
  4 15  1  0
  4 16  1  0
  7 17  1  0
  7 18  1  0
  7 19  1  0
  8 20  1  0
  8 21  1  0
  9 22  1  0
  9 23  1  0
M  END
