
     RDKit          3D

 16 19  0  0  0  0  0  0  0  0999 V2000
    1.8924   -0.1192    0.1434 C   0  0  0  0  0  0  0  0  0  0  0  0
    0.5541   -0.3245   -0.0215 C   0  0  0  0  0  0  0  0  0  0  0  0
   -0.3564   -0.8229   -1.1637 C   0  0  0  0  0  0  0  0  0  0  0  0
   -1.6739   -0.1690   -0.4232 C   0  0  0  0  0  0  0  0  0  0  0  0
   -0.9339   -1.0317   -0.1337 C   0  0  0  0  0  0  0  0  0  0  0  0
   -0.2870    0.5136   -0.3250 C   0  0  0  0  0  0  0  0  0  0  0  0
   -0.5312    1.2169   -1.4360 O   0  0  0  0  0  0  0  0  0  0  0  0
   -0.6924    0.3656    0.7495 C   0  0  0  0  0  0  0  0  0  0  0  0
    2.0925    0.7656    0.8194 H   0  0  0  0  0  0  0  0  0  0  0  0
    2.4634    0.1562   -0.7937 H   0  0  0  0  0  0  0  0  0  0  0  0
    2.4413   -0.9708    0.6397 H   0  0  0  0  0  0  0  0  0  0  0  0
   -0.2093   -0.5120   -2.1751 H   0  0  0  0  0  0  0  0  0  0  0  0
   -2.2352    0.5319   -0.9729 H   0  0  0  0  0  0  0  0  0  0  0  0
   -0.7058   -1.5747    0.7818 H   0  0  0  0  0  0  0  0  0  0  0  0
   -0.9121    2.0988   -1.2138 H   0  0  0  0  0  0  0  0  0  0  0  0
   -0.9066   -0.1239    1.7210 H   0  0  0  0  0  0  0  0  0  0  0  0
  1  2  1  0
  2  3  1  0
  3  4  1  0
  4  5  1  0
  5  6  1  0
  6  7  1  0
  6  8  1  0
  6  2  1  0
  8  2  1  0
  5  3  1  0
  8  4  1  0
  1  9  1  0
  1 10  1  0
  1 11  1  0
  3 12  1  0
  4 13  1  0
  5 14  1  0
  7 15  1  0
  8 16  1  0
M  END
