
     RDKit          3D

 19 23  0  0  0  0  0  0  0  0999 V2000
    1.4789    1.7897   -0.1796 C   0  0  0  0  0  0  0  0  0  0  0  0
    0.5090    0.6764   -0.0499 C   0  0  0  0  0  0  0  0  0  0  0  0
    0.9820   -0.7552    0.0986 C   0  0  0  0  0  0  0  0  0  0  0  0
   -0.0195   -1.4790    0.8961 C   0  0  0  0  0  0  0  0  0  0  0  0
   -0.0073   -1.6246   -0.5469 C   0  0  0  0  0  0  0  0  0  0  0  0
   -1.2351   -0.7858   -0.6610 C   0  0  0  0  0  0  0  0  0  0  0  0
   -1.2411   -0.6290    0.8220 C   0  0  0  0  0  0  0  0  0  0  0  0
   -0.7400    0.7408    0.6966 C   0  0  0  0  0  0  0  0  0  0  0  0
   -0.7313    0.5772   -0.8221 C   0  0  0  0  0  0  0  0  0  0  0  0
    1.4351    2.4319    0.7393 H   0  0  0  0  0  0  0  0  0  0  0  0
    1.2791    2.4520   -1.0706 H   0  0  0  0  0  0  0  0  0  0  0  0
    2.5009    1.3746   -0.3144 H   0  0  0  0  0  0  0  0  0  0  0  0
    2.0400   -1.0014    0.0775 H   0  0  0  0  0  0  0  0  0  0  0  0
    0.1694   -2.2188    1.6441 H   0  0  0  0  0  0  0  0  0  0  0  0
    0.1870   -2.5031   -1.1265 H   0  0  0  0  0  0  0  0  0  0  0  0
   -2.0951   -1.1519   -1.1689 H   0  0  0  0  0  0  0  0  0  0  0  0
   -2.1107   -0.8781    1.3873 H   0  0  0  0  0  0  0  0  0  0  0  0
   -1.2487    1.6369    1.0291 H   0  0  0  0  0  0  0  0  0  0  0  0
   -1.1525    1.3475   -1.4507 H   0  0  0  0  0  0  0  0  0  0  0  0
  1  2  1  0
  2  3  1  0
  3  4  1  0
  4  5  1  0
  5  6  1  0
  6  7  1  0
  7  8  1  0
  8  9  1  0
  8  2  1  0
  9  2  1  0
  5  3  1  0
  9  6  1  0
  7  4  1  0
  1 10  1  0
  1 11  1  0
  1 12  1  0
  3 13  1  0
  4 14  1  0
  5 15  1  0
  6 16  1  0
  7 17  1  0
  8 18  1  0
  9 19  1  0
M  END
