
     RDKit          3D

 21 22  0  0  0  0  0  0  0  0999 V2000
   -2.1290   -0.8282    0.4707 C   0  0  0  0  0  0  0  0  0  0  0  0
   -0.9388   -0.1070    0.0514 C   0  0  0  0  0  0  0  0  0  0  0  0
   -0.1126   -0.7317   -1.0341 C   0  0  0  0  0  0  0  0  0  0  0  0
    1.3281   -0.2675   -0.7681 C   0  0  0  0  0  0  0  0  0  0  0  0
    1.9666   -1.3486   -0.1316 O   0  0  0  0  0  0  0  0  0  0  0  0
    1.1098    0.7876    0.2704 C   0  0  0  0  0  0  0  0  0  0  0  0
    0.1441    1.8310   -0.2693 C   0  0  0  0  0  0  0  0  0  0  0  0
   -1.1167    1.2339   -0.2721 O   0  0  0  0  0  0  0  0  0  0  0  0
    0.1143    0.0293    1.1695 C   0  0  0  0  0  0  0  0  0  0  0  0
   -2.0985   -1.8819    0.0877 H   0  0  0  0  0  0  0  0  0  0  0  0
   -2.1180   -0.9491    1.5941 H   0  0  0  0  0  0  0  0  0  0  0  0
   -3.0522   -0.3168    0.1799 H   0  0  0  0  0  0  0  0  0  0  0  0
   -0.3780   -0.2441   -2.0178 H   0  0  0  0  0  0  0  0  0  0  0  0
   -0.1795   -1.8240   -1.0869 H   0  0  0  0  0  0  0  0  0  0  0  0
    1.8331    0.0604   -1.6707 H   0  0  0  0  0  0  0  0  0  0  0  0
    2.9234   -1.1186   -0.0186 H   0  0  0  0  0  0  0  0  0  0  0  0
    1.9624    1.1645    0.7843 H   0  0  0  0  0  0  0  0  0  0  0  0
    0.1013    2.6435    0.4954 H   0  0  0  0  0  0  0  0  0  0  0  0
    0.3957    2.1743   -1.2705 H   0  0  0  0  0  0  0  0  0  0  0  0
    0.4974   -0.9566    1.4509 H   0  0  0  0  0  0  0  0  0  0  0  0
   -0.2530    0.6496    1.9854 H   0  0  0  0  0  0  0  0  0  0  0  0
  1  2  1  0
  2  3  1  0
  3  4  1  0
  4  5  1  0
  4  6  1  0
  6  7  1  0
  7  8  1  0
  6  9  1  0
  8  2  1  0
  9  2  1  0
  1 10  1  0
  1 11  1  0
  1 12  1  0
  3 13  1  0
  3 14  1  0
  4 15  1  0
  5 16  1  0
  6 17  1  0
  7 18  1  0
  7 19  1  0
  9 20  1  0
  9 21  1  0
M  END
