
     RDKit          3D

 19 22  0  0  0  0  0  0  0  0999 V2000
    2.1554    0.2165   -0.0398 C   0  0  0  0  0  0  0  0  0  0  0  0
    0.7160    0.4119   -0.1296 C   0  0  0  0  0  0  0  0  0  0  0  0
   -0.1830    0.2295    1.1132 C   0  0  0  0  0  0  0  0  0  0  0  0
   -0.4951    1.4486    1.6703 O   0  0  0  0  0  0  0  0  0  0  0  0
   -1.4598   -0.5095    0.6364 C   0  0  0  0  0  0  0  0  0  0  0  0
   -0.6634   -1.0490   -0.1690 C   0  0  0  0  0  0  0  0  0  0  0  0
   -1.4366   -0.6809   -0.9609 C   0  0  0  0  0  0  0  0  0  0  0  0
    0.0811   -0.3556   -1.3933 C   0  0  0  0  0  0  0  0  0  0  0  0
   -0.3708    0.4911   -0.7340 C   0  0  0  0  0  0  0  0  0  0  0  0
    2.7165    0.9745   -0.6275 H   0  0  0  0  0  0  0  0  0  0  0  0
    2.4795    0.2757    1.0220 H   0  0  0  0  0  0  0  0  0  0  0  0
    2.4268   -0.8053   -0.3810 H   0  0  0  0  0  0  0  0  0  0  0  0
    0.3828   -0.4104    1.8087 H   0  0  0  0  0  0  0  0  0  0  0  0
   -1.3460    1.7812    1.3404 H   0  0  0  0  0  0  0  0  0  0  0  0
   -2.4187   -0.1464    0.9666 H   0  0  0  0  0  0  0  0  0  0  0  0
    0.1122   -1.7776   -0.0972 H   0  0  0  0  0  0  0  0  0  0  0  0
   -2.1898   -0.0746   -1.4957 H   0  0  0  0  0  0  0  0  0  0  0  0
    0.6546   -1.2343   -1.7260 H   0  0  0  0  0  0  0  0  0  0  0  0
   -1.1618    1.2148   -0.8037 H   0  0  0  0  0  0  0  0  0  0  0  0
  1  2  1  0
  2  3  1  0
  3  4  1  0
  3  5  1  0
  5  6  1  0
  6  7  1  0
  7  8  1  0
  8  9  1  0
  8  2  1  0
  9  2  1  0
  7  5  1  0
  9  6  1  0
  1 10  1  0
  1 11  1  0
  1 12  1  0
  3 13  1  0
  4 14  1  0
  5 15  1  0
  6 16  1  0
  7 17  1  0
  8 18  1  0
  9 19  1  0
M  END
