
     RDKit          3D

 19 21  0  0  0  0  0  0  0  0999 V2000
    1.8869   -0.4708   -0.6683 C   0  0  0  0  0  0  0  0  0  0  0  0
    0.7956    0.3694   -0.1421 C   0  0  0  0  0  0  0  0  0  0  0  0
    0.9064    0.8268    1.2700 C   0  0  0  0  0  0  0  0  0  0  0  0
   -0.3005    1.0604    1.7664 C   0  0  0  0  0  0  0  0  0  0  0  0
   -1.3322    0.7705    0.7009 C   0  0  0  0  0  0  0  0  0  0  0  0
   -0.9699    1.1263   -0.7187 C   0  0  0  0  0  0  0  0  0  0  0  0
    0.3465    1.3790   -1.0139 O   0  0  0  0  0  0  0  0  0  0  0  0
   -0.5962   -0.1640   -0.1717 C   0  0  0  0  0  0  0  0  0  0  0  0
   -1.0023   -1.4837   -0.5930 C   0  0  0  0  0  0  0  0  0  0  0  0
    2.5724    0.1834   -1.2820 H   0  0  0  0  0  0  0  0  0  0  0  0
    1.4384   -1.2374   -1.3615 H   0  0  0  0  0  0  0  0  0  0  0  0
    2.5157   -0.9269    0.0980 H   0  0  0  0  0  0  0  0  0  0  0  0
    1.8251    0.9517    1.8140 H   0  0  0  0  0  0  0  0  0  0  0  0
   -0.5706    1.4031    2.7612 H   0  0  0  0  0  0  0  0  0  0  0  0
   -2.3578    0.5871    0.9852 H   0  0  0  0  0  0  0  0  0  0  0  0
   -1.7684    1.3096   -1.4556 H   0  0  0  0  0  0  0  0  0  0  0  0
   -1.9092   -1.8165   -0.0078 H   0  0  0  0  0  0  0  0  0  0  0  0
   -0.2180   -2.2471   -0.3171 H   0  0  0  0  0  0  0  0  0  0  0  0
   -1.2619   -1.6209   -1.6641 H   0  0  0  0  0  0  0  0  0  0  0  0
  1  2  1  0
  2  3  1  0
  3  4  2  0
  4  5  1  0
  5  6  1  0
  6  7  1  0
  6  8  1  0
  8  9  1  0
  7  2  1  0
  8  2  1  0
  8  5  1  0
  1 10  1  0
  1 11  1  0
  1 12  1  0
  3 13  1  0
  4 14  1  0
  5 15  1  0
  6 16  1  0
  9 17  1  0
  9 18  1  0
  9 19  1  0
M  END
