
     RDKit          3D

 21 22  0  0  0  0  0  0  0  0999 V2000
    1.7253    1.0114    0.2617 C   0  0  0  0  0  0  0  0  0  0  0  0
    0.9063   -0.1778    0.0719 C   0  0  0  0  0  0  0  0  0  0  0  0
    0.7746   -0.6406   -1.3563 C   0  0  0  0  0  0  0  0  0  0  0  0
   -0.6965   -0.8967   -1.0926 C   0  0  0  0  0  0  0  0  0  0  0  0
   -0.5072   -0.2666    0.2671 C   0  0  0  0  0  0  0  0  0  0  0  0
   -1.3984    0.8511    0.5843 C   0  0  0  0  0  0  0  0  0  0  0  0
   -1.4704    1.8825   -0.2982 O   0  0  0  0  0  0  0  0  0  0  0  0
   -0.1954   -1.2028    1.3852 C   0  0  0  0  0  0  0  0  0  0  0  0
    1.1263   -1.2115    0.9946 O   0  0  0  0  0  0  0  0  0  0  0  0
    2.5100    0.8107    1.0461 H   0  0  0  0  0  0  0  0  0  0  0  0
    1.2400    1.9439    0.5239 H   0  0  0  0  0  0  0  0  0  0  0  0
    2.3269    1.1930   -0.6745 H   0  0  0  0  0  0  0  0  0  0  0  0
    1.3393   -1.5478   -1.6209 H   0  0  0  0  0  0  0  0  0  0  0  0
    0.9834    0.1786   -2.0568 H   0  0  0  0  0  0  0  0  0  0  0  0
   -1.3693   -0.3545   -1.7833 H   0  0  0  0  0  0  0  0  0  0  0  0
   -0.9501   -1.9852   -0.9613 H   0  0  0  0  0  0  0  0  0  0  0  0
   -1.1431    1.2592    1.5851 H   0  0  0  0  0  0  0  0  0  0  0  0
   -2.4470    0.4492    0.6992 H   0  0  0  0  0  0  0  0  0  0  0  0
   -1.6514    1.5927   -1.2227 H   0  0  0  0  0  0  0  0  0  0  0  0
   -0.7038   -2.1809    1.2762 H   0  0  0  0  0  0  0  0  0  0  0  0
   -0.3998   -0.7079    2.3712 H   0  0  0  0  0  0  0  0  0  0  0  0
  1  2  1  0
  2  3  1  0
  3  4  1  0
  4  5  1  0
  5  6  1  0
  6  7  1  0
  5  8  1  0
  8  9  1  0
  5  2  1  0
  9  2  1  0
  1 10  1  0
  1 11  1  0
  1 12  1  0
  3 13  1  0
  3 14  1  0
  4 15  1  0
  4 16  1  0
  6 17  1  0
  6 18  1  0
  7 19  1  0
  8 20  1  0
  8 21  1  0
M  END
