
     RDKit          3D

 18 20  0  0  0  0  0  0  0  0999 V2000
   -1.6245   -1.1453   -0.1478 C   0  0  0  0  0  0  0  0  0  0  0  0
   -0.8562   -0.0517    0.5086 C   0  0  0  0  0  0  0  0  0  0  0  0
   -1.4336    0.8004    1.4164 O   0  0  0  0  0  0  0  0  0  0  0  0
   -1.1465    1.3933    0.2091 C   0  0  0  0  0  0  0  0  0  0  0  0
    0.3264    1.5835   -0.1734 C   0  0  0  0  0  0  0  0  0  0  0  0
    0.5465    0.1510    0.1087 C   0  0  0  0  0  0  0  0  0  0  0  0
    1.7143   -0.4135    0.7622 C   0  0  0  0  0  0  0  0  0  0  0  0
    1.3471   -0.7601   -0.6899 C   0  0  0  0  0  0  0  0  0  0  0  0
   -2.6981   -0.9173   -0.2226 H   0  0  0  0  0  0  0  0  0  0  0  0
   -1.1617   -1.3294   -1.1541 H   0  0  0  0  0  0  0  0  0  0  0  0
   -1.5129   -2.0650    0.4882 H   0  0  0  0  0  0  0  0  0  0  0  0
   -1.9218    1.6884   -0.4941 H   0  0  0  0  0  0  0  0  0  0  0  0
    0.4383    1.9403   -1.2008 H   0  0  0  0  0  0  0  0  0  0  0  0
    0.8519    2.2261    0.5721 H   0  0  0  0  0  0  0  0  0  0  0  0
    2.6556    0.1947    0.8475 H   0  0  0  0  0  0  0  0  0  0  0  0
    1.5380   -1.1904    1.5354 H   0  0  0  0  0  0  0  0  0  0  0  0
    0.9623   -1.7998   -0.8702 H   0  0  0  0  0  0  0  0  0  0  0  0
    1.9748   -0.3050   -1.4953 H   0  0  0  0  0  0  0  0  0  0  0  0
  1  2  1  0
  2  3  1  0
  3  4  1  0
  4  5  1  0
  5  6  1  0
  6  7  1  0
  7  8  1  0
  4  2  1  0
  8  6  1  0
  6  2  1  0
  1  9  1  0
  1 10  1  0
  1 11  1  0
  4 12  1  0
  5 13  1  0
  5 14  1  0
  7 15  1  0
  7 16  1  0
  8 17  1  0
  8 18  1  0
M  END
