
     RDKit          3D

 19 20  0  0  0  0  0  0  0  0999 V2000
   -1.0842   -1.0949    0.6514 C   0  0  0  0  0  0  0  0  0  0  0  0
   -0.6717    0.0997   -0.1565 C   0  0  0  0  0  0  0  0  0  0  0  0
   -0.0289   -0.3585   -1.4221 C   0  0  0  0  0  0  0  0  0  0  0  0
    1.1545   -1.0491   -0.8156 C   0  0  0  0  0  0  0  0  0  0  0  0
    1.7935   -1.9751   -1.2279 O   0  0  0  0  0  0  0  0  0  0  0  0
    1.4246   -0.3404    0.4814 C   0  0  0  0  0  0  0  0  0  0  0  0
    0.6330    0.8788    0.2842 C   0  0  0  0  0  0  0  0  0  0  0  0
   -0.6698    1.3130    0.5536 C   0  0  0  0  0  0  0  0  0  0  0  0
   -1.2423    2.4207   -0.1200 O   0  0  0  0  0  0  0  0  0  0  0  0
   -2.0770   -1.3958    0.2525 H   0  0  0  0  0  0  0  0  0  0  0  0
   -0.4222   -1.9764    0.5244 H   0  0  0  0  0  0  0  0  0  0  0  0
   -1.2202   -0.9211    1.7185 H   0  0  0  0  0  0  0  0  0  0  0  0
   -0.6984   -1.1029   -1.9043 H   0  0  0  0  0  0  0  0  0  0  0  0
    0.2625    0.4690   -2.0878 H   0  0  0  0  0  0  0  0  0  0  0  0
    2.5184   -0.1403    0.4820 H   0  0  0  0  0  0  0  0  0  0  0  0
    1.2235   -0.9430    1.3558 H   0  0  0  0  0  0  0  0  0  0  0  0
    1.1252    1.4896   -0.5385 H   0  0  0  0  0  0  0  0  0  0  0  0
   -0.9912    1.3617    1.6215 H   0  0  0  0  0  0  0  0  0  0  0  0
   -1.0293    3.2653    0.3473 H   0  0  0  0  0  0  0  0  0  0  0  0
  1  2  1  0
  2  3  1  0
  3  4  1  0
  4  5  2  0
  4  6  1  0
  6  7  1  0
  7  8  1  0
  8  9  1  0
  7  2  1  0
  8  2  1  0
  1 10  1  0
  1 11  1  0
  1 12  1  0
  3 13  1  0
  3 14  1  0
  6 15  1  0
  6 16  1  0
  7 17  1  0
  8 18  1  0
  9 19  1  0
M  END
