
     RDKit          3D

 19 21  0  0  0  0  0  0  0  0999 V2000
    2.5241    0.3871    0.2254 C   0  0  0  0  0  0  0  0  0  0  0  0
    1.0735    0.2718    0.5283 C   0  0  0  0  0  0  0  0  0  0  0  0
    0.5859    0.8926    1.6582 O   0  0  0  0  0  0  0  0  0  0  0  0
    0.0134    1.0899    0.2992 C   0  0  0  0  0  0  0  0  0  0  0  0
   -0.8965   -0.0205   -0.0199 C   0  0  0  0  0  0  0  0  0  0  0  0
   -2.0013   -0.0696   -0.9094 C   0  0  0  0  0  0  0  0  0  0  0  0
   -2.1589   -0.3158    0.6267 C   0  0  0  0  0  0  0  0  0  0  0  0
    0.2912   -0.9395   -0.0127 C   0  0  0  0  0  0  0  0  0  0  0  0
    0.7330   -1.3194   -1.2652 O   0  0  0  0  0  0  0  0  0  0  0  0
    2.9858   -0.6360    0.1449 H   0  0  0  0  0  0  0  0  0  0  0  0
    2.6872    0.9937   -0.6826 H   0  0  0  0  0  0  0  0  0  0  0  0
    3.0402    0.8690    1.1056 H   0  0  0  0  0  0  0  0  0  0  0  0
   -0.1849    2.1342    0.1551 H   0  0  0  0  0  0  0  0  0  0  0  0
   -2.2345   -0.9688   -1.5330 H   0  0  0  0  0  0  0  0  0  0  0  0
   -2.5264    0.8319   -1.2661 H   0  0  0  0  0  0  0  0  0  0  0  0
   -2.6798    0.4792    1.1917 H   0  0  0  0  0  0  0  0  0  0  0  0
   -2.3659   -1.3433    0.9355 H   0  0  0  0  0  0  0  0  0  0  0  0
    0.2383   -1.7706    0.6896 H   0  0  0  0  0  0  0  0  0  0  0  0
    0.8757   -0.5660   -1.8714 H   0  0  0  0  0  0  0  0  0  0  0  0
  1  2  1  0
  2  3  1  0
  3  4  1  0
  4  5  1  0
  5  6  1  0
  6  7  1  0
  5  8  1  0
  8  9  1  0
  4  2  1  0
  7  5  1  0
  8  2  1  0
  1 10  1  0
  1 11  1  0
  1 12  1  0
  4 13  1  0
  6 14  1  0
  6 15  1  0
  7 16  1  0
  7 17  1  0
  8 18  1  0
  9 19  1  0
M  END
