
     RDKit          3D

 17 19  0  0  0  0  0  0  0  0999 V2000
    2.0541    0.0164    0.4000 C   0  0  0  0  0  0  0  0  0  0  0  0
    0.6623   -0.4890    0.3316 C   0  0  0  0  0  0  0  0  0  0  0  0
    0.4587   -1.7726   -0.1077 O   0  0  0  0  0  0  0  0  0  0  0  0
    0.0495   -0.8244   -1.0407 C   0  0  0  0  0  0  0  0  0  0  0  0
   -1.2899   -0.1801   -0.8569 C   0  0  0  0  0  0  0  0  0  0  0  0
   -0.9113    1.1596   -0.2393 C   0  0  0  0  0  0  0  0  0  0  0  0
   -0.4889    0.2550    0.9265 C   0  0  0  0  0  0  0  0  0  0  0  0
   -1.6525   -0.5874    0.5394 C   0  0  0  0  0  0  0  0  0  0  0  0
   -2.5134   -1.2834    1.0142 O   0  0  0  0  0  0  0  0  0  0  0  0
    2.0653    0.9920    0.9565 H   0  0  0  0  0  0  0  0  0  0  0  0
    2.5292    0.1558   -0.5781 H   0  0  0  0  0  0  0  0  0  0  0  0
    2.7069   -0.6600    1.0265 H   0  0  0  0  0  0  0  0  0  0  0  0
    0.6352   -0.6402   -1.9370 H   0  0  0  0  0  0  0  0  0  0  0  0
   -2.0270   -0.2103   -1.6099 H   0  0  0  0  0  0  0  0  0  0  0  0
   -0.0981    1.6066   -0.7994 H   0  0  0  0  0  0  0  0  0  0  0  0
   -1.7400    1.7838    0.0818 H   0  0  0  0  0  0  0  0  0  0  0  0
   -0.4399    0.6782    1.8925 H   0  0  0  0  0  0  0  0  0  0  0  0
  1  2  1  0
  2  3  1  0
  3  4  1  0
  4  5  1  0
  5  6  1  0
  6  7  1  0
  7  8  1  0
  8  9  2  0
  4  2  1  0
  8  5  1  0
  7  2  1  0
  1 10  1  0
  1 11  1  0
  1 12  1  0
  4 13  1  0
  5 14  1  0
  6 15  1  0
  6 16  1  0
  7 17  1  0
M  END
