
     RDKit          3D

 20 21  0  0  0  0  0  0  0  0999 V2000
    2.2804   -0.5112    0.4600 C   0  0  0  0  0  0  0  0  0  0  0  0
    1.0004    0.0121    0.1106 C   0  0  0  0  0  0  0  0  0  0  0  0
    0.8071    1.3721   -0.4130 C   0  0  0  0  0  0  0  0  0  0  0  0
   -0.5106    1.4381   -0.6149 C   0  0  0  0  0  0  0  0  0  0  0  0
   -0.9749    0.1035   -0.1719 C   0  0  0  0  0  0  0  0  0  0  0  0
   -2.3567   -0.2556   -0.1788 C   0  0  0  0  0  0  0  0  0  0  0  0
   -0.1566   -0.0738    1.1187 C   0  0  0  0  0  0  0  0  0  0  0  0
    0.0688   -0.7956   -0.8025 C   0  0  0  0  0  0  0  0  0  0  0  0
    2.2197   -1.1611    1.3637 H   0  0  0  0  0  0  0  0  0  0  0  0
    3.0018    0.3197    0.6692 H   0  0  0  0  0  0  0  0  0  0  0  0
    2.7347   -1.1072   -0.3507 H   0  0  0  0  0  0  0  0  0  0  0  0
    1.5650    2.1230   -0.5853 H   0  0  0  0  0  0  0  0  0  0  0  0
   -1.1405    2.2269   -0.9983 H   0  0  0  0  0  0  0  0  0  0  0  0
   -3.0037    0.6670   -0.2010 H   0  0  0  0  0  0  0  0  0  0  0  0
   -2.6486   -0.7868    0.7624 H   0  0  0  0  0  0  0  0  0  0  0  0
   -2.6302   -0.8634   -1.0668 H   0  0  0  0  0  0  0  0  0  0  0  0
   -0.2254    0.7796    1.7974 H   0  0  0  0  0  0  0  0  0  0  0  0
   -0.2738   -1.0743    1.5278 H   0  0  0  0  0  0  0  0  0  0  0  0
    0.2484   -0.5545   -1.8757 H   0  0  0  0  0  0  0  0  0  0  0  0
   -0.0054   -1.8584   -0.5509 H   0  0  0  0  0  0  0  0  0  0  0  0
  1  2  1  0
  2  3  1  0
  3  4  2  0
  4  5  1  0
  5  6  1  0
  5  7  1  0
  5  8  1  0
  7  2  1  0
  8  2  1  0
  1  9  1  0
  1 10  1  0
  1 11  1  0
  3 12  1  0
  4 13  1  0
  6 14  1  0
  6 15  1  0
  6 16  1  0
  7 17  1  0
  7 18  1  0
  8 19  1  0
  8 20  1  0
M  END
