
     RDKit          3D

 20 21  0  0  0  0  0  0  0  0999 V2000
   -2.0598   -0.8424    0.0596 C   0  0  0  0  0  0  0  0  0  0  0  0
   -0.8852    0.0208   -0.3452 C   0  0  0  0  0  0  0  0  0  0  0  0
   -1.0348    1.5262   -0.3148 C   0  0  0  0  0  0  0  0  0  0  0  0
   -0.2580    0.8097    0.7038 C   0  0  0  0  0  0  0  0  0  0  0  0
    1.2400    0.8120    0.7343 C   0  0  0  0  0  0  0  0  0  0  0  0
    1.6723   -0.5759    0.2558 C   0  0  0  0  0  0  0  0  0  0  0  0
    1.1128   -0.9149   -1.0707 C   0  0  0  0  0  0  0  0  0  0  0  0
   -0.1287   -0.4649   -1.3503 O   0  0  0  0  0  0  0  0  0  0  0  0
   -1.6085   -1.7598    0.5382 H   0  0  0  0  0  0  0  0  0  0  0  0
   -2.6878   -0.3677    0.8247 H   0  0  0  0  0  0  0  0  0  0  0  0
   -2.6249   -1.2222   -0.8158 H   0  0  0  0  0  0  0  0  0  0  0  0
   -1.9772    1.9941   -0.0466 H   0  0  0  0  0  0  0  0  0  0  0  0
   -0.4357    2.1232   -1.0464 H   0  0  0  0  0  0  0  0  0  0  0  0
   -0.7191    0.7871    1.7279 H   0  0  0  0  0  0  0  0  0  0  0  0
    1.6519    0.9034    1.7717 H   0  0  0  0  0  0  0  0  0  0  0  0
    1.6910    1.6141    0.1439 H   0  0  0  0  0  0  0  0  0  0  0  0
    1.2982   -1.3137    0.9982 H   0  0  0  0  0  0  0  0  0  0  0  0
    2.7648   -0.5846    0.2804 H   0  0  0  0  0  0  0  0  0  0  0  0
    1.1745   -2.0364   -1.1911 H   0  0  0  0  0  0  0  0  0  0  0  0
    1.8142   -0.5081   -1.8577 H   0  0  0  0  0  0  0  0  0  0  0  0
  1  2  1  0
  2  3  1  0
  3  4  1  0
  4  5  1  0
  5  6  1  0
  6  7  1  0
  7  8  1  0
  4  2  1  0
  8  2  1  0
  1  9  1  0
  1 10  1  0
  1 11  1  0
  3 12  1  0
  3 13  1  0
  4 14  1  0
  5 15  1  0
  5 16  1  0
  6 17  1  0
  6 18  1  0
  7 19  1  0
  7 20  1  0
M  END
