
     RDKit          3D

 17 18  0  0  0  0  0  0  0  0999 V2000
    2.0116   -0.0477    0.1123 C   0  0  0  0  0  0  0  0  0  0  0  0
    0.5657   -0.1129    0.1789 C   0  0  0  0  0  0  0  0  0  0  0  0
   -0.2038   -0.5170   -1.0739 C   0  0  0  0  0  0  0  0  0  0  0  0
   -1.3292    0.2334   -0.3466 C   0  0  0  0  0  0  0  0  0  0  0  0
   -1.4502   -0.5986    0.8822 C   0  0  0  0  0  0  0  0  0  0  0  0
   -0.0757   -0.7404    1.2139 O   0  0  0  0  0  0  0  0  0  0  0  0
   -0.2155    1.2046    0.0545 C   0  0  0  0  0  0  0  0  0  0  0  0
    2.4017   -0.9071   -0.4853 H   0  0  0  0  0  0  0  0  0  0  0  0
    2.3406    0.9255   -0.3034 H   0  0  0  0  0  0  0  0  0  0  0  0
    2.4532   -0.1581    1.1220 H   0  0  0  0  0  0  0  0  0  0  0  0
    0.1156   -0.0307   -1.9909 H   0  0  0  0  0  0  0  0  0  0  0  0
   -0.4521   -1.5794   -1.0911 H   0  0  0  0  0  0  0  0  0  0  0  0
   -2.1456    0.5818   -0.8941 H   0  0  0  0  0  0  0  0  0  0  0  0
   -2.0126   -0.1313    1.7053 H   0  0  0  0  0  0  0  0  0  0  0  0
   -1.7888   -1.6265    0.6385 H   0  0  0  0  0  0  0  0  0  0  0  0
    0.1103    1.8512   -0.7648 H   0  0  0  0  0  0  0  0  0  0  0  0
   -0.3251    1.6531    1.0425 H   0  0  0  0  0  0  0  0  0  0  0  0
  1  2  1  0
  2  3  1  0
  3  4  1  0
  4  5  1  0
  5  6  1  0
  4  7  1  0
  6  2  1  0
  7  2  1  0
  1  8  1  0
  1  9  1  0
  1 10  1  0
  3 11  1  0
  3 12  1  0
  4 13  1  0
  5 14  1  0
  5 15  1  0
  7 16  1  0
  7 17  1  0
M  END
