
     RDKit          3D

 19 21  0  0  0  0  0  0  0  0999 V2000
    2.0216    0.0076    0.7405 C   0  0  0  0  0  0  0  0  0  0  0  0
    0.6529    0.2944    0.2547 C   0  0  0  0  0  0  0  0  0  0  0  0
    0.4373    1.3419   -0.8462 C   0  0  0  0  0  0  0  0  0  0  0  0
   -0.4736    0.8257   -1.7257 O   0  0  0  0  0  0  0  0  0  0  0  0
   -1.2046   -0.1665   -1.0694 C   0  0  0  0  0  0  0  0  0  0  0  0
   -1.8613    0.3023    0.2245 C   0  0  0  0  0  0  0  0  0  0  0  0
   -0.5767   -0.1033    0.9522 C   0  0  0  0  0  0  0  0  0  0  0  0
   -0.1568   -0.8280   -0.2347 C   0  0  0  0  0  0  0  0  0  0  0  0
    0.2134   -2.1079   -0.3358 O   0  0  0  0  0  0  0  0  0  0  0  0
    1.9584   -0.3678    1.7866 H   0  0  0  0  0  0  0  0  0  0  0  0
    2.4152   -0.8705    0.1487 H   0  0  0  0  0  0  0  0  0  0  0  0
    2.7449    0.8309    0.6170 H   0  0  0  0  0  0  0  0  0  0  0  0
    1.3872    1.6716   -1.2869 H   0  0  0  0  0  0  0  0  0  0  0  0
   -0.0593    2.2118   -0.3275 H   0  0  0  0  0  0  0  0  0  0  0  0
   -1.7995   -0.7937   -1.7160 H   0  0  0  0  0  0  0  0  0  0  0  0
   -2.7462   -0.2804    0.5010 H   0  0  0  0  0  0  0  0  0  0  0  0
   -2.0252    1.3962    0.1829 H   0  0  0  0  0  0  0  0  0  0  0  0
   -0.6273   -0.6238    1.9002 H   0  0  0  0  0  0  0  0  0  0  0  0
   -0.3005   -2.7404    0.2339 H   0  0  0  0  0  0  0  0  0  0  0  0
  1  2  1  0
  2  3  1  0
  3  4  1  0
  4  5  1  0
  5  6  1  0
  6  7  1  0
  7  8  1  0
  8  9  1  0
  7  2  1  0
  8  2  1  0
  8  5  1  0
  1 10  1  0
  1 11  1  0
  1 12  1  0
  3 13  1  0
  3 14  1  0
  5 15  1  0
  6 16  1  0
  6 17  1  0
  7 18  1  0
  9 19  1  0
M  END
