
     RDKit          3D

 21 23  0  0  0  0  0  0  0  0999 V2000
   -2.6742   -0.6911    0.5035 C   0  0  0  0  0  0  0  0  0  0  0  0
   -1.4264   -0.3951   -0.2644 C   0  0  0  0  0  0  0  0  0  0  0  0
   -1.3740    0.9114   -0.9663 C   0  0  0  0  0  0  0  0  0  0  0  0
   -0.4905    0.7080    0.2266 C   0  0  0  0  0  0  0  0  0  0  0  0
    0.5790   -0.3055   -0.0094 C   0  0  0  0  0  0  0  0  0  0  0  0
    1.5865   -0.0039   -1.0637 C   0  0  0  0  0  0  0  0  0  0  0  0
    2.5810    0.2925    0.0570 C   0  0  0  0  0  0  0  0  0  0  0  0
    1.6347   -0.4848    0.9828 C   0  0  0  0  0  0  0  0  0  0  0  0
   -0.3555   -1.2515   -0.2343 O   0  0  0  0  0  0  0  0  0  0  0  0
   -3.4489   -1.0135   -0.2534 H   0  0  0  0  0  0  0  0  0  0  0  0
   -3.0696    0.2912    0.8839 H   0  0  0  0  0  0  0  0  0  0  0  0
   -2.5786   -1.4501    1.2775 H   0  0  0  0  0  0  0  0  0  0  0  0
   -2.2121    1.5885   -0.8447 H   0  0  0  0  0  0  0  0  0  0  0  0
   -0.7935    0.9943   -1.9313 H   0  0  0  0  0  0  0  0  0  0  0  0
   -0.7507    1.0756    1.2156 H   0  0  0  0  0  0  0  0  0  0  0  0
    1.3157    0.8579   -1.6850 H   0  0  0  0  0  0  0  0  0  0  0  0
    1.8358   -0.9143   -1.6397 H   0  0  0  0  0  0  0  0  0  0  0  0
    3.5286   -0.2012   -0.1489 H   0  0  0  0  0  0  0  0  0  0  0  0
    2.5990    1.3825    0.2503 H   0  0  0  0  0  0  0  0  0  0  0  0
    1.5225    0.1111    1.9207 H   0  0  0  0  0  0  0  0  0  0  0  0
    1.9911   -1.5021    1.1915 H   0  0  0  0  0  0  0  0  0  0  0  0
  1  2  1  0
  2  3  1  0
  3  4  1  0
  4  5  1  0
  5  6  1  0
  6  7  1  0
  7  8  1  0
  5  9  1  0
  4  2  1  0
  8  5  1  0
  9  2  1  0
  1 10  1  0
  1 11  1  0
  1 12  1  0
  3 13  1  0
  3 14  1  0
  4 15  1  0
  6 16  1  0
  6 17  1  0
  7 18  1  0
  7 19  1  0
  8 20  1  0
  8 21  1  0
M  END
