
     RDKit          3D

 21 22  0  0  0  0  0  0  0  0999 V2000
    2.0566    0.3256    0.9719 C   0  0  0  0  0  0  0  0  0  0  0  0
    0.7967    0.1787    0.1000 C   0  0  0  0  0  0  0  0  0  0  0  0
   -0.1631    1.2813    0.3179 C   0  0  0  0  0  0  0  0  0  0  0  0
   -1.5238    1.1080   -0.2202 C   0  0  0  0  0  0  0  0  0  0  0  0
   -1.9991   -0.2698    0.0903 C   0  0  0  0  0  0  0  0  0  0  0  0
   -3.0637   -0.4576    0.6484 O   0  0  0  0  0  0  0  0  0  0  0  0
   -1.1334   -1.3874   -0.3031 C   0  0  0  0  0  0  0  0  0  0  0  0
    0.3123   -1.1629   -0.0723 C   0  0  0  0  0  0  0  0  0  0  0  0
    1.0333   -0.4558   -1.2121 C   0  0  0  0  0  0  0  0  0  0  0  0
    2.6082    1.2367    0.7363 H   0  0  0  0  0  0  0  0  0  0  0  0
    2.6685   -0.5873    0.8439 H   0  0  0  0  0  0  0  0  0  0  0  0
    1.6996    0.3253    2.0255 H   0  0  0  0  0  0  0  0  0  0  0  0
    0.2624    2.2573   -0.0542 H   0  0  0  0  0  0  0  0  0  0  0  0
   -0.2509    1.4404    1.4330 H   0  0  0  0  0  0  0  0  0  0  0  0
   -2.2054    1.8333    0.3150 H   0  0  0  0  0  0  0  0  0  0  0  0
   -1.6467    1.3402   -1.2928 H   0  0  0  0  0  0  0  0  0  0  0  0
   -1.4893   -2.3295    0.2043 H   0  0  0  0  0  0  0  0  0  0  0  0
   -1.3135   -1.5931   -1.3980 H   0  0  0  0  0  0  0  0  0  0  0  0
    0.8514   -2.0208    0.4249 H   0  0  0  0  0  0  0  0  0  0  0  0
    2.0412   -0.8597   -1.4413 H   0  0  0  0  0  0  0  0  0  0  0  0
    0.4588   -0.2030   -2.1173 H   0  0  0  0  0  0  0  0  0  0  0  0
  1  2  1  0
  2  3  1  0
  3  4  1  0
  4  5  1  0
  5  6  2  0
  5  7  1  0
  7  8  1  0
  8  9  1  0
  8  2  1  0
  9  2  1  0
  1 10  1  0
  1 11  1  0
  1 12  1  0
  3 13  1  0
  3 14  1  0
  4 15  1  0
  4 16  1  0
  7 17  1  0
  7 18  1  0
  8 19  1  0
  9 20  1  0
  9 21  1  0
M  END
