
     RDKit          3D

 21 23  0  0  0  0  0  0  0  0999 V2000
    1.8202   -1.0846    0.4143 C   0  0  0  0  0  0  0  0  0  0  0  0
    0.8963   -0.4842   -0.5970 C   0  0  0  0  0  0  0  0  0  0  0  0
   -0.3556   -1.3269   -0.9102 C   0  0  0  0  0  0  0  0  0  0  0  0
   -1.2717   -0.7377    0.1039 C   0  0  0  0  0  0  0  0  0  0  0  0
   -2.3003    0.2118    0.1042 C   0  0  0  0  0  0  0  0  0  0  0  0
   -1.1687    0.6804   -0.5960 C   0  0  0  0  0  0  0  0  0  0  0  0
    0.2384    0.8678   -0.2762 C   0  0  0  0  0  0  0  0  0  0  0  0
    0.7891    1.7755    0.7291 C   0  0  0  0  0  0  0  0  0  0  0  0
    1.2320    0.5918   -1.3425 O   0  0  0  0  0  0  0  0  0  0  0  0
    2.8800   -1.1247    0.0756 H   0  0  0  0  0  0  0  0  0  0  0  0
    1.7615   -0.5379    1.3524 H   0  0  0  0  0  0  0  0  0  0  0  0
    1.5271   -2.1405    0.6337 H   0  0  0  0  0  0  0  0  0  0  0  0
   -0.1620   -2.4017   -0.7443 H   0  0  0  0  0  0  0  0  0  0  0  0
   -0.6930   -1.1245   -1.9464 H   0  0  0  0  0  0  0  0  0  0  0  0
   -0.7382   -0.8194    1.1056 H   0  0  0  0  0  0  0  0  0  0  0  0
   -2.5740    0.7809    1.0433 H   0  0  0  0  0  0  0  0  0  0  0  0
   -3.2600   -0.0431   -0.4157 H   0  0  0  0  0  0  0  0  0  0  0  0
   -1.3288    0.6686   -1.7217 H   0  0  0  0  0  0  0  0  0  0  0  0
    0.9588    2.7852    0.2505 H   0  0  0  0  0  0  0  0  0  0  0  0
    0.0332    1.9651    1.5196 H   0  0  0  0  0  0  0  0  0  0  0  0
    1.7157    1.4979    1.2180 H   0  0  0  0  0  0  0  0  0  0  0  0
  1  2  1  0
  2  3  1  0
  3  4  1  0
  4  5  1  0
  5  6  1  0
  6  7  1  0
  7  8  1  0
  7  9  1  0
  7  2  1  0
  9  2  1  0
  6  4  1  0
  1 10  1  0
  1 11  1  0
  1 12  1  0
  3 13  1  0
  3 14  1  0
  4 15  1  0
  5 16  1  0
  5 17  1  0
  6 18  1  0
  8 19  1  0
  8 20  1  0
  8 21  1  0
M  END
