
     RDKit          3D

 19 21  0  0  0  0  0  0  0  0999 V2000
   -1.5988   -1.2026   -0.0129 C   0  0  0  0  0  0  0  0  0  0  0  0
   -0.3154   -0.5926    0.3377 C   0  0  0  0  0  0  0  0  0  0  0  0
    0.6219   -1.4878    0.7908 O   0  0  0  0  0  0  0  0  0  0  0  0
    1.6110   -1.1276   -0.1239 C   0  0  0  0  0  0  0  0  0  0  0  0
    0.6352   -0.2221   -0.7889 C   0  0  0  0  0  0  0  0  0  0  0  0
    0.8841    1.2172   -0.3948 C   0  0  0  0  0  0  0  0  0  0  0  0
   -0.4581    1.7761   -0.0733 C   0  0  0  0  0  0  0  0  0  0  0  0
   -0.3319    0.7576    1.0151 C   0  0  0  0  0  0  0  0  0  0  0  0
    1.0509    1.0667    1.0023 O   0  0  0  0  0  0  0  0  0  0  0  0
   -2.4684   -0.4908    0.0606 H   0  0  0  0  0  0  0  0  0  0  0  0
   -1.6160   -1.7530   -0.9913 H   0  0  0  0  0  0  0  0  0  0  0  0
   -1.8288   -2.0001    0.7505 H   0  0  0  0  0  0  0  0  0  0  0  0
    2.0117   -1.9265   -0.7463 H   0  0  0  0  0  0  0  0  0  0  0  0
    2.4321   -0.6009    0.4427 H   0  0  0  0  0  0  0  0  0  0  0  0
    0.3147   -0.4214   -1.7910 H   0  0  0  0  0  0  0  0  0  0  0  0
    1.6099    1.7860   -0.9212 H   0  0  0  0  0  0  0  0  0  0  0  0
   -1.2458    1.5553   -0.8231 H   0  0  0  0  0  0  0  0  0  0  0  0
   -0.4559    2.7888    0.3320 H   0  0  0  0  0  0  0  0  0  0  0  0
   -0.8525    0.8775    1.9351 H   0  0  0  0  0  0  0  0  0  0  0  0
  1  2  1  0
  2  3  1  0
  3  4  1  0
  4  5  1  0
  5  6  1  0
  6  7  1  0
  7  8  1  0
  8  9  1  0
  5  2  1  0
  9  6  1  0
  8  2  1  0
  1 10  1  0
  1 11  1  0
  1 12  1  0
  4 13  1  0
  4 14  1  0
  5 15  1  0
  6 16  1  0
  7 17  1  0
  7 18  1  0
  8 19  1  0
M  END
