
     RDKit          3D

 20 22  0  0  0  0  0  0  0  0999 V2000
    1.5908    1.1718    0.3024 C   0  0  0  0  0  0  0  0  0  0  0  0
    0.5445    0.1869    0.0547 C   0  0  0  0  0  0  0  0  0  0  0  0
    0.9219   -1.2354   -0.2352 C   0  0  0  0  0  0  0  0  0  0  0  0
   -0.4841   -1.8596   -0.2493 C   0  0  0  0  0  0  0  0  0  0  0  0
   -1.3068   -0.6090   -0.1802 C   0  0  0  0  0  0  0  0  0  0  0  0
   -0.6828    0.1807    0.9155 C   0  0  0  0  0  0  0  0  0  0  0  0
   -1.0989    1.4123    0.1390 C   0  0  0  0  0  0  0  0  0  0  0  0
   -0.5553    0.4790   -0.9055 C   0  0  0  0  0  0  0  0  0  0  0  0
    1.2939    1.8594    1.1451 H   0  0  0  0  0  0  0  0  0  0  0  0
    1.9692    1.7327   -0.5724 H   0  0  0  0  0  0  0  0  0  0  0  0
    2.4963    0.6322    0.7125 H   0  0  0  0  0  0  0  0  0  0  0  0
    1.3427   -1.2465   -1.2785 H   0  0  0  0  0  0  0  0  0  0  0  0
    1.5708   -1.7002    0.5022 H   0  0  0  0  0  0  0  0  0  0  0  0
   -0.6303   -2.4206    0.7094 H   0  0  0  0  0  0  0  0  0  0  0  0
   -0.6535   -2.4756   -1.1282 H   0  0  0  0  0  0  0  0  0  0  0  0
   -2.3670   -0.6617   -0.2795 H   0  0  0  0  0  0  0  0  0  0  0  0
   -0.7425    0.0537    1.9041 H   0  0  0  0  0  0  0  0  0  0  0  0
   -2.1809    1.5537    0.0099 H   0  0  0  0  0  0  0  0  0  0  0  0
   -0.5164    2.3220    0.3270 H   0  0  0  0  0  0  0  0  0  0  0  0
   -0.5116    0.6244   -1.8929 H   0  0  0  0  0  0  0  0  0  0  0  0
  1  2  1  0
  2  3  1  0
  3  4  1  0
  4  5  1  0
  5  6  1  0
  6  7  1  0
  7  8  1  0
  6  2  1  0
  8  2  1  0
  8  5  1  0
  1  9  1  0
  1 10  1  0
  1 11  1  0
  3 12  1  0
  3 13  1  0
  4 14  1  0
  4 15  1  0
  5 16  1  0
  6 17  1  0
  7 18  1  0
  7 19  1  0
  8 20  1  0
M  END
