
     RDKit          3D

 21 23  0  0  0  0  0  0  0  0999 V2000
   -1.9752   -0.2300   -0.9529 C   0  0  0  0  0  0  0  0  0  0  0  0
   -0.6841   -0.1181   -0.2314 C   0  0  0  0  0  0  0  0  0  0  0  0
    0.3040    0.9462   -0.5614 C   0  0  0  0  0  0  0  0  0  0  0  0
    1.6640    0.3340   -0.7787 C   0  0  0  0  0  0  0  0  0  0  0  0
    1.6071   -1.0396   -0.7323 O   0  0  0  0  0  0  0  0  0  0  0  0
    1.1918   -1.5015    0.5218 C   0  0  0  0  0  0  0  0  0  0  0  0
   -0.2220   -1.0916    0.7723 C   0  0  0  0  0  0  0  0  0  0  0  0
   -0.6077    0.2563    1.2091 C   0  0  0  0  0  0  0  0  0  0  0  0
    0.1040    1.4964    0.8422 C   0  0  0  0  0  0  0  0  0  0  0  0
   -2.4544   -1.1936   -0.7282 H   0  0  0  0  0  0  0  0  0  0  0  0
   -2.6510    0.6442   -0.8147 H   0  0  0  0  0  0  0  0  0  0  0  0
   -1.7485   -0.2445   -2.0591 H   0  0  0  0  0  0  0  0  0  0  0  0
   -0.0357    1.6091   -1.3773 H   0  0  0  0  0  0  0  0  0  0  0  0
    1.9991    0.6196   -1.7986 H   0  0  0  0  0  0  0  0  0  0  0  0
    2.4304    0.7270   -0.0826 H   0  0  0  0  0  0  0  0  0  0  0  0
    1.8914   -1.2040    1.3292 H   0  0  0  0  0  0  0  0  0  0  0  0
    1.2585   -2.6161    0.4660 H   0  0  0  0  0  0  0  0  0  0  0  0
   -0.9337   -1.9036    1.0202 H   0  0  0  0  0  0  0  0  0  0  0  0
   -1.5276    0.3759    1.8159 H   0  0  0  0  0  0  0  0  0  0  0  0
   -0.6203    2.3602    0.7663 H   0  0  0  0  0  0  0  0  0  0  0  0
    1.0097    1.7735    1.3741 H   0  0  0  0  0  0  0  0  0  0  0  0
  1  2  1  0
  2  3  1  0
  3  4  1  0
  4  5  1  0
  5  6  1  0
  6  7  1  0
  7  8  1  0
  8  9  1  0
  7  2  1  0
  8  2  1  0
  9  3  1  0
  1 10  1  0
  1 11  1  0
  1 12  1  0
  3 13  1  0
  4 14  1  0
  4 15  1  0
  6 16  1  0
  6 17  1  0
  7 18  1  0
  8 19  1  0
  9 20  1  0
  9 21  1  0
M  END
