
     RDKit          3D

 21 24  0  0  0  0  0  0  0  0999 V2000
    1.6645    1.5973    0.2909 C   0  0  0  0  0  0  0  0  0  0  0  0
    0.9545    0.3607   -0.2089 C   0  0  0  0  0  0  0  0  0  0  0  0
    1.6689   -0.9433   -0.2967 C   0  0  0  0  0  0  0  0  0  0  0  0
    0.7409   -0.7463    0.8810 C   0  0  0  0  0  0  0  0  0  0  0  0
   -0.7350   -0.9590    0.6955 C   0  0  0  0  0  0  0  0  0  0  0  0
   -0.9512   -0.8942   -0.7940 C   0  0  0  0  0  0  0  0  0  0  0  0
   -2.3025   -0.3232   -0.4690 C   0  0  0  0  0  0  0  0  0  0  0  0
   -1.3727    0.3702    0.4936 C   0  0  0  0  0  0  0  0  0  0  0  0
   -0.4470    0.5094   -0.6846 C   0  0  0  0  0  0  0  0  0  0  0  0
    1.1931    2.0459    1.1775 H   0  0  0  0  0  0  0  0  0  0  0  0
    2.7296    1.3559    0.4979 H   0  0  0  0  0  0  0  0  0  0  0  0
    1.6458    2.3313   -0.5355 H   0  0  0  0  0  0  0  0  0  0  0  0
    2.7366   -0.9254   -0.0824 H   0  0  0  0  0  0  0  0  0  0  0  0
    1.2843   -1.6327   -1.0755 H   0  0  0  0  0  0  0  0  0  0  0  0
    1.1511   -0.5235    1.8737 H   0  0  0  0  0  0  0  0  0  0  0  0
   -1.2328   -1.7223    1.2589 H   0  0  0  0  0  0  0  0  0  0  0  0
   -0.7241   -1.5896   -1.4722 H   0  0  0  0  0  0  0  0  0  0  0  0
   -2.6658    0.3963   -1.2279 H   0  0  0  0  0  0  0  0  0  0  0  0
   -3.0405   -0.9969   -0.0377 H   0  0  0  0  0  0  0  0  0  0  0  0
   -1.6102    1.0697    1.1657 H   0  0  0  0  0  0  0  0  0  0  0  0
   -0.6874    1.2198   -1.4503 H   0  0  0  0  0  0  0  0  0  0  0  0
  1  2  1  0
  2  3  1  0
  3  4  1  0
  4  5  1  0
  5  6  1  0
  6  7  1  0
  7  8  1  0
  8  9  1  0
  4  2  1  0
  8  5  1  0
  9  2  1  0
  9  6  1  0
  1 10  1  0
  1 11  1  0
  1 12  1  0
  3 13  1  0
  3 14  1  0
  4 15  1  0
  5 16  1  0
  6 17  1  0
  7 18  1  0
  7 19  1  0
  8 20  1  0
  9 21  1  0
M  END
