
     RDKit          3D

 21 23  0  0  0  0  0  0  0  0999 V2000
    2.7238    0.1500    0.3281 C   0  0  0  0  0  0  0  0  0  0  0  0
    1.2781    0.0684   -0.0397 C   0  0  0  0  0  0  0  0  0  0  0  0
    0.5930    1.2242   -0.6924 C   0  0  0  0  0  0  0  0  0  0  0  0
   -0.8354    0.7533   -0.7978 C   0  0  0  0  0  0  0  0  0  0  0  0
   -1.6442    0.9785    0.4609 C   0  0  0  0  0  0  0  0  0  0  0  0
   -1.0484   -0.3308    0.1884 C   0  0  0  0  0  0  0  0  0  0  0  0
   -1.9827   -1.4744   -0.1004 C   0  0  0  0  0  0  0  0  0  0  0  0
    0.3347   -0.7207    0.5803 C   0  0  0  0  0  0  0  0  0  0  0  0
    0.9904   -1.2071   -0.6870 O   0  0  0  0  0  0  0  0  0  0  0  0
    3.3942    0.2930   -0.5538 H   0  0  0  0  0  0  0  0  0  0  0  0
    3.0213   -0.8546    0.7451 H   0  0  0  0  0  0  0  0  0  0  0  0
    2.9202    0.8873    1.1052 H   0  0  0  0  0  0  0  0  0  0  0  0
    0.6246    2.0916    0.0054 H   0  0  0  0  0  0  0  0  0  0  0  0
    1.0307    1.5462   -1.6381 H   0  0  0  0  0  0  0  0  0  0  0  0
   -1.3270    0.6607   -1.7631 H   0  0  0  0  0  0  0  0  0  0  0  0
   -2.7187    1.0866    0.2612 H   0  0  0  0  0  0  0  0  0  0  0  0
   -1.2603    1.6760    1.2299 H   0  0  0  0  0  0  0  0  0  0  0  0
   -1.4392   -2.2554   -0.6687 H   0  0  0  0  0  0  0  0  0  0  0  0
   -2.8702   -1.0879   -0.5994 H   0  0  0  0  0  0  0  0  0  0  0  0
   -2.2391   -1.9307    0.8963 H   0  0  0  0  0  0  0  0  0  0  0  0
    0.4542   -1.5540    1.3007 H   0  0  0  0  0  0  0  0  0  0  0  0
  1  2  1  0
  2  3  1  0
  3  4  1  0
  4  5  1  0
  5  6  1  0
  6  7  1  0
  6  8  1  0
  8  9  1  0
  8  2  1  0
  9  2  1  0
  6  4  1  0
  1 10  1  0
  1 11  1  0
  1 12  1  0
  3 13  1  0
  3 14  1  0
  4 15  1  0
  5 16  1  0
  5 17  1  0
  7 18  1  0
  7 19  1  0
  7 20  1  0
  8 21  1  0
M  END
