
     RDKit          3D

 20 22  0  0  0  0  0  0  0  0999 V2000
   -1.2175    0.1355    1.5109 C   0  0  0  0  0  0  0  0  0  0  0  0
   -0.7073    0.0717    0.2432 C   0  0  0  0  0  0  0  0  0  0  0  0
   -1.4517    0.1313   -1.0588 C   0  0  0  0  0  0  0  0  0  0  0  0
   -0.0100   -0.0425   -1.4687 C   0  0  0  0  0  0  0  0  0  0  0  0
    0.2940    0.9832   -0.4009 C   0  0  0  0  0  0  0  0  0  0  0  0
    1.6115    0.6270    0.2084 C   0  0  0  0  0  0  0  0  0  0  0  0
    1.5047   -0.9089    0.1557 C   0  0  0  0  0  0  0  0  0  0  0  0
    0.0959   -1.0382   -0.3738 C   0  0  0  0  0  0  0  0  0  0  0  0
   -2.1921    0.6573    1.6020 H   0  0  0  0  0  0  0  0  0  0  0  0
   -0.5424    0.6575    2.2429 H   0  0  0  0  0  0  0  0  0  0  0  0
   -1.3929   -0.8735    1.9879 H   0  0  0  0  0  0  0  0  0  0  0  0
   -1.8698    1.1021   -1.3513 H   0  0  0  0  0  0  0  0  0  0  0  0
   -2.1039   -0.7310   -1.2793 H   0  0  0  0  0  0  0  0  0  0  0  0
    0.3548   -0.0655   -2.3964 H   0  0  0  0  0  0  0  0  0  0  0  0
    0.0413    2.0046   -0.5822 H   0  0  0  0  0  0  0  0  0  0  0  0
    2.4778    0.9770   -0.3576 H   0  0  0  0  0  0  0  0  0  0  0  0
    1.6039    0.9346    1.2715 H   0  0  0  0  0  0  0  0  0  0  0  0
    1.6520   -1.3510    1.1405 H   0  0  0  0  0  0  0  0  0  0  0  0
    2.1868   -1.2609   -0.6261 H   0  0  0  0  0  0  0  0  0  0  0  0
   -0.3351   -2.0105   -0.4681 H   0  0  0  0  0  0  0  0  0  0  0  0
  1  2  1  0
  2  3  1  0
  3  4  1  0
  4  5  1  0
  5  6  1  0
  6  7  1  0
  7  8  1  0
  5  2  1  0
  8  2  1  0
  8  4  1  0
  1  9  1  0
  1 10  1  0
  1 11  1  0
  3 12  1  0
  3 13  1  0
  4 14  1  0
  5 15  1  0
  6 16  1  0
  6 17  1  0
  7 18  1  0
  7 19  1  0
  8 20  1  0
M  END
