
     RDKit          3D

 19 21  0  0  0  0  0  0  0  0999 V2000
   -0.2615    1.7801   -0.4831 C   0  0  0  0  0  0  0  0  0  0  0  0
   -0.4417    0.3572    0.0570 C   0  0  0  0  0  0  0  0  0  0  0  0
   -1.5962   -0.3968   -0.4171 C   0  0  0  0  0  0  0  0  0  0  0  0
   -2.2306   -1.3732    0.3571 O   0  0  0  0  0  0  0  0  0  0  0  0
   -0.3063   -0.7759   -1.0013 C   0  0  0  0  0  0  0  0  0  0  0  0
    0.6367   -1.5005   -0.0305 C   0  0  0  0  0  0  0  0  0  0  0  0
    0.7535   -0.2050    0.7075 C   0  0  0  0  0  0  0  0  0  0  0  0
    1.9563    0.3866    1.0253 C   0  0  0  0  0  0  0  0  0  0  0  0
    0.9919   -0.1481    2.0504 O   0  0  0  0  0  0  0  0  0  0  0  0
    0.1351    2.4014    0.3556 H   0  0  0  0  0  0  0  0  0  0  0  0
   -1.2413    2.1644   -0.8571 H   0  0  0  0  0  0  0  0  0  0  0  0
    0.4551    1.7293   -1.3267 H   0  0  0  0  0  0  0  0  0  0  0  0
   -2.3012    0.1360   -1.0866 H   0  0  0  0  0  0  0  0  0  0  0  0
   -3.2170   -1.2361    0.4002 H   0  0  0  0  0  0  0  0  0  0  0  0
    0.0732   -0.4398   -1.9624 H   0  0  0  0  0  0  0  0  0  0  0  0
    1.5313   -1.8942   -0.5125 H   0  0  0  0  0  0  0  0  0  0  0  0
    0.0373   -2.2871    0.5053 H   0  0  0  0  0  0  0  0  0  0  0  0
    2.1046    1.4844    1.1569 H   0  0  0  0  0  0  0  0  0  0  0  0
    2.9210   -0.1827    1.0618 H   0  0  0  0  0  0  0  0  0  0  0  0
  1  2  1  0
  2  3  1  0
  3  4  1  0
  3  5  1  0
  5  6  1  0
  6  7  1  0
  7  8  1  0
  8  9  1  0
  5  2  1  0
  9  7  1  0
  7  2  1  0
  1 10  1  0
  1 11  1  0
  1 12  1  0
  3 13  1  0
  4 14  1  0
  5 15  1  0
  6 16  1  0
  6 17  1  0
  8 18  1  0
  8 19  1  0
M  END
