
     RDKit          3D

 19 21  0  0  0  0  0  0  0  0999 V2000
   -1.9851   -0.6728   -0.4870 C   0  0  0  0  0  0  0  0  0  0  0  0
   -0.5865   -0.3200   -0.4007 C   0  0  0  0  0  0  0  0  0  0  0  0
    0.2204   -1.0863    0.6597 C   0  0  0  0  0  0  0  0  0  0  0  0
    1.5549   -0.3708    0.4098 C   0  0  0  0  0  0  0  0  0  0  0  0
    1.4741   -0.0602   -1.0284 C   0  0  0  0  0  0  0  0  0  0  0  0
    0.2080   -0.4775   -1.5015 O   0  0  0  0  0  0  0  0  0  0  0  0
    1.2625    0.9923   -0.0327 C   0  0  0  0  0  0  0  0  0  0  0  0
   -0.2654    1.0935    0.0380 C   0  0  0  0  0  0  0  0  0  0  0  0
   -0.5638    1.2728    1.3901 O   0  0  0  0  0  0  0  0  0  0  0  0
   -2.3480   -1.4406    0.2468 H   0  0  0  0  0  0  0  0  0  0  0  0
   -2.6368    0.2174   -0.3092 H   0  0  0  0  0  0  0  0  0  0  0  0
   -2.2980   -1.0615   -1.4984 H   0  0  0  0  0  0  0  0  0  0  0  0
   -0.1644   -0.9106    1.6627 H   0  0  0  0  0  0  0  0  0  0  0  0
    0.2614   -2.1427    0.3554 H   0  0  0  0  0  0  0  0  0  0  0  0
    2.4429   -0.6911    0.9310 H   0  0  0  0  0  0  0  0  0  0  0  0
    2.3492   -0.1728   -1.6570 H   0  0  0  0  0  0  0  0  0  0  0  0
    1.8769    1.8584    0.1299 H   0  0  0  0  0  0  0  0  0  0  0  0
   -0.6675    1.8633   -0.6129 H   0  0  0  0  0  0  0  0  0  0  0  0
   -0.1349    2.1090    1.7042 H   0  0  0  0  0  0  0  0  0  0  0  0
  1  2  1  0
  2  3  1  0
  3  4  1  0
  4  5  1  0
  5  6  1  0
  5  7  1  0
  7  8  1  0
  8  9  1  0
  6  2  1  0
  8  2  1  0
  7  4  1  0
  1 10  1  0
  1 11  1  0
  1 12  1  0
  3 13  1  0
  3 14  1  0
  4 15  1  0
  5 16  1  0
  7 17  1  0
  8 18  1  0
  9 19  1  0
M  END
