
     RDKit          3D

 18 19  0  0  0  0  0  0  0  0999 V2000
    0.6201   -1.2498   -0.8006 C   0  0  0  0  0  0  0  0  0  0  0  0
   -0.4920   -0.5978   -0.0641 C   0  0  0  0  0  0  0  0  0  0  0  0
   -0.9253   -1.1355    1.2970 C   0  0  0  0  0  0  0  0  0  0  0  0
   -0.2805   -0.0072    1.8538 O   0  0  0  0  0  0  0  0  0  0  0  0
   -0.0509    0.6743    0.6954 C   0  0  0  0  0  0  0  0  0  0  0  0
    1.2879    1.2580    0.3704 C   0  0  0  0  0  0  0  0  0  0  0  0
   -1.0542    0.7118   -0.4135 C   0  0  0  0  0  0  0  0  0  0  0  0
   -0.7118    1.3432   -1.5746 O   0  0  0  0  0  0  0  0  0  0  0  0
    1.5805   -0.7084   -0.7763 H   0  0  0  0  0  0  0  0  0  0  0  0
    0.3975   -1.4615   -1.8597 H   0  0  0  0  0  0  0  0  0  0  0  0
    0.8270   -2.2359   -0.2893 H   0  0  0  0  0  0  0  0  0  0  0  0
   -2.0269   -1.0020    1.4957 H   0  0  0  0  0  0  0  0  0  0  0  0
   -0.5031   -2.0988    1.5796 H   0  0  0  0  0  0  0  0  0  0  0  0
    1.2517    2.3408    0.6933 H   0  0  0  0  0  0  0  0  0  0  0  0
    1.4235    1.3258   -0.7496 H   0  0  0  0  0  0  0  0  0  0  0  0
    2.1345    0.7861    0.8683 H   0  0  0  0  0  0  0  0  0  0  0  0
   -2.0998    0.9168   -0.0671 H   0  0  0  0  0  0  0  0  0  0  0  0
   -1.3781    1.1401   -2.2586 H   0  0  0  0  0  0  0  0  0  0  0  0
  1  2  1  0
  2  3  1  0
  3  4  1  0
  4  5  1  0
  5  6  1  0
  5  7  1  0
  7  8  1  0
  5  2  1  0
  7  2  1  0
  1  9  1  0
  1 10  1  0
  1 11  1  0
  3 12  1  0
  3 13  1  0
  6 14  1  0
  6 15  1  0
  6 16  1  0
  7 17  1  0
  8 18  1  0
M  END
