
     RDKit          3D

 19 21  0  0  0  0  0  0  0  0999 V2000
   -2.1616    0.0320    0.5994 C   0  0  0  0  0  0  0  0  0  0  0  0
   -0.7169    0.0415    0.1893 C   0  0  0  0  0  0  0  0  0  0  0  0
   -0.0183   -1.2742    0.0832 C   0  0  0  0  0  0  0  0  0  0  0  0
    1.1754   -0.9235   -0.8074 C   0  0  0  0  0  0  0  0  0  0  0  0
    2.0903   -0.1186    0.0463 C   0  0  0  0  0  0  0  0  0  0  0  0
    1.5605    0.9615    0.6052 C   0  0  0  0  0  0  0  0  0  0  0  0
    0.1268    1.2343    0.2915 C   0  0  0  0  0  0  0  0  0  0  0  0
   -0.2709    0.7644   -1.0382 C   0  0  0  0  0  0  0  0  0  0  0  0
    0.6087   -0.0345   -1.7189 O   0  0  0  0  0  0  0  0  0  0  0  0
   -2.4829    0.9591    1.1078 H   0  0  0  0  0  0  0  0  0  0  0  0
   -2.3078   -0.8400    1.2745 H   0  0  0  0  0  0  0  0  0  0  0  0
   -2.7764   -0.0544   -0.3199 H   0  0  0  0  0  0  0  0  0  0  0  0
   -0.6560   -1.9491   -0.5261 H   0  0  0  0  0  0  0  0  0  0  0  0
    0.3201   -1.6986    1.0260 H   0  0  0  0  0  0  0  0  0  0  0  0
    1.6328   -1.7898   -1.2724 H   0  0  0  0  0  0  0  0  0  0  0  0
    3.1179   -0.4227    0.1822 H   0  0  0  0  0  0  0  0  0  0  0  0
    2.0877    1.6383    1.2560 H   0  0  0  0  0  0  0  0  0  0  0  0
   -0.3411    2.1470    0.6786 H   0  0  0  0  0  0  0  0  0  0  0  0
   -0.9882    1.3273   -1.6572 H   0  0  0  0  0  0  0  0  0  0  0  0
  1  2  1  0
  2  3  1  0
  3  4  1  0
  4  5  1  0
  5  6  2  0
  6  7  1  0
  7  8  1  0
  8  9  1  0
  7  2  1  0
  8  2  1  0
  9  4  1  0
  1 10  1  0
  1 11  1  0
  1 12  1  0
  3 13  1  0
  3 14  1  0
  4 15  1  0
  5 16  1  0
  6 17  1  0
  7 18  1  0
  8 19  1  0
M  END
