
     RDKit          3D

 23 25  0  0  0  0  0  0  0  0999 V2000
    2.3718   -0.7418    0.0675 C   0  0  0  0  0  0  0  0  0  0  0  0
    0.9351   -0.2773    0.0741 C   0  0  0  0  0  0  0  0  0  0  0  0
    0.0355   -1.0010    0.9898 C   0  0  0  0  0  0  0  0  0  0  0  0
   -1.3801   -0.5664    1.0072 C   0  0  0  0  0  0  0  0  0  0  0  0
   -1.6093    0.4666   -0.0573 C   0  0  0  0  0  0  0  0  0  0  0  0
   -0.6873    1.6271    0.2174 C   0  0  0  0  0  0  0  0  0  0  0  0
    0.6554    1.1435   -0.1658 C   0  0  0  0  0  0  0  0  0  0  0  0
    0.4006    0.1388   -1.2215 C   0  0  0  0  0  0  0  0  0  0  0  0
   -1.0575   -0.0958   -1.3551 C   0  0  0  0  0  0  0  0  0  0  0  0
    2.4480   -1.7509    0.5239 H   0  0  0  0  0  0  0  0  0  0  0  0
    3.0047   -0.0110    0.5848 H   0  0  0  0  0  0  0  0  0  0  0  0
    2.7531   -0.8624   -0.9871 H   0  0  0  0  0  0  0  0  0  0  0  0
    0.0723   -2.1047    0.8020 H   0  0  0  0  0  0  0  0  0  0  0  0
    0.4413   -0.8892    2.0382 H   0  0  0  0  0  0  0  0  0  0  0  0
   -1.6685   -0.0837    1.9843 H   0  0  0  0  0  0  0  0  0  0  0  0
   -2.1053   -1.3803    0.8583 H   0  0  0  0  0  0  0  0  0  0  0  0
   -2.6606    0.7360   -0.1394 H   0  0  0  0  0  0  0  0  0  0  0  0
   -0.7868    2.0563    1.2119 H   0  0  0  0  0  0  0  0  0  0  0  0
   -0.9870    2.4371   -0.5086 H   0  0  0  0  0  0  0  0  0  0  0  0
    1.5250    1.8191   -0.2258 H   0  0  0  0  0  0  0  0  0  0  0  0
    1.0621    0.2163   -2.1121 H   0  0  0  0  0  0  0  0  0  0  0  0
   -1.2246   -1.2113   -1.3551 H   0  0  0  0  0  0  0  0  0  0  0  0
   -1.5380    0.3351   -2.2315 H   0  0  0  0  0  0  0  0  0  0  0  0
  1  2  1  0
  2  3  1  0
  3  4  1  0
  4  5  1  0
  5  6  1  0
  6  7  1  0
  7  8  1  0
  8  9  1  0
  7  2  1  0
  8  2  1  0
  9  5  1  0
  1 10  1  0
  1 11  1  0
  1 12  1  0
  3 13  1  0
  3 14  1  0
  4 15  1  0
  4 16  1  0
  5 17  1  0
  6 18  1  0
  6 19  1  0
  7 20  1  0
  8 21  1  0
  9 22  1  0
  9 23  1  0
M  END
