
     RDKit          3D

 19 21  0  0  0  0  0  0  0  0999 V2000
   -2.0874   -0.4212   -0.6040 C   0  0  0  0  0  0  0  0  0  0  0  0
   -0.8265   -0.2297    0.1348 C   0  0  0  0  0  0  0  0  0  0  0  0
    0.2534   -1.2957    0.0216 C   0  0  0  0  0  0  0  0  0  0  0  0
    1.1971   -0.2164   -0.4065 C   0  0  0  0  0  0  0  0  0  0  0  0
    2.5583   -0.1794   -0.2049 C   0  0  0  0  0  0  0  0  0  0  0  0
    1.9367   -0.2970   -1.5438 O   0  0  0  0  0  0  0  0  0  0  0  0
    0.1636    0.8211   -0.2001 C   0  0  0  0  0  0  0  0  0  0  0  0
   -0.5701    0.8284    1.1133 C   0  0  0  0  0  0  0  0  0  0  0  0
   -1.3999    1.9067    1.2988 O   0  0  0  0  0  0  0  0  0  0  0  0
   -2.8793   -0.7756    0.1045 H   0  0  0  0  0  0  0  0  0  0  0  0
   -2.4135    0.4177   -1.2324 H   0  0  0  0  0  0  0  0  0  0  0  0
   -1.9459   -1.2896   -1.3130 H   0  0  0  0  0  0  0  0  0  0  0  0
    0.5511   -1.6884    1.0160 H   0  0  0  0  0  0  0  0  0  0  0  0
    0.0406   -2.0824   -0.7211 H   0  0  0  0  0  0  0  0  0  0  0  0
    3.1547   -1.0981   -0.0232 H   0  0  0  0  0  0  0  0  0  0  0  0
    3.1325    0.7877   -0.1045 H   0  0  0  0  0  0  0  0  0  0  0  0
   -0.0675    1.5850   -0.9624 H   0  0  0  0  0  0  0  0  0  0  0  0
    0.0201    0.5493    2.0336 H   0  0  0  0  0  0  0  0  0  0  0  0
   -0.8180    2.6776    1.5934 H   0  0  0  0  0  0  0  0  0  0  0  0
  1  2  1  0
  2  3  1  0
  3  4  1  0
  4  5  1  0
  5  6  1  0
  4  7  1  0
  7  8  1  0
  8  9  1  0
  7  2  1  0
  8  2  1  0
  6  4  1  0
  1 10  1  0
  1 11  1  0
  1 12  1  0
  3 13  1  0
  3 14  1  0
  5 15  1  0
  5 16  1  0
  7 17  1  0
  8 18  1  0
  9 19  1  0
M  END
