
     RDKit          3D

 23 25  0  0  0  0  0  0  0  0999 V2000
   -2.2037    1.1063   -0.1018 C   0  0  0  0  0  0  0  0  0  0  0  0
   -1.1858    0.0561    0.2385 C   0  0  0  0  0  0  0  0  0  0  0  0
   -1.5227   -1.3909    0.2250 C   0  0  0  0  0  0  0  0  0  0  0  0
   -0.7777   -0.8074   -0.8911 C   0  0  0  0  0  0  0  0  0  0  0  0
    0.6930   -0.6968   -0.9508 C   0  0  0  0  0  0  0  0  0  0  0  0
    1.6214   -1.3114   -0.0011 C   0  0  0  0  0  0  0  0  0  0  0  0
    1.1952    0.0721    0.2132 C   0  0  0  0  0  0  0  0  0  0  0  0
    2.1760    1.2115    0.0251 C   0  0  0  0  0  0  0  0  0  0  0  0
    0.0146    0.4039    1.0576 C   0  0  0  0  0  0  0  0  0  0  0  0
   -3.0473    0.6130   -0.6214 H   0  0  0  0  0  0  0  0  0  0  0  0
   -2.4869    1.6871    0.7796 H   0  0  0  0  0  0  0  0  0  0  0  0
   -1.7071    1.8019   -0.8355 H   0  0  0  0  0  0  0  0  0  0  0  0
   -2.5835   -1.6303    0.0825 H   0  0  0  0  0  0  0  0  0  0  0  0
   -1.0341   -2.0709    0.9751 H   0  0  0  0  0  0  0  0  0  0  0  0
   -1.3380   -0.7258   -1.8691 H   0  0  0  0  0  0  0  0  0  0  0  0
    1.1250   -0.3968   -1.9347 H   0  0  0  0  0  0  0  0  0  0  0  0
    2.6691   -1.4689   -0.3071 H   0  0  0  0  0  0  0  0  0  0  0  0
    1.2216   -2.1679    0.5915 H   0  0  0  0  0  0  0  0  0  0  0  0
    1.6214    2.1823    0.1369 H   0  0  0  0  0  0  0  0  0  0  0  0
    2.5738    1.2069   -1.0090 H   0  0  0  0  0  0  0  0  0  0  0  0
    2.9976    1.1399    0.7856 H   0  0  0  0  0  0  0  0  0  0  0  0
   -0.0077    1.4358    1.4324 H   0  0  0  0  0  0  0  0  0  0  0  0
   -0.0143   -0.2497    1.9786 H   0  0  0  0  0  0  0  0  0  0  0  0
  1  2  1  0
  2  3  1  0
  3  4  1  0
  4  5  1  0
  5  6  1  0
  6  7  1  0
  7  8  1  0
  7  9  1  0
  4  2  1  0
  7  5  1  0
  9  2  1  0
  1 10  1  0
  1 11  1  0
  1 12  1  0
  3 13  1  0
  3 14  1  0
  4 15  1  0
  5 16  1  0
  6 17  1  0
  6 18  1  0
  8 19  1  0
  8 20  1  0
  8 21  1  0
  9 22  1  0
  9 23  1  0
M  END
