
     RDKit          3D

 17 18  0  0  0  0  0  0  0  0999 V2000
   -1.2434   -0.5749   -0.8259 C   0  0  0  0  0  0  0  0  0  0  0  0
   -0.6879    0.2458    0.3599 C   0  0  0  0  0  0  0  0  0  0  0  0
   -0.5802   -0.4913    1.5538 C   0  0  0  0  0  0  0  0  0  0  0  0
    0.6760   -0.3142    0.9551 C   0  0  0  0  0  0  0  0  0  0  0  0
    1.2553   -0.4457   -0.4094 C   0  0  0  0  0  0  0  0  0  0  0  0
    1.0992    0.9981   -0.8417 C   0  0  0  0  0  0  0  0  0  0  0  0
    1.8520    1.5973   -1.6311 O   0  0  0  0  0  0  0  0  0  0  0  0
   -0.0815    1.4570   -0.1351 C   0  0  0  0  0  0  0  0  0  0  0  0
   -0.4554    2.6236   -0.0045 O   0  0  0  0  0  0  0  0  0  0  0  0
   -2.3528   -0.3579   -0.7862 H   0  0  0  0  0  0  0  0  0  0  0  0
   -1.1548   -1.6548   -0.6528 H   0  0  0  0  0  0  0  0  0  0  0  0
   -0.9043   -0.2355   -1.7974 H   0  0  0  0  0  0  0  0  0  0  0  0
   -0.8467    0.0541    2.5077 H   0  0  0  0  0  0  0  0  0  0  0  0
   -1.0022   -1.5194    1.6276 H   0  0  0  0  0  0  0  0  0  0  0  0
    1.3228    0.4617    1.4825 H   0  0  0  0  0  0  0  0  0  0  0  0
    0.7721   -1.1414   -1.0811 H   0  0  0  0  0  0  0  0  0  0  0  0
    2.3320   -0.7023   -0.3216 H   0  0  0  0  0  0  0  0  0  0  0  0
  1  2  1  0
  2  3  1  0
  3  4  1  0
  4  5  1  0
  5  6  1  0
  6  7  2  0
  6  8  1  0
  8  9  2  0
  4  2  1  0
  8  2  1  0
  1 10  1  0
  1 11  1  0
  1 12  1  0
  3 13  1  0
  3 14  1  0
  4 15  1  0
  5 16  1  0
  5 17  1  0
M  END
