
     RDKit          3D

 19 21  0  0  0  0  0  0  0  0999 V2000
   -1.1879   -1.5442   -0.1614 C   0  0  0  0  0  0  0  0  0  0  0  0
   -1.1311   -0.0900   -0.4200 C   0  0  0  0  0  0  0  0  0  0  0  0
   -0.2993    0.3827   -1.5899 C   0  0  0  0  0  0  0  0  0  0  0  0
    0.0129    0.7705   -0.1989 C   0  0  0  0  0  0  0  0  0  0  0  0
    1.2572    0.3935    0.5028 C   0  0  0  0  0  0  0  0  0  0  0  0
    2.1315   -0.6563    0.1070 C   0  0  0  0  0  0  0  0  0  0  0  0
    1.3135   -0.8359    1.2091 O   0  0  0  0  0  0  0  0  0  0  0  0
   -0.9545    1.7653    0.4062 C   0  0  0  0  0  0  0  0  0  0  0  0
   -1.9472    0.8025    0.2506 O   0  0  0  0  0  0  0  0  0  0  0  0
   -0.7340   -1.8896    0.7723 H   0  0  0  0  0  0  0  0  0  0  0  0
   -2.2658   -1.8664   -0.2465 H   0  0  0  0  0  0  0  0  0  0  0  0
   -0.6725   -2.0858   -0.9905 H   0  0  0  0  0  0  0  0  0  0  0  0
   -0.7234    1.2078   -2.2291 H   0  0  0  0  0  0  0  0  0  0  0  0
    0.2696   -0.3902   -2.1040 H   0  0  0  0  0  0  0  0  0  0  0  0
    1.6717    1.2206    1.1531 H   0  0  0  0  0  0  0  0  0  0  0  0
    3.2300   -0.6081    0.3509 H   0  0  0  0  0  0  0  0  0  0  0  0
    1.9238   -1.2674   -0.7686 H   0  0  0  0  0  0  0  0  0  0  0  0
   -1.1555    2.5894   -0.3391 H   0  0  0  0  0  0  0  0  0  0  0  0
   -0.7391    2.1016    1.4137 H   0  0  0  0  0  0  0  0  0  0  0  0
  1  2  1  0
  2  3  1  0
  3  4  1  0
  4  5  1  0
  5  6  1  0
  6  7  1  0
  4  8  1  0
  8  9  1  0
  4  2  1  0
  7  5  1  0
  9  2  1  0
  1 10  1  0
  1 11  1  0
  1 12  1  0
  3 13  1  0
  3 14  1  0
  5 15  1  0
  6 16  1  0
  6 17  1  0
  8 18  1  0
  8 19  1  0
M  END
