
     RDKit          3D

 18 19  0  0  0  0  0  0  0  0999 V2000
   -1.5882   -1.0932    0.4113 C   0  0  0  0  0  0  0  0  0  0  0  0
   -0.7197   -0.0797   -0.2399 C   0  0  0  0  0  0  0  0  0  0  0  0
   -1.1527    1.3756   -0.0139 C   0  0  0  0  0  0  0  0  0  0  0  0
   -0.0340    2.1272   -0.2449 O   0  0  0  0  0  0  0  0  0  0  0  0
    1.0894    1.3644   -0.0343 C   0  0  0  0  0  0  0  0  0  0  0  0
    0.6570   -0.0700   -0.2954 C   0  0  0  0  0  0  0  0  0  0  0  0
    1.6540   -1.1568   -0.1178 C   0  0  0  0  0  0  0  0  0  0  0  0
   -0.1416   -0.2827   -1.4689 O   0  0  0  0  0  0  0  0  0  0  0  0
   -1.4883   -0.9725    1.5174 H   0  0  0  0  0  0  0  0  0  0  0  0
   -1.2869   -2.1201    0.1801 H   0  0  0  0  0  0  0  0  0  0  0  0
   -2.6401   -0.9039    0.1243 H   0  0  0  0  0  0  0  0  0  0  0  0
   -1.8699    1.5826   -0.8622 H   0  0  0  0  0  0  0  0  0  0  0  0
   -1.6073    1.5259    0.9646 H   0  0  0  0  0  0  0  0  0  0  0  0
    1.9356    1.5988   -0.6811 H   0  0  0  0  0  0  0  0  0  0  0  0
    1.3462    1.4070    1.0612 H   0  0  0  0  0  0  0  0  0  0  0  0
    1.1867   -2.1414    0.0362 H   0  0  0  0  0  0  0  0  0  0  0  0
    2.3661   -0.9834    0.7113 H   0  0  0  0  0  0  0  0  0  0  0  0
    2.2936   -1.1778   -1.0480 H   0  0  0  0  0  0  0  0  0  0  0  0
  1  2  1  0
  2  3  1  0
  3  4  1  0
  4  5  1  0
  5  6  1  0
  6  7  1  0
  6  8  1  0
  6  2  1  0
  8  2  1  0
  1  9  1  0
  1 10  1  0
  1 11  1  0
  3 12  1  0
  3 13  1  0
  5 14  1  0
  5 15  1  0
  7 16  1  0
  7 17  1  0
  7 18  1  0
M  END
