
     RDKit          3D

 21 22  0  0  0  0  0  0  0  0999 V2000
    0.3177    1.8651    0.6629 C   0  0  0  0  0  0  0  0  0  0  0  0
   -0.1267    0.5764    0.1937 C   0  0  0  0  0  0  0  0  0  0  0  0
   -1.5173    0.0872    0.4563 C   0  0  0  0  0  0  0  0  0  0  0  0
   -1.4465   -1.2609   -0.2918 C   0  0  0  0  0  0  0  0  0  0  0  0
   -0.0374   -1.1874   -0.7896 C   0  0  0  0  0  0  0  0  0  0  0  0
    0.0505    0.2392   -1.2946 C   0  0  0  0  0  0  0  0  0  0  0  0
    0.6935   -0.6573    0.4511 C   0  0  0  0  0  0  0  0  0  0  0  0
    2.1385   -0.5285    0.3086 C   0  0  0  0  0  0  0  0  0  0  0  0
    2.8525   -0.4963    1.2919 O   0  0  0  0  0  0  0  0  0  0  0  0
    0.7857    1.7958    1.6664 H   0  0  0  0  0  0  0  0  0  0  0  0
   -0.5286    2.5716    0.7585 H   0  0  0  0  0  0  0  0  0  0  0  0
    1.0197    2.3219   -0.0940 H   0  0  0  0  0  0  0  0  0  0  0  0
   -1.6807   -0.1470    1.5131 H   0  0  0  0  0  0  0  0  0  0  0  0
   -2.2916    0.7325    0.0322 H   0  0  0  0  0  0  0  0  0  0  0  0
   -1.5353   -2.1063    0.3889 H   0  0  0  0  0  0  0  0  0  0  0  0
   -2.2048   -1.3139   -1.0852 H   0  0  0  0  0  0  0  0  0  0  0  0
    0.4039   -1.9694   -1.3366 H   0  0  0  0  0  0  0  0  0  0  0  0
   -0.8575    0.5834   -1.8246 H   0  0  0  0  0  0  0  0  0  0  0  0
    1.0180    0.5289   -1.7104 H   0  0  0  0  0  0  0  0  0  0  0  0
    0.3238   -1.1772    1.3599 H   0  0  0  0  0  0  0  0  0  0  0  0
    2.6224   -0.4580   -0.6568 H   0  0  0  0  0  0  0  0  0  0  0  0
  1  2  1  0
  2  3  1  0
  3  4  1  0
  4  5  1  0
  5  6  1  0
  5  7  1  0
  7  8  1  0
  8  9  2  0
  6  2  1  0
  7  2  1  0
  1 10  1  0
  1 11  1  0
  1 12  1  0
  3 13  1  0
  3 14  1  0
  4 15  1  0
  4 16  1  0
  5 17  1  0
  6 18  1  0
  6 19  1  0
  7 20  1  0
  8 21  1  0
M  END
