
     RDKit          3D

 16 17  0  0  0  0  0  0  0  0999 V2000
    1.9224    0.3464    0.2553 C   0  0  0  0  0  0  0  0  0  0  0  0
    0.4627    0.0819    0.3179 C   0  0  0  0  0  0  0  0  0  0  0  0
   -0.1628   -0.3412    1.4632 O   0  0  0  0  0  0  0  0  0  0  0  0
   -0.7886   -1.3693    0.7397 C   0  0  0  0  0  0  0  0  0  0  0  0
   -0.2394   -0.8581   -0.5597 C   0  0  0  0  0  0  0  0  0  0  0  0
   -0.4117    0.5937   -0.8214 C   0  0  0  0  0  0  0  0  0  0  0  0
   -1.6161    1.3110   -0.3947 C   0  0  0  0  0  0  0  0  0  0  0  0
   -2.2662    0.9654    0.5674 O   0  0  0  0  0  0  0  0  0  0  0  0
    2.2070    0.5064   -0.8104 H   0  0  0  0  0  0  0  0  0  0  0  0
    2.5615   -0.4452    0.6883 H   0  0  0  0  0  0  0  0  0  0  0  0
    2.1628    1.3042    0.7833 H   0  0  0  0  0  0  0  0  0  0  0  0
   -1.8937   -1.3354    0.7454 H   0  0  0  0  0  0  0  0  0  0  0  0
   -0.3604   -2.3848    0.9495 H   0  0  0  0  0  0  0  0  0  0  0  0
    0.2523   -1.5305   -1.2706 H   0  0  0  0  0  0  0  0  0  0  0  0
    0.1226    0.9753   -1.7096 H   0  0  0  0  0  0  0  0  0  0  0  0
   -1.9525    2.1800   -0.9436 H   0  0  0  0  0  0  0  0  0  0  0  0
  1  2  1  0
  2  3  1  0
  3  4  1  0
  4  5  1  0
  5  6  1  0
  6  7  1  0
  7  8  2  0
  5  2  1  0
  6  2  1  0
  1  9  1  0
  1 10  1  0
  1 11  1  0
  4 12  1  0
  4 13  1  0
  5 14  1  0
  6 15  1  0
  7 16  1  0
M  END
