
     RDKit          3D

 17 19  0  0  0  0  0  0  0  0999 V2000
    2.0229   -0.6644   -0.4049 C   0  0  0  0  0  0  0  0  0  0  0  0
    0.7331    0.0466   -0.3813 C   0  0  0  0  0  0  0  0  0  0  0  0
   -0.1776   -0.3379   -1.3610 O   0  0  0  0  0  0  0  0  0  0  0  0
   -0.4887   -0.1042    0.0724 C   0  0  0  0  0  0  0  0  0  0  0  0
   -1.4372   -1.0895    0.5709 C   0  0  0  0  0  0  0  0  0  0  0  0
   -2.6326   -0.9960   -0.1786 O   0  0  0  0  0  0  0  0  0  0  0  0
   -0.7244    1.3652    0.3232 C   0  0  0  0  0  0  0  0  0  0  0  0
   -0.3058    2.3028   -0.5890 O   0  0  0  0  0  0  0  0  0  0  0  0
    0.7403    1.5580   -0.1084 C   0  0  0  0  0  0  0  0  0  0  0  0
    1.8744   -1.7425   -0.4218 H   0  0  0  0  0  0  0  0  0  0  0  0
    2.6362   -0.3824   -1.3067 H   0  0  0  0  0  0  0  0  0  0  0  0
    2.6409   -0.3180    0.4654 H   0  0  0  0  0  0  0  0  0  0  0  0
   -1.0369   -2.1155    0.5550 H   0  0  0  0  0  0  0  0  0  0  0  0
   -1.7003   -0.8695    1.6260 H   0  0  0  0  0  0  0  0  0  0  0  0
   -2.5795   -0.2403   -0.8358 H   0  0  0  0  0  0  0  0  0  0  0  0
   -1.0122    1.6352    1.3393 H   0  0  0  0  0  0  0  0  0  0  0  0
    1.4475    1.9525    0.6353 H   0  0  0  0  0  0  0  0  0  0  0  0
  1  2  1  0
  2  3  1  0
  3  4  1  0
  4  5  1  0
  5  6  1  0
  4  7  1  0
  7  8  1  0
  8  9  1  0
  4  2  1  0
  9  7  1  0
  9  2  1  0
  1 10  1  0
  1 11  1  0
  1 12  1  0
  5 13  1  0
  5 14  1  0
  6 15  1  0
  7 16  1  0
  9 17  1  0
M  END
