
     RDKit          3D

 19 21  0  0  0  0  0  0  0  0999 V2000
   -1.3662   -1.5587   -0.8459 C   0  0  0  0  0  0  0  0  0  0  0  0
   -0.5476   -0.4592   -0.3635 C   0  0  0  0  0  0  0  0  0  0  0  0
   -0.9083    0.5795    0.5879 C   0  0  0  0  0  0  0  0  0  0  0  0
   -0.3730    1.8536   -0.0736 C   0  0  0  0  0  0  0  0  0  0  0  0
    0.2545    1.4725   -1.2267 O   0  0  0  0  0  0  0  0  0  0  0  0
    0.6008    0.1355   -1.1339 C   0  0  0  0  0  0  0  0  0  0  0  0
    1.4831   -0.2135    0.0510 C   0  0  0  0  0  0  0  0  0  0  0  0
    2.2837    0.7984    0.5187 O   0  0  0  0  0  0  0  0  0  0  0  0
    0.2302   -0.3996    0.8633 C   0  0  0  0  0  0  0  0  0  0  0  0
   -1.7127   -2.2184   -0.0191 H   0  0  0  0  0  0  0  0  0  0  0  0
   -0.7392   -2.2320   -1.4996 H   0  0  0  0  0  0  0  0  0  0  0  0
   -2.2572   -1.2131   -1.3757 H   0  0  0  0  0  0  0  0  0  0  0  0
   -1.7715    0.6137    1.2297 H   0  0  0  0  0  0  0  0  0  0  0  0
    0.3577    2.3427    0.5870 H   0  0  0  0  0  0  0  0  0  0  0  0
   -1.2194    2.5544   -0.2197 H   0  0  0  0  0  0  0  0  0  0  0  0
    0.8587   -0.3214   -2.0850 H   0  0  0  0  0  0  0  0  0  0  0  0
    2.0083   -1.1678   -0.1436 H   0  0  0  0  0  0  0  0  0  0  0  0
    2.6422    0.5197    1.3959 H   0  0  0  0  0  0  0  0  0  0  0  0
    0.1759   -1.0863    1.6981 H   0  0  0  0  0  0  0  0  0  0  0  0
  1  2  1  0
  2  3  1  0
  3  4  1  0
  4  5  1  0
  5  6  1  0
  6  7  1  0
  7  8  1  0
  7  9  1  0
  6  2  1  0
  9  2  1  0
  9  3  1  0
  1 10  1  0
  1 11  1  0
  1 12  1  0
  3 13  1  0
  4 14  1  0
  4 15  1  0
  6 16  1  0
  7 17  1  0
  8 18  1  0
  9 19  1  0
M  END
