
     RDKit          3D

 19 21  0  0  0  0  0  0  0  0999 V2000
    1.9747   -0.2293    0.4484 C   0  0  0  0  0  0  0  0  0  0  0  0
    0.6544   -0.1089   -0.1327 C   0  0  0  0  0  0  0  0  0  0  0  0
    0.1875    1.1880   -0.7694 C   0  0  0  0  0  0  0  0  0  0  0  0
   -0.8216    1.2917    0.3395 C   0  0  0  0  0  0  0  0  0  0  0  0
   -0.6465   -0.1873    0.5779 C   0  0  0  0  0  0  0  0  0  0  0  0
   -0.6857   -0.6359    1.8575 O   0  0  0  0  0  0  0  0  0  0  0  0
   -1.4747   -0.9921   -0.4317 C   0  0  0  0  0  0  0  0  0  0  0  0
   -0.9413   -0.7622   -1.6676 O   0  0  0  0  0  0  0  0  0  0  0  0
    0.2796   -0.1312   -1.5419 C   0  0  0  0  0  0  0  0  0  0  0  0
    2.5231    0.7507    0.5740 H   0  0  0  0  0  0  0  0  0  0  0  0
    2.6664   -0.8386   -0.1969 H   0  0  0  0  0  0  0  0  0  0  0  0
    2.0093   -0.7024    1.4493 H   0  0  0  0  0  0  0  0  0  0  0  0
    0.9110    1.9787   -0.9674 H   0  0  0  0  0  0  0  0  0  0  0  0
   -0.4252    1.8462    1.2395 H   0  0  0  0  0  0  0  0  0  0  0  0
   -1.8040    1.6249    0.0136 H   0  0  0  0  0  0  0  0  0  0  0  0
   -1.5722   -1.0909    2.0002 H   0  0  0  0  0  0  0  0  0  0  0  0
   -2.5162   -0.7085   -0.2996 H   0  0  0  0  0  0  0  0  0  0  0  0
   -1.3781   -2.0767   -0.2061 H   0  0  0  0  0  0  0  0  0  0  0  0
    1.0596   -0.2162   -2.2865 H   0  0  0  0  0  0  0  0  0  0  0  0
  1  2  1  0
  2  3  1  0
  3  4  1  0
  4  5  1  0
  5  6  1  0
  5  7  1  0
  7  8  1  0
  8  9  1  0
  5  2  1  0
  9  2  1  0
  9  3  1  0
  1 10  1  0
  1 11  1  0
  1 12  1  0
  3 13  1  0
  4 14  1  0
  4 15  1  0
  6 16  1  0
  7 17  1  0
  7 18  1  0
  9 19  1  0
M  END
