
     RDKit          3D

 15 17  0  0  0  0  0  0  0  0999 V2000
   -1.9303   -0.1675    0.2891 C   0  0  0  0  0  0  0  0  0  0  0  0
   -0.5326   -0.3784   -0.1556 C   0  0  0  0  0  0  0  0  0  0  0  0
   -0.2465   -0.5661   -1.4832 O   0  0  0  0  0  0  0  0  0  0  0  0
    0.1343    0.6823   -1.0528 C   0  0  0  0  0  0  0  0  0  0  0  0
    1.4186    0.8026   -0.2502 C   0  0  0  0  0  0  0  0  0  0  0  0
    0.9476    0.8073    1.0836 O   0  0  0  0  0  0  0  0  0  0  0  0
    0.5890   -0.5081    0.8549 C   0  0  0  0  0  0  0  0  0  0  0  0
    1.7873   -0.5954   -0.0296 C   0  0  0  0  0  0  0  0  0  0  0  0
    2.5624   -1.4667   -0.3090 O   0  0  0  0  0  0  0  0  0  0  0  0
   -2.6205   -0.6552   -0.4560 H   0  0  0  0  0  0  0  0  0  0  0  0
   -2.2198    0.8857    0.4559 H   0  0  0  0  0  0  0  0  0  0  0  0
   -2.0778   -0.7492    1.2417 H   0  0  0  0  0  0  0  0  0  0  0  0
   -0.4357    1.5675   -1.3215 H   0  0  0  0  0  0  0  0  0  0  0  0
    2.1347    1.5325   -0.5279 H   0  0  0  0  0  0  0  0  0  0  0  0
    0.4893   -1.1914    1.6605 H   0  0  0  0  0  0  0  0  0  0  0  0
  1  2  1  0
  2  3  1  0
  3  4  1  0
  4  5  1  0
  5  6  1  0
  6  7  1  0
  7  8  1  0
  8  9  2  0
  4  2  1  0
  8  5  1  0
  7  2  1  0
  1 10  1  0
  1 11  1  0
  1 12  1  0
  4 13  1  0
  5 14  1  0
  7 15  1  0
M  END
