
     RDKit          3D

 21 22  0  0  0  0  0  0  0  0999 V2000
    1.5839   -1.1273    1.1779 C   0  0  0  0  0  0  0  0  0  0  0  0
    1.0278   -0.2777    0.0645 C   0  0  0  0  0  0  0  0  0  0  0  0
    0.5834   -0.8243   -1.2135 C   0  0  0  0  0  0  0  0  0  0  0  0
   -0.3989   -0.2940   -0.2366 C   0  0  0  0  0  0  0  0  0  0  0  0
   -1.3824   -1.2312    0.3531 C   0  0  0  0  0  0  0  0  0  0  0  0
   -0.8050    1.1547   -0.2364 C   0  0  0  0  0  0  0  0  0  0  0  0
   -1.6672    1.4962   -1.2477 O   0  0  0  0  0  0  0  0  0  0  0  0
    0.4928    1.8757   -0.2347 C   0  0  0  0  0  0  0  0  0  0  0  0
    1.5039    1.0191    0.0686 O   0  0  0  0  0  0  0  0  0  0  0  0
    1.5084   -0.4968    2.1133 H   0  0  0  0  0  0  0  0  0  0  0  0
    1.0182   -2.0371    1.3770 H   0  0  0  0  0  0  0  0  0  0  0  0
    2.6432   -1.4133    1.0231 H   0  0  0  0  0  0  0  0  0  0  0  0
    0.7220   -0.1912   -2.1332 H   0  0  0  0  0  0  0  0  0  0  0  0
    0.5423   -1.8971   -1.4524 H   0  0  0  0  0  0  0  0  0  0  0  0
   -2.1396   -0.6787    0.9741 H   0  0  0  0  0  0  0  0  0  0  0  0
   -0.9828   -2.0267    0.9775 H   0  0  0  0  0  0  0  0  0  0  0  0
   -1.9221   -1.7394   -0.4980 H   0  0  0  0  0  0  0  0  0  0  0  0
   -1.3343    1.3303    0.7436 H   0  0  0  0  0  0  0  0  0  0  0  0
   -2.1885    2.2847   -0.9451 H   0  0  0  0  0  0  0  0  0  0  0  0
    0.4933    2.6937    0.5362 H   0  0  0  0  0  0  0  0  0  0  0  0
    0.7018    2.3805   -1.2114 H   0  0  0  0  0  0  0  0  0  0  0  0
  1  2  1  0
  2  3  1  0
  3  4  1  0
  4  5  1  0
  4  6  1  0
  6  7  1  0
  6  8  1  0
  8  9  1  0
  4  2  1  0
  9  2  1  0
  1 10  1  0
  1 11  1  0
  1 12  1  0
  3 13  1  0
  3 14  1  0
  5 15  1  0
  5 16  1  0
  5 17  1  0
  6 18  1  0
  7 19  1  0
  8 20  1  0
  8 21  1  0
M  END
