
     RDKit          3D

 17 18  0  0  0  0  0  0  0  0999 V2000
    2.0467    0.1380    0.5378 C   0  0  0  0  0  0  0  0  0  0  0  0
    0.6527    0.0465   -0.0006 C   0  0  0  0  0  0  0  0  0  0  0  0
   -0.3428    0.9415    0.7150 C   0  0  0  0  0  0  0  0  0  0  0  0
   -1.4410    1.2313   -0.2417 C   0  0  0  0  0  0  0  0  0  0  0  0
   -1.8239    2.4033   -0.4239 O   0  0  0  0  0  0  0  0  0  0  0  0
   -1.9913    0.1351   -0.8966 O   0  0  0  0  0  0  0  0  0  0  0  0
   -1.4211   -1.1493   -0.6072 C   0  0  0  0  0  0  0  0  0  0  0  0
    0.0751   -1.0647   -0.5990 C   0  0  0  0  0  0  0  0  0  0  0  0
    0.5743   -0.0272   -1.3977 O   0  0  0  0  0  0  0  0  0  0  0  0
    2.6803    0.7464   -0.1658 H   0  0  0  0  0  0  0  0  0  0  0  0
    2.0906    0.7003    1.5137 H   0  0  0  0  0  0  0  0  0  0  0  0
    2.5148   -0.8393    0.7513 H   0  0  0  0  0  0  0  0  0  0  0  0
   -0.7985    0.3382    1.5502 H   0  0  0  0  0  0  0  0  0  0  0  0
    0.1549    1.8462    1.0913 H   0  0  0  0  0  0  0  0  0  0  0  0
   -1.7020   -1.7993   -1.4858 H   0  0  0  0  0  0  0  0  0  0  0  0
   -1.8493   -1.5954    0.3013 H   0  0  0  0  0  0  0  0  0  0  0  0
    0.5807   -2.0515   -0.6424 H   0  0  0  0  0  0  0  0  0  0  0  0
  1  2  1  0
  2  3  1  0
  3  4  1  0
  4  5  2  0
  4  6  1  0
  6  7  1  0
  7  8  1  0
  8  9  1  0
  8  2  1  0
  9  2  1  0
  1 10  1  0
  1 11  1  0
  1 12  1  0
  3 13  1  0
  3 14  1  0
  7 15  1  0
  7 16  1  0
  8 17  1  0
M  END
