
     RDKit          3D

 19 21  0  0  0  0  0  0  0  0999 V2000
   -1.7242   -1.0811   -0.2041 C   0  0  0  0  0  0  0  0  0  0  0  0
   -1.0880    0.2486   -0.0606 C   0  0  0  0  0  0  0  0  0  0  0  0
   -0.8070    1.1313   -1.2367 C   0  0  0  0  0  0  0  0  0  0  0  0
    0.4470    1.4596   -0.6788 O   0  0  0  0  0  0  0  0  0  0  0  0
    0.2872    0.4994    0.3032 C   0  0  0  0  0  0  0  0  0  0  0  0
    1.3197   -0.5213    0.5854 C   0  0  0  0  0  0  0  0  0  0  0  0
    2.6091   -0.3548   -0.1965 C   0  0  0  0  0  0  0  0  0  0  0  0
    1.7403   -1.4257   -0.3809 O   0  0  0  0  0  0  0  0  0  0  0  0
   -0.8163    0.7647    1.2979 C   0  0  0  0  0  0  0  0  0  0  0  0
   -1.9292   -1.3914   -1.2311 H   0  0  0  0  0  0  0  0  0  0  0  0
   -1.1206   -1.8311    0.3460 H   0  0  0  0  0  0  0  0  0  0  0  0
   -2.7261   -1.0642    0.3176 H   0  0  0  0  0  0  0  0  0  0  0  0
   -0.6312    0.6151   -2.2027 H   0  0  0  0  0  0  0  0  0  0  0  0
   -1.4188    2.0577   -1.3036 H   0  0  0  0  0  0  0  0  0  0  0  0
    1.4318   -0.8676    1.6398 H   0  0  0  0  0  0  0  0  0  0  0  0
    2.6272    0.3573   -1.0491 H   0  0  0  0  0  0  0  0  0  0  0  0
    3.5412   -0.4867    0.3783 H   0  0  0  0  0  0  0  0  0  0  0  0
   -0.8218    0.0353    2.1398 H   0  0  0  0  0  0  0  0  0  0  0  0
   -0.9201    1.8550    1.5359 H   0  0  0  0  0  0  0  0  0  0  0  0
  1  2  1  0
  2  3  1  0
  3  4  1  0
  4  5  1  0
  5  6  1  0
  6  7  1  0
  7  8  1  0
  5  9  1  0
  5  2  1  0
  8  6  1  0
  9  2  1  0
  1 10  1  0
  1 11  1  0
  1 12  1  0
  3 13  1  0
  3 14  1  0
  6 15  1  0
  7 16  1  0
  7 17  1  0
  9 18  1  0
  9 19  1  0
M  END
