
     RDKit          3D

 19 20  0  0  0  0  0  0  0  0999 V2000
   -1.8429   -0.4992   -0.7276 C   0  0  0  0  0  0  0  0  0  0  0  0
   -0.5309   -0.1981    0.0088 C   0  0  0  0  0  0  0  0  0  0  0  0
    0.6161   -1.0891   -0.2565 C   0  0  0  0  0  0  0  0  0  0  0  0
    1.8751   -0.4227   -0.6812 C   0  0  0  0  0  0  0  0  0  0  0  0
    2.1176    0.6637    0.2022 O   0  0  0  0  0  0  0  0  0  0  0  0
    1.1329    1.6200    0.3636 C   0  0  0  0  0  0  0  0  0  0  0  0
    1.3777    2.8550    0.4890 O   0  0  0  0  0  0  0  0  0  0  0  0
   -0.2745    1.1761    0.3908 C   0  0  0  0  0  0  0  0  0  0  0  0
   -0.7663    0.2660    1.4475 C   0  0  0  0  0  0  0  0  0  0  0  0
   -2.4002   -1.1869   -0.0285 H   0  0  0  0  0  0  0  0  0  0  0  0
   -1.6753   -0.9366   -1.7078 H   0  0  0  0  0  0  0  0  0  0  0  0
   -2.4271    0.4402   -0.7995 H   0  0  0  0  0  0  0  0  0  0  0  0
    0.8593   -1.7240    0.6410 H   0  0  0  0  0  0  0  0  0  0  0  0
    0.3334   -1.8188   -1.0652 H   0  0  0  0  0  0  0  0  0  0  0  0
    2.7156   -1.1421   -0.5850 H   0  0  0  0  0  0  0  0  0  0  0  0
    1.7854   -0.1158   -1.7290 H   0  0  0  0  0  0  0  0  0  0  0  0
   -1.0182    1.9423    0.0394 H   0  0  0  0  0  0  0  0  0  0  0  0
   -0.0864   -0.2097    2.1853 H   0  0  0  0  0  0  0  0  0  0  0  0
   -1.7910    0.3797    1.8128 H   0  0  0  0  0  0  0  0  0  0  0  0
  1  2  1  0
  2  3  1  0
  3  4  1  0
  4  5  1  0
  5  6  1  0
  6  7  2  0
  6  8  1  0
  8  9  1  0
  8  2  1  0
  9  2  1  0
  1 10  1  0
  1 11  1  0
  1 12  1  0
  3 13  1  0
  3 14  1  0
  4 15  1  0
  4 16  1  0
  8 17  1  0
  9 18  1  0
  9 19  1  0
M  END
