
     RDKit          3D

 15 16  0  0  0  0  0  0  0  0999 V2000
    2.0615   -0.0164   -0.0091 C   0  0  0  0  0  0  0  0  0  0  0  0
    0.6277    0.3571    0.0247 C   0  0  0  0  0  0  0  0  0  0  0  0
   -0.3439   -0.3686    0.9251 C   0  0  0  0  0  0  0  0  0  0  0  0
   -1.4470    0.0660   -0.0451 C   0  0  0  0  0  0  0  0  0  0  0  0
   -2.2010   -0.9499   -0.5659 O   0  0  0  0  0  0  0  0  0  0  0  0
   -0.3062    0.5614   -0.9382 C   0  0  0  0  0  0  0  0  0  0  0  0
    0.3480    1.6631   -0.3722 O   0  0  0  0  0  0  0  0  0  0  0  0
    2.3992   -0.5300   -0.9202 H   0  0  0  0  0  0  0  0  0  0  0  0
    2.2736   -0.6951    0.8638 H   0  0  0  0  0  0  0  0  0  0  0  0
    2.7360    0.8692    0.1683 H   0  0  0  0  0  0  0  0  0  0  0  0
   -0.1761   -1.4709    0.8130 H   0  0  0  0  0  0  0  0  0  0  0  0
   -0.4459    0.0066    1.9431 H   0  0  0  0  0  0  0  0  0  0  0  0
   -2.0305    0.9318    0.2865 H   0  0  0  0  0  0  0  0  0  0  0  0
   -3.1200   -0.8711   -0.1584 H   0  0  0  0  0  0  0  0  0  0  0  0
   -0.3754    0.4468   -2.0154 H   0  0  0  0  0  0  0  0  0  0  0  0
  1  2  1  0
  2  3  1  0
  3  4  1  0
  4  5  1  0
  4  6  1  0
  6  7  1  0
  6  2  1  0
  7  2  1  0
  1  8  1  0
  1  9  1  0
  1 10  1  0
  3 11  1  0
  3 12  1  0
  4 13  1  0
  5 14  1  0
  6 15  1  0
M  END
