
     RDKit          3D

 19 20  0  0  0  0  0  0  0  0999 V2000
   -1.7415   -1.4508    0.0127 C   0  0  0  0  0  0  0  0  0  0  0  0
   -0.7990   -0.3609   -0.4120 C   0  0  0  0  0  0  0  0  0  0  0  0
   -1.3891    0.9042   -0.8793 C   0  0  0  0  0  0  0  0  0  0  0  0
   -0.7030    0.9027    0.4075 C   0  0  0  0  0  0  0  0  0  0  0  0
    0.8000    1.1730    0.3786 C   0  0  0  0  0  0  0  0  0  0  0  0
    1.3124   -0.2671    0.2462 C   0  0  0  0  0  0  0  0  0  0  0  0
    2.7277   -0.3196   -0.1394 C   0  0  0  0  0  0  0  0  0  0  0  0
    3.5664    0.0529    0.6340 O   0  0  0  0  0  0  0  0  0  0  0  0
    0.4677   -0.7371   -0.7679 O   0  0  0  0  0  0  0  0  0  0  0  0
   -1.8744   -2.1508   -0.8376 H   0  0  0  0  0  0  0  0  0  0  0  0
   -2.7411   -1.0149    0.2251 H   0  0  0  0  0  0  0  0  0  0  0  0
   -1.3214   -2.0199    0.8524 H   0  0  0  0  0  0  0  0  0  0  0  0
   -0.8912    1.3919   -1.7482 H   0  0  0  0  0  0  0  0  0  0  0  0
   -2.4862    1.0320   -0.8677 H   0  0  0  0  0  0  0  0  0  0  0  0
   -1.2091    0.9243    1.3874 H   0  0  0  0  0  0  0  0  0  0  0  0
    1.1213    1.6457    1.3061 H   0  0  0  0  0  0  0  0  0  0  0  0
    1.0686    1.7412   -0.5419 H   0  0  0  0  0  0  0  0  0  0  0  0
    1.0849   -0.7586    1.2072 H   0  0  0  0  0  0  0  0  0  0  0  0
    3.0069   -0.6881   -1.1043 H   0  0  0  0  0  0  0  0  0  0  0  0
  1  2  1  0
  2  3  1  0
  3  4  1  0
  4  5  1  0
  5  6  1  0
  6  7  1  0
  7  8  2  0
  6  9  1  0
  4  2  1  0
  9  2  1  0
  1 10  1  0
  1 11  1  0
  1 12  1  0
  3 13  1  0
  3 14  1  0
  4 15  1  0
  5 16  1  0
  5 17  1  0
  6 18  1  0
  7 19  1  0
M  END
