
     RDKit          3D

 19 20  0  0  0  0  0  0  0  0999 V2000
    0.5847    2.0380    0.1477 C   0  0  0  0  0  0  0  0  0  0  0  0
    0.3689    0.5510    0.3055 C   0  0  0  0  0  0  0  0  0  0  0  0
   -0.5955    0.1771    1.1965 O   0  0  0  0  0  0  0  0  0  0  0  0
   -1.8376   -0.0520    0.6076 C   0  0  0  0  0  0  0  0  0  0  0  0
   -1.6624   -1.1868   -0.3467 C   0  0  0  0  0  0  0  0  0  0  0  0
   -0.5289   -1.2604   -1.0213 C   0  0  0  0  0  0  0  0  0  0  0  0
    0.5734   -0.2862   -0.8867 C   0  0  0  0  0  0  0  0  0  0  0  0
    1.5509   -0.3755    0.2236 C   0  0  0  0  0  0  0  0  0  0  0  0
    1.5599   -1.5371    0.9630 O   0  0  0  0  0  0  0  0  0  0  0  0
   -0.1253    2.3928   -0.6540 H   0  0  0  0  0  0  0  0  0  0  0  0
    1.6285    2.3041   -0.0918 H   0  0  0  0  0  0  0  0  0  0  0  0
    0.2763    2.5715    1.0711 H   0  0  0  0  0  0  0  0  0  0  0  0
   -2.5082   -0.4212    1.4262 H   0  0  0  0  0  0  0  0  0  0  0  0
   -2.2792    0.8283    0.1414 H   0  0  0  0  0  0  0  0  0  0  0  0
   -2.4674   -1.9357   -0.4739 H   0  0  0  0  0  0  0  0  0  0  0  0
   -0.4508   -2.1247   -1.7174 H   0  0  0  0  0  0  0  0  0  0  0  0
    0.9058    0.1679   -1.8588 H   0  0  0  0  0  0  0  0  0  0  0  0
    2.5421    0.0813    0.0265 H   0  0  0  0  0  0  0  0  0  0  0  0
    2.4649   -1.9323    0.9416 H   0  0  0  0  0  0  0  0  0  0  0  0
  1  2  1  0
  2  3  1  0
  3  4  1  0
  4  5  1  0
  5  6  2  0
  6  7  1  0
  7  8  1  0
  8  9  1  0
  7  2  1  0
  8  2  1  0
  1 10  1  0
  1 11  1  0
  1 12  1  0
  4 13  1  0
  4 14  1  0
  5 15  1  0
  6 16  1  0
  7 17  1  0
  8 18  1  0
  9 19  1  0
M  END
