
     RDKit          3D

 15 17  0  0  0  0  0  0  0  0999 V2000
   -1.6228   -0.8487   -0.0439 C   0  0  0  0  0  0  0  0  0  0  0  0
   -0.6587    0.2269    0.3058 C   0  0  0  0  0  0  0  0  0  0  0  0
   -1.1748    1.2714    1.0896 O   0  0  0  0  0  0  0  0  0  0  0  0
   -0.5499    1.5281   -0.1048 C   0  0  0  0  0  0  0  0  0  0  0  0
    0.9412    1.4624   -0.1173 C   0  0  0  0  0  0  0  0  0  0  0  0
    1.9025    2.1828   -0.3111 O   0  0  0  0  0  0  0  0  0  0  0  0
    0.8154    0.0353    0.2325 C   0  0  0  0  0  0  0  0  0  0  0  0
    1.5908   -0.9903   -0.2013 C   0  0  0  0  0  0  0  0  0  0  0  0
    1.5467   -0.5407    1.2303 O   0  0  0  0  0  0  0  0  0  0  0  0
   -1.4581   -1.2959   -1.0570 H   0  0  0  0  0  0  0  0  0  0  0  0
   -2.6472   -0.4844    0.0475 H   0  0  0  0  0  0  0  0  0  0  0  0
   -1.5202   -1.7139    0.6686 H   0  0  0  0  0  0  0  0  0  0  0  0
   -1.0557    2.0833   -0.9150 H   0  0  0  0  0  0  0  0  0  0  0  0
    1.2846   -2.0602   -0.1932 H   0  0  0  0  0  0  0  0  0  0  0  0
    2.6061   -0.8561   -0.6305 H   0  0  0  0  0  0  0  0  0  0  0  0
  1  2  1  0
  2  3  1  0
  3  4  1  0
  4  5  1  0
  5  6  2  0
  5  7  1  0
  7  8  1  0
  8  9  1  0
  4  2  1  0
  9  7  1  0
  7  2  1  0
  1 10  1  0
  1 11  1  0
  1 12  1  0
  4 13  1  0
  8 14  1  0
  8 15  1  0
M  END
