
     RDKit          3D

 21 23  0  0  0  0  0  0  0  0999 V2000
    1.7185   -1.0429   -0.5481 C   0  0  0  0  0  0  0  0  0  0  0  0
    1.0815    0.2919   -0.2706 C   0  0  0  0  0  0  0  0  0  0  0  0
    1.6946    1.1214    0.7574 C   0  0  0  0  0  0  0  0  0  0  0  0
    0.4140    0.4689    1.1298 C   0  0  0  0  0  0  0  0  0  0  0  0
   -0.8025    1.0857    0.4813 C   0  0  0  0  0  0  0  0  0  0  0  0
   -2.0844    0.4323    0.7315 C   0  0  0  0  0  0  0  0  0  0  0  0
   -2.2429   -0.6232   -0.0423 C   0  0  0  0  0  0  0  0  0  0  0  0
   -1.0379   -0.7943   -0.9260 C   0  0  0  0  0  0  0  0  0  0  0  0
   -0.2802    0.5223   -0.8371 C   0  0  0  0  0  0  0  0  0  0  0  0
    1.5163   -1.3954   -1.5894 H   0  0  0  0  0  0  0  0  0  0  0  0
    1.4429   -1.8012    0.2132 H   0  0  0  0  0  0  0  0  0  0  0  0
    2.8410   -0.9589   -0.4952 H   0  0  0  0  0  0  0  0  0  0  0  0
    2.5864    0.7526    1.2586 H   0  0  0  0  0  0  0  0  0  0  0  0
    1.6420    2.2224    0.6418 H   0  0  0  0  0  0  0  0  0  0  0  0
    0.3497   -0.4586    1.6910 H   0  0  0  0  0  0  0  0  0  0  0  0
   -0.7552    2.1815    0.5680 H   0  0  0  0  0  0  0  0  0  0  0  0
   -2.8231    0.7548    1.4527 H   0  0  0  0  0  0  0  0  0  0  0  0
   -3.0749   -1.2888   -0.0793 H   0  0  0  0  0  0  0  0  0  0  0  0
   -0.4705   -1.6366   -0.5026 H   0  0  0  0  0  0  0  0  0  0  0  0
   -1.3352   -1.0250   -1.9463 H   0  0  0  0  0  0  0  0  0  0  0  0
   -0.3799    1.1913   -1.6883 H   0  0  0  0  0  0  0  0  0  0  0  0
  1  2  1  0
  2  3  1  0
  3  4  1  0
  4  5  1  0
  5  6  1  0
  6  7  2  0
  7  8  1  0
  8  9  1  0
  4  2  1  0
  9  5  1  0
  9  2  1  0
  1 10  1  0
  1 11  1  0
  1 12  1  0
  3 13  1  0
  3 14  1  0
  4 15  1  0
  5 16  1  0
  6 17  1  0
  7 18  1  0
  8 19  1  0
  8 20  1  0
  9 21  1  0
M  END
