
     RDKit          3D

 15 17  0  0  0  0  0  0  0  0999 V2000
    1.8911   -0.2780   -0.0119 C   0  0  0  0  0  0  0  0  0  0  0  0
    0.4905    0.1517    0.1574 C   0  0  0  0  0  0  0  0  0  0  0  0
   -0.0449    0.1173    1.4362 O   0  0  0  0  0  0  0  0  0  0  0  0
   -1.2552   -0.3301    0.9696 C   0  0  0  0  0  0  0  0  0  0  0  0
   -1.7706    0.0798   -0.3687 C   0  0  0  0  0  0  0  0  0  0  0  0
   -1.2444    1.3250   -0.8565 O   0  0  0  0  0  0  0  0  0  0  0  0
    0.0835    1.4144   -0.5041 C   0  0  0  0  0  0  0  0  0  0  0  0
    0.8406    2.3871   -0.6986 O   0  0  0  0  0  0  0  0  0  0  0  0
   -0.5970   -0.7743   -0.2712 C   0  0  0  0  0  0  0  0  0  0  0  0
    2.1077   -0.3721   -1.0957 H   0  0  0  0  0  0  0  0  0  0  0  0
    2.5591    0.4819    0.4306 H   0  0  0  0  0  0  0  0  0  0  0  0
    2.0494   -1.2300    0.4997 H   0  0  0  0  0  0  0  0  0  0  0  0
   -1.8806   -0.9891    1.5846 H   0  0  0  0  0  0  0  0  0  0  0  0
   -2.7642   -0.2033   -0.6729 H   0  0  0  0  0  0  0  0  0  0  0  0
   -0.4651   -1.7804   -0.5983 H   0  0  0  0  0  0  0  0  0  0  0  0
  1  2  1  0
  2  3  1  0
  3  4  1  0
  4  5  1  0
  5  6  1  0
  6  7  1  0
  7  8  2  0
  5  9  1  0
  7  2  1  0
  9  2  1  0
  9  4  1  0
  1 10  1  0
  1 11  1  0
  1 12  1  0
  4 13  1  0
  5 14  1  0
  9 15  1  0
M  END
