
     RDKit          3D

 16 17  0  0  0  0  0  0  0  0999 V2000
    1.9519   -0.6761    0.1015 C   0  0  0  0  0  0  0  0  0  0  0  0
    0.5428   -0.2186    0.2636 C   0  0  0  0  0  0  0  0  0  0  0  0
    0.3021    1.2614    0.1697 C   0  0  0  0  0  0  0  0  0  0  0  0
   -0.2711    0.2872   -0.8466 C   0  0  0  0  0  0  0  0  0  0  0  0
   -1.6631   -0.2451   -0.5773 C   0  0  0  0  0  0  0  0  0  0  0  0
   -1.6197   -0.4257    0.9069 C   0  0  0  0  0  0  0  0  0  0  0  0
   -2.5633   -0.2055    1.7142 O   0  0  0  0  0  0  0  0  0  0  0  0
   -0.3280   -0.8803    1.1673 O   0  0  0  0  0  0  0  0  0  0  0  0
    2.3196   -0.5186   -0.9538 H   0  0  0  0  0  0  0  0  0  0  0  0
    2.6026    0.0005    0.7281 H   0  0  0  0  0  0  0  0  0  0  0  0
    2.1617   -1.6926    0.4226 H   0  0  0  0  0  0  0  0  0  0  0  0
    1.1348    1.8803   -0.1652 H   0  0  0  0  0  0  0  0  0  0  0  0
   -0.4018    1.7575    0.8614 H   0  0  0  0  0  0  0  0  0  0  0  0
    0.0997    0.3855   -1.8678 H   0  0  0  0  0  0  0  0  0  0  0  0
   -2.4474    0.4988   -0.8237 H   0  0  0  0  0  0  0  0  0  0  0  0
   -1.8207   -1.2086   -1.1009 H   0  0  0  0  0  0  0  0  0  0  0  0
  1  2  1  0
  2  3  1  0
  3  4  1  0
  4  5  1  0
  5  6  1  0
  6  7  2  0
  6  8  1  0
  4  2  1  0
  8  2  1  0
  1  9  1  0
  1 10  1  0
  1 11  1  0
  3 12  1  0
  3 13  1  0
  4 14  1  0
  5 15  1  0
  5 16  1  0
M  END
