
     RDKit          3D

 18 19  0  0  0  0  0  0  0  0999 V2000
   -2.1549   -0.1985   -0.1861 C   0  0  0  0  0  0  0  0  0  0  0  0
   -0.7905   -0.0829   -0.1472 C   0  0  0  0  0  0  0  0  0  0  0  0
    0.0244    1.1730    0.0093 C   0  0  0  0  0  0  0  0  0  0  0  0
    1.0523    0.0780   -0.0951 C   0  0  0  0  0  0  0  0  0  0  0  0
    2.3898    0.1977   -0.0893 C   0  0  0  0  0  0  0  0  0  0  0  0
    2.9857    1.0220    0.6202 O   0  0  0  0  0  0  0  0  0  0  0  0
    0.2008   -0.4750   -1.2069 C   0  0  0  0  0  0  0  0  0  0  0  0
    0.1653   -0.7081    0.8277 C   0  0  0  0  0  0  0  0  0  0  0  0
   -2.5562   -1.1209    0.2846 H   0  0  0  0  0  0  0  0  0  0  0  0
   -2.6863    0.6393    0.3533 H   0  0  0  0  0  0  0  0  0  0  0  0
   -2.5871   -0.1789   -1.2088 H   0  0  0  0  0  0  0  0  0  0  0  0
    0.0269    1.5922    1.0409 H   0  0  0  0  0  0  0  0  0  0  0  0
   -0.0093    1.8962   -0.8042 H   0  0  0  0  0  0  0  0  0  0  0  0
    3.0840   -0.4096   -0.7005 H   0  0  0  0  0  0  0  0  0  0  0  0
    0.2483    0.1570   -2.0970 H   0  0  0  0  0  0  0  0  0  0  0  0
    0.3042   -1.5539   -1.3727 H   0  0  0  0  0  0  0  0  0  0  0  0
    0.0549   -0.2324    1.8233 H   0  0  0  0  0  0  0  0  0  0  0  0
    0.2475   -1.7953    0.7988 H   0  0  0  0  0  0  0  0  0  0  0  0
  1  2  1  0
  2  3  1  0
  3  4  1  0
  4  5  1  0
  5  6  2  0
  4  7  1  0
  4  8  1  0
  7  2  1  0
  8  2  1  0
  1  9  1  0
  1 10  1  0
  1 11  1  0
  3 12  1  0
  3 13  1  0
  5 14  1  0
  7 15  1  0
  7 16  1  0
  8 17  1  0
  8 18  1  0
M  END
