
     RDKit          3D

 16 18  0  0  0  0  0  0  0  0999 V2000
    1.4092   -0.9201   -0.5053 C   0  0  0  0  0  0  0  0  0  0  0  0
    0.5057    0.1384    0.0242 C   0  0  0  0  0  0  0  0  0  0  0  0
    0.2850    0.3272    1.4667 C   0  0  0  0  0  0  0  0  0  0  0  0
   -0.8332   -0.1287    0.5659 C   0  0  0  0  0  0  0  0  0  0  0  0
   -1.3659   -1.3755    0.7221 O   0  0  0  0  0  0  0  0  0  0  0  0
   -1.4186    0.8632   -0.4056 C   0  0  0  0  0  0  0  0  0  0  0  0
   -1.1432    0.7321   -1.7681 O   0  0  0  0  0  0  0  0  0  0  0  0
   -0.0991    1.1204   -0.9517 C   0  0  0  0  0  0  0  0  0  0  0  0
    2.1928   -0.4061   -1.1309 H   0  0  0  0  0  0  0  0  0  0  0  0
    0.9288   -1.6474   -1.1758 H   0  0  0  0  0  0  0  0  0  0  0  0
    1.9678   -1.3848    0.3345 H   0  0  0  0  0  0  0  0  0  0  0  0
    0.2054    1.3121    1.9489 H   0  0  0  0  0  0  0  0  0  0  0  0
    0.6574   -0.4680    2.1407 H   0  0  0  0  0  0  0  0  0  0  0  0
   -1.5294   -1.8751   -0.1073 H   0  0  0  0  0  0  0  0  0  0  0  0
   -2.1357    1.6233   -0.0706 H   0  0  0  0  0  0  0  0  0  0  0  0
    0.3729    2.0892   -1.0879 H   0  0  0  0  0  0  0  0  0  0  0  0
  1  2  1  0
  2  3  1  0
  3  4  1  0
  4  5  1  0
  4  6  1  0
  6  7  1  0
  7  8  1  0
  4  2  1  0
  8  6  1  0
  8  2  1  0
  1  9  1  0
  1 10  1  0
  1 11  1  0
  3 12  1  0
  3 13  1  0
  5 14  1  0
  6 15  1  0
  8 16  1  0
M  END
