
     RDKit          3D

 21 23  0  0  0  0  0  0  0  0999 V2000
   -1.2890   -1.6512   -0.1636 C   0  0  0  0  0  0  0  0  0  0  0  0
   -0.6310   -0.3527   -0.0659 C   0  0  0  0  0  0  0  0  0  0  0  0
   -0.5734    0.5373   -1.2657 C   0  0  0  0  0  0  0  0  0  0  0  0
    0.1443    1.7594   -0.6677 C   0  0  0  0  0  0  0  0  0  0  0  0
    0.3622    1.2480    0.7350 C   0  0  0  0  0  0  0  0  0  0  0  0
   -0.8706    0.5085    1.1330 C   0  0  0  0  0  0  0  0  0  0  0  0
   -0.0517   -0.3523    1.8381 O   0  0  0  0  0  0  0  0  0  0  0  0
    0.6567   -0.2115    0.6489 C   0  0  0  0  0  0  0  0  0  0  0  0
    1.8734   -0.8001    0.3450 C   0  0  0  0  0  0  0  0  0  0  0  0
   -2.3576   -1.4956   -0.4875 H   0  0  0  0  0  0  0  0  0  0  0  0
   -0.8039   -2.2726   -0.9348 H   0  0  0  0  0  0  0  0  0  0  0  0
   -1.3349   -2.1410    0.8068 H   0  0  0  0  0  0  0  0  0  0  0  0
    0.0289    0.0738   -2.0655 H   0  0  0  0  0  0  0  0  0  0  0  0
   -1.5521    0.7860   -1.6663 H   0  0  0  0  0  0  0  0  0  0  0  0
    1.0666    1.9851   -1.2018 H   0  0  0  0  0  0  0  0  0  0  0  0
   -0.6035    2.5844   -0.6929 H   0  0  0  0  0  0  0  0  0  0  0  0
    0.8760    1.8642    1.4414 H   0  0  0  0  0  0  0  0  0  0  0  0
   -1.7502    0.8993    1.4347 H   0  0  0  0  0  0  0  0  0  0  0  0
    2.5423   -0.1674   -0.2775 H   0  0  0  0  0  0  0  0  0  0  0  0
    1.7837   -1.7804   -0.1658 H   0  0  0  0  0  0  0  0  0  0  0  0
    2.4838   -1.0213    1.2722 H   0  0  0  0  0  0  0  0  0  0  0  0
  1  2  1  0
  2  3  1  0
  3  4  1  0
  4  5  1  0
  5  6  1  0
  6  7  1  0
  7  8  1  0
  8  9  1  0
  6  2  1  0
  8  2  1  0
  8  5  1  0
  1 10  1  0
  1 11  1  0
  1 12  1  0
  3 13  1  0
  3 14  1  0
  4 15  1  0
  4 16  1  0
  5 17  1  0
  6 18  1  0
  9 19  1  0
  9 20  1  0
  9 21  1  0
M  END
