
     RDKit          3D

 17 19  0  0  0  0  0  0  0  0999 V2000
   -1.7273   -0.4980   -0.7942 C   0  0  0  0  0  0  0  0  0  0  0  0
   -0.5050    0.0083   -0.2115 C   0  0  0  0  0  0  0  0  0  0  0  0
    0.7128   -0.8002    0.1013 C   0  0  0  0  0  0  0  0  0  0  0  0
    1.8046    0.0946   -0.4480 C   0  0  0  0  0  0  0  0  0  0  0  0
    1.2523    1.3192   -0.7200 O   0  0  0  0  0  0  0  0  0  0  0  0
   -0.0190    1.3837   -0.1779 C   0  0  0  0  0  0  0  0  0  0  0  0
   -0.3416    0.6698    1.0912 C   0  0  0  0  0  0  0  0  0  0  0  0
    0.4875   -0.4639    1.5313 C   0  0  0  0  0  0  0  0  0  0  0  0
    0.8440   -0.9359    2.5683 O   0  0  0  0  0  0  0  0  0  0  0  0
   -1.8111   -1.5937   -0.6513 H   0  0  0  0  0  0  0  0  0  0  0  0
   -1.7305   -0.3510   -1.9119 H   0  0  0  0  0  0  0  0  0  0  0  0
   -2.6680   -0.0434   -0.4291 H   0  0  0  0  0  0  0  0  0  0  0  0
    0.7359   -1.8427   -0.1740 H   0  0  0  0  0  0  0  0  0  0  0  0
    2.5575    0.2392    0.3748 H   0  0  0  0  0  0  0  0  0  0  0  0
    2.2376   -0.4146   -1.3241 H   0  0  0  0  0  0  0  0  0  0  0  0
   -0.6735    2.1713   -0.5242 H   0  0  0  0  0  0  0  0  0  0  0  0
   -1.1564    1.0571    1.6993 H   0  0  0  0  0  0  0  0  0  0  0  0
  1  2  1  0
  2  3  1  0
  3  4  1  0
  4  5  1  0
  5  6  1  0
  6  7  1  0
  7  8  1  0
  8  9  2  0
  6  2  1  0
  7  2  1  0
  8  3  1  0
  1 10  1  0
  1 11  1  0
  1 12  1  0
  3 13  1  0
  4 14  1  0
  4 15  1  0
  6 16  1  0
  7 17  1  0
M  END
