
     RDKit          3D

 19 20  0  0  0  0  0  0  0  0999 V2000
    1.0269    1.9316   -0.3885 C   0  0  0  0  0  0  0  0  0  0  0  0
    0.2717    0.6901   -0.4670 C   0  0  0  0  0  0  0  0  0  0  0  0
   -0.7885    0.4067    0.5676 C   0  0  0  0  0  0  0  0  0  0  0  0
   -1.3860   -0.8345   -0.1286 C   0  0  0  0  0  0  0  0  0  0  0  0
   -1.4442   -1.9051    0.7122 O   0  0  0  0  0  0  0  0  0  0  0  0
   -0.3418   -0.9539   -1.2134 C   0  0  0  0  0  0  0  0  0  0  0  0
   -0.3435    0.3738   -1.7042 O   0  0  0  0  0  0  0  0  0  0  0  0
    0.9759   -0.6160   -0.5822 C   0  0  0  0  0  0  0  0  0  0  0  0
    1.2875   -1.2652    0.5899 O   0  0  0  0  0  0  0  0  0  0  0  0
    0.3687    2.7469   -0.0110 H   0  0  0  0  0  0  0  0  0  0  0  0
    1.9063    1.7962    0.2937 H   0  0  0  0  0  0  0  0  0  0  0  0
    1.3951    2.2126   -1.3951 H   0  0  0  0  0  0  0  0  0  0  0  0
   -0.2783    0.1014    1.4956 H   0  0  0  0  0  0  0  0  0  0  0  0
   -1.5258    1.1937    0.6864 H   0  0  0  0  0  0  0  0  0  0  0  0
   -2.3753   -0.5683   -0.5097 H   0  0  0  0  0  0  0  0  0  0  0  0
   -2.3389   -1.9300    1.1342 H   0  0  0  0  0  0  0  0  0  0  0  0
   -0.4114   -1.7412   -1.9241 H   0  0  0  0  0  0  0  0  0  0  0  0
    1.7762   -0.5776   -1.3332 H   0  0  0  0  0  0  0  0  0  0  0  0
    2.2254   -1.0614    0.8074 H   0  0  0  0  0  0  0  0  0  0  0  0
  1  2  1  0
  2  3  1  0
  3  4  1  0
  4  5  1  0
  4  6  1  0
  6  7  1  0
  6  8  1  0
  8  9  1  0
  7  2  1  0
  8  2  1  0
  1 10  1  0
  1 11  1  0
  1 12  1  0
  3 13  1  0
  3 14  1  0
  4 15  1  0
  5 16  1  0
  6 17  1  0
  8 18  1  0
  9 19  1  0
M  END
