
     RDKit          3D

 17 18  0  0  0  0  0  0  0  0999 V2000
   -2.0609   -0.3552   -0.4777 C   0  0  0  0  0  0  0  0  0  0  0  0
   -0.7004   -0.2170   -0.3786 C   0  0  0  0  0  0  0  0  0  0  0  0
    0.2582   -1.0911    0.3833 C   0  0  0  0  0  0  0  0  0  0  0  0
    1.0589   -0.0523   -0.3325 C   0  0  0  0  0  0  0  0  0  0  0  0
    2.4133    0.0898   -0.3146 C   0  0  0  0  0  0  0  0  0  0  0  0
    3.0629    0.2447    0.7088 O   0  0  0  0  0  0  0  0  0  0  0  0
    0.2365   -0.2296   -1.4098 O   0  0  0  0  0  0  0  0  0  0  0  0
    0.0621    0.9626    0.1651 C   0  0  0  0  0  0  0  0  0  0  0  0
    0.0053    1.0245    1.5534 O   0  0  0  0  0  0  0  0  0  0  0  0
   -2.5257   -1.0767    0.2557 H   0  0  0  0  0  0  0  0  0  0  0  0
   -2.4354   -0.7212   -1.4778 H   0  0  0  0  0  0  0  0  0  0  0  0
   -2.6455    0.5982   -0.3139 H   0  0  0  0  0  0  0  0  0  0  0  0
    0.2395   -0.9766    1.4796 H   0  0  0  0  0  0  0  0  0  0  0  0
    0.3448   -2.1110   -0.0059 H   0  0  0  0  0  0  0  0  0  0  0  0
    3.0329    0.0762   -1.2256 H   0  0  0  0  0  0  0  0  0  0  0  0
   -0.0024    1.8974   -0.3801 H   0  0  0  0  0  0  0  0  0  0  0  0
   -0.3439    1.9373    1.7706 H   0  0  0  0  0  0  0  0  0  0  0  0
  1  2  1  0
  2  3  1  0
  3  4  1  0
  4  5  1  0
  5  6  2  0
  4  7  1  0
  4  8  1  0
  8  9  1  0
  7  2  1  0
  8  2  1  0
  1 10  1  0
  1 11  1  0
  1 12  1  0
  3 13  1  0
  3 14  1  0
  5 15  1  0
  8 16  1  0
  9 17  1  0
M  END
