
     RDKit          3D

 19 21  0  0  0  0  0  0  0  0999 V2000
   -2.2344    0.4220    0.6594 C   0  0  0  0  0  0  0  0  0  0  0  0
   -1.1242   -0.5557    0.5613 C   0  0  0  0  0  0  0  0  0  0  0  0
   -0.8415   -1.0641   -0.8377 C   0  0  0  0  0  0  0  0  0  0  0  0
    0.5069   -1.3463   -0.8415 O   0  0  0  0  0  0  0  0  0  0  0  0
    1.0993   -0.3542   -0.0916 C   0  0  0  0  0  0  0  0  0  0  0  0
    2.4996    0.0286   -0.1930 C   0  0  0  0  0  0  0  0  0  0  0  0
    1.5028    0.9531   -0.7703 C   0  0  0  0  0  0  0  0  0  0  0  0
    0.2515   -0.1531    1.1169 C   0  0  0  0  0  0  0  0  0  0  0  0
   -0.5353   -1.1384    1.6406 O   0  0  0  0  0  0  0  0  0  0  0  0
   -3.1969   -0.1581    0.7039 H   0  0  0  0  0  0  0  0  0  0  0  0
   -2.1876    1.1181    1.5024 H   0  0  0  0  0  0  0  0  0  0  0  0
   -2.2713    1.0453   -0.2745 H   0  0  0  0  0  0  0  0  0  0  0  0
   -1.1428   -0.2860   -1.5664 H   0  0  0  0  0  0  0  0  0  0  0  0
   -1.4772   -1.9484   -1.0071 H   0  0  0  0  0  0  0  0  0  0  0  0
    3.1031    0.3373    0.6752 H   0  0  0  0  0  0  0  0  0  0  0  0
    3.1168   -0.5668   -0.9291 H   0  0  0  0  0  0  0  0  0  0  0  0
    1.3522    1.9031   -0.2208 H   0  0  0  0  0  0  0  0  0  0  0  0
    1.2499    0.9940   -1.8308 H   0  0  0  0  0  0  0  0  0  0  0  0
    0.3290    0.7697    1.7031 H   0  0  0  0  0  0  0  0  0  0  0  0
  1  2  1  0
  2  3  1  0
  3  4  1  0
  4  5  1  0
  5  6  1  0
  6  7  1  0
  5  8  1  0
  8  9  1  0
  8  2  1  0
  9  2  1  0
  7  5  1  0
  1 10  1  0
  1 11  1  0
  1 12  1  0
  3 13  1  0
  3 14  1  0
  6 15  1  0
  6 16  1  0
  7 17  1  0
  7 18  1  0
  8 19  1  0
M  END
