
     RDKit          3D

 19 21  0  0  0  0  0  0  0  0999 V2000
    1.8091   -1.0727    0.4422 C   0  0  0  0  0  0  0  0  0  0  0  0
    0.7524   -0.1107    0.2334 C   0  0  0  0  0  0  0  0  0  0  0  0
    0.8817    1.1317    0.8703 O   0  0  0  0  0  0  0  0  0  0  0  0
   -0.4958    1.2495    0.7010 C   0  0  0  0  0  0  0  0  0  0  0  0
   -0.5712    1.4193   -0.8100 C   0  0  0  0  0  0  0  0  0  0  0  0
    0.2518    0.1666   -1.1641 C   0  0  0  0  0  0  0  0  0  0  0  0
   -0.6639   -0.8482   -1.3457 O   0  0  0  0  0  0  0  0  0  0  0  0
   -1.4164   -0.8703   -0.1684 C   0  0  0  0  0  0  0  0  0  0  0  0
   -0.5754   -0.2414    0.9122 C   0  0  0  0  0  0  0  0  0  0  0  0
    2.4009   -0.8170    1.3491 H   0  0  0  0  0  0  0  0  0  0  0  0
    1.4408   -2.1077    0.5783 H   0  0  0  0  0  0  0  0  0  0  0  0
    2.5357   -1.0073   -0.4094 H   0  0  0  0  0  0  0  0  0  0  0  0
   -1.0513    1.9046    1.3202 H   0  0  0  0  0  0  0  0  0  0  0  0
   -1.5808    1.3757   -1.2042 H   0  0  0  0  0  0  0  0  0  0  0  0
    0.0175    2.2999   -1.1117 H   0  0  0  0  0  0  0  0  0  0  0  0
    0.9847    0.3164   -1.9166 H   0  0  0  0  0  0  0  0  0  0  0  0
   -2.3429   -0.2698   -0.2715 H   0  0  0  0  0  0  0  0  0  0  0  0
   -1.7446   -1.8986    0.0876 H   0  0  0  0  0  0  0  0  0  0  0  0
   -0.6321   -0.6201    1.9073 H   0  0  0  0  0  0  0  0  0  0  0  0
  1  2  1  0
  2  3  1  0
  3  4  1  0
  4  5  1  0
  5  6  1  0
  6  7  1  0
  7  8  1  0
  8  9  1  0
  6  2  1  0
  9  2  1  0
  9  4  1  0
  1 10  1  0
  1 11  1  0
  1 12  1  0
  4 13  1  0
  5 14  1  0
  5 15  1  0
  6 16  1  0
  8 17  1  0
  8 18  1  0
  9 19  1  0
M  END
