
     RDKit          3D

 19 20  0  0  0  0  0  0  0  0999 V2000
    2.3297   -0.2037    0.0639 C   0  0  0  0  0  0  0  0  0  0  0  0
    0.8215   -0.1559   -0.0275 C   0  0  0  0  0  0  0  0  0  0  0  0
    0.2861    0.8337   -1.0117 C   0  0  0  0  0  0  0  0  0  0  0  0
    0.0801    0.9930    0.5015 C   0  0  0  0  0  0  0  0  0  0  0  0
   -1.3280    0.7035    0.9418 C   0  0  0  0  0  0  0  0  0  0  0  0
   -1.8710   -0.3645    0.0591 C   0  0  0  0  0  0  0  0  0  0  0  0
   -3.0469   -0.3382   -0.2626 O   0  0  0  0  0  0  0  0  0  0  0  0
   -1.0397   -1.4665   -0.4497 C   0  0  0  0  0  0  0  0  0  0  0  0
    0.2077   -1.3779    0.1655 O   0  0  0  0  0  0  0  0  0  0  0  0
    2.8097    0.5081   -0.6612 H   0  0  0  0  0  0  0  0  0  0  0  0
    2.6724   -1.2125   -0.2510 H   0  0  0  0  0  0  0  0  0  0  0  0
    2.7196    0.0372    1.0579 H   0  0  0  0  0  0  0  0  0  0  0  0
    0.9821    1.5620   -1.4586 H   0  0  0  0  0  0  0  0  0  0  0  0
   -0.5815    0.6053   -1.6399 H   0  0  0  0  0  0  0  0  0  0  0  0
    0.6760    1.7729    1.0125 H   0  0  0  0  0  0  0  0  0  0  0  0
   -1.3867    0.4000    2.0114 H   0  0  0  0  0  0  0  0  0  0  0  0
   -1.9260    1.6171    0.7450 H   0  0  0  0  0  0  0  0  0  0  0  0
   -1.4931   -2.4279   -0.1032 H   0  0  0  0  0  0  0  0  0  0  0  0
   -0.9120   -1.4857   -1.5354 H   0  0  0  0  0  0  0  0  0  0  0  0
  1  2  1  0
  2  3  1  0
  3  4  1  0
  4  5  1  0
  5  6  1  0
  6  7  2  0
  6  8  1  0
  8  9  1  0
  4  2  1  0
  9  2  1  0
  1 10  1  0
  1 11  1  0
  1 12  1  0
  3 13  1  0
  3 14  1  0
  4 15  1  0
  5 16  1  0
  5 17  1  0
  8 18  1  0
  8 19  1  0
M  END
