
     RDKit          3D

 19 21  0  0  0  0  0  0  0  0999 V2000
    1.9315    0.0013    0.1940 C   0  0  0  0  0  0  0  0  0  0  0  0
    0.4715    0.0608    0.5383 C   0  0  0  0  0  0  0  0  0  0  0  0
   -0.1023    1.2550    1.2338 C   0  0  0  0  0  0  0  0  0  0  0  0
   -0.3309    1.0573   -0.2038 C   0  0  0  0  0  0  0  0  0  0  0  0
    0.2048    1.8694   -1.1753 O   0  0  0  0  0  0  0  0  0  0  0  0
   -1.3040   -0.0050   -0.6036 C   0  0  0  0  0  0  0  0  0  0  0  0
   -0.8343   -1.2214   -1.2861 C   0  0  0  0  0  0  0  0  0  0  0  0
   -0.4548   -1.0486    0.1815 C   0  0  0  0  0  0  0  0  0  0  0  0
   -1.1159   -1.7770    1.1390 O   0  0  0  0  0  0  0  0  0  0  0  0
    2.1306   -0.6252   -0.7043 H   0  0  0  0  0  0  0  0  0  0  0  0
    2.5146   -0.4020    1.0445 H   0  0  0  0  0  0  0  0  0  0  0  0
    2.2645    1.0602    0.0153 H   0  0  0  0  0  0  0  0  0  0  0  0
    0.6604    1.9695    1.6068 H   0  0  0  0  0  0  0  0  0  0  0  0
   -0.9537    1.0125    1.9091 H   0  0  0  0  0  0  0  0  0  0  0  0
   -0.5442    2.4244   -1.5408 H   0  0  0  0  0  0  0  0  0  0  0  0
   -2.3176    0.1218   -0.2165 H   0  0  0  0  0  0  0  0  0  0  0  0
    0.0512   -1.1058   -1.9532 H   0  0  0  0  0  0  0  0  0  0  0  0
   -1.5737   -2.0060   -1.4844 H   0  0  0  0  0  0  0  0  0  0  0  0
   -0.6978   -2.6412    1.3054 H   0  0  0  0  0  0  0  0  0  0  0  0
  1  2  1  0
  2  3  1  0
  3  4  1  0
  4  5  1  0
  4  6  1  0
  6  7  1  0
  7  8  1  0
  8  9  1  0
  4  2  1  0
  8  6  1  0
  8  2  1  0
  1 10  1  0
  1 11  1  0
  1 12  1  0
  3 13  1  0
  3 14  1  0
  5 15  1  0
  6 16  1  0
  7 17  1  0
  7 18  1  0
  9 19  1  0
M  END
