
     RDKit          3D

 17 18  0  0  0  0  0  0  0  0999 V2000
    2.0314    0.1856   -0.1134 C   0  0  0  0  0  0  0  0  0  0  0  0
    0.5690    0.0163    0.1826 C   0  0  0  0  0  0  0  0  0  0  0  0
   -0.1704    1.1665    0.7258 C   0  0  0  0  0  0  0  0  0  0  0  0
   -1.4339    1.1792    0.3232 C   0  0  0  0  0  0  0  0  0  0  0  0
   -1.7265    0.0216   -0.5612 C   0  0  0  0  0  0  0  0  0  0  0  0
   -0.3682   -0.5939   -0.7734 C   0  0  0  0  0  0  0  0  0  0  0  0
    0.1183   -1.3713    0.4531 C   0  0  0  0  0  0  0  0  0  0  0  0
    2.2785    0.2614   -1.1724 H   0  0  0  0  0  0  0  0  0  0  0  0
    2.3793    1.0770    0.4610 H   0  0  0  0  0  0  0  0  0  0  0  0
    2.6164   -0.6771    0.3220 H   0  0  0  0  0  0  0  0  0  0  0  0
    0.2479    1.9259    1.3797 H   0  0  0  0  0  0  0  0  0  0  0  0
   -2.1694    1.9229    0.5906 H   0  0  0  0  0  0  0  0  0  0  0  0
   -2.3260   -0.7161    0.0149 H   0  0  0  0  0  0  0  0  0  0  0  0
   -2.2222    0.3080   -1.5052 H   0  0  0  0  0  0  0  0  0  0  0  0
   -0.0342   -0.8947   -1.7656 H   0  0  0  0  0  0  0  0  0  0  0  0
    0.8079   -2.1886    0.1961 H   0  0  0  0  0  0  0  0  0  0  0  0
   -0.5978   -1.6227    1.2422 H   0  0  0  0  0  0  0  0  0  0  0  0
  1  2  1  0
  2  3  1  0
  3  4  2  0
  4  5  1  0
  5  6  1  0
  6  7  1  0
  6  2  1  0
  7  2  1  0
  1  8  1  0
  1  9  1  0
  1 10  1  0
  3 11  1  0
  4 12  1  0
  5 13  1  0
  5 14  1  0
  6 15  1  0
  7 16  1  0
  7 17  1  0
M  END
