
     RDKit          3D

 19 21  0  0  0  0  0  0  0  0999 V2000
   -1.5297    1.4642    0.0260 C   0  0  0  0  0  0  0  0  0  0  0  0
   -0.6870    0.1854   -0.1998 C   0  0  0  0  0  0  0  0  0  0  0  0
   -1.4322   -1.0377   -0.1786 C   0  0  0  0  0  0  0  0  0  0  0  0
   -0.6413   -0.8052    1.0219 C   0  0  0  0  0  0  0  0  0  0  0  0
    0.7212   -1.1872    1.1057 O   0  0  0  0  0  0  0  0  0  0  0  0
    1.2085   -1.0235   -0.1366 C   0  0  0  0  0  0  0  0  0  0  0  0
    1.8911   -0.0037   -0.8420 C   0  0  0  0  0  0  0  0  0  0  0  0
    3.1901    0.3156   -0.3827 O   0  0  0  0  0  0  0  0  0  0  0  0
    0.7386    0.4859   -0.1956 C   0  0  0  0  0  0  0  0  0  0  0  0
   -1.0227    2.3423   -0.4066 H   0  0  0  0  0  0  0  0  0  0  0  0
   -2.4586    1.3186   -0.5793 H   0  0  0  0  0  0  0  0  0  0  0  0
   -1.7319    1.5198    1.0936 H   0  0  0  0  0  0  0  0  0  0  0  0
   -1.3303   -1.9130   -0.8642 H   0  0  0  0  0  0  0  0  0  0  0  0
   -2.5494   -0.9652    0.0303 H   0  0  0  0  0  0  0  0  0  0  0  0
   -1.0657   -0.4421    1.9552 H   0  0  0  0  0  0  0  0  0  0  0  0
    0.6516   -1.7270   -0.8275 H   0  0  0  0  0  0  0  0  0  0  0  0
    1.9009    0.0297   -1.9674 H   0  0  0  0  0  0  0  0  0  0  0  0
    3.1511    0.3557    0.6064 H   0  0  0  0  0  0  0  0  0  0  0  0
    0.9958    1.0873    0.7413 H   0  0  0  0  0  0  0  0  0  0  0  0
  1  2  1  0
  2  3  1  0
  3  4  1  0
  4  5  1  0
  5  6  1  0
  6  7  1  0
  7  8  1  0
  7  9  1  0
  4  2  1  0
  9  6  1  0
  9  2  1  0
  1 10  1  0
  1 11  1  0
  1 12  1  0
  3 13  1  0
  3 14  1  0
  4 15  1  0
  6 16  1  0
  7 17  1  0
  8 18  1  0
  9 19  1  0
M  END
