
     RDKit          3D

 21 23  0  0  0  0  0  0  0  0999 V2000
    1.7441    1.4082   -0.0835 C   0  0  0  0  0  0  0  0  0  0  0  0
    0.6298    0.4930   -0.0234 C   0  0  0  0  0  0  0  0  0  0  0  0
    0.3036   -0.3678   -1.2296 C   0  0  0  0  0  0  0  0  0  0  0  0
   -0.3772   -1.2435   -0.1891 C   0  0  0  0  0  0  0  0  0  0  0  0
   -0.5391   -2.5439   -0.4555 O   0  0  0  0  0  0  0  0  0  0  0  0
    0.8354   -0.8543    0.6833 C   0  0  0  0  0  0  0  0  0  0  0  0
   -1.4782   -0.4198    0.3578 C   0  0  0  0  0  0  0  0  0  0  0  0
   -1.9258    0.8558   -0.1867 C   0  0  0  0  0  0  0  0  0  0  0  0
   -0.6759    0.9122    0.5852 C   0  0  0  0  0  0  0  0  0  0  0  0
    2.3843    1.1896   -0.9692 H   0  0  0  0  0  0  0  0  0  0  0  0
    1.3685    2.4508   -0.2156 H   0  0  0  0  0  0  0  0  0  0  0  0
    2.3142    1.4149    0.8671 H   0  0  0  0  0  0  0  0  0  0  0  0
   -0.3184    0.0620   -1.9969 H   0  0  0  0  0  0  0  0  0  0  0  0
    1.2329   -0.8862   -1.5670 H   0  0  0  0  0  0  0  0  0  0  0  0
   -0.5255   -3.1037    0.3425 H   0  0  0  0  0  0  0  0  0  0  0  0
    1.7283   -1.3934    0.3600 H   0  0  0  0  0  0  0  0  0  0  0  0
    0.5886   -0.8448    1.7416 H   0  0  0  0  0  0  0  0  0  0  0  0
   -1.9833   -0.8250    1.2634 H   0  0  0  0  0  0  0  0  0  0  0  0
   -2.8155    1.3144    0.3220 H   0  0  0  0  0  0  0  0  0  0  0  0
   -1.8602    1.1545   -1.2381 H   0  0  0  0  0  0  0  0  0  0  0  0
   -0.6306    1.2272    1.6318 H   0  0  0  0  0  0  0  0  0  0  0  0
  1  2  1  0
  2  3  1  0
  3  4  1  0
  4  5  1  0
  4  6  1  0
  4  7  1  0
  7  8  1  0
  8  9  1  0
  6  2  1  0
  9  7  1  0
  9  2  1  0
  1 10  1  0
  1 11  1  0
  1 12  1  0
  3 13  1  0
  3 14  1  0
  5 15  1  0
  6 16  1  0
  6 17  1  0
  7 18  1  0
  8 19  1  0
  8 20  1  0
  9 21  1  0
M  END
