
     RDKit          3D

 21 23  0  0  0  0  0  0  0  0999 V2000
    2.0343    0.7183    0.4055 C   0  0  0  0  0  0  0  0  0  0  0  0
    0.6916    0.1616    0.1618 C   0  0  0  0  0  0  0  0  0  0  0  0
    0.4290   -0.3610   -1.2573 C   0  0  0  0  0  0  0  0  0  0  0  0
   -0.6195   -1.2083   -0.5204 C   0  0  0  0  0  0  0  0  0  0  0  0
    0.5172   -1.3290    0.5220 C   0  0  0  0  0  0  0  0  0  0  0  0
   -1.7418   -0.3850    0.0147 C   0  0  0  0  0  0  0  0  0  0  0  0
   -1.6164    1.0888   -0.2308 C   0  0  0  0  0  0  0  0  0  0  0  0
   -0.4905    0.8514    0.7467 C   0  0  0  0  0  0  0  0  0  0  0  0
   -1.4096   -0.0498    1.3543 O   0  0  0  0  0  0  0  0  0  0  0  0
    2.6358    0.2271    1.1701 H   0  0  0  0  0  0  0  0  0  0  0  0
    1.9131    1.7897    0.7397 H   0  0  0  0  0  0  0  0  0  0  0  0
    2.5724    0.7702   -0.5866 H   0  0  0  0  0  0  0  0  0  0  0  0
    0.0793    0.3342   -1.9882 H   0  0  0  0  0  0  0  0  0  0  0  0
    1.2640   -1.0217   -1.5473 H   0  0  0  0  0  0  0  0  0  0  0  0
   -0.8652   -2.1528   -1.0031 H   0  0  0  0  0  0  0  0  0  0  0  0
    0.1312   -1.4947    1.5332 H   0  0  0  0  0  0  0  0  0  0  0  0
    1.3071   -1.9768    0.1509 H   0  0  0  0  0  0  0  0  0  0  0  0
   -2.7564   -0.7395   -0.1325 H   0  0  0  0  0  0  0  0  0  0  0  0
   -2.4375    1.6290    0.2620 H   0  0  0  0  0  0  0  0  0  0  0  0
   -1.4066    1.4681   -1.2039 H   0  0  0  0  0  0  0  0  0  0  0  0
   -0.2315    1.6803    1.4092 H   0  0  0  0  0  0  0  0  0  0  0  0
  1  2  1  0
  2  3  1  0
  3  4  1  0
  4  5  1  0
  4  6  1  0
  6  7  1  0
  7  8  1  0
  8  9  1  0
  5  2  1  0
  9  6  1  0
  8  2  1  0
  1 10  1  0
  1 11  1  0
  1 12  1  0
  3 13  1  0
  3 14  1  0
  4 15  1  0
  5 16  1  0
  5 17  1  0
  6 18  1  0
  7 19  1  0
  7 20  1  0
  8 21  1  0
M  END
