
     RDKit          3D

 19 21  0  0  0  0  0  0  0  0999 V2000
   -1.6948   -0.8660    0.1109 C   0  0  0  0  0  0  0  0  0  0  0  0
   -0.5536   -0.0163    0.1534 C   0  0  0  0  0  0  0  0  0  0  0  0
   -0.6519    1.4444   -0.2695 C   0  0  0  0  0  0  0  0  0  0  0  0
    0.8730    1.2832   -0.3786 C   0  0  0  0  0  0  0  0  0  0  0  0
    1.2112    1.1001    0.9384 O   0  0  0  0  0  0  0  0  0  0  0  0
    0.3748    0.0264    1.3370 C   0  0  0  0  0  0  0  0  0  0  0  0
    1.1279   -1.1241    1.1396 O   0  0  0  0  0  0  0  0  0  0  0  0
    1.4757   -1.0938   -0.2205 C   0  0  0  0  0  0  0  0  0  0  0  0
    0.5449   -0.1243   -0.8891 C   0  0  0  0  0  0  0  0  0  0  0  0
   -1.8759   -1.2598   -0.9228 H   0  0  0  0  0  0  0  0  0  0  0  0
   -2.6368   -0.2897    0.3491 H   0  0  0  0  0  0  0  0  0  0  0  0
   -1.6571   -1.6721    0.8661 H   0  0  0  0  0  0  0  0  0  0  0  0
   -1.1570    1.5002   -1.2409 H   0  0  0  0  0  0  0  0  0  0  0  0
   -0.9468    2.1432    0.5121 H   0  0  0  0  0  0  0  0  0  0  0  0
    1.3958    1.9390   -1.0142 H   0  0  0  0  0  0  0  0  0  0  0  0
   -0.0717    0.1416    2.2972 H   0  0  0  0  0  0  0  0  0  0  0  0
    2.5469   -0.7792   -0.2718 H   0  0  0  0  0  0  0  0  0  0  0  0
    1.4159   -2.1162   -0.5872 H   0  0  0  0  0  0  0  0  0  0  0  0
    0.2795   -0.2365   -1.9093 H   0  0  0  0  0  0  0  0  0  0  0  0
  1  2  1  0
  2  3  1  0
  3  4  1  0
  4  5  1  0
  5  6  1  0
  6  7  1  0
  7  8  1  0
  8  9  1  0
  6  2  1  0
  9  2  1  0
  9  4  1  0
  1 10  1  0
  1 11  1  0
  1 12  1  0
  3 13  1  0
  3 14  1  0
  4 15  1  0
  6 16  1  0
  8 17  1  0
  8 18  1  0
  9 19  1  0
M  END
