
     RDKit          3D

 16 18  0  0  0  0  0  0  0  0999 V2000
   -1.7575    0.7645   -0.3224 C   0  0  0  0  0  0  0  0  0  0  0  0
   -0.7364   -0.1418    0.2493 C   0  0  0  0  0  0  0  0  0  0  0  0
   -0.3441   -0.0123    1.5574 O   0  0  0  0  0  0  0  0  0  0  0  0
    0.5792   -0.0108    0.5390 C   0  0  0  0  0  0  0  0  0  0  0  0
    1.5621    1.0849    0.3745 C   0  0  0  0  0  0  0  0  0  0  0  0
    0.9098   -1.3360   -0.1605 C   0  0  0  0  0  0  0  0  0  0  0  0
    0.4725   -1.5187   -1.4595 O   0  0  0  0  0  0  0  0  0  0  0  0
   -0.4961   -1.4730   -0.4743 C   0  0  0  0  0  0  0  0  0  0  0  0
   -1.6298    1.0145   -1.3860 H   0  0  0  0  0  0  0  0  0  0  0  0
   -2.7557    0.2439   -0.2473 H   0  0  0  0  0  0  0  0  0  0  0  0
   -1.7908    1.6921    0.2821 H   0  0  0  0  0  0  0  0  0  0  0  0
    2.1831    0.8635   -0.5291 H   0  0  0  0  0  0  0  0  0  0  0  0
    1.1242    2.0953    0.2480 H   0  0  0  0  0  0  0  0  0  0  0  0
    2.2767    1.1190    1.2441 H   0  0  0  0  0  0  0  0  0  0  0  0
    1.5407   -2.0631    0.3462 H   0  0  0  0  0  0  0  0  0  0  0  0
   -1.1379   -2.3220   -0.2614 H   0  0  0  0  0  0  0  0  0  0  0  0
  1  2  1  0
  2  3  1  0
  3  4  1  0
  4  5  1  0
  4  6  1  0
  6  7  1  0
  7  8  1  0
  4  2  1  0
  8  6  1  0
  8  2  1  0
  1  9  1  0
  1 10  1  0
  1 11  1  0
  5 12  1  0
  5 13  1  0
  5 14  1  0
  6 15  1  0
  8 16  1  0
M  END
