
     RDKit          3D

 19 20  0  0  0  0  0  0  0  0999 V2000
   -1.4829   -0.3618    0.7253 C   0  0  0  0  0  0  0  0  0  0  0  0
   -0.7594   -0.2710   -0.6011 C   0  0  0  0  0  0  0  0  0  0  0  0
   -0.7979   -1.3860   -1.3089 O   0  0  0  0  0  0  0  0  0  0  0  0
    0.4189   -1.2481   -0.8431 C   0  0  0  0  0  0  0  0  0  0  0  0
    1.0035   -1.2858    0.5199 C   0  0  0  0  0  0  0  0  0  0  0  0
    1.5278    0.0975    0.7189 C   0  0  0  0  0  0  0  0  0  0  0  0
    1.0180    1.1496    0.1059 C   0  0  0  0  0  0  0  0  0  0  0  0
   -0.1431    1.0489   -0.8534 C   0  0  0  0  0  0  0  0  0  0  0  0
   -1.0487    2.0446   -0.4859 O   0  0  0  0  0  0  0  0  0  0  0  0
   -0.9828    0.2300    1.4918 H   0  0  0  0  0  0  0  0  0  0  0  0
   -2.4828    0.1376    0.5495 H   0  0  0  0  0  0  0  0  0  0  0  0
   -1.7303   -1.3946    1.0152 H   0  0  0  0  0  0  0  0  0  0  0  0
    1.1831   -0.9413   -1.6170 H   0  0  0  0  0  0  0  0  0  0  0  0
    0.2839   -1.4672    1.3341 H   0  0  0  0  0  0  0  0  0  0  0  0
    1.7931   -2.0504    0.6070 H   0  0  0  0  0  0  0  0  0  0  0  0
    2.3542    0.2528    1.3872 H   0  0  0  0  0  0  0  0  0  0  0  0
    1.4404    2.1181    0.2915 H   0  0  0  0  0  0  0  0  0  0  0  0
    0.1587    1.1687   -1.8901 H   0  0  0  0  0  0  0  0  0  0  0  0
   -1.7538    2.1583   -1.1469 H   0  0  0  0  0  0  0  0  0  0  0  0
  1  2  1  0
  2  3  1  0
  3  4  1  0
  4  5  1  0
  5  6  1  0
  6  7  2  0
  7  8  1  0
  8  9  1  0
  4  2  1  0
  8  2  1  0
  1 10  1  0
  1 11  1  0
  1 12  1  0
  4 13  1  0
  5 14  1  0
  5 15  1  0
  6 16  1  0
  7 17  1  0
  8 18  1  0
  9 19  1  0
M  END
