
     RDKit          3D

 21 22  0  0  0  0  0  0  0  0999 V2000
    0.0695   -1.4152   -1.4190 C   0  0  0  0  0  0  0  0  0  0  0  0
   -0.2858   -0.1104   -0.7757 C   0  0  0  0  0  0  0  0  0  0  0  0
   -1.5847    0.5509   -1.1829 C   0  0  0  0  0  0  0  0  0  0  0  0
   -2.3019    0.8296    0.0707 C   0  0  0  0  0  0  0  0  0  0  0  0
   -1.6133    0.4595    1.1358 C   0  0  0  0  0  0  0  0  0  0  0  0
   -0.3068   -0.1326    0.7203 C   0  0  0  0  0  0  0  0  0  0  0  0
    0.6645    0.7195   -0.0426 C   0  0  0  0  0  0  0  0  0  0  0  0
    2.1291    0.3736    0.0602 C   0  0  0  0  0  0  0  0  0  0  0  0
    2.3458   -0.8617    0.6678 O   0  0  0  0  0  0  0  0  0  0  0  0
    1.0560   -1.7239   -1.0802 H   0  0  0  0  0  0  0  0  0  0  0  0
   -0.0034   -1.3986   -2.5207 H   0  0  0  0  0  0  0  0  0  0  0  0
   -0.6658   -2.1831   -1.0600 H   0  0  0  0  0  0  0  0  0  0  0  0
   -1.2904    1.5344   -1.6509 H   0  0  0  0  0  0  0  0  0  0  0  0
   -2.1496   -0.0027   -1.9298 H   0  0  0  0  0  0  0  0  0  0  0  0
   -3.2841    1.2870    0.1116 H   0  0  0  0  0  0  0  0  0  0  0  0
   -1.8909    0.5421    2.1813 H   0  0  0  0  0  0  0  0  0  0  0  0
    0.1263   -0.9652    1.2800 H   0  0  0  0  0  0  0  0  0  0  0  0
    0.4649    1.8098    0.0271 H   0  0  0  0  0  0  0  0  0  0  0  0
    2.6777    1.1283    0.6604 H   0  0  0  0  0  0  0  0  0  0  0  0
    2.5643    0.4057   -0.9566 H   0  0  0  0  0  0  0  0  0  0  0  0
    3.2785   -0.8468    1.0317 H   0  0  0  0  0  0  0  0  0  0  0  0
  1  2  1  0
  2  3  1  0
  3  4  1  0
  4  5  2  0
  5  6  1  0
  6  7  1  0
  7  8  1  0
  8  9  1  0
  6  2  1  0
  7  2  1  0
  1 10  1  0
  1 11  1  0
  1 12  1  0
  3 13  1  0
  3 14  1  0
  4 15  1  0
  5 16  1  0
  6 17  1  0
  7 18  1  0
  8 19  1  0
  8 20  1  0
  9 21  1  0
M  END
