
     RDKit          3D

 19 21  0  0  0  0  0  0  0  0999 V2000
   -2.1506    1.0097    0.2221 C   0  0  0  0  0  0  0  0  0  0  0  0
   -1.1153    0.1378   -0.3702 C   0  0  0  0  0  0  0  0  0  0  0  0
   -1.2367   -1.3738   -0.1968 C   0  0  0  0  0  0  0  0  0  0  0  0
    0.2965   -1.4008   -0.2910 C   0  0  0  0  0  0  0  0  0  0  0  0
    0.2249    0.1084   -0.3709 C   0  0  0  0  0  0  0  0  0  0  0  0
    1.3115    0.9547    0.1603 C   0  0  0  0  0  0  0  0  0  0  0  0
    2.7042    0.4215    0.2195 C   0  0  0  0  0  0  0  0  0  0  0  0
    1.8956    0.2749    1.3751 O   0  0  0  0  0  0  0  0  0  0  0  0
   -0.4308    0.5750   -1.4945 O   0  0  0  0  0  0  0  0  0  0  0  0
   -3.0669    0.9914   -0.4142 H   0  0  0  0  0  0  0  0  0  0  0  0
   -1.8022    2.0470    0.3192 H   0  0  0  0  0  0  0  0  0  0  0  0
   -2.4291    0.6636    1.2476 H   0  0  0  0  0  0  0  0  0  0  0  0
   -1.7416   -1.8453   -1.0504 H   0  0  0  0  0  0  0  0  0  0  0  0
   -1.6134   -1.6184    0.8044 H   0  0  0  0  0  0  0  0  0  0  0  0
    0.7993   -1.7951    0.5995 H   0  0  0  0  0  0  0  0  0  0  0  0
    0.6531   -1.8066   -1.2699 H   0  0  0  0  0  0  0  0  0  0  0  0
    1.1807    2.0001    0.4320 H   0  0  0  0  0  0  0  0  0  0  0  0
    3.5372    1.1394    0.4176 H   0  0  0  0  0  0  0  0  0  0  0  0
    2.9838   -0.4835   -0.3395 H   0  0  0  0  0  0  0  0  0  0  0  0
  1  2  1  0
  2  3  1  0
  3  4  1  0
  4  5  1  0
  5  6  1  0
  6  7  1  0
  7  8  1  0
  5  9  1  0
  5  2  1  0
  8  6  1  0
  9  2  1  0
  1 10  1  0
  1 11  1  0
  1 12  1  0
  3 13  1  0
  3 14  1  0
  4 15  1  0
  4 16  1  0
  6 17  1  0
  7 18  1  0
  7 19  1  0
M  END
