
     RDKit          3D

 21 23  0  0  0  0  0  0  0  0999 V2000
   -2.0245   -0.6300    1.1401 C   0  0  0  0  0  0  0  0  0  0  0  0
   -0.7760   -0.3527    0.4067 C   0  0  0  0  0  0  0  0  0  0  0  0
   -0.8072   -0.5431   -1.1079 C   0  0  0  0  0  0  0  0  0  0  0  0
    0.1253    0.6845   -1.1291 C   0  0  0  0  0  0  0  0  0  0  0  0
   -0.6218    1.1206    0.0992 C   0  0  0  0  0  0  0  0  0  0  0  0
    1.5214    0.2544   -0.8175 C   0  0  0  0  0  0  0  0  0  0  0  0
    2.2035    0.5293    0.4352 C   0  0  0  0  0  0  0  0  0  0  0  0
    1.4873   -0.8126    0.2132 C   0  0  0  0  0  0  0  0  0  0  0  0
    0.3343   -0.9441    0.9106 O   0  0  0  0  0  0  0  0  0  0  0  0
   -2.4835    0.3244    1.5354 H   0  0  0  0  0  0  0  0  0  0  0  0
   -1.7676   -1.2024    2.0800 H   0  0  0  0  0  0  0  0  0  0  0  0
   -2.7738   -1.2290    0.6216 H   0  0  0  0  0  0  0  0  0  0  0  0
   -0.3388   -1.4516   -1.4794 H   0  0  0  0  0  0  0  0  0  0  0  0
   -1.7764   -0.2436   -1.5548 H   0  0  0  0  0  0  0  0  0  0  0  0
    0.0382    1.3020   -2.0180 H   0  0  0  0  0  0  0  0  0  0  0  0
   -0.1005    1.7275    0.8256 H   0  0  0  0  0  0  0  0  0  0  0  0
   -1.6190    1.5361   -0.2100 H   0  0  0  0  0  0  0  0  0  0  0  0
    2.1472    0.0232   -1.7135 H   0  0  0  0  0  0  0  0  0  0  0  0
    3.3045    0.4308    0.4492 H   0  0  0  0  0  0  0  0  0  0  0  0
    1.8249    1.1914    1.2335 H   0  0  0  0  0  0  0  0  0  0  0  0
    2.1025   -1.7153    0.0799 H   0  0  0  0  0  0  0  0  0  0  0  0
  1  2  1  0
  2  3  1  0
  3  4  1  0
  4  5  1  0
  4  6  1  0
  6  7  1  0
  7  8  1  0
  8  9  1  0
  5  2  1  0
  8  6  1  0
  9  2  1  0
  1 10  1  0
  1 11  1  0
  1 12  1  0
  3 13  1  0
  3 14  1  0
  4 15  1  0
  5 16  1  0
  5 17  1  0
  6 18  1  0
  7 19  1  0
  7 20  1  0
  8 21  1  0
M  END
