
     RDKit          3D

 21 23  0  0  0  0  0  0  0  0999 V2000
   -1.5083    1.5323   -0.1305 C   0  0  0  0  0  0  0  0  0  0  0  0
   -0.4503    0.5559    0.0087 C   0  0  0  0  0  0  0  0  0  0  0  0
    0.8964    1.0280    0.4426 C   0  0  0  0  0  0  0  0  0  0  0  0
    1.7088   -0.2717    0.3649 C   0  0  0  0  0  0  0  0  0  0  0  0
    0.9924   -1.0924   -0.6626 C   0  0  0  0  0  0  0  0  0  0  0  0
   -0.2494   -1.7163   -0.0863 C   0  0  0  0  0  0  0  0  0  0  0  0
   -0.8035   -0.6758    0.8612 C   0  0  0  0  0  0  0  0  0  0  0  0
   -0.8943   -1.3354   -1.2856 O   0  0  0  0  0  0  0  0  0  0  0  0
   -0.0920   -0.2206   -1.2611 C   0  0  0  0  0  0  0  0  0  0  0  0
   -1.0819    2.5496   -0.3015 H   0  0  0  0  0  0  0  0  0  0  0  0
   -2.2528    1.3248   -0.8999 H   0  0  0  0  0  0  0  0  0  0  0  0
   -2.0766    1.6256    0.8373 H   0  0  0  0  0  0  0  0  0  0  0  0
    0.8820    1.4446    1.4462 H   0  0  0  0  0  0  0  0  0  0  0  0
    1.3012    1.6969   -0.3355 H   0  0  0  0  0  0  0  0  0  0  0  0
    1.6532   -0.8269    1.3346 H   0  0  0  0  0  0  0  0  0  0  0  0
    2.7592   -0.0887    0.1598 H   0  0  0  0  0  0  0  0  0  0  0  0
    1.5826   -1.6871   -1.3391 H   0  0  0  0  0  0  0  0  0  0  0  0
   -0.2610   -2.7393    0.1855 H   0  0  0  0  0  0  0  0  0  0  0  0
   -0.3194   -0.6560    1.8335 H   0  0  0  0  0  0  0  0  0  0  0  0
   -1.9020   -0.7797    0.9689 H   0  0  0  0  0  0  0  0  0  0  0  0
    0.1159    0.3323   -2.1413 H   0  0  0  0  0  0  0  0  0  0  0  0
  1  2  1  0
  2  3  1  0
  3  4  1  0
  4  5  1  0
  5  6  1  0
  6  7  1  0
  6  8  1  0
  8  9  1  0
  7  2  1  0
  9  2  1  0
  9  5  1  0
  1 10  1  0
  1 11  1  0
  1 12  1  0
  3 13  1  0
  3 14  1  0
  4 15  1  0
  4 16  1  0
  5 17  1  0
  6 18  1  0
  7 19  1  0
  7 20  1  0
  9 21  1  0
M  END
