
     RDKit          3D

 17 18  0  0  0  0  0  0  0  0999 V2000
   -0.7148    1.5369    0.5142 C   0  0  0  0  0  0  0  0  0  0  0  0
   -0.2698    0.2673   -0.0984 C   0  0  0  0  0  0  0  0  0  0  0  0
   -1.3735   -0.7776   -0.3085 C   0  0  0  0  0  0  0  0  0  0  0  0
   -0.3432   -1.7904   -0.0031 C   0  0  0  0  0  0  0  0  0  0  0  0
   -0.1469   -2.9347   -0.3124 O   0  0  0  0  0  0  0  0  0  0  0  0
    0.3199   -0.7713    0.8387 C   0  0  0  0  0  0  0  0  0  0  0  0
    1.6754   -0.6177    0.6623 O   0  0  0  0  0  0  0  0  0  0  0  0
    1.8653    0.2309   -0.4160 C   0  0  0  0  0  0  0  0  0  0  0  0
    0.6684    0.3183   -1.1023 O   0  0  0  0  0  0  0  0  0  0  0  0
   -0.0367    2.3549    0.1500 H   0  0  0  0  0  0  0  0  0  0  0  0
   -0.8387    1.5354    1.5941 H   0  0  0  0  0  0  0  0  0  0  0  0
   -1.7174    1.7931    0.0668 H   0  0  0  0  0  0  0  0  0  0  0  0
   -1.8175   -0.7886   -1.3002 H   0  0  0  0  0  0  0  0  0  0  0  0
   -2.0786   -0.6950    0.5485 H   0  0  0  0  0  0  0  0  0  0  0  0
   -0.0487   -0.7019    1.8802 H   0  0  0  0  0  0  0  0  0  0  0  0
    2.6908   -0.1863   -1.0214 H   0  0  0  0  0  0  0  0  0  0  0  0
    2.1661    1.2266    0.0075 H   0  0  0  0  0  0  0  0  0  0  0  0
  1  2  1  0
  2  3  1  0
  3  4  1  0
  4  5  2  0
  4  6  1  0
  6  7  1  0
  7  8  1  0
  8  9  1  0
  6  2  1  0
  9  2  1  0
  1 10  1  0
  1 11  1  0
  1 12  1  0
  3 13  1  0
  3 14  1  0
  6 15  1  0
  8 16  1  0
  8 17  1  0
M  END
