
     RDKit          3D

 19 20  0  0  0  0  0  0  0  0999 V2000
   -2.0572   -0.0087   -0.5100 C   0  0  0  0  0  0  0  0  0  0  0  0
   -0.6006   -0.1011   -0.1319 C   0  0  0  0  0  0  0  0  0  0  0  0
   -0.0953    1.2251    0.3531 C   0  0  0  0  0  0  0  0  0  0  0  0
    1.3774    1.2801    0.1205 C   0  0  0  0  0  0  0  0  0  0  0  0
    2.0307    0.2324   -0.3283 C   0  0  0  0  0  0  0  0  0  0  0  0
    1.2858   -1.0015   -0.6367 C   0  0  0  0  0  0  0  0  0  0  0  0
    0.8745   -1.6920    0.4950 O   0  0  0  0  0  0  0  0  0  0  0  0
   -0.3200   -1.1396    0.9014 C   0  0  0  0  0  0  0  0  0  0  0  0
    0.0818   -0.5799   -1.2494 O   0  0  0  0  0  0  0  0  0  0  0  0
   -2.4813    0.8962   -0.0261 H   0  0  0  0  0  0  0  0  0  0  0  0
   -2.1369    0.1544   -1.6115 H   0  0  0  0  0  0  0  0  0  0  0  0
   -2.6242   -0.9145   -0.2824 H   0  0  0  0  0  0  0  0  0  0  0  0
   -0.2242    1.3165    1.4712 H   0  0  0  0  0  0  0  0  0  0  0  0
   -0.6364    2.0539   -0.1055 H   0  0  0  0  0  0  0  0  0  0  0  0
    1.8517    2.2462    0.3514 H   0  0  0  0  0  0  0  0  0  0  0  0
    3.0869    0.2802   -0.4658 H   0  0  0  0  0  0  0  0  0  0  0  0
    1.8466   -1.6961   -1.2906 H   0  0  0  0  0  0  0  0  0  0  0  0
   -1.1297   -1.8751    1.0348 H   0  0  0  0  0  0  0  0  0  0  0  0
   -0.1296   -0.6765    1.9107 H   0  0  0  0  0  0  0  0  0  0  0  0
  1  2  1  0
  2  3  1  0
  3  4  1  0
  4  5  2  0
  5  6  1  0
  6  7  1  0
  7  8  1  0
  6  9  1  0
  8  2  1  0
  9  2  1  0
  1 10  1  0
  1 11  1  0
  1 12  1  0
  3 13  1  0
  3 14  1  0
  4 15  1  0
  5 16  1  0
  6 17  1  0
  8 18  1  0
  8 19  1  0
M  END
