
     RDKit          3D

 23 24  0  0  0  0  0  0  0  0999 V2000
   -1.5318    0.3698    1.1789 C   0  0  0  0  0  0  0  0  0  0  0  0
   -0.6868   -0.3027    0.3536 C   0  0  0  0  0  0  0  0  0  0  0  0
    0.1330   -1.5392    0.6950 C   0  0  0  0  0  0  0  0  0  0  0  0
    0.4627   -1.2954   -0.7228 C   0  0  0  0  0  0  0  0  0  0  0  0
   -1.0271   -1.0671   -0.9060 C   0  0  0  0  0  0  0  0  0  0  0  0
    0.5075    0.1659   -0.3973 C   0  0  0  0  0  0  0  0  0  0  0  0
    0.2188    1.0764   -1.5792 C   0  0  0  0  0  0  0  0  0  0  0  0
    1.6765    0.6824    0.3688 C   0  0  0  0  0  0  0  0  0  0  0  0
    1.3203    1.8003    1.1603 O   0  0  0  0  0  0  0  0  0  0  0  0
   -2.6351    0.2020    0.9906 H   0  0  0  0  0  0  0  0  0  0  0  0
   -1.4273    0.1351    2.2809 H   0  0  0  0  0  0  0  0  0  0  0  0
   -1.4431    1.4979    1.1543 H   0  0  0  0  0  0  0  0  0  0  0  0
   -0.5578   -2.4262    0.7781 H   0  0  0  0  0  0  0  0  0  0  0  0
    0.8770   -1.4483    1.4739 H   0  0  0  0  0  0  0  0  0  0  0  0
    1.0532   -1.8050   -1.3491 H   0  0  0  0  0  0  0  0  0  0  0  0
   -1.6686   -1.9353   -0.6535 H   0  0  0  0  0  0  0  0  0  0  0  0
   -1.3063   -0.4737   -1.7774 H   0  0  0  0  0  0  0  0  0  0  0  0
   -0.8168    1.4919   -1.5368 H   0  0  0  0  0  0  0  0  0  0  0  0
    0.3837    0.4638   -2.5015 H   0  0  0  0  0  0  0  0  0  0  0  0
    0.8988    1.9522   -1.5994 H   0  0  0  0  0  0  0  0  0  0  0  0
    2.4512    1.1145   -0.3354 H   0  0  0  0  0  0  0  0  0  0  0  0
    2.2400   -0.0644    0.9524 H   0  0  0  0  0  0  0  0  0  0  0  0
    0.8779    1.4053    1.9717 H   0  0  0  0  0  0  0  0  0  0  0  0
  1  2  1  0
  2  3  1  0
  3  4  1  0
  4  5  1  0
  4  6  1  0
  6  7  1  0
  6  8  1  0
  8  9  1  0
  5  2  1  0
  6  2  1  0
  1 10  1  0
  1 11  1  0
  1 12  1  0
  3 13  1  0
  3 14  1  0
  4 15  1  0
  5 16  1  0
  5 17  1  0
  7 18  1  0
  7 19  1  0
  7 20  1  0
  8 21  1  0
  8 22  1  0
  9 23  1  0
M  END
