
     RDKit          3D

 23 24  0  0  0  0  0  0  0  0999 V2000
    2.5266   -0.1883    0.4715 C   0  0  0  0  0  0  0  0  0  0  0  0
    1.0798   -0.1581    0.1498 C   0  0  0  0  0  0  0  0  0  0  0  0
    0.3365   -1.4225    0.1866 C   0  0  0  0  0  0  0  0  0  0  0  0
   -0.9743   -1.5835    0.1780 C   0  0  0  0  0  0  0  0  0  0  0  0
   -2.0735   -0.5905    0.1524 C   0  0  0  0  0  0  0  0  0  0  0  0
   -1.7529    0.6601   -0.5792 C   0  0  0  0  0  0  0  0  0  0  0  0
   -0.4120    1.2290   -0.3619 C   0  0  0  0  0  0  0  0  0  0  0  0
    0.6993    0.5690   -1.1252 C   0  0  0  0  0  0  0  0  0  0  0  0
    0.2534    0.8776    0.9220 C   0  0  0  0  0  0  0  0  0  0  0  0
    2.8870    0.8614    0.5562 H   0  0  0  0  0  0  0  0  0  0  0  0
    3.0626   -0.6838   -0.3749 H   0  0  0  0  0  0  0  0  0  0  0  0
    2.6831   -0.7213    1.4079 H   0  0  0  0  0  0  0  0  0  0  0  0
    0.9355   -2.3145    0.2249 H   0  0  0  0  0  0  0  0  0  0  0  0
   -1.3133   -2.6213    0.1920 H   0  0  0  0  0  0  0  0  0  0  0  0
   -2.3759   -0.3890    1.2145 H   0  0  0  0  0  0  0  0  0  0  0  0
   -2.9612   -1.0568   -0.3238 H   0  0  0  0  0  0  0  0  0  0  0  0
   -1.9201    0.5380   -1.6732 H   0  0  0  0  0  0  0  0  0  0  0  0
   -2.5142    1.4343   -0.2654 H   0  0  0  0  0  0  0  0  0  0  0  0
   -0.3889    2.3213   -0.5382 H   0  0  0  0  0  0  0  0  0  0  0  0
    1.4715    1.2250   -1.5496 H   0  0  0  0  0  0  0  0  0  0  0  0
    0.2687   -0.1214   -1.8957 H   0  0  0  0  0  0  0  0  0  0  0  0
   -0.4303    0.4644    1.6627 H   0  0  0  0  0  0  0  0  0  0  0  0
    0.9126    1.6713    1.3687 H   0  0  0  0  0  0  0  0  0  0  0  0
  1  2  1  0
  2  3  1  0
  3  4  2  0
  4  5  1  0
  5  6  1  0
  6  7  1  0
  7  8  1  0
  7  9  1  0
  8  2  1  0
  9  2  1  0
  1 10  1  0
  1 11  1  0
  1 12  1  0
  3 13  1  0
  4 14  1  0
  5 15  1  0
  5 16  1  0
  6 17  1  0
  6 18  1  0
  7 19  1  0
  8 20  1  0
  8 21  1  0
  9 22  1  0
  9 23  1  0
M  END
