
     RDKit          3D

 21 22  0  0  0  0  0  0  0  0999 V2000
    2.2643    0.1045   -0.5628 C   0  0  0  0  0  0  0  0  0  0  0  0
    0.8340    0.0210   -0.1397 C   0  0  0  0  0  0  0  0  0  0  0  0
    0.7857   -0.4162    1.2886 C   0  0  0  0  0  0  0  0  0  0  0  0
   -0.1807   -1.3083    1.3520 C   0  0  0  0  0  0  0  0  0  0  0  0
   -0.8385   -1.3384    0.0234 C   0  0  0  0  0  0  0  0  0  0  0  0
   -1.8754   -0.2312   -0.0398 C   0  0  0  0  0  0  0  0  0  0  0  0
   -1.3242    0.9859   -0.7290 C   0  0  0  0  0  0  0  0  0  0  0  0
    0.0843    1.3114   -0.2489 C   0  0  0  0  0  0  0  0  0  0  0  0
    0.1940   -1.0173   -0.8389 O   0  0  0  0  0  0  0  0  0  0  0  0
    2.9572   -0.0078    0.3170 H   0  0  0  0  0  0  0  0  0  0  0  0
    2.5208   -0.7456   -1.2340 H   0  0  0  0  0  0  0  0  0  0  0  0
    2.5368    1.0343   -1.0586 H   0  0  0  0  0  0  0  0  0  0  0  0
    1.4468   -0.0271    2.0470 H   0  0  0  0  0  0  0  0  0  0  0  0
   -0.4581   -1.9125    2.1983 H   0  0  0  0  0  0  0  0  0  0  0  0
   -1.2868   -2.3187   -0.1707 H   0  0  0  0  0  0  0  0  0  0  0  0
   -2.1669    0.0092    0.9974 H   0  0  0  0  0  0  0  0  0  0  0  0
   -2.7226   -0.6353   -0.6374 H   0  0  0  0  0  0  0  0  0  0  0  0
   -2.0078    1.8466   -0.5313 H   0  0  0  0  0  0  0  0  0  0  0  0
   -1.2965    0.7746   -1.8212 H   0  0  0  0  0  0  0  0  0  0  0  0
    0.5476    2.0379   -0.9435 H   0  0  0  0  0  0  0  0  0  0  0  0
   -0.0139    1.8331    0.7320 H   0  0  0  0  0  0  0  0  0  0  0  0
  1  2  1  0
  2  3  1  0
  3  4  2  0
  4  5  1  0
  5  6  1  0
  6  7  1  0
  7  8  1  0
  5  9  1  0
  8  2  1  0
  9  2  1  0
  1 10  1  0
  1 11  1  0
  1 12  1  0
  3 13  1  0
  4 14  1  0
  5 15  1  0
  6 16  1  0
  6 17  1  0
  7 18  1  0
  7 19  1  0
  8 20  1  0
  8 21  1  0
M  END
