
     RDKit          3D

 18 19  0  0  0  0  0  0  0  0999 V2000
   -2.0310    0.4402   -0.8846 C   0  0  0  0  0  0  0  0  0  0  0  0
   -0.6706    0.3548   -0.1754 C   0  0  0  0  0  0  0  0  0  0  0  0
   -0.6780    0.1491    1.2885 C   0  0  0  0  0  0  0  0  0  0  0  0
   -0.3247   -0.9749    0.3267 C   0  0  0  0  0  0  0  0  0  0  0  0
    1.0708   -1.3873    0.1901 C   0  0  0  0  0  0  0  0  0  0  0  0
    1.9765   -0.4752   -0.1205 C   0  0  0  0  0  0  0  0  0  0  0  0
    1.5715    0.9423   -0.3250 C   0  0  0  0  0  0  0  0  0  0  0  0
    0.3005    1.0683   -0.8063 O   0  0  0  0  0  0  0  0  0  0  0  0
   -2.0534   -0.4148   -1.6206 H   0  0  0  0  0  0  0  0  0  0  0  0
   -2.8624    0.2309   -0.1816 H   0  0  0  0  0  0  0  0  0  0  0  0
   -2.1434    1.4120   -1.4106 H   0  0  0  0  0  0  0  0  0  0  0  0
    0.2007    0.5129    1.8616 H   0  0  0  0  0  0  0  0  0  0  0  0
   -1.6458    0.1515    1.7912 H   0  0  0  0  0  0  0  0  0  0  0  0
   -1.0988   -1.7812    0.3242 H   0  0  0  0  0  0  0  0  0  0  0  0
    1.3833   -2.4128    0.3348 H   0  0  0  0  0  0  0  0  0  0  0  0
    3.0222   -0.7294   -0.2332 H   0  0  0  0  0  0  0  0  0  0  0  0
    2.2594    1.4642   -1.0260 H   0  0  0  0  0  0  0  0  0  0  0  0
    1.7231    1.4494    0.6669 H   0  0  0  0  0  0  0  0  0  0  0  0
  1  2  1  0
  2  3  1  0
  3  4  1  0
  4  5  1  0
  5  6  2  0
  6  7  1  0
  7  8  1  0
  4  2  1  0
  8  2  1  0
  1  9  1  0
  1 10  1  0
  1 11  1  0
  3 12  1  0
  3 13  1  0
  4 14  1  0
  5 15  1  0
  6 16  1  0
  7 17  1  0
  7 18  1  0
M  END
