
     RDKit          3D

 21 23  0  0  0  0  0  0  0  0999 V2000
    2.3235   -0.6123   -0.2919 C   0  0  0  0  0  0  0  0  0  0  0  0
    0.9436   -0.0533   -0.2388 C   0  0  0  0  0  0  0  0  0  0  0  0
    0.8355    1.3796    0.1898 C   0  0  0  0  0  0  0  0  0  0  0  0
   -0.2740    1.5360    0.9605 O   0  0  0  0  0  0  0  0  0  0  0  0
   -0.8710    0.3328    1.1938 C   0  0  0  0  0  0  0  0  0  0  0  0
   -2.1043    0.2506    0.2864 C   0  0  0  0  0  0  0  0  0  0  0  0
   -1.5010   -0.1025   -1.0623 C   0  0  0  0  0  0  0  0  0  0  0  0
   -0.2062   -0.7785   -0.8173 C   0  0  0  0  0  0  0  0  0  0  0  0
   -0.0156   -0.7598    0.6307 C   0  0  0  0  0  0  0  0  0  0  0  0
    2.4965   -1.3079   -1.1081 H   0  0  0  0  0  0  0  0  0  0  0  0
    3.1236    0.1823   -0.3189 H   0  0  0  0  0  0  0  0  0  0  0  0
    2.5301   -1.1621    0.6726 H   0  0  0  0  0  0  0  0  0  0  0  0
    0.8891    2.0668   -0.6888 H   0  0  0  0  0  0  0  0  0  0  0  0
    1.7310    1.6244    0.8306 H   0  0  0  0  0  0  0  0  0  0  0  0
   -1.1186    0.1787    2.2464 H   0  0  0  0  0  0  0  0  0  0  0  0
   -2.7859   -0.5395    0.6623 H   0  0  0  0  0  0  0  0  0  0  0  0
   -2.5520    1.2599    0.2969 H   0  0  0  0  0  0  0  0  0  0  0  0
   -2.2100   -0.8547   -1.5173 H   0  0  0  0  0  0  0  0  0  0  0  0
   -1.4782    0.7620   -1.7190 H   0  0  0  0  0  0  0  0  0  0  0  0
    0.0589   -1.7203   -1.3645 H   0  0  0  0  0  0  0  0  0  0  0  0
    0.1850   -1.6820    1.1571 H   0  0  0  0  0  0  0  0  0  0  0  0
  1  2  1  0
  2  3  1  0
  3  4  1  0
  4  5  1  0
  5  6  1  0
  6  7  1  0
  7  8  1  0
  8  9  1  0
  8  2  1  0
  9  2  1  0
  9  5  1  0
  1 10  1  0
  1 11  1  0
  1 12  1  0
  3 13  1  0
  3 14  1  0
  5 15  1  0
  6 16  1  0
  6 17  1  0
  7 18  1  0
  7 19  1  0
  8 20  1  0
  9 21  1  0
M  END
