
     RDKit          3D

 23 24  0  0  0  0  0  0  0  0999 V2000
   -0.5275    1.8500    0.7832 C   0  0  0  0  0  0  0  0  0  0  0  0
   -0.5201    0.5831    0.1078 C   0  0  0  0  0  0  0  0  0  0  0  0
   -1.2832    0.4100   -1.1992 C   0  0  0  0  0  0  0  0  0  0  0  0
   -0.9917   -1.0869   -1.4257 C   0  0  0  0  0  0  0  0  0  0  0  0
   -0.1616   -1.3737   -0.2058 C   0  0  0  0  0  0  0  0  0  0  0  0
   -0.9281   -0.6784    0.8696 C   0  0  0  0  0  0  0  0  0  0  0  0
    0.7512   -0.1356   -0.2099 C   0  0  0  0  0  0  0  0  0  0  0  0
    1.8424   -0.1432    0.7934 C   0  0  0  0  0  0  0  0  0  0  0  0
    2.9077   -0.8788    0.2415 O   0  0  0  0  0  0  0  0  0  0  0  0
   -0.9415    2.6601    0.1176 H   0  0  0  0  0  0  0  0  0  0  0  0
   -1.2410    1.8321    1.6559 H   0  0  0  0  0  0  0  0  0  0  0  0
    0.4429    2.2188    1.1869 H   0  0  0  0  0  0  0  0  0  0  0  0
   -2.3487    0.6078   -1.1062 H   0  0  0  0  0  0  0  0  0  0  0  0
   -0.7604    1.0318   -1.9476 H   0  0  0  0  0  0  0  0  0  0  0  0
   -0.3723   -1.2405   -2.3080 H   0  0  0  0  0  0  0  0  0  0  0  0
   -1.9506   -1.6188   -1.4476 H   0  0  0  0  0  0  0  0  0  0  0  0
    0.2839   -2.3170   -0.0556 H   0  0  0  0  0  0  0  0  0  0  0  0
   -2.0221   -0.8592    0.8723 H   0  0  0  0  0  0  0  0  0  0  0  0
   -0.4837   -0.7283    1.8734 H   0  0  0  0  0  0  0  0  0  0  0  0
    1.0515    0.0328   -1.2703 H   0  0  0  0  0  0  0  0  0  0  0  0
    2.1536    0.8461    1.1526 H   0  0  0  0  0  0  0  0  0  0  0  0
    1.5270   -0.7196    1.6870 H   0  0  0  0  0  0  0  0  0  0  0  0
    3.5723   -0.2925   -0.1654 H   0  0  0  0  0  0  0  0  0  0  0  0
  1  2  1  0
  2  3  1  0
  3  4  1  0
  4  5  1  0
  5  6  1  0
  5  7  1  0
  7  8  1  0
  8  9  1  0
  6  2  1  0
  7  2  1  0
  1 10  1  0
  1 11  1  0
  1 12  1  0
  3 13  1  0
  3 14  1  0
  4 15  1  0
  4 16  1  0
  5 17  1  0
  6 18  1  0
  6 19  1  0
  7 20  1  0
  8 21  1  0
  8 22  1  0
  9 23  1  0
M  END
