
     RDKit          3D

 18 20  0  0  0  0  0  0  0  0999 V2000
    2.2683    0.0797    0.4237 C   0  0  0  0  0  0  0  0  0  0  0  0
    0.7865    0.0780    0.3765 C   0  0  0  0  0  0  0  0  0  0  0  0
    0.0352    0.7966    1.3111 O   0  0  0  0  0  0  0  0  0  0  0  0
   -1.2506    0.5846    0.8890 C   0  0  0  0  0  0  0  0  0  0  0  0
   -1.2902   -0.9262    0.7460 C   0  0  0  0  0  0  0  0  0  0  0  0
   -0.0053   -1.0777   -0.0835 C   0  0  0  0  0  0  0  0  0  0  0  0
    0.0717    0.1109   -0.9237 C   0  0  0  0  0  0  0  0  0  0  0  0
   -1.1470    0.9848   -0.5886 C   0  0  0  0  0  0  0  0  0  0  0  0
    2.7050    0.9921   -0.0357 H   0  0  0  0  0  0  0  0  0  0  0  0
    2.6296   -0.7693   -0.2174 H   0  0  0  0  0  0  0  0  0  0  0  0
    2.6738   -0.0873    1.4172 H   0  0  0  0  0  0  0  0  0  0  0  0
   -2.0494    1.0292    1.4206 H   0  0  0  0  0  0  0  0  0  0  0  0
   -1.2290   -1.4555    1.6958 H   0  0  0  0  0  0  0  0  0  0  0  0
   -2.1794   -1.1858    0.1326 H   0  0  0  0  0  0  0  0  0  0  0  0
    0.3848   -2.0567   -0.3028 H   0  0  0  0  0  0  0  0  0  0  0  0
    0.5512    0.1984   -1.8836 H   0  0  0  0  0  0  0  0  0  0  0  0
   -0.9108    2.0487   -0.7100 H   0  0  0  0  0  0  0  0  0  0  0  0
   -2.0444    0.6555   -1.1069 H   0  0  0  0  0  0  0  0  0  0  0  0
  1  2  1  0
  2  3  1  0
  3  4  1  0
  4  5  1  0
  5  6  1  0
  6  7  1  0
  7  8  1  0
  6  2  1  0
  7  2  1  0
  8  4  1  0
  1  9  1  0
  1 10  1  0
  1 11  1  0
  4 12  1  0
  5 13  1  0
  5 14  1  0
  6 15  1  0
  7 16  1  0
  8 17  1  0
  8 18  1  0
M  END
