
     RDKit          3D

 15 16  0  0  0  0  0  0  0  0999 V2000
    1.4682   -0.2812    0.9144 C   0  0  0  0  0  0  0  0  0  0  0  0
    0.6998    0.3435   -0.1895 C   0  0  0  0  0  0  0  0  0  0  0  0
    0.3043   -0.4859   -1.3361 C   0  0  0  0  0  0  0  0  0  0  0  0
   -0.7098    0.1723   -0.4466 C   0  0  0  0  0  0  0  0  0  0  0  0
   -1.6357   -0.6234    0.3626 C   0  0  0  0  0  0  0  0  0  0  0  0
   -1.5068   -0.8849    1.5308 O   0  0  0  0  0  0  0  0  0  0  0  0
   -0.8417    1.6199   -0.5890 C   0  0  0  0  0  0  0  0  0  0  0  0
   -1.6910    2.4851   -0.8873 O   0  0  0  0  0  0  0  0  0  0  0  0
    0.5009    1.7410   -0.2264 O   0  0  0  0  0  0  0  0  0  0  0  0
    0.8868   -0.9763    1.5530 H   0  0  0  0  0  0  0  0  0  0  0  0
    1.9375    0.4545    1.6189 H   0  0  0  0  0  0  0  0  0  0  0  0
    2.3338   -0.8315    0.4642 H   0  0  0  0  0  0  0  0  0  0  0  0
    0.4908   -1.5748   -1.2388 H   0  0  0  0  0  0  0  0  0  0  0  0
    0.2916   -0.1378   -2.3753 H   0  0  0  0  0  0  0  0  0  0  0  0
   -2.5288   -1.0204   -0.1318 H   0  0  0  0  0  0  0  0  0  0  0  0
  1  2  1  0
  2  3  1  0
  3  4  1  0
  4  5  1  0
  5  6  2  0
  4  7  1  0
  7  8  2  0
  7  9  1  0
  4  2  1  0
  9  2  1  0
  1 10  1  0
  1 11  1  0
  1 12  1  0
  3 13  1  0
  3 14  1  0
  5 15  1  0
M  END
