
     RDKit          3D

 21 22  0  0  0  0  0  0  0  0999 V2000
   -2.2808   -0.2841   -0.2751 C   0  0  0  0  0  0  0  0  0  0  0  0
   -0.8415   -0.0907    0.0570 C   0  0  0  0  0  0  0  0  0  0  0  0
   -0.2560   -1.2517    0.7784 C   0  0  0  0  0  0  0  0  0  0  0  0
    1.0685   -1.2819    0.9396 O   0  0  0  0  0  0  0  0  0  0  0  0
    1.8745   -0.4393    0.2845 C   0  0  0  0  0  0  0  0  0  0  0  0
    1.2462    0.6615   -0.4885 C   0  0  0  0  0  0  0  0  0  0  0  0
    0.5642    1.5943    0.5112 C   0  0  0  0  0  0  0  0  0  0  0  0
   -0.6699    1.0629    0.7843 O   0  0  0  0  0  0  0  0  0  0  0  0
    0.0110    0.1043   -1.2077 C   0  0  0  0  0  0  0  0  0  0  0  0
   -2.8998    0.3694    0.4076 H   0  0  0  0  0  0  0  0  0  0  0  0
   -2.6261   -1.3144   -0.0763 H   0  0  0  0  0  0  0  0  0  0  0  0
   -2.4487    0.0366   -1.3250 H   0  0  0  0  0  0  0  0  0  0  0  0
   -0.5972   -2.1971    0.2636 H   0  0  0  0  0  0  0  0  0  0  0  0
   -0.7530   -1.3124    1.7915 H   0  0  0  0  0  0  0  0  0  0  0  0
    2.5858    0.0347    1.0242 H   0  0  0  0  0  0  0  0  0  0  0  0
    2.5573   -1.0264   -0.3966 H   0  0  0  0  0  0  0  0  0  0  0  0
    1.9339    1.1644   -1.1516 H   0  0  0  0  0  0  0  0  0  0  0  0
    1.1606    1.5833    1.4559 H   0  0  0  0  0  0  0  0  0  0  0  0
    0.5428    2.6322    0.1490 H   0  0  0  0  0  0  0  0  0  0  0  0
   -0.4250    0.8281   -1.8909 H   0  0  0  0  0  0  0  0  0  0  0  0
    0.2533   -0.8739   -1.6352 H   0  0  0  0  0  0  0  0  0  0  0  0
  1  2  1  0
  2  3  1  0
  3  4  1  0
  4  5  1  0
  5  6  1  0
  6  7  1  0
  7  8  1  0
  6  9  1  0
  8  2  1  0
  9  2  1  0
  1 10  1  0
  1 11  1  0
  1 12  1  0
  3 13  1  0
  3 14  1  0
  5 15  1  0
  5 16  1  0
  6 17  1  0
  7 18  1  0
  7 19  1  0
  9 20  1  0
  9 21  1  0
M  END
