
     RDKit          3D

 20 21  0  0  0  0  0  0  0  0999 V2000
    1.9039   -0.0021   -0.3158 C   0  0  0  0  0  0  0  0  0  0  0  0
    0.5985   -0.2873    0.3326 C   0  0  0  0  0  0  0  0  0  0  0  0
    0.1980   -1.7511    0.3652 C   0  0  0  0  0  0  0  0  0  0  0  0
   -0.9189   -1.8498   -0.4517 O   0  0  0  0  0  0  0  0  0  0  0  0
   -1.6357   -0.6801   -0.2661 C   0  0  0  0  0  0  0  0  0  0  0  0
   -0.6498    0.4228   -0.0030 C   0  0  0  0  0  0  0  0  0  0  0  0
   -0.6381    1.6431   -0.9013 C   0  0  0  0  0  0  0  0  0  0  0  0
   -0.0241    0.5817    1.3370 C   0  0  0  0  0  0  0  0  0  0  0  0
    1.7920   -0.1880   -1.4151 H   0  0  0  0  0  0  0  0  0  0  0  0
    2.6527   -0.7461    0.0686 H   0  0  0  0  0  0  0  0  0  0  0  0
    2.3267    0.9896   -0.1064 H   0  0  0  0  0  0  0  0  0  0  0  0
   -0.0644   -1.9838    1.4290 H   0  0  0  0  0  0  0  0  0  0  0  0
    1.0231   -2.4048    0.0780 H   0  0  0  0  0  0  0  0  0  0  0  0
   -2.2019   -0.4662   -1.2009 H   0  0  0  0  0  0  0  0  0  0  0  0
   -2.3682   -0.7997    0.5452 H   0  0  0  0  0  0  0  0  0  0  0  0
   -1.0758    1.4174   -1.8952 H   0  0  0  0  0  0  0  0  0  0  0  0
    0.4094    1.9942   -0.9519 H   0  0  0  0  0  0  0  0  0  0  0  0
   -1.2711    2.4531   -0.4673 H   0  0  0  0  0  0  0  0  0  0  0  0
   -0.4438    0.0721    2.2343 H   0  0  0  0  0  0  0  0  0  0  0  0
    0.3876    1.5852    1.5848 H   0  0  0  0  0  0  0  0  0  0  0  0
  1  2  1  0
  2  3  1  0
  3  4  1  0
  4  5  1  0
  5  6  1  0
  6  7  1  0
  6  8  1  0
  6  2  1  0
  8  2  1  0
  1  9  1  0
  1 10  1  0
  1 11  1  0
  3 12  1  0
  3 13  1  0
  5 14  1  0
  5 15  1  0
  7 16  1  0
  7 17  1  0
  7 18  1  0
  8 19  1  0
  8 20  1  0
M  END
