
     RDKit          3D

 19 21  0  0  0  0  0  0  0  0999 V2000
   -2.1489   -0.3124   -0.9061 C   0  0  0  0  0  0  0  0  0  0  0  0
   -0.7164   -0.0959   -0.5342 C   0  0  0  0  0  0  0  0  0  0  0  0
    0.1703   -1.0975   -0.8089 O   0  0  0  0  0  0  0  0  0  0  0  0
    1.2258   -1.0180    0.0879 C   0  0  0  0  0  0  0  0  0  0  0  0
    2.0362    0.1804   -0.3329 C   0  0  0  0  0  0  0  0  0  0  0  0
    1.3280    1.2902   -0.5115 C   0  0  0  0  0  0  0  0  0  0  0  0
   -0.1273    1.1961   -0.2332 C   0  0  0  0  0  0  0  0  0  0  0  0
   -0.5036    0.3444    0.8915 C   0  0  0  0  0  0  0  0  0  0  0  0
    0.5369   -0.6233    1.3739 C   0  0  0  0  0  0  0  0  0  0  0  0
   -2.6540   -0.7739   -0.0216 H   0  0  0  0  0  0  0  0  0  0  0  0
   -2.7038    0.5976   -1.1429 H   0  0  0  0  0  0  0  0  0  0  0  0
   -2.2753   -1.0602   -1.7359 H   0  0  0  0  0  0  0  0  0  0  0  0
    1.8074   -1.9306    0.1468 H   0  0  0  0  0  0  0  0  0  0  0  0
    3.0832    0.0625   -0.4546 H   0  0  0  0  0  0  0  0  0  0  0  0
    1.7701    2.2176   -0.8403 H   0  0  0  0  0  0  0  0  0  0  0  0
   -0.7119    2.1040   -0.4035 H   0  0  0  0  0  0  0  0  0  0  0  0
   -1.3523    0.6205    1.5249 H   0  0  0  0  0  0  0  0  0  0  0  0
    0.0144   -1.5123    1.7849 H   0  0  0  0  0  0  0  0  0  0  0  0
    1.2213   -0.1891    2.1158 H   0  0  0  0  0  0  0  0  0  0  0  0
  1  2  1  0
  2  3  1  0
  3  4  1  0
  4  5  1  0
  5  6  2  0
  6  7  1  0
  7  8  1  0
  8  9  1  0
  7  2  1  0
  8  2  1  0
  9  4  1  0
  1 10  1  0
  1 11  1  0
  1 12  1  0
  4 13  1  0
  5 14  1  0
  6 15  1  0
  7 16  1  0
  8 17  1  0
  9 18  1  0
  9 19  1  0
M  END
