
     RDKit          3D

 19 20  0  0  0  0  0  0  0  0999 V2000
   -1.7643   -0.8845   -0.4510 C   0  0  0  0  0  0  0  0  0  0  0  0
   -0.4683   -0.1693   -0.1985 C   0  0  0  0  0  0  0  0  0  0  0  0
   -0.3646    1.0747   -0.9939 C   0  0  0  0  0  0  0  0  0  0  0  0
    0.9630    1.6119   -0.8676 O   0  0  0  0  0  0  0  0  0  0  0  0
    1.7913    1.0805    0.0939 C   0  0  0  0  0  0  0  0  0  0  0  0
    2.9173    1.5409    0.2933 O   0  0  0  0  0  0  0  0  0  0  0  0
    1.2966   -0.0574    0.8827 C   0  0  0  0  0  0  0  0  0  0  0  0
    0.7476   -1.0428   -0.1656 C   0  0  0  0  0  0  0  0  0  0  0  0
   -0.1774    0.1413    1.2609 C   0  0  0  0  0  0  0  0  0  0  0  0
   -1.7257   -1.2238   -1.5215 H   0  0  0  0  0  0  0  0  0  0  0  0
   -2.5793   -0.1313   -0.3983 H   0  0  0  0  0  0  0  0  0  0  0  0
   -1.9136   -1.7523    0.1990 H   0  0  0  0  0  0  0  0  0  0  0  0
   -0.6401    0.9229   -2.0468 H   0  0  0  0  0  0  0  0  0  0  0  0
   -1.0186    1.8505   -0.4998 H   0  0  0  0  0  0  0  0  0  0  0  0
    1.9282   -0.4857    1.6411 H   0  0  0  0  0  0  0  0  0  0  0  0
    1.3789   -1.0571   -1.0631 H   0  0  0  0  0  0  0  0  0  0  0  0
    0.5167   -2.0086    0.3032 H   0  0  0  0  0  0  0  0  0  0  0  0
   -0.3789    1.1891    1.5485 H   0  0  0  0  0  0  0  0  0  0  0  0
   -0.5087   -0.5989    1.9835 H   0  0  0  0  0  0  0  0  0  0  0  0
  1  2  1  0
  2  3  1  0
  3  4  1  0
  4  5  1  0
  5  6  2  0
  5  7  1  0
  7  8  1  0
  7  9  1  0
  8  2  1  0
  9  2  1  0
  1 10  1  0
  1 11  1  0
  1 12  1  0
  3 13  1  0
  3 14  1  0
  7 15  1  0
  8 16  1  0
  8 17  1  0
  9 18  1  0
  9 19  1  0
M  END
