
     RDKit          3D

 21 23  0  0  0  0  0  0  0  0999 V2000
   -2.3974   -0.0475    0.2032 C   0  0  0  0  0  0  0  0  0  0  0  0
   -0.8611    0.0931    0.2023 C   0  0  0  0  0  0  0  0  0  0  0  0
   -0.2319   -1.2334    0.3371 C   0  0  0  0  0  0  0  0  0  0  0  0
    1.2076   -1.3584    0.0421 C   0  0  0  0  0  0  0  0  0  0  0  0
    1.9863   -0.1284   -0.1463 C   0  0  0  0  0  0  0  0  0  0  0  0
    1.2263    1.0840   -0.5638 C   0  0  0  0  0  0  0  0  0  0  0  0
    0.9141    1.8591    0.5292 O   0  0  0  0  0  0  0  0  0  0  0  0
   -0.3612    1.3686    0.6638 C   0  0  0  0  0  0  0  0  0  0  0  0
   -0.2115    0.9026   -0.8173 C   0  0  0  0  0  0  0  0  0  0  0  0
   -2.7383   -0.3125   -0.8063 H   0  0  0  0  0  0  0  0  0  0  0  0
   -2.8801    0.8958    0.5210 H   0  0  0  0  0  0  0  0  0  0  0  0
   -2.6841   -0.8069    0.9753 H   0  0  0  0  0  0  0  0  0  0  0  0
   -0.5157   -1.6415    1.3541 H   0  0  0  0  0  0  0  0  0  0  0  0
   -0.7802   -1.9293   -0.3704 H   0  0  0  0  0  0  0  0  0  0  0  0
    1.4120   -2.0325   -0.8454 H   0  0  0  0  0  0  0  0  0  0  0  0
    1.6677   -1.9446    0.8961 H   0  0  0  0  0  0  0  0  0  0  0  0
    2.8100   -0.2698   -0.9093 H   0  0  0  0  0  0  0  0  0  0  0  0
    2.5629    0.1155    0.7966 H   0  0  0  0  0  0  0  0  0  0  0  0
    1.7071    1.6969   -1.3559 H   0  0  0  0  0  0  0  0  0  0  0  0
   -1.0954    2.1830    0.8468 H   0  0  0  0  0  0  0  0  0  0  0  0
   -0.7371    1.5061   -1.5697 H   0  0  0  0  0  0  0  0  0  0  0  0
  1  2  1  0
  2  3  1  0
  3  4  1  0
  4  5  1  0
  5  6  1  0
  6  7  1  0
  7  8  1  0
  8  9  1  0
  8  2  1  0
  9  2  1  0
  9  6  1  0
  1 10  1  0
  1 11  1  0
  1 12  1  0
  3 13  1  0
  3 14  1  0
  4 15  1  0
  4 16  1  0
  5 17  1  0
  5 18  1  0
  6 19  1  0
  8 20  1  0
  9 21  1  0
M  END
