
     RDKit          3D

 21 22  0  0  0  0  0  0  0  0999 V2000
    2.1314   -0.2518    0.3436 C   0  0  0  0  0  0  0  0  0  0  0  0
    0.7538   -0.4094   -0.1021 C   0  0  0  0  0  0  0  0  0  0  0  0
   -0.1440   -1.3914    0.5994 C   0  0  0  0  0  0  0  0  0  0  0  0
   -1.3805   -1.1873   -0.2974 C   0  0  0  0  0  0  0  0  0  0  0  0
   -0.7497   -0.1997   -1.2547 C   0  0  0  0  0  0  0  0  0  0  0  0
    0.5350   -0.7634   -1.4509 O   0  0  0  0  0  0  0  0  0  0  0  0
   -0.0766    0.8078   -0.3899 C   0  0  0  0  0  0  0  0  0  0  0  0
   -0.8653    1.3637    0.7576 C   0  0  0  0  0  0  0  0  0  0  0  0
    0.5957    1.7782   -1.0808 O   0  0  0  0  0  0  0  0  0  0  0  0
    2.7672   -1.0555   -0.0779 H   0  0  0  0  0  0  0  0  0  0  0  0
    2.5392    0.7192    0.0032 H   0  0  0  0  0  0  0  0  0  0  0  0
    2.1888   -0.3402    1.4381 H   0  0  0  0  0  0  0  0  0  0  0  0
    0.2576   -2.4050    0.4029 H   0  0  0  0  0  0  0  0  0  0  0  0
   -0.3449   -1.1731    1.6390 H   0  0  0  0  0  0  0  0  0  0  0  0
   -1.6695   -2.1236   -0.7916 H   0  0  0  0  0  0  0  0  0  0  0  0
   -2.2247   -0.7803    0.2590 H   0  0  0  0  0  0  0  0  0  0  0  0
   -1.2905    0.0959   -2.1243 H   0  0  0  0  0  0  0  0  0  0  0  0
   -1.2912    0.6212    1.4295 H   0  0  0  0  0  0  0  0  0  0  0  0
   -0.1779    2.0037    1.3546 H   0  0  0  0  0  0  0  0  0  0  0  0
   -1.6354    2.0645    0.3387 H   0  0  0  0  0  0  0  0  0  0  0  0
    0.0814    2.6265   -0.9961 H   0  0  0  0  0  0  0  0  0  0  0  0
  1  2  1  0
  2  3  1  0
  3  4  1  0
  4  5  1  0
  5  6  1  0
  5  7  1  0
  7  8  1  0
  7  9  1  0
  6  2  1  0
  7  2  1  0
  1 10  1  0
  1 11  1  0
  1 12  1  0
  3 13  1  0
  3 14  1  0
  4 15  1  0
  4 16  1  0
  5 17  1  0
  8 18  1  0
  8 19  1  0
  8 20  1  0
  9 21  1  0
M  END
