
     RDKit          3D

 19 21  0  0  0  0  0  0  0  0999 V2000
    2.1508   -0.7171   -0.0041 C   0  0  0  0  0  0  0  0  0  0  0  0
    0.7693   -0.2069    0.1359 C   0  0  0  0  0  0  0  0  0  0  0  0
    0.1267   -0.1293    1.3391 O   0  0  0  0  0  0  0  0  0  0  0  0
   -1.2272   -0.0766    1.1372 C   0  0  0  0  0  0  0  0  0  0  0  0
   -1.4148   -0.9933   -0.0544 C   0  0  0  0  0  0  0  0  0  0  0  0
   -0.2754   -0.5676   -0.9198 C   0  0  0  0  0  0  0  0  0  0  0  0
    0.1832    0.7991   -0.8020 C   0  0  0  0  0  0  0  0  0  0  0  0
   -0.6225    1.7568   -0.0093 C   0  0  0  0  0  0  0  0  0  0  0  0
   -1.6605    1.1917    0.7114 O   0  0  0  0  0  0  0  0  0  0  0  0
    2.6979   -0.2486   -0.8476 H   0  0  0  0  0  0  0  0  0  0  0  0
    2.1836   -1.8216   -0.1861 H   0  0  0  0  0  0  0  0  0  0  0  0
    2.6889   -0.5546    0.9516 H   0  0  0  0  0  0  0  0  0  0  0  0
   -1.8095   -0.3612    2.0056 H   0  0  0  0  0  0  0  0  0  0  0  0
   -2.3985   -0.9247   -0.5120 H   0  0  0  0  0  0  0  0  0  0  0  0
   -1.2222   -2.0308    0.3229 H   0  0  0  0  0  0  0  0  0  0  0  0
    0.0285   -1.1780   -1.7707 H   0  0  0  0  0  0  0  0  0  0  0  0
    0.7995    1.2060   -1.6181 H   0  0  0  0  0  0  0  0  0  0  0  0
   -1.0267    2.5807   -0.6345 H   0  0  0  0  0  0  0  0  0  0  0  0
    0.0292    2.2760    0.7551 H   0  0  0  0  0  0  0  0  0  0  0  0
  1  2  1  0
  2  3  1  0
  3  4  1  0
  4  5  1  0
  5  6  1  0
  6  7  1  0
  7  8  1  0
  8  9  1  0
  6  2  1  0
  7  2  1  0
  9  4  1  0
  1 10  1  0
  1 11  1  0
  1 12  1  0
  4 13  1  0
  5 14  1  0
  5 15  1  0
  6 16  1  0
  7 17  1  0
  8 18  1  0
  8 19  1  0
M  END
