
     RDKit          3D

 19 20  0  0  0  0  0  0  0  0999 V2000
   -2.3569    0.0868   -0.2590 C   0  0  0  0  0  0  0  0  0  0  0  0
   -1.0218   -0.0505   -0.0334 C   0  0  0  0  0  0  0  0  0  0  0  0
   -0.0610    0.9728    0.5281 C   0  0  0  0  0  0  0  0  0  0  0  0
    0.7933   -0.2532    0.3202 C   0  0  0  0  0  0  0  0  0  0  0  0
    2.0395   -0.3903    0.5246 O   0  0  0  0  0  0  0  0  0  0  0  0
    3.0603    0.3044   -0.0569 C   0  0  0  0  0  0  0  0  0  0  0  0
    2.7383    1.1895   -0.8983 O   0  0  0  0  0  0  0  0  0  0  0  0
    0.0702   -0.3781   -1.0143 C   0  0  0  0  0  0  0  0  0  0  0  0
   -0.3352   -1.0390    0.8877 C   0  0  0  0  0  0  0  0  0  0  0  0
   -3.0270   -0.3728    0.5273 H   0  0  0  0  0  0  0  0  0  0  0  0
   -2.7299    1.1523   -0.3174 H   0  0  0  0  0  0  0  0  0  0  0  0
   -2.7336   -0.3767   -1.2166 H   0  0  0  0  0  0  0  0  0  0  0  0
   -0.1949    1.1922    1.6087 H   0  0  0  0  0  0  0  0  0  0  0  0
    0.1212    1.8199   -0.1330 H   0  0  0  0  0  0  0  0  0  0  0  0
    4.1221    0.1288    0.1719 H   0  0  0  0  0  0  0  0  0  0  0  0
    0.0667   -1.4159   -1.3782 H   0  0  0  0  0  0  0  0  0  0  0  0
    0.3062    0.4026   -1.7509 H   0  0  0  0  0  0  0  0  0  0  0  0
   -0.3606   -2.0878    0.5291 H   0  0  0  0  0  0  0  0  0  0  0  0
   -0.4971   -0.8849    1.9604 H   0  0  0  0  0  0  0  0  0  0  0  0
  1  2  1  0
  2  3  1  0
  3  4  1  0
  4  5  1  0
  5  6  1  0
  6  7  2  0
  4  8  1  0
  4  9  1  0
  8  2  1  0
  9  2  1  0
  1 10  1  0
  1 11  1  0
  1 12  1  0
  3 13  1  0
  3 14  1  0
  6 15  1  0
  8 16  1  0
  8 17  1  0
  9 18  1  0
  9 19  1  0
M  END
