
     RDKit          3D

 18 20  0  0  0  0  0  0  0  0999 V2000
    1.9383   -0.5322   -0.2784 C   0  0  0  0  0  0  0  0  0  0  0  0
    0.6567    0.1138   -0.1490 C   0  0  0  0  0  0  0  0  0  0  0  0
   -0.3806    0.3017   -1.1688 C   0  0  0  0  0  0  0  0  0  0  0  0
   -1.6343   -0.2682   -0.5196 C   0  0  0  0  0  0  0  0  0  0  0  0
   -1.2624   -0.5681    0.9065 C   0  0  0  0  0  0  0  0  0  0  0  0
   -0.0492    0.3072    1.1570 C   0  0  0  0  0  0  0  0  0  0  0  0
    0.2936    1.4297    0.2817 C   0  0  0  0  0  0  0  0  0  0  0  0
   -0.3551    1.6906   -0.8980 O   0  0  0  0  0  0  0  0  0  0  0  0
    2.2438   -0.6568   -1.3140 H   0  0  0  0  0  0  0  0  0  0  0  0
    2.7867   -0.0302    0.2658 H   0  0  0  0  0  0  0  0  0  0  0  0
    1.9028   -1.5641    0.1748 H   0  0  0  0  0  0  0  0  0  0  0  0
   -0.2029    0.0223   -2.1995 H   0  0  0  0  0  0  0  0  0  0  0  0
   -2.4331    0.5267   -0.4745 H   0  0  0  0  0  0  0  0  0  0  0  0
   -2.0541   -1.1131   -1.0661 H   0  0  0  0  0  0  0  0  0  0  0  0
   -0.8721   -1.6261    0.9123 H   0  0  0  0  0  0  0  0  0  0  0  0
   -2.0691   -0.4139    1.6192 H   0  0  0  0  0  0  0  0  0  0  0  0
    0.5432    0.1712    2.0627 H   0  0  0  0  0  0  0  0  0  0  0  0
    0.9479    2.2094    0.6879 H   0  0  0  0  0  0  0  0  0  0  0  0
  1  2  1  0
  2  3  1  0
  3  4  1  0
  4  5  1  0
  5  6  1  0
  6  7  1  0
  7  8  1  0
  6  2  1  0
  7  2  1  0
  8  3  1  0
  1  9  1  0
  1 10  1  0
  1 11  1  0
  3 12  1  0
  4 13  1  0
  4 14  1  0
  5 15  1  0
  5 16  1  0
  6 17  1  0
  7 18  1  0
M  END
