
     RDKit          3D

 21 22  0  0  0  0  0  0  0  0999 V2000
   -1.1214   -1.7200   -0.0705 C   0  0  0  0  0  0  0  0  0  0  0  0
   -0.8096   -0.3305    0.3081 C   0  0  0  0  0  0  0  0  0  0  0  0
   -1.4940    0.8505   -0.2878 C   0  0  0  0  0  0  0  0  0  0  0  0
   -0.1255    1.4612   -0.5463 C   0  0  0  0  0  0  0  0  0  0  0  0
    0.1148    2.6484    0.1090 O   0  0  0  0  0  0  0  0  0  0  0  0
    0.4881    0.3155    0.2149 C   0  0  0  0  0  0  0  0  0  0  0  0
    1.7308   -0.2978   -0.3309 C   0  0  0  0  0  0  0  0  0  0  0  0
    2.1469   -1.4274    0.3314 O   0  0  0  0  0  0  0  0  0  0  0  0
   -0.0218   -0.0852    1.5395 C   0  0  0  0  0  0  0  0  0  0  0  0
   -1.8799   -1.7927   -0.8940 H   0  0  0  0  0  0  0  0  0  0  0  0
   -1.6316   -2.2119    0.8094 H   0  0  0  0  0  0  0  0  0  0  0  0
   -0.2389   -2.3540   -0.2832 H   0  0  0  0  0  0  0  0  0  0  0  0
   -2.0847    0.7075   -1.1896 H   0  0  0  0  0  0  0  0  0  0  0  0
   -2.0664    1.4422    0.4837 H   0  0  0  0  0  0  0  0  0  0  0  0
    0.1100    1.4372   -1.6284 H   0  0  0  0  0  0  0  0  0  0  0  0
   -0.4159    3.4109   -0.2037 H   0  0  0  0  0  0  0  0  0  0  0  0
    1.6721   -0.4891   -1.4159 H   0  0  0  0  0  0  0  0  0  0  0  0
    2.5601    0.4594   -0.2085 H   0  0  0  0  0  0  0  0  0  0  0  0
    2.9296   -1.7900   -0.1827 H   0  0  0  0  0  0  0  0  0  0  0  0
   -0.3039    0.7196    2.2396 H   0  0  0  0  0  0  0  0  0  0  0  0
    0.4412   -0.9541    2.0042 H   0  0  0  0  0  0  0  0  0  0  0  0
  1  2  1  0
  2  3  1  0
  3  4  1  0
  4  5  1  0
  4  6  1  0
  6  7  1  0
  7  8  1  0
  6  9  1  0
  6  2  1  0
  9  2  1  0
  1 10  1  0
  1 11  1  0
  1 12  1  0
  3 13  1  0
  3 14  1  0
  4 15  1  0
  5 16  1  0
  7 17  1  0
  7 18  1  0
  8 19  1  0
  9 20  1  0
  9 21  1  0
M  END
