
     RDKit          3D

 21 22  0  0  0  0  0  0  0  0999 V2000
   -2.5614    0.5074    0.0567 C   0  0  0  0  0  0  0  0  0  0  0  0
   -1.2245   -0.0508    0.1572 C   0  0  0  0  0  0  0  0  0  0  0  0
   -0.0614    0.9033    0.4130 C   0  0  0  0  0  0  0  0  0  0  0  0
    0.9863   -0.1938    0.6848 C   0  0  0  0  0  0  0  0  0  0  0  0
    2.2069   -0.0048   -0.1614 C   0  0  0  0  0  0  0  0  0  0  0  0
    2.7759    1.2264    0.1188 O   0  0  0  0  0  0  0  0  0  0  0  0
    0.1432   -1.3698    0.3041 C   0  0  0  0  0  0  0  0  0  0  0  0
   -0.6855   -0.9423   -0.8975 C   0  0  0  0  0  0  0  0  0  0  0  0
   -1.0196   -1.1167    1.0668 O   0  0  0  0  0  0  0  0  0  0  0  0
   -2.7541    0.8950   -0.9616 H   0  0  0  0  0  0  0  0  0  0  0  0
   -3.3207   -0.2693    0.2993 H   0  0  0  0  0  0  0  0  0  0  0  0
   -2.6431    1.3921    0.7545 H   0  0  0  0  0  0  0  0  0  0  0  0
    0.1442    1.4239   -0.5283 H   0  0  0  0  0  0  0  0  0  0  0  0
   -0.2187    1.5376    1.2794 H   0  0  0  0  0  0  0  0  0  0  0  0
    1.1940   -0.2123    1.7574 H   0  0  0  0  0  0  0  0  0  0  0  0
    2.0386   -0.1332   -1.2271 H   0  0  0  0  0  0  0  0  0  0  0  0
    2.9413   -0.7754    0.1581 H   0  0  0  0  0  0  0  0  0  0  0  0
    2.9689    1.7516   -0.7003 H   0  0  0  0  0  0  0  0  0  0  0  0
    0.5424   -2.3540    0.3221 H   0  0  0  0  0  0  0  0  0  0  0  0
   -0.1227   -0.4363   -1.6934 H   0  0  0  0  0  0  0  0  0  0  0  0
   -1.3299   -1.7787   -1.2027 H   0  0  0  0  0  0  0  0  0  0  0  0
  1  2  1  0
  2  3  1  0
  3  4  1  0
  4  5  1  0
  5  6  1  0
  4  7  1  0
  7  8  1  0
  7  9  1  0
  8  2  1  0
  9  2  1  0
  1 10  1  0
  1 11  1  0
  1 12  1  0
  3 13  1  0
  3 14  1  0
  4 15  1  0
  5 16  1  0
  5 17  1  0
  6 18  1  0
  7 19  1  0
  8 20  1  0
  8 21  1  0
M  END
