
     RDKit          3D

 17 18  0  0  0  0  0  0  0  0999 V2000
   -1.5755   -0.4316    0.6392 C   0  0  0  0  0  0  0  0  0  0  0  0
   -0.9894    0.1504   -0.6614 C   0  0  0  0  0  0  0  0  0  0  0  0
    0.2578   -0.5768   -1.0403 C   0  0  0  0  0  0  0  0  0  0  0  0
    1.1921   -0.1333    0.1015 C   0  0  0  0  0  0  0  0  0  0  0  0
    1.4085   -1.1227    1.0120 O   0  0  0  0  0  0  0  0  0  0  0  0
    0.4619    1.0527    0.6839 C   0  0  0  0  0  0  0  0  0  0  0  0
    0.4805    1.4832    1.8112 O   0  0  0  0  0  0  0  0  0  0  0  0
   -0.2718    1.5310   -0.5000 C   0  0  0  0  0  0  0  0  0  0  0  0
   -1.4664    1.3193   -0.9675 O   0  0  0  0  0  0  0  0  0  0  0  0
   -0.7898   -0.4365    1.4122 H   0  0  0  0  0  0  0  0  0  0  0  0
   -1.8897   -1.4637    0.3579 H   0  0  0  0  0  0  0  0  0  0  0  0
   -2.4670    0.0955    0.9691 H   0  0  0  0  0  0  0  0  0  0  0  0
    0.1298   -1.6584   -0.9334 H   0  0  0  0  0  0  0  0  0  0  0  0
    0.6528   -0.2887   -2.0176 H   0  0  0  0  0  0  0  0  0  0  0  0
    2.1050    0.2708   -0.3607 H   0  0  0  0  0  0  0  0  0  0  0  0
    2.2860   -1.5794    0.8096 H   0  0  0  0  0  0  0  0  0  0  0  0
    0.4752    1.7882   -1.3158 H   0  0  0  0  0  0  0  0  0  0  0  0
  1  2  1  0
  2  3  1  0
  3  4  1  0
  4  5  1  0
  4  6  1  0
  6  7  2  0
  6  8  1  0
  8  9  1  0
  8  2  1  0
  9  2  1  0
  1 10  1  0
  1 11  1  0
  1 12  1  0
  3 13  1  0
  3 14  1  0
  4 15  1  0
  5 16  1  0
  8 17  1  0
M  END
