
     RDKit          3D

 17 18  0  0  0  0  0  0  0  0999 V2000
   -1.9128   -0.0840   -0.3820 C   0  0  0  0  0  0  0  0  0  0  0  0
   -0.5606    0.1041    0.2091 C   0  0  0  0  0  0  0  0  0  0  0  0
   -0.0576    1.4825    0.3500 C   0  0  0  0  0  0  0  0  0  0  0  0
    1.2556    1.5546    0.1185 C   0  0  0  0  0  0  0  0  0  0  0  0
    1.7759    0.2374   -0.2020 C   0  0  0  0  0  0  0  0  0  0  0  0
    2.9519   -0.1118   -0.4378 O   0  0  0  0  0  0  0  0  0  0  0  0
    0.6191   -0.6868   -0.2057 C   0  0  0  0  0  0  0  0  0  0  0  0
    0.4252   -1.5158   -1.3065 O   0  0  0  0  0  0  0  0  0  0  0  0
   -0.0146   -0.9597    1.0870 C   0  0  0  0  0  0  0  0  0  0  0  0
   -2.5834   -0.7005    0.2825 H   0  0  0  0  0  0  0  0  0  0  0  0
   -1.9091   -0.6134   -1.3630 H   0  0  0  0  0  0  0  0  0  0  0  0
   -2.4359    0.9073   -0.4649 H   0  0  0  0  0  0  0  0  0  0  0  0
   -0.6577    2.3563    0.6099 H   0  0  0  0  0  0  0  0  0  0  0  0
    1.8952    2.4353    0.1495 H   0  0  0  0  0  0  0  0  0  0  0  0
    1.2902   -1.8867   -1.6320 H   0  0  0  0  0  0  0  0  0  0  0  0
   -0.6032   -1.8911    1.1646 H   0  0  0  0  0  0  0  0  0  0  0  0
    0.5220   -0.6279    2.0226 H   0  0  0  0  0  0  0  0  0  0  0  0
  1  2  1  0
  2  3  1  0
  3  4  2  0
  4  5  1  0
  5  6  2  0
  5  7  1  0
  7  8  1  0
  7  9  1  0
  7  2  1  0
  9  2  1  0
  1 10  1  0
  1 11  1  0
  1 12  1  0
  3 13  1  0
  4 14  1  0
  8 15  1  0
  9 16  1  0
  9 17  1  0
M  END
