
     RDKit          3D

 21 22  0  0  0  0  0  0  0  0999 V2000
    2.1386   -0.6206    0.1793 C   0  0  0  0  0  0  0  0  0  0  0  0
    0.7443   -0.1432   -0.0735 C   0  0  0  0  0  0  0  0  0  0  0  0
    0.7276    1.3933   -0.0126 C   0  0  0  0  0  0  0  0  0  0  0  0
   -0.6684    1.7791   -0.3632 C   0  0  0  0  0  0  0  0  0  0  0  0
   -1.6874    0.9364   -0.2450 C   0  0  0  0  0  0  0  0  0  0  0  0
   -1.5047   -0.4462    0.2434 C   0  0  0  0  0  0  0  0  0  0  0  0
   -0.9959   -1.2577   -0.9565 C   0  0  0  0  0  0  0  0  0  0  0  0
    0.1849   -0.5801   -1.2399 O   0  0  0  0  0  0  0  0  0  0  0  0
   -0.2065   -0.5492    1.0636 C   0  0  0  0  0  0  0  0  0  0  0  0
    2.7221    0.1650    0.7024 H   0  0  0  0  0  0  0  0  0  0  0  0
    2.5973   -0.8622   -0.8149 H   0  0  0  0  0  0  0  0  0  0  0  0
    2.0896   -1.5035    0.8449 H   0  0  0  0  0  0  0  0  0  0  0  0
    1.4766    1.8355   -0.6683 H   0  0  0  0  0  0  0  0  0  0  0  0
    0.9207    1.6640    1.0624 H   0  0  0  0  0  0  0  0  0  0  0  0
   -0.8262    2.7889   -0.7244 H   0  0  0  0  0  0  0  0  0  0  0  0
   -2.6845    1.2558   -0.5096 H   0  0  0  0  0  0  0  0  0  0  0  0
   -2.3526   -0.8908    0.7333 H   0  0  0  0  0  0  0  0  0  0  0  0
   -1.7095   -1.2382   -1.7852 H   0  0  0  0  0  0  0  0  0  0  0  0
   -0.7101   -2.2832   -0.6441 H   0  0  0  0  0  0  0  0  0  0  0  0
   -0.1830    0.1569    1.8890 H   0  0  0  0  0  0  0  0  0  0  0  0
   -0.0729   -1.6000    1.3191 H   0  0  0  0  0  0  0  0  0  0  0  0
  1  2  1  0
  2  3  1  0
  3  4  1  0
  4  5  2  0
  5  6  1  0
  6  7  1  0
  7  8  1  0
  6  9  1  0
  8  2  1  0
  9  2  1  0
  1 10  1  0
  1 11  1  0
  1 12  1  0
  3 13  1  0
  3 14  1  0
  4 15  1  0
  5 16  1  0
  6 17  1  0
  7 18  1  0
  7 19  1  0
  9 20  1  0
  9 21  1  0
M  END
