
     RDKit          3D

 21 23  0  0  0  0  0  0  0  0999 V2000
   -2.2377    0.4904    0.0806 C   0  0  0  0  0  0  0  0  0  0  0  0
   -0.9221   -0.0826    0.2551 C   0  0  0  0  0  0  0  0  0  0  0  0
   -0.7000   -1.2875    1.0868 C   0  0  0  0  0  0  0  0  0  0  0  0
    0.6971   -1.4750    0.9483 O   0  0  0  0  0  0  0  0  0  0  0  0
    1.0299   -0.4366    0.1081 C   0  0  0  0  0  0  0  0  0  0  0  0
    2.4359   -0.3014   -0.2422 C   0  0  0  0  0  0  0  0  0  0  0  0
    0.2617    0.7823    0.5402 C   0  0  0  0  0  0  0  0  0  0  0  0
    0.2228    1.1814   -0.9009 C   0  0  0  0  0  0  0  0  0  0  0  0
   -0.0279   -0.2967   -0.9324 C   0  0  0  0  0  0  0  0  0  0  0  0
   -2.7084    0.1322   -0.8756 H   0  0  0  0  0  0  0  0  0  0  0  0
   -2.2626    1.5979    0.1517 H   0  0  0  0  0  0  0  0  0  0  0  0
   -2.9245    0.1305    0.8882 H   0  0  0  0  0  0  0  0  0  0  0  0
   -0.9066   -1.1797    2.1527 H   0  0  0  0  0  0  0  0  0  0  0  0
   -1.2521   -2.1585    0.6663 H   0  0  0  0  0  0  0  0  0  0  0  0
    2.7999    0.7244   -0.4267 H   0  0  0  0  0  0  0  0  0  0  0  0
    2.6635   -0.9595   -1.1290 H   0  0  0  0  0  0  0  0  0  0  0  0
    3.0635   -0.7109    0.5792 H   0  0  0  0  0  0  0  0  0  0  0  0
    0.4353    1.3558    1.3407 H   0  0  0  0  0  0  0  0  0  0  0  0
   -0.6148    1.8289   -1.2128 H   0  0  0  0  0  0  0  0  0  0  0  0
    1.1512    1.5386   -1.3481 H   0  0  0  0  0  0  0  0  0  0  0  0
   -0.2040   -0.8743   -1.7302 H   0  0  0  0  0  0  0  0  0  0  0  0
  1  2  1  0
  2  3  1  0
  3  4  1  0
  4  5  1  0
  5  6  1  0
  5  7  1  0
  7  8  1  0
  8  9  1  0
  7  2  1  0
  9  2  1  0
  9  5  1  0
  1 10  1  0
  1 11  1  0
  1 12  1  0
  3 13  1  0
  3 14  1  0
  6 15  1  0
  6 16  1  0
  6 17  1  0
  7 18  1  0
  8 19  1  0
  8 20  1  0
  9 21  1  0
M  END
