
     RDKit          3D

 19 22  0  0  0  0  0  0  0  0999 V2000
    2.2029    0.1634    0.1172 C   0  0  0  0  0  0  0  0  0  0  0  0
    0.7871    0.1139   -0.1943 C   0  0  0  0  0  0  0  0  0  0  0  0
    0.2497    1.0379   -1.0940 O   0  0  0  0  0  0  0  0  0  0  0  0
   -1.1234    0.7762   -0.8765 C   0  0  0  0  0  0  0  0  0  0  0  0
   -1.1593    1.1194    0.6224 C   0  0  0  0  0  0  0  0  0  0  0  0
   -0.1116    0.0617    1.0031 C   0  0  0  0  0  0  0  0  0  0  0  0
   -0.7576   -1.1514    0.4347 C   0  0  0  0  0  0  0  0  0  0  0  0
   -1.2398   -0.7248   -0.8906 C   0  0  0  0  0  0  0  0  0  0  0  0
    0.1602   -1.1516   -0.6789 C   0  0  0  0  0  0  0  0  0  0  0  0
    2.8773    0.4944   -0.6975 H   0  0  0  0  0  0  0  0  0  0  0  0
    2.3719    0.8620    0.9896 H   0  0  0  0  0  0  0  0  0  0  0  0
    2.5322   -0.8332    0.4973 H   0  0  0  0  0  0  0  0  0  0  0  0
   -1.7948    1.3273   -1.4773 H   0  0  0  0  0  0  0  0  0  0  0  0
   -0.7244    2.0928    0.8335 H   0  0  0  0  0  0  0  0  0  0  0  0
   -2.1287    0.9090    1.0705 H   0  0  0  0  0  0  0  0  0  0  0  0
    0.2813    0.0825    1.9836 H   0  0  0  0  0  0  0  0  0  0  0  0
   -1.1255   -1.9775    1.0079 H   0  0  0  0  0  0  0  0  0  0  0  0
   -1.9622   -1.2476   -1.4940 H   0  0  0  0  0  0  0  0  0  0  0  0
    0.6646   -1.9545   -1.1567 H   0  0  0  0  0  0  0  0  0  0  0  0
  1  2  1  0
  2  3  1  0
  3  4  1  0
  4  5  1  0
  5  6  1  0
  6  7  1  0
  7  8  1  0
  8  9  1  0
  6  2  1  0
  9  7  1  0
  9  2  1  0
  8  4  1  0
  1 10  1  0
  1 11  1  0
  1 12  1  0
  4 13  1  0
  5 14  1  0
  5 15  1  0
  6 16  1  0
  7 17  1  0
  8 18  1  0
  9 19  1  0
M  END
