
     RDKit          3D

 21 23  0  0  0  0  0  0  0  0999 V2000
   -1.6724    0.9159   -0.6720 C   0  0  0  0  0  0  0  0  0  0  0  0
   -1.1337    0.0340    0.4291 C   0  0  0  0  0  0  0  0  0  0  0  0
   -1.7334   -1.2561    0.4348 C   0  0  0  0  0  0  0  0  0  0  0  0
   -0.3911   -1.2970    0.0119 C   0  0  0  0  0  0  0  0  0  0  0  0
    0.4282   -0.6728   -1.0202 C   0  0  0  0  0  0  0  0  0  0  0  0
    0.5328    0.6014   -1.4169 O   0  0  0  0  0  0  0  0  0  0  0  0
    1.0344    0.4624   -0.1599 C   0  0  0  0  0  0  0  0  0  0  0  0
    2.4914    0.4801    0.0775 C   0  0  0  0  0  0  0  0  0  0  0  0
    0.0694    0.6000    1.0368 C   0  0  0  0  0  0  0  0  0  0  0  0
   -1.2416    1.9273   -0.7143 H   0  0  0  0  0  0  0  0  0  0  0  0
   -2.7538    1.1036   -0.3723 H   0  0  0  0  0  0  0  0  0  0  0  0
   -1.7702    0.4039   -1.6473 H   0  0  0  0  0  0  0  0  0  0  0  0
   -2.4920   -1.5722   -0.3331 H   0  0  0  0  0  0  0  0  0  0  0  0
   -2.0589   -1.6498    1.4247 H   0  0  0  0  0  0  0  0  0  0  0  0
    0.3023   -1.7301    0.8056 H   0  0  0  0  0  0  0  0  0  0  0  0
    1.2277   -1.3454   -1.4608 H   0  0  0  0  0  0  0  0  0  0  0  0
    2.9701    1.4712   -0.0332 H   0  0  0  0  0  0  0  0  0  0  0  0
    2.7113    0.0437    1.0625 H   0  0  0  0  0  0  0  0  0  0  0  0
    2.9860   -0.1725   -0.6960 H   0  0  0  0  0  0  0  0  0  0  0  0
    0.5109    0.0194    1.8751 H   0  0  0  0  0  0  0  0  0  0  0  0
   -0.0175    1.6331    1.3680 H   0  0  0  0  0  0  0  0  0  0  0  0
  1  2  1  0
  2  3  1  0
  3  4  1  0
  4  5  1  0
  5  6  1  0
  6  7  1  0
  7  8  1  0
  7  9  1  0
  4  2  1  0
  7  5  1  0
  9  2  1  0
  1 10  1  0
  1 11  1  0
  1 12  1  0
  3 13  1  0
  3 14  1  0
  4 15  1  0
  5 16  1  0
  8 17  1  0
  8 18  1  0
  8 19  1  0
  9 20  1  0
  9 21  1  0
M  END
