
     RDKit          3D

 18 19  0  0  0  0  0  0  0  0999 V2000
   -0.0806    1.3934    0.8660 C   0  0  0  0  0  0  0  0  0  0  0  0
    0.0540    0.4673   -0.3380 C   0  0  0  0  0  0  0  0  0  0  0  0
   -1.2086    0.3396   -1.1029 C   0  0  0  0  0  0  0  0  0  0  0  0
   -1.6707   -0.6984   -0.0300 C   0  0  0  0  0  0  0  0  0  0  0  0
   -0.1689   -0.9822    0.0775 C   0  0  0  0  0  0  0  0  0  0  0  0
    1.0377   -1.4754    0.2342 C   0  0  0  0  0  0  0  0  0  0  0  0
    2.0389   -0.4151   -0.0672 C   0  0  0  0  0  0  0  0  0  0  0  0
    1.2762    0.4261   -0.9249 O   0  0  0  0  0  0  0  0  0  0  0  0
   -1.0343    1.9851    0.7554 H   0  0  0  0  0  0  0  0  0  0  0  0
    0.7300    2.1501    0.8358 H   0  0  0  0  0  0  0  0  0  0  0  0
   -0.1306    0.8323    1.8054 H   0  0  0  0  0  0  0  0  0  0  0  0
   -1.9339    1.1765   -1.0451 H   0  0  0  0  0  0  0  0  0  0  0  0
   -1.0673   -0.1315   -2.0796 H   0  0  0  0  0  0  0  0  0  0  0  0
   -2.0908   -0.2524    0.8647 H   0  0  0  0  0  0  0  0  0  0  0  0
   -2.2228   -1.5040   -0.5466 H   0  0  0  0  0  0  0  0  0  0  0  0
    1.2169   -2.5093    0.5396 H   0  0  0  0  0  0  0  0  0  0  0  0
    2.4153    0.1113    0.8064 H   0  0  0  0  0  0  0  0  0  0  0  0
    2.8396   -0.9134   -0.6508 H   0  0  0  0  0  0  0  0  0  0  0  0
  1  2  1  0
  2  3  1  0
  3  4  1  0
  4  5  1  0
  5  6  2  0
  6  7  1  0
  7  8  1  0
  5  2  1  0
  8  2  1  0
  1  9  1  0
  1 10  1  0
  1 11  1  0
  3 12  1  0
  3 13  1  0
  4 14  1  0
  4 15  1  0
  6 16  1  0
  7 17  1  0
  7 18  1  0
M  END
