
     RDKit          3D

 17 19  0  0  0  0  0  0  0  0999 V2000
    1.8369   -0.5895    0.4459 C   0  0  0  0  0  0  0  0  0  0  0  0
    0.5035   -0.4311   -0.2118 C   0  0  0  0  0  0  0  0  0  0  0  0
    0.3510   -0.5698   -1.5727 O   0  0  0  0  0  0  0  0  0  0  0  0
    0.3729    0.7304   -1.1329 C   0  0  0  0  0  0  0  0  0  0  0  0
   -0.8496    1.4340   -0.6640 C   0  0  0  0  0  0  0  0  0  0  0  0
   -2.1019    0.8746   -0.8720 O   0  0  0  0  0  0  0  0  0  0  0  0
   -1.5235    0.7219    0.3721 C   0  0  0  0  0  0  0  0  0  0  0  0
   -0.7672   -0.5531    0.5812 C   0  0  0  0  0  0  0  0  0  0  0  0
   -1.4565   -1.6720    0.0624 O   0  0  0  0  0  0  0  0  0  0  0  0
    2.5408   -1.2324   -0.0993 H   0  0  0  0  0  0  0  0  0  0  0  0
    1.6967   -1.0392    1.4539 H   0  0  0  0  0  0  0  0  0  0  0  0
    2.2426    0.4520    0.6051 H   0  0  0  0  0  0  0  0  0  0  0  0
    1.2734    1.3129   -1.4157 H   0  0  0  0  0  0  0  0  0  0  0  0
   -0.7690    2.5486   -0.6761 H   0  0  0  0  0  0  0  0  0  0  0  0
   -1.9946    1.2301    1.2497 H   0  0  0  0  0  0  0  0  0  0  0  0
   -0.5102   -0.7731    1.6187 H   0  0  0  0  0  0  0  0  0  0  0  0
   -0.8453   -2.4443    0.2555 H   0  0  0  0  0  0  0  0  0  0  0  0
  1  2  1  0
  2  3  1  0
  3  4  1  0
  4  5  1  0
  5  6  1  0
  6  7  1  0
  7  8  1  0
  8  9  1  0
  4  2  1  0
  7  5  1  0
  8  2  1  0
  1 10  1  0
  1 11  1  0
  1 12  1  0
  4 13  1  0
  5 14  1  0
  7 15  1  0
  8 16  1  0
  9 17  1  0
M  END
