
     RDKit          3D

 19 20  0  0  0  0  0  0  0  0999 V2000
    1.4257   -1.0191   -0.7414 C   0  0  0  0  0  0  0  0  0  0  0  0
    0.4434   -0.3765    0.1701 C   0  0  0  0  0  0  0  0  0  0  0  0
   -0.9260   -0.9337    0.1993 C   0  0  0  0  0  0  0  0  0  0  0  0
   -1.2953   -1.7279    1.2475 O   0  0  0  0  0  0  0  0  0  0  0  0
   -1.5593    0.4518    0.1646 C   0  0  0  0  0  0  0  0  0  0  0  0
   -2.4927    0.6478   -0.8161 O   0  0  0  0  0  0  0  0  0  0  0  0
   -0.1846    0.9675   -0.2298 C   0  0  0  0  0  0  0  0  0  0  0  0
    0.8293    0.8831    0.8355 C   0  0  0  0  0  0  0  0  0  0  0  0
    2.0522    1.4387    0.5465 O   0  0  0  0  0  0  0  0  0  0  0  0
    1.0892   -0.9827   -1.7808 H   0  0  0  0  0  0  0  0  0  0  0  0
    2.4736   -0.6596   -0.5982 H   0  0  0  0  0  0  0  0  0  0  0  0
    1.4674   -2.1141   -0.4668 H   0  0  0  0  0  0  0  0  0  0  0  0
   -1.1653   -1.4369   -0.7770 H   0  0  0  0  0  0  0  0  0  0  0  0
   -0.6144   -1.6174    1.9695 H   0  0  0  0  0  0  0  0  0  0  0  0
   -1.8178    0.8329    1.1858 H   0  0  0  0  0  0  0  0  0  0  0  0
   -2.0479    0.9250   -1.6738 H   0  0  0  0  0  0  0  0  0  0  0  0
    0.0062    1.3261   -1.2362 H   0  0  0  0  0  0  0  0  0  0  0  0
    0.4437    1.0551    1.8746 H   0  0  0  0  0  0  0  0  0  0  0  0
    1.8726    2.3399    0.1266 H   0  0  0  0  0  0  0  0  0  0  0  0
  1  2  1  0
  2  3  1  0
  3  4  1  0
  3  5  1  0
  5  6  1  0
  5  7  1  0
  7  8  1  0
  8  9  1  0
  7  2  1  0
  8  2  1  0
  1 10  1  0
  1 11  1  0
  1 12  1  0
  3 13  1  0
  4 14  1  0
  5 15  1  0
  6 16  1  0
  7 17  1  0
  8 18  1  0
  9 19  1  0
M  END
