
     RDKit          3D

 17 19  0  0  0  0  0  0  0  0999 V2000
   -2.0585    0.7221    0.4532 C   0  0  0  0  0  0  0  0  0  0  0  0
   -1.0964   -0.2625   -0.1619 C   0  0  0  0  0  0  0  0  0  0  0  0
   -1.2384   -0.5114   -1.4717 O   0  0  0  0  0  0  0  0  0  0  0  0
   -0.0645    0.2891   -1.1703 C   0  0  0  0  0  0  0  0  0  0  0  0
    1.1849   -0.3971   -0.8389 C   0  0  0  0  0  0  0  0  0  0  0  0
    2.2592   -0.1504    0.0390 C   0  0  0  0  0  0  0  0  0  0  0  0
    1.0394   -0.1454    0.7203 C   0  0  0  0  0  0  0  0  0  0  0  0
   -0.1565   -0.9967    0.7560 C   0  0  0  0  0  0  0  0  0  0  0  0
   -0.4233   -2.0296    1.3322 O   0  0  0  0  0  0  0  0  0  0  0  0
   -2.0709    0.7168    1.5421 H   0  0  0  0  0  0  0  0  0  0  0  0
   -1.8246    1.7429    0.0791 H   0  0  0  0  0  0  0  0  0  0  0  0
   -3.0866    0.3923    0.1213 H   0  0  0  0  0  0  0  0  0  0  0  0
   -0.1417    1.3578   -1.4056 H   0  0  0  0  0  0  0  0  0  0  0  0
    1.1322   -1.4880   -1.1550 H   0  0  0  0  0  0  0  0  0  0  0  0
    2.8402    0.8036   -0.1403 H   0  0  0  0  0  0  0  0  0  0  0  0
    3.0089   -0.9454    0.2947 H   0  0  0  0  0  0  0  0  0  0  0  0
    0.6966    0.9019    1.0058 H   0  0  0  0  0  0  0  0  0  0  0  0
  1  2  1  0
  2  3  1  0
  3  4  1  0
  4  5  1  0
  5  6  1  0
  6  7  1  0
  7  8  1  0
  8  9  2  0
  4  2  1  0
  7  5  1  0
  8  2  1  0
  1 10  1  0
  1 11  1  0
  1 12  1  0
  4 13  1  0
  5 14  1  0
  6 15  1  0
  6 16  1  0
  7 17  1  0
M  END
