
     RDKit          3D

 19 22  0  0  0  0  0  0  0  0999 V2000
    2.2386    0.2469   -0.2432 C   0  0  0  0  0  0  0  0  0  0  0  0
    0.7831    0.1134   -0.1130 C   0  0  0  0  0  0  0  0  0  0  0  0
    0.2448   -0.7026    1.0700 C   0  0  0  0  0  0  0  0  0  0  0  0
   -1.2182   -0.5660    0.8622 C   0  0  0  0  0  0  0  0  0  0  0  0
   -1.4184   -0.7638   -0.6283 C   0  0  0  0  0  0  0  0  0  0  0  0
   -2.3792    0.2714   -0.5270 O   0  0  0  0  0  0  0  0  0  0  0  0
   -1.4736    0.8338    0.4075 C   0  0  0  0  0  0  0  0  0  0  0  0
   -0.1933    1.1564   -0.3321 C   0  0  0  0  0  0  0  0  0  0  0  0
   -0.1509   -0.1699   -1.1818 C   0  0  0  0  0  0  0  0  0  0  0  0
    2.5936    1.2099   -0.6642 H   0  0  0  0  0  0  0  0  0  0  0  0
    2.6477   -0.5567   -0.8908 H   0  0  0  0  0  0  0  0  0  0  0  0
    2.7302    0.1339    0.7451 H   0  0  0  0  0  0  0  0  0  0  0  0
    0.5513   -0.2837    2.0330 H   0  0  0  0  0  0  0  0  0  0  0  0
    0.6338   -1.7376    0.9594 H   0  0  0  0  0  0  0  0  0  0  0  0
   -1.9093   -1.0424    1.5266 H   0  0  0  0  0  0  0  0  0  0  0  0
   -1.7548   -1.7132   -0.9767 H   0  0  0  0  0  0  0  0  0  0  0  0
   -1.8690    1.5569    1.0890 H   0  0  0  0  0  0  0  0  0  0  0  0
   -0.0740    2.0702   -0.8908 H   0  0  0  0  0  0  0  0  0  0  0  0
    0.0175   -0.0568   -2.2449 H   0  0  0  0  0  0  0  0  0  0  0  0
  1  2  1  0
  2  3  1  0
  3  4  1  0
  4  5  1  0
  5  6  1  0
  6  7  1  0
  7  8  1  0
  8  9  1  0
  8  2  1  0
  9  2  1  0
  7  4  1  0
  9  5  1  0
  1 10  1  0
  1 11  1  0
  1 12  1  0
  3 13  1  0
  3 14  1  0
  4 15  1  0
  5 16  1  0
  7 17  1  0
  8 18  1  0
  9 19  1  0
M  END
