
     RDKit          3D

 21 23  0  0  0  0  0  0  0  0999 V2000
   -2.4123   -0.0192    0.6005 C   0  0  0  0  0  0  0  0  0  0  0  0
   -1.0663    0.1010   -0.0672 C   0  0  0  0  0  0  0  0  0  0  0  0
   -0.5830   -1.0922   -0.8515 C   0  0  0  0  0  0  0  0  0  0  0  0
    0.7759   -1.4014   -0.3165 C   0  0  0  0  0  0  0  0  0  0  0  0
    1.0257   -1.4706    1.0324 O   0  0  0  0  0  0  0  0  0  0  0  0
    1.2034   -0.2486    0.4183 C   0  0  0  0  0  0  0  0  0  0  0  0
    2.5686    0.3249    0.2137 C   0  0  0  0  0  0  0  0  0  0  0  0
    0.0791    0.7235    0.6106 C   0  0  0  0  0  0  0  0  0  0  0  0
   -0.5700    1.4142   -0.5231 C   0  0  0  0  0  0  0  0  0  0  0  0
   -3.0728   -0.6078   -0.0796 H   0  0  0  0  0  0  0  0  0  0  0  0
   -2.3572   -0.4896    1.6073 H   0  0  0  0  0  0  0  0  0  0  0  0
   -2.8538    0.9910    0.7671 H   0  0  0  0  0  0  0  0  0  0  0  0
   -1.2796   -1.9452   -0.8325 H   0  0  0  0  0  0  0  0  0  0  0  0
   -0.4813   -0.7811   -1.9274 H   0  0  0  0  0  0  0  0  0  0  0  0
    1.4385   -1.9894   -0.9547 H   0  0  0  0  0  0  0  0  0  0  0  0
    2.4486    1.2421   -0.4200 H   0  0  0  0  0  0  0  0  0  0  0  0
    3.1955   -0.3936   -0.3712 H   0  0  0  0  0  0  0  0  0  0  0  0
    3.0402    0.6305    1.1628 H   0  0  0  0  0  0  0  0  0  0  0  0
    0.0344    1.1793    1.6073 H   0  0  0  0  0  0  0  0  0  0  0  0
   -1.1893    2.2976   -0.2475 H   0  0  0  0  0  0  0  0  0  0  0  0
    0.0555    1.5343   -1.4287 H   0  0  0  0  0  0  0  0  0  0  0  0
  1  2  1  0
  2  3  1  0
  3  4  1  0
  4  5  1  0
  5  6  1  0
  6  7  1  0
  6  8  1  0
  8  9  1  0
  8  2  1  0
  9  2  1  0
  6  4  1  0
  1 10  1  0
  1 11  1  0
  1 12  1  0
  3 13  1  0
  3 14  1  0
  4 15  1  0
  7 16  1  0
  7 17  1  0
  7 18  1  0
  8 19  1  0
  9 20  1  0
  9 21  1  0
M  END
