
     RDKit          3D

 17 18  0  0  0  0  0  0  0  0999 V2000
   -1.5296   -0.4546    0.5394 C   0  0  0  0  0  0  0  0  0  0  0  0
   -0.3655   -0.3537   -0.4720 C   0  0  0  0  0  0  0  0  0  0  0  0
   -0.2362    1.0702   -0.8666 C   0  0  0  0  0  0  0  0  0  0  0  0
    0.1949    1.6336    0.3922 O   0  0  0  0  0  0  0  0  0  0  0  0
    0.6403    0.5614    1.2124 C   0  0  0  0  0  0  0  0  0  0  0  0
    0.6093    0.5380    2.4466 O   0  0  0  0  0  0  0  0  0  0  0  0
    1.0857   -0.3696    0.1779 C   0  0  0  0  0  0  0  0  0  0  0  0
    2.0955    0.2693   -0.5929 O   0  0  0  0  0  0  0  0  0  0  0  0
    0.4929   -1.4605   -0.4750 C   0  0  0  0  0  0  0  0  0  0  0  0
   -1.4113    0.3480    1.2950 H   0  0  0  0  0  0  0  0  0  0  0  0
   -1.5505   -1.4024    1.0650 H   0  0  0  0  0  0  0  0  0  0  0  0
   -2.4239   -0.2402   -0.0609 H   0  0  0  0  0  0  0  0  0  0  0  0
    0.4221    1.3028   -1.6913 H   0  0  0  0  0  0  0  0  0  0  0  0
   -1.2430    1.5177   -1.0787 H   0  0  0  0  0  0  0  0  0  0  0  0
    2.0975    1.2290   -0.5424 H   0  0  0  0  0  0  0  0  0  0  0  0
    0.2481   -2.3711    0.1292 H   0  0  0  0  0  0  0  0  0  0  0  0
    0.8737   -1.8178   -1.4779 H   0  0  0  0  0  0  0  0  0  0  0  0
  1  2  1  0
  2  3  1  0
  3  4  1  0
  4  5  1  0
  5  6  2  0
  5  7  1  0
  7  8  1  0
  7  9  1  0
  7  2  1  0
  9  2  1  0
  1 10  1  0
  1 11  1  0
  1 12  1  0
  3 13  1  0
  3 14  1  0
  8 15  1  0
  9 16  1  0
  9 17  1  0
M  END
