
     RDKit          3D

 19 20  0  0  0  0  0  0  0  0999 V2000
   -0.7400   -1.6062   -0.8106 C   0  0  0  0  0  0  0  0  0  0  0  0
   -0.8735   -0.2174   -0.2765 C   0  0  0  0  0  0  0  0  0  0  0  0
   -2.1038    0.2656    0.1086 O   0  0  0  0  0  0  0  0  0  0  0  0
   -1.6834    0.6401    1.3966 C   0  0  0  0  0  0  0  0  0  0  0  0
   -0.2859    0.2182    0.9947 C   0  0  0  0  0  0  0  0  0  0  0  0
    0.2422    0.7499   -0.2829 C   0  0  0  0  0  0  0  0  0  0  0  0
   -0.0801    2.0328   -0.7174 O   0  0  0  0  0  0  0  0  0  0  0  0
    1.6468    0.3288   -0.6237 C   0  0  0  0  0  0  0  0  0  0  0  0
    1.9326   -0.9586   -0.1737 O   0  0  0  0  0  0  0  0  0  0  0  0
    0.1295   -1.6290   -1.5040 H   0  0  0  0  0  0  0  0  0  0  0  0
   -0.6622   -2.3781   -0.0125 H   0  0  0  0  0  0  0  0  0  0  0  0
   -1.6627   -1.8310   -1.4178 H   0  0  0  0  0  0  0  0  0  0  0  0
   -2.0461    0.0083    2.2084 H   0  0  0  0  0  0  0  0  0  0  0  0
   -1.7379    1.7422    1.5804 H   0  0  0  0  0  0  0  0  0  0  0  0
    0.2710   -0.4949    1.5996 H   0  0  0  0  0  0  0  0  0  0  0  0
    0.5278    2.7174   -0.3636 H   0  0  0  0  0  0  0  0  0  0  0  0
    1.8896    0.4212   -1.6961 H   0  0  0  0  0  0  0  0  0  0  0  0
    2.3282    1.0401   -0.0808 H   0  0  0  0  0  0  0  0  0  0  0  0
    2.9079   -1.0494    0.0714 H   0  0  0  0  0  0  0  0  0  0  0  0
  1  2  1  0
  2  3  1  0
  3  4  1  0
  4  5  1  0
  5  6  1  0
  6  7  1  0
  6  8  1  0
  8  9  1  0
  5  2  1  0
  6  2  1  0
  1 10  1  0
  1 11  1  0
  1 12  1  0
  4 13  1  0
  4 14  1  0
  5 15  1  0
  7 16  1  0
  8 17  1  0
  8 18  1  0
  9 19  1  0
M  END
