
     RDKit          3D

 19 20  0  0  0  0  0  0  0  0999 V2000
   -1.8054   -0.7676   -0.4092 C   0  0  0  0  0  0  0  0  0  0  0  0
   -0.3770   -0.7322    0.0348 C   0  0  0  0  0  0  0  0  0  0  0  0
    0.0224   -0.4210    1.4182 C   0  0  0  0  0  0  0  0  0  0  0  0
    0.3501    0.5049    0.3217 C   0  0  0  0  0  0  0  0  0  0  0  0
   -0.2460    1.8600    0.2973 C   0  0  0  0  0  0  0  0  0  0  0  0
    1.3734    0.0903   -0.7097 C   0  0  0  0  0  0  0  0  0  0  0  0
    2.6675   -0.0405   -0.2550 O   0  0  0  0  0  0  0  0  0  0  0  0
    0.6452   -1.1840   -0.9284 C   0  0  0  0  0  0  0  0  0  0  0  0
    0.7740   -2.1951   -1.5905 O   0  0  0  0  0  0  0  0  0  0  0  0
   -2.4756   -0.1399    0.1682 H   0  0  0  0  0  0  0  0  0  0  0  0
   -1.8305   -0.5100   -1.5035 H   0  0  0  0  0  0  0  0  0  0  0  0
   -2.1782   -1.8234   -0.3296 H   0  0  0  0  0  0  0  0  0  0  0  0
   -0.7890   -0.0968    2.1048 H   0  0  0  0  0  0  0  0  0  0  0  0
    0.7930   -1.1110    1.8518 H   0  0  0  0  0  0  0  0  0  0  0  0
   -0.3329    2.2203    1.3622 H   0  0  0  0  0  0  0  0  0  0  0  0
    0.4103    2.6265   -0.1943 H   0  0  0  0  0  0  0  0  0  0  0  0
   -1.2163    1.8906   -0.1960 H   0  0  0  0  0  0  0  0  0  0  0  0
    1.3602    0.7567   -1.6099 H   0  0  0  0  0  0  0  0  0  0  0  0
    2.8548   -0.9278    0.1671 H   0  0  0  0  0  0  0  0  0  0  0  0
  1  2  1  0
  2  3  1  0
  3  4  1  0
  4  5  1  0
  4  6  1  0
  6  7  1  0
  6  8  1  0
  8  9  2  0
  4  2  1  0
  8  2  1  0
  1 10  1  0
  1 11  1  0
  1 12  1  0
  3 13  1  0
  3 14  1  0
  5 15  1  0
  5 16  1  0
  5 17  1  0
  6 18  1  0
  7 19  1  0
M  END
