
     RDKit          3D

 19 21  0  0  0  0  0  0  0  0999 V2000
   -2.1088    0.3609   -0.2660 C   0  0  0  0  0  0  0  0  0  0  0  0
   -0.6381    0.2784   -0.1286 C   0  0  0  0  0  0  0  0  0  0  0  0
    0.0864    0.8580    1.0508 C   0  0  0  0  0  0  0  0  0  0  0  0
    1.5400    0.7287    0.5704 C   0  0  0  0  0  0  0  0  0  0  0  0
    1.9157   -0.5817    0.7901 O   0  0  0  0  0  0  0  0  0  0  0  0
    1.0804   -1.5103    0.2077 C   0  0  0  0  0  0  0  0  0  0  0  0
    0.0283   -0.9256   -0.6763 C   0  0  0  0  0  0  0  0  0  0  0  0
    0.3106    0.3953   -1.2383 C   0  0  0  0  0  0  0  0  0  0  0  0
    1.4783    0.9940   -0.7988 O   0  0  0  0  0  0  0  0  0  0  0  0
   -2.5399   -0.6527   -0.5043 H   0  0  0  0  0  0  0  0  0  0  0  0
   -2.5526    0.6538    0.7062 H   0  0  0  0  0  0  0  0  0  0  0  0
   -2.4836    1.0437   -1.0372 H   0  0  0  0  0  0  0  0  0  0  0  0
   -0.0771    1.9458    1.1840 H   0  0  0  0  0  0  0  0  0  0  0  0
   -0.0229    0.2771    1.9785 H   0  0  0  0  0  0  0  0  0  0  0  0
    2.2124    1.3865    1.1192 H   0  0  0  0  0  0  0  0  0  0  0  0
    1.7017   -2.1912   -0.4103 H   0  0  0  0  0  0  0  0  0  0  0  0
    0.5933   -2.1080    1.0037 H   0  0  0  0  0  0  0  0  0  0  0  0
   -0.5321   -1.6313   -1.2902 H   0  0  0  0  0  0  0  0  0  0  0  0
    0.0081    0.6785   -2.2604 H   0  0  0  0  0  0  0  0  0  0  0  0
  1  2  1  0
  2  3  1  0
  3  4  1  0
  4  5  1  0
  5  6  1  0
  6  7  1  0
  7  8  1  0
  8  9  1  0
  7  2  1  0
  8  2  1  0
  9  4  1  0
  1 10  1  0
  1 11  1  0
  1 12  1  0
  3 13  1  0
  3 14  1  0
  4 15  1  0
  6 16  1  0
  6 17  1  0
  7 18  1  0
  8 19  1  0
M  END
