
     RDKit          3D

 19 20  0  0  0  0  0  0  0  0999 V2000
   -1.3823   -1.4740   -0.0928 C   0  0  0  0  0  0  0  0  0  0  0  0
   -0.6342   -0.2283    0.2325 C   0  0  0  0  0  0  0  0  0  0  0  0
   -1.1907    0.7243    1.2518 C   0  0  0  0  0  0  0  0  0  0  0  0
   -0.7548    1.8415    0.5058 O   0  0  0  0  0  0  0  0  0  0  0  0
   -0.6662    0.9830   -0.5896 C   0  0  0  0  0  0  0  0  0  0  0  0
    0.5264    0.1041   -0.6035 C   0  0  0  0  0  0  0  0  0  0  0  0
    0.6941   -0.6122   -1.7891 O   0  0  0  0  0  0  0  0  0  0  0  0
    1.7958    0.4965    0.1150 C   0  0  0  0  0  0  0  0  0  0  0  0
    2.4819   -0.6776    0.4343 O   0  0  0  0  0  0  0  0  0  0  0  0
   -2.2777   -1.5420    0.5774 H   0  0  0  0  0  0  0  0  0  0  0  0
   -0.7370   -2.3437    0.2145 H   0  0  0  0  0  0  0  0  0  0  0  0
   -1.6284   -1.6167   -1.1463 H   0  0  0  0  0  0  0  0  0  0  0  0
   -2.3194    0.7375    1.2185 H   0  0  0  0  0  0  0  0  0  0  0  0
   -0.8002    0.6615    2.2667 H   0  0  0  0  0  0  0  0  0  0  0  0
   -1.3132    1.1254   -1.4611 H   0  0  0  0  0  0  0  0  0  0  0  0
    0.8517    0.0921   -2.4964 H   0  0  0  0  0  0  0  0  0  0  0  0
    1.5325    0.9693    1.0948 H   0  0  0  0  0  0  0  0  0  0  0  0
    2.4173    1.2022   -0.4371 H   0  0  0  0  0  0  0  0  0  0  0  0
    3.4046   -0.4429    0.7046 H   0  0  0  0  0  0  0  0  0  0  0  0
  1  2  1  0
  2  3  1  0
  3  4  1  0
  4  5  1  0
  5  6  1  0
  6  7  1  0
  6  8  1  0
  8  9  1  0
  5  2  1  0
  6  2  1  0
  1 10  1  0
  1 11  1  0
  1 12  1  0
  3 13  1  0
  3 14  1  0
  5 15  1  0
  7 16  1  0
  8 17  1  0
  8 18  1  0
  9 19  1  0
M  END
