
     RDKit          3D

 17 18  0  0  0  0  0  0  0  0999 V2000
   -1.3682   -1.3438   -0.3494 C   0  0  0  0  0  0  0  0  0  0  0  0
   -0.6782   -0.1236    0.1668 C   0  0  0  0  0  0  0  0  0  0  0  0
   -1.4511    1.1341    0.1493 C   0  0  0  0  0  0  0  0  0  0  0  0
   -0.2052    0.9677   -0.6990 C   0  0  0  0  0  0  0  0  0  0  0  0
    0.9415    1.4880   -0.0788 O   0  0  0  0  0  0  0  0  0  0  0  0
    1.4308    0.4137    0.6082 C   0  0  0  0  0  0  0  0  0  0  0  0
    2.3349   -0.3523   -0.2782 C   0  0  0  0  0  0  0  0  0  0  0  0
    2.9040   -1.3636    0.1002 O   0  0  0  0  0  0  0  0  0  0  0  0
    0.3513   -0.3409    1.0489 O   0  0  0  0  0  0  0  0  0  0  0  0
   -2.2612   -1.1255   -0.9651 H   0  0  0  0  0  0  0  0  0  0  0  0
   -0.6796   -2.0535   -0.8719 H   0  0  0  0  0  0  0  0  0  0  0  0
   -1.7449   -1.9143    0.5393 H   0  0  0  0  0  0  0  0  0  0  0  0
   -2.3786    1.1631   -0.4236 H   0  0  0  0  0  0  0  0  0  0  0  0
   -1.4216    1.7882    1.0396 H   0  0  0  0  0  0  0  0  0  0  0  0
   -0.2764    0.9777   -1.7827 H   0  0  0  0  0  0  0  0  0  0  0  0
    2.0155    0.6813    1.5115 H   0  0  0  0  0  0  0  0  0  0  0  0
    2.4871    0.0037   -1.2853 H   0  0  0  0  0  0  0  0  0  0  0  0
  1  2  1  0
  2  3  1  0
  3  4  1  0
  4  5  1  0
  5  6  1  0
  6  7  1  0
  7  8  2  0
  6  9  1  0
  4  2  1  0
  9  2  1  0
  1 10  1  0
  1 11  1  0
  1 12  1  0
  3 13  1  0
  3 14  1  0
  4 15  1  0
  6 16  1  0
  7 17  1  0
M  END
