
     RDKit          3D

 21 22  0  0  0  0  0  0  0  0999 V2000
    2.4239    0.6426   -0.1893 C   0  0  0  0  0  0  0  0  0  0  0  0
    1.0444    0.1539   -0.2168 C   0  0  0  0  0  0  0  0  0  0  0  0
    0.8696   -1.3114   -0.2592 C   0  0  0  0  0  0  0  0  0  0  0  0
   -0.3534   -1.5341    0.2140 C   0  0  0  0  0  0  0  0  0  0  0  0
   -0.8992   -0.1958    0.5595 C   0  0  0  0  0  0  0  0  0  0  0  0
   -1.9381   -0.1932    1.5946 C   0  0  0  0  0  0  0  0  0  0  0  0
   -1.2378    0.5259   -0.7098 C   0  0  0  0  0  0  0  0  0  0  0  0
    0.1577    0.8175   -1.2712 C   0  0  0  0  0  0  0  0  0  0  0  0
    0.2922    0.4684    0.9422 O   0  0  0  0  0  0  0  0  0  0  0  0
    2.4646    1.6704   -0.6408 H   0  0  0  0  0  0  0  0  0  0  0  0
    3.0766   -0.0322   -0.8150 H   0  0  0  0  0  0  0  0  0  0  0  0
    2.8658    0.6775    0.8114 H   0  0  0  0  0  0  0  0  0  0  0  0
    1.5408   -2.0949   -0.5885 H   0  0  0  0  0  0  0  0  0  0  0  0
   -0.8557   -2.4877    0.3279 H   0  0  0  0  0  0  0  0  0  0  0  0
   -2.1019   -1.2279    1.9695 H   0  0  0  0  0  0  0  0  0  0  0  0
   -2.9129    0.2362    1.2770 H   0  0  0  0  0  0  0  0  0  0  0  0
   -1.5875    0.4102    2.4659 H   0  0  0  0  0  0  0  0  0  0  0  0
   -1.7977    1.4677   -0.5347 H   0  0  0  0  0  0  0  0  0  0  0  0
   -1.7368   -0.1520   -1.4263 H   0  0  0  0  0  0  0  0  0  0  0  0
    0.3480    1.8863   -1.3041 H   0  0  0  0  0  0  0  0  0  0  0  0
    0.3375    0.2729   -2.2064 H   0  0  0  0  0  0  0  0  0  0  0  0
  1  2  1  0
  2  3  1  0
  3  4  2  0
  4  5  1  0
  5  6  1  0
  5  7  1  0
  7  8  1  0
  5  9  1  0
  8  2  1  0
  9  2  1  0
  1 10  1  0
  1 11  1  0
  1 12  1  0
  3 13  1  0
  4 14  1  0
  6 15  1  0
  6 16  1  0
  6 17  1  0
  7 18  1  0
  7 19  1  0
  8 20  1  0
  8 21  1  0
M  END
