
     RDKit          3D

 19 21  0  0  0  0  0  0  0  0999 V2000
    2.7368   -0.0458    0.2895 C   0  0  0  0  0  0  0  0  0  0  0  0
    1.2478   -0.2147    0.4879 C   0  0  0  0  0  0  0  0  0  0  0  0
    0.5114    0.7529    1.3154 C   0  0  0  0  0  0  0  0  0  0  0  0
   -0.7137    0.9732    0.8549 C   0  0  0  0  0  0  0  0  0  0  0  0
   -0.9211    0.1670   -0.3379 C   0  0  0  0  0  0  0  0  0  0  0  0
   -2.0796   -0.8277   -0.2120 C   0  0  0  0  0  0  0  0  0  0  0  0
   -2.0638    0.2859   -1.2389 C   0  0  0  0  0  0  0  0  0  0  0  0
    0.3694   -0.4615   -0.6833 C   0  0  0  0  0  0  0  0  0  0  0  0
    0.7729   -1.4689    0.2119 O   0  0  0  0  0  0  0  0  0  0  0  0
    2.9938    0.3478   -0.7156 H   0  0  0  0  0  0  0  0  0  0  0  0
    3.1299    0.5958    1.0842 H   0  0  0  0  0  0  0  0  0  0  0  0
    3.2550   -1.0379    0.3829 H   0  0  0  0  0  0  0  0  0  0  0  0
    0.8619    1.2774    2.2240 H   0  0  0  0  0  0  0  0  0  0  0  0
   -1.4653    1.6568    1.2973 H   0  0  0  0  0  0  0  0  0  0  0  0
   -1.9233   -1.8601   -0.5677 H   0  0  0  0  0  0  0  0  0  0  0  0
   -2.7534   -0.7451    0.6579 H   0  0  0  0  0  0  0  0  0  0  0  0
   -1.9622   -0.0498   -2.2768 H   0  0  0  0  0  0  0  0  0  0  0  0
   -2.7830    1.1145   -1.0772 H   0  0  0  0  0  0  0  0  0  0  0  0
    0.7866   -0.4596   -1.6965 H   0  0  0  0  0  0  0  0  0  0  0  0
  1  2  1  0
  2  3  1  0
  3  4  2  0
  4  5  1  0
  5  6  1  0
  6  7  1  0
  5  8  1  0
  8  9  1  0
  8  2  1  0
  9  2  1  0
  7  5  1  0
  1 10  1  0
  1 11  1  0
  1 12  1  0
  3 13  1  0
  4 14  1  0
  6 15  1  0
  6 16  1  0
  7 17  1  0
  7 18  1  0
  8 19  1  0
M  END
