
     RDKit          3D

 21 23  0  0  0  0  0  0  0  0999 V2000
    2.3971    0.8416   -0.6088 C   0  0  0  0  0  0  0  0  0  0  0  0
    1.1655    0.2415   -0.0187 C   0  0  0  0  0  0  0  0  0  0  0  0
    1.3325   -1.2012    0.6192 C   0  0  0  0  0  0  0  0  0  0  0  0
   -0.1260   -1.2475    0.7506 C   0  0  0  0  0  0  0  0  0  0  0  0
   -1.4511   -1.2240    0.8078 C   0  0  0  0  0  0  0  0  0  0  0  0
   -2.2289   -0.2424   -0.0627 C   0  0  0  0  0  0  0  0  0  0  0  0
   -1.4746    1.0923   -0.2158 C   0  0  0  0  0  0  0  0  0  0  0  0
   -0.0724    0.9658    0.1801 C   0  0  0  0  0  0  0  0  0  0  0  0
    0.0912   -0.3759   -0.5396 C   0  0  0  0  0  0  0  0  0  0  0  0
    2.9930    1.2985    0.2095 H   0  0  0  0  0  0  0  0  0  0  0  0
    2.1085    1.6041   -1.3333 H   0  0  0  0  0  0  0  0  0  0  0  0
    3.0621    0.0896   -1.0936 H   0  0  0  0  0  0  0  0  0  0  0  0
    1.7553   -1.8743   -0.1326 H   0  0  0  0  0  0  0  0  0  0  0  0
    1.9212   -1.1211    1.5576 H   0  0  0  0  0  0  0  0  0  0  0  0
   -1.9067   -1.9166    1.4895 H   0  0  0  0  0  0  0  0  0  0  0  0
   -2.5225   -0.6738   -1.0085 H   0  0  0  0  0  0  0  0  0  0  0  0
   -3.1365   -0.0060    0.5291 H   0  0  0  0  0  0  0  0  0  0  0  0
   -1.9657    1.9114    0.3393 H   0  0  0  0  0  0  0  0  0  0  0  0
   -1.6205    1.4024   -1.2972 H   0  0  0  0  0  0  0  0  0  0  0  0
   -0.0857    1.0963    1.2883 H   0  0  0  0  0  0  0  0  0  0  0  0
   -0.2358   -0.6608   -1.4600 H   0  0  0  0  0  0  0  0  0  0  0  0
  1  2  1  0
  2  3  1  0
  3  4  1  0
  4  5  2  0
  5  6  1  0
  6  7  1  0
  7  8  1  0
  8  9  1  0
  8  2  1  0
  9  2  1  0
  9  4  1  0
  1 10  1  0
  1 11  1  0
  1 12  1  0
  3 13  1  0
  3 14  1  0
  5 15  1  0
  6 16  1  0
  6 17  1  0
  7 18  1  0
  7 19  1  0
  8 20  1  0
  9 21  1  0
M  END
