
     RDKit          3D

 18 19  0  0  0  0  0  0  0  0999 V2000
   -1.8332    0.0186   -0.4942 C   0  0  0  0  0  0  0  0  0  0  0  0
   -0.4028    0.1189   -0.0159 C   0  0  0  0  0  0  0  0  0  0  0  0
    0.3186   -1.1332    0.3328 C   0  0  0  0  0  0  0  0  0  0  0  0
    0.4433   -1.4534    1.6647 O   0  0  0  0  0  0  0  0  0  0  0  0
    1.5532   -0.6462   -0.3658 C   0  0  0  0  0  0  0  0  0  0  0  0
    0.6940    0.4598   -0.9664 C   0  0  0  0  0  0  0  0  0  0  0  0
    0.2026    1.4539    0.0154 C   0  0  0  0  0  0  0  0  0  0  0  0
    1.1298    1.8351    0.9804 O   0  0  0  0  0  0  0  0  0  0  0  0
   -2.0472    0.6458   -1.3622 H   0  0  0  0  0  0  0  0  0  0  0  0
   -2.1567   -1.0224   -0.6469 H   0  0  0  0  0  0  0  0  0  0  0  0
   -2.4767    0.4147    0.3413 H   0  0  0  0  0  0  0  0  0  0  0  0
   -0.1398   -2.0085   -0.2156 H   0  0  0  0  0  0  0  0  0  0  0  0
   -0.4240   -1.8251    1.9625 H   0  0  0  0  0  0  0  0  0  0  0  0
    2.2477   -0.1927    0.4009 H   0  0  0  0  0  0  0  0  0  0  0  0
    2.0302   -1.3188   -1.0757 H   0  0  0  0  0  0  0  0  0  0  0  0
    0.5562    0.5349   -2.0372 H   0  0  0  0  0  0  0  0  0  0  0  0
   -0.3849    2.2811   -0.3855 H   0  0  0  0  0  0  0  0  0  0  0  0
    0.6898    1.8374    1.8674 H   0  0  0  0  0  0  0  0  0  0  0  0
  1  2  1  0
  2  3  1  0
  3  4  1  0
  3  5  1  0
  5  6  1  0
  6  7  1  0
  7  8  1  0
  6  2  1  0
  7  2  1  0
  1  9  1  0
  1 10  1  0
  1 11  1  0
  3 12  1  0
  4 13  1  0
  5 14  1  0
  5 15  1  0
  6 16  1  0
  7 17  1  0
  8 18  1  0
M  END
