
     RDKit          3D

 21 22  0  0  0  0  0  0  0  0999 V2000
    2.1159    0.4260    0.2477 C   0  0  0  0  0  0  0  0  0  0  0  0
    0.7454    0.0576    0.0196 C   0  0  0  0  0  0  0  0  0  0  0  0
    0.2520   -0.1097   -1.4215 C   0  0  0  0  0  0  0  0  0  0  0  0
   -0.8314   -0.9512   -0.7307 C   0  0  0  0  0  0  0  0  0  0  0  0
    0.3146   -1.3876    0.1950 C   0  0  0  0  0  0  0  0  0  0  0  0
   -1.5671   -0.0087    0.1599 C   0  0  0  0  0  0  0  0  0  0  0  0
   -2.0353   -0.7356    1.2756 O   0  0  0  0  0  0  0  0  0  0  0  0
   -0.3793    0.8643    0.6146 C   0  0  0  0  0  0  0  0  0  0  0  0
   -0.4447    2.0685   -0.0773 O   0  0  0  0  0  0  0  0  0  0  0  0
    2.2120    1.4996    0.4906 H   0  0  0  0  0  0  0  0  0  0  0  0
    2.5240   -0.1147    1.1508 H   0  0  0  0  0  0  0  0  0  0  0  0
    2.7909    0.1902   -0.6054 H   0  0  0  0  0  0  0  0  0  0  0  0
    0.8686   -0.7349   -2.0572 H   0  0  0  0  0  0  0  0  0  0  0  0
   -0.1157    0.8054   -1.8872 H   0  0  0  0  0  0  0  0  0  0  0  0
   -1.3226   -1.6928   -1.2961 H   0  0  0  0  0  0  0  0  0  0  0  0
   -0.0280   -1.6377    1.1996 H   0  0  0  0  0  0  0  0  0  0  0  0
    1.0191   -2.0886   -0.2850 H   0  0  0  0  0  0  0  0  0  0  0  0
   -2.3435    0.5826   -0.3119 H   0  0  0  0  0  0  0  0  0  0  0  0
   -2.0829   -0.1907    2.0839 H   0  0  0  0  0  0  0  0  0  0  0  0
   -0.3428    0.9659    1.6940 H   0  0  0  0  0  0  0  0  0  0  0  0
   -1.3492    2.1921   -0.4589 H   0  0  0  0  0  0  0  0  0  0  0  0
  1  2  1  0
  2  3  1  0
  3  4  1  0
  4  5  1  0
  4  6  1  0
  6  7  1  0
  6  8  1  0
  8  9  1  0
  5  2  1  0
  8  2  1  0
  1 10  1  0
  1 11  1  0
  1 12  1  0
  3 13  1  0
  3 14  1  0
  4 15  1  0
  5 16  1  0
  5 17  1  0
  6 18  1  0
  7 19  1  0
  8 20  1  0
  9 21  1  0
M  END
