
     RDKit          3D

 21 23  0  0  0  0  0  0  0  0999 V2000
    2.1673    0.7865   -0.0499 C   0  0  0  0  0  0  0  0  0  0  0  0
    0.7788    0.2565   -0.1423 C   0  0  0  0  0  0  0  0  0  0  0  0
   -0.3837    1.2186   -0.2462 C   0  0  0  0  0  0  0  0  0  0  0  0
   -0.2300    2.3019    0.6177 O   0  0  0  0  0  0  0  0  0  0  0  0
   -1.6020    0.4298    0.1862 C   0  0  0  0  0  0  0  0  0  0  0  0
   -1.0851   -0.9017    0.6879 C   0  0  0  0  0  0  0  0  0  0  0  0
   -0.7717   -1.7937   -0.5048 C   0  0  0  0  0  0  0  0  0  0  0  0
    0.5629   -1.1378   -0.6091 C   0  0  0  0  0  0  0  0  0  0  0  0
    0.3734   -0.7201    0.8601 C   0  0  0  0  0  0  0  0  0  0  0  0
    2.8654   -0.0734   -0.0320 H   0  0  0  0  0  0  0  0  0  0  0  0
    2.3844    1.5339   -0.8144 H   0  0  0  0  0  0  0  0  0  0  0  0
    2.2670    1.2961    0.9427 H   0  0  0  0  0  0  0  0  0  0  0  0
   -0.4331    1.5599   -1.2849 H   0  0  0  0  0  0  0  0  0  0  0  0
   -1.0832    2.7238    0.8125 H   0  0  0  0  0  0  0  0  0  0  0  0
   -2.1942    0.9774    0.9182 H   0  0  0  0  0  0  0  0  0  0  0  0
   -2.2531    0.2833   -0.7239 H   0  0  0  0  0  0  0  0  0  0  0  0
   -1.6428   -1.3673    1.4977 H   0  0  0  0  0  0  0  0  0  0  0  0
   -1.4965   -1.6145   -1.3014 H   0  0  0  0  0  0  0  0  0  0  0  0
   -0.6596   -2.8622   -0.1893 H   0  0  0  0  0  0  0  0  0  0  0  0
    1.4629   -1.7184   -0.8643 H   0  0  0  0  0  0  0  0  0  0  0  0
    0.9728   -1.1785    1.6183 H   0  0  0  0  0  0  0  0  0  0  0  0
  1  2  1  0
  2  3  1  0
  3  4  1  0
  3  5  1  0
  5  6  1  0
  6  7  1  0
  7  8  1  0
  8  9  1  0
  8  2  1  0
  9  2  1  0
  9  6  1  0
  1 10  1  0
  1 11  1  0
  1 12  1  0
  3 13  1  0
  4 14  1  0
  5 15  1  0
  5 16  1  0
  6 17  1  0
  7 18  1  0
  7 19  1  0
  8 20  1  0
  9 21  1  0
M  END
