
     RDKit          3D

 21 22  0  0  0  0  0  0  0  0999 V2000
   -1.6305   -1.2310    0.2236 C   0  0  0  0  0  0  0  0  0  0  0  0
   -0.7526   -0.1574   -0.1153 C   0  0  0  0  0  0  0  0  0  0  0  0
   -0.8977    1.2139    0.4826 C   0  0  0  0  0  0  0  0  0  0  0  0
    0.1876    1.8693   -0.1572 O   0  0  0  0  0  0  0  0  0  0  0  0
    0.6892    0.9056   -0.9916 C   0  0  0  0  0  0  0  0  0  0  0  0
   -0.5470    0.2159   -1.5917 C   0  0  0  0  0  0  0  0  0  0  0  0
    0.7507   -0.3413   -0.0952 C   0  0  0  0  0  0  0  0  0  0  0  0
    1.4117   -0.1358    1.2220 C   0  0  0  0  0  0  0  0  0  0  0  0
    2.7755   -0.3404    1.0675 O   0  0  0  0  0  0  0  0  0  0  0  0
   -1.2304   -1.9117    1.0259 H   0  0  0  0  0  0  0  0  0  0  0  0
   -1.9092   -1.9082   -0.6108 H   0  0  0  0  0  0  0  0  0  0  0  0
   -2.5978   -0.8537    0.6384 H   0  0  0  0  0  0  0  0  0  0  0  0
   -0.8176    1.2498    1.5689 H   0  0  0  0  0  0  0  0  0  0  0  0
   -1.8238    1.6878    0.1002 H   0  0  0  0  0  0  0  0  0  0  0  0
    1.5084    1.0878   -1.6344 H   0  0  0  0  0  0  0  0  0  0  0  0
   -0.2789   -0.6171   -2.2419 H   0  0  0  0  0  0  0  0  0  0  0  0
   -1.2596    0.9620   -1.9643 H   0  0  0  0  0  0  0  0  0  0  0  0
    1.1352   -1.1910   -0.6559 H   0  0  0  0  0  0  0  0  0  0  0  0
    1.0488   -0.9458    1.9155 H   0  0  0  0  0  0  0  0  0  0  0  0
    1.1753    0.8326    1.6887 H   0  0  0  0  0  0  0  0  0  0  0  0
    3.0624   -0.3912    0.1250 H   0  0  0  0  0  0  0  0  0  0  0  0
  1  2  1  0
  2  3  1  0
  3  4  1  0
  4  5  1  0
  5  6  1  0
  5  7  1  0
  7  8  1  0
  8  9  1  0
  6  2  1  0
  7  2  1  0
  1 10  1  0
  1 11  1  0
  1 12  1  0
  3 13  1  0
  3 14  1  0
  5 15  1  0
  6 16  1  0
  6 17  1  0
  7 18  1  0
  8 19  1  0
  8 20  1  0
  9 21  1  0
M  END
