
     RDKit          3D

 19 21  0  0  0  0  0  0  0  0999 V2000
    1.8248   -0.9573    0.3743 C   0  0  0  0  0  0  0  0  0  0  0  0
    0.9319    0.1700    0.7841 C   0  0  0  0  0  0  0  0  0  0  0  0
    1.5307    1.1859    1.4741 O   0  0  0  0  0  0  0  0  0  0  0  0
    1.1938    1.5674    0.2043 C   0  0  0  0  0  0  0  0  0  0  0  0
   -0.3108    1.7279   -0.0062 C   0  0  0  0  0  0  0  0  0  0  0  0
   -0.4243    0.2556    0.2055 C   0  0  0  0  0  0  0  0  0  0  0  0
   -1.5747   -0.2655    0.9605 C   0  0  0  0  0  0  0  0  0  0  0  0
   -1.5715   -1.2536   -0.1825 C   0  0  0  0  0  0  0  0  0  0  0  0
   -0.6825   -0.4983   -0.9240 O   0  0  0  0  0  0  0  0  0  0  0  0
    2.6890   -0.9964    1.0679 H   0  0  0  0  0  0  0  0  0  0  0  0
    1.2551   -1.9089    0.5668 H   0  0  0  0  0  0  0  0  0  0  0  0
    2.1134   -0.9227   -0.6758 H   0  0  0  0  0  0  0  0  0  0  0  0
    1.8691    1.5576   -0.6351 H   0  0  0  0  0  0  0  0  0  0  0  0
   -0.6096    2.1344   -0.9717 H   0  0  0  0  0  0  0  0  0  0  0  0
   -0.7143    2.2904    0.8730 H   0  0  0  0  0  0  0  0  0  0  0  0
   -1.3353   -0.7788    1.9373 H   0  0  0  0  0  0  0  0  0  0  0  0
   -2.5077    0.2923    0.9860 H   0  0  0  0  0  0  0  0  0  0  0  0
   -1.1489   -2.2425    0.0286 H   0  0  0  0  0  0  0  0  0  0  0  0
   -2.5282   -1.3572   -0.7282 H   0  0  0  0  0  0  0  0  0  0  0  0
  1  2  1  0
  2  3  1  0
  3  4  1  0
  4  5  1  0
  5  6  1  0
  6  7  1  0
  7  8  1  0
  8  9  1  0
  4  2  1  0
  9  6  1  0
  6  2  1  0
  1 10  1  0
  1 11  1  0
  1 12  1  0
  4 13  1  0
  5 14  1  0
  5 15  1  0
  7 16  1  0
  7 17  1  0
  8 18  1  0
  8 19  1  0
M  END
