
     RDKit          3D

 19 20  0  0  0  0  0  0  0  0999 V2000
   -2.1366    0.4660    0.1889 C   0  0  0  0  0  0  0  0  0  0  0  0
   -0.6692    0.2557    0.0263 C   0  0  0  0  0  0  0  0  0  0  0  0
   -0.0519   -0.3946    1.2471 C   0  0  0  0  0  0  0  0  0  0  0  0
    1.1647   -0.8662    0.9726 C   0  0  0  0  0  0  0  0  0  0  0  0
    1.6859   -0.3428   -0.3286 C   0  0  0  0  0  0  0  0  0  0  0  0
    1.3770    1.1532   -0.2592 C   0  0  0  0  0  0  0  0  0  0  0  0
    0.0172    1.3901   -0.3666 O   0  0  0  0  0  0  0  0  0  0  0  0
    0.8950   -0.9327   -1.3386 O   0  0  0  0  0  0  0  0  0  0  0  0
   -0.4486   -0.7733   -1.0932 C   0  0  0  0  0  0  0  0  0  0  0  0
   -2.5285   -0.3519    0.8319 H   0  0  0  0  0  0  0  0  0  0  0  0
   -2.3244    1.4357    0.6542 H   0  0  0  0  0  0  0  0  0  0  0  0
   -2.6270    0.3792   -0.8041 H   0  0  0  0  0  0  0  0  0  0  0  0
   -0.5466   -0.4543    2.1904 H   0  0  0  0  0  0  0  0  0  0  0  0
    1.6939   -1.5386    1.6161 H   0  0  0  0  0  0  0  0  0  0  0  0
    2.7346   -0.5493   -0.4694 H   0  0  0  0  0  0  0  0  0  0  0  0
    1.9884    1.7243   -0.9736 H   0  0  0  0  0  0  0  0  0  0  0  0
    1.6749    1.5359    0.7605 H   0  0  0  0  0  0  0  0  0  0  0  0
   -0.9673   -1.7284   -0.8355 H   0  0  0  0  0  0  0  0  0  0  0  0
   -0.9315   -0.4081   -2.0192 H   0  0  0  0  0  0  0  0  0  0  0  0
  1  2  1  0
  2  3  1  0
  3  4  2  0
  4  5  1  0
  5  6  1  0
  6  7  1  0
  5  8  1  0
  8  9  1  0
  7  2  1  0
  9  2  1  0
  1 10  1  0
  1 11  1  0
  1 12  1  0
  3 13  1  0
  4 14  1  0
  5 15  1  0
  6 16  1  0
  6 17  1  0
  9 18  1  0
  9 19  1  0
M  END
