
     RDKit          3D

 19 20  0  0  0  0  0  0  0  0999 V2000
   -2.4872    0.9325    0.1903 C   0  0  0  0  0  0  0  0  0  0  0  0
   -1.2058    0.3141    0.4062 C   0  0  0  0  0  0  0  0  0  0  0  0
   -0.0531    0.6750   -0.4990 C   0  0  0  0  0  0  0  0  0  0  0  0
    0.9188   -0.0463    0.0616 C   0  0  0  0  0  0  0  0  0  0  0  0
    2.3517   -0.2038   -0.2909 C   0  0  0  0  0  0  0  0  0  0  0  0
    3.1600    0.2120    0.7773 O   0  0  0  0  0  0  0  0  0  0  0  0
    0.1881   -0.6940    1.1892 C   0  0  0  0  0  0  0  0  0  0  0  0
   -1.0657   -1.1775    0.4930 C   0  0  0  0  0  0  0  0  0  0  0  0
   -0.5872    0.3665    1.6525 O   0  0  0  0  0  0  0  0  0  0  0  0
   -2.5517    1.9100    0.7440 H   0  0  0  0  0  0  0  0  0  0  0  0
   -2.5987    1.2112   -0.8967 H   0  0  0  0  0  0  0  0  0  0  0  0
   -3.3106    0.2625    0.4999 H   0  0  0  0  0  0  0  0  0  0  0  0
   -0.0671    1.3379   -1.3494 H   0  0  0  0  0  0  0  0  0  0  0  0
    2.6251    0.4457   -1.1464 H   0  0  0  0  0  0  0  0  0  0  0  0
    2.6084   -1.2397   -0.5815 H   0  0  0  0  0  0  0  0  0  0  0  0
    4.0674    0.3744    0.4634 H   0  0  0  0  0  0  0  0  0  0  0  0
    0.6978   -1.3224    1.8620 H   0  0  0  0  0  0  0  0  0  0  0  0
   -0.9088   -1.6653   -0.4849 H   0  0  0  0  0  0  0  0  0  0  0  0
   -1.7813   -1.6927    1.1443 H   0  0  0  0  0  0  0  0  0  0  0  0
  1  2  1  0
  2  3  1  0
  3  4  2  0
  4  5  1  0
  5  6  1  0
  4  7  1  0
  7  8  1  0
  7  9  1  0
  8  2  1  0
  9  2  1  0
  1 10  1  0
  1 11  1  0
  1 12  1  0
  3 13  1  0
  5 14  1  0
  5 15  1  0
  6 16  1  0
  7 17  1  0
  8 18  1  0
  8 19  1  0
M  END
