
     RDKit          3D

 18 19  0  0  0  0  0  0  0  0999 V2000
   -1.9190    0.2750    0.6040 C   0  0  0  0  0  0  0  0  0  0  0  0
   -0.5371    0.2584    0.1417 C   0  0  0  0  0  0  0  0  0  0  0  0
   -0.3236    0.4289   -1.3425 C   0  0  0  0  0  0  0  0  0  0  0  0
    0.9344   -0.1183   -1.5912 O   0  0  0  0  0  0  0  0  0  0  0  0
    1.4428   -0.5626   -0.3826 C   0  0  0  0  0  0  0  0  0  0  0  0
    1.6380    0.5875    0.5857 C   0  0  0  0  0  0  0  0  0  0  0  0
    0.3506    1.1057    0.7812 O   0  0  0  0  0  0  0  0  0  0  0  0
    0.1554   -1.1143    0.2675 C   0  0  0  0  0  0  0  0  0  0  0  0
   -1.9512    0.5216    1.6828 H   0  0  0  0  0  0  0  0  0  0  0  0
   -2.3939   -0.7207    0.4014 H   0  0  0  0  0  0  0  0  0  0  0  0
   -2.4975    1.0551    0.0726 H   0  0  0  0  0  0  0  0  0  0  0  0
   -1.0925   -0.1795   -1.8591 H   0  0  0  0  0  0  0  0  0  0  0  0
   -0.3183    1.4727   -1.6691 H   0  0  0  0  0  0  0  0  0  0  0  0
    2.2328   -1.2738   -0.4337 H   0  0  0  0  0  0  0  0  0  0  0  0
    2.3425    1.3431    0.2088 H   0  0  0  0  0  0  0  0  0  0  0  0
    1.9395    0.1735    1.5721 H   0  0  0  0  0  0  0  0  0  0  0  0
   -0.3218   -1.8680   -0.3545 H   0  0  0  0  0  0  0  0  0  0  0  0
    0.3189   -1.3842    1.3146 H   0  0  0  0  0  0  0  0  0  0  0  0
  1  2  1  0
  2  3  1  0
  3  4  1  0
  4  5  1  0
  5  6  1  0
  6  7  1  0
  5  8  1  0
  7  2  1  0
  8  2  1  0
  1  9  1  0
  1 10  1  0
  1 11  1  0
  3 12  1  0
  3 13  1  0
  5 14  1  0
  6 15  1  0
  6 16  1  0
  8 17  1  0
  8 18  1  0
M  END
