
     RDKit          3D

 17 18  0  0  0  0  0  0  0  0999 V2000
   -0.8430   -1.1466   -0.7154 C   0  0  0  0  0  0  0  0  0  0  0  0
   -0.4528   -0.1420    0.3465 C   0  0  0  0  0  0  0  0  0  0  0  0
    0.4927   -0.7627    1.2356 C   0  0  0  0  0  0  0  0  0  0  0  0
    0.4024   -1.0395    2.4291 O   0  0  0  0  0  0  0  0  0  0  0  0
    1.5896   -0.9999    0.4298 O   0  0  0  0  0  0  0  0  0  0  0  0
    1.5422   -0.0328   -0.6435 C   0  0  0  0  0  0  0  0  0  0  0  0
    0.6169    0.9551   -0.0686 C   0  0  0  0  0  0  0  0  0  0  0  0
   -0.7595    1.1884   -0.0323 C   0  0  0  0  0  0  0  0  0  0  0  0
   -1.3615    1.9764    0.9809 O   0  0  0  0  0  0  0  0  0  0  0  0
   -0.3592   -2.0988   -0.7078 H   0  0  0  0  0  0  0  0  0  0  0  0
   -0.7443   -0.7181   -1.7447 H   0  0  0  0  0  0  0  0  0  0  0  0
   -1.9490   -1.3245   -0.5852 H   0  0  0  0  0  0  0  0  0  0  0  0
    1.3124   -0.4685   -1.5986 H   0  0  0  0  0  0  0  0  0  0  0  0
    2.5858    0.3413   -0.7051 H   0  0  0  0  0  0  0  0  0  0  0  0
    1.1491    1.4459    0.8134 H   0  0  0  0  0  0  0  0  0  0  0  0
   -1.2779    1.4178   -0.9865 H   0  0  0  0  0  0  0  0  0  0  0  0
   -1.9440    1.4084    1.5524 H   0  0  0  0  0  0  0  0  0  0  0  0
  1  2  1  0
  2  3  1  0
  3  4  2  0
  3  5  1  0
  5  6  1  0
  6  7  1  0
  7  8  1  0
  8  9  1  0
  7  2  1  0
  8  2  1  0
  1 10  1  0
  1 11  1  0
  1 12  1  0
  6 13  1  0
  6 14  1  0
  7 15  1  0
  8 16  1  0
  9 17  1  0
M  END
