
     RDKit          3D

 19 21  0  0  0  0  0  0  0  0999 V2000
    2.4022   -0.0933    0.4357 C   0  0  0  0  0  0  0  0  0  0  0  0
    0.9074   -0.0807    0.3046 C   0  0  0  0  0  0  0  0  0  0  0  0
    0.1000   -0.8064    1.1283 O   0  0  0  0  0  0  0  0  0  0  0  0
   -1.0151   -1.2117    0.3914 C   0  0  0  0  0  0  0  0  0  0  0  0
   -2.0061   -0.0665    0.2149 C   0  0  0  0  0  0  0  0  0  0  0  0
   -1.1624    1.1715    0.0173 C   0  0  0  0  0  0  0  0  0  0  0  0
    0.1893    0.8821   -0.5304 C   0  0  0  0  0  0  0  0  0  0  0  0
    0.4209   -0.4304   -1.1058 C   0  0  0  0  0  0  0  0  0  0  0  0
   -0.4696   -1.4256   -0.8667 O   0  0  0  0  0  0  0  0  0  0  0  0
    2.7612    0.0387    1.4579 H   0  0  0  0  0  0  0  0  0  0  0  0
    2.7985    0.7065   -0.2341 H   0  0  0  0  0  0  0  0  0  0  0  0
    2.7440   -1.1052    0.0831 H   0  0  0  0  0  0  0  0  0  0  0  0
   -1.4529   -2.0927    0.8524 H   0  0  0  0  0  0  0  0  0  0  0  0
   -2.5626   -0.2219   -0.7493 H   0  0  0  0  0  0  0  0  0  0  0  0
   -2.7081    0.0116    1.0433 H   0  0  0  0  0  0  0  0  0  0  0  0
   -1.7501    1.8958   -0.5710 H   0  0  0  0  0  0  0  0  0  0  0  0
   -1.0602    1.6367    1.0410 H   0  0  0  0  0  0  0  0  0  0  0  0
    0.7065    1.7401   -1.0088 H   0  0  0  0  0  0  0  0  0  0  0  0
    1.1573   -0.5486   -1.9039 H   0  0  0  0  0  0  0  0  0  0  0  0
  1  2  1  0
  2  3  1  0
  3  4  1  0
  4  5  1  0
  5  6  1  0
  6  7  1  0
  7  8  1  0
  8  9  1  0
  7  2  1  0
  8  2  1  0
  9  4  1  0
  1 10  1  0
  1 11  1  0
  1 12  1  0
  4 13  1  0
  5 14  1  0
  5 15  1  0
  6 16  1  0
  6 17  1  0
  7 18  1  0
  8 19  1  0
M  END
