
     RDKit          3D

 19 22  0  0  0  0  0  0  0  0999 V2000
    2.2077   -0.9356    0.2962 C   0  0  0  0  0  0  0  0  0  0  0  0
    0.8210   -0.4461   -0.0107 C   0  0  0  0  0  0  0  0  0  0  0  0
    0.0386   -1.2884   -0.7469 O   0  0  0  0  0  0  0  0  0  0  0  0
   -1.2855   -1.2162   -0.4038 C   0  0  0  0  0  0  0  0  0  0  0  0
   -1.7475    0.2115   -0.5110 C   0  0  0  0  0  0  0  0  0  0  0  0
   -1.1527    0.9648    0.6049 C   0  0  0  0  0  0  0  0  0  0  0  0
   -0.7442    1.1940   -0.8827 C   0  0  0  0  0  0  0  0  0  0  0  0
    0.6487    0.9428   -0.4558 C   0  0  0  0  0  0  0  0  0  0  0  0
    0.1895    0.4387    0.9389 C   0  0  0  0  0  0  0  0  0  0  0  0
    2.7463   -1.0045   -0.6857 H   0  0  0  0  0  0  0  0  0  0  0  0
    2.0995   -1.9913    0.6608 H   0  0  0  0  0  0  0  0  0  0  0  0
    2.7613   -0.3110    1.0028 H   0  0  0  0  0  0  0  0  0  0  0  0
   -1.3511   -1.4812    0.6927 H   0  0  0  0  0  0  0  0  0  0  0  0
   -1.9242   -1.9254   -0.9272 H   0  0  0  0  0  0  0  0  0  0  0  0
   -2.7887    0.4147   -0.7654 H   0  0  0  0  0  0  0  0  0  0  0  0
   -1.6060    1.7915    1.1222 H   0  0  0  0  0  0  0  0  0  0  0  0
   -1.0617    2.1344   -1.3428 H   0  0  0  0  0  0  0  0  0  0  0  0
    1.3961    1.7221   -0.3989 H   0  0  0  0  0  0  0  0  0  0  0  0
    0.7529    0.7855    1.8124 H   0  0  0  0  0  0  0  0  0  0  0  0
  1  2  1  0
  2  3  1  0
  3  4  1  0
  4  5  1  0
  5  6  1  0
  6  7  1  0
  7  8  1  0
  8  9  1  0
  8  2  1  0
  9  2  1  0
  7  5  1  0
  9  6  1  0
  1 10  1  0
  1 11  1  0
  1 12  1  0
  4 13  1  0
  4 14  1  0
  5 15  1  0
  6 16  1  0
  7 17  1  0
  8 18  1  0
  9 19  1  0
M  END
