
     RDKit          3D

 21 22  0  0  0  0  0  0  0  0999 V2000
    1.8343   -0.4864   -0.6612 C   0  0  0  0  0  0  0  0  0  0  0  0
    0.6609   -0.3188    0.2182 C   0  0  0  0  0  0  0  0  0  0  0  0
   -0.1800   -1.5133    0.4470 C   0  0  0  0  0  0  0  0  0  0  0  0
   -1.4405   -1.2104    0.6790 C   0  0  0  0  0  0  0  0  0  0  0  0
   -1.5720    0.2543    0.6293 C   0  0  0  0  0  0  0  0  0  0  0  0
   -0.3595    0.7162   -0.1287 C   0  0  0  0  0  0  0  0  0  0  0  0
   -0.6573    0.9482   -1.5603 C   0  0  0  0  0  0  0  0  0  0  0  0
    0.4103    1.6754    0.5247 O   0  0  0  0  0  0  0  0  0  0  0  0
    0.8854    0.6238    1.3453 C   0  0  0  0  0  0  0  0  0  0  0  0
    1.9733   -1.5758   -0.8747 H   0  0  0  0  0  0  0  0  0  0  0  0
    1.8430    0.0727   -1.5892 H   0  0  0  0  0  0  0  0  0  0  0  0
    2.7527   -0.1951   -0.0797 H   0  0  0  0  0  0  0  0  0  0  0  0
    0.2347   -2.5306    0.4192 H   0  0  0  0  0  0  0  0  0  0  0  0
   -2.2696   -1.9345    0.8793 H   0  0  0  0  0  0  0  0  0  0  0  0
   -2.5013    0.5487    0.0895 H   0  0  0  0  0  0  0  0  0  0  0  0
   -1.5750    0.6629    1.6730 H   0  0  0  0  0  0  0  0  0  0  0  0
   -0.0716    0.3180   -2.2494 H   0  0  0  0  0  0  0  0  0  0  0  0
   -1.7381    0.7218   -1.8030 H   0  0  0  0  0  0  0  0  0  0  0  0
   -0.5589    2.0442   -1.7923 H   0  0  0  0  0  0  0  0  0  0  0  0
    1.9768    0.7171    1.5567 H   0  0  0  0  0  0  0  0  0  0  0  0
    0.3523    0.4618    2.2773 H   0  0  0  0  0  0  0  0  0  0  0  0
  1  2  1  0
  2  3  1  0
  3  4  2  0
  4  5  1  0
  5  6  1  0
  6  7  1  0
  6  8  1  0
  8  9  1  0
  6  2  1  0
  9  2  1  0
  1 10  1  0
  1 11  1  0
  1 12  1  0
  3 13  1  0
  4 14  1  0
  5 15  1  0
  5 16  1  0
  7 17  1  0
  7 18  1  0
  7 19  1  0
  9 20  1  0
  9 21  1  0
M  END
