
     RDKit          3D

 19 21  0  0  0  0  0  0  0  0999 V2000
    2.2866    0.7115    0.2150 C   0  0  0  0  0  0  0  0  0  0  0  0
    0.9388    0.1299   -0.1372 C   0  0  0  0  0  0  0  0  0  0  0  0
    1.0145   -0.9867   -0.9594 O   0  0  0  0  0  0  0  0  0  0  0  0
    0.5245   -1.1989    0.3296 C   0  0  0  0  0  0  0  0  0  0  0  0
   -0.9623   -1.3824    0.3885 C   0  0  0  0  0  0  0  0  0  0  0  0
   -1.6824   -0.0391    0.4008 C   0  0  0  0  0  0  0  0  0  0  0  0
   -1.3885    0.5811   -0.9698 C   0  0  0  0  0  0  0  0  0  0  0  0
   -0.2117    1.0620   -0.1950 C   0  0  0  0  0  0  0  0  0  0  0  0
   -0.9473    0.9525    1.0003 O   0  0  0  0  0  0  0  0  0  0  0  0
    2.2446    1.7600    0.5352 H   0  0  0  0  0  0  0  0  0  0  0  0
    2.9288    0.6622   -0.7009 H   0  0  0  0  0  0  0  0  0  0  0  0
    2.7191    0.0990    1.0141 H   0  0  0  0  0  0  0  0  0  0  0  0
    1.1646   -1.6758    1.0909 H   0  0  0  0  0  0  0  0  0  0  0  0
   -1.2815   -2.0415    1.2055 H   0  0  0  0  0  0  0  0  0  0  0  0
   -1.3187   -1.8849   -0.5591 H   0  0  0  0  0  0  0  0  0  0  0  0
   -2.7444   -0.1167    0.6445 H   0  0  0  0  0  0  0  0  0  0  0  0
   -2.1189    1.3737   -1.1675 H   0  0  0  0  0  0  0  0  0  0  0  0
   -1.1956   -0.1467   -1.7694 H   0  0  0  0  0  0  0  0  0  0  0  0
    0.0299    2.1407   -0.3662 H   0  0  0  0  0  0  0  0  0  0  0  0
  1  2  1  0
  2  3  1  0
  3  4  1  0
  4  5  1  0
  5  6  1  0
  6  7  1  0
  7  8  1  0
  8  9  1  0
  4  2  1  0
  9  6  1  0
  8  2  1  0
  1 10  1  0
  1 11  1  0
  1 12  1  0
  4 13  1  0
  5 14  1  0
  5 15  1  0
  6 16  1  0
  7 17  1  0
  7 18  1  0
  8 19  1  0
M  END
