
     RDKit          3D

 21 23  0  0  0  0  0  0  0  0999 V2000
    1.8026    0.9711   -0.2183 C   0  0  0  0  0  0  0  0  0  0  0  0
    0.5972    0.1789    0.1493 C   0  0  0  0  0  0  0  0  0  0  0  0
   -0.5086    1.0041    0.7152 C   0  0  0  0  0  0  0  0  0  0  0  0
   -1.6193    0.8449   -0.2664 C   0  0  0  0  0  0  0  0  0  0  0  0
   -1.4085   -0.4992   -0.8840 C   0  0  0  0  0  0  0  0  0  0  0  0
   -0.8261   -1.6373   -0.1455 C   0  0  0  0  0  0  0  0  0  0  0  0
   -0.3701   -1.5595    1.1339 O   0  0  0  0  0  0  0  0  0  0  0  0
    0.8815   -0.9422    1.1328 C   0  0  0  0  0  0  0  0  0  0  0  0
    0.0287   -0.6403   -0.9762 C   0  0  0  0  0  0  0  0  0  0  0  0
    2.2224    1.4256    0.6798 H   0  0  0  0  0  0  0  0  0  0  0  0
    2.5125    0.3217   -0.7661 H   0  0  0  0  0  0  0  0  0  0  0  0
    1.4555    1.7962   -0.8742 H   0  0  0  0  0  0  0  0  0  0  0  0
   -0.8877    0.6100    1.7042 H   0  0  0  0  0  0  0  0  0  0  0  0
   -0.1873    2.0763    0.8460 H   0  0  0  0  0  0  0  0  0  0  0  0
   -2.6218    0.9942    0.1557 H   0  0  0  0  0  0  0  0  0  0  0  0
   -1.4485    1.6062   -1.0838 H   0  0  0  0  0  0  0  0  0  0  0  0
   -2.0571   -0.7207   -1.7469 H   0  0  0  0  0  0  0  0  0  0  0  0
   -0.9760   -2.6354   -0.5851 H   0  0  0  0  0  0  0  0  0  0  0  0
    1.1333   -0.5804    2.1295 H   0  0  0  0  0  0  0  0  0  0  0  0
    1.6618   -1.5982    0.6877 H   0  0  0  0  0  0  0  0  0  0  0  0
    0.6153   -1.0159   -1.7876 H   0  0  0  0  0  0  0  0  0  0  0  0
  1  2  1  0
  2  3  1  0
  3  4  1  0
  4  5  1  0
  5  6  1  0
  6  7  1  0
  7  8  1  0
  6  9  1  0
  8  2  1  0
  9  2  1  0
  9  5  1  0
  1 10  1  0
  1 11  1  0
  1 12  1  0
  3 13  1  0
  3 14  1  0
  4 15  1  0
  4 16  1  0
  5 17  1  0
  6 18  1  0
  8 19  1  0
  8 20  1  0
  9 21  1  0
M  END
