
     RDKit          3D

 21 22  0  0  0  0  0  0  0  0999 V2000
    2.3392   -0.1522   -0.6682 C   0  0  0  0  0  0  0  0  0  0  0  0
    0.8619   -0.0279   -0.4561 C   0  0  0  0  0  0  0  0  0  0  0  0
    0.4417   -0.4798    0.9463 C   0  0  0  0  0  0  0  0  0  0  0  0
   -1.0594   -0.6270    0.6567 C   0  0  0  0  0  0  0  0  0  0  0  0
   -1.6407    0.7143    0.3344 C   0  0  0  0  0  0  0  0  0  0  0  0
   -0.5249    1.7185    0.1768 C   0  0  0  0  0  0  0  0  0  0  0  0
    0.5012    1.2903   -0.6264 O   0  0  0  0  0  0  0  0  0  0  0  0
   -0.9144   -1.3741   -0.6789 C   0  0  0  0  0  0  0  0  0  0  0  0
    0.1528   -0.8118   -1.3287 O   0  0  0  0  0  0  0  0  0  0  0  0
    2.6461    0.5402   -1.4871 H   0  0  0  0  0  0  0  0  0  0  0  0
    2.8879    0.1327    0.2356 H   0  0  0  0  0  0  0  0  0  0  0  0
    2.6247   -1.1716   -1.0180 H   0  0  0  0  0  0  0  0  0  0  0  0
    0.8244   -1.4868    1.0947 H   0  0  0  0  0  0  0  0  0  0  0  0
    0.6540    0.2513    1.7114 H   0  0  0  0  0  0  0  0  0  0  0  0
   -1.5806   -1.2016    1.4066 H   0  0  0  0  0  0  0  0  0  0  0  0
   -2.3489    1.0972    1.0674 H   0  0  0  0  0  0  0  0  0  0  0  0
   -2.1822    0.7001   -0.6532 H   0  0  0  0  0  0  0  0  0  0  0  0
   -0.1752    2.0383    1.1824 H   0  0  0  0  0  0  0  0  0  0  0  0
   -0.9958    2.6212   -0.3137 H   0  0  0  0  0  0  0  0  0  0  0  0
   -1.8659   -1.3433   -1.2111 H   0  0  0  0  0  0  0  0  0  0  0  0
   -0.6460   -2.4278   -0.3709 H   0  0  0  0  0  0  0  0  0  0  0  0
  1  2  1  0
  2  3  1  0
  3  4  1  0
  4  5  1  0
  5  6  1  0
  6  7  1  0
  4  8  1  0
  8  9  1  0
  7  2  1  0
  9  2  1  0
  1 10  1  0
  1 11  1  0
  1 12  1  0
  3 13  1  0
  3 14  1  0
  4 15  1  0
  5 16  1  0
  5 17  1  0
  6 18  1  0
  6 19  1  0
  8 20  1  0
  8 21  1  0
M  END
