
     RDKit          3D

 19 20  0  0  0  0  0  0  0  0999 V2000
   -1.5949    1.4480    0.3741 C   0  0  0  0  0  0  0  0  0  0  0  0
   -0.7816    0.3140   -0.2891 C   0  0  0  0  0  0  0  0  0  0  0  0
   -1.7712   -0.8346   -0.5412 C   0  0  0  0  0  0  0  0  0  0  0  0
   -1.7952   -0.8188    0.8842 O   0  0  0  0  0  0  0  0  0  0  0  0
   -0.4163   -0.8648    0.6969 C   0  0  0  0  0  0  0  0  0  0  0  0
    0.5019    0.1716    0.3436 C   0  0  0  0  0  0  0  0  0  0  0  0
    1.6615   -0.1173   -0.6244 C   0  0  0  0  0  0  0  0  0  0  0  0
    2.9473   -0.2546    0.0499 C   0  0  0  0  0  0  0  0  0  0  0  0
    3.5913    0.7325    0.3370 O   0  0  0  0  0  0  0  0  0  0  0  0
   -0.9170    2.3006    0.4951 H   0  0  0  0  0  0  0  0  0  0  0  0
   -2.4133    1.7488   -0.2792 H   0  0  0  0  0  0  0  0  0  0  0  0
   -2.0062    1.0645    1.3362 H   0  0  0  0  0  0  0  0  0  0  0  0
   -2.7400   -0.5006   -0.9106 H   0  0  0  0  0  0  0  0  0  0  0  0
   -1.3551   -1.7228   -0.9965 H   0  0  0  0  0  0  0  0  0  0  0  0
   -0.1921   -1.8494    0.1858 H   0  0  0  0  0  0  0  0  0  0  0  0
    0.8731    0.8148    1.1955 H   0  0  0  0  0  0  0  0  0  0  0  0
    1.4013   -1.0626   -1.1332 H   0  0  0  0  0  0  0  0  0  0  0  0
    1.6824    0.6683   -1.4163 H   0  0  0  0  0  0  0  0  0  0  0  0
    3.3239   -1.2376    0.2921 H   0  0  0  0  0  0  0  0  0  0  0  0
  1  2  1  0
  2  3  1  0
  3  4  1  0
  4  5  1  0
  5  6  1  0
  6  7  1  0
  7  8  1  0
  8  9  2  0
  5  2  1  0
  6  2  1  0
  1 10  1  0
  1 11  1  0
  1 12  1  0
  3 13  1  0
  3 14  1  0
  5 15  1  0
  6 16  1  0
  7 17  1  0
  7 18  1  0
  8 19  1  0
M  END
