
     RDKit          3D

 17 18  0  0  0  0  0  0  0  0999 V2000
    1.9048    0.4759   -0.4529 C   0  0  0  0  0  0  0  0  0  0  0  0
    0.5165    0.2668   -0.0897 C   0  0  0  0  0  0  0  0  0  0  0  0
   -0.3828   -0.4980   -1.0576 C   0  0  0  0  0  0  0  0  0  0  0  0
   -1.6907   -0.2942   -0.2649 C   0  0  0  0  0  0  0  0  0  0  0  0
   -1.0894    0.4487    0.9148 C   0  0  0  0  0  0  0  0  0  0  0  0
    0.1559   -0.3597    1.2163 C   0  0  0  0  0  0  0  0  0  0  0  0
   -0.2563    1.3712    0.3044 O   0  0  0  0  0  0  0  0  0  0  0  0
    2.0462    1.5333   -0.8201 H   0  0  0  0  0  0  0  0  0  0  0  0
    2.2735   -0.1690   -1.2566 H   0  0  0  0  0  0  0  0  0  0  0  0
    2.6111    0.3927    0.4167 H   0  0  0  0  0  0  0  0  0  0  0  0
   -0.4288   -0.0540   -2.0448 H   0  0  0  0  0  0  0  0  0  0  0  0
   -0.0724   -1.5536   -1.0189 H   0  0  0  0  0  0  0  0  0  0  0  0
   -2.1559   -1.2397    0.0033 H   0  0  0  0  0  0  0  0  0  0  0  0
   -2.3483    0.4239   -0.7866 H   0  0  0  0  0  0  0  0  0  0  0  0
   -1.7220    0.7429    1.7158 H   0  0  0  0  0  0  0  0  0  0  0  0
    0.7219   -0.0498    2.0933 H   0  0  0  0  0  0  0  0  0  0  0  0
   -0.0832   -1.4377    1.1276 H   0  0  0  0  0  0  0  0  0  0  0  0
  1  2  1  0
  2  3  1  0
  3  4  1  0
  4  5  1  0
  5  6  1  0
  5  7  1  0
  6  2  1  0
  7  2  1  0
  1  8  1  0
  1  9  1  0
  1 10  1  0
  3 11  1  0
  3 12  1  0
  4 13  1  0
  4 14  1  0
  5 15  1  0
  6 16  1  0
  6 17  1  0
M  END
