
     RDKit          3D

 17 18  0  0  0  0  0  0  0  0999 V2000
   -1.8566   -0.9267    0.4395 C   0  0  0  0  0  0  0  0  0  0  0  0
   -0.7649    0.1089    0.5233 C   0  0  0  0  0  0  0  0  0  0  0  0
    0.2278   -0.0030    1.4684 O   0  0  0  0  0  0  0  0  0  0  0  0
    0.5198    0.0926    0.1045 C   0  0  0  0  0  0  0  0  0  0  0  0
    1.4356   -0.9431   -0.4113 C   0  0  0  0  0  0  0  0  0  0  0  0
    2.6523   -0.8409    0.2864 O   0  0  0  0  0  0  0  0  0  0  0  0
    0.3742    1.4383   -0.5587 C   0  0  0  0  0  0  0  0  0  0  0  0
   -1.0203    1.4680   -0.0375 C   0  0  0  0  0  0  0  0  0  0  0  0
   -2.0069    2.1719    0.0002 O   0  0  0  0  0  0  0  0  0  0  0  0
   -2.5203   -0.8325    1.3179 H   0  0  0  0  0  0  0  0  0  0  0  0
   -2.4757   -0.6720   -0.4501 H   0  0  0  0  0  0  0  0  0  0  0  0
   -1.4542   -1.9419    0.3922 H   0  0  0  0  0  0  0  0  0  0  0  0
    1.6930   -0.8484   -1.4807 H   0  0  0  0  0  0  0  0  0  0  0  0
    1.0578   -1.9813   -0.2663 H   0  0  0  0  0  0  0  0  0  0  0  0
    2.7732    0.1308    0.4739 H   0  0  0  0  0  0  0  0  0  0  0  0
    0.3446    1.3564   -1.6621 H   0  0  0  0  0  0  0  0  0  0  0  0
    1.0206    2.2228   -0.1396 H   0  0  0  0  0  0  0  0  0  0  0  0
  1  2  1  0
  2  3  1  0
  3  4  1  0
  4  5  1  0
  5  6  1  0
  4  7  1  0
  7  8  1  0
  8  9  2  0
  4  2  1  0
  8  2  1  0
  1 10  1  0
  1 11  1  0
  1 12  1  0
  5 13  1  0
  5 14  1  0
  6 15  1  0
  7 16  1  0
  7 17  1  0
M  END
