
     RDKit          3D

 19 20  0  0  0  0  0  0  0  0999 V2000
    2.1787    0.0319    0.3363 C   0  0  0  0  0  0  0  0  0  0  0  0
    0.7221   -0.0557    0.1336 C   0  0  0  0  0  0  0  0  0  0  0  0
    0.2199    1.0875   -0.7172 C   0  0  0  0  0  0  0  0  0  0  0  0
   -1.2847    1.0149   -0.4107 C   0  0  0  0  0  0  0  0  0  0  0  0
   -1.3108    0.0685    0.7495 C   0  0  0  0  0  0  0  0  0  0  0  0
   -1.2260   -1.3522    0.1942 C   0  0  0  0  0  0  0  0  0  0  0  0
    0.1899   -1.3522   -0.2643 C   0  0  0  0  0  0  0  0  0  0  0  0
    0.7485   -2.2505   -0.8403 O   0  0  0  0  0  0  0  0  0  0  0  0
   -0.0189    0.1781    1.3178 O   0  0  0  0  0  0  0  0  0  0  0  0
    2.4004    1.0607    0.7458 H   0  0  0  0  0  0  0  0  0  0  0  0
    2.6047   -0.6797    1.0404 H   0  0  0  0  0  0  0  0  0  0  0  0
    2.6849   -0.0305   -0.6317 H   0  0  0  0  0  0  0  0  0  0  0  0
    0.6651    2.0174   -0.3072 H   0  0  0  0  0  0  0  0  0  0  0  0
    0.4098    0.9368   -1.7894 H   0  0  0  0  0  0  0  0  0  0  0  0
   -1.6569    2.0047   -0.0724 H   0  0  0  0  0  0  0  0  0  0  0  0
   -1.8622    0.6520   -1.2598 H   0  0  0  0  0  0  0  0  0  0  0  0
   -2.1068    0.2111    1.4622 H   0  0  0  0  0  0  0  0  0  0  0  0
   -1.4241   -2.1118    0.9757 H   0  0  0  0  0  0  0  0  0  0  0  0
   -1.9337   -1.4309   -0.6623 H   0  0  0  0  0  0  0  0  0  0  0  0
  1  2  1  0
  2  3  1  0
  3  4  1  0
  4  5  1  0
  5  6  1  0
  6  7  1  0
  7  8  2  0
  5  9  1  0
  7  2  1  0
  9  2  1  0
  1 10  1  0
  1 11  1  0
  1 12  1  0
  3 13  1  0
  3 14  1  0
  4 15  1  0
  4 16  1  0
  5 17  1  0
  6 18  1  0
  6 19  1  0
M  END
