
     RDKit          3D

 17 18  0  0  0  0  0  0  0  0999 V2000
   -1.1930    1.3122   -0.2374 C   0  0  0  0  0  0  0  0  0  0  0  0
   -0.5028    0.0204    0.0891 C   0  0  0  0  0  0  0  0  0  0  0  0
    0.2652   -0.0364    1.3760 C   0  0  0  0  0  0  0  0  0  0  0  0
    1.5483    0.5616    1.1445 O   0  0  0  0  0  0  0  0  0  0  0  0
    2.2548   -0.0097    0.0675 C   0  0  0  0  0  0  0  0  0  0  0  0
    3.4678    0.2676   -0.1468 O   0  0  0  0  0  0  0  0  0  0  0  0
    1.5242   -0.8857   -0.7248 O   0  0  0  0  0  0  0  0  0  0  0  0
    0.1934   -0.6201   -1.0672 C   0  0  0  0  0  0  0  0  0  0  0  0
   -0.9557   -1.2754   -0.4536 C   0  0  0  0  0  0  0  0  0  0  0  0
   -2.2709    1.1077   -0.3926 H   0  0  0  0  0  0  0  0  0  0  0  0
   -0.7782    1.7708   -1.1778 H   0  0  0  0  0  0  0  0  0  0  0  0
   -1.0495    2.0307    0.6028 H   0  0  0  0  0  0  0  0  0  0  0  0
    0.4795   -1.0860    1.6809 H   0  0  0  0  0  0  0  0  0  0  0  0
   -0.3008    0.4699    2.1557 H   0  0  0  0  0  0  0  0  0  0  0  0
    0.0818   -0.1796   -2.0905 H   0  0  0  0  0  0  0  0  0  0  0  0
   -1.9083   -1.2535   -1.0206 H   0  0  0  0  0  0  0  0  0  0  0  0
   -0.8559   -2.1944    0.1948 H   0  0  0  0  0  0  0  0  0  0  0  0
  1  2  1  0
  2  3  1  0
  3  4  1  0
  4  5  1  0
  5  6  2  0
  5  7  1  0
  7  8  1  0
  8  9  1  0
  8  2  1  0
  9  2  1  0
  1 10  1  0
  1 11  1  0
  1 12  1  0
  3 13  1  0
  3 14  1  0
  8 15  1  0
  9 16  1  0
  9 17  1  0
M  END
