
     RDKit          3D

 19 20  0  0  0  0  0  0  0  0999 V2000
   -2.3696    0.1860   -0.2175 C   0  0  0  0  0  0  0  0  0  0  0  0
   -0.8886    0.2265    0.0643 C   0  0  0  0  0  0  0  0  0  0  0  0
   -0.2282   -1.0948    0.2604 C   0  0  0  0  0  0  0  0  0  0  0  0
    1.1800   -1.1717   -0.2471 C   0  0  0  0  0  0  0  0  0  0  0  0
    1.9628   -0.0125    0.3019 C   0  0  0  0  0  0  0  0  0  0  0  0
    1.3406    1.2193   -0.2249 C   0  0  0  0  0  0  0  0  0  0  0  0
    2.0512    2.1057   -0.6272 O   0  0  0  0  0  0  0  0  0  0  0  0
   -0.1288    1.3313   -0.2443 C   0  0  0  0  0  0  0  0  0  0  0  0
   -0.6332    1.2036    1.1470 O   0  0  0  0  0  0  0  0  0  0  0  0
   -2.5958    0.0474   -1.2918 H   0  0  0  0  0  0  0  0  0  0  0  0
   -2.9152    1.0696    0.1267 H   0  0  0  0  0  0  0  0  0  0  0  0
   -2.8088   -0.7022    0.2989 H   0  0  0  0  0  0  0  0  0  0  0  0
   -0.2782   -1.3432    1.3439 H   0  0  0  0  0  0  0  0  0  0  0  0
   -0.8187   -1.8573   -0.2762 H   0  0  0  0  0  0  0  0  0  0  0  0
    1.6305   -2.1076    0.1881 H   0  0  0  0  0  0  0  0  0  0  0  0
    1.2106   -1.2396   -1.3450 H   0  0  0  0  0  0  0  0  0  0  0  0
    1.7720   -0.0067    1.4156 H   0  0  0  0  0  0  0  0  0  0  0  0
    3.0447   -0.0808    0.0854 H   0  0  0  0  0  0  0  0  0  0  0  0
   -0.5273    2.2270   -0.7581 H   0  0  0  0  0  0  0  0  0  0  0  0
  1  2  1  0
  2  3  1  0
  3  4  1  0
  4  5  1  0
  5  6  1  0
  6  7  2  0
  6  8  1  0
  8  9  1  0
  8  2  1  0
  9  2  1  0
  1 10  1  0
  1 11  1  0
  1 12  1  0
  3 13  1  0
  3 14  1  0
  4 15  1  0
  4 16  1  0
  5 17  1  0
  5 18  1  0
  8 19  1  0
M  END
