
     RDKit          3D

 17 19  0  0  0  0  0  0  0  0999 V2000
   -1.9687   -0.4793   -0.0085 C   0  0  0  0  0  0  0  0  0  0  0  0
   -0.5481   -0.1048   -0.1662 C   0  0  0  0  0  0  0  0  0  0  0  0
   -0.1090    1.2907   -0.4907 C   0  0  0  0  0  0  0  0  0  0  0  0
    1.0478    1.0923    0.4834 C   0  0  0  0  0  0  0  0  0  0  0  0
    2.1712    0.5361   -0.1906 O   0  0  0  0  0  0  0  0  0  0  0  0
    1.8858   -0.7546   -0.5928 C   0  0  0  0  0  0  0  0  0  0  0  0
    2.6399   -1.4832   -1.2610 O   0  0  0  0  0  0  0  0  0  0  0  0
    0.5407   -1.1215   -0.0979 C   0  0  0  0  0  0  0  0  0  0  0  0
    0.3421   -0.1373    0.9757 C   0  0  0  0  0  0  0  0  0  0  0  0
   -2.0544   -1.5138    0.3119 H   0  0  0  0  0  0  0  0  0  0  0  0
   -2.4195    0.1450    0.8170 H   0  0  0  0  0  0  0  0  0  0  0  0
   -2.5663   -0.3219   -0.9321 H   0  0  0  0  0  0  0  0  0  0  0  0
   -0.8261    2.0836   -0.1711 H   0  0  0  0  0  0  0  0  0  0  0  0
    0.2424    1.3958   -1.5397 H   0  0  0  0  0  0  0  0  0  0  0  0
    1.2363    1.8902    1.1827 H   0  0  0  0  0  0  0  0  0  0  0  0
    0.2689   -2.1823    0.0479 H   0  0  0  0  0  0  0  0  0  0  0  0
    0.1170   -0.3351    2.0005 H   0  0  0  0  0  0  0  0  0  0  0  0
  1  2  1  0
  2  3  1  0
  3  4  1  0
  4  5  1  0
  5  6  1  0
  6  7  2  0
  6  8  1  0
  8  9  1  0
  8  2  1  0
  9  2  1  0
  9  4  1  0
  1 10  1  0
  1 11  1  0
  1 12  1  0
  3 13  1  0
  3 14  1  0
  4 15  1  0
  8 16  1  0
  9 17  1  0
M  END
