
     RDKit          3D

 21 23  0  0  0  0  0  0  0  0999 V2000
   -1.7793   -1.1918    0.3632 C   0  0  0  0  0  0  0  0  0  0  0  0
   -0.7761   -0.0770    0.3677 C   0  0  0  0  0  0  0  0  0  0  0  0
   -1.3336    1.2855   -0.0354 C   0  0  0  0  0  0  0  0  0  0  0  0
   -0.1027    1.4407   -0.9212 C   0  0  0  0  0  0  0  0  0  0  0  0
    0.0597   -0.0394   -0.8853 C   0  0  0  0  0  0  0  0  0  0  0  0
    1.3642   -0.5902   -0.4456 C   0  0  0  0  0  0  0  0  0  0  0  0
    2.3146    0.1138    0.4130 C   0  0  0  0  0  0  0  0  0  0  0  0
    1.2551   -0.7001    1.0624 C   0  0  0  0  0  0  0  0  0  0  0  0
    0.0994   -0.0403    1.4354 O   0  0  0  0  0  0  0  0  0  0  0  0
   -2.1099   -1.4069    1.3922 H   0  0  0  0  0  0  0  0  0  0  0  0
   -1.3725   -2.1162   -0.1191 H   0  0  0  0  0  0  0  0  0  0  0  0
   -2.6278   -0.8628   -0.2866 H   0  0  0  0  0  0  0  0  0  0  0  0
   -1.3880    1.9663    0.8184 H   0  0  0  0  0  0  0  0  0  0  0  0
   -2.2815    1.1131   -0.5977 H   0  0  0  0  0  0  0  0  0  0  0  0
    0.6498    2.0555   -0.4199 H   0  0  0  0  0  0  0  0  0  0  0  0
   -0.4498    1.8328   -1.9164 H   0  0  0  0  0  0  0  0  0  0  0  0
   -0.3733   -0.5169   -1.7774 H   0  0  0  0  0  0  0  0  0  0  0  0
    1.6422   -1.5693   -0.9167 H   0  0  0  0  0  0  0  0  0  0  0  0
    2.2650    1.2060    0.4973 H   0  0  0  0  0  0  0  0  0  0  0  0
    3.3668   -0.2844    0.4002 H   0  0  0  0  0  0  0  0  0  0  0  0
    1.5774   -1.6185    1.5714 H   0  0  0  0  0  0  0  0  0  0  0  0
  1  2  1  0
  2  3  1  0
  3  4  1  0
  4  5  1  0
  5  6  1  0
  6  7  1  0
  7  8  1  0
  8  9  1  0
  5  2  1  0
  8  6  1  0
  9  2  1  0
  1 10  1  0
  1 11  1  0
  1 12  1  0
  3 13  1  0
  3 14  1  0
  4 15  1  0
  4 16  1  0
  5 17  1  0
  6 18  1  0
  7 19  1  0
  7 20  1  0
  8 21  1  0
M  END
