
     RDKit          3D

 21 24  0  0  0  0  0  0  0  0999 V2000
    1.0613   -1.6970   -0.7386 C   0  0  0  0  0  0  0  0  0  0  0  0
    0.5529   -0.3764   -0.3673 C   0  0  0  0  0  0  0  0  0  0  0  0
    1.4093    0.8434   -0.2607 C   0  0  0  0  0  0  0  0  0  0  0  0
    0.9086    1.4976    0.9935 C   0  0  0  0  0  0  0  0  0  0  0  0
   -0.5847    1.2511    0.9070 C   0  0  0  0  0  0  0  0  0  0  0  0
   -0.9053    1.1296   -0.5133 C   0  0  0  0  0  0  0  0  0  0  0  0
    0.3284    0.7569   -1.2429 C   0  0  0  0  0  0  0  0  0  0  0  0
   -0.6721   -0.1117    0.3964 C   0  0  0  0  0  0  0  0  0  0  0  0
   -1.7774   -1.0512    0.5958 C   0  0  0  0  0  0  0  0  0  0  0  0
    2.1787   -1.6965   -0.7120 H   0  0  0  0  0  0  0  0  0  0  0  0
    0.7557   -2.4415    0.0418 H   0  0  0  0  0  0  0  0  0  0  0  0
    0.7828   -2.0742   -1.7377 H   0  0  0  0  0  0  0  0  0  0  0  0
    2.4661    0.8446   -0.5275 H   0  0  0  0  0  0  0  0  0  0  0  0
    1.2660    0.8520    1.8494 H   0  0  0  0  0  0  0  0  0  0  0  0
    1.1819    2.5375    1.1173 H   0  0  0  0  0  0  0  0  0  0  0  0
   -1.2671    1.7087    1.6246 H   0  0  0  0  0  0  0  0  0  0  0  0
   -1.8813    1.2148   -0.9611 H   0  0  0  0  0  0  0  0  0  0  0  0
    0.4385    0.7890   -2.3168 H   0  0  0  0  0  0  0  0  0  0  0  0
   -1.4343   -2.0989    0.4803 H   0  0  0  0  0  0  0  0  0  0  0  0
   -2.5430   -0.8833   -0.2179 H   0  0  0  0  0  0  0  0  0  0  0  0
   -2.2648   -0.9945    1.5897 H   0  0  0  0  0  0  0  0  0  0  0  0
  1  2  1  0
  2  3  1  0
  3  4  1  0
  4  5  1  0
  5  6  1  0
  6  7  1  0
  6  8  1  0
  8  9  1  0
  7  2  1  0
  8  2  1  0
  7  3  1  0
  8  5  1  0
  1 10  1  0
  1 11  1  0
  1 12  1  0
  3 13  1  0
  4 14  1  0
  4 15  1  0
  5 16  1  0
  6 17  1  0
  7 18  1  0
  9 19  1  0
  9 20  1  0
  9 21  1  0
M  END
