
     RDKit          3D

 21 22  0  0  0  0  0  0  0  0999 V2000
   -1.3333    1.1367    0.8912 C   0  0  0  0  0  0  0  0  0  0  0  0
   -0.5750    0.6380   -0.2905 C   0  0  0  0  0  0  0  0  0  0  0  0
    0.6256    1.3249   -0.8127 C   0  0  0  0  0  0  0  0  0  0  0  0
    0.7698    0.0225   -0.1618 C   0  0  0  0  0  0  0  0  0  0  0  0
    1.4572   -0.0388    1.1852 C   0  0  0  0  0  0  0  0  0  0  0  0
    2.6905   -0.6609    1.0113 O   0  0  0  0  0  0  0  0  0  0  0  0
    0.2343   -1.2375   -0.7712 C   0  0  0  0  0  0  0  0  0  0  0  0
   -1.0875   -0.5219   -1.0819 C   0  0  0  0  0  0  0  0  0  0  0  0
   -2.1955   -1.1047   -0.4729 O   0  0  0  0  0  0  0  0  0  0  0  0
   -2.4102    1.2198    0.5987 H   0  0  0  0  0  0  0  0  0  0  0  0
   -1.2960    0.4488    1.7743 H   0  0  0  0  0  0  0  0  0  0  0  0
   -1.0165    2.1565    1.1776 H   0  0  0  0  0  0  0  0  0  0  0  0
    1.0127    2.2004   -0.2885 H   0  0  0  0  0  0  0  0  0  0  0  0
    0.7409    1.3549   -1.9329 H   0  0  0  0  0  0  0  0  0  0  0  0
    0.8605   -0.5998    1.9306 H   0  0  0  0  0  0  0  0  0  0  0  0
    1.6600    1.0018    1.5147 H   0  0  0  0  0  0  0  0  0  0  0  0
    2.6128   -1.3558    0.3144 H   0  0  0  0  0  0  0  0  0  0  0  0
    0.0418   -2.0674   -0.0664 H   0  0  0  0  0  0  0  0  0  0  0  0
    0.7129   -1.5620   -1.7023 H   0  0  0  0  0  0  0  0  0  0  0  0
   -1.2118   -0.2981   -2.1685 H   0  0  0  0  0  0  0  0  0  0  0  0
   -2.2933   -2.0572   -0.6484 H   0  0  0  0  0  0  0  0  0  0  0  0
  1  2  1  0
  2  3  1  0
  3  4  1  0
  4  5  1  0
  5  6  1  0
  4  7  1  0
  7  8  1  0
  8  9  1  0
  4  2  1  0
  8  2  1  0
  1 10  1  0
  1 11  1  0
  1 12  1  0
  3 13  1  0
  3 14  1  0
  5 15  1  0
  5 16  1  0
  6 17  1  0
  7 18  1  0
  7 19  1  0
  8 20  1  0
  9 21  1  0
M  END
