
     RDKit          3D

 21 23  0  0  0  0  0  0  0  0999 V2000
    1.7796    1.4186    0.2257 C   0  0  0  0  0  0  0  0  0  0  0  0
    0.7201    0.4456    0.0640 C   0  0  0  0  0  0  0  0  0  0  0  0
    0.8439   -0.5605   -1.0948 C   0  0  0  0  0  0  0  0  0  0  0  0
   -0.1211   -1.3641   -0.2029 C   0  0  0  0  0  0  0  0  0  0  0  0
    0.7168   -0.8004    0.9265 C   0  0  0  0  0  0  0  0  0  0  0  0
   -1.3545   -0.5447   -0.2149 C   0  0  0  0  0  0  0  0  0  0  0  0
   -2.2024   -0.7596   -1.2836 O   0  0  0  0  0  0  0  0  0  0  0  0
   -1.7595    0.3750    0.8475 C   0  0  0  0  0  0  0  0  0  0  0  0
   -0.7026    0.8789   -0.0941 C   0  0  0  0  0  0  0  0  0  0  0  0
    2.0158    1.5621    1.3094 H   0  0  0  0  0  0  0  0  0  0  0  0
    2.7206    1.0622   -0.2400 H   0  0  0  0  0  0  0  0  0  0  0  0
    1.4587    2.4066   -0.1587 H   0  0  0  0  0  0  0  0  0  0  0  0
    0.4057   -0.2113   -2.0336 H   0  0  0  0  0  0  0  0  0  0  0  0
    1.8291   -1.0227   -1.1128 H   0  0  0  0  0  0  0  0  0  0  0  0
   -0.1436   -2.4183   -0.3495 H   0  0  0  0  0  0  0  0  0  0  0  0
    0.2647   -0.7355    1.9036 H   0  0  0  0  0  0  0  0  0  0  0  0
    1.7626   -1.2242    0.9101 H   0  0  0  0  0  0  0  0  0  0  0  0
   -3.0347   -1.2080   -1.0515 H   0  0  0  0  0  0  0  0  0  0  0  0
   -1.4757    0.3193    1.8896 H   0  0  0  0  0  0  0  0  0  0  0  0
   -2.7605    0.8640    0.6958 H   0  0  0  0  0  0  0  0  0  0  0  0
   -0.9628    1.5169   -0.9357 H   0  0  0  0  0  0  0  0  0  0  0  0
  1  2  1  0
  2  3  1  0
  3  4  1  0
  4  5  1  0
  4  6  1  0
  6  7  1  0
  6  8  1  0
  8  9  1  0
  5  2  1  0
  9  6  1  0
  9  2  1  0
  1 10  1  0
  1 11  1  0
  1 12  1  0
  3 13  1  0
  3 14  1  0
  4 15  1  0
  5 16  1  0
  5 17  1  0
  7 18  1  0
  8 19  1  0
  8 20  1  0
  9 21  1  0
M  END
