
     RDKit          3D

 19 20  0  0  0  0  0  0  0  0999 V2000
   -0.6157   -1.0809    1.1831 C   0  0  0  0  0  0  0  0  0  0  0  0
   -0.2198   -0.5800   -0.1662 C   0  0  0  0  0  0  0  0  0  0  0  0
   -1.2367   -0.7371   -1.1267 C   0  0  0  0  0  0  0  0  0  0  0  0
   -1.0018    0.6019   -0.8202 C   0  0  0  0  0  0  0  0  0  0  0  0
   -0.6968    1.4796    0.3318 C   0  0  0  0  0  0  0  0  0  0  0  0
    0.8097    1.3691    0.2025 C   0  0  0  0  0  0  0  0  0  0  0  0
    1.0475    0.1025   -0.1053 C   0  0  0  0  0  0  0  0  0  0  0  0
    2.3679   -0.5077   -0.3442 C   0  0  0  0  0  0  0  0  0  0  0  0
    3.3748    0.2108   -0.2555 O   0  0  0  0  0  0  0  0  0  0  0  0
   -1.5505   -0.7203    1.5851 H   0  0  0  0  0  0  0  0  0  0  0  0
    0.1721   -0.9830    1.9498 H   0  0  0  0  0  0  0  0  0  0  0  0
   -0.7521   -2.2013    1.0702 H   0  0  0  0  0  0  0  0  0  0  0  0
   -0.9047   -1.2416   -2.0871 H   0  0  0  0  0  0  0  0  0  0  0  0
   -2.2386   -1.1607   -0.8754 H   0  0  0  0  0  0  0  0  0  0  0  0
   -0.4952    1.1125   -1.7105 H   0  0  0  0  0  0  0  0  0  0  0  0
   -1.0766    1.2362    1.3043 H   0  0  0  0  0  0  0  0  0  0  0  0
   -0.9873    2.5305    0.1292 H   0  0  0  0  0  0  0  0  0  0  0  0
    1.5606    2.1085    0.3209 H   0  0  0  0  0  0  0  0  0  0  0  0
    2.4432   -1.5390   -0.5860 H   0  0  0  0  0  0  0  0  0  0  0  0
  1  2  1  0
  2  3  1  0
  3  4  1  0
  4  5  1  0
  5  6  1  0
  6  7  2  0
  7  8  1  0
  8  9  2  0
  4  2  1  0
  7  2  1  0
  1 10  1  0
  1 11  1  0
  1 12  1  0
  3 13  1  0
  3 14  1  0
  4 15  1  0
  5 16  1  0
  5 17  1  0
  6 18  1  0
  8 19  1  0
M  END
