
     RDKit          3D

 19 21  0  0  0  0  0  0  0  0999 V2000
    0.8015    1.8956   -0.2356 C   0  0  0  0  0  0  0  0  0  0  0  0
    0.4439    0.4397   -0.3787 C   0  0  0  0  0  0  0  0  0  0  0  0
   -0.8545    0.0767   -1.0210 C   0  0  0  0  0  0  0  0  0  0  0  0
   -1.4926   -1.2382   -0.8351 C   0  0  0  0  0  0  0  0  0  0  0  0
   -1.3065   -0.4191    0.3724 C   0  0  0  0  0  0  0  0  0  0  0  0
    0.0812   -0.2494    0.8834 C   0  0  0  0  0  0  0  0  0  0  0  0
    0.1751    0.3951    2.1123 O   0  0  0  0  0  0  0  0  0  0  0  0
    1.2832   -0.6359    0.1362 C   0  0  0  0  0  0  0  0  0  0  0  0
    1.3521   -1.8000   -0.6220 O   0  0  0  0  0  0  0  0  0  0  0  0
    1.4469    2.2517   -1.0610 H   0  0  0  0  0  0  0  0  0  0  0  0
    1.2386    2.0773    0.7672 H   0  0  0  0  0  0  0  0  0  0  0  0
   -0.1450    2.5088   -0.2728 H   0  0  0  0  0  0  0  0  0  0  0  0
   -1.4306    0.8866   -1.4875 H   0  0  0  0  0  0  0  0  0  0  0  0
   -2.5321   -1.3251   -1.2131 H   0  0  0  0  0  0  0  0  0  0  0  0
   -0.9385   -2.1922   -0.8671 H   0  0  0  0  0  0  0  0  0  0  0  0
   -2.1121    0.1991    0.8025 H   0  0  0  0  0  0  0  0  0  0  0  0
   -0.3926   -0.1547    2.7415 H   0  0  0  0  0  0  0  0  0  0  0  0
    2.2484   -0.3527    0.5863 H   0  0  0  0  0  0  0  0  0  0  0  0
    2.1337   -2.3634   -0.4078 H   0  0  0  0  0  0  0  0  0  0  0  0
  1  2  1  0
  2  3  1  0
  3  4  1  0
  4  5  1  0
  5  6  1  0
  6  7  1  0
  6  8  1  0
  8  9  1  0
  6  2  1  0
  8  2  1  0
  5  3  1  0
  1 10  1  0
  1 11  1  0
  1 12  1  0
  3 13  1  0
  4 14  1  0
  4 15  1  0
  5 16  1  0
  7 17  1  0
  8 18  1  0
  9 19  1  0
M  END
