
     RDKit          3D

 17 19  0  0  0  0  0  0  0  0999 V2000
   -1.2100    1.4779   -0.0927 C   0  0  0  0  0  0  0  0  0  0  0  0
   -0.5978    0.1366    0.1284 C   0  0  0  0  0  0  0  0  0  0  0  0
   -1.3322   -1.0982   -0.2264 C   0  0  0  0  0  0  0  0  0  0  0  0
   -0.0509   -0.7038   -0.9258 C   0  0  0  0  0  0  0  0  0  0  0  0
    1.2101   -0.9599   -0.1412 C   0  0  0  0  0  0  0  0  0  0  0  0
    2.0063    0.2181    0.2384 C   0  0  0  0  0  0  0  0  0  0  0  0
    0.6728    0.0510    0.8970 C   0  0  0  0  0  0  0  0  0  0  0  0
   -1.6234    1.6075   -1.1001 H   0  0  0  0  0  0  0  0  0  0  0  0
   -0.4375    2.2460    0.1544 H   0  0  0  0  0  0  0  0  0  0  0  0
   -2.0360    1.5943    0.6591 H   0  0  0  0  0  0  0  0  0  0  0  0
   -2.2873   -1.0049   -0.7688 H   0  0  0  0  0  0  0  0  0  0  0  0
   -1.2514   -1.9233    0.5159 H   0  0  0  0  0  0  0  0  0  0  0  0
   -0.0311   -0.4788   -1.9861 H   0  0  0  0  0  0  0  0  0  0  0  0
    1.3632   -1.9629    0.2862 H   0  0  0  0  0  0  0  0  0  0  0  0
    2.1401    1.0002   -0.5326 H   0  0  0  0  0  0  0  0  0  0  0  0
    2.8618    0.0683    0.9549 H   0  0  0  0  0  0  0  0  0  0  0  0
    0.6030   -0.2679    1.9392 H   0  0  0  0  0  0  0  0  0  0  0  0
  1  2  1  0
  2  3  1  0
  3  4  1  0
  4  5  1  0
  5  6  1  0
  6  7  1  0
  4  2  1  0
  7  5  1  0
  7  2  1  0
  1  8  1  0
  1  9  1  0
  1 10  1  0
  3 11  1  0
  3 12  1  0
  4 13  1  0
  5 14  1  0
  6 15  1  0
  6 16  1  0
  7 17  1  0
M  END
