
     RDKit          3D

 21 23  0  0  0  0  0  0  0  0999 V2000
   -1.8914    0.9788    0.9656 C   0  0  0  0  0  0  0  0  0  0  0  0
   -1.1843    0.2498   -0.1574 C   0  0  0  0  0  0  0  0  0  0  0  0
   -1.8885   -0.8324   -0.8796 C   0  0  0  0  0  0  0  0  0  0  0  0
   -0.8054   -1.1948    0.0375 C   0  0  0  0  0  0  0  0  0  0  0  0
    0.6219   -1.2242   -0.4422 C   0  0  0  0  0  0  0  0  0  0  0  0
    1.0190    0.2245   -0.3098 C   0  0  0  0  0  0  0  0  0  0  0  0
    2.3865    0.5742   -0.6462 C   0  0  0  0  0  0  0  0  0  0  0  0
    1.8822    0.7115    0.7668 C   0  0  0  0  0  0  0  0  0  0  0  0
   -0.0989    0.8904   -0.7331 O   0  0  0  0  0  0  0  0  0  0  0  0
   -1.1100    1.4975    1.5497 H   0  0  0  0  0  0  0  0  0  0  0  0
   -2.5106    0.3017    1.5773 H   0  0  0  0  0  0  0  0  0  0  0  0
   -2.5130    1.7772    0.5037 H   0  0  0  0  0  0  0  0  0  0  0  0
   -2.9280   -1.0444   -0.5992 H   0  0  0  0  0  0  0  0  0  0  0  0
   -1.7262   -0.8446   -1.9816 H   0  0  0  0  0  0  0  0  0  0  0  0
   -0.9896   -1.6943    1.0002 H   0  0  0  0  0  0  0  0  0  0  0  0
    0.7171   -1.4883   -1.5156 H   0  0  0  0  0  0  0  0  0  0  0  0
    1.2806   -1.8216    0.2095 H   0  0  0  0  0  0  0  0  0  0  0  0
    3.1320   -0.2617   -0.7538 H   0  0  0  0  0  0  0  0  0  0  0  0
    2.6110    1.4751   -1.2396 H   0  0  0  0  0  0  0  0  0  0  0  0
    1.7977    1.7536    1.1084 H   0  0  0  0  0  0  0  0  0  0  0  0
    2.1977   -0.0278    1.5393 H   0  0  0  0  0  0  0  0  0  0  0  0
  1  2  1  0
  2  3  1  0
  3  4  1  0
  4  5  1  0
  5  6  1  0
  6  7  1  0
  7  8  1  0
  6  9  1  0
  4  2  1  0
  8  6  1  0
  9  2  1  0
  1 10  1  0
  1 11  1  0
  1 12  1  0
  3 13  1  0
  3 14  1  0
  4 15  1  0
  5 16  1  0
  5 17  1  0
  7 18  1  0
  7 19  1  0
  8 20  1  0
  8 21  1  0
M  END
