
     RDKit          3D

 23 24  0  0  0  0  0  0  0  0999 V2000
   -2.5171   -0.5198    0.0877 C   0  0  0  0  0  0  0  0  0  0  0  0
   -1.1507   -0.1397   -0.1782 C   0  0  0  0  0  0  0  0  0  0  0  0
   -0.0770   -1.1632   -0.3647 C   0  0  0  0  0  0  0  0  0  0  0  0
    1.1062   -0.2222   -0.6809 C   0  0  0  0  0  0  0  0  0  0  0  0
    2.1831   -0.4826    0.3202 C   0  0  0  0  0  0  0  0  0  0  0  0
    3.2837    0.3374    0.0907 O   0  0  0  0  0  0  0  0  0  0  0  0
    0.4156    1.0843   -0.5600 C   0  0  0  0  0  0  0  0  0  0  0  0
   -0.4704    0.9067    0.6666 C   0  0  0  0  0  0  0  0  0  0  0  0
   -0.8692    0.8015   -1.3589 C   0  0  0  0  0  0  0  0  0  0  0  0
   -3.2068    0.1604   -0.4950 H   0  0  0  0  0  0  0  0  0  0  0  0
   -2.7336   -1.5379   -0.2892 H   0  0  0  0  0  0  0  0  0  0  0  0
   -2.7458   -0.4638    1.1676 H   0  0  0  0  0  0  0  0  0  0  0  0
    0.1332   -1.7686    0.5264 H   0  0  0  0  0  0  0  0  0  0  0  0
   -0.2858   -1.7336   -1.2682 H   0  0  0  0  0  0  0  0  0  0  0  0
    1.4826   -0.4109   -1.7103 H   0  0  0  0  0  0  0  0  0  0  0  0
    1.8149   -0.4343    1.3642 H   0  0  0  0  0  0  0  0  0  0  0  0
    2.5504   -1.5285    0.1885 H   0  0  0  0  0  0  0  0  0  0  0  0
    3.4922    0.7991    0.9556 H   0  0  0  0  0  0  0  0  0  0  0  0
    0.8994    2.0056   -0.7162 H   0  0  0  0  0  0  0  0  0  0  0  0
    0.0604    0.5728    1.5549 H   0  0  0  0  0  0  0  0  0  0  0  0
   -1.0871    1.8279    0.8002 H   0  0  0  0  0  0  0  0  0  0  0  0
   -0.6940    0.2813   -2.3113 H   0  0  0  0  0  0  0  0  0  0  0  0
   -1.5842    1.6281   -1.3560 H   0  0  0  0  0  0  0  0  0  0  0  0
  1  2  1  0
  2  3  1  0
  3  4  1  0
  4  5  1  0
  5  6  1  0
  4  7  1  0
  7  8  1  0
  7  9  1  0
  8  2  1  0
  9  2  1  0
  1 10  1  0
  1 11  1  0
  1 12  1  0
  3 13  1  0
  3 14  1  0
  4 15  1  0
  5 16  1  0
  5 17  1  0
  6 18  1  0
  7 19  1  0
  8 20  1  0
  8 21  1  0
  9 22  1  0
  9 23  1  0
M  END
