
     RDKit          3D

 17 18  0  0  0  0  0  0  0  0999 V2000
    1.9832   -0.1251    0.3826 C   0  0  0  0  0  0  0  0  0  0  0  0
    0.6089   -0.0202   -0.2038 C   0  0  0  0  0  0  0  0  0  0  0  0
    0.1642    1.3512   -0.3929 C   0  0  0  0  0  0  0  0  0  0  0  0
   -1.1298    1.5014   -0.1774 C   0  0  0  0  0  0  0  0  0  0  0  0
   -1.6904    0.1863    0.1897 C   0  0  0  0  0  0  0  0  0  0  0  0
   -0.5043   -0.5843    0.6490 C   0  0  0  0  0  0  0  0  0  0  0  0
   -0.2978   -1.8272   -0.1347 C   0  0  0  0  0  0  0  0  0  0  0  0
   -0.5565   -3.0115    0.1402 O   0  0  0  0  0  0  0  0  0  0  0  0
    0.2348   -1.0120   -1.1195 O   0  0  0  0  0  0  0  0  0  0  0  0
    2.0328    0.3098    1.4010 H   0  0  0  0  0  0  0  0  0  0  0  0
    2.6710    0.4425   -0.2861 H   0  0  0  0  0  0  0  0  0  0  0  0
    2.2908   -1.1854    0.4889 H   0  0  0  0  0  0  0  0  0  0  0  0
    0.7984    2.2075   -0.6840 H   0  0  0  0  0  0  0  0  0  0  0  0
   -1.7258    2.4226   -0.2472 H   0  0  0  0  0  0  0  0  0  0  0  0
   -2.0817   -0.2649   -0.7562 H   0  0  0  0  0  0  0  0  0  0  0  0
   -2.4876    0.2536    0.9607 H   0  0  0  0  0  0  0  0  0  0  0  0
   -0.3100   -0.6442    1.7224 H   0  0  0  0  0  0  0  0  0  0  0  0
  1  2  1  0
  2  3  1  0
  3  4  2  0
  4  5  1  0
  5  6  1  0
  6  7  1  0
  7  8  2  0
  7  9  1  0
  6  2  1  0
  9  2  1  0
  1 10  1  0
  1 11  1  0
  1 12  1  0
  3 13  1  0
  4 14  1  0
  5 15  1  0
  5 16  1  0
  6 17  1  0
M  END
