
     RDKit          3D

 18 19  0  0  0  0  0  0  0  0999 V2000
   -1.3366   -1.0685   -0.6521 C   0  0  0  0  0  0  0  0  0  0  0  0
   -0.3984   -0.2924    0.2535 C   0  0  0  0  0  0  0  0  0  0  0  0
    0.7461   -1.1222    0.7756 C   0  0  0  0  0  0  0  0  0  0  0  0
    1.3683   -0.4332   -0.4186 C   0  0  0  0  0  0  0  0  0  0  0  0
    0.4333    0.7008   -0.2842 C   0  0  0  0  0  0  0  0  0  0  0  0
    1.0691    1.8470   -0.3318 O   0  0  0  0  0  0  0  0  0  0  0  0
   -0.6902    0.9657    0.6603 C   0  0  0  0  0  0  0  0  0  0  0  0
   -1.7311    1.7205    0.0940 O   0  0  0  0  0  0  0  0  0  0  0  0
   -2.3558   -0.6392   -0.5409 H   0  0  0  0  0  0  0  0  0  0  0  0
   -1.0210   -1.0404   -1.7102 H   0  0  0  0  0  0  0  0  0  0  0  0
   -1.4008   -2.1106   -0.2729 H   0  0  0  0  0  0  0  0  0  0  0  0
    0.6257   -2.2043    0.6732 H   0  0  0  0  0  0  0  0  0  0  0  0
    1.2206   -0.7603    1.7060 H   0  0  0  0  0  0  0  0  0  0  0  0
    2.4317   -0.2996   -0.2618 H   0  0  0  0  0  0  0  0  0  0  0  0
    1.2129   -0.9958   -1.3860 H   0  0  0  0  0  0  0  0  0  0  0  0
    1.6949    1.9657    0.4449 H   0  0  0  0  0  0  0  0  0  0  0  0
   -0.4917    1.3019    1.7195 H   0  0  0  0  0  0  0  0  0  0  0  0
   -1.3770    2.4649   -0.4685 H   0  0  0  0  0  0  0  0  0  0  0  0
  1  2  1  0
  2  3  1  0
  3  4  1  0
  4  5  1  0
  5  6  1  0
  5  7  1  0
  7  8  1  0
  5  2  1  0
  7  2  1  0
  1  9  1  0
  1 10  1  0
  1 11  1  0
  3 12  1  0
  3 13  1  0
  4 14  1  0
  4 15  1  0
  6 16  1  0
  7 17  1  0
  8 18  1  0
M  END
