
     RDKit          3D

 19 20  0  0  0  0  0  0  0  0999 V2000
    2.5266    0.5071    0.6318 C   0  0  0  0  0  0  0  0  0  0  0  0
    1.3897    0.0509   -0.2336 C   0  0  0  0  0  0  0  0  0  0  0  0
    0.1274    0.8627   -0.2876 C   0  0  0  0  0  0  0  0  0  0  0  0
   -0.9546   -0.1839   -0.1750 C   0  0  0  0  0  0  0  0  0  0  0  0
   -2.4252    0.0776   -0.0731 C   0  0  0  0  0  0  0  0  0  0  0  0
   -2.7223    0.8445    1.0647 O   0  0  0  0  0  0  0  0  0  0  0  0
   -0.4223   -1.3982   -0.1780 C   0  0  0  0  0  0  0  0  0  0  0  0
    1.0389   -1.3303   -0.2892 C   0  0  0  0  0  0  0  0  0  0  0  0
    1.6359   -0.6970   -1.3749 O   0  0  0  0  0  0  0  0  0  0  0  0
    2.7147   -0.2876    1.3871 H   0  0  0  0  0  0  0  0  0  0  0  0
    2.2249    1.4371    1.1441 H   0  0  0  0  0  0  0  0  0  0  0  0
    3.4714    0.6479    0.0699 H   0  0  0  0  0  0  0  0  0  0  0  0
    0.0638    1.5336    0.5845 H   0  0  0  0  0  0  0  0  0  0  0  0
    0.0465    1.3603   -1.2527 H   0  0  0  0  0  0  0  0  0  0  0  0
   -2.9747   -0.8646   -0.0922 H   0  0  0  0  0  0  0  0  0  0  0  0
   -2.7824    0.6894   -0.9373 H   0  0  0  0  0  0  0  0  0  0  0  0
   -3.5993    1.2515    0.9185 H   0  0  0  0  0  0  0  0  0  0  0  0
   -0.9877   -2.3276   -0.1075 H   0  0  0  0  0  0  0  0  0  0  0  0
    1.6288   -2.1736    0.1114 H   0  0  0  0  0  0  0  0  0  0  0  0
  1  2  1  0
  2  3  1  0
  3  4  1  0
  4  5  1  0
  5  6  1  0
  4  7  2  0
  7  8  1  0
  8  9  1  0
  8  2  1  0
  9  2  1  0
  1 10  1  0
  1 11  1  0
  1 12  1  0
  3 13  1  0
  3 14  1  0
  5 15  1  0
  5 16  1  0
  6 17  1  0
  7 18  1  0
  8 19  1  0
M  END
