
     RDKit          3D

 19 20  0  0  0  0  0  0  0  0999 V2000
   -2.1071    0.5659   -0.2966 C   0  0  0  0  0  0  0  0  0  0  0  0
   -0.7853    0.1228    0.0364 C   0  0  0  0  0  0  0  0  0  0  0  0
   -0.1255    0.7175    1.2267 C   0  0  0  0  0  0  0  0  0  0  0  0
    1.1716    0.4580    1.1051 C   0  0  0  0  0  0  0  0  0  0  0  0
    1.3923   -0.2727   -0.1644 C   0  0  0  0  0  0  0  0  0  0  0  0
    2.6116   -0.2519   -0.6858 O   0  0  0  0  0  0  0  0  0  0  0  0
    0.7342   -1.5930   -0.0063 C   0  0  0  0  0  0  0  0  0  0  0  0
   -0.5625   -1.3548    0.1439 C   0  0  0  0  0  0  0  0  0  0  0  0
    0.3070    0.4253   -1.0143 C   0  0  0  0  0  0  0  0  0  0  0  0
   -2.7730   -0.2994   -0.5738 H   0  0  0  0  0  0  0  0  0  0  0  0
   -2.6182    1.0665    0.5596 H   0  0  0  0  0  0  0  0  0  0  0  0
   -2.2075    1.2782   -1.1520 H   0  0  0  0  0  0  0  0  0  0  0  0
   -0.5616    1.2596    2.0514 H   0  0  0  0  0  0  0  0  0  0  0  0
    1.9464    0.7276    1.8048 H   0  0  0  0  0  0  0  0  0  0  0  0
    3.1682    0.4760   -0.3183 H   0  0  0  0  0  0  0  0  0  0  0  0
    1.1691   -2.5762   -0.0054 H   0  0  0  0  0  0  0  0  0  0  0  0
   -1.3168   -2.1075    0.3140 H   0  0  0  0  0  0  0  0  0  0  0  0
    0.4907    1.4891   -1.1155 H   0  0  0  0  0  0  0  0  0  0  0  0
    0.0664   -0.1308   -1.9094 H   0  0  0  0  0  0  0  0  0  0  0  0
  1  2  1  0
  2  3  1  0
  3  4  2  0
  4  5  1  0
  5  6  1  0
  5  7  1  0
  7  8  2  0
  5  9  1  0
  8  2  1  0
  9  2  1  0
  1 10  1  0
  1 11  1  0
  1 12  1  0
  3 13  1  0
  4 14  1  0
  6 15  1  0
  7 16  1  0
  8 17  1  0
  9 18  1  0
  9 19  1  0
M  END
