
     RDKit          3D

 19 22  0  0  0  0  0  0  0  0999 V2000
    2.1024   -0.7722   -0.3365 C   0  0  0  0  0  0  0  0  0  0  0  0
    0.7953   -0.1370   -0.2057 C   0  0  0  0  0  0  0  0  0  0  0  0
    0.5103    1.2122    0.2788 C   0  0  0  0  0  0  0  0  0  0  0  0
   -0.8930    1.2334    0.7001 C   0  0  0  0  0  0  0  0  0  0  0  0
   -1.1779   -0.2147    1.0462 C   0  0  0  0  0  0  0  0  0  0  0  0
   -2.5256   -0.5162    1.0289 O   0  0  0  0  0  0  0  0  0  0  0  0
   -0.4200   -0.9531   -0.0294 C   0  0  0  0  0  0  0  0  0  0  0  0
   -0.2676   -0.0879   -1.1887 C   0  0  0  0  0  0  0  0  0  0  0  0
   -0.6723    1.2683   -0.7408 C   0  0  0  0  0  0  0  0  0  0  0  0
    2.2634   -1.3694   -1.2753 H   0  0  0  0  0  0  0  0  0  0  0  0
    2.2117   -1.5380    0.4885 H   0  0  0  0  0  0  0  0  0  0  0  0
    2.9725   -0.0891   -0.1924 H   0  0  0  0  0  0  0  0  0  0  0  0
    1.1825    2.0520    0.2608 H   0  0  0  0  0  0  0  0  0  0  0  0
   -1.3779    2.0427    1.2377 H   0  0  0  0  0  0  0  0  0  0  0  0
   -0.7279   -0.5017    2.0329 H   0  0  0  0  0  0  0  0  0  0  0  0
   -2.7260   -1.3344    0.5101 H   0  0  0  0  0  0  0  0  0  0  0  0
   -0.2979   -2.0299   -0.0049 H   0  0  0  0  0  0  0  0  0  0  0  0
   -0.2112   -0.3936   -2.2245 H   0  0  0  0  0  0  0  0  0  0  0  0
   -0.7406    2.1286   -1.3859 H   0  0  0  0  0  0  0  0  0  0  0  0
  1  2  1  0
  2  3  1  0
  3  4  1  0
  4  5  1  0
  5  6  1  0
  5  7  1  0
  7  8  1  0
  8  9  1  0
  7  2  1  0
  8  2  1  0
  9  3  1  0
  9  4  1  0
  1 10  1  0
  1 11  1  0
  1 12  1  0
  3 13  1  0
  4 14  1  0
  5 15  1  0
  6 16  1  0
  7 17  1  0
  8 18  1  0
  9 19  1  0
M  END
