
     RDKit          3D

 18 20  0  0  0  0  0  0  0  0999 V2000
   -1.8241   -0.5165   -0.3005 C   0  0  0  0  0  0  0  0  0  0  0  0
   -0.4019   -0.4112   -0.0791 C   0  0  0  0  0  0  0  0  0  0  0  0
    0.4528   -1.6170   -0.0735 C   0  0  0  0  0  0  0  0  0  0  0  0
    1.6812   -1.1057    0.1558 C   0  0  0  0  0  0  0  0  0  0  0  0
    1.4361    0.3370    0.2426 C   0  0  0  0  0  0  0  0  0  0  0  0
    0.4190    0.5918   -0.8294 C   0  0  0  0  0  0  0  0  0  0  0  0
   -0.1395    1.6313    0.0940 C   0  0  0  0  0  0  0  0  0  0  0  0
    0.1435    0.4708    1.0001 C   0  0  0  0  0  0  0  0  0  0  0  0
   -2.1745   -1.5605   -0.5251 H   0  0  0  0  0  0  0  0  0  0  0  0
   -2.2027    0.1697   -1.1127 H   0  0  0  0  0  0  0  0  0  0  0  0
   -2.3936   -0.2013    0.6224 H   0  0  0  0  0  0  0  0  0  0  0  0
    0.1480   -2.6456   -0.2194 H   0  0  0  0  0  0  0  0  0  0  0  0
    2.6349   -1.6040    0.2570 H   0  0  0  0  0  0  0  0  0  0  0  0
    2.2245    1.0247    0.4103 H   0  0  0  0  0  0  0  0  0  0  0  0
    0.5687    0.6557   -1.8159 H   0  0  0  0  0  0  0  0  0  0  0  0
   -1.1781    1.9221   -0.0482 H   0  0  0  0  0  0  0  0  0  0  0  0
    0.6003    2.4526    0.2354 H   0  0  0  0  0  0  0  0  0  0  0  0
    0.0056    0.4061    1.9862 H   0  0  0  0  0  0  0  0  0  0  0  0
  1  2  1  0
  2  3  1  0
  3  4  2  0
  4  5  1  0
  5  6  1  0
  6  7  1  0
  7  8  1  0
  6  2  1  0
  8  2  1  0
  8  5  1  0
  1  9  1  0
  1 10  1  0
  1 11  1  0
  3 12  1  0
  4 13  1  0
  5 14  1  0
  6 15  1  0
  7 16  1  0
  7 17  1  0
  8 18  1  0
M  END
