
     RDKit          3D

 21 23  0  0  0  0  0  0  0  0999 V2000
   -1.5812   -1.5028   -0.2646 C   0  0  0  0  0  0  0  0  0  0  0  0
   -0.6964   -0.3401   -0.5475 C   0  0  0  0  0  0  0  0  0  0  0  0
   -1.3133    0.9638   -0.9509 C   0  0  0  0  0  0  0  0  0  0  0  0
   -0.8886    0.8599    0.4478 C   0  0  0  0  0  0  0  0  0  0  0  0
    0.5074    1.0091    0.9132 C   0  0  0  0  0  0  0  0  0  0  0  0
    0.9304   -0.4562    1.1133 C   0  0  0  0  0  0  0  0  0  0  0  0
    0.7964   -0.4748   -0.4197 C   0  0  0  0  0  0  0  0  0  0  0  0
    1.3659    0.9081   -0.3425 C   0  0  0  0  0  0  0  0  0  0  0  0
    2.7151    0.8359    0.0645 O   0  0  0  0  0  0  0  0  0  0  0  0
   -2.4677   -1.4261   -0.9413 H   0  0  0  0  0  0  0  0  0  0  0  0
   -1.9691   -1.5289    0.7754 H   0  0  0  0  0  0  0  0  0  0  0  0
   -1.0905   -2.4566   -0.4725 H   0  0  0  0  0  0  0  0  0  0  0  0
   -0.7888    1.4992   -1.7357 H   0  0  0  0  0  0  0  0  0  0  0  0
   -2.4157    0.9050   -1.1226 H   0  0  0  0  0  0  0  0  0  0  0  0
   -1.6431    0.7257    1.2322 H   0  0  0  0  0  0  0  0  0  0  0  0
    0.7886    1.7034    1.6637 H   0  0  0  0  0  0  0  0  0  0  0  0
    0.1859   -1.0766    1.5975 H   0  0  0  0  0  0  0  0  0  0  0  0
    1.9832   -0.5596    1.4288 H   0  0  0  0  0  0  0  0  0  0  0  0
    1.3093   -1.2432   -0.9401 H   0  0  0  0  0  0  0  0  0  0  0  0
    1.1537    1.6086   -1.1357 H   0  0  0  0  0  0  0  0  0  0  0  0
    3.1185    0.0462   -0.3633 H   0  0  0  0  0  0  0  0  0  0  0  0
  1  2  1  0
  2  3  1  0
  3  4  1  0
  4  5  1  0
  5  6  1  0
  6  7  1  0
  7  8  1  0
  8  9  1  0
  4  2  1  0
  8  5  1  0
  7  2  1  0
  1 10  1  0
  1 11  1  0
  1 12  1  0
  3 13  1  0
  3 14  1  0
  4 15  1  0
  5 16  1  0
  6 17  1  0
  6 18  1  0
  7 19  1  0
  8 20  1  0
  9 21  1  0
M  END
