
     RDKit          3D

 21 22  0  0  0  0  0  0  0  0999 V2000
   -1.1717   -1.3705   -0.8184 C   0  0  0  0  0  0  0  0  0  0  0  0
   -0.6839   -0.4488    0.2435 C   0  0  0  0  0  0  0  0  0  0  0  0
    0.0238   -1.0281    1.3979 C   0  0  0  0  0  0  0  0  0  0  0  0
    0.7624   -0.1897    0.4725 C   0  0  0  0  0  0  0  0  0  0  0  0
    1.8112   -0.6354   -0.4620 C   0  0  0  0  0  0  0  0  0  0  0  0
    0.4930    1.3104    0.6117 C   0  0  0  0  0  0  0  0  0  0  0  0
    1.2902    2.1186   -0.1580 O   0  0  0  0  0  0  0  0  0  0  0  0
   -0.8816    0.9983    0.0151 C   0  0  0  0  0  0  0  0  0  0  0  0
   -1.9324    1.6192    0.6388 O   0  0  0  0  0  0  0  0  0  0  0  0
   -0.4799   -1.5572   -1.6359 H   0  0  0  0  0  0  0  0  0  0  0  0
   -1.4737   -2.3308   -0.3121 H   0  0  0  0  0  0  0  0  0  0  0  0
   -2.1445   -0.9535   -1.2028 H   0  0  0  0  0  0  0  0  0  0  0  0
   -0.1261   -0.6117    2.4348 H   0  0  0  0  0  0  0  0  0  0  0  0
    0.1677   -2.1110    1.3940 H   0  0  0  0  0  0  0  0  0  0  0  0
    1.4848   -0.5038   -1.5330 H   0  0  0  0  0  0  0  0  0  0  0  0
    2.6880    0.0661   -0.3639 H   0  0  0  0  0  0  0  0  0  0  0  0
    2.1929   -1.6313   -0.2496 H   0  0  0  0  0  0  0  0  0  0  0  0
    0.4309    1.5882    1.6967 H   0  0  0  0  0  0  0  0  0  0  0  0
    0.8824    2.4139   -1.0107 H   0  0  0  0  0  0  0  0  0  0  0  0
   -0.8137    1.2299   -1.0892 H   0  0  0  0  0  0  0  0  0  0  0  0
   -2.5199    2.0273   -0.0694 H   0  0  0  0  0  0  0  0  0  0  0  0
  1  2  1  0
  2  3  1  0
  3  4  1  0
  4  5  1  0
  4  6  1  0
  6  7  1  0
  6  8  1  0
  8  9  1  0
  4  2  1  0
  8  2  1  0
  1 10  1  0
  1 11  1  0
  1 12  1  0
  3 13  1  0
  3 14  1  0
  5 15  1  0
  5 16  1  0
  5 17  1  0
  6 18  1  0
  7 19  1  0
  8 20  1  0
  9 21  1  0
M  END
