
     RDKit          3D

 19 20  0  0  0  0  0  0  0  0999 V2000
    1.8105   -0.6831   -0.0791 C   0  0  0  0  0  0  0  0  0  0  0  0
    0.4307   -0.2047   -0.3995 C   0  0  0  0  0  0  0  0  0  0  0  0
   -0.2732   -0.9275   -1.3480 O   0  0  0  0  0  0  0  0  0  0  0  0
   -0.9679   -1.6556   -0.3759 C   0  0  0  0  0  0  0  0  0  0  0  0
   -0.6439   -0.5438    0.5950 C   0  0  0  0  0  0  0  0  0  0  0  0
   -1.6334    0.5621    0.4135 C   0  0  0  0  0  0  0  0  0  0  0  0
   -1.0628    1.5925   -0.1798 C   0  0  0  0  0  0  0  0  0  0  0  0
    0.3501    1.2791   -0.4492 C   0  0  0  0  0  0  0  0  0  0  0  0
    1.1656    1.7649    0.5903 O   0  0  0  0  0  0  0  0  0  0  0  0
    2.4911   -0.2911   -0.8641 H   0  0  0  0  0  0  0  0  0  0  0  0
    1.8763   -1.7852    0.0237 H   0  0  0  0  0  0  0  0  0  0  0  0
    2.1206   -0.1747    0.8772 H   0  0  0  0  0  0  0  0  0  0  0  0
   -0.5223   -2.6316   -0.1530 H   0  0  0  0  0  0  0  0  0  0  0  0
   -2.0510   -1.7500   -0.5959 H   0  0  0  0  0  0  0  0  0  0  0  0
   -0.3628   -0.8156    1.6007 H   0  0  0  0  0  0  0  0  0  0  0  0
   -2.6845    0.4846    0.7447 H   0  0  0  0  0  0  0  0  0  0  0  0
   -1.5191    2.5542   -0.4531 H   0  0  0  0  0  0  0  0  0  0  0  0
    0.7211    1.7150   -1.3980 H   0  0  0  0  0  0  0  0  0  0  0  0
    0.7549    1.5106    1.4504 H   0  0  0  0  0  0  0  0  0  0  0  0
  1  2  1  0
  2  3  1  0
  3  4  1  0
  4  5  1  0
  5  6  1  0
  6  7  2  0
  7  8  1  0
  8  9  1  0
  5  2  1  0
  8  2  1  0
  1 10  1  0
  1 11  1  0
  1 12  1  0
  4 13  1  0
  4 14  1  0
  5 15  1  0
  6 16  1  0
  7 17  1  0
  8 18  1  0
  9 19  1  0
M  END
