
     RDKit          3D

 19 21  0  0  0  0  0  0  0  0999 V2000
    2.4653    0.4420   -0.6770 C   0  0  0  0  0  0  0  0  0  0  0  0
    0.9859    0.3408   -0.4890 C   0  0  0  0  0  0  0  0  0  0  0  0
    0.1730   -0.1793   -1.4726 O   0  0  0  0  0  0  0  0  0  0  0  0
   -0.3895   -1.0503   -0.5453 C   0  0  0  0  0  0  0  0  0  0  0  0
   -1.7992   -0.7024   -0.1545 C   0  0  0  0  0  0  0  0  0  0  0  0
   -1.9749    0.6436    0.4228 C   0  0  0  0  0  0  0  0  0  0  0  0
   -0.8981    1.4230    0.5894 O   0  0  0  0  0  0  0  0  0  0  0  0
    0.3215    0.8776    0.7414 C   0  0  0  0  0  0  0  0  0  0  0  0
    0.4977   -0.5493    0.5608 C   0  0  0  0  0  0  0  0  0  0  0  0
    2.6697    0.2453   -1.7672 H   0  0  0  0  0  0  0  0  0  0  0  0
    2.8858    1.4297   -0.4263 H   0  0  0  0  0  0  0  0  0  0  0  0
    3.0037   -0.3555   -0.0860 H   0  0  0  0  0  0  0  0  0  0  0  0
   -0.2760   -2.1050   -0.7926 H   0  0  0  0  0  0  0  0  0  0  0  0
   -2.4326   -0.8955   -1.0694 H   0  0  0  0  0  0  0  0  0  0  0  0
   -2.1298   -1.5002    0.5686 H   0  0  0  0  0  0  0  0  0  0  0  0
   -2.5109    0.5536    1.4142 H   0  0  0  0  0  0  0  0  0  0  0  0
   -2.7218    1.1979   -0.2215 H   0  0  0  0  0  0  0  0  0  0  0  0
    1.0181    1.3988    1.4430 H   0  0  0  0  0  0  0  0  0  0  0  0
    1.1121   -1.2148    1.1555 H   0  0  0  0  0  0  0  0  0  0  0  0
  1  2  1  0
  2  3  1  0
  3  4  1  0
  4  5  1  0
  5  6  1  0
  6  7  1  0
  7  8  1  0
  8  9  1  0
  8  2  1  0
  9  2  1  0
  9  4  1  0
  1 10  1  0
  1 11  1  0
  1 12  1  0
  4 13  1  0
  5 14  1  0
  5 15  1  0
  6 16  1  0
  6 17  1  0
  8 18  1  0
  9 19  1  0
M  END
