
     RDKit          3D

 21 22  0  0  0  0  0  0  0  0999 V2000
   -1.5748   -1.5135   -0.4126 C   0  0  0  0  0  0  0  0  0  0  0  0
   -0.4064   -0.6588   -0.0290 C   0  0  0  0  0  0  0  0  0  0  0  0
   -0.6975    0.2834    1.0968 C   0  0  0  0  0  0  0  0  0  0  0  0
   -0.1598    1.6420    0.7006 C   0  0  0  0  0  0  0  0  0  0  0  0
    0.8290    1.2594   -0.4118 C   0  0  0  0  0  0  0  0  0  0  0  0
   -0.0509    0.2780   -1.1936 C   0  0  0  0  0  0  0  0  0  0  0  0
    1.8729    0.6230    0.1674 O   0  0  0  0  0  0  0  0  0  0  0  0
    1.8975   -0.7155    0.2067 C   0  0  0  0  0  0  0  0  0  0  0  0
    0.7298   -1.4040    0.1940 O   0  0  0  0  0  0  0  0  0  0  0  0
   -1.8405   -2.1382    0.4709 H   0  0  0  0  0  0  0  0  0  0  0  0
   -2.4154   -0.8427   -0.6964 H   0  0  0  0  0  0  0  0  0  0  0  0
   -1.2824   -2.1467   -1.2624 H   0  0  0  0  0  0  0  0  0  0  0  0
   -1.7849    0.3860    1.3059 H   0  0  0  0  0  0  0  0  0  0  0  0
   -0.2417   -0.0484    2.0613 H   0  0  0  0  0  0  0  0  0  0  0  0
   -0.9478    2.3046    0.2922 H   0  0  0  0  0  0  0  0  0  0  0  0
    0.3858    2.1358    1.5189 H   0  0  0  0  0  0  0  0  0  0  0  0
    1.0889    2.1407   -1.0229 H   0  0  0  0  0  0  0  0  0  0  0  0
    0.5421   -0.2378   -1.9426 H   0  0  0  0  0  0  0  0  0  0  0  0
   -0.9626    0.7708   -1.5578 H   0  0  0  0  0  0  0  0  0  0  0  0
    2.4558   -1.0272    1.1410 H   0  0  0  0  0  0  0  0  0  0  0  0
    2.5630   -1.0907   -0.6265 H   0  0  0  0  0  0  0  0  0  0  0  0
  1  2  1  0
  2  3  1  0
  3  4  1  0
  4  5  1  0
  5  6  1  0
  5  7  1  0
  7  8  1  0
  8  9  1  0
  6  2  1  0
  9  2  1  0
  1 10  1  0
  1 11  1  0
  1 12  1  0
  3 13  1  0
  3 14  1  0
  4 15  1  0
  4 16  1  0
  5 17  1  0
  6 18  1  0
  6 19  1  0
  8 20  1  0
  8 21  1  0
M  END
