
     RDKit          3D

 21 23  0  0  0  0  0  0  0  0999 V2000
   -2.1263   -0.8434   -0.4917 C   0  0  0  0  0  0  0  0  0  0  0  0
   -0.8481   -0.2090   -0.0064 C   0  0  0  0  0  0  0  0  0  0  0  0
   -1.0291    1.2917    0.2859 C   0  0  0  0  0  0  0  0  0  0  0  0
    0.3684    1.9474   -0.0633 C   0  0  0  0  0  0  0  0  0  0  0  0
    1.2518    0.7802    0.1991 C   0  0  0  0  0  0  0  0  0  0  0  0
    2.1562   -0.1104    0.4853 C   0  0  0  0  0  0  0  0  0  0  0  0
    1.6028   -1.4854    0.2258 C   0  0  0  0  0  0  0  0  0  0  0  0
    0.1335   -1.1182    0.5297 C   0  0  0  0  0  0  0  0  0  0  0  0
    0.3248   -0.1687   -0.6666 C   0  0  0  0  0  0  0  0  0  0  0  0
   -2.8010   -0.1394   -1.0043 H   0  0  0  0  0  0  0  0  0  0  0  0
   -1.9542   -1.7101   -1.1640 H   0  0  0  0  0  0  0  0  0  0  0  0
   -2.6752   -1.1822    0.4353 H   0  0  0  0  0  0  0  0  0  0  0  0
   -1.7103    1.6701   -0.4977 H   0  0  0  0  0  0  0  0  0  0  0  0
   -1.2986    1.5054    1.3112 H   0  0  0  0  0  0  0  0  0  0  0  0
    0.3977    2.2265   -1.1212 H   0  0  0  0  0  0  0  0  0  0  0  0
    0.5571    2.8053    0.5572 H   0  0  0  0  0  0  0  0  0  0  0  0
    3.1452    0.0885    0.8515 H   0  0  0  0  0  0  0  0  0  0  0  0
    1.9109   -2.2300    0.9365 H   0  0  0  0  0  0  0  0  0  0  0  0
    1.7637   -1.8555   -0.7761 H   0  0  0  0  0  0  0  0  0  0  0  0
    0.1951   -0.8045    1.5897 H   0  0  0  0  0  0  0  0  0  0  0  0
    0.6355   -0.4582   -1.6157 H   0  0  0  0  0  0  0  0  0  0  0  0
  1  2  1  0
  2  3  1  0
  3  4  1  0
  4  5  1  0
  5  6  2  0
  6  7  1  0
  7  8  1  0
  8  9  1  0
  8  2  1  0
  9  2  1  0
  9  5  1  0
  1 10  1  0
  1 11  1  0
  1 12  1  0
  3 13  1  0
  3 14  1  0
  4 15  1  0
  4 16  1  0
  6 17  1  0
  7 18  1  0
  7 19  1  0
  8 20  1  0
  9 21  1  0
M  END
