
     RDKit          3D

 19 20  0  0  0  0  0  0  0  0999 V2000
   -2.1750    0.5471    0.2916 C   0  0  0  0  0  0  0  0  0  0  0  0
   -0.7900    0.0695   -0.1419 C   0  0  0  0  0  0  0  0  0  0  0  0
   -0.6147   -1.3365   -0.5533 C   0  0  0  0  0  0  0  0  0  0  0  0
   -0.1677   -0.9168    0.7986 C   0  0  0  0  0  0  0  0  0  0  0  0
    1.2625   -0.6733    1.0553 C   0  0  0  0  0  0  0  0  0  0  0  0
    2.0455    0.0892    0.3068 C   0  0  0  0  0  0  0  0  0  0  0  0
    1.5160    0.7896   -0.9051 C   0  0  0  0  0  0  0  0  0  0  0  0
    0.1025    1.1372   -0.6028 C   0  0  0  0  0  0  0  0  0  0  0  0
   -0.2521    2.2850   -0.7496 O   0  0  0  0  0  0  0  0  0  0  0  0
   -2.0540    0.9213    1.3218 H   0  0  0  0  0  0  0  0  0  0  0  0
   -2.4317    1.3972   -0.3807 H   0  0  0  0  0  0  0  0  0  0  0  0
   -2.8868   -0.2920    0.2233 H   0  0  0  0  0  0  0  0  0  0  0  0
    0.1913   -1.6022   -1.2572 H   0  0  0  0  0  0  0  0  0  0  0  0
   -1.5046   -1.9942   -0.6374 H   0  0  0  0  0  0  0  0  0  0  0  0
   -0.7448   -1.2370    1.7086 H   0  0  0  0  0  0  0  0  0  0  0  0
    1.7597   -1.1361    1.9190 H   0  0  0  0  0  0  0  0  0  0  0  0
    3.1013    0.2420    0.5343 H   0  0  0  0  0  0  0  0  0  0  0  0
    2.1283    1.6463   -1.1953 H   0  0  0  0  0  0  0  0  0  0  0  0
    1.5142    0.0636   -1.7359 H   0  0  0  0  0  0  0  0  0  0  0  0
  1  2  1  0
  2  3  1  0
  3  4  1  0
  4  5  1  0
  5  6  2  0
  6  7  1  0
  7  8  1  0
  8  9  2  0
  4  2  1  0
  8  2  1  0
  1 10  1  0
  1 11  1  0
  1 12  1  0
  3 13  1  0
  3 14  1  0
  4 15  1  0
  5 16  1  0
  6 17  1  0
  7 18  1  0
  7 19  1  0
M  END
