
     RDKit          3D

 19 21  0  0  0  0  0  0  0  0999 V2000
    1.9866    0.0904   -0.4596 C   0  0  0  0  0  0  0  0  0  0  0  0
    0.5431   -0.0648   -0.2225 C   0  0  0  0  0  0  0  0  0  0  0  0
   -0.0728    0.2837    1.1180 C   0  0  0  0  0  0  0  0  0  0  0  0
   -0.7903    1.5780    0.7005 C   0  0  0  0  0  0  0  0  0  0  0  0
   -1.4343    1.1249   -0.4669 O   0  0  0  0  0  0  0  0  0  0  0  0
   -0.5048    0.3918   -1.1680 C   0  0  0  0  0  0  0  0  0  0  0  0
   -0.3186   -1.1019   -0.7563 C   0  0  0  0  0  0  0  0  0  0  0  0
   -1.1901   -1.5177    0.3957 C   0  0  0  0  0  0  0  0  0  0  0  0
   -0.9395   -0.7072    1.4588 O   0  0  0  0  0  0  0  0  0  0  0  0
    2.5173   -0.8092   -0.0392 H   0  0  0  0  0  0  0  0  0  0  0  0
    2.3579    0.9440    0.1792 H   0  0  0  0  0  0  0  0  0  0  0  0
    2.2802    0.3281   -1.4801 H   0  0  0  0  0  0  0  0  0  0  0  0
    0.7205    0.4763    1.8469 H   0  0  0  0  0  0  0  0  0  0  0  0
   -1.4809    1.8838    1.4738 H   0  0  0  0  0  0  0  0  0  0  0  0
   -0.0110    2.3280    0.4553 H   0  0  0  0  0  0  0  0  0  0  0  0
   -0.3057    0.5703   -2.2268 H   0  0  0  0  0  0  0  0  0  0  0  0
   -0.0578   -1.8068   -1.5389 H   0  0  0  0  0  0  0  0  0  0  0  0
   -2.2694   -1.4145    0.1132 H   0  0  0  0  0  0  0  0  0  0  0  0
   -1.0305   -2.5771    0.6171 H   0  0  0  0  0  0  0  0  0  0  0  0
  1  2  1  0
  2  3  1  0
  3  4  1  0
  4  5  1  0
  5  6  1  0
  6  7  1  0
  7  8  1  0
  8  9  1  0
  6  2  1  0
  7  2  1  0
  9  3  1  0
  1 10  1  0
  1 11  1  0
  1 12  1  0
  3 13  1  0
  4 14  1  0
  4 15  1  0
  6 16  1  0
  7 17  1  0
  8 18  1  0
  8 19  1  0
M  END
