
     RDKit          3D

 21 22  0  0  0  0  0  0  0  0999 V2000
   -1.9812    1.0128   -0.6627 C   0  0  0  0  0  0  0  0  0  0  0  0
   -0.8476    0.2464   -0.0351 C   0  0  0  0  0  0  0  0  0  0  0  0
   -0.1680    0.8374    1.0088 O   0  0  0  0  0  0  0  0  0  0  0  0
    1.0428    1.3963    0.6489 C   0  0  0  0  0  0  0  0  0  0  0  0
    2.0511    0.3590    0.2289 C   0  0  0  0  0  0  0  0  0  0  0  0
    1.3652   -0.8824   -0.2331 C   0  0  0  0  0  0  0  0  0  0  0  0
   -0.0002   -0.6690   -0.7944 C   0  0  0  0  0  0  0  0  0  0  0  0
   -1.1345   -1.2571    0.0563 C   0  0  0  0  0  0  0  0  0  0  0  0
   -0.7872   -1.8134    1.2823 O   0  0  0  0  0  0  0  0  0  0  0  0
   -2.8819    0.8246   -0.0087 H   0  0  0  0  0  0  0  0  0  0  0  0
   -1.8307    2.0969   -0.6850 H   0  0  0  0  0  0  0  0  0  0  0  0
   -2.2584    0.6103   -1.6534 H   0  0  0  0  0  0  0  0  0  0  0  0
    0.9297    2.1771   -0.1461 H   0  0  0  0  0  0  0  0  0  0  0  0
    1.4465    1.9098    1.5488 H   0  0  0  0  0  0  0  0  0  0  0  0
    2.7500    0.7439   -0.5592 H   0  0  0  0  0  0  0  0  0  0  0  0
    2.7285    0.0999    1.0924 H   0  0  0  0  0  0  0  0  0  0  0  0
    1.9943   -1.3757   -1.0248 H   0  0  0  0  0  0  0  0  0  0  0  0
    1.3441   -1.6168    0.6218 H   0  0  0  0  0  0  0  0  0  0  0  0
   -0.1502   -0.8285   -1.8971 H   0  0  0  0  0  0  0  0  0  0  0  0
   -2.0053   -1.6677   -0.4488 H   0  0  0  0  0  0  0  0  0  0  0  0
   -1.6072   -2.2037    1.6600 H   0  0  0  0  0  0  0  0  0  0  0  0
  1  2  1  0
  2  3  1  0
  3  4  1  0
  4  5  1  0
  5  6  1  0
  6  7  1  0
  7  8  1  0
  8  9  1  0
  7  2  1  0
  8  2  1  0
  1 10  1  0
  1 11  1  0
  1 12  1  0
  4 13  1  0
  4 14  1  0
  5 15  1  0
  5 16  1  0
  6 17  1  0
  6 18  1  0
  7 19  1  0
  8 20  1  0
  9 21  1  0
M  END
