
     RDKit          3D

 17 18  0  0  0  0  0  0  0  0999 V2000
    2.0942   -0.7053   -0.1593 C   0  0  0  0  0  0  0  0  0  0  0  0
    0.6937   -0.3224    0.0520 C   0  0  0  0  0  0  0  0  0  0  0  0
   -0.0907   -1.2575    0.7073 O   0  0  0  0  0  0  0  0  0  0  0  0
   -1.4274   -0.9759    0.3504 C   0  0  0  0  0  0  0  0  0  0  0  0
   -1.2545    0.1090   -0.6571 C   0  0  0  0  0  0  0  0  0  0  0  0
   -0.8757    1.4314    0.0184 C   0  0  0  0  0  0  0  0  0  0  0  0
    0.4657    1.0277    0.5877 C   0  0  0  0  0  0  0  0  0  0  0  0
    1.1243    1.7299    1.3116 O   0  0  0  0  0  0  0  0  0  0  0  0
    0.0125   -0.2407   -1.1885 O   0  0  0  0  0  0  0  0  0  0  0  0
    2.1724   -1.7798   -0.3498 H   0  0  0  0  0  0  0  0  0  0  0  0
    2.7709   -0.4534    0.6619 H   0  0  0  0  0  0  0  0  0  0  0  0
    2.4881   -0.1556   -1.0625 H   0  0  0  0  0  0  0  0  0  0  0  0
   -1.9944   -0.6521    1.2475 H   0  0  0  0  0  0  0  0  0  0  0  0
   -1.9017   -1.8454   -0.1380 H   0  0  0  0  0  0  0  0  0  0  0  0
   -2.0210    0.2081   -1.4039 H   0  0  0  0  0  0  0  0  0  0  0  0
   -0.6737    2.1583   -0.7654 H   0  0  0  0  0  0  0  0  0  0  0  0
   -1.5827    1.7237    0.7877 H   0  0  0  0  0  0  0  0  0  0  0  0
  1  2  1  0
  2  3  1  0
  3  4  1  0
  4  5  1  0
  5  6  1  0
  6  7  1  0
  7  8  2  0
  5  9  1  0
  7  2  1  0
  9  2  1  0
  1 10  1  0
  1 11  1  0
  1 12  1  0
  4 13  1  0
  4 14  1  0
  5 15  1  0
  6 16  1  0
  6 17  1  0
M  END
