
     RDKit          3D

 21 23  0  0  0  0  0  0  0  0999 V2000
   -1.2815   -1.6932   -0.1649 C   0  0  0  0  0  0  0  0  0  0  0  0
   -1.0137   -0.3290    0.2962 C   0  0  0  0  0  0  0  0  0  0  0  0
   -2.2412    0.6310    0.3147 C   0  0  0  0  0  0  0  0  0  0  0  0
   -0.9822    0.8835   -0.4749 C   0  0  0  0  0  0  0  0  0  0  0  0
    0.1553    1.4191    0.3189 C   0  0  0  0  0  0  0  0  0  0  0  0
    1.3790    0.6625    0.5868 C   0  0  0  0  0  0  0  0  0  0  0  0
    2.1374   -0.0655   -0.5000 C   0  0  0  0  0  0  0  0  0  0  0  0
    3.2565   -0.6873    0.0842 O   0  0  0  0  0  0  0  0  0  0  0  0
    0.1425    0.0735    1.1216 C   0  0  0  0  0  0  0  0  0  0  0  0
   -1.3867   -2.3639    0.7354 H   0  0  0  0  0  0  0  0  0  0  0  0
   -2.2603   -1.7388   -0.6737 H   0  0  0  0  0  0  0  0  0  0  0  0
   -0.5439   -2.1409   -0.8517 H   0  0  0  0  0  0  0  0  0  0  0  0
   -3.1442    0.2489   -0.1892 H   0  0  0  0  0  0  0  0  0  0  0  0
   -2.3778    1.0503    1.3145 H   0  0  0  0  0  0  0  0  0  0  0  0
   -1.0264    0.9777   -1.5657 H   0  0  0  0  0  0  0  0  0  0  0  0
   -0.0620    2.3315    0.9360 H   0  0  0  0  0  0  0  0  0  0  0  0
    2.0633    1.1058    1.3546 H   0  0  0  0  0  0  0  0  0  0  0  0
    1.4797   -0.8524   -0.9146 H   0  0  0  0  0  0  0  0  0  0  0  0
    2.4276    0.6651   -1.2766 H   0  0  0  0  0  0  0  0  0  0  0  0
    3.3654   -0.3769    1.0221 H   0  0  0  0  0  0  0  0  0  0  0  0
   -0.0870    0.1990    2.2167 H   0  0  0  0  0  0  0  0  0  0  0  0
  1  2  1  0
  2  3  1  0
  3  4  1  0
  4  5  1  0
  5  6  1  0
  6  7  1  0
  7  8  1  0
  6  9  1  0
  4  2  1  0
  9  5  1  0
  9  2  1  0
  1 10  1  0
  1 11  1  0
  1 12  1  0
  3 13  1  0
  3 14  1  0
  4 15  1  0
  5 16  1  0
  6 17  1  0
  7 18  1  0
  7 19  1  0
  8 20  1  0
  9 21  1  0
M  END
