
     RDKit          3D

 21 22  0  0  0  0  0  0  0  0999 V2000
    1.0862   -1.5226   -0.9594 C   0  0  0  0  0  0  0  0  0  0  0  0
    0.2529   -0.3659   -0.5107 C   0  0  0  0  0  0  0  0  0  0  0  0
   -0.6498    0.0036   -1.4903 O   0  0  0  0  0  0  0  0  0  0  0  0
   -1.6610    0.7221   -0.8933 C   0  0  0  0  0  0  0  0  0  0  0  0
   -1.7643    0.2186    0.5329 C   0  0  0  0  0  0  0  0  0  0  0  0
   -0.5158   -0.5720    0.7661 C   0  0  0  0  0  0  0  0  0  0  0  0
    0.5881    0.1623    1.4934 C   0  0  0  0  0  0  0  0  0  0  0  0
    0.9794    0.7705    0.1477 C   0  0  0  0  0  0  0  0  0  0  0  0
    2.3312    0.8341   -0.0944 O   0  0  0  0  0  0  0  0  0  0  0  0
    1.9892   -1.6998   -0.3688 H   0  0  0  0  0  0  0  0  0  0  0  0
    1.3458   -1.3381   -2.0383 H   0  0  0  0  0  0  0  0  0  0  0  0
    0.4055   -2.4221   -0.9876 H   0  0  0  0  0  0  0  0  0  0  0  0
   -2.5858    0.5478   -1.4753 H   0  0  0  0  0  0  0  0  0  0  0  0
   -1.3581    1.7951   -0.9095 H   0  0  0  0  0  0  0  0  0  0  0  0
   -1.9347    1.0279    1.2483 H   0  0  0  0  0  0  0  0  0  0  0  0
   -2.6267   -0.4914    0.5467 H   0  0  0  0  0  0  0  0  0  0  0  0
   -0.6250   -1.5991    1.1223 H   0  0  0  0  0  0  0  0  0  0  0  0
    1.3817   -0.5007    1.8508 H   0  0  0  0  0  0  0  0  0  0  0  0
    0.2754    0.8910    2.2443 H   0  0  0  0  0  0  0  0  0  0  0  0
    0.4847    1.7561    0.0595 H   0  0  0  0  0  0  0  0  0  0  0  0
    2.6012    1.7825   -0.2847 H   0  0  0  0  0  0  0  0  0  0  0  0
  1  2  1  0
  2  3  1  0
  3  4  1  0
  4  5  1  0
  5  6  1  0
  6  7  1  0
  7  8  1  0
  8  9  1  0
  6  2  1  0
  8  2  1  0
  1 10  1  0
  1 11  1  0
  1 12  1  0
  4 13  1  0
  4 14  1  0
  5 15  1  0
  5 16  1  0
  6 17  1  0
  7 18  1  0
  7 19  1  0
  8 20  1  0
  9 21  1  0
M  END
