
     RDKit          3D

 15 16  0  0  0  0  0  0  0  0999 V2000
    1.7761    0.3619    0.4964 C   0  0  0  0  0  0  0  0  0  0  0  0
    0.3854    0.1138    0.2213 C   0  0  0  0  0  0  0  0  0  0  0  0
   -0.0244   -1.0775   -0.6186 C   0  0  0  0  0  0  0  0  0  0  0  0
   -1.2761   -0.8410    0.1865 C   0  0  0  0  0  0  0  0  0  0  0  0
   -0.4239   -0.4593    1.2332 O   0  0  0  0  0  0  0  0  0  0  0  0
   -1.7744    0.5158   -0.2569 C   0  0  0  0  0  0  0  0  0  0  0  0
   -2.9372    0.8844   -0.5355 O   0  0  0  0  0  0  0  0  0  0  0  0
   -0.4943    1.2198   -0.2500 C   0  0  0  0  0  0  0  0  0  0  0  0
   -0.1600    2.3854   -0.5363 O   0  0  0  0  0  0  0  0  0  0  0  0
    1.9429    0.6538    1.5728 H   0  0  0  0  0  0  0  0  0  0  0  0
    2.4212   -0.5030    0.2354 H   0  0  0  0  0  0  0  0  0  0  0  0
    2.1594    1.2217   -0.0937 H   0  0  0  0  0  0  0  0  0  0  0  0
    0.4909   -1.9763   -0.2918 H   0  0  0  0  0  0  0  0  0  0  0  0
   -0.1062   -0.8893   -1.6983 H   0  0  0  0  0  0  0  0  0  0  0  0
   -1.9793   -1.6101    0.3356 H   0  0  0  0  0  0  0  0  0  0  0  0
  1  2  1  0
  2  3  1  0
  3  4  1  0
  4  5  1  0
  4  6  1  0
  6  7  2  0
  6  8  1  0
  8  9  2  0
  5  2  1  0
  8  2  1  0
  1 10  1  0
  1 11  1  0
  1 12  1  0
  3 13  1  0
  3 14  1  0
  4 15  1  0
M  END
