
     RDKit          3D

 20 22  0  0  0  0  0  0  0  0999 V2000
    2.0186    0.3720   -0.4853 C   0  0  0  0  0  0  0  0  0  0  0  0
    0.6352    0.1148    0.0016 C   0  0  0  0  0  0  0  0  0  0  0  0
   -0.1965    1.3184    0.3508 C   0  0  0  0  0  0  0  0  0  0  0  0
   -1.6282    0.9189    0.0974 C   0  0  0  0  0  0  0  0  0  0  0  0
   -1.5929   -0.5205   -0.3653 C   0  0  0  0  0  0  0  0  0  0  0  0
   -0.6893   -1.4926    0.2702 C   0  0  0  0  0  0  0  0  0  0  0  0
    0.4875   -0.9695    1.0516 C   0  0  0  0  0  0  0  0  0  0  0  0
   -0.2495   -0.6844   -0.8901 C   0  0  0  0  0  0  0  0  0  0  0  0
    1.9821    0.3747   -1.6082 H   0  0  0  0  0  0  0  0  0  0  0  0
    2.4393    1.3492   -0.1783 H   0  0  0  0  0  0  0  0  0  0  0  0
    2.6849   -0.4322   -0.1098 H   0  0  0  0  0  0  0  0  0  0  0  0
   -0.0922    1.4800    1.4425 H   0  0  0  0  0  0  0  0  0  0  0  0
    0.1067    2.2330   -0.1883 H   0  0  0  0  0  0  0  0  0  0  0  0
   -2.3031    1.1040    0.9296 H   0  0  0  0  0  0  0  0  0  0  0  0
   -1.9934    1.5130   -0.7872 H   0  0  0  0  0  0  0  0  0  0  0  0
   -2.4664   -0.8319   -0.9272 H   0  0  0  0  0  0  0  0  0  0  0  0
   -0.8426   -2.5517    0.0999 H   0  0  0  0  0  0  0  0  0  0  0  0
    1.3776   -1.6290    1.0822 H   0  0  0  0  0  0  0  0  0  0  0  0
    0.2772   -0.5866    2.0575 H   0  0  0  0  0  0  0  0  0  0  0  0
    0.0450   -1.0795   -1.8436 H   0  0  0  0  0  0  0  0  0  0  0  0
  1  2  1  0
  2  3  1  0
  3  4  1  0
  4  5  1  0
  5  6  1  0
  6  7  1  0
  6  8  1  0
  7  2  1  0
  8  2  1  0
  8  5  1  0
  1  9  1  0
  1 10  1  0
  1 11  1  0
  3 12  1  0
  3 13  1  0
  4 14  1  0
  4 15  1  0
  5 16  1  0
  6 17  1  0
  7 18  1  0
  7 19  1  0
  8 20  1  0
M  END
