
     RDKit          3D

 21 22  0  0  0  0  0  0  0  0999 V2000
    2.2207   -0.1698    0.2205 C   0  0  0  0  0  0  0  0  0  0  0  0
    0.7260   -0.2352    0.1770 C   0  0  0  0  0  0  0  0  0  0  0  0
    0.1117   -1.5218   -0.2551 C   0  0  0  0  0  0  0  0  0  0  0  0
   -0.8873   -1.1346    0.7820 C   0  0  0  0  0  0  0  0  0  0  0  0
   -1.8948   -0.1228    0.3209 C   0  0  0  0  0  0  0  0  0  0  0  0
   -1.2134    1.2255    0.0884 C   0  0  0  0  0  0  0  0  0  0  0  0
    0.1075    0.8778   -0.6132 C   0  0  0  0  0  0  0  0  0  0  0  0
    0.8798    1.9927   -0.7446 O   0  0  0  0  0  0  0  0  0  0  0  0
    0.1375   -0.4118    1.4297 O   0  0  0  0  0  0  0  0  0  0  0  0
    2.6098   -0.2706   -0.8039 H   0  0  0  0  0  0  0  0  0  0  0  0
    2.4868    0.8289    0.6650 H   0  0  0  0  0  0  0  0  0  0  0  0
    2.5890   -0.9698    0.8961 H   0  0  0  0  0  0  0  0  0  0  0  0
    0.6502   -2.4332    0.0222 H   0  0  0  0  0  0  0  0  0  0  0  0
   -0.3290   -1.5188   -1.2860 H   0  0  0  0  0  0  0  0  0  0  0  0
   -1.2712   -1.9954    1.3380 H   0  0  0  0  0  0  0  0  0  0  0  0
   -2.4544   -0.4006   -0.5690 H   0  0  0  0  0  0  0  0  0  0  0  0
   -2.5999    0.0424    1.1709 H   0  0  0  0  0  0  0  0  0  0  0  0
   -0.8919    1.6871    1.0516 H   0  0  0  0  0  0  0  0  0  0  0  0
   -1.8026    1.8917   -0.5465 H   0  0  0  0  0  0  0  0  0  0  0  0
   -0.1815    0.4545   -1.6199 H   0  0  0  0  0  0  0  0  0  0  0  0
    1.0071    2.1837   -1.7240 H   0  0  0  0  0  0  0  0  0  0  0  0
  1  2  1  0
  2  3  1  0
  3  4  1  0
  4  5  1  0
  5  6  1  0
  6  7  1  0
  7  8  1  0
  4  9  1  0
  7  2  1  0
  9  2  1  0
  1 10  1  0
  1 11  1  0
  1 12  1  0
  3 13  1  0
  3 14  1  0
  4 15  1  0
  5 16  1  0
  5 17  1  0
  6 18  1  0
  6 19  1  0
  7 20  1  0
  8 21  1  0
M  END
