
     RDKit          3D

 21 22  0  0  0  0  0  0  0  0999 V2000
   -2.0791   -0.4840   -0.6140 C   0  0  0  0  0  0  0  0  0  0  0  0
   -0.6584   -0.3486   -0.1961 C   0  0  0  0  0  0  0  0  0  0  0  0
    0.2833    0.2414   -1.2440 C   0  0  0  0  0  0  0  0  0  0  0  0
    0.9752    0.9245   -0.0670 C   0  0  0  0  0  0  0  0  0  0  0  0
    1.8375   -0.0968    0.6009 C   0  0  0  0  0  0  0  0  0  0  0  0
    1.1761   -1.4142    0.7253 C   0  0  0  0  0  0  0  0  0  0  0  0
   -0.1476   -1.4628    0.4103 O   0  0  0  0  0  0  0  0  0  0  0  0
   -0.3947    0.9305    0.6106 C   0  0  0  0  0  0  0  0  0  0  0  0
   -1.1765    1.9532    0.0960 O   0  0  0  0  0  0  0  0  0  0  0  0
   -2.2682   -1.5456   -0.8664 H   0  0  0  0  0  0  0  0  0  0  0  0
   -2.7167   -0.2335    0.2767 H   0  0  0  0  0  0  0  0  0  0  0  0
   -2.2986    0.2048   -1.4586 H   0  0  0  0  0  0  0  0  0  0  0  0
   -0.2860    0.9869   -1.8440 H   0  0  0  0  0  0  0  0  0  0  0  0
    0.8884   -0.4794   -1.7926 H   0  0  0  0  0  0  0  0  0  0  0  0
    1.4141    1.8903   -0.2641 H   0  0  0  0  0  0  0  0  0  0  0  0
    2.1505    0.3365    1.5904 H   0  0  0  0  0  0  0  0  0  0  0  0
    2.7951   -0.1631    0.0165 H   0  0  0  0  0  0  0  0  0  0  0  0
    1.7065   -2.2099    0.1315 H   0  0  0  0  0  0  0  0  0  0  0  0
    1.2810   -1.7643    1.7930 H   0  0  0  0  0  0  0  0  0  0  0  0
   -0.3792    0.8020    1.6892 H   0  0  0  0  0  0  0  0  0  0  0  0
   -2.1027    1.9321    0.4065 H   0  0  0  0  0  0  0  0  0  0  0  0
  1  2  1  0
  2  3  1  0
  3  4  1  0
  4  5  1  0
  5  6  1  0
  6  7  1  0
  4  8  1  0
  8  9  1  0
  7  2  1  0
  8  2  1  0
  1 10  1  0
  1 11  1  0
  1 12  1  0
  3 13  1  0
  3 14  1  0
  4 15  1  0
  5 16  1  0
  5 17  1  0
  6 18  1  0
  6 19  1  0
  8 20  1  0
  9 21  1  0
M  END
