
     RDKit          3D

 13 15  0  0  0  0  0  0  0  0999 V2000
   -1.7087   -0.1141    0.1101 C   0  0  0  0  0  0  0  0  0  0  0  0
   -0.3248   -0.0237   -0.4415 C   0  0  0  0  0  0  0  0  0  0  0  0
    0.1168   -0.9082   -1.4029 O   0  0  0  0  0  0  0  0  0  0  0  0
    0.7269   -1.0027   -0.1653 C   0  0  0  0  0  0  0  0  0  0  0  0
    1.6321    0.1189    0.3090 C   0  0  0  0  0  0  0  0  0  0  0  0
    1.1517    1.0404    1.2210 O   0  0  0  0  0  0  0  0  0  0  0  0
    0.5984    1.0911   -0.0413 C   0  0  0  0  0  0  0  0  0  0  0  0
   -1.7670   -0.3749    1.1748 H   0  0  0  0  0  0  0  0  0  0  0  0
   -2.2045    0.8734   -0.0579 H   0  0  0  0  0  0  0  0  0  0  0  0
   -2.2400   -0.9235   -0.4521 H   0  0  0  0  0  0  0  0  0  0  0  0
    0.5941   -1.8974    0.4630 H   0  0  0  0  0  0  0  0  0  0  0  0
    2.6708    0.1559   -0.0407 H   0  0  0  0  0  0  0  0  0  0  0  0
    0.7541    1.9649   -0.6761 H   0  0  0  0  0  0  0  0  0  0  0  0
  1  2  1  0
  2  3  1  0
  3  4  1  0
  4  5  1  0
  5  6  1  0
  6  7  1  0
  4  2  1  0
  7  5  1  0
  7  2  1  0
  1  8  1  0
  1  9  1  0
  1 10  1  0
  4 11  1  0
  5 12  1  0
  7 13  1  0
M  END
