
     RDKit          3D

 21 23  0  0  0  0  0  0  0  0999 V2000
   -0.8993    2.0411    0.0731 C   0  0  0  0  0  0  0  0  0  0  0  0
   -0.3162    0.7120   -0.1169 C   0  0  0  0  0  0  0  0  0  0  0  0
    0.5555    0.0137    0.8500 C   0  0  0  0  0  0  0  0  0  0  0  0
   -0.2963   -1.2045    1.2140 C   0  0  0  0  0  0  0  0  0  0  0  0
   -1.0403   -1.5280   -0.0671 C   0  0  0  0  0  0  0  0  0  0  0  0
   -0.9036   -0.3466   -0.9732 C   0  0  0  0  0  0  0  0  0  0  0  0
    0.4658    0.2400   -1.2349 C   0  0  0  0  0  0  0  0  0  0  0  0
    1.5306   -0.2698   -0.2983 C   0  0  0  0  0  0  0  0  0  0  0  0
    2.7000    0.4370   -0.2460 O   0  0  0  0  0  0  0  0  0  0  0  0
   -0.1971    2.8828    0.1508 H   0  0  0  0  0  0  0  0  0  0  0  0
   -1.5260    2.0181    1.0139 H   0  0  0  0  0  0  0  0  0  0  0  0
   -1.6458    2.2319   -0.7408 H   0  0  0  0  0  0  0  0  0  0  0  0
    0.9660    0.5683    1.6857 H   0  0  0  0  0  0  0  0  0  0  0  0
   -1.0455   -0.8342    1.9420 H   0  0  0  0  0  0  0  0  0  0  0  0
    0.3265   -2.0227    1.5770 H   0  0  0  0  0  0  0  0  0  0  0  0
   -0.6058   -2.4282   -0.5725 H   0  0  0  0  0  0  0  0  0  0  0  0
   -2.1316   -1.6830    0.1211 H   0  0  0  0  0  0  0  0  0  0  0  0
   -1.7677   -0.0047   -1.5919 H   0  0  0  0  0  0  0  0  0  0  0  0
    0.7004    0.7556   -2.1523 H   0  0  0  0  0  0  0  0  0  0  0  0
    1.6632   -1.3661   -0.4274 H   0  0  0  0  0  0  0  0  0  0  0  0
    3.4673   -0.2127   -0.2066 H   0  0  0  0  0  0  0  0  0  0  0  0
  1  2  1  0
  2  3  1  0
  3  4  1  0
  4  5  1  0
  5  6  1  0
  6  7  1  0
  7  8  1  0
  8  9  1  0
  6  2  1  0
  7  2  1  0
  8  3  1  0
  1 10  1  0
  1 11  1  0
  1 12  1  0
  3 13  1  0
  4 14  1  0
  4 15  1  0
  5 16  1  0
  5 17  1  0
  6 18  1  0
  7 19  1  0
  8 20  1  0
  9 21  1  0
M  END
