
     RDKit          3D

 19 20  0  0  0  0  0  0  0  0999 V2000
   -1.9631   -1.0111    0.3155 C   0  0  0  0  0  0  0  0  0  0  0  0
   -0.9084   -0.0504   -0.1914 C   0  0  0  0  0  0  0  0  0  0  0  0
   -1.2671    0.6937   -1.2822 O   0  0  0  0  0  0  0  0  0  0  0  0
   -1.1643    1.4265   -0.1078 C   0  0  0  0  0  0  0  0  0  0  0  0
    0.1609    2.0538    0.0834 C   0  0  0  0  0  0  0  0  0  0  0  0
    1.0782    1.1323    0.2978 C   0  0  0  0  0  0  0  0  0  0  0  0
    0.4852   -0.1966    0.2763 C   0  0  0  0  0  0  0  0  0  0  0  0
    1.2960   -1.1748   -0.5565 C   0  0  0  0  0  0  0  0  0  0  0  0
    2.5797   -1.2158   -0.0098 O   0  0  0  0  0  0  0  0  0  0  0  0
   -2.2447   -0.7004    1.3190 H   0  0  0  0  0  0  0  0  0  0  0  0
   -1.4668   -2.0130    0.3892 H   0  0  0  0  0  0  0  0  0  0  0  0
   -2.7916   -1.1324   -0.3944 H   0  0  0  0  0  0  0  0  0  0  0  0
   -2.0533    1.7978    0.4102 H   0  0  0  0  0  0  0  0  0  0  0  0
    0.3662    3.1154    0.0548 H   0  0  0  0  0  0  0  0  0  0  0  0
    2.1677    1.3391    0.4729 H   0  0  0  0  0  0  0  0  0  0  0  0
    0.5278   -0.6087    1.3272 H   0  0  0  0  0  0  0  0  0  0  0  0
    1.3345   -0.9080   -1.6150 H   0  0  0  0  0  0  0  0  0  0  0  0
    0.8339   -2.1755   -0.4741 H   0  0  0  0  0  0  0  0  0  0  0  0
    3.0291   -0.3717   -0.3151 H   0  0  0  0  0  0  0  0  0  0  0  0
  1  2  1  0
  2  3  1  0
  3  4  1  0
  4  5  1  0
  5  6  2  0
  6  7  1  0
  7  8  1  0
  8  9  1  0
  4  2  1  0
  7  2  1  0
  1 10  1  0
  1 11  1  0
  1 12  1  0
  4 13  1  0
  5 14  1  0
  6 15  1  0
  7 16  1  0
  8 17  1  0
  8 18  1  0
  9 19  1  0
M  END
