
     RDKit          3D

 21 22  0  0  0  0  0  0  0  0999 V2000
    2.2416   -0.2023   -0.2848 C   0  0  0  0  0  0  0  0  0  0  0  0
    0.8713    0.1859    0.1896 C   0  0  0  0  0  0  0  0  0  0  0  0
    0.0323   -0.9352    0.7471 C   0  0  0  0  0  0  0  0  0  0  0  0
   -0.9803   -1.4439   -0.2725 C   0  0  0  0  0  0  0  0  0  0  0  0
   -2.0682   -0.3893   -0.3524 C   0  0  0  0  0  0  0  0  0  0  0  0
   -1.4191    0.9297   -0.3337 C   0  0  0  0  0  0  0  0  0  0  0  0
   -2.1269    1.9062   -0.1458 O   0  0  0  0  0  0  0  0  0  0  0  0
    0.0329    1.1629   -0.5262 C   0  0  0  0  0  0  0  0  0  0  0  0
    0.7583    1.5668    0.7449 C   0  0  0  0  0  0  0  0  0  0  0  0
    2.5444    0.4582   -1.1011 H   0  0  0  0  0  0  0  0  0  0  0  0
    2.9186   -0.1111    0.6149 H   0  0  0  0  0  0  0  0  0  0  0  0
    2.2918   -1.2841   -0.5662 H   0  0  0  0  0  0  0  0  0  0  0  0
   -0.5448   -0.5484    1.6222 H   0  0  0  0  0  0  0  0  0  0  0  0
    0.6122   -1.7945    1.0908 H   0  0  0  0  0  0  0  0  0  0  0  0
   -1.3670   -2.4135    0.0373 H   0  0  0  0  0  0  0  0  0  0  0  0
   -0.5552   -1.5449   -1.2782 H   0  0  0  0  0  0  0  0  0  0  0  0
   -2.6389   -0.5890   -1.2810 H   0  0  0  0  0  0  0  0  0  0  0  0
   -2.7765   -0.5565    0.4855 H   0  0  0  0  0  0  0  0  0  0  0  0
    0.3809    1.6469   -1.4707 H   0  0  0  0  0  0  0  0  0  0  0  0
    1.6143    2.2482    0.6321 H   0  0  0  0  0  0  0  0  0  0  0  0
    0.1783    1.7079    1.6781 H   0  0  0  0  0  0  0  0  0  0  0  0
  1  2  1  0
  2  3  1  0
  3  4  1  0
  4  5  1  0
  5  6  1  0
  6  7  2  0
  6  8  1  0
  8  9  1  0
  8  2  1  0
  9  2  1  0
  1 10  1  0
  1 11  1  0
  1 12  1  0
  3 13  1  0
  3 14  1  0
  4 15  1  0
  4 16  1  0
  5 17  1  0
  5 18  1  0
  8 19  1  0
  9 20  1  0
  9 21  1  0
M  END
