
     RDKit          3D

 21 22  0  0  0  0  0  0  0  0999 V2000
    2.1648   -0.5569   -0.0314 C   0  0  0  0  0  0  0  0  0  0  0  0
    0.7664   -0.1656    0.0832 C   0  0  0  0  0  0  0  0  0  0  0  0
    0.3788    0.4838    1.3679 C   0  0  0  0  0  0  0  0  0  0  0  0
   -0.6735    1.2660    1.1414 C   0  0  0  0  0  0  0  0  0  0  0  0
   -1.0430    1.0864   -0.2887 C   0  0  0  0  0  0  0  0  0  0  0  0
    0.3728    0.9638   -0.8901 C   0  0  0  0  0  0  0  0  0  0  0  0
   -1.5075   -0.3330   -0.5374 C   0  0  0  0  0  0  0  0  0  0  0  0
   -2.5746   -0.6950    0.2456 O   0  0  0  0  0  0  0  0  0  0  0  0
   -0.2644   -1.1884   -0.2449 C   0  0  0  0  0  0  0  0  0  0  0  0
    2.4053   -1.5866    0.2087 H   0  0  0  0  0  0  0  0  0  0  0  0
    2.5125   -0.3850   -1.0891 H   0  0  0  0  0  0  0  0  0  0  0  0
    2.7974    0.1234    0.5951 H   0  0  0  0  0  0  0  0  0  0  0  0
    0.8270    0.3837    2.3466 H   0  0  0  0  0  0  0  0  0  0  0  0
   -1.2079    1.9264    1.8094 H   0  0  0  0  0  0  0  0  0  0  0  0
   -1.6322    1.8590   -0.7269 H   0  0  0  0  0  0  0  0  0  0  0  0
    0.9775    1.8432   -0.6913 H   0  0  0  0  0  0  0  0  0  0  0  0
    0.3462    0.6112   -1.9201 H   0  0  0  0  0  0  0  0  0  0  0  0
   -1.7030   -0.4160   -1.6257 H   0  0  0  0  0  0  0  0  0  0  0  0
   -2.4120   -1.5409    0.7736 H   0  0  0  0  0  0  0  0  0  0  0  0
   -0.5229   -1.8643    0.5951 H   0  0  0  0  0  0  0  0  0  0  0  0
   -0.0076   -1.8154   -1.1211 H   0  0  0  0  0  0  0  0  0  0  0  0
  1  2  1  0
  2  3  1  0
  3  4  2  0
  4  5  1  0
  5  6  1  0
  5  7  1  0
  7  8  1  0
  7  9  1  0
  6  2  1  0
  9  2  1  0
  1 10  1  0
  1 11  1  0
  1 12  1  0
  3 13  1  0
  4 14  1  0
  5 15  1  0
  6 16  1  0
  6 17  1  0
  7 18  1  0
  8 19  1  0
  9 20  1  0
  9 21  1  0
M  END
