
     RDKit          3D

 19 20  0  0  0  0  0  0  0  0999 V2000
    2.1361    0.4649   -0.0829 C   0  0  0  0  0  0  0  0  0  0  0  0
    0.6541    0.2589   -0.0065 C   0  0  0  0  0  0  0  0  0  0  0  0
    0.1848   -0.0365    1.3749 C   0  0  0  0  0  0  0  0  0  0  0  0
   -0.9681   -0.6981    1.2578 C   0  0  0  0  0  0  0  0  0  0  0  0
   -1.2209   -1.0353   -0.1800 C   0  0  0  0  0  0  0  0  0  0  0  0
    0.2238   -1.0389   -0.7021 C   0  0  0  0  0  0  0  0  0  0  0  0
   -1.8578   -0.0106   -0.8471 O   0  0  0  0  0  0  0  0  0  0  0  0
   -1.3566    1.2260   -0.6554 C   0  0  0  0  0  0  0  0  0  0  0  0
   -0.0114    1.3499   -0.4814 O   0  0  0  0  0  0  0  0  0  0  0  0
    2.3835    0.7438   -1.1220 H   0  0  0  0  0  0  0  0  0  0  0  0
    2.4004    1.2575    0.6461 H   0  0  0  0  0  0  0  0  0  0  0  0
    2.7122   -0.4564    0.1570 H   0  0  0  0  0  0  0  0  0  0  0  0
    0.6340    0.2046    2.3303 H   0  0  0  0  0  0  0  0  0  0  0  0
   -1.6522   -0.9718    2.0624 H   0  0  0  0  0  0  0  0  0  0  0  0
   -1.7220   -1.9838   -0.3248 H   0  0  0  0  0  0  0  0  0  0  0  0
    0.2719   -0.9602   -1.7866 H   0  0  0  0  0  0  0  0  0  0  0  0
    0.7471   -1.8803   -0.2529 H   0  0  0  0  0  0  0  0  0  0  0  0
   -1.6249    1.8427   -1.5635 H   0  0  0  0  0  0  0  0  0  0  0  0
   -1.9340    1.7235    0.1768 H   0  0  0  0  0  0  0  0  0  0  0  0
  1  2  1  0
  2  3  1  0
  3  4  2  0
  4  5  1  0
  5  6  1  0
  5  7  1  0
  7  8  1  0
  8  9  1  0
  6  2  1  0
  9  2  1  0
  1 10  1  0
  1 11  1  0
  1 12  1  0
  3 13  1  0
  4 14  1  0
  5 15  1  0
  6 16  1  0
  6 17  1  0
  8 18  1  0
  8 19  1  0
M  END
