
     RDKit          3D

 19 21  0  0  0  0  0  0  0  0999 V2000
    1.8915   -1.4870    0.0660 C   0  0  0  0  0  0  0  0  0  0  0  0
    0.8404   -0.4553    0.1574 C   0  0  0  0  0  0  0  0  0  0  0  0
    0.5179    0.1274    1.4047 O   0  0  0  0  0  0  0  0  0  0  0  0
   -0.5671    0.9217    1.0752 C   0  0  0  0  0  0  0  0  0  0  0  0
   -0.0232    1.7047   -0.0994 C   0  0  0  0  0  0  0  0  0  0  0  0
    0.5197    0.5090   -0.9002 C   0  0  0  0  0  0  0  0  0  0  0  0
   -0.3912   -0.6041   -0.6241 C   0  0  0  0  0  0  0  0  0  0  0  0
   -1.4494   -0.0872    0.3645 C   0  0  0  0  0  0  0  0  0  0  0  0
   -2.5185    0.4783   -0.2619 O   0  0  0  0  0  0  0  0  0  0  0  0
    2.2593   -1.5363   -0.9790 H   0  0  0  0  0  0  0  0  0  0  0  0
    1.4616   -2.4855    0.3034 H   0  0  0  0  0  0  0  0  0  0  0  0
    2.7454   -1.3355    0.7386 H   0  0  0  0  0  0  0  0  0  0  0  0
   -1.0234    1.4819    1.8517 H   0  0  0  0  0  0  0  0  0  0  0  0
   -0.7904    2.2421   -0.6645 H   0  0  0  0  0  0  0  0  0  0  0  0
    0.8239    2.3610    0.2352 H   0  0  0  0  0  0  0  0  0  0  0  0
    1.0768    0.6733   -1.8053 H   0  0  0  0  0  0  0  0  0  0  0  0
   -0.6283   -1.4177   -1.2894 H   0  0  0  0  0  0  0  0  0  0  0  0
   -1.6756   -0.8803    1.0858 H   0  0  0  0  0  0  0  0  0  0  0  0
   -3.0696   -0.2106   -0.6587 H   0  0  0  0  0  0  0  0  0  0  0  0
  1  2  1  0
  2  3  1  0
  3  4  1  0
  4  5  1  0
  5  6  1  0
  6  7  1  0
  7  8  1  0
  8  9  1  0
  6  2  1  0
  7  2  1  0
  8  4  1  0
  1 10  1  0
  1 11  1  0
  1 12  1  0
  4 13  1  0
  5 14  1  0
  5 15  1  0
  6 16  1  0
  7 17  1  0
  8 18  1  0
  9 19  1  0
M  END
