
     RDKit          3D

 17 18  0  0  0  0  0  0  0  0999 V2000
    2.1996    0.6285    0.3559 C   0  0  0  0  0  0  0  0  0  0  0  0
    0.8314    0.0585    0.3086 C   0  0  0  0  0  0  0  0  0  0  0  0
    0.5703   -0.8961    1.3131 O   0  0  0  0  0  0  0  0  0  0  0  0
    0.4300   -1.2391   -0.0711 C   0  0  0  0  0  0  0  0  0  0  0  0
   -1.0138   -1.1845   -0.5158 C   0  0  0  0  0  0  0  0  0  0  0  0
   -1.4871    0.1431    0.0323 C   0  0  0  0  0  0  0  0  0  0  0  0
   -2.5617    0.6391   -0.6912 O   0  0  0  0  0  0  0  0  0  0  0  0
   -0.2657    0.9509   -0.1054 C   0  0  0  0  0  0  0  0  0  0  0  0
   -0.1661    2.0820   -0.4707 O   0  0  0  0  0  0  0  0  0  0  0  0
    2.9519   -0.1317    0.6310 H   0  0  0  0  0  0  0  0  0  0  0  0
    2.2261    1.3883    1.1899 H   0  0  0  0  0  0  0  0  0  0  0  0
    2.4057    1.1672   -0.5674 H   0  0  0  0  0  0  0  0  0  0  0  0
    1.0656   -2.0575   -0.4411 H   0  0  0  0  0  0  0  0  0  0  0  0
   -1.0000   -1.0747   -1.6285 H   0  0  0  0  0  0  0  0  0  0  0  0
   -1.6047   -2.0343   -0.1702 H   0  0  0  0  0  0  0  0  0  0  0  0
   -1.7526    0.0713    1.1126 H   0  0  0  0  0  0  0  0  0  0  0  0
   -2.8289    1.4891   -0.2820 H   0  0  0  0  0  0  0  0  0  0  0  0
  1  2  1  0
  2  3  1  0
  3  4  1  0
  4  5  1  0
  5  6  1  0
  6  7  1  0
  6  8  1  0
  8  9  2  0
  4  2  1  0
  8  2  1  0
  1 10  1  0
  1 11  1  0
  1 12  1  0
  4 13  1  0
  5 14  1  0
  5 15  1  0
  6 16  1  0
  7 17  1  0
M  END
