
     RDKit          3D

 18 19  0  0  0  0  0  0  0  0999 V2000
    1.8335    0.6560    0.2340 C   0  0  0  0  0  0  0  0  0  0  0  0
    0.5338    0.0071   -0.1286 C   0  0  0  0  0  0  0  0  0  0  0  0
    0.6636   -1.4243   -0.5971 C   0  0  0  0  0  0  0  0  0  0  0  0
   -0.1272   -1.0436    0.5980 C   0  0  0  0  0  0  0  0  0  0  0  0
   -1.5841   -0.8976    0.3386 C   0  0  0  0  0  0  0  0  0  0  0  0
   -1.8259    0.1766   -0.3567 C   0  0  0  0  0  0  0  0  0  0  0  0
   -0.5503    0.8786   -0.6449 C   0  0  0  0  0  0  0  0  0  0  0  0
   -0.5033    2.0974    0.0167 O   0  0  0  0  0  0  0  0  0  0  0  0
    2.0964    1.3320   -0.6095 H   0  0  0  0  0  0  0  0  0  0  0  0
    1.8008    1.2066    1.1920 H   0  0  0  0  0  0  0  0  0  0  0  0
    2.6644   -0.0690    0.3150 H   0  0  0  0  0  0  0  0  0  0  0  0
    1.6036   -1.9459   -0.4310 H   0  0  0  0  0  0  0  0  0  0  0  0
    0.1538   -1.6009   -1.5794 H   0  0  0  0  0  0  0  0  0  0  0  0
    0.1531   -1.4374    1.5868 H   0  0  0  0  0  0  0  0  0  0  0  0
   -2.3188   -1.6180    0.7009 H   0  0  0  0  0  0  0  0  0  0  0  0
   -2.8186    0.5042   -0.6753 H   0  0  0  0  0  0  0  0  0  0  0  0
   -0.4801    0.9962   -1.7499 H   0  0  0  0  0  0  0  0  0  0  0  0
   -1.2948    2.1820    0.6117 H   0  0  0  0  0  0  0  0  0  0  0  0
  1  2  1  0
  2  3  1  0
  3  4  1  0
  4  5  1  0
  5  6  2  0
  6  7  1  0
  7  8  1  0
  4  2  1  0
  7  2  1  0
  1  9  1  0
  1 10  1  0
  1 11  1  0
  3 12  1  0
  3 13  1  0
  4 14  1  0
  5 15  1  0
  6 16  1  0
  7 17  1  0
  8 18  1  0
M  END
