
     RDKit          3D

 21 23  0  0  0  0  0  0  0  0999 V2000
   -1.7484   -0.3441    1.3117 C   0  0  0  0  0  0  0  0  0  0  0  0
   -0.5823    0.1604    0.4955 C   0  0  0  0  0  0  0  0  0  0  0  0
   -0.5291    1.5439   -0.0104 C   0  0  0  0  0  0  0  0  0  0  0  0
   -0.9077    0.4625   -0.9231 C   0  0  0  0  0  0  0  0  0  0  0  0
    0.0494   -0.3305   -1.7286 C   0  0  0  0  0  0  0  0  0  0  0  0
    1.1756   -0.7779   -0.8498 C   0  0  0  0  0  0  0  0  0  0  0  0
    2.1514    0.1923   -0.7090 O   0  0  0  0  0  0  0  0  0  0  0  0
    1.9621    0.1584    0.6572 C   0  0  0  0  0  0  0  0  0  0  0  0
    0.6846   -0.6150    0.5551 C   0  0  0  0  0  0  0  0  0  0  0  0
   -2.7188   -0.1009    0.8076 H   0  0  0  0  0  0  0  0  0  0  0  0
   -1.7833    0.1402    2.2947 H   0  0  0  0  0  0  0  0  0  0  0  0
   -1.6296   -1.4565    1.3692 H   0  0  0  0  0  0  0  0  0  0  0  0
   -1.3566    2.2084    0.3292 H   0  0  0  0  0  0  0  0  0  0  0  0
    0.4485    2.0488   -0.0232 H   0  0  0  0  0  0  0  0  0  0  0  0
   -1.9667    0.4184   -1.2850 H   0  0  0  0  0  0  0  0  0  0  0  0
   -0.4747   -1.2607   -2.0834 H   0  0  0  0  0  0  0  0  0  0  0  0
    0.4279    0.1941   -2.6170 H   0  0  0  0  0  0  0  0  0  0  0  0
    1.5405   -1.8102   -1.0097 H   0  0  0  0  0  0  0  0  0  0  0  0
    1.9112    1.1638    1.0906 H   0  0  0  0  0  0  0  0  0  0  0  0
    2.7396   -0.4687    1.1609 H   0  0  0  0  0  0  0  0  0  0  0  0
    0.6062   -1.5267    1.1675 H   0  0  0  0  0  0  0  0  0  0  0  0
  1  2  1  0
  2  3  1  0
  3  4  1  0
  4  5  1  0
  5  6  1  0
  6  7  1  0
  7  8  1  0
  8  9  1  0
  4  2  1  0
  9  6  1  0
  9  2  1  0
  1 10  1  0
  1 11  1  0
  1 12  1  0
  3 13  1  0
  3 14  1  0
  4 15  1  0
  5 16  1  0
  5 17  1  0
  6 18  1  0
  8 19  1  0
  8 20  1  0
  9 21  1  0
M  END
