
     RDKit          3D

 13 14  0  0  0  0  0  0  0  0999 V2000
    1.4678    0.0864   -0.4100 C   0  0  0  0  0  0  0  0  0  0  0  0
    0.3999    0.3730    0.6004 C   0  0  0  0  0  0  0  0  0  0  0  0
    0.0685    1.6473    0.5991 O   0  0  0  0  0  0  0  0  0  0  0  0
   -0.9486    0.9693    0.1168 C   0  0  0  0  0  0  0  0  0  0  0  0
   -1.0739   -0.3913   -0.4540 C   0  0  0  0  0  0  0  0  0  0  0  0
   -0.4304   -0.8139    0.8145 C   0  0  0  0  0  0  0  0  0  0  0  0
   -0.5517   -1.6880    1.5942 O   0  0  0  0  0  0  0  0  0  0  0  0
    1.7409   -0.9558   -0.5223 H   0  0  0  0  0  0  0  0  0  0  0  0
    1.3127    0.5705   -1.3866 H   0  0  0  0  0  0  0  0  0  0  0  0
    2.3969    0.5790    0.0128 H   0  0  0  0  0  0  0  0  0  0  0  0
   -1.7516    1.0673    0.9203 H   0  0  0  0  0  0  0  0  0  0  0  0
   -0.5426   -0.6259   -1.3825 H   0  0  0  0  0  0  0  0  0  0  0  0
   -2.0879   -0.8179   -0.5026 H   0  0  0  0  0  0  0  0  0  0  0  0
  1  2  1  0
  2  3  1  0
  3  4  1  0
  4  5  1  0
  5  6  1  0
  6  7  2  0
  4  2  1  0
  6  2  1  0
  1  8  1  0
  1  9  1  0
  1 10  1  0
  4 11  1  0
  5 12  1  0
  5 13  1  0
M  END
