
     RDKit          3D

 19 20  0  0  0  0  0  0  0  0999 V2000
    2.2609   -0.1261    0.2203 C   0  0  0  0  0  0  0  0  0  0  0  0
    0.7579   -0.0121    0.0779 C   0  0  0  0  0  0  0  0  0  0  0  0
    0.2591   -1.3584   -0.4178 C   0  0  0  0  0  0  0  0  0  0  0  0
   -0.8615   -1.6918    0.3668 O   0  0  0  0  0  0  0  0  0  0  0  0
   -1.7393   -0.5966    0.2028 C   0  0  0  0  0  0  0  0  0  0  0  0
   -1.1245    0.6457    0.8354 C   0  0  0  0  0  0  0  0  0  0  0  0
   -0.7127    1.6401   -0.2596 C   0  0  0  0  0  0  0  0  0  0  0  0
    0.4275    1.0194   -0.7762 O   0  0  0  0  0  0  0  0  0  0  0  0
    0.1655    0.3121    1.3177 O   0  0  0  0  0  0  0  0  0  0  0  0
    2.4800   -1.0147    0.8698 H   0  0  0  0  0  0  0  0  0  0  0  0
    2.7451    0.7831    0.5632 H   0  0  0  0  0  0  0  0  0  0  0  0
    2.6499   -0.3899   -0.7869 H   0  0  0  0  0  0  0  0  0  0  0  0
   -0.1509   -1.2413   -1.4599 H   0  0  0  0  0  0  0  0  0  0  0  0
    1.0416   -2.1327   -0.3779 H   0  0  0  0  0  0  0  0  0  0  0  0
   -2.7232   -0.8408    0.6058 H   0  0  0  0  0  0  0  0  0  0  0  0
   -1.7985   -0.4598   -0.9167 H   0  0  0  0  0  0  0  0  0  0  0  0
   -1.7515    1.0990    1.5972 H   0  0  0  0  0  0  0  0  0  0  0  0
   -1.4862    1.7894   -1.0015 H   0  0  0  0  0  0  0  0  0  0  0  0
   -0.4392    2.5756    0.3077 H   0  0  0  0  0  0  0  0  0  0  0  0
  1  2  1  0
  2  3  1  0
  3  4  1  0
  4  5  1  0
  5  6  1  0
  6  7  1  0
  7  8  1  0
  6  9  1  0
  8  2  1  0
  9  2  1  0
  1 10  1  0
  1 11  1  0
  1 12  1  0
  3 13  1  0
  3 14  1  0
  5 15  1  0
  5 16  1  0
  6 17  1  0
  7 18  1  0
  7 19  1  0
M  END
