
     RDKit          3D

 19 20  0  0  0  0  0  0  0  0999 V2000
   -1.7779   -0.9942   -0.4913 C   0  0  0  0  0  0  0  0  0  0  0  0
   -0.6712   -0.1035    0.0450 C   0  0  0  0  0  0  0  0  0  0  0  0
    0.1113   -0.6520    1.1799 C   0  0  0  0  0  0  0  0  0  0  0  0
    1.5114   -0.9226    0.7204 C   0  0  0  0  0  0  0  0  0  0  0  0
    2.1013   -1.9829    0.9539 O   0  0  0  0  0  0  0  0  0  0  0  0
    2.1336    0.1558   -0.0248 C   0  0  0  0  0  0  0  0  0  0  0  0
    1.4284    0.9595   -0.7930 C   0  0  0  0  0  0  0  0  0  0  0  0
   -0.0184    0.7737   -0.9095 C   0  0  0  0  0  0  0  0  0  0  0  0
   -0.9184    1.3851    0.0981 C   0  0  0  0  0  0  0  0  0  0  0  0
   -1.2736   -1.9402   -0.8135 H   0  0  0  0  0  0  0  0  0  0  0  0
   -2.1880   -0.5440   -1.4128 H   0  0  0  0  0  0  0  0  0  0  0  0
   -2.5419   -1.1651    0.2742 H   0  0  0  0  0  0  0  0  0  0  0  0
    0.2064    0.0622    2.0389 H   0  0  0  0  0  0  0  0  0  0  0  0
   -0.3691   -1.5546    1.5944 H   0  0  0  0  0  0  0  0  0  0  0  0
    3.2151    0.3053    0.0510 H   0  0  0  0  0  0  0  0  0  0  0  0
    1.9518    1.7744   -1.3446 H   0  0  0  0  0  0  0  0  0  0  0  0
   -0.4370    0.8034   -1.9555 H   0  0  0  0  0  0  0  0  0  0  0  0
   -1.9516    1.6705   -0.1631 H   0  0  0  0  0  0  0  0  0  0  0  0
   -0.5121    1.9693    0.9522 H   0  0  0  0  0  0  0  0  0  0  0  0
  1  2  1  0
  2  3  1  0
  3  4  1  0
  4  5  2  0
  4  6  1  0
  6  7  2  0
  7  8  1  0
  8  9  1  0
  8  2  1  0
  9  2  1  0
  1 10  1  0
  1 11  1  0
  1 12  1  0
  3 13  1  0
  3 14  1  0
  6 15  1  0
  7 16  1  0
  8 17  1  0
  9 18  1  0
  9 19  1  0
M  END
