
     RDKit          3D

 17 18  0  0  0  0  0  0  0  0999 V2000
   -2.0828   -0.7989   -0.2303 C   0  0  0  0  0  0  0  0  0  0  0  0
   -0.7914   -0.5534    0.4334 C   0  0  0  0  0  0  0  0  0  0  0  0
   -0.4587   -1.3508    1.4929 O   0  0  0  0  0  0  0  0  0  0  0  0
    0.4403   -1.1084    0.3932 C   0  0  0  0  0  0  0  0  0  0  0  0
    1.1456    0.1991    0.6138 C   0  0  0  0  0  0  0  0  0  0  0  0
    2.2268    0.5245   -0.3383 C   0  0  0  0  0  0  0  0  0  0  0  0
    2.8722    1.5378   -0.1269 O   0  0  0  0  0  0  0  0  0  0  0  0
   -0.2048    0.8322    0.2749 C   0  0  0  0  0  0  0  0  0  0  0  0
   -0.2028    1.1692   -1.0860 O   0  0  0  0  0  0  0  0  0  0  0  0
   -2.9022   -0.5545    0.5068 H   0  0  0  0  0  0  0  0  0  0  0  0
   -2.2658   -0.0824   -1.0831 H   0  0  0  0  0  0  0  0  0  0  0  0
   -2.2763   -1.8482   -0.5304 H   0  0  0  0  0  0  0  0  0  0  0  0
    0.9207   -1.9620   -0.0605 H   0  0  0  0  0  0  0  0  0  0  0  0
    1.4291    0.4300    1.6630 H   0  0  0  0  0  0  0  0  0  0  0  0
    2.4893   -0.0614   -1.2023 H   0  0  0  0  0  0  0  0  0  0  0  0
   -0.5531    1.5913    0.9633 H   0  0  0  0  0  0  0  0  0  0  0  0
    0.2140    2.0360   -1.2663 H   0  0  0  0  0  0  0  0  0  0  0  0
  1  2  1  0
  2  3  1  0
  3  4  1  0
  4  5  1  0
  5  6  1  0
  6  7  2  0
  5  8  1  0
  8  9  1  0
  4  2  1  0
  8  2  1  0
  1 10  1  0
  1 11  1  0
  1 12  1  0
  4 13  1  0
  5 14  1  0
  6 15  1  0
  8 16  1  0
  9 17  1  0
M  END
