
     RDKit          3D

 23 25  0  0  0  0  0  0  0  0999 V2000
    2.4826    0.3481    0.0645 C   0  0  0  0  0  0  0  0  0  0  0  0
    1.0715    0.0218    0.1237 C   0  0  0  0  0  0  0  0  0  0  0  0
    0.5493   -1.0705   -0.8226 C   0  0  0  0  0  0  0  0  0  0  0  0
   -0.5498   -1.1675    0.2515 C   0  0  0  0  0  0  0  0  0  0  0  0
    0.5935   -0.9242    1.2295 C   0  0  0  0  0  0  0  0  0  0  0  0
   -1.2419    0.1398    0.0765 C   0  0  0  0  0  0  0  0  0  0  0  0
   -2.2084    0.2451   -1.0659 C   0  0  0  0  0  0  0  0  0  0  0  0
   -1.0450    1.2870    0.9569 C   0  0  0  0  0  0  0  0  0  0  0  0
    0.0260    1.0655   -0.0138 C   0  0  0  0  0  0  0  0  0  0  0  0
    2.6793    1.3357    0.4768 H   0  0  0  0  0  0  0  0  0  0  0  0
    3.0585   -0.4028    0.6796 H   0  0  0  0  0  0  0  0  0  0  0  0
    2.8388    0.3224   -0.9910 H   0  0  0  0  0  0  0  0  0  0  0  0
    1.1898   -1.9547   -0.8939 H   0  0  0  0  0  0  0  0  0  0  0  0
    0.1534   -0.6928   -1.7661 H   0  0  0  0  0  0  0  0  0  0  0  0
   -1.0868   -2.0785    0.3148 H   0  0  0  0  0  0  0  0  0  0  0  0
    0.3339   -0.4583    2.1725 H   0  0  0  0  0  0  0  0  0  0  0  0
    1.2505   -1.7869    1.3366 H   0  0  0  0  0  0  0  0  0  0  0  0
   -2.2363    1.2645   -1.4964 H   0  0  0  0  0  0  0  0  0  0  0  0
   -2.0574   -0.5195   -1.8504 H   0  0  0  0  0  0  0  0  0  0  0  0
   -3.2278    0.0594   -0.6463 H   0  0  0  0  0  0  0  0  0  0  0  0
   -0.9383    1.1276    2.0475 H   0  0  0  0  0  0  0  0  0  0  0  0
   -1.7044    2.1711    0.7423 H   0  0  0  0  0  0  0  0  0  0  0  0
    0.0687    1.6677   -0.9264 H   0  0  0  0  0  0  0  0  0  0  0  0
  1  2  1  0
  2  3  1  0
  3  4  1  0
  4  5  1  0
  4  6  1  0
  6  7  1  0
  6  8  1  0
  8  9  1  0
  5  2  1  0
  9  6  1  0
  9  2  1  0
  1 10  1  0
  1 11  1  0
  1 12  1  0
  3 13  1  0
  3 14  1  0
  4 15  1  0
  5 16  1  0
  5 17  1  0
  7 18  1  0
  7 19  1  0
  7 20  1  0
  8 21  1  0
  8 22  1  0
  9 23  1  0
M  END
