
     RDKit          3D

 19 20  0  0  0  0  0  0  0  0999 V2000
   -1.5836   -1.3639    0.1616 C   0  0  0  0  0  0  0  0  0  0  0  0
   -0.6227   -0.2836    0.2342 C   0  0  0  0  0  0  0  0  0  0  0  0
   -0.9544    1.0209   -0.5081 C   0  0  0  0  0  0  0  0  0  0  0  0
    0.5707    1.1784   -0.4308 C   0  0  0  0  0  0  0  0  0  0  0  0
    0.7595    1.2030    1.0424 C   0  0  0  0  0  0  0  0  0  0  0  0
   -0.0570    0.1031    1.4181 O   0  0  0  0  0  0  0  0  0  0  0  0
    0.5790   -0.3236   -0.7183 C   0  0  0  0  0  0  0  0  0  0  0  0
    1.7546   -1.0270   -0.2121 C   0  0  0  0  0  0  0  0  0  0  0  0
    1.7710   -2.1577    0.2403 O   0  0  0  0  0  0  0  0  0  0  0  0
   -1.4922   -2.0380    1.0304 H   0  0  0  0  0  0  0  0  0  0  0  0
   -2.6316   -0.9427    0.1904 H   0  0  0  0  0  0  0  0  0  0  0  0
   -1.4614   -1.9303   -0.7989 H   0  0  0  0  0  0  0  0  0  0  0  0
   -1.4303    1.7807    0.1035 H   0  0  0  0  0  0  0  0  0  0  0  0
   -1.2855    0.8689   -1.5337 H   0  0  0  0  0  0  0  0  0  0  0  0
    1.0479    1.8332   -1.0904 H   0  0  0  0  0  0  0  0  0  0  0  0
    1.7876    1.0768    1.3894 H   0  0  0  0  0  0  0  0  0  0  0  0
    0.2482    2.1011    1.4525 H   0  0  0  0  0  0  0  0  0  0  0  0
    0.2956   -0.5941   -1.7342 H   0  0  0  0  0  0  0  0  0  0  0  0
    2.7045   -0.5051   -0.2363 H   0  0  0  0  0  0  0  0  0  0  0  0
  1  2  1  0
  2  3  1  0
  3  4  1  0
  4  5  1  0
  5  6  1  0
  4  7  1  0
  7  8  1  0
  8  9  2  0
  6  2  1  0
  7  2  1  0
  1 10  1  0
  1 11  1  0
  1 12  1  0
  3 13  1  0
  3 14  1  0
  4 15  1  0
  5 16  1  0
  5 17  1  0
  7 18  1  0
  8 19  1  0
M  END
