
     RDKit          3D

 19 20  0  0  0  0  0  0  0  0999 V2000
    2.0234    0.3779   -0.5700 C   0  0  0  0  0  0  0  0  0  0  0  0
    0.6960    0.1117   -0.0736 C   0  0  0  0  0  0  0  0  0  0  0  0
    0.5070   -1.2287    0.6039 C   0  0  0  0  0  0  0  0  0  0  0  0
   -0.7861   -1.5254    0.5750 C   0  0  0  0  0  0  0  0  0  0  0  0
   -1.4821   -0.4089   -0.1112 C   0  0  0  0  0  0  0  0  0  0  0  0
   -1.4270    0.8557    0.7183 C   0  0  0  0  0  0  0  0  0  0  0  0
    0.0613    1.1104    0.8006 C   0  0  0  0  0  0  0  0  0  0  0  0
    0.5576    1.9963    1.4859 O   0  0  0  0  0  0  0  0  0  0  0  0
   -0.3915   -0.0581   -1.1488 C   0  0  0  0  0  0  0  0  0  0  0  0
    2.6087    1.0092    0.1499 H   0  0  0  0  0  0  0  0  0  0  0  0
    2.5895   -0.5751   -0.7376 H   0  0  0  0  0  0  0  0  0  0  0  0
    2.0108    0.9019   -1.5608 H   0  0  0  0  0  0  0  0  0  0  0  0
    1.2768   -1.8440    1.0373 H   0  0  0  0  0  0  0  0  0  0  0  0
   -1.2507   -2.4062    0.9715 H   0  0  0  0  0  0  0  0  0  0  0  0
   -2.4285   -0.6386   -0.5523 H   0  0  0  0  0  0  0  0  0  0  0  0
   -1.8666    0.7390    1.7140 H   0  0  0  0  0  0  0  0  0  0  0  0
   -1.8426    1.6729    0.1148 H   0  0  0  0  0  0  0  0  0  0  0  0
   -0.2488   -0.9528   -1.7450 H   0  0  0  0  0  0  0  0  0  0  0  0
   -0.6073    0.8630   -1.6719 H   0  0  0  0  0  0  0  0  0  0  0  0
  1  2  1  0
  2  3  1  0
  3  4  2  0
  4  5  1  0
  5  6  1  0
  6  7  1  0
  7  8  2  0
  5  9  1  0
  7  2  1  0
  9  2  1  0
  1 10  1  0
  1 11  1  0
  1 12  1  0
  3 13  1  0
  4 14  1  0
  5 15  1  0
  6 16  1  0
  6 17  1  0
  9 18  1  0
  9 19  1  0
M  END
