
     RDKit          3D

 16 17  0  0  0  0  0  0  0  0999 V2000
    0.2367    1.7209   -0.0392 C   0  0  0  0  0  0  0  0  0  0  0  0
    0.1068    0.3601    0.0524 C   0  0  0  0  0  0  0  0  0  0  0  0
    0.4369   -0.4209    1.1854 O   0  0  0  0  0  0  0  0  0  0  0  0
    0.0096   -1.3940    0.2749 C   0  0  0  0  0  0  0  0  0  0  0  0
   -1.1208   -0.4731   -0.0460 C   0  0  0  0  0  0  0  0  0  0  0  0
   -1.9521   -0.3043    1.0439 O   0  0  0  0  0  0  0  0  0  0  0  0
    0.8335   -0.6852   -0.7429 C   0  0  0  0  0  0  0  0  0  0  0  0
    2.1870   -0.8133   -0.4680 O   0  0  0  0  0  0  0  0  0  0  0  0
   -0.7253    2.2852   -0.2197 H   0  0  0  0  0  0  0  0  0  0  0  0
    0.6642    2.2255    0.8778 H   0  0  0  0  0  0  0  0  0  0  0  0
    0.9102    2.0860   -0.8713 H   0  0  0  0  0  0  0  0  0  0  0  0
   -0.0365   -2.3844    0.4577 H   0  0  0  0  0  0  0  0  0  0  0  0
   -1.5861   -0.5535   -1.0306 H   0  0  0  0  0  0  0  0  0  0  0  0
   -2.8299    0.0718    0.8080 H   0  0  0  0  0  0  0  0  0  0  0  0
    0.5590   -0.7848   -1.7946 H   0  0  0  0  0  0  0  0  0  0  0  0
    2.3068   -0.9360    0.5121 H   0  0  0  0  0  0  0  0  0  0  0  0
  1  2  1  0
  2  3  1  0
  3  4  1  0
  4  5  1  0
  5  6  1  0
  4  7  1  0
  7  8  1  0
  5  2  1  0
  7  2  1  0
  1  9  1  0
  1 10  1  0
  1 11  1  0
  4 12  1  0
  5 13  1  0
  6 14  1  0
  7 15  1  0
  8 16  1  0
M  END
