
     RDKit          3D

 20 22  0  0  0  0  0  0  0  0999 V2000
    1.8000   -0.7205   -0.8350 C   0  0  0  0  0  0  0  0  0  0  0  0
    0.7996    0.0922   -0.0067 C   0  0  0  0  0  0  0  0  0  0  0  0
    1.0132    1.5330    0.0551 C   0  0  0  0  0  0  0  0  0  0  0  0
   -0.1665    0.9880   -0.7073 C   0  0  0  0  0  0  0  0  0  0  0  0
   -1.4471    1.0023    0.1002 C   0  0  0  0  0  0  0  0  0  0  0  0
   -1.4300   -0.2761    0.8658 C   0  0  0  0  0  0  0  0  0  0  0  0
   -1.1042   -1.5571    0.1895 C   0  0  0  0  0  0  0  0  0  0  0  0
   -0.0340   -0.7014    0.9046 C   0  0  0  0  0  0  0  0  0  0  0  0
    1.2096   -1.4336   -1.4165 H   0  0  0  0  0  0  0  0  0  0  0  0
    2.4678   -0.0801   -1.4173 H   0  0  0  0  0  0  0  0  0  0  0  0
    2.3803   -1.3312   -0.0859 H   0  0  0  0  0  0  0  0  0  0  0  0
    0.8296    2.1266    0.9917 H   0  0  0  0  0  0  0  0  0  0  0  0
    1.8017    1.9568   -0.5863 H   0  0  0  0  0  0  0  0  0  0  0  0
   -0.1993    1.0430   -1.8018 H   0  0  0  0  0  0  0  0  0  0  0  0
   -2.3439    1.1696   -0.5009 H   0  0  0  0  0  0  0  0  0  0  0  0
   -1.4085    1.8427    0.8510 H   0  0  0  0  0  0  0  0  0  0  0  0
   -2.0501   -0.3785    1.7853 H   0  0  0  0  0  0  0  0  0  0  0  0
   -1.0833   -1.6079   -0.8979 H   0  0  0  0  0  0  0  0  0  0  0  0
   -1.3909   -2.5070    0.6799 H   0  0  0  0  0  0  0  0  0  0  0  0
    0.3561   -1.1610    1.8327 H   0  0  0  0  0  0  0  0  0  0  0  0
  1  2  1  0
  2  3  1  0
  3  4  1  0
  4  5  1  0
  5  6  1  0
  6  7  1  0
  7  8  1  0
  4  2  1  0
  8  6  1  0
  8  2  1  0
  1  9  1  0
  1 10  1  0
  1 11  1  0
  3 12  1  0
  3 13  1  0
  4 14  1  0
  5 15  1  0
  5 16  1  0
  6 17  1  0
  7 18  1  0
  7 19  1  0
  8 20  1  0
M  END
