
     RDKit          3D

 20 21  0  0  0  0  0  0  0  0999 V2000
   -1.1043   -1.4070   -0.5728 C   0  0  0  0  0  0  0  0  0  0  0  0
   -0.1597   -0.4147    0.0385 C   0  0  0  0  0  0  0  0  0  0  0  0
   -0.8877    0.5957    0.8741 C   0  0  0  0  0  0  0  0  0  0  0  0
   -0.8241    1.8353   -0.0056 C   0  0  0  0  0  0  0  0  0  0  0  0
    0.3662    1.7352   -0.6965 O   0  0  0  0  0  0  0  0  0  0  0  0
    0.6570    0.4098   -0.8872 C   0  0  0  0  0  0  0  0  0  0  0  0
    1.8894    0.0325   -0.0897 C   0  0  0  0  0  0  0  0  0  0  0  0
    1.0798   -1.0089    0.6539 C   0  0  0  0  0  0  0  0  0  0  0  0
   -1.4338   -2.1094    0.2415 H   0  0  0  0  0  0  0  0  0  0  0  0
   -0.6890   -1.9522   -1.4348 H   0  0  0  0  0  0  0  0  0  0  0  0
   -2.0163   -0.8817   -0.8975 H   0  0  0  0  0  0  0  0  0  0  0  0
   -0.4079    0.7339    1.8461 H   0  0  0  0  0  0  0  0  0  0  0  0
   -1.9617    0.3155    1.0182 H   0  0  0  0  0  0  0  0  0  0  0  0
   -1.6418    1.8309   -0.7472 H   0  0  0  0  0  0  0  0  0  0  0  0
   -0.7780    2.7593    0.6016 H   0  0  0  0  0  0  0  0  0  0  0  0
    0.6399    0.0375   -1.9298 H   0  0  0  0  0  0  0  0  0  0  0  0
    2.2649    0.8050    0.5963 H   0  0  0  0  0  0  0  0  0  0  0  0
    2.6442   -0.3920   -0.7593 H   0  0  0  0  0  0  0  0  0  0  0  0
    1.3017   -2.0526    0.3932 H   0  0  0  0  0  0  0  0  0  0  0  0
    1.0614   -0.8723    1.7568 H   0  0  0  0  0  0  0  0  0  0  0  0
  1  2  1  0
  2  3  1  0
  3  4  1  0
  4  5  1  0
  5  6  1  0
  6  7  1  0
  7  8  1  0
  6  2  1  0
  8  2  1  0
  1  9  1  0
  1 10  1  0
  1 11  1  0
  3 12  1  0
  3 13  1  0
  4 14  1  0
  4 15  1  0
  6 16  1  0
  7 17  1  0
  7 18  1  0
  8 19  1  0
  8 20  1  0
M  END
