
     RDKit          3D

 19 20  0  0  0  0  0  0  0  0999 V2000
    0.1381   -1.8283   -0.5670 C   0  0  0  0  0  0  0  0  0  0  0  0
    0.0769   -0.4549   -0.2169 C   0  0  0  0  0  0  0  0  0  0  0  0
    0.2169    0.6307   -1.2166 C   0  0  0  0  0  0  0  0  0  0  0  0
    0.0707    1.7428   -0.4800 C   0  0  0  0  0  0  0  0  0  0  0  0
   -0.1440    1.1956    0.8921 C   0  0  0  0  0  0  0  0  0  0  0  0
   -1.1132    0.0795    0.5969 C   0  0  0  0  0  0  0  0  0  0  0  0
   -2.0964    0.4649   -0.2854 O   0  0  0  0  0  0  0  0  0  0  0  0
    0.9300    0.1017    0.9201 C   0  0  0  0  0  0  0  0  0  0  0  0
    2.1297    0.5824    0.4238 O   0  0  0  0  0  0  0  0  0  0  0  0
    0.7074   -2.4855    0.1340 H   0  0  0  0  0  0  0  0  0  0  0  0
   -0.8917   -2.2909   -0.6076 H   0  0  0  0  0  0  0  0  0  0  0  0
    0.5662   -2.0156   -1.5778 H   0  0  0  0  0  0  0  0  0  0  0  0
    0.3935    0.5536   -2.2792 H   0  0  0  0  0  0  0  0  0  0  0  0
    0.0967    2.7757   -0.7749 H   0  0  0  0  0  0  0  0  0  0  0  0
   -0.2604    1.8248    1.7166 H   0  0  0  0  0  0  0  0  0  0  0  0
   -1.4017   -0.5517    1.4355 H   0  0  0  0  0  0  0  0  0  0  0  0
   -3.0044    0.3640    0.0345 H   0  0  0  0  0  0  0  0  0  0  0  0
    0.9633   -0.4956    1.8252 H   0  0  0  0  0  0  0  0  0  0  0  0
    2.6224   -0.1933    0.0267 H   0  0  0  0  0  0  0  0  0  0  0  0
  1  2  1  0
  2  3  1  0
  3  4  2  0
  4  5  1  0
  5  6  1  0
  6  7  1  0
  5  8  1  0
  8  9  1  0
  6  2  1  0
  8  2  1  0
  1 10  1  0
  1 11  1  0
  1 12  1  0
  3 13  1  0
  4 14  1  0
  5 15  1  0
  6 16  1  0
  7 17  1  0
  8 18  1  0
  9 19  1  0
M  END
