
     RDKit          3D

 21 23  0  0  0  0  0  0  0  0999 V2000
   -2.0585    0.1923    0.4856 C   0  0  0  0  0  0  0  0  0  0  0  0
   -0.6190   -0.1834    0.4289 C   0  0  0  0  0  0  0  0  0  0  0  0
   -0.1769   -1.6101    0.6280 C   0  0  0  0  0  0  0  0  0  0  0  0
    0.7743   -1.4258   -0.5320 C   0  0  0  0  0  0  0  0  0  0  0  0
    2.0775   -0.7237   -0.1236 C   0  0  0  0  0  0  0  0  0  0  0  0
    1.7161    0.4745    0.4221 O   0  0  0  0  0  0  0  0  0  0  0  0
    0.4304    0.8010   -0.0069 C   0  0  0  0  0  0  0  0  0  0  0  0
    0.0859    2.2421   -0.0787 C   0  0  0  0  0  0  0  0  0  0  0  0
   -0.0232   -0.2202   -0.9307 C   0  0  0  0  0  0  0  0  0  0  0  0
   -2.5626    0.0937   -0.5187 H   0  0  0  0  0  0  0  0  0  0  0  0
   -2.2083    1.2395    0.8195 H   0  0  0  0  0  0  0  0  0  0  0  0
   -2.6055   -0.4583    1.1995 H   0  0  0  0  0  0  0  0  0  0  0  0
    0.4068   -1.7109    1.5856 H   0  0  0  0  0  0  0  0  0  0  0  0
   -0.9199   -2.3872    0.4637 H   0  0  0  0  0  0  0  0  0  0  0  0
    0.8758   -2.2382   -1.2370 H   0  0  0  0  0  0  0  0  0  0  0  0
    2.5930   -0.5065   -1.1035 H   0  0  0  0  0  0  0  0  0  0  0  0
    2.7125   -1.3612    0.4885 H   0  0  0  0  0  0  0  0  0  0  0  0
    0.7835    2.8027   -0.7474 H   0  0  0  0  0  0  0  0  0  0  0  0
   -0.9633    2.3892   -0.3327 H   0  0  0  0  0  0  0  0  0  0  0  0
    0.2382    2.7108    0.9361 H   0  0  0  0  0  0  0  0  0  0  0  0
   -0.5568   -0.1204   -1.8465 H   0  0  0  0  0  0  0  0  0  0  0  0
  1  2  1  0
  2  3  1  0
  3  4  1  0
  4  5  1  0
  5  6  1  0
  6  7  1  0
  7  8  1  0
  7  9  1  0
  7  2  1  0
  9  2  1  0
  9  4  1  0
  1 10  1  0
  1 11  1  0
  1 12  1  0
  3 13  1  0
  3 14  1  0
  4 15  1  0
  5 16  1  0
  5 17  1  0
  8 18  1  0
  8 19  1  0
  8 20  1  0
  9 21  1  0
M  END
