
     RDKit          3D

 21 22  0  0  0  0  0  0  0  0999 V2000
   -1.8396   -0.5650    1.0984 C   0  0  0  0  0  0  0  0  0  0  0  0
   -0.8619    0.0216    0.1283 C   0  0  0  0  0  0  0  0  0  0  0  0
   -1.2597    0.3695   -1.2652 C   0  0  0  0  0  0  0  0  0  0  0  0
   -0.4035   -0.8094   -0.9830 C   0  0  0  0  0  0  0  0  0  0  0  0
    1.0832   -0.6553   -1.0574 C   0  0  0  0  0  0  0  0  0  0  0  0
    1.5134    0.1652    0.1272 C   0  0  0  0  0  0  0  0  0  0  0  0
    2.1567   -0.6295    1.0816 O   0  0  0  0  0  0  0  0  0  0  0  0
    0.2761    0.7982    0.6996 C   0  0  0  0  0  0  0  0  0  0  0  0
    0.1540    2.1475    0.3183 O   0  0  0  0  0  0  0  0  0  0  0  0
   -1.7599   -0.0329    2.0720 H   0  0  0  0  0  0  0  0  0  0  0  0
   -2.8536   -0.4369    0.6771 H   0  0  0  0  0  0  0  0  0  0  0  0
   -1.6965   -1.6558    1.2688 H   0  0  0  0  0  0  0  0  0  0  0  0
   -2.3152    0.2774   -1.5306 H   0  0  0  0  0  0  0  0  0  0  0  0
   -0.7686    1.2559   -1.7503 H   0  0  0  0  0  0  0  0  0  0  0  0
   -0.8110   -1.8245   -1.1477 H   0  0  0  0  0  0  0  0  0  0  0  0
    1.3310   -0.0981   -1.9863 H   0  0  0  0  0  0  0  0  0  0  0  0
    1.6152   -1.6229   -1.0495 H   0  0  0  0  0  0  0  0  0  0  0  0
    2.2114    0.9813   -0.1641 H   0  0  0  0  0  0  0  0  0  0  0  0
    2.9638   -0.9985    0.6209 H   0  0  0  0  0  0  0  0  0  0  0  0
    0.2769    0.8053    1.8126 H   0  0  0  0  0  0  0  0  0  0  0  0
    0.9879    2.5069   -0.0519 H   0  0  0  0  0  0  0  0  0  0  0  0
  1  2  1  0
  2  3  1  0
  3  4  1  0
  4  5  1  0
  5  6  1  0
  6  7  1  0
  6  8  1  0
  8  9  1  0
  4  2  1  0
  8  2  1  0
  1 10  1  0
  1 11  1  0
  1 12  1  0
  3 13  1  0
  3 14  1  0
  4 15  1  0
  5 16  1  0
  5 17  1  0
  6 18  1  0
  7 19  1  0
  8 20  1  0
  9 21  1  0
M  END
