
     RDKit          3D

 21 23  0  0  0  0  0  0  0  0999 V2000
   -0.3823    2.2696   -0.0364 C   0  0  0  0  0  0  0  0  0  0  0  0
   -0.0902    0.8181   -0.1112 C   0  0  0  0  0  0  0  0  0  0  0  0
    1.0002    0.3695    0.8509 C   0  0  0  0  0  0  0  0  0  0  0  0
    1.5721   -0.8208    0.1240 C   0  0  0  0  0  0  0  0  0  0  0  0
    0.6399   -0.9441   -1.0603 C   0  0  0  0  0  0  0  0  0  0  0  0
    0.4491    0.4285   -1.3602 O   0  0  0  0  0  0  0  0  0  0  0  0
   -0.7370   -1.3775   -0.6964 C   0  0  0  0  0  0  0  0  0  0  0  0
   -1.2480   -1.3456    0.6926 C   0  0  0  0  0  0  0  0  0  0  0  0
   -1.2914   -0.0729   -0.0339 C   0  0  0  0  0  0  0  0  0  0  0  0
    0.5254    2.7936    0.3738 H   0  0  0  0  0  0  0  0  0  0  0  0
   -0.5201    2.6555   -1.0723 H   0  0  0  0  0  0  0  0  0  0  0  0
   -1.2429    2.4770    0.6206 H   0  0  0  0  0  0  0  0  0  0  0  0
    1.7457    1.1861    0.9660 H   0  0  0  0  0  0  0  0  0  0  0  0
    0.6145    0.1433    1.8451 H   0  0  0  0  0  0  0  0  0  0  0  0
    1.6516   -1.7220    0.7252 H   0  0  0  0  0  0  0  0  0  0  0  0
    2.5619   -0.4855   -0.3073 H   0  0  0  0  0  0  0  0  0  0  0  0
    1.0544   -1.4971   -1.8982 H   0  0  0  0  0  0  0  0  0  0  0  0
   -1.3478   -1.8241   -1.4818 H   0  0  0  0  0  0  0  0  0  0  0  0
   -2.2211   -1.8552    0.8483 H   0  0  0  0  0  0  0  0  0  0  0  0
   -0.5452   -1.5049    1.5267 H   0  0  0  0  0  0  0  0  0  0  0  0
   -2.1886    0.3084   -0.5152 H   0  0  0  0  0  0  0  0  0  0  0  0
  1  2  1  0
  2  3  1  0
  3  4  1  0
  4  5  1  0
  5  6  1  0
  5  7  1  0
  7  8  1  0
  8  9  1  0
  6  2  1  0
  9  7  1  0
  9  2  1  0
  1 10  1  0
  1 11  1  0
  1 12  1  0
  3 13  1  0
  3 14  1  0
  4 15  1  0
  4 16  1  0
  5 17  1  0
  7 18  1  0
  8 19  1  0
  8 20  1  0
  9 21  1  0
M  END
