
     RDKit          3D

 19 21  0  0  0  0  0  0  0  0999 V2000
    1.9448   -0.4993   -0.6085 C   0  0  0  0  0  0  0  0  0  0  0  0
    0.9664    0.0391    0.3629 C   0  0  0  0  0  0  0  0  0  0  0  0
    0.9112    1.4332    0.8053 C   0  0  0  0  0  0  0  0  0  0  0  0
   -0.1621    0.8950   -0.0475 C   0  0  0  0  0  0  0  0  0  0  0  0
   -0.3117    1.3922   -1.3160 O   0  0  0  0  0  0  0  0  0  0  0  0
   -1.1160   -0.1098    0.5228 C   0  0  0  0  0  0  0  0  0  0  0  0
   -2.1326   -0.7904   -0.3208 C   0  0  0  0  0  0  0  0  0  0  0  0
   -0.9806   -0.4063    1.8493 O   0  0  0  0  0  0  0  0  0  0  0  0
    0.0467   -0.9247    1.0926 C   0  0  0  0  0  0  0  0  0  0  0  0
    2.0758    0.1017   -1.5296 H   0  0  0  0  0  0  0  0  0  0  0  0
    1.5743   -1.5047   -0.9502 H   0  0  0  0  0  0  0  0  0  0  0  0
    2.9674   -0.6756   -0.1882 H   0  0  0  0  0  0  0  0  0  0  0  0
    1.6004    2.1848    0.4102 H   0  0  0  0  0  0  0  0  0  0  0  0
    0.5919    1.6706    1.8626 H   0  0  0  0  0  0  0  0  0  0  0  0
   -0.9086    2.1958   -1.3098 H   0  0  0  0  0  0  0  0  0  0  0  0
   -3.1627   -0.4794   -0.0262 H   0  0  0  0  0  0  0  0  0  0  0  0
   -1.9553   -0.6372   -1.3919 H   0  0  0  0  0  0  0  0  0  0  0  0
   -2.0596   -1.8947   -0.1090 H   0  0  0  0  0  0  0  0  0  0  0  0
    0.1103   -1.9902    0.8921 H   0  0  0  0  0  0  0  0  0  0  0  0
  1  2  1  0
  2  3  1  0
  3  4  1  0
  4  5  1  0
  4  6  1  0
  6  7  1  0
  6  8  1  0
  8  9  1  0
  4  2  1  0
  9  6  1  0
  9  2  1  0
  1 10  1  0
  1 11  1  0
  1 12  1  0
  3 13  1  0
  3 14  1  0
  5 15  1  0
  7 16  1  0
  7 17  1  0
  7 18  1  0
  9 19  1  0
M  END
