
     RDKit          3D

 19 20  0  0  0  0  0  0  0  0999 V2000
    1.2136    0.3186    1.1322 C   0  0  0  0  0  0  0  0  0  0  0  0
    0.9077    0.2407   -0.3294 C   0  0  0  0  0  0  0  0  0  0  0  0
    1.4607   -0.9005   -0.9626 C   0  0  0  0  0  0  0  0  0  0  0  0
    0.0675   -0.9889   -0.8670 C   0  0  0  0  0  0  0  0  0  0  0  0
   -0.9734   -0.8315    0.1504 C   0  0  0  0  0  0  0  0  0  0  0  0
   -1.3728    0.6344   -0.1268 C   0  0  0  0  0  0  0  0  0  0  0  0
   -1.7836    1.2761    1.0042 O   0  0  0  0  0  0  0  0  0  0  0  0
   -0.1102    1.1955   -0.7028 C   0  0  0  0  0  0  0  0  0  0  0  0
   -0.0610    2.2250   -1.3251 O   0  0  0  0  0  0  0  0  0  0  0  0
    2.2860    0.6801    1.2015 H   0  0  0  0  0  0  0  0  0  0  0  0
    1.2035   -0.6218    1.6777 H   0  0  0  0  0  0  0  0  0  0  0  0
    0.6361    1.0736    1.6995 H   0  0  0  0  0  0  0  0  0  0  0  0
    1.9839   -0.7062   -1.9472 H   0  0  0  0  0  0  0  0  0  0  0  0
    2.0778   -1.6368   -0.4020 H   0  0  0  0  0  0  0  0  0  0  0  0
   -0.4411   -0.8092   -1.8730 H   0  0  0  0  0  0  0  0  0  0  0  0
   -1.8839   -1.4248   -0.0842 H   0  0  0  0  0  0  0  0  0  0  0  0
   -0.7363   -1.0123    1.1815 H   0  0  0  0  0  0  0  0  0  0  0  0
   -2.1188    0.6533   -0.9568 H   0  0  0  0  0  0  0  0  0  0  0  0
   -2.3558    0.6346    1.5300 H   0  0  0  0  0  0  0  0  0  0  0  0
  1  2  1  0
  2  3  1  0
  3  4  1  0
  4  5  1  0
  5  6  1  0
  6  7  1  0
  6  8  1  0
  8  9  2  0
  4  2  1  0
  8  2  1  0
  1 10  1  0
  1 11  1  0
  1 12  1  0
  3 13  1  0
  3 14  1  0
  4 15  1  0
  5 16  1  0
  5 17  1  0
  6 18  1  0
  7 19  1  0
M  END
