
     RDKit          3D

 21 22  0  0  0  0  0  0  0  0999 V2000
    2.4837    0.1648   -0.6123 C   0  0  0  0  0  0  0  0  0  0  0  0
    1.0886   -0.1223   -0.3529 C   0  0  0  0  0  0  0  0  0  0  0  0
    0.7061   -1.3155    0.4924 C   0  0  0  0  0  0  0  0  0  0  0  0
   -0.8119   -1.0471    0.5198 C   0  0  0  0  0  0  0  0  0  0  0  0
   -0.8093    0.0580   -0.5044 C   0  0  0  0  0  0  0  0  0  0  0  0
   -2.0648    0.5951   -0.9912 C   0  0  0  0  0  0  0  0  0  0  0  0
   -2.9595    0.8478    0.0484 O   0  0  0  0  0  0  0  0  0  0  0  0
    0.1869    1.0149    0.1371 C   0  0  0  0  0  0  0  0  0  0  0  0
    0.1949   -0.2504   -1.4193 O   0  0  0  0  0  0  0  0  0  0  0  0
    2.8358    0.0790   -1.6643 H   0  0  0  0  0  0  0  0  0  0  0  0
    2.7502    1.2147   -0.2981 H   0  0  0  0  0  0  0  0  0  0  0  0
    3.1358   -0.4882    0.0345 H   0  0  0  0  0  0  0  0  0  0  0  0
    1.1303   -1.3078    1.4940 H   0  0  0  0  0  0  0  0  0  0  0  0
    0.9314   -2.2260   -0.0926 H   0  0  0  0  0  0  0  0  0  0  0  0
   -1.0669   -0.6090    1.5005 H   0  0  0  0  0  0  0  0  0  0  0  0
   -1.3866   -1.9191    0.2444 H   0  0  0  0  0  0  0  0  0  0  0  0
   -1.8688    1.5115   -1.5915 H   0  0  0  0  0  0  0  0  0  0  0  0
   -2.5402   -0.1227   -1.6925 H   0  0  0  0  0  0  0  0  0  0  0  0
   -2.4044    0.9592    0.8630 H   0  0  0  0  0  0  0  0  0  0  0  0
    0.2868    1.9251   -0.4258 H   0  0  0  0  0  0  0  0  0  0  0  0
    0.1819    1.0379    1.2252 H   0  0  0  0  0  0  0  0  0  0  0  0
  1  2  1  0
  2  3  1  0
  3  4  1  0
  4  5  1  0
  5  6  1  0
  6  7  1  0
  5  8  1  0
  5  9  1  0
  8  2  1  0
  9  2  1  0
  1 10  1  0
  1 11  1  0
  1 12  1  0
  3 13  1  0
  3 14  1  0
  4 15  1  0
  4 16  1  0
  6 17  1  0
  6 18  1  0
  7 19  1  0
  8 20  1  0
  8 21  1  0
M  END
