
     RDKit          3D

 19 20  0  0  0  0  0  0  0  0999 V2000
    1.8544   -0.2471    0.5085 C   0  0  0  0  0  0  0  0  0  0  0  0
    0.4299    0.1458    0.3039 C   0  0  0  0  0  0  0  0  0  0  0  0
    0.0305    1.4824    0.8141 C   0  0  0  0  0  0  0  0  0  0  0  0
    0.0394    1.2322   -0.6399 C   0  0  0  0  0  0  0  0  0  0  0  0
   -1.1244    0.4117   -1.1428 C   0  0  0  0  0  0  0  0  0  0  0  0
   -0.5582   -0.7590   -0.3360 C   0  0  0  0  0  0  0  0  0  0  0  0
   -0.0953   -1.7473   -1.1560 O   0  0  0  0  0  0  0  0  0  0  0  0
   -1.5705   -1.2530    0.6604 C   0  0  0  0  0  0  0  0  0  0  0  0
   -1.9215   -2.4213    0.7068 O   0  0  0  0  0  0  0  0  0  0  0  0
    2.4707    0.2427   -0.2891 H   0  0  0  0  0  0  0  0  0  0  0  0
    2.1964    0.2428    1.4637 H   0  0  0  0  0  0  0  0  0  0  0  0
    2.0331   -1.3160    0.6091 H   0  0  0  0  0  0  0  0  0  0  0  0
    0.7884    2.0832    1.3262 H   0  0  0  0  0  0  0  0  0  0  0  0
   -0.9926    1.6168    1.2596 H   0  0  0  0  0  0  0  0  0  0  0  0
    0.8181    1.5742   -1.3184 H   0  0  0  0  0  0  0  0  0  0  0  0
   -1.1813    0.2523   -2.2168 H   0  0  0  0  0  0  0  0  0  0  0  0
   -2.0657    0.8146   -0.6836 H   0  0  0  0  0  0  0  0  0  0  0  0
    0.8709   -1.7752   -1.2427 H   0  0  0  0  0  0  0  0  0  0  0  0
   -2.0223   -0.5798    1.3732 H   0  0  0  0  0  0  0  0  0  0  0  0
  1  2  1  0
  2  3  1  0
  3  4  1  0
  4  5  1  0
  5  6  1  0
  6  7  1  0
  6  8  1  0
  8  9  2  0
  4  2  1  0
  6  2  1  0
  1 10  1  0
  1 11  1  0
  1 12  1  0
  3 13  1  0
  3 14  1  0
  4 15  1  0
  5 16  1  0
  5 17  1  0
  7 18  1  0
  8 19  1  0
M  END
