
     RDKit          3D

 16 17  0  0  0  0  0  0  0  0999 V2000
   -1.4749   -0.9799    0.2470 C   0  0  0  0  0  0  0  0  0  0  0  0
   -0.4335    0.0927    0.1948 C   0  0  0  0  0  0  0  0  0  0  0  0
   -0.7079    1.4129   -0.4223 C   0  0  0  0  0  0  0  0  0  0  0  0
    0.2252    0.4799   -1.0862 C   0  0  0  0  0  0  0  0  0  0  0  0
    1.5786    0.7029   -0.8147 O   0  0  0  0  0  0  0  0  0  0  0  0
    1.8875   -0.2633    0.1299 C   0  0  0  0  0  0  0  0  0  0  0  0
    0.7537   -0.0586    1.1063 C   0  0  0  0  0  0  0  0  0  0  0  0
    0.8276   -0.0310    2.3006 O   0  0  0  0  0  0  0  0  0  0  0  0
   -2.2127   -0.6940    1.0280 H   0  0  0  0  0  0  0  0  0  0  0  0
   -1.9504   -1.1722   -0.7411 H   0  0  0  0  0  0  0  0  0  0  0  0
   -1.0264   -1.9333    0.5710 H   0  0  0  0  0  0  0  0  0  0  0  0
   -0.3253    2.2859    0.1537 H   0  0  0  0  0  0  0  0  0  0  0  0
   -1.6954    1.5398   -0.8797 H   0  0  0  0  0  0  0  0  0  0  0  0
   -0.0347    0.0041   -2.0382 H   0  0  0  0  0  0  0  0  0  0  0  0
    1.7288   -1.2496   -0.3505 H   0  0  0  0  0  0  0  0  0  0  0  0
    2.8598   -0.1363    0.6013 H   0  0  0  0  0  0  0  0  0  0  0  0
  1  2  1  0
  2  3  1  0
  3  4  1  0
  4  5  1  0
  5  6  1  0
  6  7  1  0
  7  8  2  0
  4  2  1  0
  7  2  1  0
  1  9  1  0
  1 10  1  0
  1 11  1  0
  3 12  1  0
  3 13  1  0
  4 14  1  0
  6 15  1  0
  6 16  1  0
M  END
