
     RDKit          3D

 19 21  0  0  0  0  0  0  0  0999 V2000
    2.2389    0.3712    0.3954 C   0  0  0  0  0  0  0  0  0  0  0  0
    0.7604    0.3887    0.1212 C   0  0  0  0  0  0  0  0  0  0  0  0
    0.2483   -0.6107   -0.8592 C   0  0  0  0  0  0  0  0  0  0  0  0
   -1.0248   -0.6871   -0.0422 C   0  0  0  0  0  0  0  0  0  0  0  0
   -1.7075   -1.8519   -0.0428 O   0  0  0  0  0  0  0  0  0  0  0  0
   -1.7951    0.5970   -0.2231 C   0  0  0  0  0  0  0  0  0  0  0  0
   -1.3959    1.4735    0.7859 O   0  0  0  0  0  0  0  0  0  0  0  0
   -0.0753    1.0801    1.1088 C   0  0  0  0  0  0  0  0  0  0  0  0
   -0.1548   -0.3604    1.1387 C   0  0  0  0  0  0  0  0  0  0  0  0
    2.8055   -0.2177   -0.3619 H   0  0  0  0  0  0  0  0  0  0  0  0
    2.4585    0.0926    1.4257 H   0  0  0  0  0  0  0  0  0  0  0  0
    2.5996    1.4333    0.2566 H   0  0  0  0  0  0  0  0  0  0  0  0
    0.1251   -0.2804   -1.9051 H   0  0  0  0  0  0  0  0  0  0  0  0
    0.8208   -1.5679   -0.7833 H   0  0  0  0  0  0  0  0  0  0  0  0
   -2.2013   -1.9609    0.8291 H   0  0  0  0  0  0  0  0  0  0  0  0
   -1.5069    1.1107   -1.1883 H   0  0  0  0  0  0  0  0  0  0  0  0
   -2.8883    0.4562   -0.2062 H   0  0  0  0  0  0  0  0  0  0  0  0
    0.4037    1.6057    1.9236 H   0  0  0  0  0  0  0  0  0  0  0  0
    0.2890   -1.0721    1.7872 H   0  0  0  0  0  0  0  0  0  0  0  0
  1  2  1  0
  2  3  1  0
  3  4  1  0
  4  5  1  0
  4  6  1  0
  6  7  1  0
  7  8  1  0
  8  9  1  0
  8  2  1  0
  9  2  1  0
  9  4  1  0
  1 10  1  0
  1 11  1  0
  1 12  1  0
  3 13  1  0
  3 14  1  0
  5 15  1  0
  6 16  1  0
  6 17  1  0
  8 18  1  0
  9 19  1  0
M  END
