
     RDKit          3D

 17 18  0  0  0  0  0  0  0  0999 V2000
   -1.4407   -0.2602   -1.1443 C   0  0  0  0  0  0  0  0  0  0  0  0
   -0.3565   -0.2261   -0.3210 C   0  0  0  0  0  0  0  0  0  0  0  0
    0.6789   -1.2991   -0.1515 C   0  0  0  0  0  0  0  0  0  0  0  0
    0.9574   -2.3940   -0.5719 O   0  0  0  0  0  0  0  0  0  0  0  0
    1.1133   -0.2460    0.7885 C   0  0  0  0  0  0  0  0  0  0  0  0
    0.8007    0.7256   -0.3120 C   0  0  0  0  0  0  0  0  0  0  0  0
    1.5998    0.5347   -1.4249 O   0  0  0  0  0  0  0  0  0  0  0  0
   -0.3280   -0.1319    1.1838 C   0  0  0  0  0  0  0  0  0  0  0  0
   -0.7301    1.0662    1.7125 O   0  0  0  0  0  0  0  0  0  0  0  0
   -1.6744   -1.2655   -1.6061 H   0  0  0  0  0  0  0  0  0  0  0  0
   -2.4155    0.0240   -0.6443 H   0  0  0  0  0  0  0  0  0  0  0  0
   -1.4034    0.4300   -2.0397 H   0  0  0  0  0  0  0  0  0  0  0  0
    1.9168   -0.2531    1.3879 H   0  0  0  0  0  0  0  0  0  0  0  0
    0.6071    1.7583   -0.0183 H   0  0  0  0  0  0  0  0  0  0  0  0
    2.3802   -0.0200   -1.1714 H   0  0  0  0  0  0  0  0  0  0  0  0
   -0.7491   -1.0487    1.6503 H   0  0  0  0  0  0  0  0  0  0  0  0
   -0.9563    0.9001    2.6824 H   0  0  0  0  0  0  0  0  0  0  0  0
  1  2  1  0
  2  3  1  0
  3  4  2  0
  3  5  1  0
  5  6  1  0
  6  7  1  0
  5  8  1  0
  8  9  1  0
  6  2  1  0
  8  2  1  0
  1 10  1  0
  1 11  1  0
  1 12  1  0
  5 13  1  0
  6 14  1  0
  7 15  1  0
  8 16  1  0
  9 17  1  0
M  END
