
     RDKit          3D

 21 22  0  0  0  0  0  0  0  0999 V2000
   -1.2765    1.3053    0.3102 C   0  0  0  0  0  0  0  0  0  0  0  0
   -1.2706   -0.1784   -0.1162 C   0  0  0  0  0  0  0  0  0  0  0  0
   -0.1099   -0.4076   -1.0248 C   0  0  0  0  0  0  0  0  0  0  0  0
    1.0136   -0.3716    0.0329 C   0  0  0  0  0  0  0  0  0  0  0  0
    1.9154    0.7972   -0.1683 C   0  0  0  0  0  0  0  0  0  0  0  0
    2.8631    0.8287    0.8471 O   0  0  0  0  0  0  0  0  0  0  0  0
    0.3257   -0.3289    1.2632 O   0  0  0  0  0  0  0  0  0  0  0  0
   -0.7079   -1.1718    0.9845 C   0  0  0  0  0  0  0  0  0  0  0  0
   -2.0678   -1.0224    0.6663 C   0  0  0  0  0  0  0  0  0  0  0  0
   -1.0922    1.9183   -0.5608 H   0  0  0  0  0  0  0  0  0  0  0  0
   -0.5562    1.4913    1.1058 H   0  0  0  0  0  0  0  0  0  0  0  0
   -2.2802    1.5784    0.7146 H   0  0  0  0  0  0  0  0  0  0  0  0
   -0.1025   -1.3797   -1.5335 H   0  0  0  0  0  0  0  0  0  0  0  0
    0.0775    0.4271   -1.6948 H   0  0  0  0  0  0  0  0  0  0  0  0
    1.5921   -1.3125    0.0220 H   0  0  0  0  0  0  0  0  0  0  0  0
    2.4645    0.6386   -1.1127 H   0  0  0  0  0  0  0  0  0  0  0  0
    1.4202    1.7622   -0.2285 H   0  0  0  0  0  0  0  0  0  0  0  0
    3.4213    0.0001    0.7354 H   0  0  0  0  0  0  0  0  0  0  0  0
   -0.2474   -2.1341    0.5918 H   0  0  0  0  0  0  0  0  0  0  0  0
   -2.6297   -1.8480    0.1340 H   0  0  0  0  0  0  0  0  0  0  0  0
   -2.7526   -0.5920    1.4378 H   0  0  0  0  0  0  0  0  0  0  0  0
  1  2  1  0
  2  3  1  0
  3  4  1  0
  4  5  1  0
  5  6  1  0
  4  7  1  0
  7  8  1  0
  8  9  1  0
  8  2  1  0
  9  2  1  0
  1 10  1  0
  1 11  1  0
  1 12  1  0
  3 13  1  0
  3 14  1  0
  4 15  1  0
  5 16  1  0
  5 17  1  0
  6 18  1  0
  8 19  1  0
  9 20  1  0
  9 21  1  0
M  END
