
     RDKit          3D

 14 15  0  0  0  0  0  0  0  0999 V2000
   -1.7669   -0.1989   -0.1668 C   0  0  0  0  0  0  0  0  0  0  0  0
   -0.4621    0.1859    0.4717 C   0  0  0  0  0  0  0  0  0  0  0  0
    0.4680   -0.9032    0.7959 C   0  0  0  0  0  0  0  0  0  0  0  0
    0.8227    0.1024   -0.2314 C   0  0  0  0  0  0  0  0  0  0  0  0
    0.9721   -0.3231   -1.5179 O   0  0  0  0  0  0  0  0  0  0  0  0
    1.1213    1.4834    0.1789 C   0  0  0  0  0  0  0  0  0  0  0  0
    2.0440    2.3375    0.1218 O   0  0  0  0  0  0  0  0  0  0  0  0
   -0.1707    1.5268    0.7399 O   0  0  0  0  0  0  0  0  0  0  0  0
   -2.2371    0.6131   -0.7374 H   0  0  0  0  0  0  0  0  0  0  0  0
   -1.5757   -1.1021   -0.7906 H   0  0  0  0  0  0  0  0  0  0  0  0
   -2.4784   -0.4375    0.6744 H   0  0  0  0  0  0  0  0  0  0  0  0
    1.1073   -0.8957    1.7059 H   0  0  0  0  0  0  0  0  0  0  0  0
    0.2175   -1.9059    0.4474 H   0  0  0  0  0  0  0  0  0  0  0  0
    1.9379   -0.4828   -1.6920 H   0  0  0  0  0  0  0  0  0  0  0  0
  1  2  1  0
  2  3  1  0
  3  4  1  0
  4  5  1  0
  4  6  1  0
  6  7  2  0
  6  8  1  0
  4  2  1  0
  8  2  1  0
  1  9  1  0
  1 10  1  0
  1 11  1  0
  3 12  1  0
  3 13  1  0
  5 14  1  0
M  END
