
     RDKit          3D

 21 22  0  0  0  0  0  0  0  0999 V2000
   -0.7914    1.5839   -0.4883 C   0  0  0  0  0  0  0  0  0  0  0  0
   -0.4848    0.3721    0.3372 C   0  0  0  0  0  0  0  0  0  0  0  0
   -1.7549   -0.2844    0.8944 C   0  0  0  0  0  0  0  0  0  0  0  0
   -1.6970   -1.1624   -0.3240 C   0  0  0  0  0  0  0  0  0  0  0  0
   -0.2579   -0.8889   -0.4183 C   0  0  0  0  0  0  0  0  0  0  0  0
    0.9713   -1.1818   -0.7980 C   0  0  0  0  0  0  0  0  0  0  0  0
    2.0353   -0.2084   -0.4302 C   0  0  0  0  0  0  0  0  0  0  0  0
    1.7775    0.3906    0.9146 C   0  0  0  0  0  0  0  0  0  0  0  0
    0.4711    0.4783    1.2997 O   0  0  0  0  0  0  0  0  0  0  0  0
   -1.5691    1.2942   -1.2314 H   0  0  0  0  0  0  0  0  0  0  0  0
   -1.2801    2.3314    0.1758 H   0  0  0  0  0  0  0  0  0  0  0  0
    0.1166    1.9479   -0.9552 H   0  0  0  0  0  0  0  0  0  0  0  0
   -1.5399   -0.8469    1.8215 H   0  0  0  0  0  0  0  0  0  0  0  0
   -2.6195    0.4125    0.9409 H   0  0  0  0  0  0  0  0  0  0  0  0
   -1.9696   -2.2354   -0.1134 H   0  0  0  0  0  0  0  0  0  0  0  0
   -2.3146   -0.8285   -1.1809 H   0  0  0  0  0  0  0  0  0  0  0  0
    1.2080   -2.1026   -1.3619 H   0  0  0  0  0  0  0  0  0  0  0  0
    2.0509    0.5609   -1.2572 H   0  0  0  0  0  0  0  0  0  0  0  0
    3.0254   -0.7120   -0.5015 H   0  0  0  0  0  0  0  0  0  0  0  0
    2.2905   -0.2791    1.6682 H   0  0  0  0  0  0  0  0  0  0  0  0
    2.3323    1.3586    1.0079 H   0  0  0  0  0  0  0  0  0  0  0  0
  1  2  1  0
  2  3  1  0
  3  4  1  0
  4  5  1  0
  5  6  2  0
  6  7  1  0
  7  8  1  0
  8  9  1  0
  5  2  1  0
  9  2  1  0
  1 10  1  0
  1 11  1  0
  1 12  1  0
  3 13  1  0
  3 14  1  0
  4 15  1  0
  4 16  1  0
  6 17  1  0
  7 18  1  0
  7 19  1  0
  8 20  1  0
  8 21  1  0
M  END
