
     RDKit          3D

 23 25  0  0  0  0  0  0  0  0999 V2000
   -2.1986    0.9569   -0.2061 C   0  0  0  0  0  0  0  0  0  0  0  0
   -0.9926    0.1906   -0.0304 C   0  0  0  0  0  0  0  0  0  0  0  0
   -1.1802   -1.2143    0.4593 C   0  0  0  0  0  0  0  0  0  0  0  0
    0.2772   -1.6960    0.3562 C   0  0  0  0  0  0  0  0  0  0  0  0
    0.9402   -0.3889    0.0592 C   0  0  0  0  0  0  0  0  0  0  0  0
    2.3899   -0.3023    0.0060 C   0  0  0  0  0  0  0  0  0  0  0  0
    0.1599    0.6999    0.7440 C   0  0  0  0  0  0  0  0  0  0  0  0
    0.4985    1.5394   -0.4663 C   0  0  0  0  0  0  0  0  0  0  0  0
    0.1062    0.2088   -1.0369 C   0  0  0  0  0  0  0  0  0  0  0  0
   -3.0541    0.2784   -0.4840 H   0  0  0  0  0  0  0  0  0  0  0  0
   -2.5213    1.3971    0.7830 H   0  0  0  0  0  0  0  0  0  0  0  0
   -2.2031    1.7831   -0.9262 H   0  0  0  0  0  0  0  0  0  0  0  0
   -1.8510   -1.8206   -0.1674 H   0  0  0  0  0  0  0  0  0  0  0  0
   -1.4257   -1.2425    1.5399 H   0  0  0  0  0  0  0  0  0  0  0  0
    0.3517   -2.3669   -0.5317 H   0  0  0  0  0  0  0  0  0  0  0  0
    0.6091   -2.1794    1.2852 H   0  0  0  0  0  0  0  0  0  0  0  0
    2.7745    0.2233    0.9195 H   0  0  0  0  0  0  0  0  0  0  0  0
    2.8328   -1.3395    0.0833 H   0  0  0  0  0  0  0  0  0  0  0  0
    2.8355    0.1326   -0.9117 H   0  0  0  0  0  0  0  0  0  0  0  0
    0.2240    0.9806    1.7013 H   0  0  0  0  0  0  0  0  0  0  0  0
    1.5345    1.8496   -0.5766 H   0  0  0  0  0  0  0  0  0  0  0  0
   -0.1880    2.3724   -0.5986 H   0  0  0  0  0  0  0  0  0  0  0  0
    0.0804   -0.0624   -2.0010 H   0  0  0  0  0  0  0  0  0  0  0  0
  1  2  1  0
  2  3  1  0
  3  4  1  0
  4  5  1  0
  5  6  1  0
  5  7  1  0
  7  8  1  0
  8  9  1  0
  7  2  1  0
  9  2  1  0
  9  5  1  0
  1 10  1  0
  1 11  1  0
  1 12  1  0
  3 13  1  0
  3 14  1  0
  4 15  1  0
  4 16  1  0
  6 17  1  0
  6 18  1  0
  6 19  1  0
  7 20  1  0
  8 21  1  0
  8 22  1  0
  9 23  1  0
M  END
