
     RDKit          3D

 17 18  0  0  0  0  0  0  0  0999 V2000
    1.4631    1.1648   -0.0422 C   0  0  0  0  0  0  0  0  0  0  0  0
    0.6381    0.1339    0.3252 C   0  0  0  0  0  0  0  0  0  0  0  0
    0.8714   -1.3338    0.1803 C   0  0  0  0  0  0  0  0  0  0  0  0
   -0.4137   -1.1450    0.9340 C   0  0  0  0  0  0  0  0  0  0  0  0
    0.2308   -0.1542    1.6508 O   0  0  0  0  0  0  0  0  0  0  0  0
   -0.7865   -0.0951   -0.0583 C   0  0  0  0  0  0  0  0  0  0  0  0
   -1.0266   -0.6262   -1.2968 O   0  0  0  0  0  0  0  0  0  0  0  0
   -1.6713    0.9774    0.3988 C   0  0  0  0  0  0  0  0  0  0  0  0
   -2.5727    1.3541   -0.3221 O   0  0  0  0  0  0  0  0  0  0  0  0
    2.5103    0.8555   -0.3367 H   0  0  0  0  0  0  0  0  0  0  0  0
    1.1125    1.7690   -0.9302 H   0  0  0  0  0  0  0  0  0  0  0  0
    1.6373    1.9480    0.7531 H   0  0  0  0  0  0  0  0  0  0  0  0
    0.7970   -1.7593   -0.8248 H   0  0  0  0  0  0  0  0  0  0  0  0
    1.7277   -1.7142    0.7905 H   0  0  0  0  0  0  0  0  0  0  0  0
   -1.0044   -1.8774    1.3033 H   0  0  0  0  0  0  0  0  0  0  0  0
   -1.9638   -0.9409   -1.3448 H   0  0  0  0  0  0  0  0  0  0  0  0
   -1.5492    1.4436    1.3536 H   0  0  0  0  0  0  0  0  0  0  0  0
  1  2  1  0
  2  3  1  0
  3  4  1  0
  4  5  1  0
  4  6  1  0
  6  7  1  0
  6  8  1  0
  8  9  2  0
  5  2  1  0
  6  2  1  0
  1 10  1  0
  1 11  1  0
  1 12  1  0
  3 13  1  0
  3 14  1  0
  4 15  1  0
  7 16  1  0
  8 17  1  0
M  END
