
     RDKit          3D

 19 20  0  0  0  0  0  0  0  0999 V2000
    1.3948   -0.9488   -0.4630 C   0  0  0  0  0  0  0  0  0  0  0  0
    0.3172    0.1454   -0.4823 C   0  0  0  0  0  0  0  0  0  0  0  0
   -1.0368   -0.4953   -0.5211 C   0  0  0  0  0  0  0  0  0  0  0  0
   -2.2139    0.3360   -0.6511 C   0  0  0  0  0  0  0  0  0  0  0  0
   -2.1692    1.3621   -1.3046 O   0  0  0  0  0  0  0  0  0  0  0  0
   -0.6232   -0.8652    0.9188 C   0  0  0  0  0  0  0  0  0  0  0  0
   -0.2412    0.5841    0.9336 C   0  0  0  0  0  0  0  0  0  0  0  0
    0.7683    1.2973    0.2222 C   0  0  0  0  0  0  0  0  0  0  0  0
    2.0121    1.3780    0.9039 O   0  0  0  0  0  0  0  0  0  0  0  0
    1.0561   -1.9216   -0.8035 H   0  0  0  0  0  0  0  0  0  0  0  0
    2.1279   -0.6009   -1.2551 H   0  0  0  0  0  0  0  0  0  0  0  0
    1.9897   -0.9405    0.4667 H   0  0  0  0  0  0  0  0  0  0  0  0
   -1.0695   -1.3584   -1.2071 H   0  0  0  0  0  0  0  0  0  0  0  0
   -3.1371    0.0700   -0.1815 H   0  0  0  0  0  0  0  0  0  0  0  0
    0.1489   -1.6131    0.9907 H   0  0  0  0  0  0  0  0  0  0  0  0
   -1.4580   -1.1131    1.5793 H   0  0  0  0  0  0  0  0  0  0  0  0
   -1.2191    1.1648    0.8937 H   0  0  0  0  0  0  0  0  0  0  0  0
    0.6077    2.2828   -0.3139 H   0  0  0  0  0  0  0  0  0  0  0  0
    2.7452    1.2366    0.2744 H   0  0  0  0  0  0  0  0  0  0  0  0
  1  2  1  0
  2  3  1  0
  3  4  1  0
  4  5  2  0
  3  6  1  0
  6  7  1  0
  7  8  1  0
  8  9  1  0
  7  2  1  0
  8  2  1  0
  1 10  1  0
  1 11  1  0
  1 12  1  0
  3 13  1  0
  4 14  1  0
  6 15  1  0
  6 16  1  0
  7 17  1  0
  8 18  1  0
  9 19  1  0
M  END
