
     RDKit          3D

 19 20  0  0  0  0  0  0  0  0999 V2000
   -2.0130   -0.0498   -0.1208 C   0  0  0  0  0  0  0  0  0  0  0  0
   -0.5355   -0.0283   -0.0112 C   0  0  0  0  0  0  0  0  0  0  0  0
    0.0758    0.9618   -0.9823 C   0  0  0  0  0  0  0  0  0  0  0  0
    1.4006    0.9620   -0.8839 C   0  0  0  0  0  0  0  0  0  0  0  0
    1.9268    0.0149    0.1384 C   0  0  0  0  0  0  0  0  0  0  0  0
    1.4815   -1.2740   -0.1810 O   0  0  0  0  0  0  0  0  0  0  0  0
    0.1167   -1.3702   -0.3183 C   0  0  0  0  0  0  0  0  0  0  0  0
    1.3498    0.4302    1.3570 O   0  0  0  0  0  0  0  0  0  0  0  0
   -0.0230    0.3796    1.3531 C   0  0  0  0  0  0  0  0  0  0  0  0
   -2.4158   -0.9927    0.2991 H   0  0  0  0  0  0  0  0  0  0  0  0
   -2.4242    0.8482    0.3561 H   0  0  0  0  0  0  0  0  0  0  0  0
   -2.2714   -0.0200   -1.2181 H   0  0  0  0  0  0  0  0  0  0  0  0
   -0.5028    1.5632   -1.6431 H   0  0  0  0  0  0  0  0  0  0  0  0
    2.0899    1.5568   -1.4501 H   0  0  0  0  0  0  0  0  0  0  0  0
    3.0053    0.0104    0.2351 H   0  0  0  0  0  0  0  0  0  0  0  0
   -0.2000   -1.7369   -1.3150 H   0  0  0  0  0  0  0  0  0  0  0  0
   -0.2479   -2.1144    0.4210 H   0  0  0  0  0  0  0  0  0  0  0  0
   -0.4940    1.3128    1.7079 H   0  0  0  0  0  0  0  0  0  0  0  0
   -0.3187   -0.4536    2.0500 H   0  0  0  0  0  0  0  0  0  0  0  0
  1  2  1  0
  2  3  1  0
  3  4  2  0
  4  5  1  0
  5  6  1  0
  6  7  1  0
  5  8  1  0
  8  9  1  0
  7  2  1  0
  9  2  1  0
  1 10  1  0
  1 11  1  0
  1 12  1  0
  3 13  1  0
  4 14  1  0
  5 15  1  0
  7 16  1  0
  7 17  1  0
  9 18  1  0
  9 19  1  0
M  END
