
     RDKit          3D

 21 24  0  0  0  0  0  0  0  0999 V2000
    2.1934    0.1194   -0.3236 C   0  0  0  0  0  0  0  0  0  0  0  0
    0.7691    0.1118   -0.0449 C   0  0  0  0  0  0  0  0  0  0  0  0
    0.2985   -0.6240    1.2231 C   0  0  0  0  0  0  0  0  0  0  0  0
   -1.2012   -0.5225    0.8995 C   0  0  0  0  0  0  0  0  0  0  0  0
   -1.1654   -1.2526   -0.4518 C   0  0  0  0  0  0  0  0  0  0  0  0
   -0.2029   -0.2641   -1.1269 C   0  0  0  0  0  0  0  0  0  0  0  0
   -0.9261    1.0184   -0.8731 C   0  0  0  0  0  0  0  0  0  0  0  0
   -1.3519    0.9106    0.5356 C   0  0  0  0  0  0  0  0  0  0  0  0
    0.0219    1.3845    0.1418 C   0  0  0  0  0  0  0  0  0  0  0  0
    2.6999    1.0957   -0.3822 H   0  0  0  0  0  0  0  0  0  0  0  0
    2.3768   -0.3698   -1.3261 H   0  0  0  0  0  0  0  0  0  0  0  0
    2.7752   -0.5184    0.3961 H   0  0  0  0  0  0  0  0  0  0  0  0
    0.5601   -0.0128    2.0937 H   0  0  0  0  0  0  0  0  0  0  0  0
    0.6451   -1.6547    1.2514 H   0  0  0  0  0  0  0  0  0  0  0  0
   -1.8439   -0.9434    1.6207 H   0  0  0  0  0  0  0  0  0  0  0  0
   -0.6313   -2.2018   -0.3873 H   0  0  0  0  0  0  0  0  0  0  0  0
   -2.1399   -1.2775   -0.9342 H   0  0  0  0  0  0  0  0  0  0  0  0
    0.1480   -0.5084   -2.0986 H   0  0  0  0  0  0  0  0  0  0  0  0
   -1.3854    1.6184   -1.6301 H   0  0  0  0  0  0  0  0  0  0  0  0
   -2.0738    1.5673    1.0078 H   0  0  0  0  0  0  0  0  0  0  0  0
    0.4337    2.3238    0.4091 H   0  0  0  0  0  0  0  0  0  0  0  0
  1  2  1  0
  2  3  1  0
  3  4  1  0
  4  5  1  0
  5  6  1  0
  6  7  1  0
  7  8  1  0
  8  9  1  0
  6  2  1  0
  9  7  1  0
  9  2  1  0
  8  4  1  0
  1 10  1  0
  1 11  1  0
  1 12  1  0
  3 13  1  0
  3 14  1  0
  4 15  1  0
  5 16  1  0
  5 17  1  0
  6 18  1  0
  7 19  1  0
  8 20  1  0
  9 21  1  0
M  END
