
     RDKit          3D

 19 20  0  0  0  0  0  0  0  0999 V2000
   -2.3043    0.2763   -0.4471 C   0  0  0  0  0  0  0  0  0  0  0  0
   -1.1027   -0.4214    0.1532 C   0  0  0  0  0  0  0  0  0  0  0  0
   -0.3706   -1.1310   -0.8469 C   0  0  0  0  0  0  0  0  0  0  0  0
    0.3308   -0.0160   -0.2940 C   0  0  0  0  0  0  0  0  0  0  0  0
    1.4886   -0.4600    0.5805 C   0  0  0  0  0  0  0  0  0  0  0  0
    2.7818    0.0061    0.0282 C   0  0  0  0  0  0  0  0  0  0  0  0
    2.7767    0.6478   -0.9943 O   0  0  0  0  0  0  0  0  0  0  0  0
   -0.2563    1.2332    0.3047 C   0  0  0  0  0  0  0  0  0  0  0  0
   -0.6850    0.2804    1.2686 O   0  0  0  0  0  0  0  0  0  0  0  0
   -2.1224    0.6527   -1.4756 H   0  0  0  0  0  0  0  0  0  0  0  0
   -2.8162    0.9798    0.2177 H   0  0  0  0  0  0  0  0  0  0  0  0
   -3.0583   -0.5579   -0.6045 H   0  0  0  0  0  0  0  0  0  0  0  0
   -0.5790   -1.0607   -1.9546 H   0  0  0  0  0  0  0  0  0  0  0  0
   -0.1400   -2.2163   -0.6137 H   0  0  0  0  0  0  0  0  0  0  0  0
    1.5525   -1.5807    0.5779 H   0  0  0  0  0  0  0  0  0  0  0  0
    1.3566   -0.0998    1.6326 H   0  0  0  0  0  0  0  0  0  0  0  0
    3.6863   -0.2339    0.5430 H   0  0  0  0  0  0  0  0  0  0  0  0
    0.4642    1.9123    0.7819 H   0  0  0  0  0  0  0  0  0  0  0  0
   -1.0029    1.7892   -0.2214 H   0  0  0  0  0  0  0  0  0  0  0  0
  1  2  1  0
  2  3  1  0
  3  4  1  0
  4  5  1  0
  5  6  1  0
  6  7  2  0
  4  8  1  0
  8  9  1  0
  4  2  1  0
  9  2  1  0
  1 10  1  0
  1 11  1  0
  1 12  1  0
  3 13  1  0
  3 14  1  0
  5 15  1  0
  5 16  1  0
  6 17  1  0
  8 18  1  0
  8 19  1  0
M  END
