
     RDKit          3D

 19 21  0  0  0  0  0  0  0  0999 V2000
   -1.4096    1.4037   -0.5468 C   0  0  0  0  0  0  0  0  0  0  0  0
   -0.6557    0.3438    0.1747 C   0  0  0  0  0  0  0  0  0  0  0  0
   -1.4217   -0.8810    0.6585 C   0  0  0  0  0  0  0  0  0  0  0  0
   -0.3486   -0.9722   -0.3664 C   0  0  0  0  0  0  0  0  0  0  0  0
   -0.5909   -1.3494   -1.6602 O   0  0  0  0  0  0  0  0  0  0  0  0
    1.0577   -0.9477    0.1849 C   0  0  0  0  0  0  0  0  0  0  0  0
    1.9230    0.1782   -0.1781 C   0  0  0  0  0  0  0  0  0  0  0  0
    3.1533    0.2707    0.4865 O   0  0  0  0  0  0  0  0  0  0  0  0
    0.7442    0.5203    0.6291 C   0  0  0  0  0  0  0  0  0  0  0  0
   -1.0484    1.5792   -1.5677 H   0  0  0  0  0  0  0  0  0  0  0  0
   -1.3054    2.3807   -0.0085 H   0  0  0  0  0  0  0  0  0  0  0  0
   -2.4991    1.1401   -0.5362 H   0  0  0  0  0  0  0  0  0  0  0  0
   -1.1843   -1.1151    1.7273 H   0  0  0  0  0  0  0  0  0  0  0  0
   -2.4650   -0.9951    0.3785 H   0  0  0  0  0  0  0  0  0  0  0  0
   -1.2323   -0.7869   -2.1439 H   0  0  0  0  0  0  0  0  0  0  0  0
    1.2559   -1.6500    1.0006 H   0  0  0  0  0  0  0  0  0  0  0  0
    2.0007    0.4046   -1.2642 H   0  0  0  0  0  0  0  0  0  0  0  0
    3.1524   -0.2614    1.3330 H   0  0  0  0  0  0  0  0  0  0  0  0
    0.8737    0.7376    1.6989 H   0  0  0  0  0  0  0  0  0  0  0  0
  1  2  1  0
  2  3  1  0
  3  4  1  0
  4  5  1  0
  4  6  1  0
  6  7  1  0
  7  8  1  0
  7  9  1  0
  4  2  1  0
  9  6  1  0
  9  2  1  0
  1 10  1  0
  1 11  1  0
  1 12  1  0
  3 13  1  0
  3 14  1  0
  5 15  1  0
  6 16  1  0
  7 17  1  0
  8 18  1  0
  9 19  1  0
M  END
