
     RDKit          3D

 19 21  0  0  0  0  0  0  0  0999 V2000
    2.3184   -0.2328    0.1048 C   0  0  0  0  0  0  0  0  0  0  0  0
    0.8512   -0.3158   -0.1225 C   0  0  0  0  0  0  0  0  0  0  0  0
    0.3221   -0.9230   -1.2314 O   0  0  0  0  0  0  0  0  0  0  0  0
   -0.7568   -0.0446   -1.2877 C   0  0  0  0  0  0  0  0  0  0  0  0
   -1.8806   -0.5975   -0.4147 C   0  0  0  0  0  0  0  0  0  0  0  0
   -1.3914   -0.5445    0.9999 C   0  0  0  0  0  0  0  0  0  0  0  0
   -0.0961    0.2761    0.9305 C   0  0  0  0  0  0  0  0  0  0  0  0
    0.0046    0.8637   -0.3775 C   0  0  0  0  0  0  0  0  0  0  0  0
    0.4956    2.0596   -0.7381 O   0  0  0  0  0  0  0  0  0  0  0  0
    2.8615    0.4409   -0.5584 H   0  0  0  0  0  0  0  0  0  0  0  0
    2.7336   -1.2759    0.1178 H   0  0  0  0  0  0  0  0  0  0  0  0
    2.4732    0.1353    1.1580 H   0  0  0  0  0  0  0  0  0  0  0  0
   -1.0473    0.3291   -2.2604 H   0  0  0  0  0  0  0  0  0  0  0  0
   -2.0175   -1.6794   -0.7051 H   0  0  0  0  0  0  0  0  0  0  0  0
   -2.8365   -0.0823   -0.5860 H   0  0  0  0  0  0  0  0  0  0  0  0
   -1.0588   -1.5537    1.3765 H   0  0  0  0  0  0  0  0  0  0  0  0
   -2.0849   -0.0446    1.6895 H   0  0  0  0  0  0  0  0  0  0  0  0
    0.3875    0.5969    1.8429 H   0  0  0  0  0  0  0  0  0  0  0  0
    0.7220    2.5927    0.0618 H   0  0  0  0  0  0  0  0  0  0  0  0
  1  2  1  0
  2  3  1  0
  3  4  1  0
  4  5  1  0
  5  6  1  0
  6  7  1  0
  7  8  1  0
  8  9  1  0
  7  2  1  0
  8  2  1  0
  8  4  1  0
  1 10  1  0
  1 11  1  0
  1 12  1  0
  4 13  1  0
  5 14  1  0
  5 15  1  0
  6 16  1  0
  6 17  1  0
  7 18  1  0
  9 19  1  0
M  END
