
     RDKit          3D

 19 21  0  0  0  0  0  0  0  0999 V2000
    2.3747    0.0030   -0.4431 C   0  0  0  0  0  0  0  0  0  0  0  0
    0.9356    0.0439   -0.2614 C   0  0  0  0  0  0  0  0  0  0  0  0
    0.4732   -0.7157    0.9992 C   0  0  0  0  0  0  0  0  0  0  0  0
   -0.9877   -0.4086    0.7981 C   0  0  0  0  0  0  0  0  0  0  0  0
   -1.1342   -0.6558   -0.6878 C   0  0  0  0  0  0  0  0  0  0  0  0
   -1.8814    0.6860   -0.7163 C   0  0  0  0  0  0  0  0  0  0  0  0
   -0.9326    1.0557    0.4343 C   0  0  0  0  0  0  0  0  0  0  0  0
    0.3826    1.2930    0.0011 O   0  0  0  0  0  0  0  0  0  0  0  0
    0.1594   -0.5647   -1.2249 O   0  0  0  0  0  0  0  0  0  0  0  0
    2.8811    0.8352    0.0858 H   0  0  0  0  0  0  0  0  0  0  0  0
    2.7878   -0.9368    0.0266 H   0  0  0  0  0  0  0  0  0  0  0  0
    2.7222    0.0157   -1.4777 H   0  0  0  0  0  0  0  0  0  0  0  0
    0.8975   -0.1783    1.8521 H   0  0  0  0  0  0  0  0  0  0  0  0
    0.7335   -1.7664    0.9137 H   0  0  0  0  0  0  0  0  0  0  0  0
   -1.7165   -0.7673    1.4688 H   0  0  0  0  0  0  0  0  0  0  0  0
   -1.7189   -1.5153   -0.9905 H   0  0  0  0  0  0  0  0  0  0  0  0
   -2.8877    0.5499   -0.3086 H   0  0  0  0  0  0  0  0  0  0  0  0
   -1.7539    1.2670   -1.6246 H   0  0  0  0  0  0  0  0  0  0  0  0
   -1.3346    1.7595    1.1553 H   0  0  0  0  0  0  0  0  0  0  0  0
  1  2  1  0
  2  3  1  0
  3  4  1  0
  4  5  1  0
  5  6  1  0
  6  7  1  0
  7  8  1  0
  5  9  1  0
  8  2  1  0
  9  2  1  0
  7  4  1  0
  1 10  1  0
  1 11  1  0
  1 12  1  0
  3 13  1  0
  3 14  1  0
  4 15  1  0
  5 16  1  0
  6 17  1  0
  6 18  1  0
  7 19  1  0
M  END
