
     RDKit          3D

 17 18  0  0  0  0  0  0  0  0999 V2000
    1.7892    0.1905    0.6086 C   0  0  0  0  0  0  0  0  0  0  0  0
    1.0072   -0.2010   -0.6104 C   0  0  0  0  0  0  0  0  0  0  0  0
    1.0086    0.7541   -1.5035 O   0  0  0  0  0  0  0  0  0  0  0  0
   -0.1973    0.6957   -1.0350 C   0  0  0  0  0  0  0  0  0  0  0  0
   -0.8561    0.6416    0.2781 C   0  0  0  0  0  0  0  0  0  0  0  0
   -2.1657    1.1420    0.2063 O   0  0  0  0  0  0  0  0  0  0  0  0
   -0.9955   -0.8809    0.4101 C   0  0  0  0  0  0  0  0  0  0  0  0
    0.1764   -1.3883   -0.4029 C   0  0  0  0  0  0  0  0  0  0  0  0
    0.3637   -2.5253   -0.7847 O   0  0  0  0  0  0  0  0  0  0  0  0
    1.6489    1.2300    0.9266 H   0  0  0  0  0  0  0  0  0  0  0  0
    2.8799    0.1453    0.3054 H   0  0  0  0  0  0  0  0  0  0  0  0
    1.7059   -0.5339    1.4452 H   0  0  0  0  0  0  0  0  0  0  0  0
   -0.8926    0.2112   -1.7948 H   0  0  0  0  0  0  0  0  0  0  0  0
   -0.3778    1.1032    1.1179 H   0  0  0  0  0  0  0  0  0  0  0  0
   -2.2510    1.8448   -0.4810 H   0  0  0  0  0  0  0  0  0  0  0  0
   -0.9436   -1.2129    1.4496 H   0  0  0  0  0  0  0  0  0  0  0  0
   -1.9004   -1.2162   -0.1356 H   0  0  0  0  0  0  0  0  0  0  0  0
  1  2  1  0
  2  3  1  0
  3  4  1  0
  4  5  1  0
  5  6  1  0
  5  7  1  0
  7  8  1  0
  8  9  2  0
  4  2  1  0
  8  2  1  0
  1 10  1  0
  1 11  1  0
  1 12  1  0
  4 13  1  0
  5 14  1  0
  6 15  1  0
  7 16  1  0
  7 17  1  0
M  END
