
     RDKit          3D

 23 24  0  0  0  0  0  0  0  0999 V2000
    2.2896    0.2267   -0.8161 C   0  0  0  0  0  0  0  0  0  0  0  0
    1.0239    0.1043   -0.1122 C   0  0  0  0  0  0  0  0  0  0  0  0
    0.7520   -1.2190    0.5688 C   0  0  0  0  0  0  0  0  0  0  0  0
   -0.7460   -1.0712    0.8827 C   0  0  0  0  0  0  0  0  0  0  0  0
   -1.1942    0.1900    0.1823 C   0  0  0  0  0  0  0  0  0  0  0  0
   -2.6041    0.2415   -0.1986 C   0  0  0  0  0  0  0  0  0  0  0  0
   -0.2240    0.1847   -1.0119 C   0  0  0  0  0  0  0  0  0  0  0  0
   -0.7228    1.2781    0.8945 O   0  0  0  0  0  0  0  0  0  0  0  0
    0.6693    1.2677    0.8149 C   0  0  0  0  0  0  0  0  0  0  0  0
    2.9200   -0.6876   -0.6132 H   0  0  0  0  0  0  0  0  0  0  0  0
    2.8865    1.0777   -0.4365 H   0  0  0  0  0  0  0  0  0  0  0  0
    2.1925    0.3122   -1.9190 H   0  0  0  0  0  0  0  0  0  0  0  0
    0.8815   -2.0081   -0.1738 H   0  0  0  0  0  0  0  0  0  0  0  0
    1.3420   -1.3381    1.4869 H   0  0  0  0  0  0  0  0  0  0  0  0
   -1.2691   -1.9765    0.5255 H   0  0  0  0  0  0  0  0  0  0  0  0
   -0.9142   -0.9655    1.9652 H   0  0  0  0  0  0  0  0  0  0  0  0
   -3.2124    0.6311    0.6305 H   0  0  0  0  0  0  0  0  0  0  0  0
   -2.7210    0.8164   -1.1407 H   0  0  0  0  0  0  0  0  0  0  0  0
   -2.9451   -0.8085   -0.4375 H   0  0  0  0  0  0  0  0  0  0  0  0
   -0.2759   -0.7398   -1.5790 H   0  0  0  0  0  0  0  0  0  0  0  0
   -0.2569    1.1118   -1.5755 H   0  0  0  0  0  0  0  0  0  0  0  0
    0.9642    2.1828    0.2748 H   0  0  0  0  0  0  0  0  0  0  0  0
    1.1644    1.1893    1.7879 H   0  0  0  0  0  0  0  0  0  0  0  0
  1  2  1  0
  2  3  1  0
  3  4  1  0
  4  5  1  0
  5  6  1  0
  5  7  1  0
  5  8  1  0
  8  9  1  0
  7  2  1  0
  9  2  1  0
  1 10  1  0
  1 11  1  0
  1 12  1  0
  3 13  1  0
  3 14  1  0
  4 15  1  0
  4 16  1  0
  6 17  1  0
  6 18  1  0
  6 19  1  0
  7 20  1  0
  7 21  1  0
  9 22  1  0
  9 23  1  0
M  END
