
     RDKit          3D

 19 21  0  0  0  0  0  0  0  0999 V2000
   -2.2522   -0.1616   -0.3387 C   0  0  0  0  0  0  0  0  0  0  0  0
   -0.8646   -0.1181    0.0434 C   0  0  0  0  0  0  0  0  0  0  0  0
   -0.2989    1.2606    0.3818 C   0  0  0  0  0  0  0  0  0  0  0  0
    1.1097    0.7973    0.7637 C   0  0  0  0  0  0  0  0  0  0  0  0
    0.9620   -0.6058    1.1442 C   0  0  0  0  0  0  0  0  0  0  0  0
   -0.4288   -0.8591    1.1011 O   0  0  0  0  0  0  0  0  0  0  0  0
    1.4018   -0.2578   -0.2074 C   0  0  0  0  0  0  0  0  0  0  0  0
    2.6294   -0.4284   -0.7218 O   0  0  0  0  0  0  0  0  0  0  0  0
    0.1431   -0.5126   -1.0430 C   0  0  0  0  0  0  0  0  0  0  0  0
   -2.8795   -0.5872    0.4991 H   0  0  0  0  0  0  0  0  0  0  0  0
   -2.4569   -0.7927   -1.2397 H   0  0  0  0  0  0  0  0  0  0  0  0
   -2.6508    0.8828   -0.4907 H   0  0  0  0  0  0  0  0  0  0  0  0
   -0.2906    1.8229   -0.5716 H   0  0  0  0  0  0  0  0  0  0  0  0
   -0.8177    1.7446    1.2018 H   0  0  0  0  0  0  0  0  0  0  0  0
    1.8250    1.4996    1.1568 H   0  0  0  0  0  0  0  0  0  0  0  0
    1.5599   -1.1199    1.8906 H   0  0  0  0  0  0  0  0  0  0  0  0
    3.1278   -1.1947   -0.4013 H   0  0  0  0  0  0  0  0  0  0  0  0
    0.0153   -1.5627   -1.2994 H   0  0  0  0  0  0  0  0  0  0  0  0
    0.1660    0.1927   -1.8691 H   0  0  0  0  0  0  0  0  0  0  0  0
  1  2  1  0
  2  3  1  0
  3  4  1  0
  4  5  1  0
  5  6  1  0
  5  7  1  0
  7  8  1  0
  7  9  1  0
  6  2  1  0
  9  2  1  0
  7  4  1  0
  1 10  1  0
  1 11  1  0
  1 12  1  0
  3 13  1  0
  3 14  1  0
  4 15  1  0
  5 16  1  0
  8 17  1  0
  9 18  1  0
  9 19  1  0
M  END
