
     RDKit          3D

 17 18  0  0  0  0  0  0  0  0999 V2000
   -1.1642   -1.2431    0.2435 C   0  0  0  0  0  0  0  0  0  0  0  0
   -0.1066   -0.3598   -0.3634 C   0  0  0  0  0  0  0  0  0  0  0  0
    1.0367   -0.9583   -1.0656 C   0  0  0  0  0  0  0  0  0  0  0  0
    1.2063   -1.8327   -1.8814 O   0  0  0  0  0  0  0  0  0  0  0  0
    1.9713   -0.0404   -0.3651 C   0  0  0  0  0  0  0  0  0  0  0  0
    0.8225    0.4234    0.4790 C   0  0  0  0  0  0  0  0  0  0  0  0
   -0.2856    1.1008   -0.2433 C   0  0  0  0  0  0  0  0  0  0  0  0
   -1.4115    1.5542    0.5951 C   0  0  0  0  0  0  0  0  0  0  0  0
   -2.0543    2.5410    0.2913 O   0  0  0  0  0  0  0  0  0  0  0  0
   -0.7891   -2.2891    0.2204 H   0  0  0  0  0  0  0  0  0  0  0  0
   -1.3753   -1.0091    1.3008 H   0  0  0  0  0  0  0  0  0  0  0  0
   -2.1037   -1.1787   -0.3653 H   0  0  0  0  0  0  0  0  0  0  0  0
    2.7438   -0.5161    0.2577 H   0  0  0  0  0  0  0  0  0  0  0  0
    2.4336    0.7203   -1.0275 H   0  0  0  0  0  0  0  0  0  0  0  0
    0.8460    0.3610    1.5630 H   0  0  0  0  0  0  0  0  0  0  0  0
   -0.0615    1.6894   -1.1400 H   0  0  0  0  0  0  0  0  0  0  0  0
   -1.7084    1.0369    1.5009 H   0  0  0  0  0  0  0  0  0  0  0  0
  1  2  1  0
  2  3  1  0
  3  4  2  0
  3  5  1  0
  5  6  1  0
  6  7  1  0
  7  8  1  0
  8  9  2  0
  6  2  1  0
  7  2  1  0
  1 10  1  0
  1 11  1  0
  1 12  1  0
  5 13  1  0
  5 14  1  0
  6 15  1  0
  7 16  1  0
  8 17  1  0
M  END
