
     RDKit          3D

 18 19  0  0  0  0  0  0  0  0999 V2000
   -2.0213   -0.8340   -0.6299 C   0  0  0  0  0  0  0  0  0  0  0  0
   -0.9005   -0.1186    0.1177 C   0  0  0  0  0  0  0  0  0  0  0  0
    0.0268   -1.0485    0.8364 C   0  0  0  0  0  0  0  0  0  0  0  0
    1.0337   -0.3809    1.5149 O   0  0  0  0  0  0  0  0  0  0  0  0
    1.8477    0.2211    0.5522 C   0  0  0  0  0  0  0  0  0  0  0  0
    1.1306    1.3332   -0.1674 C   0  0  0  0  0  0  0  0  0  0  0  0
   -0.2858    1.0037   -0.5153 C   0  0  0  0  0  0  0  0  0  0  0  0
   -1.1645    1.1440    0.5985 O   0  0  0  0  0  0  0  0  0  0  0  0
   -2.1779   -1.8507   -0.2437 H   0  0  0  0  0  0  0  0  0  0  0  0
   -1.7197   -0.9380   -1.7009 H   0  0  0  0  0  0  0  0  0  0  0  0
   -2.9620   -0.2848   -0.6163 H   0  0  0  0  0  0  0  0  0  0  0  0
    0.5052   -1.7112    0.0677 H   0  0  0  0  0  0  0  0  0  0  0  0
   -0.4862   -1.7183    1.5450 H   0  0  0  0  0  0  0  0  0  0  0  0
    2.1528   -0.5468   -0.2086 H   0  0  0  0  0  0  0  0  0  0  0  0
    2.7717    0.5973    0.9955 H   0  0  0  0  0  0  0  0  0  0  0  0
    1.2109    2.2492    0.4568 H   0  0  0  0  0  0  0  0  0  0  0  0
    1.7375    1.5452   -1.0921 H   0  0  0  0  0  0  0  0  0  0  0  0
   -0.6988    1.3381   -1.5103 H   0  0  0  0  0  0  0  0  0  0  0  0
  1  2  1  0
  2  3  1  0
  3  4  1  0
  4  5  1  0
  5  6  1  0
  6  7  1  0
  7  8  1  0
  7  2  1  0
  8  2  1  0
  1  9  1  0
  1 10  1  0
  1 11  1  0
  3 12  1  0
  3 13  1  0
  5 14  1  0
  5 15  1  0
  6 16  1  0
  6 17  1  0
  7 18  1  0
M  END
