
     RDKit          3D

 19 20  0  0  0  0  0  0  0  0999 V2000
   -2.1280    0.1477   -0.2669 C   0  0  0  0  0  0  0  0  0  0  0  0
   -0.6473    0.1523   -0.5499 C   0  0  0  0  0  0  0  0  0  0  0  0
    0.0765    1.4392   -0.6268 C   0  0  0  0  0  0  0  0  0  0  0  0
    1.1288    1.4293    0.1700 C   0  0  0  0  0  0  0  0  0  0  0  0
    1.2336    0.1347    0.8743 C   0  0  0  0  0  0  0  0  0  0  0  0
    2.4897   -0.4153    0.8419 O   0  0  0  0  0  0  0  0  0  0  0  0
    0.1564   -0.7564    0.3279 C   0  0  0  0  0  0  0  0  0  0  0  0
   -0.4929   -1.5999    1.2055 O   0  0  0  0  0  0  0  0  0  0  0  0
    0.0340   -1.0144   -1.1231 C   0  0  0  0  0  0  0  0  0  0  0  0
   -2.3710   -0.4229    0.6656 H   0  0  0  0  0  0  0  0  0  0  0  0
   -2.7201   -0.3055   -1.0949 H   0  0  0  0  0  0  0  0  0  0  0  0
   -2.4974    1.1891   -0.1644 H   0  0  0  0  0  0  0  0  0  0  0  0
   -0.2253    2.2588   -1.2500 H   0  0  0  0  0  0  0  0  0  0  0  0
    1.8116    2.2550    0.2848 H   0  0  0  0  0  0  0  0  0  0  0  0
    0.9868    0.3204    1.9595 H   0  0  0  0  0  0  0  0  0  0  0  0
    2.8911   -0.3534   -0.0623 H   0  0  0  0  0  0  0  0  0  0  0  0
   -0.0150   -1.7356    2.0530 H   0  0  0  0  0  0  0  0  0  0  0  0
    0.8620   -0.8226   -1.8340 H   0  0  0  0  0  0  0  0  0  0  0  0
   -0.5734   -1.9004   -1.4103 H   0  0  0  0  0  0  0  0  0  0  0  0
  1  2  1  0
  2  3  1  0
  3  4  2  0
  4  5  1  0
  5  6  1  0
  5  7  1  0
  7  8  1  0
  7  9  1  0
  7  2  1  0
  9  2  1  0
  1 10  1  0
  1 11  1  0
  1 12  1  0
  3 13  1  0
  4 14  1  0
  5 15  1  0
  6 16  1  0
  8 17  1  0
  9 18  1  0
  9 19  1  0
M  END
