
     RDKit          3D

 19 21  0  0  0  0  0  0  0  0999 V2000
    2.2138    0.3382   -0.3177 C   0  0  0  0  0  0  0  0  0  0  0  0
    0.7610    0.0953   -0.0006 C   0  0  0  0  0  0  0  0  0  0  0  0
    0.3701   -1.0799    0.8486 C   0  0  0  0  0  0  0  0  0  0  0  0
   -0.9042   -1.1801    0.0031 C   0  0  0  0  0  0  0  0  0  0  0  0
   -1.9057   -0.2496    0.5671 C   0  0  0  0  0  0  0  0  0  0  0  0
   -2.8929   -0.5782    1.1714 O   0  0  0  0  0  0  0  0  0  0  0  0
   -1.5155    1.1503    0.2791 C   0  0  0  0  0  0  0  0  0  0  0  0
   -0.2404    1.0062   -0.5707 C   0  0  0  0  0  0  0  0  0  0  0  0
   -0.1895   -0.3763   -1.0355 C   0  0  0  0  0  0  0  0  0  0  0  0
    2.8320   -0.5805   -0.2198 H   0  0  0  0  0  0  0  0  0  0  0  0
    2.6185    1.0480    0.4567 H   0  0  0  0  0  0  0  0  0  0  0  0
    2.2680    0.7853   -1.3325 H   0  0  0  0  0  0  0  0  0  0  0  0
    0.1743   -0.7552    1.8885 H   0  0  0  0  0  0  0  0  0  0  0  0
    0.9466   -1.9974    0.7209 H   0  0  0  0  0  0  0  0  0  0  0  0
   -1.2250   -2.1819   -0.2467 H   0  0  0  0  0  0  0  0  0  0  0  0
   -1.2300    1.7066    1.2125 H   0  0  0  0  0  0  0  0  0  0  0  0
   -2.2645    1.7083   -0.2981 H   0  0  0  0  0  0  0  0  0  0  0  0
    0.1011    1.8789   -1.1181 H   0  0  0  0  0  0  0  0  0  0  0  0
    0.0821   -0.7381   -2.0084 H   0  0  0  0  0  0  0  0  0  0  0  0
  1  2  1  0
  2  3  1  0
  3  4  1  0
  4  5  1  0
  5  6  2  0
  5  7  1  0
  7  8  1  0
  8  9  1  0
  8  2  1  0
  9  2  1  0
  9  4  1  0
  1 10  1  0
  1 11  1  0
  1 12  1  0
  3 13  1  0
  3 14  1  0
  4 15  1  0
  7 16  1  0
  7 17  1  0
  8 18  1  0
  9 19  1  0
M  END
