
     RDKit          3D

 21 22  0  0  0  0  0  0  0  0999 V2000
   -2.1672   -0.3307   -0.9375 C   0  0  0  0  0  0  0  0  0  0  0  0
   -1.0931   -0.2119    0.1007 C   0  0  0  0  0  0  0  0  0  0  0  0
   -0.0916   -1.3101    0.2739 C   0  0  0  0  0  0  0  0  0  0  0  0
    1.0051   -0.2888    0.4355 C   0  0  0  0  0  0  0  0  0  0  0  0
    2.2169   -0.4923   -0.4302 C   0  0  0  0  0  0  0  0  0  0  0  0
    3.1104    0.5449   -0.1377 O   0  0  0  0  0  0  0  0  0  0  0  0
    0.0286    0.7475   -0.0349 C   0  0  0  0  0  0  0  0  0  0  0  0
   -1.0877    1.0100    0.9164 C   0  0  0  0  0  0  0  0  0  0  0  0
   -1.9529    2.0166    0.5568 O   0  0  0  0  0  0  0  0  0  0  0  0
   -1.8314   -0.7821   -1.8857 H   0  0  0  0  0  0  0  0  0  0  0  0
   -2.9560   -1.0228   -0.5204 H   0  0  0  0  0  0  0  0  0  0  0  0
   -2.6703    0.6352   -1.0845 H   0  0  0  0  0  0  0  0  0  0  0  0
   -0.2153   -1.9524    1.1664 H   0  0  0  0  0  0  0  0  0  0  0  0
    0.1109   -1.9228   -0.6322 H   0  0  0  0  0  0  0  0  0  0  0  0
    1.3119   -0.1775    1.4953 H   0  0  0  0  0  0  0  0  0  0  0  0
    2.0009   -0.4517   -1.5093 H   0  0  0  0  0  0  0  0  0  0  0  0
    2.7221   -1.4327   -0.1286 H   0  0  0  0  0  0  0  0  0  0  0  0
    3.6978    0.3299    0.6303 H   0  0  0  0  0  0  0  0  0  0  0  0
    0.2074    1.3526   -0.9180 H   0  0  0  0  0  0  0  0  0  0  0  0
   -0.9019    0.8587    2.0091 H   0  0  0  0  0  0  0  0  0  0  0  0
   -1.4445    2.8805    0.6346 H   0  0  0  0  0  0  0  0  0  0  0  0
  1  2  1  0
  2  3  1  0
  3  4  1  0
  4  5  1  0
  5  6  1  0
  4  7  1  0
  7  8  1  0
  8  9  1  0
  7  2  1  0
  8  2  1  0
  1 10  1  0
  1 11  1  0
  1 12  1  0
  3 13  1  0
  3 14  1  0
  4 15  1  0
  5 16  1  0
  5 17  1  0
  6 18  1  0
  7 19  1  0
  8 20  1  0
  9 21  1  0
M  END
