
     RDKit          3D

 21 22  0  0  0  0  0  0  0  0999 V2000
   -1.2937    1.5345    0.8389 C   0  0  0  0  0  0  0  0  0  0  0  0
   -0.5573    0.6124   -0.1189 C   0  0  0  0  0  0  0  0  0  0  0  0
   -1.4318   -0.4484   -0.7549 C   0  0  0  0  0  0  0  0  0  0  0  0
   -0.8101   -1.5232    0.1357 C   0  0  0  0  0  0  0  0  0  0  0  0
    0.2289   -0.4818    0.5219 C   0  0  0  0  0  0  0  0  0  0  0  0
    1.4745   -0.5421   -0.3238 C   0  0  0  0  0  0  0  0  0  0  0  0
    2.5393   -0.8244    0.5247 O   0  0  0  0  0  0  0  0  0  0  0  0
    1.5320    0.8646   -0.8787 C   0  0  0  0  0  0  0  0  0  0  0  0
    0.2466    1.3282   -0.9502 O   0  0  0  0  0  0  0  0  0  0  0  0
   -2.3552    1.5622    0.5253 H   0  0  0  0  0  0  0  0  0  0  0  0
   -0.9320    2.5948    0.7448 H   0  0  0  0  0  0  0  0  0  0  0  0
   -1.1452    1.2587    1.8890 H   0  0  0  0  0  0  0  0  0  0  0  0
   -2.5031   -0.3804   -0.5250 H   0  0  0  0  0  0  0  0  0  0  0  0
   -1.2343   -0.6853   -1.7971 H   0  0  0  0  0  0  0  0  0  0  0  0
   -0.4067   -2.3924   -0.3972 H   0  0  0  0  0  0  0  0  0  0  0  0
   -1.4571   -1.8598    0.9648 H   0  0  0  0  0  0  0  0  0  0  0  0
    0.3592   -0.4287    1.6000 H   0  0  0  0  0  0  0  0  0  0  0  0
    1.3572   -1.3084   -1.1253 H   0  0  0  0  0  0  0  0  0  0  0  0
    2.2279   -1.2697    1.3526 H   0  0  0  0  0  0  0  0  0  0  0  0
    2.2203    1.5165   -0.2967 H   0  0  0  0  0  0  0  0  0  0  0  0
    1.9406    0.8726   -1.9299 H   0  0  0  0  0  0  0  0  0  0  0  0
  1  2  1  0
  2  3  1  0
  3  4  1  0
  4  5  1  0
  5  6  1  0
  6  7  1  0
  6  8  1  0
  8  9  1  0
  5  2  1  0
  9  2  1  0
  1 10  1  0
  1 11  1  0
  1 12  1  0
  3 13  1  0
  3 14  1  0
  4 15  1  0
  4 16  1  0
  5 17  1  0
  6 18  1  0
  7 19  1  0
  8 20  1  0
  8 21  1  0
M  END
