
     RDKit          3D

 18 20  0  0  0  0  0  0  0  0999 V2000
   -0.8566    0.8414    0.9974 C   0  0  0  0  0  0  0  0  0  0  0  0
   -0.6427    0.3017   -0.4297 C   0  0  0  0  0  0  0  0  0  0  0  0
    0.6444    0.8329   -0.9492 C   0  0  0  0  0  0  0  0  0  0  0  0
    1.5237    0.3916    0.2361 C   0  0  0  0  0  0  0  0  0  0  0  0
    2.2951   -0.7171    0.1618 O   0  0  0  0  0  0  0  0  0  0  0  0
    0.8719   -0.9614    0.5702 C   0  0  0  0  0  0  0  0  0  0  0  0
   -0.0852   -1.1853   -0.4969 C   0  0  0  0  0  0  0  0  0  0  0  0
   -1.4406   -0.8153   -0.7152 C   0  0  0  0  0  0  0  0  0  0  0  0
   -1.9687    1.0227    1.0922 H   0  0  0  0  0  0  0  0  0  0  0  0
   -0.3759    1.7828    1.1919 H   0  0  0  0  0  0  0  0  0  0  0  0
   -0.6207    0.0610    1.7126 H   0  0  0  0  0  0  0  0  0  0  0  0
    0.7113    1.9289   -0.9884 H   0  0  0  0  0  0  0  0  0  0  0  0
    1.0367    0.3279   -1.8368 H   0  0  0  0  0  0  0  0  0  0  0  0
    1.7171    1.0971    1.0380 H   0  0  0  0  0  0  0  0  0  0  0  0
    0.8538   -1.3332    1.5757 H   0  0  0  0  0  0  0  0  0  0  0  0
    0.4320   -1.4611   -1.4699 H   0  0  0  0  0  0  0  0  0  0  0  0
   -1.9199   -0.8792   -1.7233 H   0  0  0  0  0  0  0  0  0  0  0  0
   -2.1757   -1.2354    0.0335 H   0  0  0  0  0  0  0  0  0  0  0  0
  1  2  1  0
  2  3  1  0
  3  4  1  0
  4  5  1  0
  5  6  1  0
  6  7  1  0
  7  8  1  0
  7  2  1  0
  8  2  1  0
  6  4  1  0
  1  9  1  0
  1 10  1  0
  1 11  1  0
  3 12  1  0
  3 13  1  0
  4 14  1  0
  6 15  1  0
  7 16  1  0
  8 17  1  0
  8 18  1  0
M  END
