
     RDKit          3D

 23 24  0  0  0  0  0  0  0  0999 V2000
   -1.5281   -1.3804    0.3495 C   0  0  0  0  0  0  0  0  0  0  0  0
   -0.7269   -0.2195    0.0766 C   0  0  0  0  0  0  0  0  0  0  0  0
   -1.0807    1.1250    0.6497 C   0  0  0  0  0  0  0  0  0  0  0  0
    0.0283    1.9723   -0.0095 C   0  0  0  0  0  0  0  0  0  0  0  0
    0.7627    0.8917   -0.7281 C   0  0  0  0  0  0  0  0  0  0  0  0
   -0.3790    0.1155   -1.3816 C   0  0  0  0  0  0  0  0  0  0  0  0
    0.7594   -0.2311    0.3158 C   0  0  0  0  0  0  0  0  0  0  0  0
    1.5187   -1.4164   -0.1331 C   0  0  0  0  0  0  0  0  0  0  0  0
    1.0445    0.2367    1.5859 O   0  0  0  0  0  0  0  0  0  0  0  0
   -2.3509   -1.1657    1.0930 H   0  0  0  0  0  0  0  0  0  0  0  0
   -1.0207   -2.2942    0.7246 H   0  0  0  0  0  0  0  0  0  0  0  0
   -2.0844   -1.7230   -0.5723 H   0  0  0  0  0  0  0  0  0  0  0  0
   -0.8344    1.1001    1.7259 H   0  0  0  0  0  0  0  0  0  0  0  0
   -2.0718    1.4844    0.4026 H   0  0  0  0  0  0  0  0  0  0  0  0
    0.6220    2.5079    0.7343 H   0  0  0  0  0  0  0  0  0  0  0  0
   -0.4886    2.6619   -0.7397 H   0  0  0  0  0  0  0  0  0  0  0  0
    1.6416    1.0699   -1.2757 H   0  0  0  0  0  0  0  0  0  0  0  0
   -1.1139    0.7535   -1.8767 H   0  0  0  0  0  0  0  0  0  0  0  0
   -0.0468   -0.7422   -1.9688 H   0  0  0  0  0  0  0  0  0  0  0  0
    1.0292   -2.0678   -0.8511 H   0  0  0  0  0  0  0  0  0  0  0  0
    2.4828   -1.0516   -0.5927 H   0  0  0  0  0  0  0  0  0  0  0  0
    1.8376   -2.0550    0.7328 H   0  0  0  0  0  0  0  0  0  0  0  0
    1.9993    0.4281    1.7385 H   0  0  0  0  0  0  0  0  0  0  0  0
  1  2  1  0
  2  3  1  0
  3  4  1  0
  4  5  1  0
  5  6  1  0
  5  7  1  0
  7  8  1  0
  7  9  1  0
  6  2  1  0
  7  2  1  0
  1 10  1  0
  1 11  1  0
  1 12  1  0
  3 13  1  0
  3 14  1  0
  4 15  1  0
  4 16  1  0
  5 17  1  0
  6 18  1  0
  6 19  1  0
  8 20  1  0
  8 21  1  0
  8 22  1  0
  9 23  1  0
M  END
