
     RDKit          3D

 21 22  0  0  0  0  0  0  0  0999 V2000
   -1.9934    0.1039    1.0887 C   0  0  0  0  0  0  0  0  0  0  0  0
   -0.8728    0.0325    0.0839 C   0  0  0  0  0  0  0  0  0  0  0  0
   -0.0777    1.2850   -0.0815 C   0  0  0  0  0  0  0  0  0  0  0  0
    1.0801    1.1256   -0.8201 O   0  0  0  0  0  0  0  0  0  0  0  0
    2.1199    0.9032    0.0850 C   0  0  0  0  0  0  0  0  0  0  0  0
    1.8394   -0.3105    0.7203 O   0  0  0  0  0  0  0  0  0  0  0  0
    1.3004   -1.1904   -0.2091 C   0  0  0  0  0  0  0  0  0  0  0  0
   -0.1858   -1.2279   -0.1041 C   0  0  0  0  0  0  0  0  0  0  0  0
   -1.0720   -0.7561   -1.1932 C   0  0  0  0  0  0  0  0  0  0  0  0
   -2.7275    0.8468    0.6934 H   0  0  0  0  0  0  0  0  0  0  0  0
   -1.5665    0.5201    2.0321 H   0  0  0  0  0  0  0  0  0  0  0  0
   -2.4572   -0.8887    1.2577 H   0  0  0  0  0  0  0  0  0  0  0  0
    0.1203    1.7890    0.9012 H   0  0  0  0  0  0  0  0  0  0  0  0
   -0.7160    2.0244   -0.6444 H   0  0  0  0  0  0  0  0  0  0  0  0
    2.0398    1.7104    0.8509 H   0  0  0  0  0  0  0  0  0  0  0  0
    3.0665    0.9013   -0.4604 H   0  0  0  0  0  0  0  0  0  0  0  0
    1.7406   -2.1988    0.0335 H   0  0  0  0  0  0  0  0  0  0  0  0
    1.6613   -0.9702   -1.2436 H   0  0  0  0  0  0  0  0  0  0  0  0
   -0.5914   -2.1168    0.4608 H   0  0  0  0  0  0  0  0  0  0  0  0
   -2.0775   -1.1969   -1.3135 H   0  0  0  0  0  0  0  0  0  0  0  0
   -0.6307   -0.3858   -2.1376 H   0  0  0  0  0  0  0  0  0  0  0  0
  1  2  1  0
  2  3  1  0
  3  4  1  0
  4  5  1  0
  5  6  1  0
  6  7  1  0
  7  8  1  0
  8  9  1  0
  8  2  1  0
  9  2  1  0
  1 10  1  0
  1 11  1  0
  1 12  1  0
  3 13  1  0
  3 14  1  0
  5 15  1  0
  5 16  1  0
  7 17  1  0
  7 18  1  0
  8 19  1  0
  9 20  1  0
  9 21  1  0
M  END
