
     RDKit          3D

 23 24  0  0  0  0  0  0  0  0999 V2000
   -1.0892    1.2757    1.1776 C   0  0  0  0  0  0  0  0  0  0  0  0
   -0.5557    0.4864    0.0345 C   0  0  0  0  0  0  0  0  0  0  0  0
   -1.5162    0.1525   -1.0716 C   0  0  0  0  0  0  0  0  0  0  0  0
   -1.1897   -1.3182   -0.8320 C   0  0  0  0  0  0  0  0  0  0  0  0
   -0.4160   -0.9810    0.3977 C   0  0  0  0  0  0  0  0  0  0  0  0
    1.0461   -1.2579    0.3924 C   0  0  0  0  0  0  0  0  0  0  0  0
    1.7190    0.1225    0.4233 C   0  0  0  0  0  0  0  0  0  0  0  0
    3.0140    0.0805   -0.0205 O   0  0  0  0  0  0  0  0  0  0  0  0
    0.7907    0.8930   -0.5027 C   0  0  0  0  0  0  0  0  0  0  0  0
   -0.2802    1.8419    1.6513 H   0  0  0  0  0  0  0  0  0  0  0  0
   -1.9132    1.9258    0.7824 H   0  0  0  0  0  0  0  0  0  0  0  0
   -1.5852    0.5890    1.9194 H   0  0  0  0  0  0  0  0  0  0  0  0
   -1.2188    0.5407   -2.0565 H   0  0  0  0  0  0  0  0  0  0  0  0
   -2.5366    0.4537   -0.7868 H   0  0  0  0  0  0  0  0  0  0  0  0
   -2.1339   -1.8474   -0.5755 H   0  0  0  0  0  0  0  0  0  0  0  0
   -0.6249   -1.7148   -1.6874 H   0  0  0  0  0  0  0  0  0  0  0  0
   -0.8779   -1.2358    1.3697 H   0  0  0  0  0  0  0  0  0  0  0  0
    1.3629   -1.7598    1.3451 H   0  0  0  0  0  0  0  0  0  0  0  0
    1.4075   -1.8099   -0.4783 H   0  0  0  0  0  0  0  0  0  0  0  0
    1.5884    0.5662    1.4293 H   0  0  0  0  0  0  0  0  0  0  0  0
    3.1681    0.5388   -0.8920 H   0  0  0  0  0  0  0  0  0  0  0  0
    0.8943    0.4903   -1.5392 H   0  0  0  0  0  0  0  0  0  0  0  0
    0.9468    1.9680   -0.4801 H   0  0  0  0  0  0  0  0  0  0  0  0
  1  2  1  0
  2  3  1  0
  3  4  1  0
  4  5  1  0
  5  6  1  0
  6  7  1  0
  7  8  1  0
  7  9  1  0
  5  2  1  0
  9  2  1  0
  1 10  1  0
  1 11  1  0
  1 12  1  0
  3 13  1  0
  3 14  1  0
  4 15  1  0
  4 16  1  0
  5 17  1  0
  6 18  1  0
  6 19  1  0
  7 20  1  0
  8 21  1  0
  9 22  1  0
  9 23  1  0
M  END
