
     RDKit          3D

 19 21  0  0  0  0  0  0  0  0999 V2000
   -2.0283    0.9972   -0.5818 C   0  0  0  0  0  0  0  0  0  0  0  0
   -0.9524    0.3113    0.2446 C   0  0  0  0  0  0  0  0  0  0  0  0
   -1.4585   -0.7895    1.0880 C   0  0  0  0  0  0  0  0  0  0  0  0
   -0.6741   -1.1996   -0.0903 C   0  0  0  0  0  0  0  0  0  0  0  0
    0.7885   -0.9496    0.0748 C   0  0  0  0  0  0  0  0  0  0  0  0
    2.0986   -0.9101    0.2476 C   0  0  0  0  0  0  0  0  0  0  0  0
    2.5572    0.5269    0.1212 C   0  0  0  0  0  0  0  0  0  0  0  0
    1.3461    1.2496    0.3880 O   0  0  0  0  0  0  0  0  0  0  0  0
    0.4129    0.4938   -0.2564 C   0  0  0  0  0  0  0  0  0  0  0  0
   -2.6974    0.1915   -0.9845 H   0  0  0  0  0  0  0  0  0  0  0  0
   -2.5850    1.7364    0.0228 H   0  0  0  0  0  0  0  0  0  0  0  0
   -1.6054    1.5281   -1.4476 H   0  0  0  0  0  0  0  0  0  0  0  0
   -0.9764   -1.0350    2.0791 H   0  0  0  0  0  0  0  0  0  0  0  0
   -2.5210   -1.0230    1.0796 H   0  0  0  0  0  0  0  0  0  0  0  0
   -1.0731   -1.4614   -1.0572 H   0  0  0  0  0  0  0  0  0  0  0  0
    2.7856   -1.7108    0.4460 H   0  0  0  0  0  0  0  0  0  0  0  0
    2.9035    0.6784   -0.8973 H   0  0  0  0  0  0  0  0  0  0  0  0
    3.2525    0.8214    0.9015 H   0  0  0  0  0  0  0  0  0  0  0  0
    0.4266    0.5443   -1.3780 H   0  0  0  0  0  0  0  0  0  0  0  0
  1  2  1  0
  2  3  1  0
  3  4  1  0
  4  5  1  0
  5  6  2  0
  6  7  1  0
  7  8  1  0
  8  9  1  0
  4  2  1  0
  9  5  1  0
  9  2  1  0
  1 10  1  0
  1 11  1  0
  1 12  1  0
  3 13  1  0
  3 14  1  0
  4 15  1  0
  6 16  1  0
  7 17  1  0
  7 18  1  0
  9 19  1  0
M  END
