
     RDKit          3D

 21 23  0  0  0  0  0  0  0  0999 V2000
   -1.3469    1.2946   -0.9190 C   0  0  0  0  0  0  0  0  0  0  0  0
   -0.8324    0.0871   -0.2103 C   0  0  0  0  0  0  0  0  0  0  0  0
   -1.6504   -0.6155    0.8228 C   0  0  0  0  0  0  0  0  0  0  0  0
   -0.5652    0.3026    1.2561 C   0  0  0  0  0  0  0  0  0  0  0  0
    0.8566   -0.0325    1.0360 C   0  0  0  0  0  0  0  0  0  0  0  0
    1.6713    0.4834   -0.0681 C   0  0  0  0  0  0  0  0  0  0  0  0
    1.5855    1.8184   -0.4875 O   0  0  0  0  0  0  0  0  0  0  0  0
    0.5558   -0.4149   -0.3959 C   0  0  0  0  0  0  0  0  0  0  0  0
    0.7646   -1.8824   -0.6869 C   0  0  0  0  0  0  0  0  0  0  0  0
   -2.3177    1.5790   -0.4137 H   0  0  0  0  0  0  0  0  0  0  0  0
   -0.7008    2.1993   -0.7896 H   0  0  0  0  0  0  0  0  0  0  0  0
   -1.5367    1.1307   -1.9793 H   0  0  0  0  0  0  0  0  0  0  0  0
   -1.4911   -1.7311    0.8283 H   0  0  0  0  0  0  0  0  0  0  0  0
   -2.6887   -0.2919    0.8956 H   0  0  0  0  0  0  0  0  0  0  0  0
   -0.8939    1.2219    1.7577 H   0  0  0  0  0  0  0  0  0  0  0  0
    1.3183   -0.8021    1.7123 H   0  0  0  0  0  0  0  0  0  0  0  0
    2.6848    0.0708   -0.1735 H   0  0  0  0  0  0  0  0  0  0  0  0
    2.1891    2.4055    0.0143 H   0  0  0  0  0  0  0  0  0  0  0  0
    1.4434   -2.0601   -1.5425 H   0  0  0  0  0  0  0  0  0  0  0  0
    1.1991   -2.4310    0.1845 H   0  0  0  0  0  0  0  0  0  0  0  0
   -0.2448   -2.3319   -0.8413 H   0  0  0  0  0  0  0  0  0  0  0  0
  1  2  1  0
  2  3  1  0
  3  4  1  0
  4  5  1  0
  5  6  1  0
  6  7  1  0
  6  8  1  0
  8  9  1  0
  4  2  1  0
  8  5  1  0
  8  2  1  0
  1 10  1  0
  1 11  1  0
  1 12  1  0
  3 13  1  0
  3 14  1  0
  4 15  1  0
  5 16  1  0
  6 17  1  0
  7 18  1  0
  9 19  1  0
  9 20  1  0
  9 21  1  0
M  END
