
     RDKit          3D

 21 23  0  0  0  0  0  0  0  0999 V2000
    2.1342   -0.0316    0.1508 C   0  0  0  0  0  0  0  0  0  0  0  0
    0.6607    0.0864    0.0732 C   0  0  0  0  0  0  0  0  0  0  0  0
    0.2577    1.5259    0.1245 C   0  0  0  0  0  0  0  0  0  0  0  0
   -1.0809    1.6093    0.3767 O   0  0  0  0  0  0  0  0  0  0  0  0
   -1.8515    0.5501    0.0563 C   0  0  0  0  0  0  0  0  0  0  0  0
   -1.4728   -0.7659    0.5644 C   0  0  0  0  0  0  0  0  0  0  0  0
   -0.0809   -0.7362    1.1094 C   0  0  0  0  0  0  0  0  0  0  0  0
   -1.3862   -0.4198   -0.9159 C   0  0  0  0  0  0  0  0  0  0  0  0
    0.0628   -0.4996   -1.1962 C   0  0  0  0  0  0  0  0  0  0  0  0
    2.5156    0.6052    0.9463 H   0  0  0  0  0  0  0  0  0  0  0  0
    2.5673    0.3280   -0.8096 H   0  0  0  0  0  0  0  0  0  0  0  0
    2.5063   -1.0637    0.2952 H   0  0  0  0  0  0  0  0  0  0  0  0
    0.8656    2.0407    0.9098 H   0  0  0  0  0  0  0  0  0  0  0  0
    0.4949    2.0074   -0.8546 H   0  0  0  0  0  0  0  0  0  0  0  0
   -2.9544    0.7845    0.0100 H   0  0  0  0  0  0  0  0  0  0  0  0
   -2.1933   -1.5365    0.8754 H   0  0  0  0  0  0  0  0  0  0  0  0
    0.3530   -1.7480    1.0878 H   0  0  0  0  0  0  0  0  0  0  0  0
   -0.0821   -0.2625    2.0970 H   0  0  0  0  0  0  0  0  0  0  0  0
   -2.0855   -0.8892   -1.6146 H   0  0  0  0  0  0  0  0  0  0  0  0
    0.3607   -1.5851   -1.1878 H   0  0  0  0  0  0  0  0  0  0  0  0
    0.4087    0.0004   -2.0981 H   0  0  0  0  0  0  0  0  0  0  0  0
  1  2  1  0
  2  3  1  0
  3  4  1  0
  4  5  1  0
  5  6  1  0
  6  7  1  0
  6  8  1  0
  8  9  1  0
  7  2  1  0
  9  2  1  0
  8  5  1  0
  1 10  1  0
  1 11  1  0
  1 12  1  0
  3 13  1  0
  3 14  1  0
  5 15  1  0
  6 16  1  0
  7 17  1  0
  7 18  1  0
  8 19  1  0
  9 20  1  0
  9 21  1  0
M  END
