
     RDKit          3D

 19 21  0  0  0  0  0  0  0  0999 V2000
    1.7004   -0.6105    0.4442 C   0  0  0  0  0  0  0  0  0  0  0  0
    0.5563    0.0205   -0.1770 C   0  0  0  0  0  0  0  0  0  0  0  0
    0.7227    1.1317   -1.1530 C   0  0  0  0  0  0  0  0  0  0  0  0
   -0.6259    1.3907   -1.5045 O   0  0  0  0  0  0  0  0  0  0  0  0
   -1.3107    0.4920   -0.7244 C   0  0  0  0  0  0  0  0  0  0  0  0
   -0.5487   -0.8091   -0.7533 C   0  0  0  0  0  0  0  0  0  0  0  0
   -1.0279   -1.0231    0.6446 C   0  0  0  0  0  0  0  0  0  0  0  0
   -0.6266    0.4324    0.6236 C   0  0  0  0  0  0  0  0  0  0  0  0
   -0.7139    1.2632    1.5563 O   0  0  0  0  0  0  0  0  0  0  0  0
    2.6506   -0.2068   -0.0040 H   0  0  0  0  0  0  0  0  0  0  0  0
    1.7505   -1.7154    0.2426 H   0  0  0  0  0  0  0  0  0  0  0  0
    1.7801   -0.3900    1.5286 H   0  0  0  0  0  0  0  0  0  0  0  0
    1.1660    2.0127   -0.6406 H   0  0  0  0  0  0  0  0  0  0  0  0
    1.3070    0.8496   -2.0559 H   0  0  0  0  0  0  0  0  0  0  0  0
   -2.3804    0.4600   -0.7511 H   0  0  0  0  0  0  0  0  0  0  0  0
   -0.5033   -1.4623   -1.5086 H   0  0  0  0  0  0  0  0  0  0  0  0
   -2.1208   -1.2150    0.6664 H   0  0  0  0  0  0  0  0  0  0  0  0
   -0.4184   -1.6696    1.2945 H   0  0  0  0  0  0  0  0  0  0  0  0
   -1.3570    1.0491    2.2715 H   0  0  0  0  0  0  0  0  0  0  0  0
  1  2  1  0
  2  3  1  0
  3  4  1  0
  4  5  1  0
  5  6  1  0
  6  7  1  0
  7  8  1  0
  8  9  1  0
  6  2  1  0
  8  2  1  0
  8  5  1  0
  1 10  1  0
  1 11  1  0
  1 12  1  0
  3 13  1  0
  3 14  1  0
  5 15  1  0
  6 16  1  0
  7 17  1  0
  7 18  1  0
  9 19  1  0
M  END
