
     RDKit          3D

 21 22  0  0  0  0  0  0  0  0999 V2000
    2.1076   -0.7572   -0.0427 C   0  0  0  0  0  0  0  0  0  0  0  0
    0.7078   -0.2604    0.0699 C   0  0  0  0  0  0  0  0  0  0  0  0
    0.7228    1.2340    0.4259 C   0  0  0  0  0  0  0  0  0  0  0  0
   -0.6096    1.2828   -0.3361 C   0  0  0  0  0  0  0  0  0  0  0  0
   -1.7111    0.7210    0.5053 C   0  0  0  0  0  0  0  0  0  0  0  0
   -2.1326   -0.4750   -0.0884 O   0  0  0  0  0  0  0  0  0  0  0  0
   -1.2420   -1.4908    0.2935 C   0  0  0  0  0  0  0  0  0  0  0  0
   -0.1205   -0.9643    0.8933 O   0  0  0  0  0  0  0  0  0  0  0  0
    0.0433    0.1898   -1.2026 C   0  0  0  0  0  0  0  0  0  0  0  0
    2.8722    0.0697   -0.0294 H   0  0  0  0  0  0  0  0  0  0  0  0
    2.3276   -1.3364    0.9019 H   0  0  0  0  0  0  0  0  0  0  0  0
    2.3139   -1.4233   -0.8717 H   0  0  0  0  0  0  0  0  0  0  0  0
    1.4828    1.7392   -0.1878 H   0  0  0  0  0  0  0  0  0  0  0  0
    0.6646    1.4614    1.4812 H   0  0  0  0  0  0  0  0  0  0  0  0
   -0.7998    2.2217   -0.8639 H   0  0  0  0  0  0  0  0  0  0  0  0
   -1.3560    0.4364    1.5286 H   0  0  0  0  0  0  0  0  0  0  0  0
   -2.5425    1.4522    0.6100 H   0  0  0  0  0  0  0  0  0  0  0  0
   -1.7575   -2.1410    1.0317 H   0  0  0  0  0  0  0  0  0  0  0  0
   -1.0057   -2.1696   -0.5678 H   0  0  0  0  0  0  0  0  0  0  0  0
    0.7227    0.6809   -1.8992 H   0  0  0  0  0  0  0  0  0  0  0  0
   -0.6882   -0.4708   -1.6517 H   0  0  0  0  0  0  0  0  0  0  0  0
  1  2  1  0
  2  3  1  0
  3  4  1  0
  4  5  1  0
  5  6  1  0
  6  7  1  0
  7  8  1  0
  4  9  1  0
  8  2  1  0
  9  2  1  0
  1 10  1  0
  1 11  1  0
  1 12  1  0
  3 13  1  0
  3 14  1  0
  4 15  1  0
  5 16  1  0
  5 17  1  0
  7 18  1  0
  7 19  1  0
  9 20  1  0
  9 21  1  0
M  END
