
     RDKit          3D

 23 24  0  0  0  0  0  0  0  0999 V2000
    2.2320   -0.5971   -0.1691 C   0  0  0  0  0  0  0  0  0  0  0  0
    0.7879   -0.2689   -0.0818 C   0  0  0  0  0  0  0  0  0  0  0  0
    0.0889   -0.6435   -1.3407 C   0  0  0  0  0  0  0  0  0  0  0  0
   -1.1958   -0.3011   -1.3992 C   0  0  0  0  0  0  0  0  0  0  0  0
   -1.6555    0.4204   -0.1480 C   0  0  0  0  0  0  0  0  0  0  0  0
   -0.7752    1.6343   -0.0276 C   0  0  0  0  0  0  0  0  0  0  0  0
    0.6364    1.2093    0.2199 C   0  0  0  0  0  0  0  0  0  0  0  0
   -1.3777   -0.5744    0.9895 C   0  0  0  0  0  0  0  0  0  0  0  0
    0.0639   -0.9968    1.0307 C   0  0  0  0  0  0  0  0  0  0  0  0
    2.4236   -1.5627   -0.7120 H   0  0  0  0  0  0  0  0  0  0  0  0
    2.7590   -0.5884    0.7907 H   0  0  0  0  0  0  0  0  0  0  0  0
    2.7227    0.1906   -0.8004 H   0  0  0  0  0  0  0  0  0  0  0  0
    0.6435   -1.1547   -2.1099 H   0  0  0  0  0  0  0  0  0  0  0  0
   -1.8511   -0.4972   -2.2166 H   0  0  0  0  0  0  0  0  0  0  0  0
   -2.7208    0.6294   -0.1618 H   0  0  0  0  0  0  0  0  0  0  0  0
   -1.1557    2.3838    0.6765 H   0  0  0  0  0  0  0  0  0  0  0  0
   -0.7867    2.1366   -1.0390 H   0  0  0  0  0  0  0  0  0  0  0  0
    1.3870    1.7480   -0.3753 H   0  0  0  0  0  0  0  0  0  0  0  0
    0.8213    1.3148    1.3271 H   0  0  0  0  0  0  0  0  0  0  0  0
   -1.9713   -1.4844    0.7166 H   0  0  0  0  0  0  0  0  0  0  0  0
   -1.7585   -0.2062    1.9532 H   0  0  0  0  0  0  0  0  0  0  0  0
    0.2135   -2.0796    0.8533 H   0  0  0  0  0  0  0  0  0  0  0  0
    0.4686   -0.7122    2.0237 H   0  0  0  0  0  0  0  0  0  0  0  0
  1  2  1  0
  2  3  1  0
  3  4  2  0
  4  5  1  0
  5  6  1  0
  6  7  1  0
  5  8  1  0
  8  9  1  0
  7  2  1  0
  9  2  1  0
  1 10  1  0
  1 11  1  0
  1 12  1  0
  3 13  1  0
  4 14  1  0
  5 15  1  0
  6 16  1  0
  6 17  1  0
  7 18  1  0
  7 19  1  0
  8 20  1  0
  8 21  1  0
  9 22  1  0
  9 23  1  0
M  END
