
     RDKit          3D

 17 18  0  0  0  0  0  0  0  0999 V2000
   -1.4344    1.2939    0.4791 C   0  0  0  0  0  0  0  0  0  0  0  0
   -0.5204    0.2343   -0.0831 C   0  0  0  0  0  0  0  0  0  0  0  0
    0.6173    0.7198   -0.8516 C   0  0  0  0  0  0  0  0  0  0  0  0
    1.8196    0.2264   -0.6817 C   0  0  0  0  0  0  0  0  0  0  0  0
    2.0394   -0.8223    0.2852 C   0  0  0  0  0  0  0  0  0  0  0  0
    3.2319   -1.2723    0.4147 O   0  0  0  0  0  0  0  0  0  0  0  0
    0.9957   -1.2981    1.0210 O   0  0  0  0  0  0  0  0  0  0  0  0
   -0.3042   -0.9345    0.8105 C   0  0  0  0  0  0  0  0  0  0  0  0
   -1.0277   -1.0984   -0.4690 C   0  0  0  0  0  0  0  0  0  0  0  0
   -2.2651    1.5606   -0.1707 H   0  0  0  0  0  0  0  0  0  0  0  0
   -0.8190    2.2137    0.6378 H   0  0  0  0  0  0  0  0  0  0  0  0
   -1.8648    1.0064    1.4693 H   0  0  0  0  0  0  0  0  0  0  0  0
    0.4754    1.5339   -1.6101 H   0  0  0  0  0  0  0  0  0  0  0  0
    2.6591    0.6273   -1.2908 H   0  0  0  0  0  0  0  0  0  0  0  0
   -0.9417   -1.0099    1.7551 H   0  0  0  0  0  0  0  0  0  0  0  0
   -0.5398   -1.6354   -1.3076 H   0  0  0  0  0  0  0  0  0  0  0  0
   -2.1212   -1.3455   -0.4082 H   0  0  0  0  0  0  0  0  0  0  0  0
  1  2  1  0
  2  3  1  0
  3  4  2  0
  4  5  1  0
  5  6  2  0
  5  7  1  0
  7  8  1  0
  8  9  1  0
  8  2  1  0
  9  2  1  0
  1 10  1  0
  1 11  1  0
  1 12  1  0
  3 13  1  0
  4 14  1  0
  8 15  1  0
  9 16  1  0
  9 17  1  0
M  END
