
     RDKit          3D

 21 23  0  0  0  0  0  0  0  0999 V2000
    2.1797    0.6085   -0.6700 C   0  0  0  0  0  0  0  0  0  0  0  0
    1.0015   -0.1010   -0.1304 C   0  0  0  0  0  0  0  0  0  0  0  0
    1.2291   -1.1429    0.7384 O   0  0  0  0  0  0  0  0  0  0  0  0
    0.0446   -1.5899    1.2562 C   0  0  0  0  0  0  0  0  0  0  0  0
   -1.0642   -0.7133    0.7260 C   0  0  0  0  0  0  0  0  0  0  0  0
   -1.3587   -1.0598   -0.7186 C   0  0  0  0  0  0  0  0  0  0  0  0
   -0.1699   -0.2175   -1.1092 C   0  0  0  0  0  0  0  0  0  0  0  0
   -0.2793    0.4615    0.2014 C   0  0  0  0  0  0  0  0  0  0  0  0
   -0.6816    1.8483    0.3658 C   0  0  0  0  0  0  0  0  0  0  0  0
    1.9288    1.2016   -1.5944 H   0  0  0  0  0  0  0  0  0  0  0  0
    2.6765    1.3045    0.0087 H   0  0  0  0  0  0  0  0  0  0  0  0
    2.9335   -0.1595   -1.0108 H   0  0  0  0  0  0  0  0  0  0  0  0
   -0.1960   -2.6431    0.9328 H   0  0  0  0  0  0  0  0  0  0  0  0
    0.0078   -1.6178    2.3653 H   0  0  0  0  0  0  0  0  0  0  0  0
   -1.9067   -0.5135    1.3739 H   0  0  0  0  0  0  0  0  0  0  0  0
   -2.3489   -0.6090   -1.0134 H   0  0  0  0  0  0  0  0  0  0  0  0
   -1.2733   -2.1346   -0.8918 H   0  0  0  0  0  0  0  0  0  0  0  0
   -0.1477    0.3378   -2.0447 H   0  0  0  0  0  0  0  0  0  0  0  0
   -0.1386    2.4277    1.1387 H   0  0  0  0  0  0  0  0  0  0  0  0
   -0.6699    2.4245   -0.6042 H   0  0  0  0  0  0  0  0  0  0  0  0
   -1.7669    1.8874    0.6801 H   0  0  0  0  0  0  0  0  0  0  0  0
  1  2  1  0
  2  3  1  0
  3  4  1  0
  4  5  1  0
  5  6  1  0
  6  7  1  0
  7  8  1  0
  8  9  1  0
  7  2  1  0
  8  2  1  0
  8  5  1  0
  1 10  1  0
  1 11  1  0
  1 12  1  0
  4 13  1  0
  4 14  1  0
  5 15  1  0
  6 16  1  0
  6 17  1  0
  7 18  1  0
  9 19  1  0
  9 20  1  0
  9 21  1  0
M  END
