
     RDKit          3D

 19 21  0  0  0  0  0  0  0  0999 V2000
    2.0280   -0.2485   -0.9023 C   0  0  0  0  0  0  0  0  0  0  0  0
    0.8007   -0.0213   -0.0620 C   0  0  0  0  0  0  0  0  0  0  0  0
    0.2799    1.3448   -0.0619 C   0  0  0  0  0  0  0  0  0  0  0  0
   -0.9967    1.6294   -0.0726 C   0  0  0  0  0  0  0  0  0  0  0  0
   -2.0075    0.5764   -0.0858 C   0  0  0  0  0  0  0  0  0  0  0  0
   -2.2056   -0.0919    1.0992 O   0  0  0  0  0  0  0  0  0  0  0  0
   -1.5938   -0.7778    0.0430 C   0  0  0  0  0  0  0  0  0  0  0  0
   -0.1486   -1.1067    0.0986 C   0  0  0  0  0  0  0  0  0  0  0  0
    0.6900   -0.7296    1.2838 C   0  0  0  0  0  0  0  0  0  0  0  0
    2.7308    0.5947   -0.8832 H   0  0  0  0  0  0  0  0  0  0  0  0
    1.6729   -0.3374   -1.9688 H   0  0  0  0  0  0  0  0  0  0  0  0
    2.4982   -1.2120   -0.6674 H   0  0  0  0  0  0  0  0  0  0  0  0
    0.9843    2.1696   -0.0524 H   0  0  0  0  0  0  0  0  0  0  0  0
   -1.3489    2.6755   -0.0720 H   0  0  0  0  0  0  0  0  0  0  0  0
   -2.9273    0.8147   -0.6926 H   0  0  0  0  0  0  0  0  0  0  0  0
   -2.2746   -1.5784   -0.3717 H   0  0  0  0  0  0  0  0  0  0  0  0
    0.1561   -2.0998   -0.3470 H   0  0  0  0  0  0  0  0  0  0  0  0
    0.1501   -0.2272    2.1079 H   0  0  0  0  0  0  0  0  0  0  0  0
    1.5121   -1.3746    1.6071 H   0  0  0  0  0  0  0  0  0  0  0  0
  1  2  1  0
  2  3  1  0
  3  4  2  0
  4  5  1  0
  5  6  1  0
  6  7  1  0
  7  8  1  0
  8  9  1  0
  8  2  1  0
  9  2  1  0
  7  5  1  0
  1 10  1  0
  1 11  1  0
  1 12  1  0
  3 13  1  0
  4 14  1  0
  5 15  1  0
  7 16  1  0
  8 17  1  0
  9 18  1  0
  9 19  1  0
M  END
