
     RDKit          3D

 21 24  0  0  0  0  0  0  0  0999 V2000
    2.3368   -0.1680    0.0734 C   0  0  0  0  0  0  0  0  0  0  0  0
    0.8703    0.0057    0.0977 C   0  0  0  0  0  0  0  0  0  0  0  0
    0.0502    0.3191   -1.0862 C   0  0  0  0  0  0  0  0  0  0  0  0
   -0.9501   -0.8445   -1.1317 C   0  0  0  0  0  0  0  0  0  0  0  0
   -1.3163   -0.8000    0.3618 C   0  0  0  0  0  0  0  0  0  0  0  0
   -1.2610    0.6483    0.7588 C   0  0  0  0  0  0  0  0  0  0  0  0
   -0.9093    1.3899   -0.5388 C   0  0  0  0  0  0  0  0  0  0  0  0
    0.1101    0.3950    1.3095 C   0  0  0  0  0  0  0  0  0  0  0  0
    0.0297   -0.9791    0.9538 C   0  0  0  0  0  0  0  0  0  0  0  0
    2.7813    0.4384    0.8995 H   0  0  0  0  0  0  0  0  0  0  0  0
    2.6529   -1.2216    0.2865 H   0  0  0  0  0  0  0  0  0  0  0  0
    2.7310    0.1469   -0.9176 H   0  0  0  0  0  0  0  0  0  0  0  0
    0.5074    0.5573   -2.0057 H   0  0  0  0  0  0  0  0  0  0  0  0
   -0.3895   -1.7400   -1.3910 H   0  0  0  0  0  0  0  0  0  0  0  0
   -1.8195   -0.6230   -1.7436 H   0  0  0  0  0  0  0  0  0  0  0  0
   -2.1438   -1.4000    0.6713 H   0  0  0  0  0  0  0  0  0  0  0  0
   -2.0205    1.0641    1.3733 H   0  0  0  0  0  0  0  0  0  0  0  0
   -0.4047    2.3349   -0.3540 H   0  0  0  0  0  0  0  0  0  0  0  0
   -1.8280    1.4506   -1.1242 H   0  0  0  0  0  0  0  0  0  0  0  0
    0.5143    0.8862    2.1692 H   0  0  0  0  0  0  0  0  0  0  0  0
    0.4588   -1.8602    1.3381 H   0  0  0  0  0  0  0  0  0  0  0  0
  1  2  1  0
  2  3  1  0
  3  4  1  0
  4  5  1  0
  5  6  1  0
  6  7  1  0
  6  8  1  0
  8  9  1  0
  8  2  1  0
  9  2  1  0
  7  3  1  0
  9  5  1  0
  1 10  1  0
  1 11  1  0
  1 12  1  0
  3 13  1  0
  4 14  1  0
  4 15  1  0
  5 16  1  0
  6 17  1  0
  7 18  1  0
  7 19  1  0
  8 20  1  0
  9 21  1  0
M  END
