
     RDKit          3D

 21 22  0  0  0  0  0  0  0  0999 V2000
   -1.8301   -0.3261   -1.0806 C   0  0  0  0  0  0  0  0  0  0  0  0
   -0.6533   -0.3658   -0.1430 C   0  0  0  0  0  0  0  0  0  0  0  0
   -0.0510   -1.6786    0.0930 C   0  0  0  0  0  0  0  0  0  0  0  0
    1.2381   -1.5249    0.3535 C   0  0  0  0  0  0  0  0  0  0  0  0
    1.6166   -0.0645    0.3128 C   0  0  0  0  0  0  0  0  0  0  0  0
    2.7948    0.0437   -0.4277 O   0  0  0  0  0  0  0  0  0  0  0  0
    0.4727    0.5565   -0.4596 C   0  0  0  0  0  0  0  0  0  0  0  0
   -0.2684    1.6307    0.3412 C   0  0  0  0  0  0  0  0  0  0  0  0
   -0.8567    0.4692    1.1296 C   0  0  0  0  0  0  0  0  0  0  0  0
   -1.5339   -0.3868   -2.1301 H   0  0  0  0  0  0  0  0  0  0  0  0
   -2.4598   -1.2082   -0.8618 H   0  0  0  0  0  0  0  0  0  0  0  0
   -2.4395    0.5636   -0.8385 H   0  0  0  0  0  0  0  0  0  0  0  0
   -0.5573   -2.6602    0.0667 H   0  0  0  0  0  0  0  0  0  0  0  0
    1.9263   -2.3554    0.5681 H   0  0  0  0  0  0  0  0  0  0  0  0
    1.7635    0.3577    1.3025 H   0  0  0  0  0  0  0  0  0  0  0  0
    2.8995    1.0065   -0.6662 H   0  0  0  0  0  0  0  0  0  0  0  0
    0.6654    0.8025   -1.5027 H   0  0  0  0  0  0  0  0  0  0  0  0
   -1.0173    2.1406   -0.2803 H   0  0  0  0  0  0  0  0  0  0  0  0
    0.3785    2.2964    0.9222 H   0  0  0  0  0  0  0  0  0  0  0  0
   -1.9172    0.5595    1.3858 H   0  0  0  0  0  0  0  0  0  0  0  0
   -0.1711    0.1436    1.9151 H   0  0  0  0  0  0  0  0  0  0  0  0
  1  2  1  0
  2  3  1  0
  3  4  2  0
  4  5  1  0
  5  6  1  0
  5  7  1  0
  7  8  1  0
  8  9  1  0
  7  2  1  0
  9  2  1  0
  1 10  1  0
  1 11  1  0
  1 12  1  0
  3 13  1  0
  4 14  1  0
  5 15  1  0
  6 16  1  0
  7 17  1  0
  8 18  1  0
  8 19  1  0
  9 20  1  0
  9 21  1  0
M  END
