
     RDKit          3D

 21 23  0  0  0  0  0  0  0  0999 V2000
    2.5663   -0.5301    0.1166 C   0  0  0  0  0  0  0  0  0  0  0  0
    1.2821    0.2186   -0.1561 C   0  0  0  0  0  0  0  0  0  0  0  0
    0.7113    0.1737   -1.5170 C   0  0  0  0  0  0  0  0  0  0  0  0
   -0.5811   -0.0889   -1.4964 C   0  0  0  0  0  0  0  0  0  0  0  0
   -1.0288   -0.2527   -0.0831 C   0  0  0  0  0  0  0  0  0  0  0  0
   -2.2464    0.4998    0.2845 C   0  0  0  0  0  0  0  0  0  0  0  0
   -2.2521   -0.9693    0.2483 C   0  0  0  0  0  0  0  0  0  0  0  0
    0.1542   -0.1304    0.7941 C   0  0  0  0  0  0  0  0  0  0  0  0
    0.8081    1.2120    0.8502 C   0  0  0  0  0  0  0  0  0  0  0  0
    3.3016   -0.2483   -0.6697 H   0  0  0  0  0  0  0  0  0  0  0  0
    2.3969   -1.6262    0.1742 H   0  0  0  0  0  0  0  0  0  0  0  0
    2.9858   -0.1375    1.0708 H   0  0  0  0  0  0  0  0  0  0  0  0
    1.2849    0.3365   -2.4202 H   0  0  0  0  0  0  0  0  0  0  0  0
   -1.2711   -0.1856   -2.3231 H   0  0  0  0  0  0  0  0  0  0  0  0
   -2.2498    1.0631    1.2318 H   0  0  0  0  0  0  0  0  0  0  0  0
   -2.8141    1.0191   -0.5253 H   0  0  0  0  0  0  0  0  0  0  0  0
   -2.7793   -1.4931   -0.5923 H   0  0  0  0  0  0  0  0  0  0  0  0
   -2.3500   -1.5302    1.2009 H   0  0  0  0  0  0  0  0  0  0  0  0
    0.3567   -0.8423    1.6191 H   0  0  0  0  0  0  0  0  0  0  0  0
    0.1832    2.0625    0.5498 H   0  0  0  0  0  0  0  0  0  0  0  0
    1.5417    1.4489    1.6429 H   0  0  0  0  0  0  0  0  0  0  0  0
  1  2  1  0
  2  3  1  0
  3  4  2  0
  4  5  1  0
  5  6  1  0
  6  7  1  0
  5  8  1  0
  8  9  1  0
  8  2  1  0
  9  2  1  0
  7  5  1  0
  1 10  1  0
  1 11  1  0
  1 12  1  0
  3 13  1  0
  4 14  1  0
  6 15  1  0
  6 16  1  0
  7 17  1  0
  7 18  1  0
  8 19  1  0
  9 20  1  0
  9 21  1  0
M  END
