
     RDKit          3D

 17 18  0  0  0  0  0  0  0  0999 V2000
   -2.1449    0.1692   -0.2688 C   0  0  0  0  0  0  0  0  0  0  0  0
   -0.8481   -0.4348   -0.6642 C   0  0  0  0  0  0  0  0  0  0  0  0
    0.0724   -1.0330    0.3727 C   0  0  0  0  0  0  0  0  0  0  0  0
    0.9327    0.2200    0.2032 C   0  0  0  0  0  0  0  0  0  0  0  0
    0.5958    1.1254    1.2102 O   0  0  0  0  0  0  0  0  0  0  0  0
    2.3818   -0.0367    0.1210 C   0  0  0  0  0  0  0  0  0  0  0  0
    2.8486   -0.7957   -0.6957 O   0  0  0  0  0  0  0  0  0  0  0  0
    0.2316    0.5838   -1.0574 C   0  0  0  0  0  0  0  0  0  0  0  0
   -0.3141   -0.3295   -1.9087 O   0  0  0  0  0  0  0  0  0  0  0  0
   -2.4767    1.0243   -0.8559 H   0  0  0  0  0  0  0  0  0  0  0  0
   -2.8986   -0.6549   -0.1987 H   0  0  0  0  0  0  0  0  0  0  0  0
   -2.0310    0.5424    0.7915 H   0  0  0  0  0  0  0  0  0  0  0  0
   -0.3543   -1.1739    1.3661 H   0  0  0  0  0  0  0  0  0  0  0  0
    0.5491   -1.9485   -0.0659 H   0  0  0  0  0  0  0  0  0  0  0  0
    0.4995    0.6399    2.0742 H   0  0  0  0  0  0  0  0  0  0  0  0
    3.0545    0.4672    0.8106 H   0  0  0  0  0  0  0  0  0  0  0  0
   -0.0980    1.6349   -1.2342 H   0  0  0  0  0  0  0  0  0  0  0  0
  1  2  1  0
  2  3  1  0
  3  4  1  0
  4  5  1  0
  4  6  1  0
  6  7  2  0
  4  8  1  0
  8  9  1  0
  8  2  1  0
  9  2  1  0
  1 10  1  0
  1 11  1  0
  1 12  1  0
  3 13  1  0
  3 14  1  0
  5 15  1  0
  6 16  1  0
  8 17  1  0
M  END
