
     RDKit          3D

 21 23  0  0  0  0  0  0  0  0999 V2000
   -2.3698    0.2178   -0.0583 C   0  0  0  0  0  0  0  0  0  0  0  0
   -0.9059    0.1994   -0.3128 C   0  0  0  0  0  0  0  0  0  0  0  0
   -0.0850    1.4608   -0.2524 C   0  0  0  0  0  0  0  0  0  0  0  0
    0.9373    0.6963    0.5586 C   0  0  0  0  0  0  0  0  0  0  0  0
    1.9493    0.0212   -0.3358 C   0  0  0  0  0  0  0  0  0  0  0  0
    1.2048   -1.1254   -1.0093 C   0  0  0  0  0  0  0  0  0  0  0  0
   -0.1994   -1.0889   -0.5067 C   0  0  0  0  0  0  0  0  0  0  0  0
   -0.0783   -0.3762    0.7664 C   0  0  0  0  0  0  0  0  0  0  0  0
   -0.5315   -0.7914    1.9597 O   0  0  0  0  0  0  0  0  0  0  0  0
   -2.9454   -0.5172   -0.6394 H   0  0  0  0  0  0  0  0  0  0  0  0
   -2.6257    0.0286    1.0242 H   0  0  0  0  0  0  0  0  0  0  0  0
   -2.7278    1.2710   -0.2357 H   0  0  0  0  0  0  0  0  0  0  0  0
   -0.5350    2.3081    0.2763 H   0  0  0  0  0  0  0  0  0  0  0  0
    0.3040    1.6919   -1.2722 H   0  0  0  0  0  0  0  0  0  0  0  0
    1.3080    1.1704    1.4607 H   0  0  0  0  0  0  0  0  0  0  0  0
    2.7703   -0.3314    0.3076 H   0  0  0  0  0  0  0  0  0  0  0  0
    2.3731    0.7274   -1.0925 H   0  0  0  0  0  0  0  0  0  0  0  0
    1.3121   -1.1271   -2.0917 H   0  0  0  0  0  0  0  0  0  0  0  0
    1.6696   -2.0766   -0.6180 H   0  0  0  0  0  0  0  0  0  0  0  0
   -0.7740   -2.0086   -0.6249 H   0  0  0  0  0  0  0  0  0  0  0  0
   -0.0508   -0.3501    2.6963 H   0  0  0  0  0  0  0  0  0  0  0  0
  1  2  1  0
  2  3  1  0
  3  4  1  0
  4  5  1  0
  5  6  1  0
  6  7  1  0
  7  8  1  0
  8  9  1  0
  7  2  1  0
  8  2  1  0
  8  4  1  0
  1 10  1  0
  1 11  1  0
  1 12  1  0
  3 13  1  0
  3 14  1  0
  4 15  1  0
  5 16  1  0
  5 17  1  0
  6 18  1  0
  6 19  1  0
  7 20  1  0
  9 21  1  0
M  END
