
     RDKit          3D

 21 22  0  0  0  0  0  0  0  0999 V2000
   -1.3029    1.0411    0.6240 C   0  0  0  0  0  0  0  0  0  0  0  0
   -1.3008   -0.0757   -0.3663 C   0  0  0  0  0  0  0  0  0  0  0  0
   -1.4038    0.2167   -1.8383 C   0  0  0  0  0  0  0  0  0  0  0  0
   -0.3412   -0.6515   -2.0897 O   0  0  0  0  0  0  0  0  0  0  0  0
   -0.1308   -0.8672   -0.7334 C   0  0  0  0  0  0  0  0  0  0  0  0
    1.2219   -0.7385   -0.1411 C   0  0  0  0  0  0  0  0  0  0  0  0
    1.8351    0.6331   -0.3203 C   0  0  0  0  0  0  0  0  0  0  0  0
    3.1026    0.6830    0.2585 O   0  0  0  0  0  0  0  0  0  0  0  0
   -1.2280   -1.4895    0.0799 C   0  0  0  0  0  0  0  0  0  0  0  0
   -2.3534    1.1097    1.0307 H   0  0  0  0  0  0  0  0  0  0  0  0
   -0.6690    0.8271    1.5124 H   0  0  0  0  0  0  0  0  0  0  0  0
   -1.1076    2.0117    0.1558 H   0  0  0  0  0  0  0  0  0  0  0  0
   -1.0839    1.2640   -2.0835 H   0  0  0  0  0  0  0  0  0  0  0  0
   -2.3588   -0.0509   -2.2926 H   0  0  0  0  0  0  0  0  0  0  0  0
    1.1682   -0.9803    0.9381 H   0  0  0  0  0  0  0  0  0  0  0  0
    1.9028   -1.4667   -0.6273 H   0  0  0  0  0  0  0  0  0  0  0  0
    1.9891    0.8468   -1.4060 H   0  0  0  0  0  0  0  0  0  0  0  0
    1.2156    1.4179    0.1524 H   0  0  0  0  0  0  0  0  0  0  0  0
    3.7573    0.1267   -0.2063 H   0  0  0  0  0  0  0  0  0  0  0  0
   -0.9954   -1.6422    1.1406 H   0  0  0  0  0  0  0  0  0  0  0  0
   -1.9169   -2.2154   -0.3571 H   0  0  0  0  0  0  0  0  0  0  0  0
  1  2  1  0
  2  3  1  0
  3  4  1  0
  4  5  1  0
  5  6  1  0
  6  7  1  0
  7  8  1  0
  5  9  1  0
  5  2  1  0
  9  2  1  0
  1 10  1  0
  1 11  1  0
  1 12  1  0
  3 13  1  0
  3 14  1  0
  6 15  1  0
  6 16  1  0
  7 17  1  0
  7 18  1  0
  8 19  1  0
  9 20  1  0
  9 21  1  0
M  END
