
     RDKit          3D

 16 17  0  0  0  0  0  0  0  0999 V2000
   -1.4771   -0.2445    0.9501 C   0  0  0  0  0  0  0  0  0  0  0  0
   -0.7297    0.1042   -0.2702 C   0  0  0  0  0  0  0  0  0  0  0  0
   -0.1356    1.3960   -0.5852 C   0  0  0  0  0  0  0  0  0  0  0  0
    0.7118    0.1863   -0.3970 C   0  0  0  0  0  0  0  0  0  0  0  0
    1.6731    0.2504    0.7031 C   0  0  0  0  0  0  0  0  0  0  0  0
    1.4487    0.0599    1.8671 O   0  0  0  0  0  0  0  0  0  0  0  0
    0.4868   -1.0685   -1.1658 C   0  0  0  0  0  0  0  0  0  0  0  0
   -0.8665   -0.7534   -1.3880 O   0  0  0  0  0  0  0  0  0  0  0  0
   -2.4078    0.3458    1.1217 H   0  0  0  0  0  0  0  0  0  0  0  0
   -0.8689   -0.2479    1.8793 H   0  0  0  0  0  0  0  0  0  0  0  0
   -1.8434   -1.3079    0.8497 H   0  0  0  0  0  0  0  0  0  0  0  0
   -0.1339    1.7865   -1.6344 H   0  0  0  0  0  0  0  0  0  0  0  0
   -0.1300    2.1684    0.1770 H   0  0  0  0  0  0  0  0  0  0  0  0
    2.7179    0.4997    0.4445 H   0  0  0  0  0  0  0  0  0  0  0  0
    0.5039   -1.9525   -0.4642 H   0  0  0  0  0  0  0  0  0  0  0  0
    1.0506   -1.2225   -2.0876 H   0  0  0  0  0  0  0  0  0  0  0  0
  1  2  1  0
  2  3  1  0
  3  4  1  0
  4  5  1  0
  5  6  2  0
  4  7  1  0
  7  8  1  0
  4  2  1  0
  8  2  1  0
  1  9  1  0
  1 10  1  0
  1 11  1  0
  3 12  1  0
  3 13  1  0
  5 14  1  0
  7 15  1  0
  7 16  1  0
M  END
