
     RDKit          3D

 21 23  0  0  0  0  0  0  0  0999 V2000
    1.6322    1.2966   -0.0618 C   0  0  0  0  0  0  0  0  0  0  0  0
    0.7664    0.1128    0.3772 C   0  0  0  0  0  0  0  0  0  0  0  0
    1.3200   -1.2333    0.4542 C   0  0  0  0  0  0  0  0  0  0  0  0
    0.5779   -0.9173   -0.7622 C   0  0  0  0  0  0  0  0  0  0  0  0
   -0.9016   -0.9411   -0.8963 C   0  0  0  0  0  0  0  0  0  0  0  0
   -1.3632   -0.9326    0.5689 C   0  0  0  0  0  0  0  0  0  0  0  0
   -0.6135    0.3723    0.8703 C   0  0  0  0  0  0  0  0  0  0  0  0
   -1.3125    1.1851   -0.2296 C   0  0  0  0  0  0  0  0  0  0  0  0
   -1.2966    0.3459   -1.3134 O   0  0  0  0  0  0  0  0  0  0  0  0
    1.3850    1.5470   -1.1309 H   0  0  0  0  0  0  0  0  0  0  0  0
    2.6964    1.0400   -0.0499 H   0  0  0  0  0  0  0  0  0  0  0  0
    1.3566    2.1767    0.5285 H   0  0  0  0  0  0  0  0  0  0  0  0
    2.4406   -1.3000    0.3135 H   0  0  0  0  0  0  0  0  0  0  0  0
    0.9879   -1.8915    1.2592 H   0  0  0  0  0  0  0  0  0  0  0  0
    1.1190   -0.7505   -1.7130 H   0  0  0  0  0  0  0  0  0  0  0  0
   -1.3315   -1.7416   -1.4743 H   0  0  0  0  0  0  0  0  0  0  0  0
   -2.4538   -0.7570    0.5318 H   0  0  0  0  0  0  0  0  0  0  0  0
   -1.0361   -1.7775    1.1393 H   0  0  0  0  0  0  0  0  0  0  0  0
   -0.7439    0.7464    1.8528 H   0  0  0  0  0  0  0  0  0  0  0  0
   -2.3837    1.2626    0.1196 H   0  0  0  0  0  0  0  0  0  0  0  0
   -0.8455    2.1571   -0.3839 H   0  0  0  0  0  0  0  0  0  0  0  0
  1  2  1  0
  2  3  1  0
  3  4  1  0
  4  5  1  0
  5  6  1  0
  6  7  1  0
  7  8  1  0
  8  9  1  0
  4  2  1  0
  9  5  1  0
  7  2  1  0
  1 10  1  0
  1 11  1  0
  1 12  1  0
  3 13  1  0
  3 14  1  0
  4 15  1  0
  5 16  1  0
  6 17  1  0
  6 18  1  0
  7 19  1  0
  8 20  1  0
  8 21  1  0
M  END
