
     RDKit          3D

 21 23  0  0  0  0  0  0  0  0999 V2000
   -0.7064    1.4168   -1.0851 C   0  0  0  0  0  0  0  0  0  0  0  0
   -0.4652    0.5263    0.0483 C   0  0  0  0  0  0  0  0  0  0  0  0
   -0.3089    1.2341    1.3775 C   0  0  0  0  0  0  0  0  0  0  0  0
    0.9643    0.6631    1.4954 O   0  0  0  0  0  0  0  0  0  0  0  0
    0.7808   -0.0993    0.3613 C   0  0  0  0  0  0  0  0  0  0  0  0
    1.9630   -0.0885   -0.5203 C   0  0  0  0  0  0  0  0  0  0  0  0
    0.1108   -1.4208    0.5844 C   0  0  0  0  0  0  0  0  0  0  0  0
   -0.7487   -2.0156   -0.4458 C   0  0  0  0  0  0  0  0  0  0  0  0
   -1.2323   -0.7495    0.1547 C   0  0  0  0  0  0  0  0  0  0  0  0
   -1.4718    1.0183   -1.8109 H   0  0  0  0  0  0  0  0  0  0  0  0
    0.2032    1.6899   -1.6169 H   0  0  0  0  0  0  0  0  0  0  0  0
   -1.1386    2.3820   -0.6850 H   0  0  0  0  0  0  0  0  0  0  0  0
   -1.0454    0.8718    2.1139 H   0  0  0  0  0  0  0  0  0  0  0  0
   -0.2810    2.3413    1.2288 H   0  0  0  0  0  0  0  0  0  0  0  0
    1.8701   -0.5941   -1.4792 H   0  0  0  0  0  0  0  0  0  0  0  0
    2.3115    0.9586   -0.6436 H   0  0  0  0  0  0  0  0  0  0  0  0
    2.8084   -0.6023    0.0263 H   0  0  0  0  0  0  0  0  0  0  0  0
    0.1593   -1.7856    1.6259 H   0  0  0  0  0  0  0  0  0  0  0  0
   -0.4154   -2.0735   -1.4958 H   0  0  0  0  0  0  0  0  0  0  0  0
   -1.3182   -2.9234   -0.1343 H   0  0  0  0  0  0  0  0  0  0  0  0
   -2.0396   -0.7495    0.9003 H   0  0  0  0  0  0  0  0  0  0  0  0
  1  2  1  0
  2  3  1  0
  3  4  1  0
  4  5  1  0
  5  6  1  0
  5  7  1  0
  7  8  1  0
  8  9  1  0
  5  2  1  0
  9  7  1  0
  9  2  1  0
  1 10  1  0
  1 11  1  0
  1 12  1  0
  3 13  1  0
  3 14  1  0
  6 15  1  0
  6 16  1  0
  6 17  1  0
  7 18  1  0
  8 19  1  0
  8 20  1  0
  9 21  1  0
M  END
