
     RDKit          3D

 20 21  0  0  0  0  0  0  0  0999 V2000
    1.7219   -1.3401   -0.1685 C   0  0  0  0  0  0  0  0  0  0  0  0
    0.6955   -0.2782   -0.3981 C   0  0  0  0  0  0  0  0  0  0  0  0
   -0.4582   -0.5354   -1.3510 C   0  0  0  0  0  0  0  0  0  0  0  0
   -1.7181   -0.1789   -0.6236 C   0  0  0  0  0  0  0  0  0  0  0  0
   -1.3235    0.2639    0.7612 C   0  0  0  0  0  0  0  0  0  0  0  0
    0.1572    0.3816    0.8087 C   0  0  0  0  0  0  0  0  0  0  0  0
    0.9574    1.1534   -0.1374 C   0  0  0  0  0  0  0  0  0  0  0  0
    0.3579    2.1277   -0.9671 O   0  0  0  0  0  0  0  0  0  0  0  0
    1.7157   -2.1457   -0.9361 H   0  0  0  0  0  0  0  0  0  0  0  0
    2.7553   -0.9632   -0.0771 H   0  0  0  0  0  0  0  0  0  0  0  0
    1.4500   -1.8535    0.7979 H   0  0  0  0  0  0  0  0  0  0  0  0
   -0.4451   -1.5292   -1.7958 H   0  0  0  0  0  0  0  0  0  0  0  0
   -0.3220    0.2025   -2.1889 H   0  0  0  0  0  0  0  0  0  0  0  0
   -2.2334    0.6946   -1.0992 H   0  0  0  0  0  0  0  0  0  0  0  0
   -2.3665   -1.0887   -0.6177 H   0  0  0  0  0  0  0  0  0  0  0  0
   -1.7753    1.2314    1.0566 H   0  0  0  0  0  0  0  0  0  0  0  0
   -1.6179   -0.5689    1.4612 H   0  0  0  0  0  0  0  0  0  0  0  0
    0.6025    0.1821    1.8185 H   0  0  0  0  0  0  0  0  0  0  0  0
    1.9727    1.4354    0.1628 H   0  0  0  0  0  0  0  0  0  0  0  0
   -0.1261    2.8094   -0.4311 H   0  0  0  0  0  0  0  0  0  0  0  0
  1  2  1  0
  2  3  1  0
  3  4  1  0
  4  5  1  0
  5  6  1  0
  6  7  1  0
  7  8  1  0
  6  2  1  0
  7  2  1  0
  1  9  1  0
  1 10  1  0
  1 11  1  0
  3 12  1  0
  3 13  1  0
  4 14  1  0
  4 15  1  0
  5 16  1  0
  5 17  1  0
  6 18  1  0
  7 19  1  0
  8 20  1  0
M  END
