
     RDKit          3D

 23 24  0  0  0  0  0  0  0  0999 V2000
   -2.2910   -0.3486    0.1108 C   0  0  0  0  0  0  0  0  0  0  0  0
   -0.8165   -0.0673    0.0723 C   0  0  0  0  0  0  0  0  0  0  0  0
   -0.0144   -1.2996   -0.0217 C   0  0  0  0  0  0  0  0  0  0  0  0
    1.4330   -1.2116   -0.0985 C   0  0  0  0  0  0  0  0  0  0  0  0
    2.0584    0.0844   -0.4910 C   0  0  0  0  0  0  0  0  0  0  0  0
    1.7190    1.1654    0.2463 O   0  0  0  0  0  0  0  0  0  0  0  0
    0.4390    1.5909    0.2105 C   0  0  0  0  0  0  0  0  0  0  0  0
   -0.4333    1.0400   -0.8438 C   0  0  0  0  0  0  0  0  0  0  0  0
   -0.3475    0.7658    1.2393 C   0  0  0  0  0  0  0  0  0  0  0  0
   -2.8726    0.5509    0.3509 H   0  0  0  0  0  0  0  0  0  0  0  0
   -2.6174   -0.7307   -0.8831 H   0  0  0  0  0  0  0  0  0  0  0  0
   -2.5155   -1.1313    0.8509 H   0  0  0  0  0  0  0  0  0  0  0  0
   -0.3218   -1.9498    0.8530 H   0  0  0  0  0  0  0  0  0  0  0  0
   -0.4076   -1.8837   -0.9080 H   0  0  0  0  0  0  0  0  0  0  0  0
    1.8433   -1.9788   -0.8210 H   0  0  0  0  0  0  0  0  0  0  0  0
    1.9008   -1.5182    0.8833 H   0  0  0  0  0  0  0  0  0  0  0  0
    3.1752   -0.0589   -0.3706 H   0  0  0  0  0  0  0  0  0  0  0  0
    1.9632    0.3135   -1.5855 H   0  0  0  0  0  0  0  0  0  0  0  0
    0.3239    2.6741    0.4060 H   0  0  0  0  0  0  0  0  0  0  0  0
   -1.3149    1.7227   -1.0219 H   0  0  0  0  0  0  0  0  0  0  0  0
   -0.0221    0.7338   -1.7931 H   0  0  0  0  0  0  0  0  0  0  0  0
   -1.1748    1.3375    1.6745 H   0  0  0  0  0  0  0  0  0  0  0  0
    0.2934    0.1996    1.9403 H   0  0  0  0  0  0  0  0  0  0  0  0
  1  2  1  0
  2  3  1  0
  3  4  1  0
  4  5  1  0
  5  6  1  0
  6  7  1  0
  7  8  1  0
  7  9  1  0
  8  2  1  0
  9  2  1  0
  1 10  1  0
  1 11  1  0
  1 12  1  0
  3 13  1  0
  3 14  1  0
  4 15  1  0
  4 16  1  0
  5 17  1  0
  5 18  1  0
  7 19  1  0
  8 20  1  0
  8 21  1  0
  9 22  1  0
  9 23  1  0
M  END
