
     RDKit          3D

 19 21  0  0  0  0  0  0  0  0999 V2000
    1.6538   -1.0932   -0.4074 C   0  0  0  0  0  0  0  0  0  0  0  0
    0.4976   -0.2315   -0.3137 C   0  0  0  0  0  0  0  0  0  0  0  0
   -0.0283    0.3644    0.9631 C   0  0  0  0  0  0  0  0  0  0  0  0
    0.1146    1.8445    0.5789 C   0  0  0  0  0  0  0  0  0  0  0  0
   -0.2459    1.9153   -0.7416 O   0  0  0  0  0  0  0  0  0  0  0  0
   -0.0289    0.6771   -1.3352 C   0  0  0  0  0  0  0  0  0  0  0  0
   -0.8440   -0.4343   -0.7982 C   0  0  0  0  0  0  0  0  0  0  0  0
   -1.3766   -0.2144    0.6207 C   0  0  0  0  0  0  0  0  0  0  0  0
   -1.6419   -1.3753    1.3194 O   0  0  0  0  0  0  0  0  0  0  0  0
    2.2041   -0.9112   -1.3662 H   0  0  0  0  0  0  0  0  0  0  0  0
    2.3902   -0.8614    0.4007 H   0  0  0  0  0  0  0  0  0  0  0  0
    1.3778   -2.1586   -0.3101 H   0  0  0  0  0  0  0  0  0  0  0  0
    0.4329    0.0710    1.8947 H   0  0  0  0  0  0  0  0  0  0  0  0
   -0.4332    2.5027    1.2478 H   0  0  0  0  0  0  0  0  0  0  0  0
    1.2213    2.0652    0.6251 H   0  0  0  0  0  0  0  0  0  0  0  0
    0.2796    0.6199   -2.3947 H   0  0  0  0  0  0  0  0  0  0  0  0
   -1.1026   -1.3315   -1.3449 H   0  0  0  0  0  0  0  0  0  0  0  0
   -2.2200    0.4819    0.6030 H   0  0  0  0  0  0  0  0  0  0  0  0
   -2.2504   -1.9305    0.7586 H   0  0  0  0  0  0  0  0  0  0  0  0
  1  2  1  0
  2  3  1  0
  3  4  1  0
  4  5  1  0
  5  6  1  0
  6  7  1  0
  7  8  1  0
  8  9  1  0
  6  2  1  0
  7  2  1  0
  8  3  1  0
  1 10  1  0
  1 11  1  0
  1 12  1  0
  3 13  1  0
  4 14  1  0
  4 15  1  0
  6 16  1  0
  7 17  1  0
  8 18  1  0
  9 19  1  0
M  END
