
     RDKit          3D

 21 23  0  0  0  0  0  0  0  0999 V2000
    2.4990    0.1904   -0.2338 C   0  0  0  0  0  0  0  0  0  0  0  0
    0.9936    0.0035   -0.2809 C   0  0  0  0  0  0  0  0  0  0  0  0
    0.5181   -1.3049    0.2830 C   0  0  0  0  0  0  0  0  0  0  0  0
   -0.6075   -0.5888    1.0436 C   0  0  0  0  0  0  0  0  0  0  0  0
   -1.8631   -0.7175    0.2607 C   0  0  0  0  0  0  0  0  0  0  0  0
   -2.1113    0.3204   -0.7553 C   0  0  0  0  0  0  0  0  0  0  0  0
   -1.1815    1.1724   -1.1074 C   0  0  0  0  0  0  0  0  0  0  0  0
    0.1510    1.1621   -0.5307 C   0  0  0  0  0  0  0  0  0  0  0  0
    0.1717    0.6620    0.8638 C   0  0  0  0  0  0  0  0  0  0  0  0
    2.9851   -0.7757   -0.4368 H   0  0  0  0  0  0  0  0  0  0  0  0
    2.7514    0.8555   -1.0917 H   0  0  0  0  0  0  0  0  0  0  0  0
    2.7724    0.6394    0.7262 H   0  0  0  0  0  0  0  0  0  0  0  0
    0.1741   -2.0624   -0.4181 H   0  0  0  0  0  0  0  0  0  0  0  0
    1.2264   -1.7291    1.0216 H   0  0  0  0  0  0  0  0  0  0  0  0
   -0.6783   -0.9058    2.1055 H   0  0  0  0  0  0  0  0  0  0  0  0
   -1.9118   -1.7138   -0.2925 H   0  0  0  0  0  0  0  0  0  0  0  0
   -2.7741   -0.7940    0.9239 H   0  0  0  0  0  0  0  0  0  0  0  0
   -3.1257    0.3724   -1.2311 H   0  0  0  0  0  0  0  0  0  0  0  0
   -1.4308    1.9327   -1.8823 H   0  0  0  0  0  0  0  0  0  0  0  0
    0.7174    2.1376   -0.6354 H   0  0  0  0  0  0  0  0  0  0  0  0
    0.7240    1.1438    1.6676 H   0  0  0  0  0  0  0  0  0  0  0  0
  1  2  1  0
  2  3  1  0
  3  4  1  0
  4  5  1  0
  5  6  1  0
  6  7  2  0
  7  8  1  0
  8  9  1  0
  8  2  1  0
  9  2  1  0
  9  4  1  0
  1 10  1  0
  1 11  1  0
  1 12  1  0
  3 13  1  0
  3 14  1  0
  4 15  1  0
  5 16  1  0
  5 17  1  0
  6 18  1  0
  7 19  1  0
  8 20  1  0
  9 21  1  0
M  END
