
     RDKit          3D

 23 24  0  0  0  0  0  0  0  0999 V2000
    2.3154    0.9135    0.0844 C   0  0  0  0  0  0  0  0  0  0  0  0
    1.3034   -0.1700    0.1375 C   0  0  0  0  0  0  0  0  0  0  0  0
    0.6568   -0.4722    1.4672 C   0  0  0  0  0  0  0  0  0  0  0  0
   -0.6913   -0.4098    1.3238 O   0  0  0  0  0  0  0  0  0  0  0  0
   -1.0309   -0.0824    0.0471 C   0  0  0  0  0  0  0  0  0  0  0  0
   -2.1778   -0.9840   -0.3838 C   0  0  0  0  0  0  0  0  0  0  0  0
   -1.6014    1.3445    0.0061 C   0  0  0  0  0  0  0  0  0  0  0  0
    0.1401   -0.1293   -0.8422 C   0  0  0  0  0  0  0  0  0  0  0  0
    1.1373   -1.2005   -0.8915 C   0  0  0  0  0  0  0  0  0  0  0  0
    2.6886    1.0924    1.1261 H   0  0  0  0  0  0  0  0  0  0  0  0
    3.1195    0.7394   -0.6267 H   0  0  0  0  0  0  0  0  0  0  0  0
    1.8001    1.8610   -0.2005 H   0  0  0  0  0  0  0  0  0  0  0  0
    1.0006   -1.5125    1.7433 H   0  0  0  0  0  0  0  0  0  0  0  0
    0.9937    0.2082    2.2773 H   0  0  0  0  0  0  0  0  0  0  0  0
   -2.9903   -0.8076    0.3808 H   0  0  0  0  0  0  0  0  0  0  0  0
   -2.5395   -0.7500   -1.3843 H   0  0  0  0  0  0  0  0  0  0  0  0
   -1.8255   -2.0237   -0.2450 H   0  0  0  0  0  0  0  0  0  0  0  0
   -2.4386    1.4289   -0.6963 H   0  0  0  0  0  0  0  0  0  0  0  0
   -0.8115    2.0536   -0.3743 H   0  0  0  0  0  0  0  0  0  0  0  0
   -1.8532    1.6849    1.0173 H   0  0  0  0  0  0  0  0  0  0  0  0
    0.1820    0.6434   -1.6646 H   0  0  0  0  0  0  0  0  0  0  0  0
    0.7787   -2.2223   -0.5785 H   0  0  0  0  0  0  0  0  0  0  0  0
    1.8437   -1.2055   -1.7234 H   0  0  0  0  0  0  0  0  0  0  0  0
  1  2  1  0
  2  3  1  0
  3  4  1  0
  4  5  1  0
  5  6  1  0
  5  7  1  0
  5  8  1  0
  8  9  1  0
  8  2  1  0
  9  2  1  0
  1 10  1  0
  1 11  1  0
  1 12  1  0
  3 13  1  0
  3 14  1  0
  6 15  1  0
  6 16  1  0
  6 17  1  0
  7 18  1  0
  7 19  1  0
  7 20  1  0
  8 21  1  0
  9 22  1  0
  9 23  1  0
M  END
