
     RDKit          3D

 19 21  0  0  0  0  0  0  0  0999 V2000
   -1.1353    1.2351    0.2756 C   0  0  0  0  0  0  0  0  0  0  0  0
   -0.6297    0.1722   -0.7053 C   0  0  0  0  0  0  0  0  0  0  0  0
   -1.6878   -0.4102   -1.3696 O   0  0  0  0  0  0  0  0  0  0  0  0
   -1.9624   -0.9767   -0.0991 C   0  0  0  0  0  0  0  0  0  0  0  0
   -0.4831   -1.2870   -0.1253 C   0  0  0  0  0  0  0  0  0  0  0  0
    0.6091   -0.3682   -0.2830 C   0  0  0  0  0  0  0  0  0  0  0  0
    1.3762    0.0750    0.9069 C   0  0  0  0  0  0  0  0  0  0  0  0
    2.4278    0.2760   -0.1767 C   0  0  0  0  0  0  0  0  0  0  0  0
    1.7223   -0.5344   -1.0632 O   0  0  0  0  0  0  0  0  0  0  0  0
   -0.4509    2.1180    0.0808 H   0  0  0  0  0  0  0  0  0  0  0  0
   -2.1343    1.5978    0.0504 H   0  0  0  0  0  0  0  0  0  0  0  0
   -0.9357    0.9686    1.3245 H   0  0  0  0  0  0  0  0  0  0  0  0
   -2.6167   -1.8664   -0.1817 H   0  0  0  0  0  0  0  0  0  0  0  0
   -2.3507   -0.3267    0.6630 H   0  0  0  0  0  0  0  0  0  0  0  0
   -0.3681   -2.0947   -0.9210 H   0  0  0  0  0  0  0  0  0  0  0  0
    1.6124   -0.7815    1.5721 H   0  0  0  0  0  0  0  0  0  0  0  0
    1.1015    1.0098    1.3920 H   0  0  0  0  0  0  0  0  0  0  0  0
    3.4258   -0.1425    0.0679 H   0  0  0  0  0  0  0  0  0  0  0  0
    2.4798    1.3361   -0.5389 H   0  0  0  0  0  0  0  0  0  0  0  0
  1  2  1  0
  2  3  1  0
  3  4  1  0
  4  5  1  0
  5  6  1  0
  6  7  1  0
  7  8  1  0
  8  9  1  0
  5  2  1  0
  9  6  1  0
  6  2  1  0
  1 10  1  0
  1 11  1  0
  1 12  1  0
  4 13  1  0
  4 14  1  0
  5 15  1  0
  7 16  1  0
  7 17  1  0
  8 18  1  0
  8 19  1  0
M  END
