
     RDKit          3D

 19 21  0  0  0  0  0  0  0  0999 V2000
   -2.0624    0.6417   -0.2662 C   0  0  0  0  0  0  0  0  0  0  0  0
   -0.8629   -0.2380   -0.0474 C   0  0  0  0  0  0  0  0  0  0  0  0
   -0.7123   -1.1040    1.1188 C   0  0  0  0  0  0  0  0  0  0  0  0
   -0.0081    0.1802    1.2050 C   0  0  0  0  0  0  0  0  0  0  0  0
    1.2653    0.4586    0.4546 C   0  0  0  0  0  0  0  0  0  0  0  0
    0.7656    1.1901   -0.6511 O   0  0  0  0  0  0  0  0  0  0  0  0
    0.2308   -0.0547   -1.0671 C   0  0  0  0  0  0  0  0  0  0  0  0
    1.4815   -0.6613   -0.5158 C   0  0  0  0  0  0  0  0  0  0  0  0
    2.5610   -0.3644   -1.3490 O   0  0  0  0  0  0  0  0  0  0  0  0
   -1.8781    1.6417    0.2259 H   0  0  0  0  0  0  0  0  0  0  0  0
   -3.0070    0.1918    0.0497 H   0  0  0  0  0  0  0  0  0  0  0  0
   -2.1404    0.8873   -1.3555 H   0  0  0  0  0  0  0  0  0  0  0  0
   -1.6053   -1.2020    1.7686 H   0  0  0  0  0  0  0  0  0  0  0  0
   -0.1735   -2.0727    1.0151 H   0  0  0  0  0  0  0  0  0  0  0  0
   -0.3983    0.9895    1.8145 H   0  0  0  0  0  0  0  0  0  0  0  0
    2.0992    0.8810    0.9750 H   0  0  0  0  0  0  0  0  0  0  0  0
   -0.0014   -0.1570   -2.1053 H   0  0  0  0  0  0  0  0  0  0  0  0
    1.4506   -1.6800   -0.1485 H   0  0  0  0  0  0  0  0  0  0  0  0
    2.9957    0.4721   -1.1215 H   0  0  0  0  0  0  0  0  0  0  0  0
  1  2  1  0
  2  3  1  0
  3  4  1  0
  4  5  1  0
  5  6  1  0
  6  7  1  0
  7  8  1  0
  8  9  1  0
  4  2  1  0
  8  5  1  0
  7  2  1  0
  1 10  1  0
  1 11  1  0
  1 12  1  0
  3 13  1  0
  3 14  1  0
  4 15  1  0
  5 16  1  0
  7 17  1  0
  8 18  1  0
  9 19  1  0
M  END
