
     RDKit          3D

 17 18  0  0  0  0  0  0  0  0999 V2000
   -1.1625    1.3402    0.3117 C   0  0  0  0  0  0  0  0  0  0  0  0
   -0.3249    0.0942    0.1291 C   0  0  0  0  0  0  0  0  0  0  0  0
   -1.0408   -1.1749   -0.1305 C   0  0  0  0  0  0  0  0  0  0  0  0
   -0.1924   -0.5476   -1.2031 C   0  0  0  0  0  0  0  0  0  0  0  0
    1.1245   -1.1206   -1.2651 O   0  0  0  0  0  0  0  0  0  0  0  0
    1.6090   -1.1923    0.0438 C   0  0  0  0  0  0  0  0  0  0  0  0
    2.2930   -2.0696    0.6021 O   0  0  0  0  0  0  0  0  0  0  0  0
    1.0949    0.0867    0.6538 C   0  0  0  0  0  0  0  0  0  0  0  0
    1.8516    1.1071    0.0669 O   0  0  0  0  0  0  0  0  0  0  0  0
   -0.6655    2.2446   -0.0364 H   0  0  0  0  0  0  0  0  0  0  0  0
   -2.0959    1.1724   -0.2919 H   0  0  0  0  0  0  0  0  0  0  0  0
   -1.5247    1.4005    1.3703 H   0  0  0  0  0  0  0  0  0  0  0  0
   -0.7092   -2.1354    0.3325 H   0  0  0  0  0  0  0  0  0  0  0  0
   -2.1470   -1.1107   -0.1915 H   0  0  0  0  0  0  0  0  0  0  0  0
   -0.6235   -0.1236   -2.1045 H   0  0  0  0  0  0  0  0  0  0  0  0
    1.1604    0.0794    1.7413 H   0  0  0  0  0  0  0  0  0  0  0  0
    1.3530    1.9497   -0.0287 H   0  0  0  0  0  0  0  0  0  0  0  0
  1  2  1  0
  2  3  1  0
  3  4  1  0
  4  5  1  0
  5  6  1  0
  6  7  2  0
  6  8  1  0
  8  9  1  0
  4  2  1  0
  8  2  1  0
  1 10  1  0
  1 11  1  0
  1 12  1  0
  3 13  1  0
  3 14  1  0
  4 15  1  0
  8 16  1  0
  9 17  1  0
M  END
