
     RDKit          3D

 19 21  0  0  0  0  0  0  0  0999 V2000
   -1.2470    1.7495    0.0936 C   0  0  0  0  0  0  0  0  0  0  0  0
   -0.6571    0.4753    0.7092 C   0  0  0  0  0  0  0  0  0  0  0  0
    0.4929    0.7675    1.4045 O   0  0  0  0  0  0  0  0  0  0  0  0
    0.7129   -0.0032    0.3171 C   0  0  0  0  0  0  0  0  0  0  0  0
    1.4450    0.5086   -0.8386 C   0  0  0  0  0  0  0  0  0  0  0  0
    2.7421    0.8810   -0.4103 O   0  0  0  0  0  0  0  0  0  0  0  0
    0.2428   -1.4371    0.4280 C   0  0  0  0  0  0  0  0  0  0  0  0
   -1.0691   -2.0745    0.3280 C   0  0  0  0  0  0  0  0  0  0  0  0
   -0.9469   -0.7581   -0.0544 C   0  0  0  0  0  0  0  0  0  0  0  0
   -0.9541    1.7550   -0.9711 H   0  0  0  0  0  0  0  0  0  0  0  0
   -0.9481    2.6529    0.6136 H   0  0  0  0  0  0  0  0  0  0  0  0
   -2.3501    1.6480    0.1150 H   0  0  0  0  0  0  0  0  0  0  0  0
    1.6123   -0.2272   -1.6500 H   0  0  0  0  0  0  0  0  0  0  0  0
    1.0315    1.4352   -1.3087 H   0  0  0  0  0  0  0  0  0  0  0  0
    2.9931    0.2279    0.2905 H   0  0  0  0  0  0  0  0  0  0  0  0
    0.6651   -1.8125    1.3411 H   0  0  0  0  0  0  0  0  0  0  0  0
   -1.1346   -2.8995   -0.4321 H   0  0  0  0  0  0  0  0  0  0  0  0
   -1.7369   -2.3356    1.2024 H   0  0  0  0  0  0  0  0  0  0  0  0
   -0.8939   -0.5533   -1.1780 H   0  0  0  0  0  0  0  0  0  0  0  0
  1  2  1  0
  2  3  1  0
  3  4  1  0
  4  5  1  0
  5  6  1  0
  4  7  1  0
  7  8  1  0
  8  9  1  0
  4  2  1  0
  9  7  1  0
  9  2  1  0
  1 10  1  0
  1 11  1  0
  1 12  1  0
  5 13  1  0
  5 14  1  0
  6 15  1  0
  7 16  1  0
  8 17  1  0
  8 18  1  0
  9 19  1  0
M  END
