
     RDKit          3D

 21 23  0  0  0  0  0  0  0  0999 V2000
   -1.6868    0.9373    0.5872 C   0  0  0  0  0  0  0  0  0  0  0  0
   -0.8805    0.1303   -0.4428 C   0  0  0  0  0  0  0  0  0  0  0  0
   -1.6764   -0.9475   -0.9427 C   0  0  0  0  0  0  0  0  0  0  0  0
   -0.6387   -1.3964   -0.0754 C   0  0  0  0  0  0  0  0  0  0  0  0
    0.0730   -0.7151    1.0630 C   0  0  0  0  0  0  0  0  0  0  0  0
    0.5519    0.1571   -0.0665 C   0  0  0  0  0  0  0  0  0  0  0  0
    1.4231    1.2832    0.0293 C   0  0  0  0  0  0  0  0  0  0  0  0
    1.7100    0.0186   -0.8514 C   0  0  0  0  0  0  0  0  0  0  0  0
    2.8394   -0.7053   -0.4331 O   0  0  0  0  0  0  0  0  0  0  0  0
   -1.0987    1.6461    1.1606 H   0  0  0  0  0  0  0  0  0  0  0  0
   -2.3880    0.3137    1.1645 H   0  0  0  0  0  0  0  0  0  0  0  0
   -2.3626    1.5764   -0.0622 H   0  0  0  0  0  0  0  0  0  0  0  0
   -2.7287   -1.2008   -0.6062 H   0  0  0  0  0  0  0  0  0  0  0  0
   -1.6653   -1.0513   -2.0728 H   0  0  0  0  0  0  0  0  0  0  0  0
    0.1906   -1.8811   -0.6934 H   0  0  0  0  0  0  0  0  0  0  0  0
   -0.5351   -0.2011    1.8098 H   0  0  0  0  0  0  0  0  0  0  0  0
    0.8039   -1.3522    1.5565 H   0  0  0  0  0  0  0  0  0  0  0  0
    2.0650    1.4104    0.9129 H   0  0  0  0  0  0  0  0  0  0  0  0
    1.1694    2.2009   -0.5760 H   0  0  0  0  0  0  0  0  0  0  0  0
    1.7279    0.2030   -1.9498 H   0  0  0  0  0  0  0  0  0  0  0  0
    3.1066   -0.4263    0.4883 H   0  0  0  0  0  0  0  0  0  0  0  0
  1  2  1  0
  2  3  1  0
  3  4  1  0
  4  5  1  0
  5  6  1  0
  6  7  1  0
  7  8  1  0
  8  9  1  0
  4  2  1  0
  8  6  1  0
  6  2  1  0
  1 10  1  0
  1 11  1  0
  1 12  1  0
  3 13  1  0
  3 14  1  0
  4 15  1  0
  5 16  1  0
  5 17  1  0
  7 18  1  0
  7 19  1  0
  8 20  1  0
  9 21  1  0
M  END
