
     RDKit          3D

 19 22  0  0  0  0  0  0  0  0999 V2000
    2.0831    0.0111   -0.4781 C   0  0  0  0  0  0  0  0  0  0  0  0
    0.7113    0.1746   -0.0028 C   0  0  0  0  0  0  0  0  0  0  0  0
    0.2649    1.5084    0.4661 C   0  0  0  0  0  0  0  0  0  0  0  0
   -1.0576    1.6095    0.3753 C   0  0  0  0  0  0  0  0  0  0  0  0
   -1.6182    0.3369   -0.1690 C   0  0  0  0  0  0  0  0  0  0  0  0
   -1.3405   -0.8415    0.7740 C   0  0  0  0  0  0  0  0  0  0  0  0
   -0.5503   -1.4633   -0.2835 C   0  0  0  0  0  0  0  0  0  0  0  0
   -0.4218   -0.1726   -0.9474 C   0  0  0  0  0  0  0  0  0  0  0  0
    0.1401   -0.9619    0.8694 C   0  0  0  0  0  0  0  0  0  0  0  0
    2.7764    0.6111    0.1330 H   0  0  0  0  0  0  0  0  0  0  0  0
    2.1902    0.2332   -1.5757 H   0  0  0  0  0  0  0  0  0  0  0  0
    2.3956   -1.0522   -0.3719 H   0  0  0  0  0  0  0  0  0  0  0  0
    0.9286    2.2803    0.8278 H   0  0  0  0  0  0  0  0  0  0  0  0
   -1.5934    2.5041    0.6668 H   0  0  0  0  0  0  0  0  0  0  0  0
   -2.5684    0.3616   -0.6515 H   0  0  0  0  0  0  0  0  0  0  0  0
   -2.0665   -1.2639    1.4095 H   0  0  0  0  0  0  0  0  0  0  0  0
   -0.6359   -2.4318   -0.6937 H   0  0  0  0  0  0  0  0  0  0  0  0
   -0.3369   -0.0098   -1.9755 H   0  0  0  0  0  0  0  0  0  0  0  0
    0.6992   -1.4341    1.6274 H   0  0  0  0  0  0  0  0  0  0  0  0
  1  2  1  0
  2  3  1  0
  3  4  2  0
  4  5  1  0
  5  6  1  0
  6  7  1  0
  7  8  1  0
  7  9  1  0
  8  2  1  0
  9  2  1  0
  8  5  1  0
  9  6  1  0
  1 10  1  0
  1 11  1  0
  1 12  1  0
  3 13  1  0
  4 14  1  0
  5 15  1  0
  6 16  1  0
  7 17  1  0
  8 18  1  0
  9 19  1  0
M  END
