
     RDKit          3D

 19 21  0  0  0  0  0  0  0  0999 V2000
    2.4889   -0.4193    0.2393 C   0  0  0  0  0  0  0  0  0  0  0  0
    0.9870   -0.5559   -0.0184 C   0  0  0  0  0  0  0  0  0  0  0  0
    0.6046   -1.2609   -1.1315 O   0  0  0  0  0  0  0  0  0  0  0  0
    0.5352    0.1022   -1.3274 C   0  0  0  0  0  0  0  0  0  0  0  0
   -0.6046    0.7843   -0.6111 C   0  0  0  0  0  0  0  0  0  0  0  0
   -1.9143    0.0929   -0.6513 C   0  0  0  0  0  0  0  0  0  0  0  0
   -2.1526   -0.3601    0.7301 C   0  0  0  0  0  0  0  0  0  0  0  0
   -1.0613   -0.1849    1.4401 C   0  0  0  0  0  0  0  0  0  0  0  0
    0.0635    0.3992    0.6791 C   0  0  0  0  0  0  0  0  0  0  0  0
    2.8011   -1.0043    1.1062 H   0  0  0  0  0  0  0  0  0  0  0  0
    3.0827   -0.6966   -0.6478 H   0  0  0  0  0  0  0  0  0  0  0  0
    2.6831    0.6760    0.4169 H   0  0  0  0  0  0  0  0  0  0  0  0
    1.2653    0.6690   -1.8944 H   0  0  0  0  0  0  0  0  0  0  0  0
   -0.6737    1.8616   -0.8195 H   0  0  0  0  0  0  0  0  0  0  0  0
   -2.7511    0.7320   -1.0108 H   0  0  0  0  0  0  0  0  0  0  0  0
   -1.8121   -0.8273   -1.2683 H   0  0  0  0  0  0  0  0  0  0  0  0
   -3.1242   -0.7815    1.0812 H   0  0  0  0  0  0  0  0  0  0  0  0
   -1.0143   -0.4577    2.5076 H   0  0  0  0  0  0  0  0  0  0  0  0
    0.5969    1.2312    1.1798 H   0  0  0  0  0  0  0  0  0  0  0  0
  1  2  1  0
  2  3  1  0
  3  4  1  0
  4  5  1  0
  5  6  1  0
  6  7  1  0
  7  8  2  0
  8  9  1  0
  4  2  1  0
  9  5  1  0
  9  2  1  0
  1 10  1  0
  1 11  1  0
  1 12  1  0
  4 13  1  0
  5 14  1  0
  6 15  1  0
  6 16  1  0
  7 17  1  0
  8 18  1  0
  9 19  1  0
M  END
