
     RDKit          3D

 13 14  0  0  0  0  0  0  0  0999 V2000
   -1.6138    0.2392    0.2852 C   0  0  0  0  0  0  0  0  0  0  0  0
   -0.2348    0.2938   -0.2424 C   0  0  0  0  0  0  0  0  0  0  0  0
    0.3418   -0.9145   -0.8466 C   0  0  0  0  0  0  0  0  0  0  0  0
    0.9250   -0.3647    0.3933 C   0  0  0  0  0  0  0  0  0  0  0  0
    1.6936    0.8798    0.2494 C   0  0  0  0  0  0  0  0  0  0  0  0
    2.8580    1.1943    0.4459 O   0  0  0  0  0  0  0  0  0  0  0  0
    0.5425    1.4838   -0.1861 O   0  0  0  0  0  0  0  0  0  0  0  0
   -1.9872    1.2333    0.6479 H   0  0  0  0  0  0  0  0  0  0  0  0
   -1.7994   -0.5595    1.0289 H   0  0  0  0  0  0  0  0  0  0  0  0
   -2.2995   -0.0071   -0.5792 H   0  0  0  0  0  0  0  0  0  0  0  0
    0.9112   -0.7484   -1.8022 H   0  0  0  0  0  0  0  0  0  0  0  0
   -0.1888   -1.8606   -0.7634 H   0  0  0  0  0  0  0  0  0  0  0  0
    0.8514   -0.8692    1.3694 H   0  0  0  0  0  0  0  0  0  0  0  0
  1  2  1  0
  2  3  1  0
  3  4  1  0
  4  5  1  0
  5  6  2  0
  5  7  1  0
  4  2  1  0
  7  2  1  0
  1  8  1  0
  1  9  1  0
  1 10  1  0
  3 11  1  0
  3 12  1  0
  4 13  1  0
M  END
