
     RDKit          3D

 23 24  0  0  0  0  0  0  0  0999 V2000
   -2.8950   -0.3653   -0.0343 C   0  0  0  0  0  0  0  0  0  0  0  0
   -1.4910    0.1185    0.0196 C   0  0  0  0  0  0  0  0  0  0  0  0
   -0.4094   -0.5681   -0.7788 C   0  0  0  0  0  0  0  0  0  0  0  0
    0.5172   -0.4506    0.3997 C   0  0  0  0  0  0  0  0  0  0  0  0
    1.6380    0.5511    0.2130 C   0  0  0  0  0  0  0  0  0  0  0  0
    2.4952    0.1644   -0.9707 C   0  0  0  0  0  0  0  0  0  0  0  0
    3.0738   -1.0957   -0.8104 O   0  0  0  0  0  0  0  0  0  0  0  0
   -0.6412    0.0899    1.1990 C   0  0  0  0  0  0  0  0  0  0  0  0
   -1.1998    1.3720    0.7554 C   0  0  0  0  0  0  0  0  0  0  0  0
   -3.0683   -1.0936   -0.8723 H   0  0  0  0  0  0  0  0  0  0  0  0
   -3.5473    0.5154   -0.2918 H   0  0  0  0  0  0  0  0  0  0  0  0
   -3.2507   -0.7478    0.9267 H   0  0  0  0  0  0  0  0  0  0  0  0
   -0.1436   -0.0411   -1.6922 H   0  0  0  0  0  0  0  0  0  0  0  0
   -0.7023   -1.6461   -0.9143 H   0  0  0  0  0  0  0  0  0  0  0  0
    0.8850   -1.4358    0.7982 H   0  0  0  0  0  0  0  0  0  0  0  0
    1.2692    1.5590    0.0364 H   0  0  0  0  0  0  0  0  0  0  0  0
    2.2281    0.5756    1.1535 H   0  0  0  0  0  0  0  0  0  0  0  0
    1.8741    0.1519   -1.8800 H   0  0  0  0  0  0  0  0  0  0  0  0
    3.3379    0.8810   -1.0667 H   0  0  0  0  0  0  0  0  0  0  0  0
    3.6428   -1.1446   -0.0105 H   0  0  0  0  0  0  0  0  0  0  0  0
   -0.9167   -0.3891    2.1534 H   0  0  0  0  0  0  0  0  0  0  0  0
   -0.6442    2.1819    0.2887 H   0  0  0  0  0  0  0  0  0  0  0  0
   -2.0516    1.7517    1.3783 H   0  0  0  0  0  0  0  0  0  0  0  0
  1  2  1  0
  2  3  1  0
  3  4  1  0
  4  5  1  0
  5  6  1  0
  6  7  1  0
  4  8  1  0
  8  9  1  0
  8  2  1  0
  9  2  1  0
  1 10  1  0
  1 11  1  0
  1 12  1  0
  3 13  1  0
  3 14  1  0
  4 15  1  0
  5 16  1  0
  5 17  1  0
  6 18  1  0
  6 19  1  0
  7 20  1  0
  8 21  1  0
  9 22  1  0
  9 23  1  0
M  END
