
     RDKit          3D

 23 24  0  0  0  0  0  0  0  0999 V2000
   -2.2370    0.1857    0.0264 C   0  0  0  0  0  0  0  0  0  0  0  0
   -0.7565   -0.0121   -0.0604 C   0  0  0  0  0  0  0  0  0  0  0  0
   -0.2337   -0.9011    1.0604 C   0  0  0  0  0  0  0  0  0  0  0  0
    1.2787   -0.8513    0.9872 C   0  0  0  0  0  0  0  0  0  0  0  0
    1.6901   -0.2810   -0.3462 C   0  0  0  0  0  0  0  0  0  0  0  0
    1.3938    1.2226   -0.2788 C   0  0  0  0  0  0  0  0  0  0  0  0
   -0.0962    1.3448   -0.0584 C   0  0  0  0  0  0  0  0  0  0  0  0
    1.0192   -0.8183   -1.4146 O   0  0  0  0  0  0  0  0  0  0  0  0
   -0.3475   -0.7382   -1.3489 C   0  0  0  0  0  0  0  0  0  0  0  0
   -2.5769    0.0502    1.0818 H   0  0  0  0  0  0  0  0  0  0  0  0
   -2.5057    1.2406   -0.2549 H   0  0  0  0  0  0  0  0  0  0  0  0
   -2.8164   -0.4517   -0.6784 H   0  0  0  0  0  0  0  0  0  0  0  0
   -0.6389   -0.6372    2.0338 H   0  0  0  0  0  0  0  0  0  0  0  0
   -0.5121   -1.9525    0.7583 H   0  0  0  0  0  0  0  0  0  0  0  0
    1.5954   -0.1125    1.7719 H   0  0  0  0  0  0  0  0  0  0  0  0
    1.7408   -1.8361    1.2015 H   0  0  0  0  0  0  0  0  0  0  0  0
    2.7760   -0.4164   -0.5239 H   0  0  0  0  0  0  0  0  0  0  0  0
    1.7405    1.7362   -1.1792 H   0  0  0  0  0  0  0  0  0  0  0  0
    1.8909    1.5719    0.6557 H   0  0  0  0  0  0  0  0  0  0  0  0
   -0.5119    1.9177   -0.8904 H   0  0  0  0  0  0  0  0  0  0  0  0
   -0.3361    1.8356    0.8891 H   0  0  0  0  0  0  0  0  0  0  0  0
   -0.8301   -0.3047   -2.2347 H   0  0  0  0  0  0  0  0  0  0  0  0
   -0.7262   -1.7923   -1.1971 H   0  0  0  0  0  0  0  0  0  0  0  0
  1  2  1  0
  2  3  1  0
  3  4  1  0
  4  5  1  0
  5  6  1  0
  6  7  1  0
  5  8  1  0
  8  9  1  0
  7  2  1  0
  9  2  1  0
  1 10  1  0
  1 11  1  0
  1 12  1  0
  3 13  1  0
  3 14  1  0
  4 15  1  0
  4 16  1  0
  5 17  1  0
  6 18  1  0
  6 19  1  0
  7 20  1  0
  7 21  1  0
  9 22  1  0
  9 23  1  0
M  END
