
     RDKit          3D

 19 20  0  0  0  0  0  0  0  0999 V2000
    1.7804   -0.2809    0.6532 C   0  0  0  0  0  0  0  0  0  0  0  0
    1.0986   -0.1982   -0.6976 C   0  0  0  0  0  0  0  0  0  0  0  0
    1.1457   -1.3245   -1.3661 O   0  0  0  0  0  0  0  0  0  0  0  0
   -0.0823   -1.1780   -0.9426 C   0  0  0  0  0  0  0  0  0  0  0  0
   -0.7453   -1.1143    0.3688 C   0  0  0  0  0  0  0  0  0  0  0  0
   -1.5104    0.2056    0.3906 C   0  0  0  0  0  0  0  0  0  0  0  0
   -0.6577    1.3956    0.0256 C   0  0  0  0  0  0  0  0  0  0  0  0
    0.4450    1.0736   -0.9241 C   0  0  0  0  0  0  0  0  0  0  0  0
    0.7463    1.8329   -1.8025 O   0  0  0  0  0  0  0  0  0  0  0  0
    2.8221    0.1115    0.4659 H   0  0  0  0  0  0  0  0  0  0  0  0
    1.9208   -1.2993    1.0145 H   0  0  0  0  0  0  0  0  0  0  0  0
    1.3386    0.4010    1.3952 H   0  0  0  0  0  0  0  0  0  0  0  0
   -0.7980   -0.9079   -1.7780 H   0  0  0  0  0  0  0  0  0  0  0  0
   -1.5408   -1.9080    0.4033 H   0  0  0  0  0  0  0  0  0  0  0  0
   -0.1205   -1.2482    1.2475 H   0  0  0  0  0  0  0  0  0  0  0  0
   -2.0011    0.3759    1.3530 H   0  0  0  0  0  0  0  0  0  0  0  0
   -2.2803    0.1018   -0.4297 H   0  0  0  0  0  0  0  0  0  0  0  0
   -1.3308    2.1825   -0.3738 H   0  0  0  0  0  0  0  0  0  0  0  0
   -0.2303    1.7789    0.9969 H   0  0  0  0  0  0  0  0  0  0  0  0
  1  2  1  0
  2  3  1  0
  3  4  1  0
  4  5  1  0
  5  6  1  0
  6  7  1  0
  7  8  1  0
  8  9  2  0
  4  2  1  0
  8  2  1  0
  1 10  1  0
  1 11  1  0
  1 12  1  0
  4 13  1  0
  5 14  1  0
  5 15  1  0
  6 16  1  0
  6 17  1  0
  7 18  1  0
  7 19  1  0
M  END
