
     RDKit          3D

 20 21  0  0  0  0  0  0  0  0999 V2000
    1.3194    1.3312   -0.5394 C   0  0  0  0  0  0  0  0  0  0  0  0
    0.2983    0.2545   -0.4256 C   0  0  0  0  0  0  0  0  0  0  0  0
   -1.1314    0.6850   -0.4732 C   0  0  0  0  0  0  0  0  0  0  0  0
   -1.5325    0.7658    0.9623 C   0  0  0  0  0  0  0  0  0  0  0  0
   -0.6861    0.0812    1.7161 C   0  0  0  0  0  0  0  0  0  0  0  0
    0.3584   -0.5246    0.8881 C   0  0  0  0  0  0  0  0  0  0  0  0
   -0.0895   -1.7361    0.0602 C   0  0  0  0  0  0  0  0  0  0  0  0
    0.5984   -1.0438   -1.1260 C   0  0  0  0  0  0  0  0  0  0  0  0
    1.1069    1.9119   -1.4604 H   0  0  0  0  0  0  0  0  0  0  0  0
    2.3267    0.9035   -0.5000 H   0  0  0  0  0  0  0  0  0  0  0  0
    1.1653    2.0273    0.3356 H   0  0  0  0  0  0  0  0  0  0  0  0
   -1.1848    1.6940   -0.9265 H   0  0  0  0  0  0  0  0  0  0  0  0
   -1.7183   -0.0696   -1.0259 H   0  0  0  0  0  0  0  0  0  0  0  0
   -2.4093    1.3258    1.2798 H   0  0  0  0  0  0  0  0  0  0  0  0
   -0.7577   -0.0160    2.7943 H   0  0  0  0  0  0  0  0  0  0  0  0
    1.3616   -0.6212    1.3007 H   0  0  0  0  0  0  0  0  0  0  0  0
    0.3674   -2.6839    0.3557 H   0  0  0  0  0  0  0  0  0  0  0  0
   -1.1787   -1.7923   -0.0518 H   0  0  0  0  0  0  0  0  0  0  0  0
    0.1089   -1.2117   -2.0879 H   0  0  0  0  0  0  0  0  0  0  0  0
    1.6771   -1.2811   -1.0762 H   0  0  0  0  0  0  0  0  0  0  0  0
  1  2  1  0
  2  3  1  0
  3  4  1  0
  4  5  2  0
  5  6  1  0
  6  7  1  0
  7  8  1  0
  6  2  1  0
  8  2  1  0
  1  9  1  0
  1 10  1  0
  1 11  1  0
  3 12  1  0
  3 13  1  0
  4 14  1  0
  5 15  1  0
  6 16  1  0
  7 17  1  0
  7 18  1  0
  8 19  1  0
  8 20  1  0
M  END
