
     RDKit          3D

 16 18  0  0  0  0  0  0  0  0999 V2000
    1.4405    0.7698   -0.2585 C   0  0  0  0  0  0  0  0  0  0  0  0
    0.7533   -0.1523    0.7353 C   0  0  0  0  0  0  0  0  0  0  0  0
    1.2615   -1.3496    0.7178 O   0  0  0  0  0  0  0  0  0  0  0  0
    0.1003   -1.4459    0.1566 C   0  0  0  0  0  0  0  0  0  0  0  0
   -0.6193   -0.7450   -0.9363 C   0  0  0  0  0  0  0  0  0  0  0  0
   -1.2597    0.3811   -0.1655 C   0  0  0  0  0  0  0  0  0  0  0  0
   -1.7607   -0.0825    1.0757 O   0  0  0  0  0  0  0  0  0  0  0  0
   -0.5195    0.4433    1.1870 C   0  0  0  0  0  0  0  0  0  0  0  0
    1.8123    1.6254    0.3806 H   0  0  0  0  0  0  0  0  0  0  0  0
    0.7437    1.2328   -0.9689 H   0  0  0  0  0  0  0  0  0  0  0  0
    2.3255    0.3523   -0.7362 H   0  0  0  0  0  0  0  0  0  0  0  0
   -0.6630   -1.9226    0.8543 H   0  0  0  0  0  0  0  0  0  0  0  0
   -1.4661   -1.3724   -1.3040 H   0  0  0  0  0  0  0  0  0  0  0  0
   -0.0352   -0.4600   -1.7941 H   0  0  0  0  0  0  0  0  0  0  0  0
   -1.6365    1.2730   -0.6155 H   0  0  0  0  0  0  0  0  0  0  0  0
   -0.4771    1.4527    1.6715 H   0  0  0  0  0  0  0  0  0  0  0  0
  1  2  1  0
  2  3  1  0
  3  4  1  0
  4  5  1  0
  5  6  1  0
  6  7  1  0
  7  8  1  0
  4  2  1  0
  8  6  1  0
  8  2  1  0
  1  9  1  0
  1 10  1  0
  1 11  1  0
  4 12  1  0
  5 13  1  0
  5 14  1  0
  6 15  1  0
  8 16  1  0
M  END
