
     RDKit          3D

 21 22  0  0  0  0  0  0  0  0999 V2000
    2.9061   -0.1896   -0.3286 C   0  0  0  0  0  0  0  0  0  0  0  0
    1.5811   -0.1672    0.0215 C   0  0  0  0  0  0  0  0  0  0  0  0
    0.6195    0.9877   -0.0902 C   0  0  0  0  0  0  0  0  0  0  0  0
   -0.1392   -0.1615    0.4309 C   0  0  0  0  0  0  0  0  0  0  0  0
   -1.4912   -0.2593    0.7352 C   0  0  0  0  0  0  0  0  0  0  0  0
   -2.4837   -0.0240   -0.3609 C   0  0  0  0  0  0  0  0  0  0  0  0
   -3.8122   -0.1577    0.0993 O   0  0  0  0  0  0  0  0  0  0  0  0
    0.9824   -0.4293    1.3783 C   0  0  0  0  0  0  0  0  0  0  0  0
    0.5465   -0.9554   -0.4826 O   0  0  0  0  0  0  0  0  0  0  0  0
    3.3532    0.8165   -0.5826 H   0  0  0  0  0  0  0  0  0  0  0  0
    3.1550   -0.8200   -1.2329 H   0  0  0  0  0  0  0  0  0  0  0  0
    3.6053   -0.5900    0.4651 H   0  0  0  0  0  0  0  0  0  0  0  0
    0.3868    1.2769   -1.1298 H   0  0  0  0  0  0  0  0  0  0  0  0
    0.8188    1.8393    0.6031 H   0  0  0  0  0  0  0  0  0  0  0  0
   -1.7362   -1.2801    1.1610 H   0  0  0  0  0  0  0  0  0  0  0  0
   -1.7714    0.4373    1.5726 H   0  0  0  0  0  0  0  0  0  0  0  0
   -2.4178    1.0287   -0.7325 H   0  0  0  0  0  0  0  0  0  0  0  0
   -2.3963   -0.7544   -1.1924 H   0  0  0  0  0  0  0  0  0  0  0  0
   -3.9850    0.5151    0.8103 H   0  0  0  0  0  0  0  0  0  0  0  0
    1.1647    0.3548    2.1417 H   0  0  0  0  0  0  0  0  0  0  0  0
    1.1136   -1.4679    1.7116 H   0  0  0  0  0  0  0  0  0  0  0  0
  1  2  1  0
  2  3  1  0
  3  4  1  0
  4  5  1  0
  5  6  1  0
  6  7  1  0
  4  8  1  0
  4  9  1  0
  8  2  1  0
  9  2  1  0
  1 10  1  0
  1 11  1  0
  1 12  1  0
  3 13  1  0
  3 14  1  0
  5 15  1  0
  5 16  1  0
  6 17  1  0
  6 18  1  0
  7 19  1  0
  8 20  1  0
  8 21  1  0
M  END
