
     RDKit          3D

 19 21  0  0  0  0  0  0  0  0999 V2000
    2.0372    0.0957   -0.9085 C   0  0  0  0  0  0  0  0  0  0  0  0
    0.6619    0.0113   -0.3519 C   0  0  0  0  0  0  0  0  0  0  0  0
    0.1182   -1.3651   -0.0455 C   0  0  0  0  0  0  0  0  0  0  0  0
   -1.1031   -1.1383    0.7823 C   0  0  0  0  0  0  0  0  0  0  0  0
   -1.2140    0.3608    1.0285 C   0  0  0  0  0  0  0  0  0  0  0  0
   -1.6861    1.0489   -0.1892 C   0  0  0  0  0  0  0  0  0  0  0  0
   -2.7564    1.4369   -0.5835 O   0  0  0  0  0  0  0  0  0  0  0  0
   -0.3117    1.0623   -0.7161 C   0  0  0  0  0  0  0  0  0  0  0  0
    0.1612    0.8512    0.7059 C   0  0  0  0  0  0  0  0  0  0  0  0
    2.7571    0.0639   -0.0490 H   0  0  0  0  0  0  0  0  0  0  0  0
    2.2777   -0.7748   -1.5628 H   0  0  0  0  0  0  0  0  0  0  0  0
    2.1779    1.0663   -1.4211 H   0  0  0  0  0  0  0  0  0  0  0  0
   -0.0729   -1.8723   -1.0116 H   0  0  0  0  0  0  0  0  0  0  0  0
    0.9123   -1.9088    0.5429 H   0  0  0  0  0  0  0  0  0  0  0  0
   -1.0471   -1.7152    1.7066 H   0  0  0  0  0  0  0  0  0  0  0  0
   -1.9861   -1.4416    0.1546 H   0  0  0  0  0  0  0  0  0  0  0  0
   -1.6548    0.6511    1.9771 H   0  0  0  0  0  0  0  0  0  0  0  0
    0.0728    1.9224   -1.2901 H   0  0  0  0  0  0  0  0  0  0  0  0
    0.6560    1.6452    1.2316 H   0  0  0  0  0  0  0  0  0  0  0  0
  1  2  1  0
  2  3  1  0
  3  4  1  0
  4  5  1  0
  5  6  1  0
  6  7  2  0
  6  8  1  0
  8  9  1  0
  8  2  1  0
  9  2  1  0
  9  5  1  0
  1 10  1  0
  1 11  1  0
  1 12  1  0
  3 13  1  0
  3 14  1  0
  4 15  1  0
  4 16  1  0
  5 17  1  0
  8 18  1  0
  9 19  1  0
M  END
