
     RDKit          3D

 19 20  0  0  0  0  0  0  0  0999 V2000
    1.8912    0.0407   -0.7881 C   0  0  0  0  0  0  0  0  0  0  0  0
    0.5434    0.1751   -0.2513 C   0  0  0  0  0  0  0  0  0  0  0  0
   -0.5436   -0.5827   -0.9799 C   0  0  0  0  0  0  0  0  0  0  0  0
   -1.6908   -0.4968    0.0369 C   0  0  0  0  0  0  0  0  0  0  0  0
   -1.0916    0.0926    1.2804 C   0  0  0  0  0  0  0  0  0  0  0  0
    0.3575   -0.4154    1.1577 C   0  0  0  0  0  0  0  0  0  0  0  0
   -0.8781    1.4706    1.0293 O   0  0  0  0  0  0  0  0  0  0  0  0
    0.0661    1.5553   -0.0039 C   0  0  0  0  0  0  0  0  0  0  0  0
    0.3752    2.6446   -0.5472 O   0  0  0  0  0  0  0  0  0  0  0  0
    1.9763   -0.9228   -1.3576 H   0  0  0  0  0  0  0  0  0  0  0  0
    2.6918    0.0894   -0.0273 H   0  0  0  0  0  0  0  0  0  0  0  0
    2.0851    0.8399   -1.5379 H   0  0  0  0  0  0  0  0  0  0  0  0
   -0.2240   -1.6324   -1.1197 H   0  0  0  0  0  0  0  0  0  0  0  0
   -0.7701   -0.0473   -1.9040 H   0  0  0  0  0  0  0  0  0  0  0  0
   -2.4175    0.2501   -0.3927 H   0  0  0  0  0  0  0  0  0  0  0  0
   -2.2011   -1.4439    0.1730 H   0  0  0  0  0  0  0  0  0  0  0  0
   -1.5586   -0.1508    2.2081 H   0  0  0  0  0  0  0  0  0  0  0  0
    0.3714   -1.5135    1.1373 H   0  0  0  0  0  0  0  0  0  0  0  0
    1.0175    0.0474    1.8869 H   0  0  0  0  0  0  0  0  0  0  0  0
  1  2  1  0
  2  3  1  0
  3  4  1  0
  4  5  1  0
  5  6  1  0
  5  7  1  0
  7  8  1  0
  8  9  2  0
  6  2  1  0
  8  2  1  0
  1 10  1  0
  1 11  1  0
  1 12  1  0
  3 13  1  0
  3 14  1  0
  4 15  1  0
  4 16  1  0
  5 17  1  0
  6 18  1  0
  6 19  1  0
M  END
