
     RDKit          3D

 21 23  0  0  0  0  0  0  0  0999 V2000
   -2.3522   -0.0591    0.1543 C   0  0  0  0  0  0  0  0  0  0  0  0
   -0.9359    0.0492   -0.1024 C   0  0  0  0  0  0  0  0  0  0  0  0
   -0.4360    0.9185   -1.2310 C   0  0  0  0  0  0  0  0  0  0  0  0
    0.8490    0.9463   -0.4058 C   0  0  0  0  0  0  0  0  0  0  0  0
   -0.1007    0.9691    0.8028 C   0  0  0  0  0  0  0  0  0  0  0  0
    1.2751   -0.4655   -0.4086 C   0  0  0  0  0  0  0  0  0  0  0  0
    2.4715   -0.9038    0.1940 C   0  0  0  0  0  0  0  0  0  0  0  0
    2.2335   -0.9919   -1.1919 O   0  0  0  0  0  0  0  0  0  0  0  0
   -0.0790   -1.1747   -0.2329 C   0  0  0  0  0  0  0  0  0  0  0  0
   -2.9329   -0.0581   -0.7912 H   0  0  0  0  0  0  0  0  0  0  0  0
   -2.6863    0.8174    0.7800 H   0  0  0  0  0  0  0  0  0  0  0  0
   -2.5954   -0.9727    0.7118 H   0  0  0  0  0  0  0  0  0  0  0  0
   -0.3325    0.3990   -2.2051 H   0  0  0  0  0  0  0  0  0  0  0  0
   -0.8483    1.9333   -1.2623 H   0  0  0  0  0  0  0  0  0  0  0  0
    1.5132    1.7578   -0.5274 H   0  0  0  0  0  0  0  0  0  0  0  0
   -0.6362    1.9165    0.9308 H   0  0  0  0  0  0  0  0  0  0  0  0
    0.2960    0.4794    1.6993 H   0  0  0  0  0  0  0  0  0  0  0  0
    3.2522   -0.1724    0.4922 H   0  0  0  0  0  0  0  0  0  0  0  0
    2.4874   -1.8806    0.7592 H   0  0  0  0  0  0  0  0  0  0  0  0
   -0.3742   -1.7120   -1.1460 H   0  0  0  0  0  0  0  0  0  0  0  0
   -0.0685   -1.7956    0.6778 H   0  0  0  0  0  0  0  0  0  0  0  0
  1  2  1  0
  2  3  1  0
  3  4  1  0
  4  5  1  0
  4  6  1  0
  6  7  1  0
  7  8  1  0
  6  9  1  0
  5  2  1  0
  8  6  1  0
  9  2  1  0
  1 10  1  0
  1 11  1  0
  1 12  1  0
  3 13  1  0
  3 14  1  0
  4 15  1  0
  5 16  1  0
  5 17  1  0
  7 18  1  0
  7 19  1  0
  9 20  1  0
  9 21  1  0
M  END
