
     RDKit          3D

 21 23  0  0  0  0  0  0  0  0999 V2000
   -1.5661    1.2712   -0.9919 C   0  0  0  0  0  0  0  0  0  0  0  0
   -0.7599    0.3496   -0.1025 C   0  0  0  0  0  0  0  0  0  0  0  0
   -1.5133   -0.4104    0.8865 C   0  0  0  0  0  0  0  0  0  0  0  0
   -0.8308   -1.1108   -0.2830 C   0  0  0  0  0  0  0  0  0  0  0  0
    0.2671   -1.8329    0.0669 O   0  0  0  0  0  0  0  0  0  0  0  0
    1.4355   -1.1576    0.2082 C   0  0  0  0  0  0  0  0  0  0  0  0
    1.3730   -0.0008    1.1809 C   0  0  0  0  0  0  0  0  0  0  0  0
    0.6681    0.7618    0.0696 C   0  0  0  0  0  0  0  0  0  0  0  0
    1.5454   -0.0756   -0.8775 C   0  0  0  0  0  0  0  0  0  0  0  0
   -1.0283    1.6292   -1.8628 H   0  0  0  0  0  0  0  0  0  0  0  0
   -2.4921    0.7039   -1.2669 H   0  0  0  0  0  0  0  0  0  0  0  0
   -1.9503    2.1471   -0.3908 H   0  0  0  0  0  0  0  0  0  0  0  0
   -1.1511   -0.6242    1.9134 H   0  0  0  0  0  0  0  0  0  0  0  0
   -2.6096   -0.4214    0.8123 H   0  0  0  0  0  0  0  0  0  0  0  0
   -1.4590   -1.4579   -1.1330 H   0  0  0  0  0  0  0  0  0  0  0  0
    2.2996   -1.8150    0.2900 H   0  0  0  0  0  0  0  0  0  0  0  0
    0.8224   -0.1486    2.0978 H   0  0  0  0  0  0  0  0  0  0  0  0
    2.3912    0.4263    1.3058 H   0  0  0  0  0  0  0  0  0  0  0  0
    0.9013    1.8246   -0.0029 H   0  0  0  0  0  0  0  0  0  0  0  0
    2.5826    0.2826   -0.8955 H   0  0  0  0  0  0  0  0  0  0  0  0
    1.0743   -0.3410   -1.8198 H   0  0  0  0  0  0  0  0  0  0  0  0
  1  2  1  0
  2  3  1  0
  3  4  1  0
  4  5  1  0
  5  6  1  0
  6  7  1  0
  7  8  1  0
  8  9  1  0
  4  2  1  0
  9  6  1  0
  8  2  1  0
  1 10  1  0
  1 11  1  0
  1 12  1  0
  3 13  1  0
  3 14  1  0
  4 15  1  0
  6 16  1  0
  7 17  1  0
  7 18  1  0
  8 19  1  0
  9 20  1  0
  9 21  1  0
M  END
