
     RDKit          3D

 19 21  0  0  0  0  0  0  0  0999 V2000
   -1.4964   -1.3620   -0.1213 C   0  0  0  0  0  0  0  0  0  0  0  0
   -0.5255   -0.3064    0.2405 C   0  0  0  0  0  0  0  0  0  0  0  0
   -1.1552    0.9538    0.8100 C   0  0  0  0  0  0  0  0  0  0  0  0
   -0.0222    1.7954    0.8339 O   0  0  0  0  0  0  0  0  0  0  0  0
    0.6712    1.5747   -0.3283 C   0  0  0  0  0  0  0  0  0  0  0  0
    1.5737    0.4147   -0.5043 C   0  0  0  0  0  0  0  0  0  0  0  0
    1.6528   -0.6864    0.5268 C   0  0  0  0  0  0  0  0  0  0  0  0
    0.4199   -0.7342    1.1300 O   0  0  0  0  0  0  0  0  0  0  0  0
    0.1879    0.3113   -0.9445 C   0  0  0  0  0  0  0  0  0  0  0  0
   -2.0325   -1.2236   -1.0643 H   0  0  0  0  0  0  0  0  0  0  0  0
   -2.2224   -1.4765    0.7146 H   0  0  0  0  0  0  0  0  0  0  0  0
   -0.9485   -2.3374   -0.1664 H   0  0  0  0  0  0  0  0  0  0  0  0
   -1.5770    0.8226    1.8016 H   0  0  0  0  0  0  0  0  0  0  0  0
   -1.8775    1.3347    0.0490 H   0  0  0  0  0  0  0  0  0  0  0  0
    0.9082    2.4665   -0.9274 H   0  0  0  0  0  0  0  0  0  0  0  0
    2.3647    0.4627   -1.2503 H   0  0  0  0  0  0  0  0  0  0  0  0
    1.7577   -1.6466   -0.0549 H   0  0  0  0  0  0  0  0  0  0  0  0
    2.4972   -0.5815    1.2040 H   0  0  0  0  0  0  0  0  0  0  0  0
   -0.1760    0.2182   -1.9487 H   0  0  0  0  0  0  0  0  0  0  0  0
  1  2  1  0
  2  3  1  0
  3  4  1  0
  4  5  1  0
  5  6  1  0
  6  7  1  0
  7  8  1  0
  6  9  1  0
  8  2  1  0
  9  2  1  0
  9  5  1  0
  1 10  1  0
  1 11  1  0
  1 12  1  0
  3 13  1  0
  3 14  1  0
  5 15  1  0
  6 16  1  0
  7 17  1  0
  7 18  1  0
  9 19  1  0
M  END
