
     RDKit          3D

 21 23  0  0  0  0  0  0  0  0999 V2000
   -2.5184    0.0207   -0.5080 C   0  0  0  0  0  0  0  0  0  0  0  0
   -1.1532    0.1356   -0.0253 C   0  0  0  0  0  0  0  0  0  0  0  0
   -0.7452   -0.8806    1.0392 C   0  0  0  0  0  0  0  0  0  0  0  0
    0.7102   -0.3988    1.1826 C   0  0  0  0  0  0  0  0  0  0  0  0
    0.5742    1.0485    0.9040 C   0  0  0  0  0  0  0  0  0  0  0  0
   -0.7675    1.3109    0.5640 O   0  0  0  0  0  0  0  0  0  0  0  0
    1.1376    0.1374   -0.1026 C   0  0  0  0  0  0  0  0  0  0  0  0
    2.5059    0.1832   -0.6230 C   0  0  0  0  0  0  0  0  0  0  0  0
   -0.0571   -0.0884   -1.0442 C   0  0  0  0  0  0  0  0  0  0  0  0
   -2.5639   -0.7901   -1.2875 H   0  0  0  0  0  0  0  0  0  0  0  0
   -2.8590    1.0003   -0.9160 H   0  0  0  0  0  0  0  0  0  0  0  0
   -3.2004   -0.2425    0.3304 H   0  0  0  0  0  0  0  0  0  0  0  0
   -0.7725   -1.8873    0.6253 H   0  0  0  0  0  0  0  0  0  0  0  0
   -1.3119   -0.7327    1.9686 H   0  0  0  0  0  0  0  0  0  0  0  0
    1.3380   -0.8199    1.9520 H   0  0  0  0  0  0  0  0  0  0  0  0
    1.1369    1.7762    1.4742 H   0  0  0  0  0  0  0  0  0  0  0  0
    2.9076    1.2253   -0.5034 H   0  0  0  0  0  0  0  0  0  0  0  0
    3.2327   -0.4882   -0.1183 H   0  0  0  0  0  0  0  0  0  0  0  0
    2.5161   -0.0188   -1.7117 H   0  0  0  0  0  0  0  0  0  0  0  0
   -0.0508   -1.1348   -1.3487 H   0  0  0  0  0  0  0  0  0  0  0  0
   -0.0592    0.6441   -1.8516 H   0  0  0  0  0  0  0  0  0  0  0  0
  1  2  1  0
  2  3  1  0
  3  4  1  0
  4  5  1  0
  5  6  1  0
  5  7  1  0
  7  8  1  0
  7  9  1  0
  6  2  1  0
  9  2  1  0
  7  4  1  0
  1 10  1  0
  1 11  1  0
  1 12  1  0
  3 13  1  0
  3 14  1  0
  4 15  1  0
  5 16  1  0
  8 17  1  0
  8 18  1  0
  8 19  1  0
  9 20  1  0
  9 21  1  0
M  END
