
     RDKit          3D

 19 21  0  0  0  0  0  0  0  0999 V2000
    2.2247   -0.0183    0.0608 C   0  0  0  0  0  0  0  0  0  0  0  0
    0.7553   -0.0350    0.0236 C   0  0  0  0  0  0  0  0  0  0  0  0
   -0.0582   -1.2007    0.5345 C   0  0  0  0  0  0  0  0  0  0  0  0
   -1.4311   -0.5821    0.4232 C   0  0  0  0  0  0  0  0  0  0  0  0
   -1.4283   -0.1579   -1.0297 C   0  0  0  0  0  0  0  0  0  0  0  0
   -0.0581    0.5219   -1.0570 C   0  0  0  0  0  0  0  0  0  0  0  0
    0.0130    1.2120    0.2413 C   0  0  0  0  0  0  0  0  0  0  0  0
   -1.1687    0.7584    1.0642 C   0  0  0  0  0  0  0  0  0  0  0  0
   -1.7368    1.2983    1.9635 O   0  0  0  0  0  0  0  0  0  0  0  0
    2.5795    1.0195   -0.1116 H   0  0  0  0  0  0  0  0  0  0  0  0
    2.6195   -0.3185    1.0485 H   0  0  0  0  0  0  0  0  0  0  0  0
    2.6261   -0.6396   -0.7756 H   0  0  0  0  0  0  0  0  0  0  0  0
    0.2080   -1.5277    1.5354 H   0  0  0  0  0  0  0  0  0  0  0  0
    0.0073   -1.9978   -0.2444 H   0  0  0  0  0  0  0  0  0  0  0  0
   -2.2534   -1.1201    0.7808 H   0  0  0  0  0  0  0  0  0  0  0  0
   -2.1692    0.6540   -1.1596 H   0  0  0  0  0  0  0  0  0  0  0  0
   -1.5086   -0.9781   -1.7296 H   0  0  0  0  0  0  0  0  0  0  0  0
    0.3189    0.9357   -1.9851 H   0  0  0  0  0  0  0  0  0  0  0  0
    0.4600    2.1761    0.4168 H   0  0  0  0  0  0  0  0  0  0  0  0
  1  2  1  0
  2  3  1  0
  3  4  1  0
  4  5  1  0
  5  6  1  0
  6  7  1  0
  7  8  1  0
  8  9  2  0
  6  2  1  0
  7  2  1  0
  8  4  1  0
  1 10  1  0
  1 11  1  0
  1 12  1  0
  3 13  1  0
  3 14  1  0
  4 15  1  0
  5 16  1  0
  5 17  1  0
  6 18  1  0
  7 19  1  0
M  END
