
     RDKit          3D

 21 23  0  0  0  0  0  0  0  0999 V2000
   -2.4082   -0.2401   -0.5399 C   0  0  0  0  0  0  0  0  0  0  0  0
   -1.0072   -0.0273   -0.0961 C   0  0  0  0  0  0  0  0  0  0  0  0
   -0.4971    1.3577    0.2277 C   0  0  0  0  0  0  0  0  0  0  0  0
    1.0017    1.2936    0.0269 C   0  0  0  0  0  0  0  0  0  0  0  0
    1.3324   -0.1499   -0.2364 C   0  0  0  0  0  0  0  0  0  0  0  0
    2.4913   -0.4189   -0.8977 O   0  0  0  0  0  0  0  0  0  0  0  0
    1.1196   -0.9815    1.0375 C   0  0  0  0  0  0  0  0  0  0  0  0
   -0.3109   -1.1245    0.6371 C   0  0  0  0  0  0  0  0  0  0  0  0
    0.0673   -0.7496   -0.7477 C   0  0  0  0  0  0  0  0  0  0  0  0
   -2.4435   -0.1665   -1.6669 H   0  0  0  0  0  0  0  0  0  0  0  0
   -2.8498   -1.1929   -0.2618 H   0  0  0  0  0  0  0  0  0  0  0  0
   -3.0318    0.6392   -0.2022 H   0  0  0  0  0  0  0  0  0  0  0  0
   -0.7245    1.5253    1.3124 H   0  0  0  0  0  0  0  0  0  0  0  0
   -0.9844    2.1430   -0.3587 H   0  0  0  0  0  0  0  0  0  0  0  0
    1.3748    1.9876   -0.7271 H   0  0  0  0  0  0  0  0  0  0  0  0
    1.5072    1.5725    0.9909 H   0  0  0  0  0  0  0  0  0  0  0  0
    3.1927    0.2225   -0.7051 H   0  0  0  0  0  0  0  0  0  0  0  0
    1.7154   -1.9223    1.0103 H   0  0  0  0  0  0  0  0  0  0  0  0
    1.3553   -0.3611    1.9011 H   0  0  0  0  0  0  0  0  0  0  0  0
   -0.9107   -1.9940    0.8864 H   0  0  0  0  0  0  0  0  0  0  0  0
    0.0104   -1.4128   -1.5905 H   0  0  0  0  0  0  0  0  0  0  0  0
  1  2  1  0
  2  3  1  0
  3  4  1  0
  4  5  1  0
  5  6  1  0
  5  7  1  0
  7  8  1  0
  8  9  1  0
  8  2  1  0
  9  2  1  0
  9  5  1  0
  1 10  1  0
  1 11  1  0
  1 12  1  0
  3 13  1  0
  3 14  1  0
  4 15  1  0
  4 16  1  0
  6 17  1  0
  7 18  1  0
  7 19  1  0
  8 20  1  0
  9 21  1  0
M  END
