
     RDKit          3D

 19 21  0  0  0  0  0  0  0  0999 V2000
    2.1805   -0.3388   -0.0108 C   0  0  0  0  0  0  0  0  0  0  0  0
    0.7247   -0.0384    0.0483 C   0  0  0  0  0  0  0  0  0  0  0  0
   -0.1541   -1.2436   -0.0497 C   0  0  0  0  0  0  0  0  0  0  0  0
   -1.6032   -0.9367   -0.0720 C   0  0  0  0  0  0  0  0  0  0  0  0
   -2.1486    0.0215   -0.8867 O   0  0  0  0  0  0  0  0  0  0  0  0
   -1.8585    0.4557    0.3867 C   0  0  0  0  0  0  0  0  0  0  0  0
   -0.6101    1.2786    0.5088 C   0  0  0  0  0  0  0  0  0  0  0  0
    0.2368    1.1388   -0.7313 C   0  0  0  0  0  0  0  0  0  0  0  0
    0.3972    0.6426    1.2188 O   0  0  0  0  0  0  0  0  0  0  0  0
    2.7299    0.6454    0.0398 H   0  0  0  0  0  0  0  0  0  0  0  0
    2.5253   -0.9228    0.8507 H   0  0  0  0  0  0  0  0  0  0  0  0
    2.4389   -0.8627   -0.9594 H   0  0  0  0  0  0  0  0  0  0  0  0
    0.1990   -1.8779   -0.8901 H   0  0  0  0  0  0  0  0  0  0  0  0
    0.0468   -1.8619    0.8753 H   0  0  0  0  0  0  0  0  0  0  0  0
   -2.2922   -1.7575    0.2759 H   0  0  0  0  0  0  0  0  0  0  0  0
   -2.6391    0.5658    1.1538 H   0  0  0  0  0  0  0  0  0  0  0  0
   -0.7943    2.3283    0.7308 H   0  0  0  0  0  0  0  0  0  0  0  0
   -0.3684    0.8522   -1.6062 H   0  0  0  0  0  0  0  0  0  0  0  0
    0.9893    1.9115   -0.8827 H   0  0  0  0  0  0  0  0  0  0  0  0
  1  2  1  0
  2  3  1  0
  3  4  1  0
  4  5  1  0
  5  6  1  0
  6  7  1  0
  7  8  1  0
  7  9  1  0
  8  2  1  0
  9  2  1  0
  6  4  1  0
  1 10  1  0
  1 11  1  0
  1 12  1  0
  3 13  1  0
  3 14  1  0
  4 15  1  0
  6 16  1  0
  7 17  1  0
  8 18  1  0
  8 19  1  0
M  END
