
     RDKit          3D

 19 20  0  0  0  0  0  0  0  0999 V2000
   -2.1457    0.2906   -0.3017 C   0  0  0  0  0  0  0  0  0  0  0  0
   -0.6904    0.4157    0.0354 C   0  0  0  0  0  0  0  0  0  0  0  0
    0.2519    0.7237   -1.0694 C   0  0  0  0  0  0  0  0  0  0  0  0
    1.2223   -0.3271   -0.5658 C   0  0  0  0  0  0  0  0  0  0  0  0
    2.3532    0.3647    0.1408 C   0  0  0  0  0  0  0  0  0  0  0  0
    2.6032    1.5429   -0.0504 O   0  0  0  0  0  0  0  0  0  0  0  0
    0.1290   -0.7938    0.3707 C   0  0  0  0  0  0  0  0  0  0  0  0
   -0.4716   -2.0080    0.1943 O   0  0  0  0  0  0  0  0  0  0  0  0
   -0.2599    0.1682    1.4205 C   0  0  0  0  0  0  0  0  0  0  0  0
   -2.5533   -0.7072   -0.1159 H   0  0  0  0  0  0  0  0  0  0  0  0
   -2.3020    0.6432   -1.3572 H   0  0  0  0  0  0  0  0  0  0  0  0
   -2.7038    1.0069    0.3665 H   0  0  0  0  0  0  0  0  0  0  0  0
    0.6369    1.7388   -1.1477 H   0  0  0  0  0  0  0  0  0  0  0  0
   -0.1450    0.3741   -2.0654 H   0  0  0  0  0  0  0  0  0  0  0  0
    1.5403   -1.0769   -1.2985 H   0  0  0  0  0  0  0  0  0  0  0  0
    2.9757   -0.1785    0.8429 H   0  0  0  0  0  0  0  0  0  0  0  0
    0.0343   -2.7649    0.5739 H   0  0  0  0  0  0  0  0  0  0  0  0
   -1.0584   -0.1234    2.1299 H   0  0  0  0  0  0  0  0  0  0  0  0
    0.5833    0.7111    1.8970 H   0  0  0  0  0  0  0  0  0  0  0  0
  1  2  1  0
  2  3  1  0
  3  4  1  0
  4  5  1  0
  5  6  2  0
  4  7  1  0
  7  8  1  0
  7  9  1  0
  7  2  1  0
  9  2  1  0
  1 10  1  0
  1 11  1  0
  1 12  1  0
  3 13  1  0
  3 14  1  0
  4 15  1  0
  5 16  1  0
  8 17  1  0
  9 18  1  0
  9 19  1  0
M  END
