
     RDKit          3D

 17 19  0  0  0  0  0  0  0  0999 V2000
   -2.2473   -0.0312   -0.5132 C   0  0  0  0  0  0  0  0  0  0  0  0
   -0.7976   -0.0301   -0.1904 C   0  0  0  0  0  0  0  0  0  0  0  0
   -0.3114    1.2537    0.3887 C   0  0  0  0  0  0  0  0  0  0  0  0
    0.9612    1.2578    0.7628 C   0  0  0  0  0  0  0  0  0  0  0  0
    1.7245    0.0097    0.4428 C   0  0  0  0  0  0  0  0  0  0  0  0
    1.2411   -0.6711   -0.7771 C   0  0  0  0  0  0  0  0  0  0  0  0
    0.0312   -0.2894   -1.2791 O   0  0  0  0  0  0  0  0  0  0  0  0
    0.9315   -1.2300    0.5658 C   0  0  0  0  0  0  0  0  0  0  0  0
   -0.4099   -1.0149    0.7118 O   0  0  0  0  0  0  0  0  0  0  0  0
   -2.8223   -0.1557    0.4288 H   0  0  0  0  0  0  0  0  0  0  0  0
   -2.4958    0.9259   -1.0118 H   0  0  0  0  0  0  0  0  0  0  0  0
   -2.4505   -0.8821   -1.1975 H   0  0  0  0  0  0  0  0  0  0  0  0
   -1.0095    2.0670    0.4607 H   0  0  0  0  0  0  0  0  0  0  0  0
    1.4730    2.0530    1.2592 H   0  0  0  0  0  0  0  0  0  0  0  0
    2.7996    0.0520    0.5810 H   0  0  0  0  0  0  0  0  0  0  0  0
    1.9753   -1.1372   -1.4412 H   0  0  0  0  0  0  0  0  0  0  0  0
    1.4067   -2.1776    0.8087 H   0  0  0  0  0  0  0  0  0  0  0  0
  1  2  1  0
  2  3  1  0
  3  4  2  0
  4  5  1  0
  5  6  1  0
  6  7  1  0
  6  8  1  0
  8  9  1  0
  7  2  1  0
  9  2  1  0
  8  5  1  0
  1 10  1  0
  1 11  1  0
  1 12  1  0
  3 13  1  0
  4 14  1  0
  5 15  1  0
  6 16  1  0
  8 17  1  0
M  END
