
     RDKit          3D

 17 18  0  0  0  0  0  0  0  0999 V2000
   -1.6265   -0.8761    0.0902 C   0  0  0  0  0  0  0  0  0  0  0  0
   -0.4042   -0.0614    0.3905 C   0  0  0  0  0  0  0  0  0  0  0  0
   -0.5990    1.1708    0.9599 O   0  0  0  0  0  0  0  0  0  0  0  0
   -0.2997    1.8001   -0.2466 C   0  0  0  0  0  0  0  0  0  0  0  0
    0.1765    0.5152   -0.8728 C   0  0  0  0  0  0  0  0  0  0  0  0
    1.5248    0.3154   -0.8814 O   0  0  0  0  0  0  0  0  0  0  0  0
    1.8767   -0.6112    0.0921 C   0  0  0  0  0  0  0  0  0  0  0  0
    0.7282   -0.7734    0.9911 C   0  0  0  0  0  0  0  0  0  0  0  0
    0.6938   -1.3758    2.0370 O   0  0  0  0  0  0  0  0  0  0  0  0
   -1.3926   -1.9524    0.3123 H   0  0  0  0  0  0  0  0  0  0  0  0
   -2.5189   -0.5306    0.6432 H   0  0  0  0  0  0  0  0  0  0  0  0
   -1.8914   -0.8477   -0.9911 H   0  0  0  0  0  0  0  0  0  0  0  0
    0.4692    2.5818   -0.2014 H   0  0  0  0  0  0  0  0  0  0  0  0
   -1.2498    2.1901   -0.6928 H   0  0  0  0  0  0  0  0  0  0  0  0
   -0.3736    0.2393   -1.7990 H   0  0  0  0  0  0  0  0  0  0  0  0
    2.7791   -0.2034    0.5990 H   0  0  0  0  0  0  0  0  0  0  0  0
    2.1075   -1.5807   -0.4301 H   0  0  0  0  0  0  0  0  0  0  0  0
  1  2  1  0
  2  3  1  0
  3  4  1  0
  4  5  1  0
  5  6  1  0
  6  7  1  0
  7  8  1  0
  8  9  2  0
  5  2  1  0
  8  2  1  0
  1 10  1  0
  1 11  1  0
  1 12  1  0
  4 13  1  0
  4 14  1  0
  5 15  1  0
  7 16  1  0
  7 17  1  0
M  END
