
     RDKit          3D

 21 23  0  0  0  0  0  0  0  0999 V2000
   -2.1716    0.6395   -0.7048 C   0  0  0  0  0  0  0  0  0  0  0  0
   -1.0556   -0.1972   -0.1698 C   0  0  0  0  0  0  0  0  0  0  0  0
   -0.0984   -0.7997   -1.2153 C   0  0  0  0  0  0  0  0  0  0  0  0
    1.1207   -0.9094   -0.4221 C   0  0  0  0  0  0  0  0  0  0  0  0
    2.2677   -0.1044   -0.2012 C   0  0  0  0  0  0  0  0  0  0  0  0
    3.0894    0.1021   -1.3304 O   0  0  0  0  0  0  0  0  0  0  0  0
    1.0696    0.6126   -0.0017 C   0  0  0  0  0  0  0  0  0  0  0  0
   -0.0948    0.5122    0.8563 C   0  0  0  0  0  0  0  0  0  0  0  0
   -0.9519   -0.5796    1.2394 C   0  0  0  0  0  0  0  0  0  0  0  0
   -3.0098   -0.0455   -1.0012 H   0  0  0  0  0  0  0  0  0  0  0  0
   -1.8978    1.2124   -1.6083 H   0  0  0  0  0  0  0  0  0  0  0  0
   -2.5632    1.3285    0.0789 H   0  0  0  0  0  0  0  0  0  0  0  0
   -0.0570   -0.1003   -2.0761 H   0  0  0  0  0  0  0  0  0  0  0  0
   -0.5060   -1.7859   -1.4815 H   0  0  0  0  0  0  0  0  0  0  0  0
    0.9554   -1.6532    0.4041 H   0  0  0  0  0  0  0  0  0  0  0  0
    2.9239   -0.2346    0.7019 H   0  0  0  0  0  0  0  0  0  0  0  0
    3.1056    1.0370   -1.6105 H   0  0  0  0  0  0  0  0  0  0  0  0
    0.8629    1.3304   -0.8657 H   0  0  0  0  0  0  0  0  0  0  0  0
   -0.4540    1.5403    1.1969 H   0  0  0  0  0  0  0  0  0  0  0  0
   -1.8944   -0.3204    1.8212 H   0  0  0  0  0  0  0  0  0  0  0  0
   -0.6407   -1.5848    1.6037 H   0  0  0  0  0  0  0  0  0  0  0  0
  1  2  1  0
  2  3  1  0
  3  4  1  0
  4  5  1  0
  5  6  1  0
  5  7  1  0
  7  8  1  0
  8  9  1  0
  8  2  1  0
  9  2  1  0
  7  4  1  0
  1 10  1  0
  1 11  1  0
  1 12  1  0
  3 13  1  0
  3 14  1  0
  4 15  1  0
  5 16  1  0
  6 17  1  0
  7 18  1  0
  8 19  1  0
  9 20  1  0
  9 21  1  0
M  END
