
     RDKit          3D

 16 17  0  0  0  0  0  0  0  0999 V2000
    1.6950    0.0732    0.4456 C   0  0  0  0  0  0  0  0  0  0  0  0
    0.3003   -0.0308    0.1473 C   0  0  0  0  0  0  0  0  0  0  0  0
   -0.3680   -1.3725   -0.0376 C   0  0  0  0  0  0  0  0  0  0  0  0
   -1.6969   -0.9350   -0.2611 O   0  0  0  0  0  0  0  0  0  0  0  0
   -1.5797    0.4339   -0.2337 C   0  0  0  0  0  0  0  0  0  0  0  0
   -0.2940    0.7093   -1.0387 C   0  0  0  0  0  0  0  0  0  0  0  0
   -0.7272    0.6606    0.9478 C   0  0  0  0  0  0  0  0  0  0  0  0
   -0.8069    1.1539    2.0240 O   0  0  0  0  0  0  0  0  0  0  0  0
    1.9314    0.3795    1.4940 H   0  0  0  0  0  0  0  0  0  0  0  0
    2.2095   -0.9225    0.3200 H   0  0  0  0  0  0  0  0  0  0  0  0
    2.2641    0.7741   -0.2013 H   0  0  0  0  0  0  0  0  0  0  0  0
   -0.2999   -2.0191    0.8505 H   0  0  0  0  0  0  0  0  0  0  0  0
    0.0527   -1.8425   -0.9590 H   0  0  0  0  0  0  0  0  0  0  0  0
   -2.4104    1.0635   -0.4265 H   0  0  0  0  0  0  0  0  0  0  0  0
   -0.0334    1.7601   -1.1145 H   0  0  0  0  0  0  0  0  0  0  0  0
   -0.2367    0.1144   -1.9569 H   0  0  0  0  0  0  0  0  0  0  0  0
  1  2  1  0
  2  3  1  0
  3  4  1  0
  4  5  1  0
  5  6  1  0
  5  7  1  0
  7  8  2  0
  6  2  1  0
  7  2  1  0
  1  9  1  0
  1 10  1  0
  1 11  1  0
  3 12  1  0
  3 13  1  0
  5 14  1  0
  6 15  1  0
  6 16  1  0
M  END
