
     RDKit          3D

 19 21  0  0  0  0  0  0  0  0999 V2000
   -1.8536    0.6023    1.1595 C   0  0  0  0  0  0  0  0  0  0  0  0
   -0.8028   -0.2391    0.5089 C   0  0  0  0  0  0  0  0  0  0  0  0
   -0.9100   -1.5937    0.6442 O   0  0  0  0  0  0  0  0  0  0  0  0
   -1.2109   -1.1922   -0.6215 C   0  0  0  0  0  0  0  0  0  0  0  0
    0.0148   -0.7333   -1.4171 C   0  0  0  0  0  0  0  0  0  0  0  0
    0.0774    0.4245   -0.4845 C   0  0  0  0  0  0  0  0  0  0  0  0
    1.4270    0.8739   -0.0251 C   0  0  0  0  0  0  0  0  0  0  0  0
    2.3319   -0.1690    0.4922 C   0  0  0  0  0  0  0  0  0  0  0  0
    2.5626    0.6115   -0.7375 O   0  0  0  0  0  0  0  0  0  0  0  0
   -1.3162    1.4488    1.6760 H   0  0  0  0  0  0  0  0  0  0  0  0
   -2.5928    1.0293    0.4787 H   0  0  0  0  0  0  0  0  0  0  0  0
   -2.3441    0.0327    1.9578 H   0  0  0  0  0  0  0  0  0  0  0  0
   -2.2043   -0.9993   -0.9922 H   0  0  0  0  0  0  0  0  0  0  0  0
   -0.1660   -0.5425   -2.4739 H   0  0  0  0  0  0  0  0  0  0  0  0
    0.8076   -1.5127   -1.3055 H   0  0  0  0  0  0  0  0  0  0  0  0
   -0.4648    1.3043   -0.9415 H   0  0  0  0  0  0  0  0  0  0  0  0
    1.3831    1.8105    0.5874 H   0  0  0  0  0  0  0  0  0  0  0  0
    2.2432   -1.2308    0.1902 H   0  0  0  0  0  0  0  0  0  0  0  0
    3.0179    0.0748    1.3039 H   0  0  0  0  0  0  0  0  0  0  0  0
  1  2  1  0
  2  3  1  0
  3  4  1  0
  4  5  1  0
  5  6  1  0
  6  7  1  0
  7  8  1  0
  8  9  1  0
  4  2  1  0
  9  7  1  0
  6  2  1  0
  1 10  1  0
  1 11  1  0
  1 12  1  0
  4 13  1  0
  5 14  1  0
  5 15  1  0
  6 16  1  0
  7 17  1  0
  8 18  1  0
  8 19  1  0
M  END
