
     RDKit          3D

 19 20  0  0  0  0  0  0  0  0999 V2000
   -0.7582    1.3995    0.2600 C   0  0  0  0  0  0  0  0  0  0  0  0
   -0.1647    0.2492   -0.4847 C   0  0  0  0  0  0  0  0  0  0  0  0
    1.0440    0.6971   -1.2548 C   0  0  0  0  0  0  0  0  0  0  0  0
    2.1617    0.4143   -0.5195 O   0  0  0  0  0  0  0  0  0  0  0  0
    1.8335   -0.2775    0.6248 C   0  0  0  0  0  0  0  0  0  0  0  0
    0.4402   -0.7702    0.4501 C   0  0  0  0  0  0  0  0  0  0  0  0
   -0.5245   -1.6413    0.6923 C   0  0  0  0  0  0  0  0  0  0  0  0
   -1.7054   -1.1721   -0.0786 C   0  0  0  0  0  0  0  0  0  0  0  0
   -1.0678   -0.5155   -1.1657 O   0  0  0  0  0  0  0  0  0  0  0  0
   -0.2445    2.3659    0.0047 H   0  0  0  0  0  0  0  0  0  0  0  0
   -1.8329    1.5702    0.0527 H   0  0  0  0  0  0  0  0  0  0  0  0
   -0.5960    1.2612    1.3612 H   0  0  0  0  0  0  0  0  0  0  0  0
    0.9933    1.8206   -1.3721 H   0  0  0  0  0  0  0  0  0  0  0  0
    1.0661    0.3150   -2.2977 H   0  0  0  0  0  0  0  0  0  0  0  0
    2.5444   -1.1278    0.7302 H   0  0  0  0  0  0  0  0  0  0  0  0
    1.8243    0.3670    1.5323 H   0  0  0  0  0  0  0  0  0  0  0  0
   -0.4381   -2.5087    1.3278 H   0  0  0  0  0  0  0  0  0  0  0  0
   -2.2460   -0.4440    0.5555 H   0  0  0  0  0  0  0  0  0  0  0  0
   -2.3295   -2.0028   -0.4187 H   0  0  0  0  0  0  0  0  0  0  0  0
  1  2  1  0
  2  3  1  0
  3  4  1  0
  4  5  1  0
  5  6  1  0
  6  7  2  0
  7  8  1  0
  8  9  1  0
  6  2  1  0
  9  2  1  0
  1 10  1  0
  1 11  1  0
  1 12  1  0
  3 13  1  0
  3 14  1  0
  5 15  1  0
  5 16  1  0
  7 17  1  0
  8 18  1  0
  8 19  1  0
M  END
