
     RDKit          3D

 19 20  0  0  0  0  0  0  0  0999 V2000
   -1.9715   -0.6987   -0.2768 C   0  0  0  0  0  0  0  0  0  0  0  0
   -0.6243   -0.1349   -0.0115 C   0  0  0  0  0  0  0  0  0  0  0  0
   -0.5746    0.7980    1.1410 C   0  0  0  0  0  0  0  0  0  0  0  0
    0.2146    1.7900    0.7646 C   0  0  0  0  0  0  0  0  0  0  0  0
    0.7829    1.4052   -0.5843 C   0  0  0  0  0  0  0  0  0  0  0  0
    1.9284    0.6379   -0.4292 O   0  0  0  0  0  0  0  0  0  0  0  0
    1.7150   -0.7122   -0.4495 C   0  0  0  0  0  0  0  0  0  0  0  0
    0.4511   -1.1693    0.1962 C   0  0  0  0  0  0  0  0  0  0  0  0
   -0.2328    0.6410   -1.1091 O   0  0  0  0  0  0  0  0  0  0  0  0
   -2.7263    0.0988   -0.0089 H   0  0  0  0  0  0  0  0  0  0  0  0
   -2.1119   -0.8479   -1.3750 H   0  0  0  0  0  0  0  0  0  0  0  0
   -2.1859   -1.6496    0.2248 H   0  0  0  0  0  0  0  0  0  0  0  0
   -1.0742    0.6941    2.0870 H   0  0  0  0  0  0  0  0  0  0  0  0
    0.4124    2.6974    1.3166 H   0  0  0  0  0  0  0  0  0  0  0  0
    0.9170    2.3109   -1.1710 H   0  0  0  0  0  0  0  0  0  0  0  0
    1.7739   -1.1664   -1.4626 H   0  0  0  0  0  0  0  0  0  0  0  0
    2.5647   -1.1878    0.1230 H   0  0  0  0  0  0  0  0  0  0  0  0
    0.6091   -1.3691    1.2768 H   0  0  0  0  0  0  0  0  0  0  0  0
    0.1325   -2.1373   -0.2524 H   0  0  0  0  0  0  0  0  0  0  0  0
  1  2  1  0
  2  3  1  0
  3  4  2  0
  4  5  1  0
  5  6  1  0
  6  7  1  0
  7  8  1  0
  5  9  1  0
  8  2  1  0
  9  2  1  0
  1 10  1  0
  1 11  1  0
  1 12  1  0
  3 13  1  0
  4 14  1  0
  5 15  1  0
  7 16  1  0
  7 17  1  0
  8 18  1  0
  8 19  1  0
M  END
