
     RDKit          3D

 17 19  0  0  0  0  0  0  0  0999 V2000
    2.0861    0.1979    0.1527 C   0  0  0  0  0  0  0  0  0  0  0  0
    0.6598    0.2086   -0.0078 C   0  0  0  0  0  0  0  0  0  0  0  0
    0.0287   -1.0288   -0.6417 C   0  0  0  0  0  0  0  0  0  0  0  0
   -1.4344   -0.5684   -0.5338 C   0  0  0  0  0  0  0  0  0  0  0  0
   -1.3146    0.8925   -0.6440 C   0  0  0  0  0  0  0  0  0  0  0  0
    0.0640    1.2141   -0.7277 O   0  0  0  0  0  0  0  0  0  0  0  0
   -1.5426    0.2690    0.6720 C   0  0  0  0  0  0  0  0  0  0  0  0
   -0.1566    0.2576    1.2625 C   0  0  0  0  0  0  0  0  0  0  0  0
    0.2245    0.2798    2.3939 O   0  0  0  0  0  0  0  0  0  0  0  0
    2.6129    1.1052   -0.2415 H   0  0  0  0  0  0  0  0  0  0  0  0
    2.3783    0.1441    1.2289 H   0  0  0  0  0  0  0  0  0  0  0  0
    2.5908   -0.6926   -0.3234 H   0  0  0  0  0  0  0  0  0  0  0  0
    0.2062   -1.9380   -0.0626 H   0  0  0  0  0  0  0  0  0  0  0  0
    0.2653   -1.0852   -1.7042 H   0  0  0  0  0  0  0  0  0  0  0  0
   -2.2219   -1.1717   -0.9538 H   0  0  0  0  0  0  0  0  0  0  0  0
   -2.0376    1.5266   -1.1584 H   0  0  0  0  0  0  0  0  0  0  0  0
   -2.4090    0.3893    1.2888 H   0  0  0  0  0  0  0  0  0  0  0  0
  1  2  1  0
  2  3  1  0
  3  4  1  0
  4  5  1  0
  5  6  1  0
  5  7  1  0
  7  8  1  0
  8  9  2  0
  6  2  1  0
  8  2  1  0
  7  4  1  0
  1 10  1  0
  1 11  1  0
  1 12  1  0
  3 13  1  0
  3 14  1  0
  4 15  1  0
  5 16  1  0
  7 17  1  0
M  END
