
     RDKit          3D

 19 21  0  0  0  0  0  0  0  0999 V2000
   -1.6899   -1.1380   -0.2777 C   0  0  0  0  0  0  0  0  0  0  0  0
   -0.8696    0.1283   -0.1165 C   0  0  0  0  0  0  0  0  0  0  0  0
   -1.3212    1.2392    0.7224 C   0  0  0  0  0  0  0  0  0  0  0  0
   -0.3158    0.3094    1.2735 C   0  0  0  0  0  0  0  0  0  0  0  0
    1.0551    0.1651    0.7265 C   0  0  0  0  0  0  0  0  0  0  0  0
    1.4639   -0.8869   -0.2055 C   0  0  0  0  0  0  0  0  0  0  0  0
    2.7366   -0.8260   -0.7264 O   0  0  0  0  0  0  0  0  0  0  0  0
    0.5201    0.1624   -0.6515 C   0  0  0  0  0  0  0  0  0  0  0  0
    0.8962    1.1693   -1.5171 O   0  0  0  0  0  0  0  0  0  0  0  0
   -2.4807   -1.2343    0.4873 H   0  0  0  0  0  0  0  0  0  0  0  0
   -1.0209   -2.0314   -0.1521 H   0  0  0  0  0  0  0  0  0  0  0  0
   -2.0699   -1.1751   -1.3164 H   0  0  0  0  0  0  0  0  0  0  0  0
   -2.3310    1.1717    1.1481 H   0  0  0  0  0  0  0  0  0  0  0  0
   -1.0165    2.2756    0.4361 H   0  0  0  0  0  0  0  0  0  0  0  0
   -0.6073   -0.4156    2.0765 H   0  0  0  0  0  0  0  0  0  0  0  0
    1.8181    0.9082    1.0606 H   0  0  0  0  0  0  0  0  0  0  0  0
    1.0440   -1.9202   -0.1791 H   0  0  0  0  0  0  0  0  0  0  0  0
    3.1743    0.0476   -0.6294 H   0  0  0  0  0  0  0  0  0  0  0  0
    1.0145    2.0505   -1.0652 H   0  0  0  0  0  0  0  0  0  0  0  0
  1  2  1  0
  2  3  1  0
  3  4  1  0
  4  5  1  0
  5  6  1  0
  6  7  1  0
  6  8  1  0
  8  9  1  0
  4  2  1  0
  8  5  1  0
  8  2  1  0
  1 10  1  0
  1 11  1  0
  1 12  1  0
  3 13  1  0
  3 14  1  0
  4 15  1  0
  5 16  1  0
  6 17  1  0
  7 18  1  0
  9 19  1  0
M  END
