
     RDKit          3D

 16 18  0  0  0  0  0  0  0  0999 V2000
    1.6264    0.8423   -0.2478 C   0  0  0  0  0  0  0  0  0  0  0  0
    0.8384   -0.4358   -0.2176 C   0  0  0  0  0  0  0  0  0  0  0  0
    1.3796   -1.5889    0.2910 O   0  0  0  0  0  0  0  0  0  0  0  0
    0.4680   -1.0297    1.1506 C   0  0  0  0  0  0  0  0  0  0  0  0
   -0.9736   -1.1544    0.6945 C   0  0  0  0  0  0  0  0  0  0  0  0
   -0.6201   -0.2662   -0.4416 C   0  0  0  0  0  0  0  0  0  0  0  0
   -1.3350    0.8483   -0.8157 C   0  0  0  0  0  0  0  0  0  0  0  0
   -1.2047   -0.3292   -1.6617 O   0  0  0  0  0  0  0  0  0  0  0  0
    1.4127    1.3764    0.7097 H   0  0  0  0  0  0  0  0  0  0  0  0
    2.6893    0.7234   -0.4371 H   0  0  0  0  0  0  0  0  0  0  0  0
    1.1835    1.4691   -1.0768 H   0  0  0  0  0  0  0  0  0  0  0  0
    0.7408   -0.3824    1.9754 H   0  0  0  0  0  0  0  0  0  0  0  0
   -1.7158   -0.6507    1.3626 H   0  0  0  0  0  0  0  0  0  0  0  0
   -1.1869   -2.2166    0.4708 H   0  0  0  0  0  0  0  0  0  0  0  0
   -0.9047    1.7799   -1.2576 H   0  0  0  0  0  0  0  0  0  0  0  0
   -2.3981    1.0143   -0.4988 H   0  0  0  0  0  0  0  0  0  0  0  0
  1  2  1  0
  2  3  1  0
  3  4  1  0
  4  5  1  0
  5  6  1  0
  6  7  1  0
  7  8  1  0
  4  2  1  0
  8  6  1  0
  6  2  1  0
  1  9  1  0
  1 10  1  0
  1 11  1  0
  4 12  1  0
  5 13  1  0
  5 14  1  0
  7 15  1  0
  7 16  1  0
M  END
