
     RDKit          3D

 21 22  0  0  0  0  0  0  0  0999 V2000
   -2.3151   -0.8670   -0.8349 C   0  0  0  0  0  0  0  0  0  0  0  0
   -1.2270   -0.0784   -0.1555 C   0  0  0  0  0  0  0  0  0  0  0  0
   -0.7897    1.2394   -0.7084 C   0  0  0  0  0  0  0  0  0  0  0  0
    0.6910    1.1762   -0.5837 C   0  0  0  0  0  0  0  0  0  0  0  0
    1.0897    0.0501   -0.0039 C   0  0  0  0  0  0  0  0  0  0  0  0
    2.5187   -0.3158    0.2665 C   0  0  0  0  0  0  0  0  0  0  0  0
    3.3899    0.6628   -0.1605 O   0  0  0  0  0  0  0  0  0  0  0  0
   -0.0536   -0.8028    0.3440 C   0  0  0  0  0  0  0  0  0  0  0  0
   -1.0307   -0.2462    1.3371 C   0  0  0  0  0  0  0  0  0  0  0  0
   -3.2655   -0.3024   -0.8221 H   0  0  0  0  0  0  0  0  0  0  0  0
   -2.4356   -1.8106   -0.2655 H   0  0  0  0  0  0  0  0  0  0  0  0
   -2.0206   -1.1072   -1.8655 H   0  0  0  0  0  0  0  0  0  0  0  0
   -1.1181    1.4123   -1.7492 H   0  0  0  0  0  0  0  0  0  0  0  0
   -1.1297    2.0624   -0.0218 H   0  0  0  0  0  0  0  0  0  0  0  0
    1.4011    1.9509   -0.9205 H   0  0  0  0  0  0  0  0  0  0  0  0
    2.6064   -0.4016    1.3682 H   0  0  0  0  0  0  0  0  0  0  0  0
    2.7528   -1.3278   -0.1529 H   0  0  0  0  0  0  0  0  0  0  0  0
    3.2894    0.9348   -1.0919 H   0  0  0  0  0  0  0  0  0  0  0  0
    0.0736   -1.8898    0.2725 H   0  0  0  0  0  0  0  0  0  0  0  0
   -1.7591   -0.9229    1.8149 H   0  0  0  0  0  0  0  0  0  0  0  0
   -0.6681    0.5833    1.9456 H   0  0  0  0  0  0  0  0  0  0  0  0
  1  2  1  0
  2  3  1  0
  3  4  1  0
  4  5  2  0
  5  6  1  0
  6  7  1  0
  5  8  1  0
  8  9  1  0
  8  2  1  0
  9  2  1  0
  1 10  1  0
  1 11  1  0
  1 12  1  0
  3 13  1  0
  3 14  1  0
  4 15  1  0
  6 16  1  0
  6 17  1  0
  7 18  1  0
  8 19  1  0
  9 20  1  0
  9 21  1  0
M  END
