
     RDKit          3D

 19 21  0  0  0  0  0  0  0  0999 V2000
   -1.9888   -0.8579    0.8038 C   0  0  0  0  0  0  0  0  0  0  0  0
   -0.7208   -0.1607    0.3921 C   0  0  0  0  0  0  0  0  0  0  0  0
    0.2645    0.0788    1.3160 O   0  0  0  0  0  0  0  0  0  0  0  0
    1.4769   -0.2681    0.7943 C   0  0  0  0  0  0  0  0  0  0  0  0
    2.2080    0.5363   -0.1780 C   0  0  0  0  0  0  0  0  0  0  0  0
    1.3416   -0.5360   -0.6599 C   0  0  0  0  0  0  0  0  0  0  0  0
   -0.1053   -0.3850   -0.9366 C   0  0  0  0  0  0  0  0  0  0  0  0
   -0.8692    0.8335   -0.7728 C   0  0  0  0  0  0  0  0  0  0  0  0
   -0.3219    2.0707   -0.4648 O   0  0  0  0  0  0  0  0  0  0  0  0
   -2.2255   -0.5216    1.8365 H   0  0  0  0  0  0  0  0  0  0  0  0
   -2.8477   -0.5189    0.1552 H   0  0  0  0  0  0  0  0  0  0  0  0
   -1.9345   -1.9518    0.7039 H   0  0  0  0  0  0  0  0  0  0  0  0
    2.0762   -0.9834    1.4312 H   0  0  0  0  0  0  0  0  0  0  0  0
    3.3161    0.3434   -0.2661 H   0  0  0  0  0  0  0  0  0  0  0  0
    1.9585    1.5684   -0.4602 H   0  0  0  0  0  0  0  0  0  0  0  0
    1.8183   -1.4941   -1.0070 H   0  0  0  0  0  0  0  0  0  0  0  0
   -0.5724   -1.1807   -1.5905 H   0  0  0  0  0  0  0  0  0  0  0  0
   -1.8707    0.9018   -1.2256 H   0  0  0  0  0  0  0  0  0  0  0  0
   -1.0035    2.5252    0.1283 H   0  0  0  0  0  0  0  0  0  0  0  0
  1  2  1  0
  2  3  1  0
  3  4  1  0
  4  5  1  0
  5  6  1  0
  6  7  1  0
  7  8  1  0
  8  9  1  0
  7  2  1  0
  8  2  1  0
  6  4  1  0
  1 10  1  0
  1 11  1  0
  1 12  1  0
  4 13  1  0
  5 14  1  0
  5 15  1  0
  6 16  1  0
  7 17  1  0
  8 18  1  0
  9 19  1  0
M  END
