
     RDKit          3D

 19 20  0  0  0  0  0  0  0  0999 V2000
   -2.1334   -0.2214    0.3149 C   0  0  0  0  0  0  0  0  0  0  0  0
   -0.6724   -0.0049    0.0898 C   0  0  0  0  0  0  0  0  0  0  0  0
   -0.0826   -0.8326   -1.0027 C   0  0  0  0  0  0  0  0  0  0  0  0
    1.0103   -1.5738   -0.4979 O   0  0  0  0  0  0  0  0  0  0  0  0
    1.9741   -0.7439    0.0601 C   0  0  0  0  0  0  0  0  0  0  0  0
    1.3089    0.3848    0.8407 C   0  0  0  0  0  0  0  0  0  0  0  0
    1.0183    1.4748    0.0597 O   0  0  0  0  0  0  0  0  0  0  0  0
   -0.3484    1.4545   -0.2148 C   0  0  0  0  0  0  0  0  0  0  0  0
    0.0812   -0.1510    1.2776 O   0  0  0  0  0  0  0  0  0  0  0  0
   -2.3089   -1.2808    0.4960 H   0  0  0  0  0  0  0  0  0  0  0  0
   -2.4042    0.3148    1.2607 H   0  0  0  0  0  0  0  0  0  0  0  0
   -2.6768    0.1880   -0.5575 H   0  0  0  0  0  0  0  0  0  0  0  0
   -0.7774   -1.5402   -1.4626 H   0  0  0  0  0  0  0  0  0  0  0  0
    0.3704   -0.2045   -1.8242 H   0  0  0  0  0  0  0  0  0  0  0  0
    2.5096   -1.3757    0.8271 H   0  0  0  0  0  0  0  0  0  0  0  0
    2.7257   -0.3877   -0.6441 H   0  0  0  0  0  0  0  0  0  0  0  0
    1.9041    0.6684    1.7364 H   0  0  0  0  0  0  0  0  0  0  0  0
   -0.9135    2.1159    0.5017 H   0  0  0  0  0  0  0  0  0  0  0  0
   -0.5851    1.7154   -1.2607 H   0  0  0  0  0  0  0  0  0  0  0  0
  1  2  1  0
  2  3  1  0
  3  4  1  0
  4  5  1  0
  5  6  1  0
  6  7  1  0
  7  8  1  0
  6  9  1  0
  8  2  1  0
  9  2  1  0
  1 10  1  0
  1 11  1  0
  1 12  1  0
  3 13  1  0
  3 14  1  0
  5 15  1  0
  5 16  1  0
  6 17  1  0
  8 18  1  0
  8 19  1  0
M  END
