
     RDKit          3D

 21 23  0  0  0  0  0  0  0  0999 V2000
   -1.9283   -0.4321   -0.8144 C   0  0  0  0  0  0  0  0  0  0  0  0
   -0.7570   -0.0984    0.0649 C   0  0  0  0  0  0  0  0  0  0  0  0
   -0.9576    0.5438    1.3657 C   0  0  0  0  0  0  0  0  0  0  0  0
   -0.3582    1.3422    0.2757 C   0  0  0  0  0  0  0  0  0  0  0  0
    1.1595    1.3845    0.1067 C   0  0  0  0  0  0  0  0  0  0  0  0
    1.3044    0.2925   -0.9667 C   0  0  0  0  0  0  0  0  0  0  0  0
    0.5189   -0.8021   -0.2906 C   0  0  0  0  0  0  0  0  0  0  0  0
    1.1399   -1.6837    0.6011 C   0  0  0  0  0  0  0  0  0  0  0  0
    0.5583   -2.0872   -0.7096 O   0  0  0  0  0  0  0  0  0  0  0  0
   -2.7359    0.3073   -0.7938 H   0  0  0  0  0  0  0  0  0  0  0  0
   -2.3080   -1.4358   -0.4634 H   0  0  0  0  0  0  0  0  0  0  0  0
   -1.5898   -0.6317   -1.8694 H   0  0  0  0  0  0  0  0  0  0  0  0
   -1.9798    0.7994    1.6630 H   0  0  0  0  0  0  0  0  0  0  0  0
   -0.2737    0.1965    2.1881 H   0  0  0  0  0  0  0  0  0  0  0  0
   -0.9043    2.1539   -0.2207 H   0  0  0  0  0  0  0  0  0  0  0  0
    1.5260    2.3484   -0.2302 H   0  0  0  0  0  0  0  0  0  0  0  0
    1.6688    0.9884    1.0187 H   0  0  0  0  0  0  0  0  0  0  0  0
    2.3438    0.0458   -1.1677 H   0  0  0  0  0  0  0  0  0  0  0  0
    0.7564    0.7064   -1.8562 H   0  0  0  0  0  0  0  0  0  0  0  0
    0.5846   -2.1273    1.4581 H   0  0  0  0  0  0  0  0  0  0  0  0
    2.2320   -1.8107    0.6408 H   0  0  0  0  0  0  0  0  0  0  0  0
  1  2  1  0
  2  3  1  0
  3  4  1  0
  4  5  1  0
  5  6  1  0
  6  7  1  0
  7  8  1  0
  8  9  1  0
  4  2  1  0
  9  7  1  0
  7  2  1  0
  1 10  1  0
  1 11  1  0
  1 12  1  0
  3 13  1  0
  3 14  1  0
  4 15  1  0
  5 16  1  0
  5 17  1  0
  6 18  1  0
  6 19  1  0
  8 20  1  0
  8 21  1  0
M  END
