
     RDKit          3D

 21 23  0  0  0  0  0  0  0  0999 V2000
   -0.8898   -1.7837    0.8562 C   0  0  0  0  0  0  0  0  0  0  0  0
   -0.2440   -0.8636   -0.1060 C   0  0  0  0  0  0  0  0  0  0  0  0
   -0.9011   -0.2995   -1.2884 C   0  0  0  0  0  0  0  0  0  0  0  0
   -0.5170    0.5836   -0.1672 C   0  0  0  0  0  0  0  0  0  0  0  0
   -1.6161    1.2467    0.5785 C   0  0  0  0  0  0  0  0  0  0  0  0
    0.9238    0.8444    0.1533 C   0  0  0  0  0  0  0  0  0  0  0  0
    1.9038    0.3853   -0.8677 C   0  0  0  0  0  0  0  0  0  0  0  0
    3.2402    0.6469   -0.5425 O   0  0  0  0  0  0  0  0  0  0  0  0
    1.2644   -0.6678   -0.0392 C   0  0  0  0  0  0  0  0  0  0  0  0
   -0.6441   -2.8264    0.5973 H   0  0  0  0  0  0  0  0  0  0  0  0
   -0.4125   -1.6115    1.8669 H   0  0  0  0  0  0  0  0  0  0  0  0
   -1.9579   -1.5650    0.9330 H   0  0  0  0  0  0  0  0  0  0  0  0
   -0.3269   -0.1236   -2.2367 H   0  0  0  0  0  0  0  0  0  0  0  0
   -1.9617   -0.5120   -1.4271 H   0  0  0  0  0  0  0  0  0  0  0  0
   -1.3651    2.3120    0.8605 H   0  0  0  0  0  0  0  0  0  0  0  0
   -2.4814    1.3661   -0.1393 H   0  0  0  0  0  0  0  0  0  0  0  0
   -2.0100    0.6926    1.4382 H   0  0  0  0  0  0  0  0  0  0  0  0
    1.2166    1.2261    1.1310 H   0  0  0  0  0  0  0  0  0  0  0  0
    1.5989    0.4951   -1.9377 H   0  0  0  0  0  0  0  0  0  0  0  0
    3.3446    1.6067   -0.4168 H   0  0  0  0  0  0  0  0  0  0  0  0
    1.8354   -1.1524    0.7538 H   0  0  0  0  0  0  0  0  0  0  0  0
  1  2  1  0
  2  3  1  0
  3  4  1  0
  4  5  1  0
  4  6  1  0
  6  7  1  0
  7  8  1  0
  7  9  1  0
  4  2  1  0
  9  6  1  0
  9  2  1  0
  1 10  1  0
  1 11  1  0
  1 12  1  0
  3 13  1  0
  3 14  1  0
  5 15  1  0
  5 16  1  0
  5 17  1  0
  6 18  1  0
  7 19  1  0
  8 20  1  0
  9 21  1  0
M  END
