
     RDKit          3D

 23 24  0  0  0  0  0  0  0  0999 V2000
    1.2510   -0.6349    1.4481 C   0  0  0  0  0  0  0  0  0  0  0  0
    0.7026   -0.1374    0.1509 C   0  0  0  0  0  0  0  0  0  0  0  0
    0.9274    1.3112   -0.1584 C   0  0  0  0  0  0  0  0  0  0  0  0
   -0.1647    1.6272   -1.1896 C   0  0  0  0  0  0  0  0  0  0  0  0
   -1.3625    0.9471   -0.5165 C   0  0  0  0  0  0  0  0  0  0  0  0
   -0.7218   -0.3929   -0.1498 C   0  0  0  0  0  0  0  0  0  0  0  0
   -1.5292   -1.1560    0.8460 C   0  0  0  0  0  0  0  0  0  0  0  0
   -0.4337   -1.0805   -1.3224 O   0  0  0  0  0  0  0  0  0  0  0  0
    0.9236   -1.0799   -1.0039 C   0  0  0  0  0  0  0  0  0  0  0  0
    2.3196   -0.2972    1.5054 H   0  0  0  0  0  0  0  0  0  0  0  0
    1.2782   -1.7296    1.4657 H   0  0  0  0  0  0  0  0  0  0  0  0
    0.7468   -0.2456    2.3430 H   0  0  0  0  0  0  0  0  0  0  0  0
    0.6689    1.8975    0.7413 H   0  0  0  0  0  0  0  0  0  0  0  0
    1.9227    1.5428   -0.5612 H   0  0  0  0  0  0  0  0  0  0  0  0
   -0.2897    2.7070   -1.2721 H   0  0  0  0  0  0  0  0  0  0  0  0
    0.1068    1.1092   -2.1206 H   0  0  0  0  0  0  0  0  0  0  0  0
   -2.1908    0.7846   -1.2430 H   0  0  0  0  0  0  0  0  0  0  0  0
   -1.6611    1.5237    0.3614 H   0  0  0  0  0  0  0  0  0  0  0  0
   -2.5508   -1.3067    0.3902 H   0  0  0  0  0  0  0  0  0  0  0  0
   -1.0903   -2.1500    1.0059 H   0  0  0  0  0  0  0  0  0  0  0  0
   -1.6671   -0.5571    1.7529 H   0  0  0  0  0  0  0  0  0  0  0  0
    1.2686   -2.0698   -0.6676 H   0  0  0  0  0  0  0  0  0  0  0  0
    1.5455   -0.6128   -1.8056 H   0  0  0  0  0  0  0  0  0  0  0  0
  1  2  1  0
  2  3  1  0
  3  4  1  0
  4  5  1  0
  5  6  1  0
  6  7  1  0
  6  8  1  0
  8  9  1  0
  6  2  1  0
  9  2  1  0
  1 10  1  0
  1 11  1  0
  1 12  1  0
  3 13  1  0
  3 14  1  0
  4 15  1  0
  4 16  1  0
  5 17  1  0
  5 18  1  0
  7 19  1  0
  7 20  1  0
  7 21  1  0
  9 22  1  0
  9 23  1  0
M  END
