
     RDKit          3D

 21 23  0  0  0  0  0  0  0  0999 V2000
    1.9801   -0.3290    0.0444 C   0  0  0  0  0  0  0  0  0  0  0  0
    0.8658    0.6099   -0.1424 C   0  0  0  0  0  0  0  0  0  0  0  0
    0.8491    1.3488    1.0832 C   0  0  0  0  0  0  0  0  0  0  0  0
   -0.3821    0.8953    0.7282 C   0  0  0  0  0  0  0  0  0  0  0  0
   -1.1490   -0.3285    0.6042 C   0  0  0  0  0  0  0  0  0  0  0  0
   -2.1891   -0.0722   -0.5311 C   0  0  0  0  0  0  0  0  0  0  0  0
   -1.2507    0.5573   -1.3992 O   0  0  0  0  0  0  0  0  0  0  0  0
   -0.0152    0.0343   -1.1808 C   0  0  0  0  0  0  0  0  0  0  0  0
   -0.3583   -1.2412   -0.3643 C   0  0  0  0  0  0  0  0  0  0  0  0
    2.9343    0.2983    0.0389 H   0  0  0  0  0  0  0  0  0  0  0  0
    2.1891   -1.0682   -0.7446 H   0  0  0  0  0  0  0  0  0  0  0  0
    2.0623   -0.8695    1.0118 H   0  0  0  0  0  0  0  0  0  0  0  0
    1.2642    2.3915    0.9783 H   0  0  0  0  0  0  0  0  0  0  0  0
    1.1765    1.0015    2.1150 H   0  0  0  0  0  0  0  0  0  0  0  0
   -0.9892    1.7956    0.3536 H   0  0  0  0  0  0  0  0  0  0  0  0
   -1.5588   -0.8329    1.4386 H   0  0  0  0  0  0  0  0  0  0  0  0
   -2.5613   -1.0072   -0.9369 H   0  0  0  0  0  0  0  0  0  0  0  0
   -2.9258    0.6617   -0.2212 H   0  0  0  0  0  0  0  0  0  0  0  0
    0.5600   -0.1946   -2.0717 H   0  0  0  0  0  0  0  0  0  0  0  0
   -0.9678   -1.9376   -0.9115 H   0  0  0  0  0  0  0  0  0  0  0  0
    0.4660   -1.7131    0.1074 H   0  0  0  0  0  0  0  0  0  0  0  0
  1  2  1  0
  2  3  1  0
  3  4  1  0
  4  5  1  0
  5  6  1  0
  6  7  1  0
  7  8  1  0
  8  9  1  0
  4  2  1  0
  9  5  1  0
  8  2  1  0
  1 10  1  0
  1 11  1  0
  1 12  1  0
  3 13  1  0
  3 14  1  0
  4 15  1  0
  5 16  1  0
  6 17  1  0
  6 18  1  0
  8 19  1  0
  9 20  1  0
  9 21  1  0
M  END
