
     RDKit          3D

 23 24  0  0  0  0  0  0  0  0999 V2000
    1.9217   -0.4641    0.8873 C   0  0  0  0  0  0  0  0  0  0  0  0
    0.8769   -0.1610   -0.1424 C   0  0  0  0  0  0  0  0  0  0  0  0
    0.4181   -1.3509   -0.9419 C   0  0  0  0  0  0  0  0  0  0  0  0
   -0.9573   -0.9545   -1.4043 C   0  0  0  0  0  0  0  0  0  0  0  0
   -1.4639   -0.0856   -0.2823 C   0  0  0  0  0  0  0  0  0  0  0  0
   -1.9193   -0.9305    0.7249 O   0  0  0  0  0  0  0  0  0  0  0  0
   -0.2702    0.7031    0.1489 C   0  0  0  0  0  0  0  0  0  0  0  0
   -0.3767    1.5165    1.4117 C   0  0  0  0  0  0  0  0  0  0  0  0
    0.7726    1.1473   -0.8107 C   0  0  0  0  0  0  0  0  0  0  0  0
    2.2589    0.4013    1.4636 H   0  0  0  0  0  0  0  0  0  0  0  0
    1.4934   -1.2539    1.5638 H   0  0  0  0  0  0  0  0  0  0  0  0
    2.7602   -0.9856    0.3539 H   0  0  0  0  0  0  0  0  0  0  0  0
    0.4359   -2.2816   -0.3618 H   0  0  0  0  0  0  0  0  0  0  0  0
    1.0612   -1.3969   -1.8580 H   0  0  0  0  0  0  0  0  0  0  0  0
   -0.9383   -0.3626   -2.3322 H   0  0  0  0  0  0  0  0  0  0  0  0
   -1.5453   -1.8901   -1.5133 H   0  0  0  0  0  0  0  0  0  0  0  0
   -2.2441    0.6162   -0.6082 H   0  0  0  0  0  0  0  0  0  0  0  0
   -2.8641   -0.7240    0.8829 H   0  0  0  0  0  0  0  0  0  0  0  0
   -0.9463    1.0170    2.2125 H   0  0  0  0  0  0  0  0  0  0  0  0
    0.6192    1.7845    1.8247 H   0  0  0  0  0  0  0  0  0  0  0  0
   -0.9228    2.4731    1.2011 H   0  0  0  0  0  0  0  0  0  0  0  0
    1.4086    1.9957   -0.5424 H   0  0  0  0  0  0  0  0  0  0  0  0
    0.4219    1.1863   -1.8779 H   0  0  0  0  0  0  0  0  0  0  0  0
  1  2  1  0
  2  3  1  0
  3  4  1  0
  4  5  1  0
  5  6  1  0
  5  7  1  0
  7  8  1  0
  7  9  1  0
  7  2  1  0
  9  2  1  0
  1 10  1  0
  1 11  1  0
  1 12  1  0
  3 13  1  0
  3 14  1  0
  4 15  1  0
  4 16  1  0
  5 17  1  0
  6 18  1  0
  8 19  1  0
  8 20  1  0
  8 21  1  0
  9 22  1  0
  9 23  1  0
M  END
