
     RDKit          3D

 19 21  0  0  0  0  0  0  0  0999 V2000
   -1.2517   -1.5061    0.7757 C   0  0  0  0  0  0  0  0  0  0  0  0
   -0.0902   -0.8249    0.2030 C   0  0  0  0  0  0  0  0  0  0  0  0
    1.0219   -1.5632   -0.1497 O   0  0  0  0  0  0  0  0  0  0  0  0
    1.9026   -0.5644   -0.6335 C   0  0  0  0  0  0  0  0  0  0  0  0
    1.0705    0.6520   -0.4947 C   0  0  0  0  0  0  0  0  0  0  0  0
    0.3768    0.4593    0.8192 C   0  0  0  0  0  0  0  0  0  0  0  0
   -0.8028    1.1191    0.1704 C   0  0  0  0  0  0  0  0  0  0  0  0
   -0.5402    2.4467   -0.2104 O   0  0  0  0  0  0  0  0  0  0  0  0
   -0.3022    0.1839   -0.8852 C   0  0  0  0  0  0  0  0  0  0  0  0
   -2.2288   -1.0716    0.4501 H   0  0  0  0  0  0  0  0  0  0  0  0
   -1.2163   -1.5766    1.8994 H   0  0  0  0  0  0  0  0  0  0  0  0
   -1.2710   -2.5643    0.4288 H   0  0  0  0  0  0  0  0  0  0  0  0
    2.2055   -0.7926   -1.6552 H   0  0  0  0  0  0  0  0  0  0  0  0
    2.7964   -0.4789    0.0169 H   0  0  0  0  0  0  0  0  0  0  0  0
    1.4122    1.6105   -0.7890 H   0  0  0  0  0  0  0  0  0  0  0  0
    0.7413    0.6072    1.7373 H   0  0  0  0  0  0  0  0  0  0  0  0
   -1.7858    0.9281    0.5912 H   0  0  0  0  0  0  0  0  0  0  0  0
   -1.3800    2.9017   -0.4684 H   0  0  0  0  0  0  0  0  0  0  0  0
   -0.6584    0.0342   -1.8057 H   0  0  0  0  0  0  0  0  0  0  0  0
  1  2  1  0
  2  3  1  0
  3  4  1  0
  4  5  1  0
  5  6  1  0
  6  7  1  0
  7  8  1  0
  7  9  1  0
  6  2  1  0
  9  2  1  0
  9  5  1  0
  1 10  1  0
  1 11  1  0
  1 12  1  0
  4 13  1  0
  4 14  1  0
  5 15  1  0
  6 16  1  0
  7 17  1  0
  8 18  1  0
  9 19  1  0
M  END
