
     RDKit          3D

 19 21  0  0  0  0  0  0  0  0999 V2000
    1.9798   -0.5574    0.1502 C   0  0  0  0  0  0  0  0  0  0  0  0
    0.5594   -0.2180    0.1300 C   0  0  0  0  0  0  0  0  0  0  0  0
   -0.1380    0.5546    1.2070 C   0  0  0  0  0  0  0  0  0  0  0  0
   -1.3025   -0.1073    1.5039 O   0  0  0  0  0  0  0  0  0  0  0  0
   -1.6106   -0.9886    0.5104 C   0  0  0  0  0  0  0  0  0  0  0  0
   -0.5091   -0.9697   -0.5185 C   0  0  0  0  0  0  0  0  0  0  0  0
   -0.0412    0.2951   -1.1158 C   0  0  0  0  0  0  0  0  0  0  0  0
   -0.6101    1.6286   -0.7004 C   0  0  0  0  0  0  0  0  0  0  0  0
   -0.4442    1.7689    0.6479 O   0  0  0  0  0  0  0  0  0  0  0  0
    2.3095   -0.8281   -0.8877 H   0  0  0  0  0  0  0  0  0  0  0  0
    2.5788    0.3686    0.3908 H   0  0  0  0  0  0  0  0  0  0  0  0
    2.2984   -1.3080    0.8927 H   0  0  0  0  0  0  0  0  0  0  0  0
    0.5171    0.6992    2.1078 H   0  0  0  0  0  0  0  0  0  0  0  0
   -1.5887   -2.0231    0.9642 H   0  0  0  0  0  0  0  0  0  0  0  0
   -2.6192   -0.8843    0.0799 H   0  0  0  0  0  0  0  0  0  0  0  0
   -0.3329   -1.8977   -1.0503 H   0  0  0  0  0  0  0  0  0  0  0  0
    0.5250    0.2460   -2.0413 H   0  0  0  0  0  0  0  0  0  0  0  0
    0.0475    2.4072   -1.1911 H   0  0  0  0  0  0  0  0  0  0  0  0
   -1.6188    1.8142   -1.0796 H   0  0  0  0  0  0  0  0  0  0  0  0
  1  2  1  0
  2  3  1  0
  3  4  1  0
  4  5  1  0
  5  6  1  0
  6  7  1  0
  7  8  1  0
  8  9  1  0
  6  2  1  0
  7  2  1  0
  9  3  1  0
  1 10  1  0
  1 11  1  0
  1 12  1  0
  3 13  1  0
  5 14  1  0
  5 15  1  0
  6 16  1  0
  7 17  1  0
  8 18  1  0
  8 19  1  0
M  END
