
     RDKit          3D

 17 18  0  0  0  0  0  0  0  0999 V2000
    1.7596   -0.7040    0.2600 C   0  0  0  0  0  0  0  0  0  0  0  0
    0.4479   -0.1486    0.0934 C   0  0  0  0  0  0  0  0  0  0  0  0
   -0.7180   -1.0384    0.4706 C   0  0  0  0  0  0  0  0  0  0  0  0
   -1.7838   -0.4603   -0.0812 C   0  0  0  0  0  0  0  0  0  0  0  0
   -1.3482    0.7121   -0.8639 C   0  0  0  0  0  0  0  0  0  0  0  0
   -0.8958    1.7367   -0.0064 O   0  0  0  0  0  0  0  0  0  0  0  0
    0.1431    1.1784    0.7545 C   0  0  0  0  0  0  0  0  0  0  0  0
    0.0140    0.1966   -1.2991 C   0  0  0  0  0  0  0  0  0  0  0  0
    0.5137    0.1150   -2.3674 O   0  0  0  0  0  0  0  0  0  0  0  0
    2.4043   -0.7528   -0.6476 H   0  0  0  0  0  0  0  0  0  0  0  0
    2.3234   -0.1640    1.0627 H   0  0  0  0  0  0  0  0  0  0  0  0
    1.6993   -1.7678    0.6286 H   0  0  0  0  0  0  0  0  0  0  0  0
   -0.6098   -1.9193    1.0564 H   0  0  0  0  0  0  0  0  0  0  0  0
   -2.7875   -0.8327    0.0552 H   0  0  0  0  0  0  0  0  0  0  0  0
   -1.9631    1.0391   -1.6638 H   0  0  0  0  0  0  0  0  0  0  0  0
   -0.2295    0.9732    1.7668 H   0  0  0  0  0  0  0  0  0  0  0  0
    1.0305    1.8367    0.7812 H   0  0  0  0  0  0  0  0  0  0  0  0
  1  2  1  0
  2  3  1  0
  3  4  2  0
  4  5  1  0
  5  6  1  0
  6  7  1  0
  5  8  1  0
  8  9  2  0
  7  2  1  0
  8  2  1  0
  1 10  1  0
  1 11  1  0
  1 12  1  0
  3 13  1  0
  4 14  1  0
  5 15  1  0
  7 16  1  0
  7 17  1  0
M  END
