
     RDKit          3D

 19 21  0  0  0  0  0  0  0  0999 V2000
    2.3593    0.5928   -0.2583 C   0  0  0  0  0  0  0  0  0  0  0  0
    0.9238    0.2802   -0.2378 C   0  0  0  0  0  0  0  0  0  0  0  0
    0.4822   -0.5112    0.9978 C   0  0  0  0  0  0  0  0  0  0  0  0
   -0.9239   -0.9264    0.5434 C   0  0  0  0  0  0  0  0  0  0  0  0
   -1.9113    0.2194    0.5641 C   0  0  0  0  0  0  0  0  0  0  0  0
   -1.1631    0.7556   -0.6618 C   0  0  0  0  0  0  0  0  0  0  0  0
    0.0619    1.3353   -0.3708 O   0  0  0  0  0  0  0  0  0  0  0  0
   -0.8222   -0.7102   -0.9342 C   0  0  0  0  0  0  0  0  0  0  0  0
    0.5193   -0.6178   -1.2526 O   0  0  0  0  0  0  0  0  0  0  0  0
    2.8859    0.5444    0.6977 H   0  0  0  0  0  0  0  0  0  0  0  0
    2.8835   -0.0978   -0.9737 H   0  0  0  0  0  0  0  0  0  0  0  0
    2.5061    1.6200   -0.6820 H   0  0  0  0  0  0  0  0  0  0  0  0
    0.4600    0.1177    1.8878 H   0  0  0  0  0  0  0  0  0  0  0  0
    1.0618   -1.4309    1.1164 H   0  0  0  0  0  0  0  0  0  0  0  0
   -1.2682   -1.8860    0.9041 H   0  0  0  0  0  0  0  0  0  0  0  0
   -1.8962    0.8644    1.4371 H   0  0  0  0  0  0  0  0  0  0  0  0
   -2.8977   -0.1479    0.2224 H   0  0  0  0  0  0  0  0  0  0  0  0
   -1.7815    1.2422   -1.4100 H   0  0  0  0  0  0  0  0  0  0  0  0
   -1.4799   -1.2437   -1.5896 H   0  0  0  0  0  0  0  0  0  0  0  0
  1  2  1  0
  2  3  1  0
  3  4  1  0
  4  5  1  0
  5  6  1  0
  6  7  1  0
  6  8  1  0
  8  9  1  0
  7  2  1  0
  9  2  1  0
  8  4  1  0
  1 10  1  0
  1 11  1  0
  1 12  1  0
  3 13  1  0
  3 14  1  0
  4 15  1  0
  5 16  1  0
  5 17  1  0
  6 18  1  0
  8 19  1  0
M  END
