
     RDKit          3D

 18 20  0  0  0  0  0  0  0  0999 V2000
   -2.1874   -0.2036    0.0875 C   0  0  0  0  0  0  0  0  0  0  0  0
   -0.9604    0.5622    0.4692 C   0  0  0  0  0  0  0  0  0  0  0  0
   -0.5965    1.8532   -0.1115 C   0  0  0  0  0  0  0  0  0  0  0  0
    0.0703    0.6385   -0.6427 C   0  0  0  0  0  0  0  0  0  0  0  0
    0.7840   -0.2502    0.3039 C   0  0  0  0  0  0  0  0  0  0  0  0
    1.3284   -1.5596   -0.0066 C   0  0  0  0  0  0  0  0  0  0  0  0
    2.2298   -0.3514    0.3633 C   0  0  0  0  0  0  0  0  0  0  0  0
   -0.0449    0.0047    1.3537 O   0  0  0  0  0  0  0  0  0  0  0  0
   -1.8319   -1.1950   -0.3225 H   0  0  0  0  0  0  0  0  0  0  0  0
   -2.8238   -0.4584    0.9602 H   0  0  0  0  0  0  0  0  0  0  0  0
   -2.7256    0.3594   -0.6917 H   0  0  0  0  0  0  0  0  0  0  0  0
    0.0651    2.5214    0.4837 H   0  0  0  0  0  0  0  0  0  0  0  0
   -1.3767    2.3934   -0.6819 H   0  0  0  0  0  0  0  0  0  0  0  0
   -0.1760    0.2391   -1.6418 H   0  0  0  0  0  0  0  0  0  0  0  0
    1.3493   -1.8958   -1.0461 H   0  0  0  0  0  0  0  0  0  0  0  0
    1.2693   -2.3279    0.8196 H   0  0  0  0  0  0  0  0  0  0  0  0
    2.7951    0.0988   -0.5037 H   0  0  0  0  0  0  0  0  0  0  0  0
    2.8320   -0.4287    1.2720 H   0  0  0  0  0  0  0  0  0  0  0  0
  1  2  1  0
  2  3  1  0
  3  4  1  0
  4  5  1  0
  5  6  1  0
  6  7  1  0
  5  8  1  0
  4  2  1  0
  7  5  1  0
  8  2  1  0
  1  9  1  0
  1 10  1  0
  1 11  1  0
  3 12  1  0
  3 13  1  0
  4 14  1  0
  6 15  1  0
  6 16  1  0
  7 17  1  0
  7 18  1  0
M  END
