
     RDKit          3D

 19 20  0  0  0  0  0  0  0  0999 V2000
    1.9263   -0.0057    0.0045 C   0  0  0  0  0  0  0  0  0  0  0  0
    0.5532   -0.2355    0.5040 C   0  0  0  0  0  0  0  0  0  0  0  0
   -0.2110   -1.4946    0.1331 C   0  0  0  0  0  0  0  0  0  0  0  0
   -1.2779   -0.5842   -0.4456 C   0  0  0  0  0  0  0  0  0  0  0  0
   -1.1779   -0.6326   -1.8524 O   0  0  0  0  0  0  0  0  0  0  0  0
   -0.6048    0.5803    0.1873 C   0  0  0  0  0  0  0  0  0  0  0  0
   -0.5570    1.8553   -0.5444 C   0  0  0  0  0  0  0  0  0  0  0  0
    0.2035    2.1265   -1.4453 O   0  0  0  0  0  0  0  0  0  0  0  0
   -0.0842    0.5703    1.5604 C   0  0  0  0  0  0  0  0  0  0  0  0
    2.0339    0.8900   -0.6373 H   0  0  0  0  0  0  0  0  0  0  0  0
    2.2729   -0.9248   -0.5463 H   0  0  0  0  0  0  0  0  0  0  0  0
    2.6340    0.1359    0.8585 H   0  0  0  0  0  0  0  0  0  0  0  0
    0.2775   -2.1721   -0.5601 H   0  0  0  0  0  0  0  0  0  0  0  0
   -0.5781   -1.9757    1.0539 H   0  0  0  0  0  0  0  0  0  0  0  0
   -2.2972   -0.7556   -0.1048 H   0  0  0  0  0  0  0  0  0  0  0  0
   -1.5716   -1.5061   -2.1169 H   0  0  0  0  0  0  0  0  0  0  0  0
   -1.2705    2.6402   -0.2572 H   0  0  0  0  0  0  0  0  0  0  0  0
    0.4564    1.4564    1.8982 H   0  0  0  0  0  0  0  0  0  0  0  0
   -0.7275    0.0318    2.3104 H   0  0  0  0  0  0  0  0  0  0  0  0
  1  2  1  0
  2  3  1  0
  3  4  1  0
  4  5  1  0
  4  6  1  0
  6  7  1  0
  7  8  2  0
  6  9  1  0
  6  2  1  0
  9  2  1  0
  1 10  1  0
  1 11  1  0
  1 12  1  0
  3 13  1  0
  3 14  1  0
  4 15  1  0
  5 16  1  0
  7 17  1  0
  9 18  1  0
  9 19  1  0
M  END
