
     RDKit          3D

 20 21  0  0  0  0  0  0  0  0999 V2000
    2.1045   -0.1916   -0.6905 C   0  0  0  0  0  0  0  0  0  0  0  0
    0.6917   -0.0513   -0.1370 C   0  0  0  0  0  0  0  0  0  0  0  0
   -0.1259   -1.2921   -0.2379 C   0  0  0  0  0  0  0  0  0  0  0  0
   -1.5986   -1.0819   -0.2031 C   0  0  0  0  0  0  0  0  0  0  0  0
   -1.9082    0.0575   -0.9745 O   0  0  0  0  0  0  0  0  0  0  0  0
   -1.4919    1.1520   -0.2076 C   0  0  0  0  0  0  0  0  0  0  0  0
   -0.0004    1.2189   -0.1629 C   0  0  0  0  0  0  0  0  0  0  0  0
    0.6336    0.7875    1.1121 C   0  0  0  0  0  0  0  0  0  0  0  0
    2.7483   -0.4002    0.2147 H   0  0  0  0  0  0  0  0  0  0  0  0
    2.2006   -1.0527   -1.3619 H   0  0  0  0  0  0  0  0  0  0  0  0
    2.4892    0.7440   -1.1135 H   0  0  0  0  0  0  0  0  0  0  0  0
    0.1422   -2.0678    0.5184 H   0  0  0  0  0  0  0  0  0  0  0  0
    0.1197   -1.7699   -1.2285 H   0  0  0  0  0  0  0  0  0  0  0  0
   -1.9764   -0.9810    0.8221 H   0  0  0  0  0  0  0  0  0  0  0  0
   -2.1086   -1.9388   -0.6991 H   0  0  0  0  0  0  0  0  0  0  0  0
   -1.9303    0.9693    0.8177 H   0  0  0  0  0  0  0  0  0  0  0  0
   -1.9554    2.1029   -0.5441 H   0  0  0  0  0  0  0  0  0  0  0  0
    0.4434    2.0383   -0.7756 H   0  0  0  0  0  0  0  0  0  0  0  0
    0.0129    0.3877    1.9145 H   0  0  0  0  0  0  0  0  0  0  0  0
    1.5098    1.3692    1.4306 H   0  0  0  0  0  0  0  0  0  0  0  0
  1  2  1  0
  2  3  1  0
  3  4  1  0
  4  5  1  0
  5  6  1  0
  6  7  1  0
  7  8  1  0
  7  2  1  0
  8  2  1  0
  1  9  1  0
  1 10  1  0
  1 11  1  0
  3 12  1  0
  3 13  1  0
  4 14  1  0
  4 15  1  0
  6 16  1  0
  6 17  1  0
  7 18  1  0
  8 19  1  0
  8 20  1  0
M  END
