
     RDKit          3D

 21 23  0  0  0  0  0  0  0  0999 V2000
   -1.4755    1.1543    1.0439 C   0  0  0  0  0  0  0  0  0  0  0  0
   -0.9391   -0.0031    0.3008 C   0  0  0  0  0  0  0  0  0  0  0  0
   -1.8295   -0.4782   -0.7915 C   0  0  0  0  0  0  0  0  0  0  0  0
   -0.3461   -0.0574   -1.0434 C   0  0  0  0  0  0  0  0  0  0  0  0
    0.6533   -1.1337   -0.9644 C   0  0  0  0  0  0  0  0  0  0  0  0
    1.9747   -1.2421   -0.4432 C   0  0  0  0  0  0  0  0  0  0  0  0
    1.1072   -0.6165    0.4662 C   0  0  0  0  0  0  0  0  0  0  0  0
    1.3248    0.9034    0.5733 C   0  0  0  0  0  0  0  0  0  0  0  0
   -0.1208   -0.9263    1.0043 O   0  0  0  0  0  0  0  0  0  0  0  0
   -2.5618    0.9097    1.2687 H   0  0  0  0  0  0  0  0  0  0  0  0
   -1.0515    1.3242    2.0592 H   0  0  0  0  0  0  0  0  0  0  0  0
   -1.5481    2.0918    0.4546 H   0  0  0  0  0  0  0  0  0  0  0  0
   -2.6160    0.1589   -1.1617 H   0  0  0  0  0  0  0  0  0  0  0  0
   -1.9957   -1.5903   -0.7800 H   0  0  0  0  0  0  0  0  0  0  0  0
   -0.2832    0.7786   -1.7403 H   0  0  0  0  0  0  0  0  0  0  0  0
    0.1574   -2.1567   -0.9714 H   0  0  0  0  0  0  0  0  0  0  0  0
    2.4217   -2.2180   -0.1089 H   0  0  0  0  0  0  0  0  0  0  0  0
    2.7675   -0.6724   -0.9855 H   0  0  0  0  0  0  0  0  0  0  0  0
    1.2876    1.1308    1.6395 H   0  0  0  0  0  0  0  0  0  0  0  0
    2.3839    1.1720    0.2712 H   0  0  0  0  0  0  0  0  0  0  0  0
    0.6890    1.4711   -0.0915 H   0  0  0  0  0  0  0  0  0  0  0  0
  1  2  1  0
  2  3  1  0
  3  4  1  0
  4  5  1  0
  5  6  1  0
  6  7  1  0
  7  8  1  0
  7  9  1  0
  4  2  1  0
  7  5  1  0
  9  2  1  0
  1 10  1  0
  1 11  1  0
  1 12  1  0
  3 13  1  0
  3 14  1  0
  4 15  1  0
  5 16  1  0
  6 17  1  0
  6 18  1  0
  8 19  1  0
  8 20  1  0
  8 21  1  0
M  END
