
     RDKit          3D

 21 22  0  0  0  0  0  0  0  0999 V2000
    1.8082   -0.6599    0.5137 C   0  0  0  0  0  0  0  0  0  0  0  0
    0.4866   -0.3408   -0.0983 C   0  0  0  0  0  0  0  0  0  0  0  0
    0.4052    0.8661   -0.9648 C   0  0  0  0  0  0  0  0  0  0  0  0
   -0.3253    1.8974   -0.1382 C   0  0  0  0  0  0  0  0  0  0  0  0
   -0.8095    1.2077    1.0704 C   0  0  0  0  0  0  0  0  0  0  0  0
   -1.2588    1.7398    2.0693 O   0  0  0  0  0  0  0  0  0  0  0  0
   -0.6736   -0.2409    0.9031 C   0  0  0  0  0  0  0  0  0  0  0  0
   -1.5266   -0.8659   -0.1783 C   0  0  0  0  0  0  0  0  0  0  0  0
   -0.2413   -1.5701   -0.6283 C   0  0  0  0  0  0  0  0  0  0  0  0
    2.4725    0.2132    0.3816 H   0  0  0  0  0  0  0  0  0  0  0  0
    2.2710   -1.4964   -0.0397 H   0  0  0  0  0  0  0  0  0  0  0  0
    1.7318   -0.8841    1.6094 H   0  0  0  0  0  0  0  0  0  0  0  0
    1.4111    1.1759   -1.2708 H   0  0  0  0  0  0  0  0  0  0  0  0
   -0.1726    0.6924   -1.9032 H   0  0  0  0  0  0  0  0  0  0  0  0
   -1.1443    2.3482   -0.7213 H   0  0  0  0  0  0  0  0  0  0  0  0
    0.3769    2.7195    0.1201 H   0  0  0  0  0  0  0  0  0  0  0  0
   -0.5583   -0.8607    1.7877 H   0  0  0  0  0  0  0  0  0  0  0  0
   -2.2469   -1.6165    0.1382 H   0  0  0  0  0  0  0  0  0  0  0  0
   -1.8351   -0.1729   -0.9710 H   0  0  0  0  0  0  0  0  0  0  0  0
   -0.0175   -2.4308    0.0253 H   0  0  0  0  0  0  0  0  0  0  0  0
   -0.1532   -1.7213   -1.7049 H   0  0  0  0  0  0  0  0  0  0  0  0
  1  2  1  0
  2  3  1  0
  3  4  1  0
  4  5  1  0
  5  6  2  0
  5  7  1  0
  7  8  1  0
  8  9  1  0
  7  2  1  0
  9  2  1  0
  1 10  1  0
  1 11  1  0
  1 12  1  0
  3 13  1  0
  3 14  1  0
  4 15  1  0
  4 16  1  0
  7 17  1  0
  8 18  1  0
  8 19  1  0
  9 20  1  0
  9 21  1  0
M  END
