
     RDKit          3D

 17 18  0  0  0  0  0  0  0  0999 V2000
   -1.4701   -1.0712    0.3101 C   0  0  0  0  0  0  0  0  0  0  0  0
   -0.4678   -0.1692    0.0910 C   0  0  0  0  0  0  0  0  0  0  0  0
   -0.5613    1.2367   -0.4146 C   0  0  0  0  0  0  0  0  0  0  0  0
    0.9115    1.0367   -0.2056 C   0  0  0  0  0  0  0  0  0  0  0  0
    0.5340    0.3604    1.0881 C   0  0  0  0  0  0  0  0  0  0  0  0
    0.7106   -0.3084   -0.8434 C   0  0  0  0  0  0  0  0  0  0  0  0
    1.5950   -1.2973   -0.4415 O   0  0  0  0  0  0  0  0  0  0  0  0
   -1.6208   -1.8224   -0.5116 H   0  0  0  0  0  0  0  0  0  0  0  0
   -1.3296   -1.7122    1.2272 H   0  0  0  0  0  0  0  0  0  0  0  0
   -2.4867   -0.6238    0.4546 H   0  0  0  0  0  0  0  0  0  0  0  0
   -0.8229    1.2450   -1.5013 H   0  0  0  0  0  0  0  0  0  0  0  0
   -1.0532    1.9755    0.2146 H   0  0  0  0  0  0  0  0  0  0  0  0
    1.6516    1.6865   -0.3580 H   0  0  0  0  0  0  0  0  0  0  0  0
    1.3155   -0.3650    1.3886 H   0  0  0  0  0  0  0  0  0  0  0  0
    0.1327    1.0152    1.8640 H   0  0  0  0  0  0  0  0  0  0  0  0
    0.4568   -0.2994   -1.9243 H   0  0  0  0  0  0  0  0  0  0  0  0
    2.5045   -0.8872   -0.4378 H   0  0  0  0  0  0  0  0  0  0  0  0
  1  2  1  0
  2  3  1  0
  3  4  1  0
  4  5  1  0
  4  6  1  0
  6  7  1  0
  5  2  1  0
  6  2  1  0
  1  8  1  0
  1  9  1  0
  1 10  1  0
  3 11  1  0
  3 12  1  0
  4 13  1  0
  5 14  1  0
  5 15  1  0
  6 16  1  0
  7 17  1  0
M  END
