
     RDKit          3D

 21 23  0  0  0  0  0  0  0  0999 V2000
    2.2729   -0.8423    0.6209 C   0  0  0  0  0  0  0  0  0  0  0  0
    1.0767   -0.0458    0.2448 C   0  0  0  0  0  0  0  0  0  0  0  0
    0.5045    0.8275    1.3072 C   0  0  0  0  0  0  0  0  0  0  0  0
   -0.8087    0.9389    1.1813 C   0  0  0  0  0  0  0  0  0  0  0  0
   -1.2309    0.1286   -0.0072 C   0  0  0  0  0  0  0  0  0  0  0  0
   -2.6662   -0.1716   -0.2359 C   0  0  0  0  0  0  0  0  0  0  0  0
   -0.3841    0.3184   -1.2211 C   0  0  0  0  0  0  0  0  0  0  0  0
    1.0816    0.6366   -1.0797 C   0  0  0  0  0  0  0  0  0  0  0  0
   -0.1398   -0.8044   -0.1889 C   0  0  0  0  0  0  0  0  0  0  0  0
    2.8277   -0.3589    1.4707 H   0  0  0  0  0  0  0  0  0  0  0  0
    2.9269   -0.9999   -0.2594 H   0  0  0  0  0  0  0  0  0  0  0  0
    2.0145   -1.8675    1.0205 H   0  0  0  0  0  0  0  0  0  0  0  0
    1.0883    1.3232    2.1018 H   0  0  0  0  0  0  0  0  0  0  0  0
   -1.4946    1.4998    1.7976 H   0  0  0  0  0  0  0  0  0  0  0  0
   -3.2575   -0.3081    0.6855 H   0  0  0  0  0  0  0  0  0  0  0  0
   -2.7615   -1.0367   -0.9052 H   0  0  0  0  0  0  0  0  0  0  0  0
   -3.1158    0.7090   -0.7799 H   0  0  0  0  0  0  0  0  0  0  0  0
   -0.8044    0.0495   -2.1812 H   0  0  0  0  0  0  0  0  0  0  0  0
    1.3523    1.6949   -1.0802 H   0  0  0  0  0  0  0  0  0  0  0  0
    1.6502    0.0865   -1.8693 H   0  0  0  0  0  0  0  0  0  0  0  0
   -0.1319   -1.7776   -0.6225 H   0  0  0  0  0  0  0  0  0  0  0  0
  1  2  1  0
  2  3  1  0
  3  4  2  0
  4  5  1  0
  5  6  1  0
  5  7  1  0
  7  8  1  0
  7  9  1  0
  8  2  1  0
  9  2  1  0
  9  5  1  0
  1 10  1  0
  1 11  1  0
  1 12  1  0
  3 13  1  0
  4 14  1  0
  6 15  1  0
  6 16  1  0
  6 17  1  0
  7 18  1  0
  8 19  1  0
  8 20  1  0
  9 21  1  0
M  END
