
     RDKit          3D

 19 21  0  0  0  0  0  0  0  0999 V2000
   -1.0050   -1.5644    0.1958 C   0  0  0  0  0  0  0  0  0  0  0  0
   -0.8864   -0.2764   -0.5269 C   0  0  0  0  0  0  0  0  0  0  0  0
   -2.0662    0.3558   -0.9170 O   0  0  0  0  0  0  0  0  0  0  0  0
   -1.8297    1.4712   -0.1239 C   0  0  0  0  0  0  0  0  0  0  0  0
   -0.4579    0.9778    0.1859 C   0  0  0  0  0  0  0  0  0  0  0  0
    0.3555    0.3330   -0.9783 C   0  0  0  0  0  0  0  0  0  0  0  0
    1.7214   -0.0436   -0.5699 C   0  0  0  0  0  0  0  0  0  0  0  0
    2.2615   -0.0220    0.7579 C   0  0  0  0  0  0  0  0  0  0  0  0
    1.8570   -1.3112    0.1352 O   0  0  0  0  0  0  0  0  0  0  0  0
   -0.8409   -1.3816    1.2965 H   0  0  0  0  0  0  0  0  0  0  0  0
   -0.3968   -2.3859   -0.1902 H   0  0  0  0  0  0  0  0  0  0  0  0
   -2.0701   -1.9193    0.1363 H   0  0  0  0  0  0  0  0  0  0  0  0
   -1.8875    2.4441   -0.6549 H   0  0  0  0  0  0  0  0  0  0  0  0
   -2.4881    1.4530    0.7684 H   0  0  0  0  0  0  0  0  0  0  0  0
   -0.1061    0.8255    1.2020 H   0  0  0  0  0  0  0  0  0  0  0  0
    0.2781    0.9688   -1.9040 H   0  0  0  0  0  0  0  0  0  0  0  0
    2.4698   -0.0268   -1.4075 H   0  0  0  0  0  0  0  0  0  0  0  0
    3.3721    0.0294    0.8994 H   0  0  0  0  0  0  0  0  0  0  0  0
    1.7192    0.0726    1.6953 H   0  0  0  0  0  0  0  0  0  0  0  0
  1  2  1  0
  2  3  1  0
  3  4  1  0
  4  5  1  0
  5  6  1  0
  6  7  1  0
  7  8  1  0
  8  9  1  0
  5  2  1  0
  9  7  1  0
  6  2  1  0
  1 10  1  0
  1 11  1  0
  1 12  1  0
  4 13  1  0
  4 14  1  0
  5 15  1  0
  6 16  1  0
  7 17  1  0
  8 18  1  0
  8 19  1  0
M  END
