
     RDKit          3D

 17 20  0  0  0  0  0  0  0  0999 V2000
    1.8127    0.6793    0.3574 C   0  0  0  0  0  0  0  0  0  0  0  0
    0.5529    0.0526    0.3311 C   0  0  0  0  0  0  0  0  0  0  0  0
    0.0764   -1.2561    0.8223 C   0  0  0  0  0  0  0  0  0  0  0  0
   -0.3300   -1.6359   -0.4866 C   0  0  0  0  0  0  0  0  0  0  0  0
   -1.2554   -0.8544    0.5106 C   0  0  0  0  0  0  0  0  0  0  0  0
   -0.7600    0.3821   -0.1318 C   0  0  0  0  0  0  0  0  0  0  0  0
   -1.4244    1.6351   -0.2036 C   0  0  0  0  0  0  0  0  0  0  0  0
   -2.0715    2.0744   -1.1656 O   0  0  0  0  0  0  0  0  0  0  0  0
   -0.0029   -0.3551   -1.0760 C   0  0  0  0  0  0  0  0  0  0  0  0
    2.4115    0.5039   -0.5840 H   0  0  0  0  0  0  0  0  0  0  0  0
    1.7347    1.8045    0.4111 H   0  0  0  0  0  0  0  0  0  0  0  0
    2.4857    0.3383    1.1870 H   0  0  0  0  0  0  0  0  0  0  0  0
    0.4759   -1.8140    1.6346 H   0  0  0  0  0  0  0  0  0  0  0  0
   -0.6807   -2.5310   -0.9160 H   0  0  0  0  0  0  0  0  0  0  0  0
   -2.2120   -1.2535    0.5705 H   0  0  0  0  0  0  0  0  0  0  0  0
   -1.3982    2.3332    0.6531 H   0  0  0  0  0  0  0  0  0  0  0  0
    0.5855   -0.1034   -1.9142 H   0  0  0  0  0  0  0  0  0  0  0  0
  1  2  1  0
  2  3  1  0
  3  4  1  0
  4  5  1  0
  5  6  1  0
  6  7  1  0
  7  8  2  0
  6  9  1  0
  6  2  1  0
  9  2  1  0
  5  3  1  0
  9  4  1  0
  1 10  1  0
  1 11  1  0
  1 12  1  0
  3 13  1  0
  4 14  1  0
  5 15  1  0
  7 16  1  0
  9 17  1  0
M  END
