
     RDKit          3D

 19 22  0  0  0  0  0  0  0  0999 V2000
    2.4384    0.2146    0.2875 C   0  0  0  0  0  0  0  0  0  0  0  0
    0.9378    0.1775    0.2510 C   0  0  0  0  0  0  0  0  0  0  0  0
    0.3258    1.0139    1.1663 O   0  0  0  0  0  0  0  0  0  0  0  0
   -1.0008    1.1328    0.8270 C   0  0  0  0  0  0  0  0  0  0  0  0
   -1.7797   -0.0310    0.3992 C   0  0  0  0  0  0  0  0  0  0  0  0
   -1.1613   -1.3636    0.1113 C   0  0  0  0  0  0  0  0  0  0  0  0
    0.2773   -1.0601   -0.1893 C   0  0  0  0  0  0  0  0  0  0  0  0
    0.1667    0.2422   -0.9934 C   0  0  0  0  0  0  0  0  0  0  0  0
   -1.1339    0.8604   -0.6256 C   0  0  0  0  0  0  0  0  0  0  0  0
    2.8168    1.1223    0.8439 H   0  0  0  0  0  0  0  0  0  0  0  0
    2.8362   -0.6496    0.8535 H   0  0  0  0  0  0  0  0  0  0  0  0
    2.8816    0.2579   -0.7097 H   0  0  0  0  0  0  0  0  0  0  0  0
   -1.5447    2.0026    1.2001 H   0  0  0  0  0  0  0  0  0  0  0  0
   -2.8597   -0.0124    0.5735 H   0  0  0  0  0  0  0  0  0  0  0  0
   -1.6216   -1.7269   -0.8546 H   0  0  0  0  0  0  0  0  0  0  0  0
   -1.3245   -2.1275    0.8664 H   0  0  0  0  0  0  0  0  0  0  0  0
    0.8730   -1.8230   -0.7129 H   0  0  0  0  0  0  0  0  0  0  0  0
    0.5903    0.2897   -1.9936 H   0  0  0  0  0  0  0  0  0  0  0  0
   -1.7176    1.4802   -1.3008 H   0  0  0  0  0  0  0  0  0  0  0  0
  1  2  1  0
  2  3  1  0
  3  4  1  0
  4  5  1  0
  5  6  1  0
  6  7  1  0
  7  8  1  0
  8  9  1  0
  7  2  1  0
  8  2  1  0
  9  4  1  0
  9  5  1  0
  1 10  1  0
  1 11  1  0
  1 12  1  0
  4 13  1  0
  5 14  1  0
  6 15  1  0
  6 16  1  0
  7 17  1  0
  8 18  1  0
  9 19  1  0
M  END
