
     RDKit          3D

 20 21  0  0  0  0  0  0  0  0999 V2000
    2.2102   -0.0943    0.4310 C   0  0  0  0  0  0  0  0  0  0  0  0
    0.7643    0.0260    0.0092 C   0  0  0  0  0  0  0  0  0  0  0  0
    0.0804   -1.2930   -0.2355 C   0  0  0  0  0  0  0  0  0  0  0  0
   -1.2829   -1.0889   -0.8227 C   0  0  0  0  0  0  0  0  0  0  0  0
   -2.0528   -0.1585   -0.2559 C   0  0  0  0  0  0  0  0  0  0  0  0
   -1.4393    0.5672    0.9096 C   0  0  0  0  0  0  0  0  0  0  0  0
   -0.1013    1.1058    0.4906 C   0  0  0  0  0  0  0  0  0  0  0  0
    0.3441    1.1470   -0.9027 C   0  0  0  0  0  0  0  0  0  0  0  0
    2.6267    0.8222    0.8501 H   0  0  0  0  0  0  0  0  0  0  0  0
    2.2325   -0.8749    1.2371 H   0  0  0  0  0  0  0  0  0  0  0  0
    2.7754   -0.5066   -0.4312 H   0  0  0  0  0  0  0  0  0  0  0  0
    0.0513   -1.9432    0.6651 H   0  0  0  0  0  0  0  0  0  0  0  0
    0.6969   -1.8409   -0.9825 H   0  0  0  0  0  0  0  0  0  0  0  0
   -1.6350   -1.6726   -1.6759 H   0  0  0  0  0  0  0  0  0  0  0  0
   -3.0448    0.0547   -0.6119 H   0  0  0  0  0  0  0  0  0  0  0  0
   -1.2407   -0.1987    1.7055 H   0  0  0  0  0  0  0  0  0  0  0  0
   -2.1121    1.3077    1.3476 H   0  0  0  0  0  0  0  0  0  0  0  0
    0.2985    1.8774    1.1945 H   0  0  0  0  0  0  0  0  0  0  0  0
    1.1378    1.8630   -1.1560 H   0  0  0  0  0  0  0  0  0  0  0  0
   -0.3091    0.9006   -1.7658 H   0  0  0  0  0  0  0  0  0  0  0  0
  1  2  1  0
  2  3  1  0
  3  4  1  0
  4  5  2  0
  5  6  1  0
  6  7  1  0
  7  8  1  0
  7  2  1  0
  8  2  1  0
  1  9  1  0
  1 10  1  0
  1 11  1  0
  3 12  1  0
  3 13  1  0
  4 14  1  0
  5 15  1  0
  6 16  1  0
  6 17  1  0
  7 18  1  0
  8 19  1  0
  8 20  1  0
M  END
