
     RDKit          3D

 17 18  0  0  0  0  0  0  0  0999 V2000
    1.8491    0.2279   -0.2748 C   0  0  0  0  0  0  0  0  0  0  0  0
    0.4695   -0.2982   -0.0830 C   0  0  0  0  0  0  0  0  0  0  0  0
    0.0763   -0.2847    1.3779 C   0  0  0  0  0  0  0  0  0  0  0  0
   -0.6302    0.9347    1.4981 O   0  0  0  0  0  0  0  0  0  0  0  0
   -1.2215    1.2699    0.3069 C   0  0  0  0  0  0  0  0  0  0  0  0
   -2.0911    2.1411    0.1617 O   0  0  0  0  0  0  0  0  0  0  0  0
   -0.6470    0.4230   -0.7496 C   0  0  0  0  0  0  0  0  0  0  0  0
   -1.1939   -0.9781   -0.8282 C   0  0  0  0  0  0  0  0  0  0  0  0
    0.1346   -1.4422   -0.7804 O   0  0  0  0  0  0  0  0  0  0  0  0
    1.8313    1.2592   -0.6861 H   0  0  0  0  0  0  0  0  0  0  0  0
    2.4398   -0.4650   -0.9159 H   0  0  0  0  0  0  0  0  0  0  0  0
    2.4018    0.2465    0.7081 H   0  0  0  0  0  0  0  0  0  0  0  0
    0.9823   -0.1878    2.0364 H   0  0  0  0  0  0  0  0  0  0  0  0
   -0.4926   -1.1611    1.6865 H   0  0  0  0  0  0  0  0  0  0  0  0
   -0.4810    0.8612   -1.7243 H   0  0  0  0  0  0  0  0  0  0  0  0
   -1.6981   -1.1991   -1.7859 H   0  0  0  0  0  0  0  0  0  0  0  0
   -1.7294   -1.3473    0.0528 H   0  0  0  0  0  0  0  0  0  0  0  0
  1  2  1  0
  2  3  1  0
  3  4  1  0
  4  5  1  0
  5  6  2  0
  5  7  1  0
  7  8  1  0
  8  9  1  0
  7  2  1  0
  9  2  1  0
  1 10  1  0
  1 11  1  0
  1 12  1  0
  3 13  1  0
  3 14  1  0
  7 15  1  0
  8 16  1  0
  8 17  1  0
M  END
