
     RDKit          3D

 17 18  0  0  0  0  0  0  0  0999 V2000
   -2.0953    0.0871    0.4046 C   0  0  0  0  0  0  0  0  0  0  0  0
   -0.6205    0.0438    0.2208 C   0  0  0  0  0  0  0  0  0  0  0  0
   -0.0462   -1.2345   -0.3485 C   0  0  0  0  0  0  0  0  0  0  0  0
    1.0878   -0.8360    0.5532 C   0  0  0  0  0  0  0  0  0  0  0  0
    2.0181    0.1217   -0.1168 C   0  0  0  0  0  0  0  0  0  0  0  0
    1.4242    1.2396   -0.5851 C   0  0  0  0  0  0  0  0  0  0  0  0
   -0.0213    1.2395   -0.4176 C   0  0  0  0  0  0  0  0  0  0  0  0
   -0.7685    2.1693   -0.7736 O   0  0  0  0  0  0  0  0  0  0  0  0
    0.1453   -0.1997    1.3591 O   0  0  0  0  0  0  0  0  0  0  0  0
   -2.5711    0.1605   -0.5823 H   0  0  0  0  0  0  0  0  0  0  0  0
   -2.4067   -0.8174    0.9679 H   0  0  0  0  0  0  0  0  0  0  0  0
   -2.3564    0.9887    0.9707 H   0  0  0  0  0  0  0  0  0  0  0  0
    0.1606   -1.1764   -1.4319 H   0  0  0  0  0  0  0  0  0  0  0  0
   -0.5962   -2.1086   -0.0099 H   0  0  0  0  0  0  0  0  0  0  0  0
    1.6172   -1.6795    1.0511 H   0  0  0  0  0  0  0  0  0  0  0  0
    3.0664   -0.0365   -0.2306 H   0  0  0  0  0  0  0  0  0  0  0  0
    1.9624    2.0383   -1.0312 H   0  0  0  0  0  0  0  0  0  0  0  0
  1  2  1  0
  2  3  1  0
  3  4  1  0
  4  5  1  0
  5  6  2  0
  6  7  1  0
  7  8  2  0
  4  9  1  0
  7  2  1  0
  9  2  1  0
  1 10  1  0
  1 11  1  0
  1 12  1  0
  3 13  1  0
  3 14  1  0
  4 15  1  0
  5 16  1  0
  6 17  1  0
M  END
