
     RDKit          3D

 19 21  0  0  0  0  0  0  0  0999 V2000
    2.1782    0.1952    0.2528 C   0  0  0  0  0  0  0  0  0  0  0  0
    0.6848   -0.0398    0.1386 C   0  0  0  0  0  0  0  0  0  0  0  0
   -0.1529    1.1587    0.4168 C   0  0  0  0  0  0  0  0  0  0  0  0
   -1.6121    0.9642    0.1262 C   0  0  0  0  0  0  0  0  0  0  0  0
   -1.8006   -0.5327   -0.1465 C   0  0  0  0  0  0  0  0  0  0  0  0
   -1.0942   -0.8069   -1.3052 O   0  0  0  0  0  0  0  0  0  0  0  0
    0.2260   -0.9378   -0.9155 C   0  0  0  0  0  0  0  0  0  0  0  0
    0.1420   -1.3378    0.5009 C   0  0  0  0  0  0  0  0  0  0  0  0
   -1.1865   -1.2623    0.8691 O   0  0  0  0  0  0  0  0  0  0  0  0
    2.3868    1.1606    0.7917 H   0  0  0  0  0  0  0  0  0  0  0  0
    2.5641    0.2241   -0.7958 H   0  0  0  0  0  0  0  0  0  0  0  0
    2.6826   -0.6573    0.7647 H   0  0  0  0  0  0  0  0  0  0  0  0
    0.2791    2.0103   -0.1861 H   0  0  0  0  0  0  0  0  0  0  0  0
   -0.0543    1.3995    1.5007 H   0  0  0  0  0  0  0  0  0  0  0  0
   -1.8333    1.4775   -0.8482 H   0  0  0  0  0  0  0  0  0  0  0  0
   -2.2815    1.2830    0.9381 H   0  0  0  0  0  0  0  0  0  0  0  0
   -2.8518   -0.8198   -0.1722 H   0  0  0  0  0  0  0  0  0  0  0  0
    0.9631   -1.3221   -1.6211 H   0  0  0  0  0  0  0  0  0  0  0  0
    0.7607   -2.1566    0.9296 H   0  0  0  0  0  0  0  0  0  0  0  0
  1  2  1  0
  2  3  1  0
  3  4  1  0
  4  5  1  0
  5  6  1  0
  6  7  1  0
  7  8  1  0
  8  9  1  0
  7  2  1  0
  8  2  1  0
  9  5  1  0
  1 10  1  0
  1 11  1  0
  1 12  1  0
  3 13  1  0
  3 14  1  0
  4 15  1  0
  4 16  1  0
  5 17  1  0
  7 18  1  0
  8 19  1  0
M  END
