
     RDKit          3D

 19 21  0  0  0  0  0  0  0  0999 V2000
   -2.1740    0.3889    0.5710 C   0  0  0  0  0  0  0  0  0  0  0  0
   -0.8299    0.0909   -0.0213 C   0  0  0  0  0  0  0  0  0  0  0  0
   -0.6340   -1.1935   -0.7552 C   0  0  0  0  0  0  0  0  0  0  0  0
    0.6945   -1.4912   -0.8091 O   0  0  0  0  0  0  0  0  0  0  0  0
    1.3852   -0.7329    0.0983 C   0  0  0  0  0  0  0  0  0  0  0  0
    2.1164    0.3582   -0.6996 C   0  0  0  0  0  0  0  0  0  0  0  0
    1.0837    1.1589   -1.1274 O   0  0  0  0  0  0  0  0  0  0  0  0
    0.1368    1.2096   -0.0975 C   0  0  0  0  0  0  0  0  0  0  0  0
    0.4005    0.1263    0.8474 C   0  0  0  0  0  0  0  0  0  0  0  0
   -2.8258   -0.5144    0.4577 H   0  0  0  0  0  0  0  0  0  0  0  0
   -2.1405    0.7477    1.6028 H   0  0  0  0  0  0  0  0  0  0  0  0
   -2.6199    1.2315   -0.0333 H   0  0  0  0  0  0  0  0  0  0  0  0
   -1.1230   -1.1990   -1.7545 H   0  0  0  0  0  0  0  0  0  0  0  0
   -1.1335   -1.9981   -0.1385 H   0  0  0  0  0  0  0  0  0  0  0  0
    2.0645   -1.2970    0.7406 H   0  0  0  0  0  0  0  0  0  0  0  0
    2.6256   -0.1659   -1.5340 H   0  0  0  0  0  0  0  0  0  0  0  0
    2.8266    0.9086   -0.0550 H   0  0  0  0  0  0  0  0  0  0  0  0
   -0.2091    2.2020    0.1706 H   0  0  0  0  0  0  0  0  0  0  0  0
    0.3559    0.1692    1.9163 H   0  0  0  0  0  0  0  0  0  0  0  0
  1  2  1  0
  2  3  1  0
  3  4  1  0
  4  5  1  0
  5  6  1  0
  6  7  1  0
  7  8  1  0
  8  9  1  0
  8  2  1  0
  9  2  1  0
  9  5  1  0
  1 10  1  0
  1 11  1  0
  1 12  1  0
  3 13  1  0
  3 14  1  0
  5 15  1  0
  6 16  1  0
  6 17  1  0
  8 18  1  0
  9 19  1  0
M  END
