
     RDKit          3D

 21 22  0  0  0  0  0  0  0  0999 V2000
    2.4128   -0.2179   -0.5986 C   0  0  0  0  0  0  0  0  0  0  0  0
    1.0818    0.1801   -0.1831 C   0  0  0  0  0  0  0  0  0  0  0  0
    0.8762    0.4398    1.2924 C   0  0  0  0  0  0  0  0  0  0  0  0
   -0.4677    0.1612    1.5477 O   0  0  0  0  0  0  0  0  0  0  0  0
   -1.0752   -0.0241    0.3089 C   0  0  0  0  0  0  0  0  0  0  0  0
   -2.4086   -0.5968    0.3149 C   0  0  0  0  0  0  0  0  0  0  0  0
   -0.8726    1.2048   -0.5635 C   0  0  0  0  0  0  0  0  0  0  0  0
    0.4983    1.2362   -0.8682 O   0  0  0  0  0  0  0  0  0  0  0  0
   -0.0024   -0.8990   -0.3726 C   0  0  0  0  0  0  0  0  0  0  0  0
    3.0867   -0.5802    0.1768 H   0  0  0  0  0  0  0  0  0  0  0  0
    2.9504    0.6414   -1.0993 H   0  0  0  0  0  0  0  0  0  0  0  0
    2.3401   -0.9914   -1.4177 H   0  0  0  0  0  0  0  0  0  0  0  0
    1.0595    1.5052    1.5470 H   0  0  0  0  0  0  0  0  0  0  0  0
    1.5527   -0.1674    1.9265 H   0  0  0  0  0  0  0  0  0  0  0  0
   -2.9626   -0.2705   -0.6137 H   0  0  0  0  0  0  0  0  0  0  0  0
   -2.4502   -1.7078    0.2877 H   0  0  0  0  0  0  0  0  0  0  0  0
   -3.0001   -0.2106    1.1656 H   0  0  0  0  0  0  0  0  0  0  0  0
   -1.3989    0.9850   -1.5215 H   0  0  0  0  0  0  0  0  0  0  0  0
   -1.2183    2.1246   -0.0895 H   0  0  0  0  0  0  0  0  0  0  0  0
   -0.2118   -1.0151   -1.4319 H   0  0  0  0  0  0  0  0  0  0  0  0
    0.2099   -1.7978    0.1920 H   0  0  0  0  0  0  0  0  0  0  0  0
  1  2  1  0
  2  3  1  0
  3  4  1  0
  4  5  1  0
  5  6  1  0
  5  7  1  0
  7  8  1  0
  5  9  1  0
  8  2  1  0
  9  2  1  0
  1 10  1  0
  1 11  1  0
  1 12  1  0
  3 13  1  0
  3 14  1  0
  6 15  1  0
  6 16  1  0
  6 17  1  0
  7 18  1  0
  7 19  1  0
  9 20  1  0
  9 21  1  0
M  END
