
     RDKit          3D

 18 19  0  0  0  0  0  0  0  0999 V2000
    1.7423   -0.7558    0.5624 C   0  0  0  0  0  0  0  0  0  0  0  0
    0.6619    0.0425   -0.0906 C   0  0  0  0  0  0  0  0  0  0  0  0
   -0.0580   -0.6657   -1.2273 C   0  0  0  0  0  0  0  0  0  0  0  0
   -1.4160   -0.4761   -1.0164 O   0  0  0  0  0  0  0  0  0  0  0  0
   -1.6023   -0.3717    0.3637 C   0  0  0  0  0  0  0  0  0  0  0  0
   -0.4669    0.5023    0.7644 C   0  0  0  0  0  0  0  0  0  0  0  0
   -0.3624    1.6813   -0.2013 C   0  0  0  0  0  0  0  0  0  0  0  0
    0.9759    1.3689   -0.3322 O   0  0  0  0  0  0  0  0  0  0  0  0
    2.3577   -1.2328   -0.2456 H   0  0  0  0  0  0  0  0  0  0  0  0
    2.3898   -0.0580    1.1406 H   0  0  0  0  0  0  0  0  0  0  0  0
    1.3744   -1.5962    1.1842 H   0  0  0  0  0  0  0  0  0  0  0  0
    0.3067   -0.2963   -2.1842 H   0  0  0  0  0  0  0  0  0  0  0  0
    0.1344   -1.7602   -1.1070 H   0  0  0  0  0  0  0  0  0  0  0  0
   -2.6020    0.1131    0.5254 H   0  0  0  0  0  0  0  0  0  0  0  0
   -1.6280   -1.3351    0.8771 H   0  0  0  0  0  0  0  0  0  0  0  0
   -0.2986    0.7209    1.8009 H   0  0  0  0  0  0  0  0  0  0  0  0
   -0.6131    2.6020    0.3417 H   0  0  0  0  0  0  0  0  0  0  0  0
   -0.8959    1.5168   -1.1557 H   0  0  0  0  0  0  0  0  0  0  0  0
  1  2  1  0
  2  3  1  0
  3  4  1  0
  4  5  1  0
  5  6  1  0
  6  7  1  0
  7  8  1  0
  6  2  1  0
  8  2  1  0
  1  9  1  0
  1 10  1  0
  1 11  1  0
  3 12  1  0
  3 13  1  0
  5 14  1  0
  5 15  1  0
  6 16  1  0
  7 17  1  0
  7 18  1  0
M  END
