
     RDKit          3D

 19 21  0  0  0  0  0  0  0  0999 V2000
    2.3867   -0.1503   -0.1307 C   0  0  0  0  0  0  0  0  0  0  0  0
    0.8901    0.0709   -0.1109 C   0  0  0  0  0  0  0  0  0  0  0  0
    0.4870    1.3285    0.1591 O   0  0  0  0  0  0  0  0  0  0  0  0
   -0.8376    1.5811    0.2442 C   0  0  0  0  0  0  0  0  0  0  0  0
   -1.6717    0.4140   -0.2152 C   0  0  0  0  0  0  0  0  0  0  0  0
   -1.3306   -0.7216    0.7580 C   0  0  0  0  0  0  0  0  0  0  0  0
    0.0635   -1.0520    0.2906 C   0  0  0  0  0  0  0  0  0  0  0  0
    0.0697   -0.6172   -1.1213 C   0  0  0  0  0  0  0  0  0  0  0  0
   -1.1350   -0.0254   -1.4245 O   0  0  0  0  0  0  0  0  0  0  0  0
    2.8366   -0.0602   -1.1173 H   0  0  0  0  0  0  0  0  0  0  0  0
    2.8310    0.5713    0.6112 H   0  0  0  0  0  0  0  0  0  0  0  0
    2.6306   -1.1600    0.2972 H   0  0  0  0  0  0  0  0  0  0  0  0
   -1.1814    2.4697   -0.3405 H   0  0  0  0  0  0  0  0  0  0  0  0
   -1.0940    1.8009    1.3119 H   0  0  0  0  0  0  0  0  0  0  0  0
   -2.7365    0.6126   -0.2718 H   0  0  0  0  0  0  0  0  0  0  0  0
   -1.2246   -0.2946    1.7837 H   0  0  0  0  0  0  0  0  0  0  0  0
   -2.0244   -1.5546    0.6874 H   0  0  0  0  0  0  0  0  0  0  0  0
    0.5261   -2.0125    0.5234 H   0  0  0  0  0  0  0  0  0  0  0  0
    0.5145   -1.2008   -1.9344 H   0  0  0  0  0  0  0  0  0  0  0  0
  1  2  1  0
  2  3  1  0
  3  4  1  0
  4  5  1  0
  5  6  1  0
  6  7  1  0
  7  8  1  0
  8  9  1  0
  7  2  1  0
  8  2  1  0
  9  5  1  0
  1 10  1  0
  1 11  1  0
  1 12  1  0
  4 13  1  0
  4 14  1  0
  5 15  1  0
  6 16  1  0
  6 17  1  0
  7 18  1  0
  8 19  1  0
M  END
