
     RDKit          3D

 17 19  0  0  0  0  0  0  0  0999 V2000
    1.7310    0.8579    0.1554 C   0  0  0  0  0  0  0  0  0  0  0  0
    0.5843   -0.0547    0.2117 C   0  0  0  0  0  0  0  0  0  0  0  0
    0.4969   -1.1214   -0.8897 C   0  0  0  0  0  0  0  0  0  0  0  0
   -0.8192   -1.1008   -1.3456 O   0  0  0  0  0  0  0  0  0  0  0  0
   -1.5827   -0.6700   -0.2600 C   0  0  0  0  0  0  0  0  0  0  0  0
   -1.0406   -0.6220    1.1076 C   0  0  0  0  0  0  0  0  0  0  0  0
    0.2881   -0.6751    1.4221 O   0  0  0  0  0  0  0  0  0  0  0  0
   -0.7966    0.4875    0.2029 C   0  0  0  0  0  0  0  0  0  0  0  0
   -1.1760    1.7496    0.2982 O   0  0  0  0  0  0  0  0  0  0  0  0
    1.4873    1.9305    0.2924 H   0  0  0  0  0  0  0  0  0  0  0  0
    2.5328    0.5767    0.8575 H   0  0  0  0  0  0  0  0  0  0  0  0
    2.1955    0.7913   -0.8714 H   0  0  0  0  0  0  0  0  0  0  0  0
    1.2340   -0.9340   -1.6916 H   0  0  0  0  0  0  0  0  0  0  0  0
    0.6593   -2.1419   -0.4650 H   0  0  0  0  0  0  0  0  0  0  0  0
   -2.6554   -0.5809   -0.3746 H   0  0  0  0  0  0  0  0  0  0  0  0
   -1.7484   -0.6287    1.9403 H   0  0  0  0  0  0  0  0  0  0  0  0
   -1.3902    2.1361   -0.5904 H   0  0  0  0  0  0  0  0  0  0  0  0
  1  2  1  0
  2  3  1  0
  3  4  1  0
  4  5  1  0
  5  6  1  0
  6  7  1  0
  6  8  1  0
  8  9  1  0
  7  2  1  0
  8  2  1  0
  8  5  1  0
  1 10  1  0
  1 11  1  0
  1 12  1  0
  3 13  1  0
  3 14  1  0
  5 15  1  0
  6 16  1  0
  9 17  1  0
M  END
