
     RDKit          3D

 19 21  0  0  0  0  0  0  0  0999 V2000
    1.9765    0.3892   -0.5405 C   0  0  0  0  0  0  0  0  0  0  0  0
    0.6138   -0.0698   -0.2909 C   0  0  0  0  0  0  0  0  0  0  0  0
   -0.6110    0.7100   -0.6702 C   0  0  0  0  0  0  0  0  0  0  0  0
   -0.5812    1.2993    0.7418 C   0  0  0  0  0  0  0  0  0  0  0  0
    0.1619    0.0932    1.1965 C   0  0  0  0  0  0  0  0  0  0  0  0
    0.1499   -1.1912    0.4753 C   0  0  0  0  0  0  0  0  0  0  0  0
   -1.2083   -1.5741   -0.1260 C   0  0  0  0  0  0  0  0  0  0  0  0
   -1.6557   -0.3113   -0.7565 C   0  0  0  0  0  0  0  0  0  0  0  0
   -2.7451   -0.1479   -1.2754 O   0  0  0  0  0  0  0  0  0  0  0  0
    1.9523    1.2637   -1.2435 H   0  0  0  0  0  0  0  0  0  0  0  0
    2.5136    0.7612    0.3617 H   0  0  0  0  0  0  0  0  0  0  0  0
    2.6561   -0.3481   -1.0182 H   0  0  0  0  0  0  0  0  0  0  0  0
   -0.5192    1.4341   -1.4779 H   0  0  0  0  0  0  0  0  0  0  0  0
   -1.5713    1.4794    1.1810 H   0  0  0  0  0  0  0  0  0  0  0  0
    0.1047    2.1852    0.7153 H   0  0  0  0  0  0  0  0  0  0  0  0
    0.9439    0.2521    1.9378 H   0  0  0  0  0  0  0  0  0  0  0  0
    0.8031   -1.9767    0.8443 H   0  0  0  0  0  0  0  0  0  0  0  0
   -1.8482   -1.8331    0.7611 H   0  0  0  0  0  0  0  0  0  0  0  0
   -1.1359   -2.4151   -0.8158 H   0  0  0  0  0  0  0  0  0  0  0  0
  1  2  1  0
  2  3  1  0
  3  4  1  0
  4  5  1  0
  5  6  1  0
  6  7  1  0
  7  8  1  0
  8  9  2  0
  5  2  1  0
  6  2  1  0
  8  3  1  0
  1 10  1  0
  1 11  1  0
  1 12  1  0
  3 13  1  0
  4 14  1  0
  4 15  1  0
  5 16  1  0
  6 17  1  0
  7 18  1  0
  7 19  1  0
M  END
