
     RDKit          3D

 21 22  0  0  0  0  0  0  0  0999 V2000
    1.6739    0.0182   -0.9218 C   0  0  0  0  0  0  0  0  0  0  0  0
    0.5109   -0.2383   -0.0324 C   0  0  0  0  0  0  0  0  0  0  0  0
    0.6212    0.5925    1.2083 C   0  0  0  0  0  0  0  0  0  0  0  0
   -0.2491    1.7589    0.8915 C   0  0  0  0  0  0  0  0  0  0  0  0
   -0.9998    1.5228   -0.1668 C   0  0  0  0  0  0  0  0  0  0  0  0
   -0.7603    0.1822   -0.7240 C   0  0  0  0  0  0  0  0  0  0  0  0
   -1.7409   -0.8546   -0.2695 C   0  0  0  0  0  0  0  0  0  0  0  0
   -1.0488   -1.9670    0.1103 O   0  0  0  0  0  0  0  0  0  0  0  0
    0.2638   -1.6509    0.3225 C   0  0  0  0  0  0  0  0  0  0  0  0
    2.5453    0.4181   -0.3440 H   0  0  0  0  0  0  0  0  0  0  0  0
    1.3875    0.8654   -1.6132 H   0  0  0  0  0  0  0  0  0  0  0  0
    1.9511   -0.8216   -1.5706 H   0  0  0  0  0  0  0  0  0  0  0  0
    1.6586    0.8768    1.4432 H   0  0  0  0  0  0  0  0  0  0  0  0
    0.1699    0.0408    2.0780 H   0  0  0  0  0  0  0  0  0  0  0  0
   -0.2318    2.6692    1.4877 H   0  0  0  0  0  0  0  0  0  0  0  0
   -1.7087    2.2300   -0.5783 H   0  0  0  0  0  0  0  0  0  0  0  0
   -0.6037    0.1634   -1.8126 H   0  0  0  0  0  0  0  0  0  0  0  0
   -2.4496   -0.4673    0.4821 H   0  0  0  0  0  0  0  0  0  0  0  0
   -2.3671   -1.1415   -1.1639 H   0  0  0  0  0  0  0  0  0  0  0  0
    0.4817   -1.8255    1.4151 H   0  0  0  0  0  0  0  0  0  0  0  0
    0.8959   -2.3715   -0.2416 H   0  0  0  0  0  0  0  0  0  0  0  0
  1  2  1  0
  2  3  1  0
  3  4  1  0
  4  5  2  0
  5  6  1  0
  6  7  1  0
  7  8  1  0
  8  9  1  0
  6  2  1  0
  9  2  1  0
  1 10  1  0
  1 11  1  0
  1 12  1  0
  3 13  1  0
  3 14  1  0
  4 15  1  0
  5 16  1  0
  6 17  1  0
  7 18  1  0
  7 19  1  0
  9 20  1  0
  9 21  1  0
M  END
