
     RDKit          3D

 17 18  0  0  0  0  0  0  0  0999 V2000
   -1.9863   -0.1211    0.3406 C   0  0  0  0  0  0  0  0  0  0  0  0
   -0.7311    0.1000   -0.4583 C   0  0  0  0  0  0  0  0  0  0  0  0
    0.1487   -1.0683   -0.6879 C   0  0  0  0  0  0  0  0  0  0  0  0
    1.2242   -1.1343    0.3056 C   0  0  0  0  0  0  0  0  0  0  0  0
    1.8272    0.0019    0.6420 C   0  0  0  0  0  0  0  0  0  0  0  0
    1.3520    1.2065   -0.0162 C   0  0  0  0  0  0  0  0  0  0  0  0
    2.1821    2.0823   -0.3590 O   0  0  0  0  0  0  0  0  0  0  0  0
   -0.0875    1.4228   -0.2897 C   0  0  0  0  0  0  0  0  0  0  0  0
   -0.6905    1.0566   -1.4567 O   0  0  0  0  0  0  0  0  0  0  0  0
   -2.6952    0.7303    0.2479 H   0  0  0  0  0  0  0  0  0  0  0  0
   -1.6635   -0.1977    1.4167 H   0  0  0  0  0  0  0  0  0  0  0  0
   -2.4918   -1.0715    0.0760 H   0  0  0  0  0  0  0  0  0  0  0  0
    0.5338   -1.1532   -1.7268 H   0  0  0  0  0  0  0  0  0  0  0  0
   -0.4815   -1.9947   -0.5413 H   0  0  0  0  0  0  0  0  0  0  0  0
    1.5292   -2.0674    0.7592 H   0  0  0  0  0  0  0  0  0  0  0  0
    2.6449    0.0239    1.3799 H   0  0  0  0  0  0  0  0  0  0  0  0
   -0.6147    2.1838    0.3679 H   0  0  0  0  0  0  0  0  0  0  0  0
  1  2  1  0
  2  3  1  0
  3  4  1  0
  4  5  2  0
  5  6  1  0
  6  7  2  0
  6  8  1  0
  8  9  1  0
  8  2  1  0
  9  2  1  0
  1 10  1  0
  1 11  1  0
  1 12  1  0
  3 13  1  0
  3 14  1  0
  4 15  1  0
  5 16  1  0
  8 17  1  0
M  END
