
     RDKit          3D

 21 22  0  0  0  0  0  0  0  0999 V2000
   -1.8025   -0.1740   -1.0346 C   0  0  0  0  0  0  0  0  0  0  0  0
   -0.6608   -0.0739   -0.0098 C   0  0  0  0  0  0  0  0  0  0  0  0
    0.2433   -1.2215   -0.0003 C   0  0  0  0  0  0  0  0  0  0  0  0
    1.6908   -0.9959   -0.1150 C   0  0  0  0  0  0  0  0  0  0  0  0
    2.1097    0.4260   -0.1597 C   0  0  0  0  0  0  0  0  0  0  0  0
    1.3123    1.4475   -0.0717 C   0  0  0  0  0  0  0  0  0  0  0  0
   -0.1236    1.2788    0.0854 C   0  0  0  0  0  0  0  0  0  0  0  0
   -0.5378    1.3733    1.4242 O   0  0  0  0  0  0  0  0  0  0  0  0
   -1.2800    0.2177    1.3604 C   0  0  0  0  0  0  0  0  0  0  0  0
   -2.2065    0.8472   -1.2459 H   0  0  0  0  0  0  0  0  0  0  0  0
   -2.6320   -0.7793   -0.6663 H   0  0  0  0  0  0  0  0  0  0  0  0
   -1.3450   -0.5341   -1.9690 H   0  0  0  0  0  0  0  0  0  0  0  0
   -0.0681   -1.9296   -0.8262 H   0  0  0  0  0  0  0  0  0  0  0  0
    0.0551   -1.8249    0.9371 H   0  0  0  0  0  0  0  0  0  0  0  0
    2.1280   -1.4708   -1.0435 H   0  0  0  0  0  0  0  0  0  0  0  0
    2.2701   -1.4519    0.7440 H   0  0  0  0  0  0  0  0  0  0  0  0
    3.1808    0.6080   -0.2768 H   0  0  0  0  0  0  0  0  0  0  0  0
    1.7250    2.4492   -0.1161 H   0  0  0  0  0  0  0  0  0  0  0  0
   -0.6987    2.0338   -0.5055 H   0  0  0  0  0  0  0  0  0  0  0  0
   -2.3573    0.3480    1.3716 H   0  0  0  0  0  0  0  0  0  0  0  0
   -1.0028   -0.5735    2.1179 H   0  0  0  0  0  0  0  0  0  0  0  0
  1  2  1  0
  2  3  1  0
  3  4  1  0
  4  5  1  0
  5  6  2  0
  6  7  1  0
  7  8  1  0
  8  9  1  0
  7  2  1  0
  9  2  1  0
  1 10  1  0
  1 11  1  0
  1 12  1  0
  3 13  1  0
  3 14  1  0
  4 15  1  0
  4 16  1  0
  5 17  1  0
  6 18  1  0
  7 19  1  0
  9 20  1  0
  9 21  1  0
M  END
