
     RDKit          3D

 19 20  0  0  0  0  0  0  0  0999 V2000
    0.1078    1.8747    0.9706 C   0  0  0  0  0  0  0  0  0  0  0  0
    0.2134    0.6597    0.1225 C   0  0  0  0  0  0  0  0  0  0  0  0
   -1.1091    0.4339   -0.6236 C   0  0  0  0  0  0  0  0  0  0  0  0
   -0.8331   -1.0557   -0.4502 C   0  0  0  0  0  0  0  0  0  0  0  0
   -1.9318   -1.8113   -0.1125 O   0  0  0  0  0  0  0  0  0  0  0  0
    0.0226   -0.6680    0.7619 C   0  0  0  0  0  0  0  0  0  0  0  0
    1.2659   -1.2694    0.7056 O   0  0  0  0  0  0  0  0  0  0  0  0
    1.9043   -0.7145   -0.3830 C   0  0  0  0  0  0  0  0  0  0  0  0
    1.3215    0.5024   -0.6584 O   0  0  0  0  0  0  0  0  0  0  0  0
    1.1129    2.1905    1.3120 H   0  0  0  0  0  0  0  0  0  0  0  0
   -0.5651    1.7365    1.8266 H   0  0  0  0  0  0  0  0  0  0  0  0
   -0.2541    2.7141    0.3063 H   0  0  0  0  0  0  0  0  0  0  0  0
   -1.0046    0.8201   -1.6374 H   0  0  0  0  0  0  0  0  0  0  0  0
   -1.9906    0.7771   -0.0653 H   0  0  0  0  0  0  0  0  0  0  0  0
   -0.2318   -1.4005   -1.3118 H   0  0  0  0  0  0  0  0  0  0  0  0
   -2.3776   -2.0769   -0.9610 H   0  0  0  0  0  0  0  0  0  0  0  0
   -0.4944   -0.7193    1.7212 H   0  0  0  0  0  0  0  0  0  0  0  0
    2.9985   -0.6241   -0.1579 H   0  0  0  0  0  0  0  0  0  0  0  0
    1.8452   -1.3693   -1.2852 H   0  0  0  0  0  0  0  0  0  0  0  0
  1  2  1  0
  2  3  1  0
  3  4  1  0
  4  5  1  0
  4  6  1  0
  6  7  1  0
  7  8  1  0
  8  9  1  0
  6  2  1  0
  9  2  1  0
  1 10  1  0
  1 11  1  0
  1 12  1  0
  3 13  1  0
  3 14  1  0
  4 15  1  0
  5 16  1  0
  6 17  1  0
  8 18  1  0
  8 19  1  0
M  END
