
     RDKit          3D

 17 19  0  0  0  0  0  0  0  0999 V2000
   -1.9000   -0.1890    0.1533 C   0  0  0  0  0  0  0  0  0  0  0  0
   -0.4489    0.0222    0.2103 C   0  0  0  0  0  0  0  0  0  0  0  0
    0.0431    1.4331    0.4728 C   0  0  0  0  0  0  0  0  0  0  0  0
    1.4192    1.3522    0.2654 O   0  0  0  0  0  0  0  0  0  0  0  0
    1.6367    0.3540   -0.7070 C   0  0  0  0  0  0  0  0  0  0  0  0
    1.3186   -1.0133   -0.1410 C   0  0  0  0  0  0  0  0  0  0  0  0
    0.3342   -1.0005    0.9414 C   0  0  0  0  0  0  0  0  0  0  0  0
    0.1948   -1.5679    1.9898 O   0  0  0  0  0  0  0  0  0  0  0  0
    0.3720   -0.3030   -1.0008 C   0  0  0  0  0  0  0  0  0  0  0  0
   -2.0999   -1.1349   -0.4295 H   0  0  0  0  0  0  0  0  0  0  0  0
   -2.3426   -0.3754    1.1528 H   0  0  0  0  0  0  0  0  0  0  0  0
   -2.4078    0.6122   -0.3756 H   0  0  0  0  0  0  0  0  0  0  0  0
   -0.1266    1.7574    1.4993 H   0  0  0  0  0  0  0  0  0  0  0  0
   -0.3500    2.1278   -0.2953 H   0  0  0  0  0  0  0  0  0  0  0  0
    2.4940    0.4285   -1.3720 H   0  0  0  0  0  0  0  0  0  0  0  0
    1.8851   -1.8899   -0.4244 H   0  0  0  0  0  0  0  0  0  0  0  0
   -0.0218   -0.6135   -1.9394 H   0  0  0  0  0  0  0  0  0  0  0  0
  1  2  1  0
  2  3  1  0
  3  4  1  0
  4  5  1  0
  5  6  1  0
  6  7  1  0
  7  8  2  0
  6  9  1  0
  7  2  1  0
  9  2  1  0
  9  5  1  0
  1 10  1  0
  1 11  1  0
  1 12  1  0
  3 13  1  0
  3 14  1  0
  5 15  1  0
  6 16  1  0
  9 17  1  0
M  END
