
     RDKit          3D

 21 23  0  0  0  0  0  0  0  0999 V2000
   -2.1296   -0.8779   -0.3234 C   0  0  0  0  0  0  0  0  0  0  0  0
   -0.9516   -0.0073   -0.1476 C   0  0  0  0  0  0  0  0  0  0  0  0
   -1.1925    1.4403    0.2180 C   0  0  0  0  0  0  0  0  0  0  0  0
   -0.1335    1.8762    0.9593 O   0  0  0  0  0  0  0  0  0  0  0  0
    0.7702    0.8572    1.1395 C   0  0  0  0  0  0  0  0  0  0  0  0
    0.0834   -0.4019    0.8638 C   0  0  0  0  0  0  0  0  0  0  0  0
    1.1298    0.0483   -0.0439 C   0  0  0  0  0  0  0  0  0  0  0  0
    2.5000   -0.5082   -0.1145 C   0  0  0  0  0  0  0  0  0  0  0  0
    0.1536   -0.1236   -1.1931 C   0  0  0  0  0  0  0  0  0  0  0  0
   -3.0489   -0.2232   -0.3540 H   0  0  0  0  0  0  0  0  0  0  0  0
   -2.2675   -1.4900    0.6101 H   0  0  0  0  0  0  0  0  0  0  0  0
   -2.0683   -1.5129   -1.2271 H   0  0  0  0  0  0  0  0  0  0  0  0
   -1.3015    2.0477   -0.7127 H   0  0  0  0  0  0  0  0  0  0  0  0
   -2.1254    1.5054    0.8164 H   0  0  0  0  0  0  0  0  0  0  0  0
    1.4946    0.9141    1.9391 H   0  0  0  0  0  0  0  0  0  0  0  0
    0.0505   -1.2844    1.4560 H   0  0  0  0  0  0  0  0  0  0  0  0
    2.6178   -1.4059    0.5156 H   0  0  0  0  0  0  0  0  0  0  0  0
    3.2110    0.2632    0.2990 H   0  0  0  0  0  0  0  0  0  0  0  0
    2.8709   -0.6833   -1.1604 H   0  0  0  0  0  0  0  0  0  0  0  0
    0.1888   -1.1496   -1.6551 H   0  0  0  0  0  0  0  0  0  0  0  0
    0.1484    0.7155   -1.8852 H   0  0  0  0  0  0  0  0  0  0  0  0
  1  2  1  0
  2  3  1  0
  3  4  1  0
  4  5  1  0
  5  6  1  0
  6  7  1  0
  7  8  1  0
  7  9  1  0
  6  2  1  0
  9  2  1  0
  7  5  1  0
  1 10  1  0
  1 11  1  0
  1 12  1  0
  3 13  1  0
  3 14  1  0
  5 15  1  0
  6 16  1  0
  8 17  1  0
  8 18  1  0
  8 19  1  0
  9 20  1  0
  9 21  1  0
M  END
