
     RDKit          3D

 19 21  0  0  0  0  0  0  0  0999 V2000
    1.8610   -0.9779   -0.6142 C   0  0  0  0  0  0  0  0  0  0  0  0
    0.7162   -0.2566   -0.0207 C   0  0  0  0  0  0  0  0  0  0  0  0
    0.0961   -0.8429    1.1883 C   0  0  0  0  0  0  0  0  0  0  0  0
   -1.1904   -0.5256    1.2348 C   0  0  0  0  0  0  0  0  0  0  0  0
   -1.5371    0.3181    0.0311 C   0  0  0  0  0  0  0  0  0  0  0  0
   -2.8244    0.3974   -0.4011 O   0  0  0  0  0  0  0  0  0  0  0  0
   -0.5615    1.3760   -0.3567 C   0  0  0  0  0  0  0  0  0  0  0  0
    0.8676    1.2424    0.1519 C   0  0  0  0  0  0  0  0  0  0  0  0
   -0.4646    0.0220   -0.8976 C   0  0  0  0  0  0  0  0  0  0  0  0
    2.8155   -0.4759   -0.3333 H   0  0  0  0  0  0  0  0  0  0  0  0
    1.8702   -2.0362   -0.2262 H   0  0  0  0  0  0  0  0  0  0  0  0
    1.8321   -1.0776   -1.7168 H   0  0  0  0  0  0  0  0  0  0  0  0
    0.6355   -1.4383    1.9109 H   0  0  0  0  0  0  0  0  0  0  0  0
   -1.8887   -0.8152    2.0008 H   0  0  0  0  0  0  0  0  0  0  0  0
   -3.4236   -0.1187    0.2010 H   0  0  0  0  0  0  0  0  0  0  0  0
   -0.8865    2.2584   -0.8969 H   0  0  0  0  0  0  0  0  0  0  0  0
    1.6288    1.6684   -0.5265 H   0  0  0  0  0  0  0  0  0  0  0  0
    0.9821    1.5407    1.1991 H   0  0  0  0  0  0  0  0  0  0  0  0
   -0.5281   -0.2586   -1.9279 H   0  0  0  0  0  0  0  0  0  0  0  0
  1  2  1  0
  2  3  1  0
  3  4  2  0
  4  5  1  0
  5  6  1  0
  5  7  1  0
  7  8  1  0
  7  9  1  0
  8  2  1  0
  9  2  1  0
  9  5  1  0
  1 10  1  0
  1 11  1  0
  1 12  1  0
  3 13  1  0
  4 14  1  0
  6 15  1  0
  7 16  1  0
  8 17  1  0
  8 18  1  0
  9 19  1  0
M  END
