
     RDKit          3D

 19 20  0  0  0  0  0  0  0  0999 V2000
   -2.0850    0.2176   -0.4463 C   0  0  0  0  0  0  0  0  0  0  0  0
   -0.8367   -0.0835    0.3422 C   0  0  0  0  0  0  0  0  0  0  0  0
   -0.2254    1.0566    1.0981 C   0  0  0  0  0  0  0  0  0  0  0  0
    1.0801    0.7081    1.3830 O   0  0  0  0  0  0  0  0  0  0  0  0
    1.5335   -0.1119    0.3831 C   0  0  0  0  0  0  0  0  0  0  0  0
    2.4032    0.5946   -0.6016 C   0  0  0  0  0  0  0  0  0  0  0  0
    2.6486    1.7687   -0.4805 O   0  0  0  0  0  0  0  0  0  0  0  0
    0.3331   -0.7404   -0.2853 C   0  0  0  0  0  0  0  0  0  0  0  0
   -0.5678   -1.4848    0.6803 C   0  0  0  0  0  0  0  0  0  0  0  0
   -2.9659    0.1781    0.2242 H   0  0  0  0  0  0  0  0  0  0  0  0
   -2.0736    1.2323   -0.8932 H   0  0  0  0  0  0  0  0  0  0  0  0
   -2.2241   -0.5559   -1.2503 H   0  0  0  0  0  0  0  0  0  0  0  0
   -0.2167    1.9379    0.3932 H   0  0  0  0  0  0  0  0  0  0  0  0
   -0.7459    1.2952    2.0475 H   0  0  0  0  0  0  0  0  0  0  0  0
    2.1222   -0.9641    0.8265 H   0  0  0  0  0  0  0  0  0  0  0  0
    2.8098    0.0258   -1.4302 H   0  0  0  0  0  0  0  0  0  0  0  0
    0.3701   -1.0340   -1.3295 H   0  0  0  0  0  0  0  0  0  0  0  0
   -1.2207   -2.2410    0.2162 H   0  0  0  0  0  0  0  0  0  0  0  0
   -0.1390   -1.7994    1.6512 H   0  0  0  0  0  0  0  0  0  0  0  0
  1  2  1  0
  2  3  1  0
  3  4  1  0
  4  5  1  0
  5  6  1  0
  6  7  2  0
  5  8  1  0
  8  9  1  0
  8  2  1  0
  9  2  1  0
  1 10  1  0
  1 11  1  0
  1 12  1  0
  3 13  1  0
  3 14  1  0
  5 15  1  0
  6 16  1  0
  8 17  1  0
  9 18  1  0
  9 19  1  0
M  END
