
     RDKit          3D

 21 23  0  0  0  0  0  0  0  0999 V2000
   -1.9403    1.1657   -0.3492 C   0  0  0  0  0  0  0  0  0  0  0  0
   -0.7646    0.3475    0.1104 C   0  0  0  0  0  0  0  0  0  0  0  0
   -1.0992   -0.9196    0.8091 C   0  0  0  0  0  0  0  0  0  0  0  0
   -0.4768   -0.9808   -0.5722 C   0  0  0  0  0  0  0  0  0  0  0  0
    1.0312   -1.0036   -0.6681 C   0  0  0  0  0  0  0  0  0  0  0  0
    1.5707   -1.0321    0.7050 C   0  0  0  0  0  0  0  0  0  0  0  0
    1.3374    0.1505    1.2708 C   0  0  0  0  0  0  0  0  0  0  0  0
    0.5788    0.9774    0.2724 C   0  0  0  0  0  0  0  0  0  0  0  0
    1.2715    0.4808   -1.0118 C   0  0  0  0  0  0  0  0  0  0  0  0
   -2.7930    0.5126   -0.5560 H   0  0  0  0  0  0  0  0  0  0  0  0
   -1.7369    1.7772   -1.2308 H   0  0  0  0  0  0  0  0  0  0  0  0
   -2.1843    1.8662    0.5013 H   0  0  0  0  0  0  0  0  0  0  0  0
   -2.1401   -1.2331    0.8957 H   0  0  0  0  0  0  0  0  0  0  0  0
   -0.4198   -1.1665    1.6696 H   0  0  0  0  0  0  0  0  0  0  0  0
   -1.0926   -1.3033   -1.4160 H   0  0  0  0  0  0  0  0  0  0  0  0
    1.4513   -1.6835   -1.3736 H   0  0  0  0  0  0  0  0  0  0  0  0
    2.0699   -1.8743    1.1673 H   0  0  0  0  0  0  0  0  0  0  0  0
    1.6516    0.4239    2.2635 H   0  0  0  0  0  0  0  0  0  0  0  0
    0.6282    2.0301    0.4166 H   0  0  0  0  0  0  0  0  0  0  0  0
    2.3379    0.6805   -1.0062 H   0  0  0  0  0  0  0  0  0  0  0  0
    0.7192    0.7845   -1.8976 H   0  0  0  0  0  0  0  0  0  0  0  0
  1  2  1  0
  2  3  1  0
  3  4  1  0
  4  5  1  0
  5  6  1  0
  6  7  2  0
  7  8  1  0
  8  9  1  0
  4  2  1  0
  9  5  1  0
  8  2  1  0
  1 10  1  0
  1 11  1  0
  1 12  1  0
  3 13  1  0
  3 14  1  0
  4 15  1  0
  5 16  1  0
  6 17  1  0
  7 18  1  0
  8 19  1  0
  9 20  1  0
  9 21  1  0
M  END
