
     RDKit          3D

 19 20  0  0  0  0  0  0  0  0999 V2000
   -1.8693   -0.8706    0.6188 C   0  0  0  0  0  0  0  0  0  0  0  0
   -0.6585   -0.1994   -0.0346 C   0  0  0  0  0  0  0  0  0  0  0  0
    0.3478   -1.0957   -0.6223 C   0  0  0  0  0  0  0  0  0  0  0  0
    1.7501   -0.7864   -0.2926 C   0  0  0  0  0  0  0  0  0  0  0  0
    2.1773    0.3153    0.2652 C   0  0  0  0  0  0  0  0  0  0  0  0
    1.1911    1.3368    0.5957 C   0  0  0  0  0  0  0  0  0  0  0  0
    1.6272    2.4518    0.9801 O   0  0  0  0  0  0  0  0  0  0  0  0
   -0.2450    1.0842    0.4876 C   0  0  0  0  0  0  0  0  0  0  0  0
   -0.9326    1.0721   -0.8387 C   0  0  0  0  0  0  0  0  0  0  0  0
   -2.5456   -0.1322    1.0677 H   0  0  0  0  0  0  0  0  0  0  0  0
   -1.5007   -1.5344    1.4242 H   0  0  0  0  0  0  0  0  0  0  0  0
   -2.3478   -1.5157   -0.1441 H   0  0  0  0  0  0  0  0  0  0  0  0
    0.1700   -2.1574   -0.3523 H   0  0  0  0  0  0  0  0  0  0  0  0
    0.2597   -1.0473   -1.7451 H   0  0  0  0  0  0  0  0  0  0  0  0
    2.4857   -1.5624   -0.5456 H   0  0  0  0  0  0  0  0  0  0  0  0
    3.2377    0.4182    0.4550 H   0  0  0  0  0  0  0  0  0  0  0  0
   -0.8726    1.5353    1.3066 H   0  0  0  0  0  0  0  0  0  0  0  0
   -1.9807    1.3843   -0.9271 H   0  0  0  0  0  0  0  0  0  0  0  0
   -0.2939    1.3034   -1.6985 H   0  0  0  0  0  0  0  0  0  0  0  0
  1  2  1  0
  2  3  1  0
  3  4  1  0
  4  5  2  0
  5  6  1  0
  6  7  2  0
  6  8  1  0
  8  9  1  0
  8  2  1  0
  9  2  1  0
  1 10  1  0
  1 11  1  0
  1 12  1  0
  3 13  1  0
  3 14  1  0
  4 15  1  0
  5 16  1  0
  8 17  1  0
  9 18  1  0
  9 19  1  0
M  END
