
     RDKit          3D

 19 22  0  0  0  0  0  0  0  0999 V2000
   -1.9897    0.4572   -0.6249 C   0  0  0  0  0  0  0  0  0  0  0  0
   -0.7302    0.0112   -0.0161 C   0  0  0  0  0  0  0  0  0  0  0  0
    0.1515    1.0691    0.6525 C   0  0  0  0  0  0  0  0  0  0  0  0
    1.4142    0.9421   -0.1364 C   0  0  0  0  0  0  0  0  0  0  0  0
    1.6102   -0.5348   -0.3312 C   0  0  0  0  0  0  0  0  0  0  0  0
    0.9441   -1.5384    0.5175 C   0  0  0  0  0  0  0  0  0  0  0  0
    0.2832   -1.1829    1.6772 O   0  0  0  0  0  0  0  0  0  0  0  0
   -0.4412   -0.0279    1.4185 C   0  0  0  0  0  0  0  0  0  0  0  0
    0.1808   -0.9922   -0.6250 C   0  0  0  0  0  0  0  0  0  0  0  0
   -2.1925    1.5482   -0.4697 H   0  0  0  0  0  0  0  0  0  0  0  0
   -2.8550   -0.1198   -0.2384 H   0  0  0  0  0  0  0  0  0  0  0  0
   -1.9584    0.2682   -1.7189 H   0  0  0  0  0  0  0  0  0  0  0  0
   -0.3028    2.0706    0.7790 H   0  0  0  0  0  0  0  0  0  0  0  0
    2.2775    1.4461    0.2904 H   0  0  0  0  0  0  0  0  0  0  0  0
    1.2088    1.3682   -1.1619 H   0  0  0  0  0  0  0  0  0  0  0  0
    2.3447   -0.8885   -1.0688 H   0  0  0  0  0  0  0  0  0  0  0  0
    1.2970   -2.5664    0.4383 H   0  0  0  0  0  0  0  0  0  0  0  0
   -1.2055    0.2052    2.1534 H   0  0  0  0  0  0  0  0  0  0  0  0
   -0.0369   -1.5350   -1.5355 H   0  0  0  0  0  0  0  0  0  0  0  0
  1  2  1  0
  2  3  1  0
  3  4  1  0
  4  5  1  0
  5  6  1  0
  6  7  1  0
  7  8  1  0
  6  9  1  0
  8  2  1  0
  9  2  1  0
  8  3  1  0
  9  5  1  0
  1 10  1  0
  1 11  1  0
  1 12  1  0
  3 13  1  0
  4 14  1  0
  4 15  1  0
  5 16  1  0
  6 17  1  0
  8 18  1  0
  9 19  1  0
M  END
