
     RDKit          3D

 21 22  0  0  0  0  0  0  0  0999 V2000
   -2.5933   -0.1269   -0.6512 C   0  0  0  0  0  0  0  0  0  0  0  0
   -1.1771   -0.4464   -0.2879 C   0  0  0  0  0  0  0  0  0  0  0  0
   -0.5837   -1.6277   -0.4174 C   0  0  0  0  0  0  0  0  0  0  0  0
    0.8330   -1.5918    0.0416 C   0  0  0  0  0  0  0  0  0  0  0  0
    0.9565   -0.2062    0.6202 C   0  0  0  0  0  0  0  0  0  0  0  0
    2.3830    0.2728    0.7727 C   0  0  0  0  0  0  0  0  0  0  0  0
    0.1062    0.2174    1.6175 O   0  0  0  0  0  0  0  0  0  0  0  0
   -0.1668    0.4863    0.2834 C   0  0  0  0  0  0  0  0  0  0  0  0
   -0.1653    1.8960   -0.2242 C   0  0  0  0  0  0  0  0  0  0  0  0
   -2.7253    0.9566   -0.5498 H   0  0  0  0  0  0  0  0  0  0  0  0
   -3.3164   -0.6158    0.0500 H   0  0  0  0  0  0  0  0  0  0  0  0
   -2.8565   -0.5090   -1.6578 H   0  0  0  0  0  0  0  0  0  0  0  0
   -1.1296   -2.4987   -0.8247 H   0  0  0  0  0  0  0  0  0  0  0  0
    1.5139   -1.6269   -0.8441 H   0  0  0  0  0  0  0  0  0  0  0  0
    1.0266   -2.3861    0.7625 H   0  0  0  0  0  0  0  0  0  0  0  0
    2.6826    0.9940    0.0052 H   0  0  0  0  0  0  0  0  0  0  0  0
    3.1016   -0.5976    0.7705 H   0  0  0  0  0  0  0  0  0  0  0  0
    2.5538    0.7505    1.7768 H   0  0  0  0  0  0  0  0  0  0  0  0
   -0.0258    1.8414   -1.3410 H   0  0  0  0  0  0  0  0  0  0  0  0
   -1.1276    2.3887   -0.0649 H   0  0  0  0  0  0  0  0  0  0  0  0
    0.7100    2.4292    0.1628 H   0  0  0  0  0  0  0  0  0  0  0  0
  1  2  1  0
  2  3  2  0
  3  4  1  0
  4  5  1  0
  5  6  1  0
  5  7  1  0
  7  8  1  0
  8  9  1  0
  8  2  1  0
  8  5  1  0
  1 10  1  0
  1 11  1  0
  1 12  1  0
  3 13  1  0
  4 14  1  0
  4 15  1  0
  6 16  1  0
  6 17  1  0
  6 18  1  0
  9 19  1  0
  9 20  1  0
  9 21  1  0
M  END
