
     RDKit          3D

 17 18  0  0  0  0  0  0  0  0999 V2000
    2.3300   -0.3346    0.0758 C   0  0  0  0  0  0  0  0  0  0  0  0
    0.8560   -0.2009   -0.0060 C   0  0  0  0  0  0  0  0  0  0  0  0
   -0.0340   -0.7434   -0.8412 C   0  0  0  0  0  0  0  0  0  0  0  0
   -1.3197   -0.1691   -0.3418 C   0  0  0  0  0  0  0  0  0  0  0  0
   -2.4630   -0.4429   -0.9151 O   0  0  0  0  0  0  0  0  0  0  0  0
   -0.8917    1.2941   -0.1477 C   0  0  0  0  0  0  0  0  0  0  0  0
    0.0116    0.6241    0.8909 C   0  0  0  0  0  0  0  0  0  0  0  0
   -1.1291   -0.2770    1.1278 C   0  0  0  0  0  0  0  0  0  0  0  0
   -1.6487   -0.8295    2.0653 O   0  0  0  0  0  0  0  0  0  0  0  0
    2.8090    0.6245    0.3904 H   0  0  0  0  0  0  0  0  0  0  0  0
    2.7907   -0.5765   -0.9138 H   0  0  0  0  0  0  0  0  0  0  0  0
    2.5937   -1.0794    0.8579 H   0  0  0  0  0  0  0  0  0  0  0  0
    0.0941   -1.4184   -1.6671 H   0  0  0  0  0  0  0  0  0  0  0  0
   -2.4472   -1.2563   -1.4836 H   0  0  0  0  0  0  0  0  0  0  0  0
   -0.3125    1.6400   -1.0055 H   0  0  0  0  0  0  0  0  0  0  0  0
   -1.6699    1.9380    0.2590 H   0  0  0  0  0  0  0  0  0  0  0  0
    0.4307    1.2071    1.6546 H   0  0  0  0  0  0  0  0  0  0  0  0
  1  2  1  0
  2  3  2  0
  3  4  1  0
  4  5  1  0
  4  6  1  0
  6  7  1  0
  7  8  1  0
  8  9  2  0
  7  2  1  0
  8  4  1  0
  1 10  1  0
  1 11  1  0
  1 12  1  0
  3 13  1  0
  5 14  1  0
  6 15  1  0
  6 16  1  0
  7 17  1  0
M  END
