
     RDKit          3D

 19 20  0  0  0  0  0  0  0  0999 V2000
    2.5919    0.3547   -0.5953 C   0  0  0  0  0  0  0  0  0  0  0  0
    1.1318    0.1961   -0.3494 C   0  0  0  0  0  0  0  0  0  0  0  0
    0.2848    1.2035   -0.2602 C   0  0  0  0  0  0  0  0  0  0  0  0
   -1.0963    0.9372    0.1867 C   0  0  0  0  0  0  0  0  0  0  0  0
   -0.9537    0.0845    1.3092 O   0  0  0  0  0  0  0  0  0  0  0  0
   -0.8380   -0.9727    0.4445 C   0  0  0  0  0  0  0  0  0  0  0  0
    0.5019   -1.1686   -0.1802 C   0  0  0  0  0  0  0  0  0  0  0  0
   -1.7249   -0.2324   -0.5213 C   0  0  0  0  0  0  0  0  0  0  0  0
   -3.0855   -0.2867   -0.2395 O   0  0  0  0  0  0  0  0  0  0  0  0
    3.0730   -0.6247   -0.4774 H   0  0  0  0  0  0  0  0  0  0  0  0
    2.7995    0.7663   -1.6113 H   0  0  0  0  0  0  0  0  0  0  0  0
    3.0593    1.0744    0.1331 H   0  0  0  0  0  0  0  0  0  0  0  0
    0.5732    2.2043   -0.5028 H   0  0  0  0  0  0  0  0  0  0  0  0
   -1.7317    1.7914    0.4025 H   0  0  0  0  0  0  0  0  0  0  0  0
   -1.3124   -1.8753    0.8812 H   0  0  0  0  0  0  0  0  0  0  0  0
    1.1715   -1.8528    0.3685 H   0  0  0  0  0  0  0  0  0  0  0  0
    0.3526   -1.6051   -1.2065 H   0  0  0  0  0  0  0  0  0  0  0  0
   -1.4273   -0.4015   -1.5575 H   0  0  0  0  0  0  0  0  0  0  0  0
   -3.3698    0.4073    0.4072 H   0  0  0  0  0  0  0  0  0  0  0  0
  1  2  1  0
  2  3  2  0
  3  4  1  0
  4  5  1  0
  5  6  1  0
  6  7  1  0
  6  8  1  0
  8  9  1  0
  7  2  1  0
  8  4  1  0
  1 10  1  0
  1 11  1  0
  1 12  1  0
  3 13  1  0
  4 14  1  0
  6 15  1  0
  7 16  1  0
  7 17  1  0
  8 18  1  0
  9 19  1  0
M  END
