
     RDKit          3D

 17 17  0  0  0  0  0  0  0  0999 V2000
    0.6262   -1.8818   -0.5200 C   0  0  0  0  0  0  0  0  0  0  0  0
   -0.2577   -0.7732   -0.1187 C   0  0  0  0  0  0  0  0  0  0  0  0
   -1.5890   -0.8329   -0.0105 C   0  0  0  0  0  0  0  0  0  0  0  0
   -2.0407    0.5359    0.4247 C   0  0  0  0  0  0  0  0  0  0  0  0
   -0.9135    0.9281    1.1834 O   0  0  0  0  0  0  0  0  0  0  0  0
    0.1020    0.6218    0.2476 C   0  0  0  0  0  0  0  0  0  0  0  0
    1.3779    0.7454    0.7904 O   0  0  0  0  0  0  0  0  0  0  0  0
    2.2540    1.6754    0.2483 C   0  0  0  0  0  0  0  0  0  0  0  0
    1.8511    2.3715   -0.7191 O   0  0  0  0  0  0  0  0  0  0  0  0
    1.6552   -1.5038   -0.6680 H   0  0  0  0  0  0  0  0  0  0  0  0
    0.2897   -2.3179   -1.4978 H   0  0  0  0  0  0  0  0  0  0  0  0
    0.6917   -2.6921    0.2367 H   0  0  0  0  0  0  0  0  0  0  0  0
   -2.2103   -1.6852   -0.1965 H   0  0  0  0  0  0  0  0  0  0  0  0
   -2.9546    0.5125    1.0129 H   0  0  0  0  0  0  0  0  0  0  0  0
   -2.0540    1.1838   -0.4591 H   0  0  0  0  0  0  0  0  0  0  0  0
   -0.0808    1.3193   -0.6046 H   0  0  0  0  0  0  0  0  0  0  0  0
    3.2527    1.7932    0.6505 H   0  0  0  0  0  0  0  0  0  0  0  0
  1  2  1  0
  2  3  2  0
  3  4  1  0
  4  5  1  0
  5  6  1  0
  6  7  1  0
  7  8  1  0
  8  9  2  0
  6  2  1  0
  1 10  1  0
  1 11  1  0
  1 12  1  0
  3 13  1  0
  4 14  1  0
  4 15  1  0
  6 16  1  0
  8 17  1  0
M  END
