
     RDKit          3D

 23 23  0  0  0  0  0  0  0  0999 V2000
   -0.9933    1.9198   -0.8419 C   0  0  0  0  0  0  0  0  0  0  0  0
   -0.0302    0.9351   -0.2748 C   0  0  0  0  0  0  0  0  0  0  0  0
    1.2702    1.1407   -0.1083 C   0  0  0  0  0  0  0  0  0  0  0  0
    1.9202   -0.0721    0.4884 C   0  0  0  0  0  0  0  0  0  0  0  0
    2.4780   -0.8880   -0.4675 O   0  0  0  0  0  0  0  0  0  0  0  0
    0.7104   -0.7235    1.1639 C   0  0  0  0  0  0  0  0  0  0  0  0
   -0.3759   -0.4229    0.1891 C   0  0  0  0  0  0  0  0  0  0  0  0
   -1.7099   -0.4612    0.9183 C   0  0  0  0  0  0  0  0  0  0  0  0
   -0.4626   -1.4201   -0.9399 C   0  0  0  0  0  0  0  0  0  0  0  0
   -1.7318    1.4074   -1.4667 H   0  0  0  0  0  0  0  0  0  0  0  0
   -1.5795    2.4360   -0.0320 H   0  0  0  0  0  0  0  0  0  0  0  0
   -0.4575    2.7394   -1.3717 H   0  0  0  0  0  0  0  0  0  0  0  0
    1.7901    2.0477   -0.3637 H   0  0  0  0  0  0  0  0  0  0  0  0
    2.6244    0.1833    1.2941 H   0  0  0  0  0  0  0  0  0  0  0  0
    2.8481   -0.3542   -1.2206 H   0  0  0  0  0  0  0  0  0  0  0  0
    0.5086   -0.1002    2.0837 H   0  0  0  0  0  0  0  0  0  0  0  0
    0.8673   -1.7749    1.3863 H   0  0  0  0  0  0  0  0  0  0  0  0
   -1.8775   -1.5464    1.1681 H   0  0  0  0  0  0  0  0  0  0  0  0
   -2.4960   -0.2070    0.1660 H   0  0  0  0  0  0  0  0  0  0  0  0
   -1.7036    0.1876    1.7919 H   0  0  0  0  0  0  0  0  0  0  0  0
   -0.7815   -2.3826   -0.4957 H   0  0  0  0  0  0  0  0  0  0  0  0
   -1.2936   -1.0786   -1.5930 H   0  0  0  0  0  0  0  0  0  0  0  0
    0.4756   -1.5652   -1.4738 H   0  0  0  0  0  0  0  0  0  0  0  0
  1  2  1  0
  2  3  2  0
  3  4  1  0
  4  5  1  0
  4  6  1  0
  6  7  1  0
  7  8  1  0
  7  9  1  0
  7  2  1  0
  1 10  1  0
  1 11  1  0
  1 12  1  0
  3 13  1  0
  4 14  1  0
  5 15  1  0
  6 16  1  0
  6 17  1  0
  8 18  1  0
  8 19  1  0
  8 20  1  0
  9 21  1  0
  9 22  1  0
  9 23  1  0
M  END
