
     RDKit          3D

 19 20  0  0  0  0  0  0  0  0999 V2000
    2.0486   -0.2182   -0.3523 C   0  0  0  0  0  0  0  0  0  0  0  0
    0.6883    0.4071   -0.1947 C   0  0  0  0  0  0  0  0  0  0  0  0
    0.4197    1.6648   -0.5181 C   0  0  0  0  0  0  0  0  0  0  0  0
   -1.0229    1.8838   -0.2122 C   0  0  0  0  0  0  0  0  0  0  0  0
   -1.4162    0.7909    0.5486 O   0  0  0  0  0  0  0  0  0  0  0  0
   -0.5232   -0.2273    0.3181 C   0  0  0  0  0  0  0  0  0  0  0  0
   -1.1248   -1.3210   -0.5280 C   0  0  0  0  0  0  0  0  0  0  0  0
   -1.1980   -2.1049    0.6238 O   0  0  0  0  0  0  0  0  0  0  0  0
   -0.3922   -1.2526    1.3793 C   0  0  0  0  0  0  0  0  0  0  0  0
    1.9497   -0.9206   -1.2117 H   0  0  0  0  0  0  0  0  0  0  0  0
    2.3164   -0.7633    0.5705 H   0  0  0  0  0  0  0  0  0  0  0  0
    2.8201    0.5501   -0.5239 H   0  0  0  0  0  0  0  0  0  0  0  0
    1.1181    2.3618   -0.9173 H   0  0  0  0  0  0  0  0  0  0  0  0
   -1.6519    1.8900   -1.1267 H   0  0  0  0  0  0  0  0  0  0  0  0
   -1.1330    2.7883    0.4031 H   0  0  0  0  0  0  0  0  0  0  0  0
   -0.4542   -1.7927   -1.2529 H   0  0  0  0  0  0  0  0  0  0  0  0
   -2.1222   -1.1349   -0.9292 H   0  0  0  0  0  0  0  0  0  0  0  0
   -0.9128   -0.9303    2.3278 H   0  0  0  0  0  0  0  0  0  0  0  0
    0.5905   -1.6709    1.5957 H   0  0  0  0  0  0  0  0  0  0  0  0
  1  2  1  0
  2  3  2  0
  3  4  1  0
  4  5  1  0
  5  6  1  0
  6  7  1  0
  7  8  1  0
  8  9  1  0
  6  2  1  0
  9  6  1  0
  1 10  1  0
  1 11  1  0
  1 12  1  0
  3 13  1  0
  4 14  1  0
  4 15  1  0
  7 16  1  0
  7 17  1  0
  9 18  1  0
  9 19  1  0
M  END
