
     RDKit          3D

 21 21  0  0  0  0  0  0  0  0999 V2000
    2.4665   -0.1369   -0.0364 C   0  0  0  0  0  0  0  0  0  0  0  0
    1.0113    0.0718   -0.2896 C   0  0  0  0  0  0  0  0  0  0  0  0
    0.5806    1.3005   -0.0560 C   0  0  0  0  0  0  0  0  0  0  0  0
   -0.8178    1.8198   -0.2150 C   0  0  0  0  0  0  0  0  0  0  0  0
   -1.6319    0.8522   -0.7451 O   0  0  0  0  0  0  0  0  0  0  0  0
   -1.9550   -0.1622    0.1176 C   0  0  0  0  0  0  0  0  0  0  0  0
   -0.9919   -1.3111    0.1163 C   0  0  0  0  0  0  0  0  0  0  0  0
   -0.4978   -1.5616    1.4090 O   0  0  0  0  0  0  0  0  0  0  0  0
    0.2108   -1.0799   -0.7638 C   0  0  0  0  0  0  0  0  0  0  0  0
    2.7901   -1.1402   -0.3360 H   0  0  0  0  0  0  0  0  0  0  0  0
    2.6433   -0.0085    1.0709 H   0  0  0  0  0  0  0  0  0  0  0  0
    3.0224    0.6767   -0.5233 H   0  0  0  0  0  0  0  0  0  0  0  0
    1.3309    2.0007    0.2881 H   0  0  0  0  0  0  0  0  0  0  0  0
   -0.7729    2.6853   -0.9021 H   0  0  0  0  0  0  0  0  0  0  0  0
   -1.1639    2.2141    0.7604 H   0  0  0  0  0  0  0  0  0  0  0  0
   -2.1118    0.2523    1.1567 H   0  0  0  0  0  0  0  0  0  0  0  0
   -2.9624   -0.5491   -0.1843 H   0  0  0  0  0  0  0  0  0  0  0  0
   -1.4605   -2.2669   -0.2147 H   0  0  0  0  0  0  0  0  0  0  0  0
   -0.3796   -0.7448    1.9244 H   0  0  0  0  0  0  0  0  0  0  0  0
   -0.1268   -0.9137   -1.8145 H   0  0  0  0  0  0  0  0  0  0  0  0
    0.8161   -1.9987   -0.7627 H   0  0  0  0  0  0  0  0  0  0  0  0
  1  2  1  0
  2  3  2  0
  3  4  1  0
  4  5  1  0
  5  6  1  0
  6  7  1  0
  7  8  1  0
  7  9  1  0
  9  2  1  0
  1 10  1  0
  1 11  1  0
  1 12  1  0
  3 13  1  0
  4 14  1  0
  4 15  1  0
  6 16  1  0
  6 17  1  0
  7 18  1  0
  8 19  1  0
  9 20  1  0
  9 21  1  0
M  END
