
     RDKit          3D

 21 22  0  0  0  0  0  0  0  0999 V2000
   -1.8891   -1.4374    0.8343 C   0  0  0  0  0  0  0  0  0  0  0  0
   -1.2231   -0.1966    0.3472 C   0  0  0  0  0  0  0  0  0  0  0  0
   -1.7817    0.7929   -0.3444 C   0  0  0  0  0  0  0  0  0  0  0  0
   -0.7595    1.8655   -0.6417 C   0  0  0  0  0  0  0  0  0  0  0  0
    0.4710    1.0541   -0.5626 C   0  0  0  0  0  0  0  0  0  0  0  0
    1.6613    0.8086   -1.0568 C   0  0  0  0  0  0  0  0  0  0  0  0
    2.3309   -0.3044   -0.3041 C   0  0  0  0  0  0  0  0  0  0  0  0
    1.1391   -1.0441    0.3148 C   0  0  0  0  0  0  0  0  0  0  0  0
    0.2141    0.1236    0.5777 C   0  0  0  0  0  0  0  0  0  0  0  0
   -1.9883   -1.3251    1.9412 H   0  0  0  0  0  0  0  0  0  0  0  0
   -1.3201   -2.3513    0.5959 H   0  0  0  0  0  0  0  0  0  0  0  0
   -2.9104   -1.5231    0.4103 H   0  0  0  0  0  0  0  0  0  0  0  0
   -2.8094    0.8467   -0.6591 H   0  0  0  0  0  0  0  0  0  0  0  0
   -0.9210    2.3042   -1.6473 H   0  0  0  0  0  0  0  0  0  0  0  0
   -0.7464    2.6155    0.1696 H   0  0  0  0  0  0  0  0  0  0  0  0
    2.1521    1.3020   -1.8892 H   0  0  0  0  0  0  0  0  0  0  0  0
    2.8734   -0.9908   -0.9964 H   0  0  0  0  0  0  0  0  0  0  0  0
    2.9914    0.0859    0.4727 H   0  0  0  0  0  0  0  0  0  0  0  0
    1.4196   -1.4645    1.2869 H   0  0  0  0  0  0  0  0  0  0  0  0
    0.6999   -1.7698   -0.3877 H   0  0  0  0  0  0  0  0  0  0  0  0
    0.3962    0.6080    1.5389 H   0  0  0  0  0  0  0  0  0  0  0  0
  1  2  1  0
  2  3  2  0
  3  4  1  0
  4  5  1  0
  5  6  2  0
  6  7  1  0
  7  8  1  0
  8  9  1  0
  9  2  1  0
  9  5  1  0
  1 10  1  0
  1 11  1  0
  1 12  1  0
  3 13  1  0
  4 14  1  0
  4 15  1  0
  6 16  1  0
  7 17  1  0
  7 18  1  0
  8 19  1  0
  8 20  1  0
  9 21  1  0
M  END
