
     RDKit          3D

 19 20  0  0  0  0  0  0  0  0999 V2000
    2.5516    0.2507    0.1498 C   0  0  0  0  0  0  0  0  0  0  0  0
    1.1213   -0.1477   -0.0663 C   0  0  0  0  0  0  0  0  0  0  0  0
    0.4871   -0.9796    0.7431 C   0  0  0  0  0  0  0  0  0  0  0  0
   -0.9016   -1.3344    0.4838 C   0  0  0  0  0  0  0  0  0  0  0  0
   -1.7476   -0.2200    0.0011 C   0  0  0  0  0  0  0  0  0  0  0  0
   -1.5595    1.1885    0.3550 C   0  0  0  0  0  0  0  0  0  0  0  0
   -1.0997    0.6297   -0.9887 C   0  0  0  0  0  0  0  0  0  0  0  0
    0.3521    0.3824   -1.1898 C   0  0  0  0  0  0  0  0  0  0  0  0
    0.9563    0.6071   -2.2819 O   0  0  0  0  0  0  0  0  0  0  0  0
    2.8980   -0.3163    1.0561 H   0  0  0  0  0  0  0  0  0  0  0  0
    2.5659    1.3196    0.4499 H   0  0  0  0  0  0  0  0  0  0  0  0
    3.1684    0.0806   -0.7326 H   0  0  0  0  0  0  0  0  0  0  0  0
    1.0674   -1.3636    1.5890 H   0  0  0  0  0  0  0  0  0  0  0  0
   -1.3700   -1.8815    1.3535 H   0  0  0  0  0  0  0  0  0  0  0  0
   -0.8886   -2.1076   -0.3474 H   0  0  0  0  0  0  0  0  0  0  0  0
   -2.8314   -0.4742   -0.2222 H   0  0  0  0  0  0  0  0  0  0  0  0
   -0.7295    1.4154    1.0844 H   0  0  0  0  0  0  0  0  0  0  0  0
   -2.3645    1.9161    0.4010 H   0  0  0  0  0  0  0  0  0  0  0  0
   -1.6757    1.0351   -1.8377 H   0  0  0  0  0  0  0  0  0  0  0  0
  1  2  1  0
  2  3  2  0
  3  4  1  0
  4  5  1  0
  5  6  1  0
  6  7  1  0
  7  8  1  0
  8  9  2  0
  8  2  1  0
  7  5  1  0
  1 10  1  0
  1 11  1  0
  1 12  1  0
  3 13  1  0
  4 14  1  0
  4 15  1  0
  5 16  1  0
  6 17  1  0
  6 18  1  0
  7 19  1  0
M  END
