
     RDKit          3D

 21 21  0  0  0  0  0  0  0  0999 V2000
    2.9521    0.2485   -0.1379 C   0  0  0  0  0  0  0  0  0  0  0  0
    1.4990   -0.0195    0.0248 C   0  0  0  0  0  0  0  0  0  0  0  0
    0.9533   -0.8703    0.8848 C   0  0  0  0  0  0  0  0  0  0  0  0
   -0.5271   -0.8472    0.7350 C   0  0  0  0  0  0  0  0  0  0  0  0
   -1.1938   -1.0762    1.9253 O   0  0  0  0  0  0  0  0  0  0  0  0
   -0.7336    0.5583    0.2127 C   0  0  0  0  0  0  0  0  0  0  0  0
   -2.0544    0.7166   -0.4835 C   0  0  0  0  0  0  0  0  0  0  0  0
   -2.1751   -0.1356   -1.5748 O   0  0  0  0  0  0  0  0  0  0  0  0
    0.4332    0.6525   -0.7795 C   0  0  0  0  0  0  0  0  0  0  0  0
    3.5625   -0.6794   -0.0001 H   0  0  0  0  0  0  0  0  0  0  0  0
    3.2613    0.9306    0.6890 H   0  0  0  0  0  0  0  0  0  0  0  0
    3.1720    0.7738   -1.0760 H   0  0  0  0  0  0  0  0  0  0  0  0
    1.4751   -1.4960    1.5952 H   0  0  0  0  0  0  0  0  0  0  0  0
   -0.8567   -1.5867   -0.0335 H   0  0  0  0  0  0  0  0  0  0  0  0
   -1.8199   -1.8529    1.8759 H   0  0  0  0  0  0  0  0  0  0  0  0
   -0.5430    1.2956    0.9926 H   0  0  0  0  0  0  0  0  0  0  0  0
   -2.8507    0.4219    0.2334 H   0  0  0  0  0  0  0  0  0  0  0  0
   -2.2454    1.7645   -0.7507 H   0  0  0  0  0  0  0  0  0  0  0  0
   -3.1010   -0.5072   -1.6327 H   0  0  0  0  0  0  0  0  0  0  0  0
    0.6709    1.6806   -1.0461 H   0  0  0  0  0  0  0  0  0  0  0  0
    0.1212    0.0280   -1.6539 H   0  0  0  0  0  0  0  0  0  0  0  0
  1  2  1  0
  2  3  2  0
  3  4  1  0
  4  5  1  0
  4  6  1  0
  6  7  1  0
  7  8  1  0
  6  9  1  0
  9  2  1  0
  1 10  1  0
  1 11  1  0
  1 12  1  0
  3 13  1  0
  4 14  1  0
  5 15  1  0
  6 16  1  0
  7 17  1  0
  7 18  1  0
  8 19  1  0
  9 20  1  0
  9 21  1  0
M  END
