
     RDKit          3D

 21 22  0  0  0  0  0  0  0  0999 V2000
    2.5854    0.9410   -0.0481 C   0  0  0  0  0  0  0  0  0  0  0  0
    1.2628    0.2979    0.1667 C   0  0  0  0  0  0  0  0  0  0  0  0
    0.1514    0.9865   -0.0491 C   0  0  0  0  0  0  0  0  0  0  0  0
   -1.1293    0.2824    0.1854 C   0  0  0  0  0  0  0  0  0  0  0  0
   -2.3210    1.0419   -0.3286 C   0  0  0  0  0  0  0  0  0  0  0  0
   -1.0390   -1.0651   -0.4650 C   0  0  0  0  0  0  0  0  0  0  0  0
    0.0951   -1.8315    0.1332 C   0  0  0  0  0  0  0  0  0  0  0  0
    0.2471   -1.4779    1.5652 O   0  0  0  0  0  0  0  0  0  0  0  0
    1.2151   -1.1214    0.6228 C   0  0  0  0  0  0  0  0  0  0  0  0
    2.9087    0.6880   -1.0791 H   0  0  0  0  0  0  0  0  0  0  0  0
    3.2799    0.4815    0.7087 H   0  0  0  0  0  0  0  0  0  0  0  0
    2.4590    2.0294    0.1097 H   0  0  0  0  0  0  0  0  0  0  0  0
    0.1174    2.0158   -0.3811 H   0  0  0  0  0  0  0  0  0  0  0  0
   -1.2757    0.1762    1.2934 H   0  0  0  0  0  0  0  0  0  0  0  0
   -2.3246    2.0778    0.0429 H   0  0  0  0  0  0  0  0  0  0  0  0
   -2.4655    0.9686   -1.4077 H   0  0  0  0  0  0  0  0  0  0  0  0
   -3.2254    0.5523    0.1382 H   0  0  0  0  0  0  0  0  0  0  0  0
   -0.8366   -0.8763   -1.5595 H   0  0  0  0  0  0  0  0  0  0  0  0
   -1.9825   -1.6246   -0.3689 H   0  0  0  0  0  0  0  0  0  0  0  0
    0.1081   -2.9084   -0.0460 H   0  0  0  0  0  0  0  0  0  0  0  0
    2.1697   -1.6343    0.7671 H   0  0  0  0  0  0  0  0  0  0  0  0
  1  2  1  0
  2  3  2  0
  3  4  1  0
  4  5  1  0
  4  6  1  0
  6  7  1  0
  7  8  1  0
  8  9  1  0
  9  2  1  0
  9  7  1  0
  1 10  1  0
  1 11  1  0
  1 12  1  0
  3 13  1  0
  4 14  1  0
  5 15  1  0
  5 16  1  0
  5 17  1  0
  6 18  1  0
  6 19  1  0
  7 20  1  0
  9 21  1  0
M  END
