
     RDKit          3D

 19 20  0  0  0  0  0  0  0  0999 V2000
   -2.7555   -0.7537   -0.7157 C   0  0  0  0  0  0  0  0  0  0  0  0
   -1.3537   -0.3339   -0.4417 C   0  0  0  0  0  0  0  0  0  0  0  0
   -0.3098   -0.4036   -1.2813 C   0  0  0  0  0  0  0  0  0  0  0  0
    0.9032    0.1066   -0.6464 C   0  0  0  0  0  0  0  0  0  0  0  0
    2.0630   -0.6173   -0.8606 O   0  0  0  0  0  0  0  0  0  0  0  0
    2.7680   -0.5125    0.3517 C   0  0  0  0  0  0  0  0  0  0  0  0
    1.6982   -0.4422    1.3945 C   0  0  0  0  0  0  0  0  0  0  0  0
    0.5932   -0.0796    0.8196 C   0  0  0  0  0  0  0  0  0  0  0  0
   -0.8785    0.2462    0.8770 C   0  0  0  0  0  0  0  0  0  0  0  0
   -2.9551   -0.8280   -1.7826 H   0  0  0  0  0  0  0  0  0  0  0  0
   -3.0192   -1.6984   -0.1723 H   0  0  0  0  0  0  0  0  0  0  0  0
   -3.4879    0.0046   -0.3120 H   0  0  0  0  0  0  0  0  0  0  0  0
   -0.4581   -0.8110   -2.2993 H   0  0  0  0  0  0  0  0  0  0  0  0
    1.0319    1.1900   -0.7857 H   0  0  0  0  0  0  0  0  0  0  0  0
    3.3645    0.4126    0.4113 H   0  0  0  0  0  0  0  0  0  0  0  0
    3.3617   -1.4376    0.4715 H   0  0  0  0  0  0  0  0  0  0  0  0
    1.8121   -0.6524    2.4382 H   0  0  0  0  0  0  0  0  0  0  0  0
   -1.0049    1.3358    0.8050 H   0  0  0  0  0  0  0  0  0  0  0  0
   -1.3731   -0.2269    1.7289 H   0  0  0  0  0  0  0  0  0  0  0  0
  1  2  1  0
  2  3  2  0
  3  4  1  0
  4  5  1  0
  5  6  1  0
  6  7  1  0
  7  8  2  0
  8  9  1  0
  9  2  1  0
  8  4  1  0
  1 10  1  0
  1 11  1  0
  1 12  1  0
  3 13  1  0
  4 14  1  0
  6 15  1  0
  6 16  1  0
  7 17  1  0
  9 18  1  0
  9 19  1  0
M  END
