
     RDKit          3D

 21 22  0  0  0  0  0  0  0  0999 V2000
    2.2597    0.9050    0.2929 C   0  0  0  0  0  0  0  0  0  0  0  0
    0.9064    0.5156   -0.0839 C   0  0  0  0  0  0  0  0  0  0  0  0
   -0.1257    1.3572    0.1578 C   0  0  0  0  0  0  0  0  0  0  0  0
   -1.5601    1.2520   -0.0981 C   0  0  0  0  0  0  0  0  0  0  0  0
   -2.1765   -0.0847    0.0051 C   0  0  0  0  0  0  0  0  0  0  0  0
   -1.5196   -1.1700   -0.4844 O   0  0  0  0  0  0  0  0  0  0  0  0
   -0.3820   -1.4574    0.1740 C   0  0  0  0  0  0  0  0  0  0  0  0
    0.8280   -2.1004   -0.2086 C   0  0  0  0  0  0  0  0  0  0  0  0
    0.7091   -0.7781   -0.7203 C   0  0  0  0  0  0  0  0  0  0  0  0
    2.2147    1.5579    1.1845 H   0  0  0  0  0  0  0  0  0  0  0  0
    2.8158    1.4464   -0.5036 H   0  0  0  0  0  0  0  0  0  0  0  0
    2.8457   -0.0302    0.4843 H   0  0  0  0  0  0  0  0  0  0  0  0
    0.2144    2.2833    0.6331 H   0  0  0  0  0  0  0  0  0  0  0  0
   -2.0798    1.9254    0.6191 H   0  0  0  0  0  0  0  0  0  0  0  0
   -1.7522    1.7246   -1.1073 H   0  0  0  0  0  0  0  0  0  0  0  0
   -3.1745   -0.0395   -0.5210 H   0  0  0  0  0  0  0  0  0  0  0  0
   -2.4493   -0.2818    1.0841 H   0  0  0  0  0  0  0  0  0  0  0  0
   -0.4416   -1.1047    1.2483 H   0  0  0  0  0  0  0  0  0  0  0  0
    0.7803   -2.9531   -0.9232 H   0  0  0  0  0  0  0  0  0  0  0  0
    1.6020   -2.3003    0.5708 H   0  0  0  0  0  0  0  0  0  0  0  0
    0.4853   -0.6672   -1.8035 H   0  0  0  0  0  0  0  0  0  0  0  0
  1  2  1  0
  2  3  2  0
  3  4  1  0
  4  5  1  0
  5  6  1  0
  6  7  1  0
  7  8  1  0
  8  9  1  0
  9  2  1  0
  9  7  1  0
  1 10  1  0
  1 11  1  0
  1 12  1  0
  3 13  1  0
  4 14  1  0
  4 15  1  0
  5 16  1  0
  5 17  1  0
  7 18  1  0
  8 19  1  0
  8 20  1  0
  9 21  1  0
M  END
