
     RDKit          3D

 23 23  0  0  0  0  0  0  0  0999 V2000
   -2.7461   -1.3813    0.0470 C   0  0  0  0  0  0  0  0  0  0  0  0
   -1.4036   -0.7642   -0.1304 C   0  0  0  0  0  0  0  0  0  0  0  0
   -0.2848   -1.3634   -0.5162 C   0  0  0  0  0  0  0  0  0  0  0  0
    0.8541   -0.4083   -0.5742 C   0  0  0  0  0  0  0  0  0  0  0  0
    1.7938   -0.7269    0.5441 C   0  0  0  0  0  0  0  0  0  0  0  0
    2.8786    0.1528    0.5205 O   0  0  0  0  0  0  0  0  0  0  0  0
    0.2166    0.9102   -0.5419 C   0  0  0  0  0  0  0  0  0  0  0  0
    0.9113    1.9932    0.1951 C   0  0  0  0  0  0  0  0  0  0  0  0
   -1.1342    0.6727    0.1128 C   0  0  0  0  0  0  0  0  0  0  0  0
   -2.6990   -2.4695   -0.1114 H   0  0  0  0  0  0  0  0  0  0  0  0
   -3.4057   -0.9329   -0.7210 H   0  0  0  0  0  0  0  0  0  0  0  0
   -3.1116   -1.1529    1.0876 H   0  0  0  0  0  0  0  0  0  0  0  0
   -0.2202   -2.4131   -0.7556 H   0  0  0  0  0  0  0  0  0  0  0  0
    1.3858   -0.5833   -1.5354 H   0  0  0  0  0  0  0  0  0  0  0  0
    2.2291   -1.7423    0.3208 H   0  0  0  0  0  0  0  0  0  0  0  0
    1.3361   -0.7981    1.5258 H   0  0  0  0  0  0  0  0  0  0  0  0
    3.0857    0.4931   -0.3656 H   0  0  0  0  0  0  0  0  0  0  0  0
    0.0490    1.2625   -1.5908 H   0  0  0  0  0  0  0  0  0  0  0  0
    0.1609    2.8247    0.3491 H   0  0  0  0  0  0  0  0  0  0  0  0
    1.7359    2.4774   -0.3846 H   0  0  0  0  0  0  0  0  0  0  0  0
    1.2940    1.7433    1.1776 H   0  0  0  0  0  0  0  0  0  0  0  0
   -1.0643    0.8695    1.1914 H   0  0  0  0  0  0  0  0  0  0  0  0
   -1.8614    1.3370   -0.3864 H   0  0  0  0  0  0  0  0  0  0  0  0
  1  2  1  0
  2  3  2  0
  3  4  1  0
  4  5  1  0
  5  6  1  0
  4  7  1  0
  7  8  1  0
  7  9  1  0
  9  2  1  0
  1 10  1  0
  1 11  1  0
  1 12  1  0
  3 13  1  0
  4 14  1  0
  5 15  1  0
  5 16  1  0
  6 17  1  0
  7 18  1  0
  8 19  1  0
  8 20  1  0
  8 21  1  0
  9 22  1  0
  9 23  1  0
M  END
