
     RDKit          3D

 17 18  0  0  0  0  0  0  0  0999 V2000
    2.3374   -0.3151    0.0069 C   0  0  0  0  0  0  0  0  0  0  0  0
    0.9061    0.1564    0.0203 C   0  0  0  0  0  0  0  0  0  0  0  0
    0.5057    1.4103   -0.0372 C   0  0  0  0  0  0  0  0  0  0  0  0
   -0.9432    1.5034   -0.0027 C   0  0  0  0  0  0  0  0  0  0  0  0
   -1.6160    2.5496   -0.1334 O   0  0  0  0  0  0  0  0  0  0  0  0
   -1.4404    0.1369    0.2137 C   0  0  0  0  0  0  0  0  0  0  0  0
   -2.2562   -0.1501    1.3013 O   0  0  0  0  0  0  0  0  0  0  0  0
   -1.2965   -0.8003   -0.9179 C   0  0  0  0  0  0  0  0  0  0  0  0
   -0.2173   -0.7734    0.1015 C   0  0  0  0  0  0  0  0  0  0  0  0
    2.4090   -1.3130   -0.4337 H   0  0  0  0  0  0  0  0  0  0  0  0
    2.9140    0.3796   -0.6396 H   0  0  0  0  0  0  0  0  0  0  0  0
    2.7706   -0.3268    1.0138 H   0  0  0  0  0  0  0  0  0  0  0  0
    1.1632    2.2887   -0.1031 H   0  0  0  0  0  0  0  0  0  0  0  0
   -2.0506   -1.0487    1.6666 H   0  0  0  0  0  0  0  0  0  0  0  0
   -1.9071   -1.7115   -0.9466 H   0  0  0  0  0  0  0  0  0  0  0  0
   -1.1329   -0.3498   -1.9216 H   0  0  0  0  0  0  0  0  0  0  0  0
   -0.1457   -1.6360    0.8116 H   0  0  0  0  0  0  0  0  0  0  0  0
  1  2  1  0
  2  3  2  0
  3  4  1  0
  4  5  2  0
  4  6  1  0
  6  7  1  0
  6  8  1  0
  8  9  1  0
  9  2  1  0
  9  6  1  0
  1 10  1  0
  1 11  1  0
  1 12  1  0
  3 13  1  0
  7 14  1  0
  8 15  1  0
  8 16  1  0
  9 17  1  0
M  END
