
     RDKit          3D

 19 21  0  0  0  0  0  0  0  0999 V2000
   -2.0270    1.4809    0.1385 C   0  0  0  0  0  0  0  0  0  0  0  0
   -1.0703    0.3676    0.0001 C   0  0  0  0  0  0  0  0  0  0  0  0
   -1.3033   -0.9260    0.1723 C   0  0  0  0  0  0  0  0  0  0  0  0
   -0.0528   -1.7190   -0.0674 C   0  0  0  0  0  0  0  0  0  0  0  0
    1.2199   -1.1667    0.4530 C   0  0  0  0  0  0  0  0  0  0  0  0
    1.2835    0.2751    0.8309 C   0  0  0  0  0  0  0  0  0  0  0  0
    2.5437    0.8057    0.7290 O   0  0  0  0  0  0  0  0  0  0  0  0
    0.3737    0.5575   -0.3720 C   0  0  0  0  0  0  0  0  0  0  0  0
    0.7469   -0.7864   -0.8816 C   0  0  0  0  0  0  0  0  0  0  0  0
   -1.5833    2.2792    0.7657 H   0  0  0  0  0  0  0  0  0  0  0  0
   -2.2794    1.8396   -0.8893 H   0  0  0  0  0  0  0  0  0  0  0  0
   -2.9556    1.1579    0.6601 H   0  0  0  0  0  0  0  0  0  0  0  0
   -2.2385   -1.3844    0.4445 H   0  0  0  0  0  0  0  0  0  0  0  0
   -0.1309   -2.7518   -0.4007 H   0  0  0  0  0  0  0  0  0  0  0  0
    2.0621   -1.8497    0.6391 H   0  0  0  0  0  0  0  0  0  0  0  0
    0.7350    0.5708    1.7448 H   0  0  0  0  0  0  0  0  0  0  0  0
    2.8469    0.8046   -0.2231 H   0  0  0  0  0  0  0  0  0  0  0  0
    0.6123    1.4388   -0.9494 H   0  0  0  0  0  0  0  0  0  0  0  0
    1.2170   -0.9936   -1.8185 H   0  0  0  0  0  0  0  0  0  0  0  0
  1  2  1  0
  2  3  2  0
  3  4  1  0
  4  5  1  0
  5  6  1  0
  6  7  1  0
  6  8  1  0
  8  9  1  0
  8  2  1  0
  9  4  1  0
  9  5  1  0
  1 10  1  0
  1 11  1  0
  1 12  1  0
  3 13  1  0
  4 14  1  0
  5 15  1  0
  6 16  1  0
  7 17  1  0
  8 18  1  0
  9 19  1  0
M  END
