
     RDKit          3D

 19 20  0  0  0  0  0  0  0  0999 V2000
    2.4374   -0.6618   -0.5605 C   0  0  0  0  0  0  0  0  0  0  0  0
    1.1635    0.0002   -0.1101 C   0  0  0  0  0  0  0  0  0  0  0  0
    0.0161   -0.6030    0.0570 C   0  0  0  0  0  0  0  0  0  0  0  0
   -1.1496   -1.5558    0.1577 C   0  0  0  0  0  0  0  0  0  0  0  0
   -2.1060   -0.3385    0.0728 C   0  0  0  0  0  0  0  0  0  0  0  0
   -0.9525    0.4270    0.6102 C   0  0  0  0  0  0  0  0  0  0  0  0
   -0.4572    1.6514   -0.0988 C   0  0  0  0  0  0  0  0  0  0  0  0
    1.0233    1.4459    0.1657 C   0  0  0  0  0  0  0  0  0  0  0  0
    1.8857    2.2633    0.5173 O   0  0  0  0  0  0  0  0  0  0  0  0
    2.5931   -1.6061    0.0408 H   0  0  0  0  0  0  0  0  0  0  0  0
    3.2743    0.0029   -0.3151 H   0  0  0  0  0  0  0  0  0  0  0  0
    2.4137   -0.8915   -1.6321 H   0  0  0  0  0  0  0  0  0  0  0  0
   -1.2951   -2.1917   -0.7371 H   0  0  0  0  0  0  0  0  0  0  0  0
   -1.2087   -2.0886    1.1276 H   0  0  0  0  0  0  0  0  0  0  0  0
   -2.9069   -0.4694    0.8289 H   0  0  0  0  0  0  0  0  0  0  0  0
   -2.4383   -0.1043   -0.9376 H   0  0  0  0  0  0  0  0  0  0  0  0
   -0.8889    0.5519    1.6998 H   0  0  0  0  0  0  0  0  0  0  0  0
   -0.8045    2.5904    0.3220 H   0  0  0  0  0  0  0  0  0  0  0  0
   -0.5996    1.5776   -1.2083 H   0  0  0  0  0  0  0  0  0  0  0  0
  1  2  1  0
  2  3  2  0
  3  4  1  0
  4  5  1  0
  5  6  1  0
  6  7  1  0
  7  8  1  0
  8  9  2  0
  8  2  1  0
  6  3  1  0
  1 10  1  0
  1 11  1  0
  1 12  1  0
  4 13  1  0
  4 14  1  0
  5 15  1  0
  5 16  1  0
  6 17  1  0
  7 18  1  0
  7 19  1  0
M  END
