
     RDKit          3D

 21 21  0  0  0  0  0  0  0  0999 V2000
    2.6323    0.2526   -0.1246 C   0  0  0  0  0  0  0  0  0  0  0  0
    1.1380    0.2531   -0.0444 C   0  0  0  0  0  0  0  0  0  0  0  0
    0.5634    1.4443   -0.1115 C   0  0  0  0  0  0  0  0  0  0  0  0
   -0.8605    1.7947   -0.0639 C   0  0  0  0  0  0  0  0  0  0  0  0
   -1.9355    1.0205   -0.0811 C   0  0  0  0  0  0  0  0  0  0  0  0
   -1.9303   -0.4618   -0.1570 C   0  0  0  0  0  0  0  0  0  0  0  0
   -0.8672   -0.9625    0.7746 C   0  0  0  0  0  0  0  0  0  0  0  0
    0.4813   -1.0785    0.1003 C   0  0  0  0  0  0  0  0  0  0  0  0
    0.3257   -1.6723   -1.1501 O   0  0  0  0  0  0  0  0  0  0  0  0
    3.0557    1.1579    0.3556 H   0  0  0  0  0  0  0  0  0  0  0  0
    2.9586   -0.6261    0.4986 H   0  0  0  0  0  0  0  0  0  0  0  0
    3.0039    0.0776   -1.1371 H   0  0  0  0  0  0  0  0  0  0  0  0
    1.2284    2.3018   -0.2177 H   0  0  0  0  0  0  0  0  0  0  0  0
   -1.1156    2.8446   -0.0049 H   0  0  0  0  0  0  0  0  0  0  0  0
   -2.9069    1.5266   -0.0350 H   0  0  0  0  0  0  0  0  0  0  0  0
   -2.9444   -0.7982    0.1378 H   0  0  0  0  0  0  0  0  0  0  0  0
   -1.7710   -0.7761   -1.2055 H   0  0  0  0  0  0  0  0  0  0  0  0
   -1.1310   -1.9467    1.1828 H   0  0  0  0  0  0  0  0  0  0  0  0
   -0.7400   -0.2423    1.6211 H   0  0  0  0  0  0  0  0  0  0  0  0
    1.1217   -1.6951    0.7661 H   0  0  0  0  0  0  0  0  0  0  0  0
   -0.3066   -2.4140   -1.1039 H   0  0  0  0  0  0  0  0  0  0  0  0
  1  2  1  0
  2  3  2  0
  3  4  1  0
  4  5  2  0
  5  6  1  0
  6  7  1  0
  7  8  1  0
  8  9  1  0
  8  2  1  0
  1 10  1  0
  1 11  1  0
  1 12  1  0
  3 13  1  0
  4 14  1  0
  5 15  1  0
  6 16  1  0
  6 17  1  0
  7 18  1  0
  7 19  1  0
  8 20  1  0
  9 21  1  0
M  END
