
     RDKit          3D

 21 22  0  0  0  0  0  0  0  0999 V2000
    2.5207    0.0640    0.6281 C   0  0  0  0  0  0  0  0  0  0  0  0
    1.1424    0.1081    0.0103 C   0  0  0  0  0  0  0  0  0  0  0  0
    0.3833    1.2097    0.1284 C   0  0  0  0  0  0  0  0  0  0  0  0
   -0.9047    1.0938   -0.5152 C   0  0  0  0  0  0  0  0  0  0  0  0
   -2.2316    0.9636   -0.0684 C   0  0  0  0  0  0  0  0  0  0  0  0
   -1.4327   -0.1736    0.2554 C   0  0  0  0  0  0  0  0  0  0  0  0
   -1.1168   -0.3031    1.5958 O   0  0  0  0  0  0  0  0  0  0  0  0
   -0.8984   -1.2731   -0.5552 C   0  0  0  0  0  0  0  0  0  0  0  0
    0.5886   -1.0476   -0.7410 C   0  0  0  0  0  0  0  0  0  0  0  0
    2.4693   -0.1318    1.7089 H   0  0  0  0  0  0  0  0  0  0  0  0
    3.0484   -0.7975    0.1669 H   0  0  0  0  0  0  0  0  0  0  0  0
    3.0836    0.9756    0.3602 H   0  0  0  0  0  0  0  0  0  0  0  0
    0.7282    2.0848    0.6597 H   0  0  0  0  0  0  0  0  0  0  0  0
   -0.7508    0.9635   -1.6319 H   0  0  0  0  0  0  0  0  0  0  0  0
   -2.6110    1.6287    0.7352 H   0  0  0  0  0  0  0  0  0  0  0  0
   -3.0557    0.8022   -0.8194 H   0  0  0  0  0  0  0  0  0  0  0  0
   -0.4361    0.3213    1.9200 H   0  0  0  0  0  0  0  0  0  0  0  0
   -1.4331   -1.3920   -1.5230 H   0  0  0  0  0  0  0  0  0  0  0  0
   -1.0090   -2.2404    0.0132 H   0  0  0  0  0  0  0  0  0  0  0  0
    1.1717   -1.9583   -0.4870 H   0  0  0  0  0  0  0  0  0  0  0  0
    0.7436   -0.8979   -1.8409 H   0  0  0  0  0  0  0  0  0  0  0  0
  1  2  1  0
  2  3  2  0
  3  4  1  0
  4  5  1  0
  5  6  1  0
  6  7  1  0
  6  8  1  0
  8  9  1  0
  9  2  1  0
  6  4  1  0
  1 10  1  0
  1 11  1  0
  1 12  1  0
  3 13  1  0
  4 14  1  0
  5 15  1  0
  5 16  1  0
  7 17  1  0
  8 18  1  0
  8 19  1  0
  9 20  1  0
  9 21  1  0
M  END
