
     RDKit          3D

 21 22  0  0  0  0  0  0  0  0999 V2000
   -1.6183   -1.7288    0.4806 C   0  0  0  0  0  0  0  0  0  0  0  0
   -0.8869   -0.5126    0.0762 C   0  0  0  0  0  0  0  0  0  0  0  0
    0.4251   -0.5143   -0.0748 C   0  0  0  0  0  0  0  0  0  0  0  0
    1.7162   -1.2114   -0.0405 C   0  0  0  0  0  0  0  0  0  0  0  0
    2.3841    0.1672   -0.0607 C   0  0  0  0  0  0  0  0  0  0  0  0
    1.0638    0.7821   -0.4903 C   0  0  0  0  0  0  0  0  0  0  0  0
    0.5542    1.7508    0.3288 O   0  0  0  0  0  0  0  0  0  0  0  0
   -0.7830    1.9690    0.1507 C   0  0  0  0  0  0  0  0  0  0  0  0
   -1.6120    0.7771   -0.1773 C   0  0  0  0  0  0  0  0  0  0  0  0
   -2.5410   -1.8245   -0.1226 H   0  0  0  0  0  0  0  0  0  0  0  0
   -1.8551   -1.7043    1.5819 H   0  0  0  0  0  0  0  0  0  0  0  0
   -1.0031   -2.6264    0.2651 H   0  0  0  0  0  0  0  0  0  0  0  0
    1.8927   -1.8234   -0.9233 H   0  0  0  0  0  0  0  0  0  0  0  0
    1.9417   -1.7904    0.8814 H   0  0  0  0  0  0  0  0  0  0  0  0
    2.7321    0.4603    0.9436 H   0  0  0  0  0  0  0  0  0  0  0  0
    3.1630    0.1651   -0.8550 H   0  0  0  0  0  0  0  0  0  0  0  0
    1.0539    0.9673   -1.5733 H   0  0  0  0  0  0  0  0  0  0  0  0
   -0.9985    2.7738   -0.6095 H   0  0  0  0  0  0  0  0  0  0  0  0
   -1.1787    2.3940    1.1154 H   0  0  0  0  0  0  0  0  0  0  0  0
   -1.8684    0.7883   -1.2615 H   0  0  0  0  0  0  0  0  0  0  0  0
   -2.5816    0.7412    0.3652 H   0  0  0  0  0  0  0  0  0  0  0  0
  1  2  1  0
  2  3  2  0
  3  4  1  0
  4  5  1  0
  5  6  1  0
  6  7  1  0
  7  8  1  0
  8  9  1  0
  9  2  1  0
  6  3  1  0
  1 10  1  0
  1 11  1  0
  1 12  1  0
  4 13  1  0
  4 14  1  0
  5 15  1  0
  5 16  1  0
  6 17  1  0
  8 18  1  0
  8 19  1  0
  9 20  1  0
  9 21  1  0
M  END
