
     RDKit          3D

 21 22  0  0  0  0  0  0  0  0999 V2000
    2.5776    0.7348    0.8277 C   0  0  0  0  0  0  0  0  0  0  0  0
    1.2125    0.2879    0.4075 C   0  0  0  0  0  0  0  0  0  0  0  0
    0.0930    0.2811    1.0854 C   0  0  0  0  0  0  0  0  0  0  0  0
   -1.0428   -0.2491    0.2854 C   0  0  0  0  0  0  0  0  0  0  0  0
   -2.0768    0.8500    0.1969 C   0  0  0  0  0  0  0  0  0  0  0  0
   -3.1891    0.4875   -0.5231 O   0  0  0  0  0  0  0  0  0  0  0  0
   -0.4668   -0.6101   -1.0513 C   0  0  0  0  0  0  0  0  0  0  0  0
    0.5700   -1.6797   -1.0554 C   0  0  0  0  0  0  0  0  0  0  0  0
    0.9486   -0.2499   -0.9569 C   0  0  0  0  0  0  0  0  0  0  0  0
    2.5314    1.1794    1.8256 H   0  0  0  0  0  0  0  0  0  0  0  0
    2.9296    1.4323    0.0355 H   0  0  0  0  0  0  0  0  0  0  0  0
    3.2048   -0.2024    0.8348 H   0  0  0  0  0  0  0  0  0  0  0  0
   -0.0314    0.6153    2.1127 H   0  0  0  0  0  0  0  0  0  0  0  0
   -1.4628   -1.1331    0.7682 H   0  0  0  0  0  0  0  0  0  0  0  0
   -1.6034    1.7927   -0.1657 H   0  0  0  0  0  0  0  0  0  0  0  0
   -2.3804    1.0711    1.2592 H   0  0  0  0  0  0  0  0  0  0  0  0
   -3.8162   -0.0360    0.0372 H   0  0  0  0  0  0  0  0  0  0  0  0
   -1.0054   -0.3626   -1.9810 H   0  0  0  0  0  0  0  0  0  0  0  0
    0.7186   -2.3380   -0.1729 H   0  0  0  0  0  0  0  0  0  0  0  0
    0.8731   -2.1805   -2.0034 H   0  0  0  0  0  0  0  0  0  0  0  0
    1.4159    0.3095   -1.7664 H   0  0  0  0  0  0  0  0  0  0  0  0
  1  2  1  0
  2  3  2  0
  3  4  1  0
  4  5  1  0
  5  6  1  0
  4  7  1  0
  7  8  1  0
  8  9  1  0
  9  2  1  0
  9  7  1  0
  1 10  1  0
  1 11  1  0
  1 12  1  0
  3 13  1  0
  4 14  1  0
  5 15  1  0
  5 16  1  0
  6 17  1  0
  7 18  1  0
  8 19  1  0
  8 20  1  0
  9 21  1  0
M  END
