
     RDKit          3D

 16 16  0  0  0  0  0  0  0  0999 V2000
    2.1074   -0.3276    0.1132 C   0  0  0  0  0  0  0  0  0  0  0  0
    0.6233   -0.2645    0.0304 C   0  0  0  0  0  0  0  0  0  0  0  0
   -0.1851   -1.3122    0.0257 C   0  0  0  0  0  0  0  0  0  0  0  0
   -1.5968   -0.9062   -0.0660 C   0  0  0  0  0  0  0  0  0  0  0  0
   -1.5742    0.5744   -0.2087 C   0  0  0  0  0  0  0  0  0  0  0  0
   -2.5015    1.3331   -0.4082 O   0  0  0  0  0  0  0  0  0  0  0  0
   -0.1565    0.9893   -0.0587 C   0  0  0  0  0  0  0  0  0  0  0  0
    0.2270    1.7622   -1.1522 O   0  0  0  0  0  0  0  0  0  0  0  0
    2.5701    0.6629    0.2203 H   0  0  0  0  0  0  0  0  0  0  0  0
    2.3652   -0.8820    1.0627 H   0  0  0  0  0  0  0  0  0  0  0  0
    2.5442   -0.9140   -0.7268 H   0  0  0  0  0  0  0  0  0  0  0  0
    0.1323   -2.3542    0.0818 H   0  0  0  0  0  0  0  0  0  0  0  0
   -2.1118   -1.3738   -0.9463 H   0  0  0  0  0  0  0  0  0  0  0  0
   -2.1295   -1.1366    0.8799 H   0  0  0  0  0  0  0  0  0  0  0  0
   -0.0424    1.5186    0.9030 H   0  0  0  0  0  0  0  0  0  0  0  0
   -0.2716    2.6306   -1.0543 H   0  0  0  0  0  0  0  0  0  0  0  0
  1  2  1  0
  2  3  2  0
  3  4  1  0
  4  5  1  0
  5  6  2  0
  5  7  1  0
  7  8  1  0
  7  2  1  0
  1  9  1  0
  1 10  1  0
  1 11  1  0
  3 12  1  0
  4 13  1  0
  4 14  1  0
  7 15  1  0
  8 16  1  0
M  END
