
     RDKit          3D

 20 21  0  0  0  0  0  0  0  0999 V2000
   -1.9436   -1.7013    0.2668 C   0  0  0  0  0  0  0  0  0  0  0  0
   -1.1869   -0.4281    0.2182 C   0  0  0  0  0  0  0  0  0  0  0  0
   -1.7124    0.7288   -0.1139 C   0  0  0  0  0  0  0  0  0  0  0  0
   -0.6932    1.7927   -0.0628 C   0  0  0  0  0  0  0  0  0  0  0  0
    0.6241    1.1439    0.1630 C   0  0  0  0  0  0  0  0  0  0  0  0
    1.1334    0.0162   -0.6191 C   0  0  0  0  0  0  0  0  0  0  0  0
    2.6009   -0.3330   -0.3999 C   0  0  0  0  0  0  0  0  0  0  0  0
    0.2477   -0.3082    0.5370 C   0  0  0  0  0  0  0  0  0  0  0  0
   -2.9820   -1.4758    0.5929 H   0  0  0  0  0  0  0  0  0  0  0  0
   -1.9283   -2.1315   -0.7758 H   0  0  0  0  0  0  0  0  0  0  0  0
   -1.4633   -2.4675    0.9126 H   0  0  0  0  0  0  0  0  0  0  0  0
   -2.7372    0.8841   -0.3849 H   0  0  0  0  0  0  0  0  0  0  0  0
   -0.9353    2.4233    0.8393 H   0  0  0  0  0  0  0  0  0  0  0  0
   -0.6792    2.4392   -0.9571 H   0  0  0  0  0  0  0  0  0  0  0  0
    1.3134    1.6710    0.8533 H   0  0  0  0  0  0  0  0  0  0  0  0
    0.7589   -0.2703   -1.6130 H   0  0  0  0  0  0  0  0  0  0  0  0
    3.1926   -0.2132   -1.3271 H   0  0  0  0  0  0  0  0  0  0  0  0
    3.0530    0.2995    0.3932 H   0  0  0  0  0  0  0  0  0  0  0  0
    2.6891   -1.3876   -0.0120 H   0  0  0  0  0  0  0  0  0  0  0  0
    0.6481   -0.6821    1.4895 H   0  0  0  0  0  0  0  0  0  0  0  0
  1  2  1  0
  2  3  2  0
  3  4  1  0
  4  5  1  0
  5  6  1  0
  6  7  1  0
  6  8  1  0
  8  2  1  0
  8  5  1  0
  1  9  1  0
  1 10  1  0
  1 11  1  0
  3 12  1  0
  4 13  1  0
  4 14  1  0
  5 15  1  0
  6 16  1  0
  7 17  1  0
  7 18  1  0
  7 19  1  0
  8 20  1  0
M  END
