
     RDKit          3D

 22 22  0  0  0  0  0  0  0  0999 V2000
    2.5823   -0.4551   -1.2216 C   0  0  0  0  0  0  0  0  0  0  0  0
    1.2655   -0.0853   -0.5252 C   0  0  0  0  0  0  0  0  0  0  0  0
    0.1381   -0.7378   -0.6257 C   0  0  0  0  0  0  0  0  0  0  0  0
   -0.9390   -0.1344    0.1602 C   0  0  0  0  0  0  0  0  0  0  0  0
   -1.0560   -0.8923    1.4687 C   0  0  0  0  0  0  0  0  0  0  0  0
   -2.2513   -0.0553   -0.5716 C   0  0  0  0  0  0  0  0  0  0  0  0
   -0.3972    1.2505    0.4326 C   0  0  0  0  0  0  0  0  0  0  0  0
    1.0871    1.0805    0.3719 C   0  0  0  0  0  0  0  0  0  0  0  0
    2.3777   -1.0311   -2.1255 H   0  0  0  0  0  0  0  0  0  0  0  0
    3.2415   -0.9700   -0.4891 H   0  0  0  0  0  0  0  0  0  0  0  0
    3.0744    0.5064   -1.4795 H   0  0  0  0  0  0  0  0  0  0  0  0
    0.0560   -1.6474   -1.2527 H   0  0  0  0  0  0  0  0  0  0  0  0
   -1.6375   -1.8297    1.3275 H   0  0  0  0  0  0  0  0  0  0  0  0
   -1.4666   -0.2478    2.2730 H   0  0  0  0  0  0  0  0  0  0  0  0
   -0.0271   -1.1777    1.7929 H   0  0  0  0  0  0  0  0  0  0  0  0
   -2.9604    0.5098    0.0668 H   0  0  0  0  0  0  0  0  0  0  0  0
   -2.0843    0.5217   -1.4924 H   0  0  0  0  0  0  0  0  0  0  0  0
   -2.6731   -1.0481   -0.7359 H   0  0  0  0  0  0  0  0  0  0  0  0
   -0.6931    1.9397   -0.3861 H   0  0  0  0  0  0  0  0  0  0  0  0
   -0.7738    1.6552    1.3800 H   0  0  0  0  0  0  0  0  0  0  0  0
    1.5787    1.9527   -0.1158 H   0  0  0  0  0  0  0  0  0  0  0  0
    1.5580    0.8953    1.3578 H   0  0  0  0  0  0  0  0  0  0  0  0
  1  2  1  0
  2  3  2  0
  3  4  1  0
  4  5  1  0
  4  6  1  0
  4  7  1  0
  7  8  1  0
  8  2  1  0
  1  9  1  0
  1 10  1  0
  1 11  1  0
  3 12  1  0
  5 13  1  0
  5 14  1  0
  5 15  1  0
  6 16  1  0
  6 17  1  0
  6 18  1  0
  7 19  1  0
  7 20  1  0
  8 21  1  0
  8 22  1  0
M  END
