
     RDKit          3D

 19 20  0  0  0  0  0  0  0  0999 V2000
    2.5340   -0.0810   -0.3627 C   0  0  0  0  0  0  0  0  0  0  0  0
    1.1004    0.0164   -0.0027 C   0  0  0  0  0  0  0  0  0  0  0  0
    0.6396    1.2541   -0.0984 C   0  0  0  0  0  0  0  0  0  0  0  0
   -0.7418    1.7091    0.1846 C   0  0  0  0  0  0  0  0  0  0  0  0
   -1.8575    1.0024    0.1163 C   0  0  0  0  0  0  0  0  0  0  0  0
   -1.9403   -0.4297   -0.2706 C   0  0  0  0  0  0  0  0  0  0  0  0
   -0.9822   -1.2922    0.4390 C   0  0  0  0  0  0  0  0  0  0  0  0
   -0.1735   -2.0586   -0.5530 O   0  0  0  0  0  0  0  0  0  0  0  0
    0.3871   -1.1851    0.4015 C   0  0  0  0  0  0  0  0  0  0  0  0
    2.8151   -1.0547   -0.7920 H   0  0  0  0  0  0  0  0  0  0  0  0
    2.8826    0.7498   -0.9991 H   0  0  0  0  0  0  0  0  0  0  0  0
    3.1000    0.0192    0.6103 H   0  0  0  0  0  0  0  0  0  0  0  0
    1.2839    2.0633   -0.4053 H   0  0  0  0  0  0  0  0  0  0  0  0
   -0.8787    2.7458    0.4861 H   0  0  0  0  0  0  0  0  0  0  0  0
   -2.7921    1.5308    0.3690 H   0  0  0  0  0  0  0  0  0  0  0  0
   -3.0092   -0.7341   -0.0607 H   0  0  0  0  0  0  0  0  0  0  0  0
   -1.8820   -0.4572   -1.3864 H   0  0  0  0  0  0  0  0  0  0  0  0
   -1.4703   -2.0047    1.1741 H   0  0  0  0  0  0  0  0  0  0  0  0
    0.9848   -1.7935    1.1502 H   0  0  0  0  0  0  0  0  0  0  0  0
  1  2  1  0
  2  3  2  0
  3  4  1  0
  4  5  2  0
  5  6  1  0
  6  7  1  0
  7  8  1  0
  8  9  1  0
  9  2  1  0
  9  7  1  0
  1 10  1  0
  1 11  1  0
  1 12  1  0
  3 13  1  0
  4 14  1  0
  5 15  1  0
  6 16  1  0
  6 17  1  0
  7 18  1  0
  9 19  1  0
M  END
