
     RDKit          3D

 21 22  0  0  0  0  0  0  0  0999 V2000
   -2.9844    0.1283   -0.4762 C   0  0  0  0  0  0  0  0  0  0  0  0
   -1.5940   -0.0240    0.0307 C   0  0  0  0  0  0  0  0  0  0  0  0
   -0.5788    0.8276    0.0024 C   0  0  0  0  0  0  0  0  0  0  0  0
    0.5738    0.1254    0.6624 C   0  0  0  0  0  0  0  0  0  0  0  0
    1.8131    0.7990    1.0145 C   0  0  0  0  0  0  0  0  0  0  0  0
    1.7518   -0.3248   -0.0462 C   0  0  0  0  0  0  0  0  0  0  0  0
    2.1148    0.1315   -1.4290 C   0  0  0  0  0  0  0  0  0  0  0  0
   -0.1188   -0.7287    1.5509 O   0  0  0  0  0  0  0  0  0  0  0  0
   -1.0779   -1.2462    0.6881 C   0  0  0  0  0  0  0  0  0  0  0  0
   -3.3019   -0.8616   -0.8640 H   0  0  0  0  0  0  0  0  0  0  0  0
   -3.6963    0.4188    0.3248 H   0  0  0  0  0  0  0  0  0  0  0  0
   -3.0427    0.8274   -1.3335 H   0  0  0  0  0  0  0  0  0  0  0  0
   -0.6252    1.8171   -0.4226 H   0  0  0  0  0  0  0  0  0  0  0  0
    2.3000    0.5429    1.9810 H   0  0  0  0  0  0  0  0  0  0  0  0
    1.9917    1.8254    0.6567 H   0  0  0  0  0  0  0  0  0  0  0  0
    2.1902   -1.3025    0.2553 H   0  0  0  0  0  0  0  0  0  0  0  0
    1.4428    0.9637   -1.7042 H   0  0  0  0  0  0  0  0  0  0  0  0
    2.0676   -0.7248   -2.1312 H   0  0  0  0  0  0  0  0  0  0  0  0
    3.1700    0.4915   -1.4117 H   0  0  0  0  0  0  0  0  0  0  0  0
   -1.8632   -1.8191    1.2128 H   0  0  0  0  0  0  0  0  0  0  0  0
   -0.5325   -1.8666   -0.0550 H   0  0  0  0  0  0  0  0  0  0  0  0
  1  2  1  0
  2  3  2  0
  3  4  1  0
  4  5  1  0
  5  6  1  0
  6  7  1  0
  4  8  1  0
  8  9  1  0
  9  2  1  0
  6  4  1  0
  1 10  1  0
  1 11  1  0
  1 12  1  0
  3 13  1  0
  5 14  1  0
  5 15  1  0
  6 16  1  0
  7 17  1  0
  7 18  1  0
  7 19  1  0
  9 20  1  0
  9 21  1  0
M  END
