
     RDKit          3D

 22 22  0  0  0  0  0  0  0  0999 V2000
    2.2031   -1.0407    0.1927 C   0  0  0  0  0  0  0  0  0  0  0  0
    0.8658   -0.4192   -0.1258 C   0  0  0  0  0  0  0  0  0  0  0  0
    0.5315    0.8571   -0.0692 C   0  0  0  0  0  0  0  0  0  0  0  0
    1.3933    2.0030    0.3240 C   0  0  0  0  0  0  0  0  0  0  0  0
   -0.8896    1.0210   -0.4680 C   0  0  0  0  0  0  0  0  0  0  0  0
   -1.4637   -0.3616   -0.5990 C   0  0  0  0  0  0  0  0  0  0  0  0
   -2.3465   -0.6788    0.5925 C   0  0  0  0  0  0  0  0  0  0  0  0
   -0.2788   -1.2727   -0.5669 C   0  0  0  0  0  0  0  0  0  0  0  0
    2.0595   -1.9306    0.8677 H   0  0  0  0  0  0  0  0  0  0  0  0
    2.6252   -1.4540   -0.7438 H   0  0  0  0  0  0  0  0  0  0  0  0
    2.8636   -0.3552    0.7271 H   0  0  0  0  0  0  0  0  0  0  0  0
    1.2670    2.2495    1.4029 H   0  0  0  0  0  0  0  0  0  0  0  0
    2.4560    1.8304    0.0619 H   0  0  0  0  0  0  0  0  0  0  0  0
    1.0823    2.9084   -0.2394 H   0  0  0  0  0  0  0  0  0  0  0  0
   -0.9401    1.6062   -1.4073 H   0  0  0  0  0  0  0  0  0  0  0  0
   -1.4019    1.5506    0.3632 H   0  0  0  0  0  0  0  0  0  0  0  0
   -2.0371   -0.4740   -1.5560 H   0  0  0  0  0  0  0  0  0  0  0  0
   -2.8868    0.2133    0.9388 H   0  0  0  0  0  0  0  0  0  0  0  0
   -1.6498   -0.9643    1.4199 H   0  0  0  0  0  0  0  0  0  0  0  0
   -3.0209   -1.5307    0.3303 H   0  0  0  0  0  0  0  0  0  0  0  0
   -0.4266   -2.1139    0.1470 H   0  0  0  0  0  0  0  0  0  0  0  0
   -0.0054   -1.6438   -1.5926 H   0  0  0  0  0  0  0  0  0  0  0  0
  1  2  1  0
  2  3  2  0
  3  4  1  0
  3  5  1  0
  5  6  1  0
  6  7  1  0
  6  8  1  0
  8  2  1  0
  1  9  1  0
  1 10  1  0
  1 11  1  0
  4 12  1  0
  4 13  1  0
  4 14  1  0
  5 15  1  0
  5 16  1  0
  6 17  1  0
  7 18  1  0
  7 19  1  0
  7 20  1  0
  8 21  1  0
  8 22  1  0
M  END
