
     RDKit          3D

 21 22  0  0  0  0  0  0  0  0999 V2000
    2.6442   -0.5040   -0.2137 C   0  0  0  0  0  0  0  0  0  0  0  0
    1.2041   -0.0774   -0.0217 C   0  0  0  0  0  0  0  0  0  0  0  0
    0.9587    1.2186   -0.1511 C   0  0  0  0  0  0  0  0  0  0  0  0
   -0.3764    1.8693   -0.0072 C   0  0  0  0  0  0  0  0  0  0  0  0
   -1.1829    1.3103   -0.9305 O   0  0  0  0  0  0  0  0  0  0  0  0
   -1.7614    0.1223   -0.7133 C   0  0  0  0  0  0  0  0  0  0  0  0
   -2.1616   -0.3632    0.6505 C   0  0  0  0  0  0  0  0  0  0  0  0
   -1.1045   -1.0504   -0.2766 C   0  0  0  0  0  0  0  0  0  0  0  0
    0.2329   -1.1322    0.2892 C   0  0  0  0  0  0  0  0  0  0  0  0
    3.2423    0.3676   -0.4984 H   0  0  0  0  0  0  0  0  0  0  0  0
    2.6041   -1.2566   -1.0418 H   0  0  0  0  0  0  0  0  0  0  0  0
    2.9509   -1.0164    0.6969 H   0  0  0  0  0  0  0  0  0  0  0  0
    1.8180    1.8564   -0.3836 H   0  0  0  0  0  0  0  0  0  0  0  0
   -0.7160    1.8008    1.0444 H   0  0  0  0  0  0  0  0  0  0  0  0
   -0.2564    2.9591   -0.2140 H   0  0  0  0  0  0  0  0  0  0  0  0
   -2.6177   -0.0269   -1.4535 H   0  0  0  0  0  0  0  0  0  0  0  0
   -3.1085   -0.8910    0.8212 H   0  0  0  0  0  0  0  0  0  0  0  0
   -1.7676    0.1300    1.5551 H   0  0  0  0  0  0  0  0  0  0  0  0
   -1.4921   -2.0532   -0.6446 H   0  0  0  0  0  0  0  0  0  0  0  0
    0.7408   -2.1129    0.0741 H   0  0  0  0  0  0  0  0  0  0  0  0
    0.1491   -1.1504    1.4185 H   0  0  0  0  0  0  0  0  0  0  0  0
  1  2  1  0
  2  3  2  0
  3  4  1  0
  4  5  1  0
  5  6  1  0
  6  7  1  0
  7  8  1  0
  8  9  1  0
  9  2  1  0
  8  6  1  0
  1 10  1  0
  1 11  1  0
  1 12  1  0
  3 13  1  0
  4 14  1  0
  4 15  1  0
  6 16  1  0
  7 17  1  0
  7 18  1  0
  8 19  1  0
  9 20  1  0
  9 21  1  0
M  END
