
     RDKit          3D

 21 22  0  0  0  0  0  0  0  0999 V2000
    2.8685   -0.3737    0.2707 C   0  0  0  0  0  0  0  0  0  0  0  0
    1.4507    0.0233    0.1026 C   0  0  0  0  0  0  0  0  0  0  0  0
    1.0258    1.2728    0.1720 C   0  0  0  0  0  0  0  0  0  0  0  0
   -0.4290    1.3792   -0.0324 C   0  0  0  0  0  0  0  0  0  0  0  0
   -0.8654   -0.0521   -0.1048 C   0  0  0  0  0  0  0  0  0  0  0  0
   -1.9535   -0.3668    0.8459 C   0  0  0  0  0  0  0  0  0  0  0  0
   -2.8631    0.1659   -0.0993 O   0  0  0  0  0  0  0  0  0  0  0  0
   -1.9763   -0.3293   -1.0849 C   0  0  0  0  0  0  0  0  0  0  0  0
    0.3273   -0.9156   -0.1636 C   0  0  0  0  0  0  0  0  0  0  0  0
    2.9837   -1.4628    0.2704 H   0  0  0  0  0  0  0  0  0  0  0  0
    3.1906    0.0030    1.2687 H   0  0  0  0  0  0  0  0  0  0  0  0
    3.4410    0.1208   -0.5530 H   0  0  0  0  0  0  0  0  0  0  0  0
    1.6578    2.1545    0.3592 H   0  0  0  0  0  0  0  0  0  0  0  0
   -0.8788    1.8658    0.8569 H   0  0  0  0  0  0  0  0  0  0  0  0
   -0.7017    1.9100   -0.9644 H   0  0  0  0  0  0  0  0  0  0  0  0
   -1.8965    0.2244    1.7838 H   0  0  0  0  0  0  0  0  0  0  0  0
   -2.2151   -1.4333    0.9916 H   0  0  0  0  0  0  0  0  0  0  0  0
   -1.9275    0.2901   -1.9904 H   0  0  0  0  0  0  0  0  0  0  0  0
   -2.0683   -1.4201   -1.2446 H   0  0  0  0  0  0  0  0  0  0  0  0
    0.4716   -1.3003   -1.2115 H   0  0  0  0  0  0  0  0  0  0  0  0
    0.3580   -1.7559    0.5271 H   0  0  0  0  0  0  0  0  0  0  0  0
  1  2  1  0
  2  3  2  0
  3  4  1  0
  4  5  1  0
  5  6  1  0
  6  7  1  0
  7  8  1  0
  5  9  1  0
  9  2  1  0
  8  5  1  0
  1 10  1  0
  1 11  1  0
  1 12  1  0
  3 13  1  0
  4 14  1  0
  4 15  1  0
  6 16  1  0
  6 17  1  0
  8 18  1  0
  8 19  1  0
  9 20  1  0
  9 21  1  0
M  END
