
     RDKit          3D

 19 21  0  0  0  0  0  0  0  0999 V2000
    2.4319   -0.1498    0.2266 C   0  0  0  0  0  0  0  0  0  0  0  0
    0.9599   -0.2885    0.1093 C   0  0  0  0  0  0  0  0  0  0  0  0
    0.2651   -1.3862   -0.1640 C   0  0  0  0  0  0  0  0  0  0  0  0
   -1.1236   -1.0417   -0.1810 C   0  0  0  0  0  0  0  0  0  0  0  0
   -2.1778   -0.8331    0.7112 C   0  0  0  0  0  0  0  0  0  0  0  0
   -1.0527   -0.0813    1.0526 C   0  0  0  0  0  0  0  0  0  0  0  0
   -0.0771    0.7982    0.3361 C   0  0  0  0  0  0  0  0  0  0  0  0
   -0.3575    1.8925   -0.3985 C   0  0  0  0  0  0  0  0  0  0  0  0
    0.3236    1.9553    0.9419 O   0  0  0  0  0  0  0  0  0  0  0  0
    2.8882   -0.9751    0.8319 H   0  0  0  0  0  0  0  0  0  0  0  0
    2.9282   -0.1086   -0.7738 H   0  0  0  0  0  0  0  0  0  0  0  0
    2.6579    0.8490    0.6971 H   0  0  0  0  0  0  0  0  0  0  0  0
    0.7793   -2.3488   -0.3318 H   0  0  0  0  0  0  0  0  0  0  0  0
   -1.3108   -0.5398   -1.1938 H   0  0  0  0  0  0  0  0  0  0  0  0
   -2.5017   -1.7119    1.3422 H   0  0  0  0  0  0  0  0  0  0  0  0
   -3.1116   -0.2795    0.4066 H   0  0  0  0  0  0  0  0  0  0  0  0
   -0.4959   -0.4811    1.9621 H   0  0  0  0  0  0  0  0  0  0  0  0
    0.3184    2.3317   -1.1869 H   0  0  0  0  0  0  0  0  0  0  0  0
   -1.3437    2.3986   -0.3645 H   0  0  0  0  0  0  0  0  0  0  0  0
  1  2  1  0
  2  3  2  0
  3  4  1  0
  4  5  1  0
  5  6  1  0
  6  7  1  0
  7  8  1  0
  8  9  1  0
  7  2  1  0
  6  4  1  0
  9  7  1  0
  1 10  1  0
  1 11  1  0
  1 12  1  0
  3 13  1  0
  4 14  1  0
  5 15  1  0
  5 16  1  0
  6 17  1  0
  8 18  1  0
  8 19  1  0
M  END
