
     RDKit          3D

 19 20  0  0  0  0  0  0  0  0999 V2000
    2.3598    0.3366    0.5036 C   0  0  0  0  0  0  0  0  0  0  0  0
    1.0058    0.0407   -0.0650 C   0  0  0  0  0  0  0  0  0  0  0  0
    0.4368    1.0064   -0.7793 C   0  0  0  0  0  0  0  0  0  0  0  0
   -1.0406    0.9006   -0.9963 C   0  0  0  0  0  0  0  0  0  0  0  0
   -1.7370    0.9222    0.3062 C   0  0  0  0  0  0  0  0  0  0  0  0
   -1.8244   -0.3265    0.7265 C   0  0  0  0  0  0  0  0  0  0  0  0
   -1.0968   -1.1767   -0.2797 C   0  0  0  0  0  0  0  0  0  0  0  0
    0.3295   -1.2801    0.1626 C   0  0  0  0  0  0  0  0  0  0  0  0
   -1.2570   -0.4246   -1.4409 O   0  0  0  0  0  0  0  0  0  0  0  0
    2.3676    1.3180    1.0311 H   0  0  0  0  0  0  0  0  0  0  0  0
    2.5931   -0.4261    1.2717 H   0  0  0  0  0  0  0  0  0  0  0  0
    3.0692    0.3425   -0.3435 H   0  0  0  0  0  0  0  0  0  0  0  0
    0.9937    1.8395   -1.1945 H   0  0  0  0  0  0  0  0  0  0  0  0
   -1.4170    1.6332   -1.7049 H   0  0  0  0  0  0  0  0  0  0  0  0
   -2.1167    1.7779    0.8433 H   0  0  0  0  0  0  0  0  0  0  0  0
   -2.2936   -0.7400    1.5885 H   0  0  0  0  0  0  0  0  0  0  0  0
   -1.5977   -2.1402   -0.4261 H   0  0  0  0  0  0  0  0  0  0  0  0
    0.8805   -2.0393   -0.4341 H   0  0  0  0  0  0  0  0  0  0  0  0
    0.3449   -1.5642    1.2310 H   0  0  0  0  0  0  0  0  0  0  0  0
  1  2  1  0
  2  3  2  0
  3  4  1  0
  4  5  1  0
  5  6  2  0
  6  7  1  0
  7  8  1  0
  7  9  1  0
  8  2  1  0
  9  4  1  0
  1 10  1  0
  1 11  1  0
  1 12  1  0
  3 13  1  0
  4 14  1  0
  5 15  1  0
  6 16  1  0
  7 17  1  0
  8 18  1  0
  8 19  1  0
M  END
