
     RDKit          3D

 21 22  0  0  0  0  0  0  0  0999 V2000
    2.6215    0.0894    0.3106 C   0  0  0  0  0  0  0  0  0  0  0  0
    1.2111   -0.3002    0.0383 C   0  0  0  0  0  0  0  0  0  0  0  0
    0.8158   -1.2853   -0.7385 C   0  0  0  0  0  0  0  0  0  0  0  0
   -0.6875   -1.3700   -0.7642 C   0  0  0  0  0  0  0  0  0  0  0  0
   -1.1366   -0.5687    0.4296 C   0  0  0  0  0  0  0  0  0  0  0  0
   -2.2473    0.4016    0.0966 C   0  0  0  0  0  0  0  0  0  0  0  0
   -1.6302    1.3652   -0.6923 O   0  0  0  0  0  0  0  0  0  0  0  0
   -0.3984    1.5933   -0.1401 C   0  0  0  0  0  0  0  0  0  0  0  0
    0.0323    0.3831    0.6177 C   0  0  0  0  0  0  0  0  0  0  0  0
    3.2866   -0.8224    0.3393 H   0  0  0  0  0  0  0  0  0  0  0  0
    2.7299    0.5382    1.3401 H   0  0  0  0  0  0  0  0  0  0  0  0
    3.0215    0.8036   -0.4386 H   0  0  0  0  0  0  0  0  0  0  0  0
    1.4344   -1.9740   -1.3067 H   0  0  0  0  0  0  0  0  0  0  0  0
   -0.9413   -2.4449   -0.6511 H   0  0  0  0  0  0  0  0  0  0  0  0
   -1.0321   -0.9588   -1.7281 H   0  0  0  0  0  0  0  0  0  0  0  0
   -1.3460   -1.1745    1.3199 H   0  0  0  0  0  0  0  0  0  0  0  0
   -2.5404    0.8898    1.0437 H   0  0  0  0  0  0  0  0  0  0  0  0
   -3.1145   -0.0638   -0.3629 H   0  0  0  0  0  0  0  0  0  0  0  0
    0.3080    1.8520   -0.9659 H   0  0  0  0  0  0  0  0  0  0  0  0
   -0.5046    2.4733    0.5520 H   0  0  0  0  0  0  0  0  0  0  0  0
    0.1179    0.5731    1.7006 H   0  0  0  0  0  0  0  0  0  0  0  0
  1  2  1  0
  2  3  2  0
  3  4  1  0
  4  5  1  0
  5  6  1  0
  6  7  1  0
  7  8  1  0
  8  9  1  0
  9  2  1  0
  9  5  1  0
  1 10  1  0
  1 11  1  0
  1 12  1  0
  3 13  1  0
  4 14  1  0
  4 15  1  0
  5 16  1  0
  6 17  1  0
  6 18  1  0
  8 19  1  0
  8 20  1  0
  9 21  1  0
M  END
