
     RDKit          3D

 21 22  0  0  0  0  0  0  0  0999 V2000
    2.8408    0.3530    0.7593 C   0  0  0  0  0  0  0  0  0  0  0  0
    1.5531   -0.0825    0.1025 C   0  0  0  0  0  0  0  0  0  0  0  0
    1.3815   -1.1086   -0.7173 C   0  0  0  0  0  0  0  0  0  0  0  0
   -0.0255   -1.2401   -1.1745 C   0  0  0  0  0  0  0  0  0  0  0  0
   -0.6588    0.0299   -0.7191 C   0  0  0  0  0  0  0  0  0  0  0  0
   -1.6049   -0.1735    0.4527 C   0  0  0  0  0  0  0  0  0  0  0  0
   -2.7215    0.8277    0.3917 C   0  0  0  0  0  0  0  0  0  0  0  0
   -0.5510    0.1378    1.2997 O   0  0  0  0  0  0  0  0  0  0  0  0
    0.2896    0.6258    0.3168 C   0  0  0  0  0  0  0  0  0  0  0  0
    3.2180    1.2766    0.2949 H   0  0  0  0  0  0  0  0  0  0  0  0
    2.6823    0.4416    1.8582 H   0  0  0  0  0  0  0  0  0  0  0  0
    3.6273   -0.4303    0.6098 H   0  0  0  0  0  0  0  0  0  0  0  0
    2.2105   -1.7565   -0.9966 H   0  0  0  0  0  0  0  0  0  0  0  0
   -0.0411   -1.2374   -2.2961 H   0  0  0  0  0  0  0  0  0  0  0  0
   -0.5021   -2.1553   -0.7655 H   0  0  0  0  0  0  0  0  0  0  0  0
   -0.9721    0.7473   -1.4728 H   0  0  0  0  0  0  0  0  0  0  0  0
   -2.0036   -1.2003    0.5469 H   0  0  0  0  0  0  0  0  0  0  0  0
   -3.4310    0.7530    1.2224 H   0  0  0  0  0  0  0  0  0  0  0  0
   -2.3364    1.8643    0.2425 H   0  0  0  0  0  0  0  0  0  0  0  0
   -3.3083    0.5979   -0.5433 H   0  0  0  0  0  0  0  0  0  0  0  0
    0.3534    1.7298    0.2376 H   0  0  0  0  0  0  0  0  0  0  0  0
  1  2  1  0
  2  3  2  0
  3  4  1  0
  4  5  1  0
  5  6  1  0
  6  7  1  0
  6  8  1  0
  8  9  1  0
  9  2  1  0
  9  5  1  0
  1 10  1  0
  1 11  1  0
  1 12  1  0
  3 13  1  0
  4 14  1  0
  4 15  1  0
  5 16  1  0
  6 17  1  0
  7 18  1  0
  7 19  1  0
  7 20  1  0
  9 21  1  0
M  END
