
     RDKit          3D

 21 22  0  0  0  0  0  0  0  0999 V2000
    2.4674    0.0086   -0.6143 C   0  0  0  0  0  0  0  0  0  0  0  0
    1.0530   -0.0518   -0.2198 C   0  0  0  0  0  0  0  0  0  0  0  0
    0.3646   -1.1656   -0.3688 C   0  0  0  0  0  0  0  0  0  0  0  0
   -1.1174   -1.0321   -0.3191 C   0  0  0  0  0  0  0  0  0  0  0  0
   -1.7451   -2.1934    0.0962 O   0  0  0  0  0  0  0  0  0  0  0  0
   -1.4674    0.1733    0.4692 C   0  0  0  0  0  0  0  0  0  0  0  0
   -0.4505    0.5623    1.5222 C   0  0  0  0  0  0  0  0  0  0  0  0
    0.3721    1.1339    0.3529 C   0  0  0  0  0  0  0  0  0  0  0  0
   -0.9624    1.3942   -0.3172 C   0  0  0  0  0  0  0  0  0  0  0  0
    2.6030    0.0474   -1.7284 H   0  0  0  0  0  0  0  0  0  0  0  0
    3.0356   -0.8852   -0.2847 H   0  0  0  0  0  0  0  0  0  0  0  0
    3.0010    0.8899   -0.2143 H   0  0  0  0  0  0  0  0  0  0  0  0
    0.8370   -2.1521   -0.5229 H   0  0  0  0  0  0  0  0  0  0  0  0
   -1.4364   -0.8426   -1.3856 H   0  0  0  0  0  0  0  0  0  0  0  0
   -1.8368   -2.7862   -0.7063 H   0  0  0  0  0  0  0  0  0  0  0  0
   -2.5229    0.2677    0.7916 H   0  0  0  0  0  0  0  0  0  0  0  0
   -0.8111    1.3766    2.1464 H   0  0  0  0  0  0  0  0  0  0  0  0
    0.0618   -0.2725    2.0196 H   0  0  0  0  0  0  0  0  0  0  0  0
    0.9781    1.9954    0.5935 H   0  0  0  0  0  0  0  0  0  0  0  0
   -1.4172    2.2984    0.0802 H   0  0  0  0  0  0  0  0  0  0  0  0
   -1.0063    1.2336   -1.3906 H   0  0  0  0  0  0  0  0  0  0  0  0
  1  2  1  0
  2  3  2  0
  3  4  1  0
  4  5  1  0
  4  6  1  0
  6  7  1  0
  7  8  1  0
  8  9  1  0
  8  2  1  0
  9  6  1  0
  1 10  1  0
  1 11  1  0
  1 12  1  0
  3 13  1  0
  4 14  1  0
  5 15  1  0
  6 16  1  0
  7 17  1  0
  7 18  1  0
  8 19  1  0
  9 20  1  0
  9 21  1  0
M  END
