
     RDKit          3D

 20 21  0  0  0  0  0  0  0  0999 V2000
    2.6767    0.2535   -0.5374 C   0  0  0  0  0  0  0  0  0  0  0  0
    1.2616   -0.1457   -0.1553 C   0  0  0  0  0  0  0  0  0  0  0  0
    0.9035   -1.2964    0.3900 C   0  0  0  0  0  0  0  0  0  0  0  0
   -0.5486   -1.3341    0.6230 C   0  0  0  0  0  0  0  0  0  0  0  0
   -1.0351    0.0024    0.1758 C   0  0  0  0  0  0  0  0  0  0  0  0
   -2.3568    0.0975   -0.5671 C   0  0  0  0  0  0  0  0  0  0  0  0
   -0.5544    1.2517    0.8972 C   0  0  0  0  0  0  0  0  0  0  0  0
    0.1120    0.7324   -0.3580 C   0  0  0  0  0  0  0  0  0  0  0  0
    2.6426    0.3843   -1.6396 H   0  0  0  0  0  0  0  0  0  0  0  0
    2.8401    1.2405   -0.0539 H   0  0  0  0  0  0  0  0  0  0  0  0
    3.3954   -0.5141   -0.2364 H   0  0  0  0  0  0  0  0  0  0  0  0
    1.6494   -2.0887    0.6171 H   0  0  0  0  0  0  0  0  0  0  0  0
   -1.0034   -2.0923   -0.0628 H   0  0  0  0  0  0  0  0  0  0  0  0
   -0.8008   -1.5551    1.6828 H   0  0  0  0  0  0  0  0  0  0  0  0
   -2.8829    0.9974   -0.1573 H   0  0  0  0  0  0  0  0  0  0  0  0
   -2.9517   -0.8239   -0.4105 H   0  0  0  0  0  0  0  0  0  0  0  0
   -2.1552    0.3014   -1.6326 H   0  0  0  0  0  0  0  0  0  0  0  0
   -1.2480    2.1107    0.8280 H   0  0  0  0  0  0  0  0  0  0  0  0
   -0.0122    1.0959    1.8503 H   0  0  0  0  0  0  0  0  0  0  0  0
    0.0679    1.3826   -1.2534 H   0  0  0  0  0  0  0  0  0  0  0  0
  1  2  1  0
  2  3  2  0
  3  4  1  0
  4  5  1  0
  5  6  1  0
  5  7  1  0
  7  8  1  0
  8  2  1  0
  8  5  1  0
  1  9  1  0
  1 10  1  0
  1 11  1  0
  3 12  1  0
  4 13  1  0
  4 14  1  0
  6 15  1  0
  6 16  1  0
  6 17  1  0
  7 18  1  0
  7 19  1  0
  8 20  1  0
M  END
