
     RDKit          3D

 23 23  0  0  0  0  0  0  0  0999 V2000
    2.5290   -1.0015    0.0854 C   0  0  0  0  0  0  0  0  0  0  0  0
    1.1405   -0.4902    0.2635 C   0  0  0  0  0  0  0  0  0  0  0  0
    0.1973   -1.4157    0.1642 C   0  0  0  0  0  0  0  0  0  0  0  0
   -1.2407   -1.4774    0.2464 C   0  0  0  0  0  0  0  0  0  0  0  0
   -2.0347   -0.5625   -0.6190 C   0  0  0  0  0  0  0  0  0  0  0  0
   -2.0401    0.8349   -0.1210 C   0  0  0  0  0  0  0  0  0  0  0  0
   -1.0905    1.7551   -0.0485 C   0  0  0  0  0  0  0  0  0  0  0  0
    0.3371    1.7852   -0.4203 C   0  0  0  0  0  0  0  0  0  0  0  0
    1.1329    0.9278    0.5094 C   0  0  0  0  0  0  0  0  0  0  0  0
    2.9589   -0.4082   -0.7726 H   0  0  0  0  0  0  0  0  0  0  0  0
    3.1406   -0.9134    0.9824 H   0  0  0  0  0  0  0  0  0  0  0  0
    2.5543   -2.0622   -0.2349 H   0  0  0  0  0  0  0  0  0  0  0  0
    0.6179   -2.3986   -0.0330 H   0  0  0  0  0  0  0  0  0  0  0  0
   -1.5216   -1.2039    1.3105 H   0  0  0  0  0  0  0  0  0  0  0  0
   -1.6733   -2.5015    0.1255 H   0  0  0  0  0  0  0  0  0  0  0  0
   -1.5899   -0.6057   -1.6550 H   0  0  0  0  0  0  0  0  0  0  0  0
   -3.0758   -0.9284   -0.6755 H   0  0  0  0  0  0  0  0  0  0  0  0
   -3.0098    1.1500    0.2508 H   0  0  0  0  0  0  0  0  0  0  0  0
   -1.4924    2.6655    0.3827 H   0  0  0  0  0  0  0  0  0  0  0  0
    0.5001    1.4979   -1.4682 H   0  0  0  0  0  0  0  0  0  0  0  0
    0.7035    2.8283   -0.3017 H   0  0  0  0  0  0  0  0  0  0  0  0
    0.7837    1.2128    1.5505 H   0  0  0  0  0  0  0  0  0  0  0  0
    2.1730    1.3117    0.4783 H   0  0  0  0  0  0  0  0  0  0  0  0
  1  2  1  0
  2  3  2  3
  3  4  1  0
  4  5  1  0
  5  6  1  0
  6  7  2  3
  7  8  1  0
  8  9  1  0
  9  2  1  0
  1 10  1  0
  1 11  1  0
  1 12  1  0
  3 13  1  0
  4 14  1  0
  4 15  1  0
  5 16  1  0
  5 17  1  0
  6 18  1  0
  7 19  1  0
  8 20  1  0
  8 21  1  0
  9 22  1  0
  9 23  1  0
M  END
