
     RDKit          3D

 19 19  0  0  0  0  0  0  0  0999 V2000
    1.5228   -1.6014   -0.1444 C   0  0  0  0  0  0  0  0  0  0  0  0
    0.7561   -0.2861   -0.1420 C   0  0  0  0  0  0  0  0  0  0  0  0
    1.3868    0.8586   -0.0464 C   0  0  0  0  0  0  0  0  0  0  0  0
    0.6734    2.1088   -0.0436 C   0  0  0  0  0  0  0  0  0  0  0  0
    1.3045    3.2133    0.0507 O   0  0  0  0  0  0  0  0  0  0  0  0
   -0.7050    2.1020   -0.1444 O   0  0  0  0  0  0  0  0  0  0  0  0
   -1.3048    0.9636   -0.7932 C   0  0  0  0  0  0  0  0  0  0  0  0
   -0.7111   -0.3098   -0.2437 C   0  0  0  0  0  0  0  0  0  0  0  0
   -1.3625   -0.6994    1.0718 C   0  0  0  0  0  0  0  0  0  0  0  0
    2.4702   -1.4901    0.4103 H   0  0  0  0  0  0  0  0  0  0  0  0
    1.7890   -1.8850   -1.1844 H   0  0  0  0  0  0  0  0  0  0  0  0
    0.8321   -2.3424    0.3084 H   0  0  0  0  0  0  0  0  0  0  0  0
    2.4931    0.8094    0.0317 H   0  0  0  0  0  0  0  0  0  0  0  0
   -2.3852    1.0487   -0.5600 H   0  0  0  0  0  0  0  0  0  0  0  0
   -1.1174    1.0186   -1.8871 H   0  0  0  0  0  0  0  0  0  0  0  0
   -0.9689   -1.1386   -0.9601 H   0  0  0  0  0  0  0  0  0  0  0  0
   -1.9840    0.1429    1.4697 H   0  0  0  0  0  0  0  0  0  0  0  0
   -0.6291   -0.9591    1.8403 H   0  0  0  0  0  0  0  0  0  0  0  0
   -2.0598   -1.5542    0.9664 H   0  0  0  0  0  0  0  0  0  0  0  0
  1  2  1  0
  2  3  2  0
  3  4  1  0
  4  5  2  0
  4  6  1  0
  6  7  1  0
  7  8  1  0
  8  9  1  0
  8  2  1  0
  1 10  1  0
  1 11  1  0
  1 12  1  0
  3 13  1  0
  7 14  1  0
  7 15  1  0
  8 16  1  0
  9 17  1  0
  9 18  1  0
  9 19  1  0
M  END
