
     RDKit          3D

 22 22  0  0  0  0  0  0  0  0999 V2000
    2.5704   -0.5524   -0.0976 C   0  0  0  0  0  0  0  0  0  0  0  0
    1.0949   -0.2549    0.0687 C   0  0  0  0  0  0  0  0  0  0  0  0
    0.3704   -1.3410    0.1928 C   0  0  0  0  0  0  0  0  0  0  0  0
   -1.0525   -1.4825    0.3680 C   0  0  0  0  0  0  0  0  0  0  0  0
   -1.8770   -0.2706    0.4320 C   0  0  0  0  0  0  0  0  0  0  0  0
   -1.4878    0.6298   -0.7473 C   0  0  0  0  0  0  0  0  0  0  0  0
   -0.5353    1.6378   -0.1625 C   0  0  0  0  0  0  0  0  0  0  0  0
    0.8329    1.1736    0.0513 C   0  0  0  0  0  0  0  0  0  0  0  0
    2.8709   -0.3114   -1.1265 H   0  0  0  0  0  0  0  0  0  0  0  0
    2.7993   -1.5984    0.1414 H   0  0  0  0  0  0  0  0  0  0  0  0
    3.0701    0.1273    0.6475 H   0  0  0  0  0  0  0  0  0  0  0  0
    0.9143   -2.2780    0.1600 H   0  0  0  0  0  0  0  0  0  0  0  0
   -1.2406   -2.0976    1.2971 H   0  0  0  0  0  0  0  0  0  0  0  0
   -1.4507   -2.1381   -0.4613 H   0  0  0  0  0  0  0  0  0  0  0  0
   -1.8188    0.2862    1.3927 H   0  0  0  0  0  0  0  0  0  0  0  0
   -2.9514   -0.5561    0.2723 H   0  0  0  0  0  0  0  0  0  0  0  0
   -2.3781    1.1572   -1.1148 H   0  0  0  0  0  0  0  0  0  0  0  0
   -0.9489    0.0599   -1.5235 H   0  0  0  0  0  0  0  0  0  0  0  0
   -0.9550    2.0408    0.8030 H   0  0  0  0  0  0  0  0  0  0  0  0
   -0.5690    2.5311   -0.8543 H   0  0  0  0  0  0  0  0  0  0  0  0
    1.2483    1.6092    1.0077 H   0  0  0  0  0  0  0  0  0  0  0  0
    1.4935    1.6280   -0.7469 H   0  0  0  0  0  0  0  0  0  0  0  0
  1  2  1  0
  2  3  2  0
  3  4  1  0
  4  5  1  0
  5  6  1  0
  6  7  1  0
  7  8  1  0
  8  2  1  0
  1  9  1  0
  1 10  1  0
  1 11  1  0
  3 12  1  0
  4 13  1  0
  4 14  1  0
  5 15  1  0
  5 16  1  0
  6 17  1  0
  6 18  1  0
  7 19  1  0
  7 20  1  0
  8 21  1  0
  8 22  1  0
M  END
