
     RDKit          3D

 19 19  0  0  0  0  0  0  0  0999 V2000
    1.6422   -1.4010   -0.1335 C   0  0  0  0  0  0  0  0  0  0  0  0
    0.7094   -0.2518    0.0097 C   0  0  0  0  0  0  0  0  0  0  0  0
    1.1309    1.0117   -0.0233 C   0  0  0  0  0  0  0  0  0  0  0  0
   -0.0349    1.9416    0.1466 C   0  0  0  0  0  0  0  0  0  0  0  0
   -1.1528    1.0582   -0.4271 C   0  0  0  0  0  0  0  0  0  0  0  0
   -0.7675   -0.2657    0.2041 C   0  0  0  0  0  0  0  0  0  0  0  0
   -1.0848   -0.1648    1.5530 O   0  0  0  0  0  0  0  0  0  0  0  0
   -1.4092   -1.4204   -0.4503 C   0  0  0  0  0  0  0  0  0  0  0  0
   -1.2058   -1.6091   -1.6233 O   0  0  0  0  0  0  0  0  0  0  0  0
    1.8578   -1.5339   -1.2245 H   0  0  0  0  0  0  0  0  0  0  0  0
    1.2464   -2.3223    0.3180 H   0  0  0  0  0  0  0  0  0  0  0  0
    2.6219   -1.1635    0.3332 H   0  0  0  0  0  0  0  0  0  0  0  0
    2.1423    1.4010   -0.1493 H   0  0  0  0  0  0  0  0  0  0  0  0
    0.0803    2.8679   -0.4074 H   0  0  0  0  0  0  0  0  0  0  0  0
   -0.1916    2.0511    1.2308 H   0  0  0  0  0  0  0  0  0  0  0  0
   -2.1363    1.4096   -0.1226 H   0  0  0  0  0  0  0  0  0  0  0  0
   -1.0052    0.9486   -1.5133 H   0  0  0  0  0  0  0  0  0  0  0  0
   -0.3977   -0.4822    2.1587 H   0  0  0  0  0  0  0  0  0  0  0  0
   -2.0453   -2.0751    0.1206 H   0  0  0  0  0  0  0  0  0  0  0  0
  1  2  1  0
  2  3  2  0
  3  4  1  0
  4  5  1  0
  5  6  1  0
  6  7  1  0
  6  8  1  0
  8  9  2  0
  6  2  1  0
  1 10  1  0
  1 11  1  0
  1 12  1  0
  3 13  1  0
  4 14  1  0
  4 15  1  0
  5 16  1  0
  5 17  1  0
  7 18  1  0
  8 19  1  0
M  END
