
     RDKit          3D

 21 22  0  0  0  0  0  0  0  0999 V2000
    2.3932   -0.3831   -0.3946 C   0  0  0  0  0  0  0  0  0  0  0  0
    0.9064   -0.3957   -0.2851 C   0  0  0  0  0  0  0  0  0  0  0  0
    0.2538   -1.4701    0.1858 C   0  0  0  0  0  0  0  0  0  0  0  0
   -1.1093   -1.3714    0.7883 C   0  0  0  0  0  0  0  0  0  0  0  0
   -1.5716    0.0809    0.5999 C   0  0  0  0  0  0  0  0  0  0  0  0
   -1.2915    0.3835   -0.8792 C   0  0  0  0  0  0  0  0  0  0  0  0
    0.1773    0.8092   -0.7106 C   0  0  0  0  0  0  0  0  0  0  0  0
   -0.0436    1.7266    0.5004 C   0  0  0  0  0  0  0  0  0  0  0  0
   -0.7332    0.8651    1.3402 O   0  0  0  0  0  0  0  0  0  0  0  0
    2.7394    0.4204    0.3112 H   0  0  0  0  0  0  0  0  0  0  0  0
    2.7341   -0.1575   -1.4286 H   0  0  0  0  0  0  0  0  0  0  0  0
    2.8315   -1.3242    0.0034 H   0  0  0  0  0  0  0  0  0  0  0  0
    0.7762   -2.4250    0.1039 H   0  0  0  0  0  0  0  0  0  0  0  0
   -1.8139   -2.0120    0.2531 H   0  0  0  0  0  0  0  0  0  0  0  0
   -1.0881   -1.6228    1.8689 H   0  0  0  0  0  0  0  0  0  0  0  0
   -2.6137    0.2255    0.8660 H   0  0  0  0  0  0  0  0  0  0  0  0
   -1.3842   -0.5162   -1.4987 H   0  0  0  0  0  0  0  0  0  0  0  0
   -1.9057    1.2361   -1.2287 H   0  0  0  0  0  0  0  0  0  0  0  0
    0.5683    1.3259   -1.5710 H   0  0  0  0  0  0  0  0  0  0  0  0
   -0.7240    2.5499    0.2320 H   0  0  0  0  0  0  0  0  0  0  0  0
    0.8985    2.0548    0.9434 H   0  0  0  0  0  0  0  0  0  0  0  0
  1  2  1  0
  2  3  2  0
  3  4  1  0
  4  5  1  0
  5  6  1  0
  6  7  1  0
  7  8  1  0
  8  9  1  0
  7  2  1  0
  9  5  1  0
  1 10  1  0
  1 11  1  0
  1 12  1  0
  3 13  1  0
  4 14  1  0
  4 15  1  0
  5 16  1  0
  6 17  1  0
  6 18  1  0
  7 19  1  0
  8 20  1  0
  8 21  1  0
M  END
