
     RDKit          3D

 19 20  0  0  0  0  0  0  0  0999 V2000
    2.3854    0.2183    0.6384 C   0  0  0  0  0  0  0  0  0  0  0  0
    0.9247    0.2404    0.3669 C   0  0  0  0  0  0  0  0  0  0  0  0
    0.0259    1.2222    0.6039 C   0  0  0  0  0  0  0  0  0  0  0  0
   -1.2307    0.6350    0.0900 C   0  0  0  0  0  0  0  0  0  0  0  0
   -2.3655    1.2990    0.0951 O   0  0  0  0  0  0  0  0  0  0  0  0
   -1.1734   -0.7932    0.6168 C   0  0  0  0  0  0  0  0  0  0  0  0
    0.1078   -0.8172   -0.2315 C   0  0  0  0  0  0  0  0  0  0  0  0
    0.6084   -1.9699   -0.6143 O   0  0  0  0  0  0  0  0  0  0  0  0
   -0.7356    0.0043   -1.2216 C   0  0  0  0  0  0  0  0  0  0  0  0
    2.6443    1.1330    1.2197 H   0  0  0  0  0  0  0  0  0  0  0  0
    2.9908    0.2570   -0.2907 H   0  0  0  0  0  0  0  0  0  0  0  0
    2.6976   -0.7060    1.1684 H   0  0  0  0  0  0  0  0  0  0  0  0
    0.2572    2.1764    1.0633 H   0  0  0  0  0  0  0  0  0  0  0  0
   -2.5036    1.7983   -0.7593 H   0  0  0  0  0  0  0  0  0  0  0  0
   -1.0161   -0.9002    1.6867 H   0  0  0  0  0  0  0  0  0  0  0  0
   -1.9590   -1.4053    0.1481 H   0  0  0  0  0  0  0  0  0  0  0  0
   -0.0497   -2.5502   -1.0200 H   0  0  0  0  0  0  0  0  0  0  0  0
   -1.4772   -0.5765   -1.7618 H   0  0  0  0  0  0  0  0  0  0  0  0
   -0.1312    0.7346   -1.7982 H   0  0  0  0  0  0  0  0  0  0  0  0
  1  2  1  0
  2  3  2  0
  3  4  1  0
  4  5  1  0
  4  6  1  0
  6  7  1  0
  7  8  1  0
  7  9  1  0
  7  2  1  0
  9  4  1  0
  1 10  1  0
  1 11  1  0
  1 12  1  0
  3 13  1  0
  5 14  1  0
  6 15  1  0
  6 16  1  0
  8 17  1  0
  9 18  1  0
  9 19  1  0
M  END
