
     RDKit          3D

 23 23  0  0  0  0  0  0  0  0999 V2000
   -1.0162    2.1970   -0.0626 C   0  0  0  0  0  0  0  0  0  0  0  0
   -0.9393    0.7268    0.0697 C   0  0  0  0  0  0  0  0  0  0  0  0
    0.1360   -0.0327   -0.1131 C   0  0  0  0  0  0  0  0  0  0  0  0
    1.5078    0.3810   -0.4883 C   0  0  0  0  0  0  0  0  0  0  0  0
    2.4968   -0.0345    0.5989 C   0  0  0  0  0  0  0  0  0  0  0  0
    1.9367   -0.2899   -1.6544 O   0  0  0  0  0  0  0  0  0  0  0  0
   -0.2267   -1.4756    0.1228 C   0  0  0  0  0  0  0  0  0  0  0  0
   -1.7161   -1.4293   -0.2512 C   0  0  0  0  0  0  0  0  0  0  0  0
   -2.0959   -0.1340    0.4387 C   0  0  0  0  0  0  0  0  0  0  0  0
   -0.0281    2.6213   -0.2422 H   0  0  0  0  0  0  0  0  0  0  0  0
   -1.4419    2.6009    0.8959 H   0  0  0  0  0  0  0  0  0  0  0  0
   -1.7200    2.5237   -0.8527 H   0  0  0  0  0  0  0  0  0  0  0  0
    1.5758    1.4530   -0.7155 H   0  0  0  0  0  0  0  0  0  0  0  0
    2.7039    0.8838    1.1898 H   0  0  0  0  0  0  0  0  0  0  0  0
    2.1264   -0.8704    1.2025 H   0  0  0  0  0  0  0  0  0  0  0  0
    3.4665   -0.3651    0.1488 H   0  0  0  0  0  0  0  0  0  0  0  0
    2.1861   -1.2286   -1.3815 H   0  0  0  0  0  0  0  0  0  0  0  0
   -0.1632   -1.7142    1.2055 H   0  0  0  0  0  0  0  0  0  0  0  0
    0.3339   -2.1591   -0.5072 H   0  0  0  0  0  0  0  0  0  0  0  0
   -2.2622   -2.2953    0.1173 H   0  0  0  0  0  0  0  0  0  0  0  0
   -1.7451   -1.3006   -1.3524 H   0  0  0  0  0  0  0  0  0  0  0  0
   -2.0556   -0.3264    1.5291 H   0  0  0  0  0  0  0  0  0  0  0  0
   -3.0596    0.2682    0.1022 H   0  0  0  0  0  0  0  0  0  0  0  0
  1  2  1  0
  2  3  2  0
  3  4  1  0
  4  5  1  0
  4  6  1  0
  3  7  1  0
  7  8  1  0
  8  9  1  0
  9  2  1  0
  1 10  1  0
  1 11  1  0
  1 12  1  0
  4 13  1  0
  5 14  1  0
  5 15  1  0
  5 16  1  0
  6 17  1  0
  7 18  1  0
  7 19  1  0
  8 20  1  0
  8 21  1  0
  9 22  1  0
  9 23  1  0
M  END
