
     RDKit          3D

 21 22  0  0  0  0  0  0  0  0999 V2000
    2.6368   -0.0722   -0.2147 C   0  0  0  0  0  0  0  0  0  0  0  0
    1.1751   -0.1758   -0.1037 C   0  0  0  0  0  0  0  0  0  0  0  0
    0.4954   -1.2484   -0.4578 C   0  0  0  0  0  0  0  0  0  0  0  0
   -0.9962   -1.3140   -0.4375 C   0  0  0  0  0  0  0  0  0  0  0  0
   -1.6103   -0.0902    0.1781 C   0  0  0  0  0  0  0  0  0  0  0  0
   -1.5414    1.1290   -0.6808 C   0  0  0  0  0  0  0  0  0  0  0  0
   -0.2570    1.5828   -0.6196 O   0  0  0  0  0  0  0  0  0  0  0  0
    0.4123    0.9806    0.4336 C   0  0  0  0  0  0  0  0  0  0  0  0
   -0.6788    0.3604    1.3163 C   0  0  0  0  0  0  0  0  0  0  0  0
    3.1589   -1.0435   -0.0811 H   0  0  0  0  0  0  0  0  0  0  0  0
    2.9236    0.2647   -1.2536 H   0  0  0  0  0  0  0  0  0  0  0  0
    3.0923    0.6227    0.5194 H   0  0  0  0  0  0  0  0  0  0  0  0
    1.0364   -2.1301   -0.7807 H   0  0  0  0  0  0  0  0  0  0  0  0
   -1.2602   -2.1789    0.2079 H   0  0  0  0  0  0  0  0  0  0  0  0
   -1.4091   -1.5365   -1.4482 H   0  0  0  0  0  0  0  0  0  0  0  0
   -2.6203   -0.2622    0.5566 H   0  0  0  0  0  0  0  0  0  0  0  0
   -1.9259    0.9793   -1.7056 H   0  0  0  0  0  0  0  0  0  0  0  0
   -2.1966    1.9036   -0.1985 H   0  0  0  0  0  0  0  0  0  0  0  0
    1.0281    1.6924    0.9802 H   0  0  0  0  0  0  0  0  0  0  0  0
   -0.3100   -0.5533    1.8233 H   0  0  0  0  0  0  0  0  0  0  0  0
   -1.1530    1.0895    1.9665 H   0  0  0  0  0  0  0  0  0  0  0  0
  1  2  1  0
  2  3  2  0
  3  4  1  0
  4  5  1  0
  5  6  1  0
  6  7  1  0
  7  8  1  0
  8  9  1  0
  8  2  1  0
  9  5  1  0
  1 10  1  0
  1 11  1  0
  1 12  1  0
  3 13  1  0
  4 14  1  0
  4 15  1  0
  5 16  1  0
  6 17  1  0
  6 18  1  0
  8 19  1  0
  9 20  1  0
  9 21  1  0
M  END
