
     RDKit          3D

 19 20  0  0  0  0  0  0  0  0999 V2000
    2.3376    0.0211    0.3555 C   0  0  0  0  0  0  0  0  0  0  0  0
    0.8898   -0.2734   -0.0042 C   0  0  0  0  0  0  0  0  0  0  0  0
   -0.1034    0.5999   -0.1508 C   0  0  0  0  0  0  0  0  0  0  0  0
    0.0614    2.0656    0.0367 C   0  0  0  0  0  0  0  0  0  0  0  0
   -1.2507   -0.1254   -0.6057 C   0  0  0  0  0  0  0  0  0  0  0  0
   -2.3212   -0.8852   -0.1285 C   0  0  0  0  0  0  0  0  0  0  0  0
   -1.0746   -1.3719    0.3104 C   0  0  0  0  0  0  0  0  0  0  0  0
    0.2636   -1.5857   -0.1920 C   0  0  0  0  0  0  0  0  0  0  0  0
    0.7871   -2.5829   -0.6615 O   0  0  0  0  0  0  0  0  0  0  0  0
    2.6880    0.8417   -0.3393 H   0  0  0  0  0  0  0  0  0  0  0  0
    2.9242   -0.8576    0.0901 H   0  0  0  0  0  0  0  0  0  0  0  0
    2.4268    0.3069    1.4033 H   0  0  0  0  0  0  0  0  0  0  0  0
   -0.8911    2.4990    0.4244 H   0  0  0  0  0  0  0  0  0  0  0  0
    0.4333    2.5759   -0.8486 H   0  0  0  0  0  0  0  0  0  0  0  0
    0.8128    2.2139    0.8605 H   0  0  0  0  0  0  0  0  0  0  0  0
   -1.0559   -0.3322   -1.7310 H   0  0  0  0  0  0  0  0  0  0  0  0
   -2.9230   -1.5288   -0.8199 H   0  0  0  0  0  0  0  0  0  0  0  0
   -3.0316   -0.3743    0.5680 H   0  0  0  0  0  0  0  0  0  0  0  0
   -0.9732   -1.2068    1.4326 H   0  0  0  0  0  0  0  0  0  0  0  0
  1  2  1  0
  2  3  2  0
  3  4  1  0
  3  5  1  0
  5  6  1  0
  6  7  1  0
  7  8  1  0
  8  9  2  0
  8  2  1  0
  7  5  1  0
  1 10  1  0
  1 11  1  0
  1 12  1  0
  4 13  1  0
  4 14  1  0
  4 15  1  0
  5 16  1  0
  6 17  1  0
  6 18  1  0
  7 19  1  0
M  END
