
     RDKit          3D

 21 21  0  0  0  0  0  0  0  0999 V2000
   -1.7213    1.7560   -0.3594 C   0  0  0  0  0  0  0  0  0  0  0  0
   -0.5307    0.8420   -0.1565 C   0  0  0  0  0  0  0  0  0  0  0  0
    0.6342    1.4427    0.0084 C   0  0  0  0  0  0  0  0  0  0  0  0
    1.9632    0.8307    0.2249 C   0  0  0  0  0  0  0  0  0  0  0  0
    2.3889   -0.3812   -0.0777 C   0  0  0  0  0  0  0  0  0  0  0  0
    1.5249   -1.3906   -0.7335 C   0  0  0  0  0  0  0  0  0  0  0  0
    0.2066   -1.4566   -0.7558 C   0  0  0  0  0  0  0  0  0  0  0  0
   -0.8294   -0.5891   -0.1622 C   0  0  0  0  0  0  0  0  0  0  0  0
   -1.0890   -1.1329    1.2383 C   0  0  0  0  0  0  0  0  0  0  0  0
   -1.6489    2.6535    0.2541 H   0  0  0  0  0  0  0  0  0  0  0  0
   -1.6707    2.0405   -1.4458 H   0  0  0  0  0  0  0  0  0  0  0  0
   -2.6359    1.1670   -0.2246 H   0  0  0  0  0  0  0  0  0  0  0  0
    0.5834    2.5336   -0.0216 H   0  0  0  0  0  0  0  0  0  0  0  0
    2.6899    1.4681    0.6988 H   0  0  0  0  0  0  0  0  0  0  0  0
    3.3765   -0.6841    0.1388 H   0  0  0  0  0  0  0  0  0  0  0  0
    2.1105   -2.1475   -1.2416 H   0  0  0  0  0  0  0  0  0  0  0  0
   -0.1761   -2.2981   -1.3083 H   0  0  0  0  0  0  0  0  0  0  0  0
   -1.7893   -0.7504   -0.7031 H   0  0  0  0  0  0  0  0  0  0  0  0
   -0.0746   -1.3685    1.6540 H   0  0  0  0  0  0  0  0  0  0  0  0
   -1.6714   -0.4567    1.8609 H   0  0  0  0  0  0  0  0  0  0  0  0
   -1.6407   -2.0783    1.1121 H   0  0  0  0  0  0  0  0  0  0  0  0
  1  2  1  0
  2  3  2  0
  3  4  1  0
  4  5  2  0
  5  6  1  0
  6  7  2  0
  7  8  1  0
  8  9  1  0
  8  2  1  0
  1 10  1  0
  1 11  1  0
  1 12  1  0
  3 13  1  0
  4 14  1  0
  5 15  1  0
  6 16  1  0
  7 17  1  0
  8 18  1  0
  9 19  1  0
  9 20  1  0
  9 21  1  0
M  END
