
     RDKit          3D

 23 23  0  0  0  0  0  0  0  0999 V2000
   -1.6070    1.8113    0.1975 C   0  0  0  0  0  0  0  0  0  0  0  0
   -0.4111    0.9093    0.0551 C   0  0  0  0  0  0  0  0  0  0  0  0
    0.6831    1.5073   -0.4085 C   0  0  0  0  0  0  0  0  0  0  0  0
    1.9907    0.9228   -0.6581 C   0  0  0  0  0  0  0  0  0  0  0  0
    2.4668   -0.2465   -0.2815 C   0  0  0  0  0  0  0  0  0  0  0  0
    1.7245   -1.2554    0.5154 C   0  0  0  0  0  0  0  0  0  0  0  0
    0.3337   -1.4762   -0.0031 C   0  0  0  0  0  0  0  0  0  0  0  0
   -0.6740   -0.4688    0.4564 C   0  0  0  0  0  0  0  0  0  0  0  0
   -2.0120   -0.8833   -0.1335 C   0  0  0  0  0  0  0  0  0  0  0  0
   -2.0823    1.9327   -0.7918 H   0  0  0  0  0  0  0  0  0  0  0  0
   -1.2156    2.8023    0.5408 H   0  0  0  0  0  0  0  0  0  0  0  0
   -2.3221    1.4345    0.9519 H   0  0  0  0  0  0  0  0  0  0  0  0
    0.5567    2.5674   -0.6196 H   0  0  0  0  0  0  0  0  0  0  0  0
    2.6557    1.5545   -1.2391 H   0  0  0  0  0  0  0  0  0  0  0  0
    3.4716   -0.4982   -0.5693 H   0  0  0  0  0  0  0  0  0  0  0  0
    1.7083   -1.0097    1.5977 H   0  0  0  0  0  0  0  0  0  0  0  0
    2.2686   -2.2153    0.4129 H   0  0  0  0  0  0  0  0  0  0  0  0
    0.3322   -1.4993   -1.1030 H   0  0  0  0  0  0  0  0  0  0  0  0
   -0.0012   -2.4688    0.3669 H   0  0  0  0  0  0  0  0  0  0  0  0
   -0.8059   -0.4881    1.5718 H   0  0  0  0  0  0  0  0  0  0  0  0
   -2.6299   -1.4079    0.6310 H   0  0  0  0  0  0  0  0  0  0  0  0
   -1.8505   -1.5130   -1.0336 H   0  0  0  0  0  0  0  0  0  0  0  0
   -2.5802   -0.0117   -0.4563 H   0  0  0  0  0  0  0  0  0  0  0  0
  1  2  1  0
  2  3  2  0
  3  4  1  0
  4  5  2  0
  5  6  1  0
  6  7  1  0
  7  8  1  0
  8  9  1  0
  8  2  1  0
  1 10  1  0
  1 11  1  0
  1 12  1  0
  3 13  1  0
  4 14  1  0
  5 15  1  0
  6 16  1  0
  6 17  1  0
  7 18  1  0
  7 19  1  0
  8 20  1  0
  9 21  1  0
  9 22  1  0
  9 23  1  0
M  END
