
     RDKit          3D

 19 20  0  0  0  0  0  0  0  0999 V2000
    2.4654    0.4489    0.4284 C   0  0  0  0  0  0  0  0  0  0  0  0
    1.0067    0.1907    0.2275 C   0  0  0  0  0  0  0  0  0  0  0  0
    0.1517    1.1707   -0.0326 C   0  0  0  0  0  0  0  0  0  0  0  0
   -1.1083    0.8384   -0.7376 C   0  0  0  0  0  0  0  0  0  0  0  0
   -2.1700    0.2830    0.1561 C   0  0  0  0  0  0  0  0  0  0  0  0
   -1.8628   -1.0692    0.2339 O   0  0  0  0  0  0  0  0  0  0  0  0
   -0.7425   -1.2712   -0.5838 C   0  0  0  0  0  0  0  0  0  0  0  0
    0.4685   -1.1927    0.3170 C   0  0  0  0  0  0  0  0  0  0  0  0
   -0.8016   -0.2848   -1.5403 O   0  0  0  0  0  0  0  0  0  0  0  0
    2.9930   -0.5023    0.2951 H   0  0  0  0  0  0  0  0  0  0  0  0
    2.8708    1.1516   -0.3294 H   0  0  0  0  0  0  0  0  0  0  0  0
    2.6013    0.8022    1.4690 H   0  0  0  0  0  0  0  0  0  0  0  0
    0.3568    2.1716    0.2521 H   0  0  0  0  0  0  0  0  0  0  0  0
   -1.4998    1.6696   -1.3454 H   0  0  0  0  0  0  0  0  0  0  0  0
   -3.1466    0.3904   -0.3836 H   0  0  0  0  0  0  0  0  0  0  0  0
   -2.2407    0.7759    1.1420 H   0  0  0  0  0  0  0  0  0  0  0  0
   -0.7555   -2.2904   -1.0141 H   0  0  0  0  0  0  0  0  0  0  0  0
    1.2355   -1.9487    0.0464 H   0  0  0  0  0  0  0  0  0  0  0  0
    0.1780   -1.3337    1.3995 H   0  0  0  0  0  0  0  0  0  0  0  0
  1  2  1  0
  2  3  2  0
  3  4  1  0
  4  5  1  0
  5  6  1  0
  6  7  1  0
  7  8  1  0
  7  9  1  0
  8  2  1  0
  9  4  1  0
  1 10  1  0
  1 11  1  0
  1 12  1  0
  3 13  1  0
  4 14  1  0
  5 15  1  0
  5 16  1  0
  7 17  1  0
  8 18  1  0
  8 19  1  0
M  END
