
     RDKit          3D

 23 23  0  0  0  0  0  0  0  0999 V2000
    2.7291    0.7007    0.4287 C   0  0  0  0  0  0  0  0  0  0  0  0
    1.3258    0.2964    0.1486 C   0  0  0  0  0  0  0  0  0  0  0  0
    0.2562    0.8119    0.7042 C   0  0  0  0  0  0  0  0  0  0  0  0
   -0.9461    0.1337    0.1539 C   0  0  0  0  0  0  0  0  0  0  0  0
   -1.9652   -0.0250    1.2513 C   0  0  0  0  0  0  0  0  0  0  0  0
   -1.4984    0.9949   -0.9639 C   0  0  0  0  0  0  0  0  0  0  0  0
   -0.4216   -1.1721   -0.3161 C   0  0  0  0  0  0  0  0  0  0  0  0
   -0.2501   -2.0109    0.7878 O   0  0  0  0  0  0  0  0  0  0  0  0
    0.9677   -0.7777   -0.8255 C   0  0  0  0  0  0  0  0  0  0  0  0
    3.1295    1.1242   -0.5220 H   0  0  0  0  0  0  0  0  0  0  0  0
    3.3076   -0.2067    0.6596 H   0  0  0  0  0  0  0  0  0  0  0  0
    2.7974    1.4960    1.1797 H   0  0  0  0  0  0  0  0  0  0  0  0
    0.2209    1.6126    1.4547 H   0  0  0  0  0  0  0  0  0  0  0  0
   -1.5579    0.2500    2.2434 H   0  0  0  0  0  0  0  0  0  0  0  0
   -2.2961   -1.0897    1.3402 H   0  0  0  0  0  0  0  0  0  0  0  0
   -2.8960    0.5532    1.0568 H   0  0  0  0  0  0  0  0  0  0  0  0
   -2.2973    0.5189   -1.5302 H   0  0  0  0  0  0  0  0  0  0  0  0
   -0.6701    1.2556   -1.6476 H   0  0  0  0  0  0  0  0  0  0  0  0
   -1.8867    1.9213   -0.4860 H   0  0  0  0  0  0  0  0  0  0  0  0
   -1.0135   -1.6658   -1.0979 H   0  0  0  0  0  0  0  0  0  0  0  0
    0.4708   -2.6328    0.5723 H   0  0  0  0  0  0  0  0  0  0  0  0
    1.5953   -1.6700   -0.7281 H   0  0  0  0  0  0  0  0  0  0  0  0
    0.8988   -0.4186   -1.8571 H   0  0  0  0  0  0  0  0  0  0  0  0
  1  2  1  0
  2  3  2  0
  3  4  1  0
  4  5  1  0
  4  6  1  0
  4  7  1  0
  7  8  1  0
  7  9  1  0
  9  2  1  0
  1 10  1  0
  1 11  1  0
  1 12  1  0
  3 13  1  0
  5 14  1  0
  5 15  1  0
  5 16  1  0
  6 17  1  0
  6 18  1  0
  6 19  1  0
  7 20  1  0
  8 21  1  0
  9 22  1  0
  9 23  1  0
M  END
