
     RDKit          3D

 17 18  0  0  0  0  0  0  0  0999 V2000
    2.5670   -0.2648   -0.0482 C   0  0  0  0  0  0  0  0  0  0  0  0
    1.0830   -0.0304   -0.1876 C   0  0  0  0  0  0  0  0  0  0  0  0
    0.1170   -0.7765    0.2711 C   0  0  0  0  0  0  0  0  0  0  0  0
   -1.1863   -0.1989   -0.0795 C   0  0  0  0  0  0  0  0  0  0  0  0
   -2.3723   -0.8069    0.2504 C   0  0  0  0  0  0  0  0  0  0  0  0
   -1.8219   -0.9551   -1.1233 O   0  0  0  0  0  0  0  0  0  0  0  0
   -0.8978    1.2406   -0.3768 C   0  0  0  0  0  0  0  0  0  0  0  0
    0.5206    1.1148   -0.8816 C   0  0  0  0  0  0  0  0  0  0  0  0
    1.0814    1.8724   -1.7402 O   0  0  0  0  0  0  0  0  0  0  0  0
    2.8066   -0.6820    0.9445 H   0  0  0  0  0  0  0  0  0  0  0  0
    3.0944    0.7042   -0.1346 H   0  0  0  0  0  0  0  0  0  0  0  0
    2.9403   -0.9418   -0.8426 H   0  0  0  0  0  0  0  0  0  0  0  0
    0.2469   -1.7041    0.8383 H   0  0  0  0  0  0  0  0  0  0  0  0
   -2.4238   -1.7626    0.7992 H   0  0  0  0  0  0  0  0  0  0  0  0
   -3.3669   -0.3095    0.1471 H   0  0  0  0  0  0  0  0  0  0  0  0
   -0.8375    1.8188    0.5537 H   0  0  0  0  0  0  0  0  0  0  0  0
   -1.5508    1.6816   -1.1458 H   0  0  0  0  0  0  0  0  0  0  0  0
  1  2  1  0
  2  3  2  0
  3  4  1  0
  4  5  1  0
  5  6  1  0
  4  7  1  0
  7  8  1  0
  8  9  2  0
  8  2  1  0
  6  4  1  0
  1 10  1  0
  1 11  1  0
  1 12  1  0
  3 13  1  0
  5 14  1  0
  5 15  1  0
  7 16  1  0
  7 17  1  0
M  END
