
     RDKit          3D

 15 15  0  0  0  0  0  0  0  0999 V2000
   -1.0638   -1.4701    0.0037 C   0  0  0  0  0  0  0  0  0  0  0  0
   -0.4854   -0.1012   -0.0516 C   0  0  0  0  0  0  0  0  0  0  0  0
    0.7798    0.2234    0.0668 C   0  0  0  0  0  0  0  0  0  0  0  0
    1.8794   -0.7269    0.2801 C   0  0  0  0  0  0  0  0  0  0  0  0
    3.0686   -0.3545    0.3854 O   0  0  0  0  0  0  0  0  0  0  0  0
    0.9723    1.6692   -0.0403 C   0  0  0  0  0  0  0  0  0  0  0  0
    2.0720    2.2984    0.0315 O   0  0  0  0  0  0  0  0  0  0  0  0
   -0.2993    2.1874   -0.2350 O   0  0  0  0  0  0  0  0  0  0  0  0
   -1.2439    1.1593   -0.2530 C   0  0  0  0  0  0  0  0  0  0  0  0
   -2.1604   -1.4415    0.1039 H   0  0  0  0  0  0  0  0  0  0  0  0
   -0.6693   -2.0553    0.8639 H   0  0  0  0  0  0  0  0  0  0  0  0
   -0.8328   -2.0542   -0.9020 H   0  0  0  0  0  0  0  0  0  0  0  0
    1.6859   -1.7841    0.3523 H   0  0  0  0  0  0  0  0  0  0  0  0
   -1.9137    1.2851    0.6178 H   0  0  0  0  0  0  0  0  0  0  0  0
   -1.7895    1.1652   -1.2237 H   0  0  0  0  0  0  0  0  0  0  0  0
  1  2  1  0
  2  3  2  0
  3  4  1  0
  4  5  2  0
  3  6  1  0
  6  7  2  0
  6  8  1  0
  8  9  1  0
  9  2  1  0
  1 10  1  0
  1 11  1  0
  1 12  1  0
  4 13  1  0
  9 14  1  0
  9 15  1  0
M  END
