
     RDKit          3D

 19 19  0  0  0  0  0  0  0  0999 V2000
   -2.4458    0.8899   -0.3535 C   0  0  0  0  0  0  0  0  0  0  0  0
   -1.0126    0.4777   -0.3634 C   0  0  0  0  0  0  0  0  0  0  0  0
   -0.1083    1.4117   -0.2847 C   0  0  0  0  0  0  0  0  0  0  0  0
    1.2832    1.0595   -0.2908 C   0  0  0  0  0  0  0  0  0  0  0  0
    2.1776    1.9254   -0.5223 O   0  0  0  0  0  0  0  0  0  0  0  0
    1.7121   -0.3237   -0.0273 C   0  0  0  0  0  0  0  0  0  0  0  0
    2.3406   -0.3117    1.2430 O   0  0  0  0  0  0  0  0  0  0  0  0
    0.6670   -1.3534   -0.1176 C   0  0  0  0  0  0  0  0  0  0  0  0
   -0.7015   -0.9385   -0.4598 C   0  0  0  0  0  0  0  0  0  0  0  0
   -2.6980    1.1794    0.6832 H   0  0  0  0  0  0  0  0  0  0  0  0
   -3.1155    0.0565   -0.6919 H   0  0  0  0  0  0  0  0  0  0  0  0
   -2.5870    1.7574   -1.0590 H   0  0  0  0  0  0  0  0  0  0  0  0
   -0.3819    2.4641   -0.2135 H   0  0  0  0  0  0  0  0  0  0  0  0
    2.5629   -0.5304   -0.7436 H   0  0  0  0  0  0  0  0  0  0  0  0
    3.0946   -0.9640    1.2634 H   0  0  0  0  0  0  0  0  0  0  0  0
    0.6245   -1.8982    0.8740 H   0  0  0  0  0  0  0  0  0  0  0  0
    1.0049   -2.1578   -0.8368 H   0  0  0  0  0  0  0  0  0  0  0  0
   -1.4739   -1.4935    0.1539 H   0  0  0  0  0  0  0  0  0  0  0  0
   -0.9428   -1.2505   -1.5200 H   0  0  0  0  0  0  0  0  0  0  0  0
  1  2  1  0
  2  3  2  0
  3  4  1  0
  4  5  2  0
  4  6  1  0
  6  7  1  0
  6  8  1  0
  8  9  1  0
  9  2  1  0
  1 10  1  0
  1 11  1  0
  1 12  1  0
  3 13  1  0
  6 14  1  0
  7 15  1  0
  8 16  1  0
  8 17  1  0
  9 18  1  0
  9 19  1  0
M  END
