
     RDKit          3D

 23 24  0  0  0  0  0  0  0  0999 V2000
    2.0671   -0.8722    0.5754 C   0  0  0  0  0  0  0  0  0  0  0  0
    0.8004   -0.5737   -0.1055 C   0  0  0  0  0  0  0  0  0  0  0  0
   -0.0148   -1.5438   -0.5707 C   0  0  0  0  0  0  0  0  0  0  0  0
   -1.2568   -1.0575   -1.2339 C   0  0  0  0  0  0  0  0  0  0  0  0
   -1.9571   -0.0735   -0.3385 C   0  0  0  0  0  0  0  0  0  0  0  0
   -1.6098   -0.1690    1.1071 C   0  0  0  0  0  0  0  0  0  0  0  0
   -1.0521    0.9349    0.2858 C   0  0  0  0  0  0  0  0  0  0  0  0
    0.3193    0.8118   -0.3346 C   0  0  0  0  0  0  0  0  0  0  0  0
    1.2758    1.8633    0.1038 C   0  0  0  0  0  0  0  0  0  0  0  0
    2.0655   -0.3410    1.5719 H   0  0  0  0  0  0  0  0  0  0  0  0
    2.9686   -0.6356   -0.0048 H   0  0  0  0  0  0  0  0  0  0  0  0
    2.0967   -1.9593    0.8519 H   0  0  0  0  0  0  0  0  0  0  0  0
    0.2571   -2.5678   -0.4468 H   0  0  0  0  0  0  0  0  0  0  0  0
   -1.9254   -1.9276   -1.3786 H   0  0  0  0  0  0  0  0  0  0  0  0
   -1.0573   -0.6448   -2.2445 H   0  0  0  0  0  0  0  0  0  0  0  0
   -2.9503    0.2788   -0.6518 H   0  0  0  0  0  0  0  0  0  0  0  0
   -2.3928    0.1076    1.8419 H   0  0  0  0  0  0  0  0  0  0  0  0
   -0.9782   -1.0210    1.4420 H   0  0  0  0  0  0  0  0  0  0  0  0
   -1.4072    1.9609    0.4867 H   0  0  0  0  0  0  0  0  0  0  0  0
    0.1569    0.8961   -1.4493 H   0  0  0  0  0  0  0  0  0  0  0  0
    0.7204    2.7726    0.4147 H   0  0  0  0  0  0  0  0  0  0  0  0
    1.8822    2.1890   -0.7900 H   0  0  0  0  0  0  0  0  0  0  0  0
    1.9917    1.5718    0.8679 H   0  0  0  0  0  0  0  0  0  0  0  0
  1  2  1  0
  2  3  2  0
  3  4  1  0
  4  5  1  0
  5  6  1  0
  6  7  1  0
  7  8  1  0
  8  9  1  0
  8  2  1  0
  7  5  1  0
  1 10  1  0
  1 11  1  0
  1 12  1  0
  3 13  1  0
  4 14  1  0
  4 15  1  0
  5 16  1  0
  6 17  1  0
  6 18  1  0
  7 19  1  0
  8 20  1  0
  9 21  1  0
  9 22  1  0
  9 23  1  0
M  END
