
     RDKit          3D

 19 20  0  0  0  0  0  0  0  0999 V2000
    2.6457    0.0071    0.4013 C   0  0  0  0  0  0  0  0  0  0  0  0
    1.2003   -0.0163    0.0693 C   0  0  0  0  0  0  0  0  0  0  0  0
    0.1969    0.4850    0.8117 C   0  0  0  0  0  0  0  0  0  0  0  0
   -1.0309    0.3395   -0.0283 C   0  0  0  0  0  0  0  0  0  0  0  0
   -2.0934    1.2977    0.2428 C   0  0  0  0  0  0  0  0  0  0  0  0
   -1.3915   -1.0814   -0.0418 C   0  0  0  0  0  0  0  0  0  0  0  0
   -0.4194   -1.6909   -0.7264 C   0  0  0  0  0  0  0  0  0  0  0  0
    0.5048   -0.5775   -1.1241 C   0  0  0  0  0  0  0  0  0  0  0  0
   -0.4461    0.4564   -1.3166 O   0  0  0  0  0  0  0  0  0  0  0  0
    2.7800   -0.1596    1.4723 H   0  0  0  0  0  0  0  0  0  0  0  0
    3.1165    1.0019    0.1650 H   0  0  0  0  0  0  0  0  0  0  0  0
    3.1709   -0.7556   -0.2303 H   0  0  0  0  0  0  0  0  0  0  0  0
    0.3221    0.8942    1.8058 H   0  0  0  0  0  0  0  0  0  0  0  0
   -2.3208    1.8965   -0.6814 H   0  0  0  0  0  0  0  0  0  0  0  0
   -1.7292    2.0622    0.9842 H   0  0  0  0  0  0  0  0  0  0  0  0
   -3.0187    0.8793    0.6878 H   0  0  0  0  0  0  0  0  0  0  0  0
   -2.2671   -1.5114    0.4158 H   0  0  0  0  0  0  0  0  0  0  0  0
   -0.3377   -2.7512   -0.9349 H   0  0  0  0  0  0  0  0  0  0  0  0
    1.1175   -0.7761   -1.9722 H   0  0  0  0  0  0  0  0  0  0  0  0
  1  2  1  0
  2  3  2  0
  3  4  1  0
  4  5  1  0
  4  6  1  0
  6  7  2  0
  7  8  1  0
  8  9  1  0
  8  2  1  0
  9  4  1  0
  1 10  1  0
  1 11  1  0
  1 12  1  0
  3 13  1  0
  5 14  1  0
  5 15  1  0
  5 16  1  0
  6 17  1  0
  7 18  1  0
  8 19  1  0
M  END
