
     RDKit          3D

 23 23  0  0  0  0  0  0  0  0999 V2000
   -2.1556   -1.5654   -0.0268 C   0  0  0  0  0  0  0  0  0  0  0  0
   -0.9635   -0.6417   -0.0636 C   0  0  0  0  0  0  0  0  0  0  0  0
    0.1451   -0.9416   -0.6847 C   0  0  0  0  0  0  0  0  0  0  0  0
    1.3516   -0.0904   -0.7643 C   0  0  0  0  0  0  0  0  0  0  0  0
    2.4666   -0.8466   -0.0501 C   0  0  0  0  0  0  0  0  0  0  0  0
    1.2005    1.2688   -0.2178 C   0  0  0  0  0  0  0  0  0  0  0  0
   -0.1338    1.6902    0.2279 C   0  0  0  0  0  0  0  0  0  0  0  0
   -1.0893    0.6405    0.6390 C   0  0  0  0  0  0  0  0  0  0  0  0
   -2.4051    1.1011    0.4292 O   0  0  0  0  0  0  0  0  0  0  0  0
   -2.7480   -1.3713    0.9079 H   0  0  0  0  0  0  0  0  0  0  0  0
   -1.8726   -2.6151   -0.0320 H   0  0  0  0  0  0  0  0  0  0  0  0
   -2.8085   -1.2752   -0.8615 H   0  0  0  0  0  0  0  0  0  0  0  0
    0.1924   -1.9060   -1.1932 H   0  0  0  0  0  0  0  0  0  0  0  0
    1.6605   -0.0883   -1.8513 H   0  0  0  0  0  0  0  0  0  0  0  0
    3.0789   -1.4445   -0.7383 H   0  0  0  0  0  0  0  0  0  0  0  0
    3.1545   -0.0638    0.3818 H   0  0  0  0  0  0  0  0  0  0  0  0
    2.0858   -1.4291    0.7966 H   0  0  0  0  0  0  0  0  0  0  0  0
    1.5480    2.0007   -1.0089 H   0  0  0  0  0  0  0  0  0  0  0  0
    1.9552    1.4243    0.6101 H   0  0  0  0  0  0  0  0  0  0  0  0
   -0.6412    2.3349   -0.5498 H   0  0  0  0  0  0  0  0  0  0  0  0
   -0.0191    2.3930    1.1072 H   0  0  0  0  0  0  0  0  0  0  0  0
   -1.0285    0.4240    1.7365 H   0  0  0  0  0  0  0  0  0  0  0  0
   -2.9740    1.0015    1.2061 H   0  0  0  0  0  0  0  0  0  0  0  0
  1  2  1  0
  2  3  2  0
  3  4  1  0
  4  5  1  0
  4  6  1  0
  6  7  1  0
  7  8  1  0
  8  9  1  0
  8  2  1  0
  1 10  1  0
  1 11  1  0
  1 12  1  0
  3 13  1  0
  4 14  1  0
  5 15  1  0
  5 16  1  0
  5 17  1  0
  6 18  1  0
  6 19  1  0
  7 20  1  0
  7 21  1  0
  8 22  1  0
  9 23  1  0
M  END
