
     RDKit          3D

 19 20  0  0  0  0  0  0  0  0999 V2000
   -1.3087    1.8033    0.0588 C   0  0  0  0  0  0  0  0  0  0  0  0
   -0.3490    0.7096    0.1370 C   0  0  0  0  0  0  0  0  0  0  0  0
    0.9602    0.9557    0.1299 C   0  0  0  0  0  0  0  0  0  0  0  0
    2.0031   -0.1014    0.2064 C   0  0  0  0  0  0  0  0  0  0  0  0
    1.5039   -1.3950   -0.0362 O   0  0  0  0  0  0  0  0  0  0  0  0
    0.4059   -1.2726   -0.8055 C   0  0  0  0  0  0  0  0  0  0  0  0
   -0.9372   -1.7087   -0.7185 C   0  0  0  0  0  0  0  0  0  0  0  0
   -0.6434   -0.7086    0.2263 C   0  0  0  0  0  0  0  0  0  0  0  0
   -0.4703   -1.1569    1.5638 O   0  0  0  0  0  0  0  0  0  0  0  0
   -1.5938    1.9523   -1.0197 H   0  0  0  0  0  0  0  0  0  0  0  0
   -0.9563    2.7470    0.5216 H   0  0  0  0  0  0  0  0  0  0  0  0
   -2.2641    1.4923    0.5563 H   0  0  0  0  0  0  0  0  0  0  0  0
    1.3325    1.9810    0.0649 H   0  0  0  0  0  0  0  0  0  0  0  0
    2.5529   -0.0913    1.1658 H   0  0  0  0  0  0  0  0  0  0  0  0
    2.7592    0.0905   -0.5935 H   0  0  0  0  0  0  0  0  0  0  0  0
    0.6433   -0.6147   -1.6970 H   0  0  0  0  0  0  0  0  0  0  0  0
   -1.6453   -1.4638   -1.5576 H   0  0  0  0  0  0  0  0  0  0  0  0
   -1.1448   -2.7450   -0.3722 H   0  0  0  0  0  0  0  0  0  0  0  0
   -0.8483   -0.4736    2.1692 H   0  0  0  0  0  0  0  0  0  0  0  0
  1  2  1  0
  2  3  2  0
  3  4  1  0
  4  5  1  0
  5  6  1  0
  6  7  1  0
  7  8  1  0
  8  9  1  0
  8  2  1  0
  8  6  1  0
  1 10  1  0
  1 11  1  0
  1 12  1  0
  3 13  1  0
  4 14  1  0
  4 15  1  0
  6 16  1  0
  7 17  1  0
  7 18  1  0
  9 19  1  0
M  END
