
     RDKit          3D

 19 19  0  0  0  0  0  0  0  0999 V2000
   -2.0779   -0.8844    0.1498 C   0  0  0  0  0  0  0  0  0  0  0  0
   -0.7121   -0.3934   -0.1882 C   0  0  0  0  0  0  0  0  0  0  0  0
    0.2412   -1.1804   -0.6747 C   0  0  0  0  0  0  0  0  0  0  0  0
    1.4712   -0.3751   -0.8989 C   0  0  0  0  0  0  0  0  0  0  0  0
    2.6326   -1.1021   -0.7703 O   0  0  0  0  0  0  0  0  0  0  0  0
    1.3104    0.6941    0.1501 C   0  0  0  0  0  0  0  0  0  0  0  0
   -0.1814    1.0122   -0.0476 C   0  0  0  0  0  0  0  0  0  0  0  0
   -0.7024    1.6996    1.1217 C   0  0  0  0  0  0  0  0  0  0  0  0
   -0.9237    2.8888    1.0807 O   0  0  0  0  0  0  0  0  0  0  0  0
   -2.0091   -1.8469    0.6910 H   0  0  0  0  0  0  0  0  0  0  0  0
   -2.6736   -0.1263    0.6899 H   0  0  0  0  0  0  0  0  0  0  0  0
   -2.6680   -1.1132   -0.7857 H   0  0  0  0  0  0  0  0  0  0  0  0
    0.1684   -2.2329   -0.8840 H   0  0  0  0  0  0  0  0  0  0  0  0
    1.3579    0.0952   -1.8966 H   0  0  0  0  0  0  0  0  0  0  0  0
    2.5682   -1.6275    0.0712 H   0  0  0  0  0  0  0  0  0  0  0  0
    1.4265    0.2000    1.1381 H   0  0  0  0  0  0  0  0  0  0  0  0
    1.9412    1.5660    0.0086 H   0  0  0  0  0  0  0  0  0  0  0  0
   -0.2704    1.5559   -0.9914 H   0  0  0  0  0  0  0  0  0  0  0  0
   -0.8991    1.1704    2.0361 H   0  0  0  0  0  0  0  0  0  0  0  0
  1  2  1  0
  2  3  2  0
  3  4  1  0
  4  5  1  0
  4  6  1  0
  6  7  1  0
  7  8  1  0
  8  9  2  0
  7  2  1  0
  1 10  1  0
  1 11  1  0
  1 12  1  0
  3 13  1  0
  4 14  1  0
  5 15  1  0
  6 16  1  0
  6 17  1  0
  7 18  1  0
  8 19  1  0
M  END
