
     RDKit          3D

 23 23  0  0  0  0  0  0  0  0999 V2000
    2.8673   -0.2232    0.2650 C   0  0  0  0  0  0  0  0  0  0  0  0
    1.3829   -0.2028    0.0795 C   0  0  0  0  0  0  0  0  0  0  0  0
    0.7723   -1.3490   -0.0871 C   0  0  0  0  0  0  0  0  0  0  0  0
   -0.7140   -1.4798   -0.2847 C   0  0  0  0  0  0  0  0  0  0  0  0
   -1.3020   -0.1859    0.2693 C   0  0  0  0  0  0  0  0  0  0  0  0
   -2.7805   -0.1595    0.2652 C   0  0  0  0  0  0  0  0  0  0  0  0
   -0.6596    0.9285   -0.5318 C   0  0  0  0  0  0  0  0  0  0  0  0
    0.7201    1.1262    0.0998 C   0  0  0  0  0  0  0  0  0  0  0  0
    1.4477    2.1002   -0.5579 O   0  0  0  0  0  0  0  0  0  0  0  0
    3.0663    0.4445    1.1517 H   0  0  0  0  0  0  0  0  0  0  0  0
    3.3294    0.2199   -0.6226 H   0  0  0  0  0  0  0  0  0  0  0  0
    3.2557   -1.2412    0.4324 H   0  0  0  0  0  0  0  0  0  0  0  0
    1.3390   -2.2728   -0.0879 H   0  0  0  0  0  0  0  0  0  0  0  0
   -1.1169   -2.3680    0.2048 H   0  0  0  0  0  0  0  0  0  0  0  0
   -0.9171   -1.4555   -1.3869 H   0  0  0  0  0  0  0  0  0  0  0  0
   -0.9456   -0.1311    1.3320 H   0  0  0  0  0  0  0  0  0  0  0  0
   -3.1575    0.3013    1.2255 H   0  0  0  0  0  0  0  0  0  0  0  0
   -3.2047    0.3977   -0.5971 H   0  0  0  0  0  0  0  0  0  0  0  0
   -3.1564   -1.2159    0.3101 H   0  0  0  0  0  0  0  0  0  0  0  0
   -1.2435    1.8427   -0.5644 H   0  0  0  0  0  0  0  0  0  0  0  0
   -0.4385    0.5691   -1.5795 H   0  0  0  0  0  0  0  0  0  0  0  0
    0.5036    1.4157    1.1660 H   0  0  0  0  0  0  0  0  0  0  0  0
    0.9523    2.9389   -0.5017 H   0  0  0  0  0  0  0  0  0  0  0  0
  1  2  1  0
  2  3  2  0
  3  4  1  0
  4  5  1  0
  5  6  1  0
  5  7  1  0
  7  8  1  0
  8  9  1  0
  8  2  1  0
  1 10  1  0
  1 11  1  0
  1 12  1  0
  3 13  1  0
  4 14  1  0
  4 15  1  0
  5 16  1  0
  6 17  1  0
  6 18  1  0
  6 19  1  0
  7 20  1  0
  7 21  1  0
  8 22  1  0
  9 23  1  0
M  END
