
     RDKit          3D

 17 17  0  0  0  0  0  0  0  0999 V2000
    2.3490   -0.2939   -0.0977 C   0  0  0  0  0  0  0  0  0  0  0  0
    0.9117    0.0176   -0.1791 C   0  0  0  0  0  0  0  0  0  0  0  0
    0.5621    1.2587    0.0556 C   0  0  0  0  0  0  0  0  0  0  0  0
   -0.8069    1.7908    0.0295 C   0  0  0  0  0  0  0  0  0  0  0  0
   -0.9606    3.0335    0.0515 O   0  0  0  0  0  0  0  0  0  0  0  0
   -1.9752    1.0189   -0.0190 O   0  0  0  0  0  0  0  0  0  0  0  0
   -2.1471   -0.2964    0.4424 C   0  0  0  0  0  0  0  0  0  0  0  0
   -1.2547   -1.2459   -0.2640 C   0  0  0  0  0  0  0  0  0  0  0  0
    0.0349   -1.0910   -0.5142 C   0  0  0  0  0  0  0  0  0  0  0  0
    2.5770   -1.3605   -0.2319 H   0  0  0  0  0  0  0  0  0  0  0  0
    2.9649    0.3062   -0.7955 H   0  0  0  0  0  0  0  0  0  0  0  0
    2.6580   -0.0590    0.9646 H   0  0  0  0  0  0  0  0  0  0  0  0
    1.3561    1.9314    0.2841 H   0  0  0  0  0  0  0  0  0  0  0  0
   -3.2088   -0.6126    0.4053 H   0  0  0  0  0  0  0  0  0  0  0  0
   -1.8814   -0.3024    1.5405 H   0  0  0  0  0  0  0  0  0  0  0  0
   -1.7107   -2.1882   -0.6235 H   0  0  0  0  0  0  0  0  0  0  0  0
    0.5315   -1.9074   -1.0488 H   0  0  0  0  0  0  0  0  0  0  0  0
  1  2  1  0
  2  3  2  0
  3  4  1  0
  4  5  2  0
  4  6  1  0
  6  7  1  0
  7  8  1  0
  8  9  2  0
  9  2  1  0
  1 10  1  0
  1 11  1  0
  1 12  1  0
  3 13  1  0
  7 14  1  0
  7 15  1  0
  8 16  1  0
  9 17  1  0
M  END
