
     RDKit          3D

 19 21  0  0  0  0  0  0  0  0999 V2000
    2.6786   -0.3927    0.7136 C   0  0  0  0  0  0  0  0  0  0  0  0
    1.3178    0.0076    0.2935 C   0  0  0  0  0  0  0  0  0  0  0  0
    0.2578   -0.7880    0.2737 C   0  0  0  0  0  0  0  0  0  0  0  0
   -0.9429   -0.0791   -0.1957 C   0  0  0  0  0  0  0  0  0  0  0  0
   -2.2246   -0.3065    0.4664 C   0  0  0  0  0  0  0  0  0  0  0  0
   -1.9914   -0.7701   -0.9867 C   0  0  0  0  0  0  0  0  0  0  0  0
   -0.4591    1.2969   -0.5614 C   0  0  0  0  0  0  0  0  0  0  0  0
    0.5544    1.4145   -1.5082 O   0  0  0  0  0  0  0  0  0  0  0  0
    0.9200    1.3596   -0.1721 C   0  0  0  0  0  0  0  0  0  0  0  0
    2.8344   -0.1462    1.7859 H   0  0  0  0  0  0  0  0  0  0  0  0
    2.8265   -1.5093    0.6511 H   0  0  0  0  0  0  0  0  0  0  0  0
    3.4519    0.0404    0.0612 H   0  0  0  0  0  0  0  0  0  0  0  0
    0.2971   -1.8270    0.5710 H   0  0  0  0  0  0  0  0  0  0  0  0
   -2.2802   -1.1414    1.1977 H   0  0  0  0  0  0  0  0  0  0  0  0
   -2.9735    0.4916    0.6195 H   0  0  0  0  0  0  0  0  0  0  0  0
   -2.4469   -0.1545   -1.7927 H   0  0  0  0  0  0  0  0  0  0  0  0
   -1.9619   -1.8599   -1.1748 H   0  0  0  0  0  0  0  0  0  0  0  0
   -1.1882    2.1116   -0.5663 H   0  0  0  0  0  0  0  0  0  0  0  0
    1.3301    2.2525    0.3244 H   0  0  0  0  0  0  0  0  0  0  0  0
  1  2  1  0
  2  3  2  0
  3  4  1  0
  4  5  1  0
  5  6  1  0
  4  7  1  0
  7  8  1  0
  8  9  1  0
  9  2  1  0
  6  4  1  0
  9  7  1  0
  1 10  1  0
  1 11  1  0
  1 12  1  0
  3 13  1  0
  5 14  1  0
  5 15  1  0
  6 16  1  0
  6 17  1  0
  7 18  1  0
  9 19  1  0
M  END
