
     RDKit          3D

 17 19  0  0  0  0  0  0  0  0999 V2000
    2.0576    0.8397    0.6055 C   0  0  0  0  0  0  0  0  0  0  0  0
    0.8340    0.0987    0.1918 C   0  0  0  0  0  0  0  0  0  0  0  0
   -0.3588    0.6417    0.1037 C   0  0  0  0  0  0  0  0  0  0  0  0
   -1.6429    1.3810    0.0483 C   0  0  0  0  0  0  0  0  0  0  0  0
   -2.2148    0.0954    0.3849 O   0  0  0  0  0  0  0  0  0  0  0  0
   -1.3073   -0.3881   -0.5177 C   0  0  0  0  0  0  0  0  0  0  0  0
   -0.6187   -1.6783   -0.3675 C   0  0  0  0  0  0  0  0  0  0  0  0
    0.4066   -1.8346   -1.3217 O   0  0  0  0  0  0  0  0  0  0  0  0
    0.8183   -1.3389   -0.0971 C   0  0  0  0  0  0  0  0  0  0  0  0
    2.5709    0.3954    1.4611 H   0  0  0  0  0  0  0  0  0  0  0  0
    1.8395    1.8983    0.8642 H   0  0  0  0  0  0  0  0  0  0  0  0
    2.7363    0.8387   -0.2764 H   0  0  0  0  0  0  0  0  0  0  0  0
   -1.8137    2.1316    0.8255 H   0  0  0  0  0  0  0  0  0  0  0  0
   -1.9207    1.6392   -0.9825 H   0  0  0  0  0  0  0  0  0  0  0  0
   -1.6043   -0.0842   -1.5500 H   0  0  0  0  0  0  0  0  0  0  0  0
   -1.0789   -2.5903    0.0061 H   0  0  0  0  0  0  0  0  0  0  0  0
    1.2969   -2.0455    0.6217 H   0  0  0  0  0  0  0  0  0  0  0  0
  1  2  1  0
  2  3  2  0
  3  4  1  0
  4  5  1  0
  5  6  1  0
  6  7  1  0
  7  8  1  0
  8  9  1  0
  9  2  1  0
  6  3  1  0
  9  7  1  0
  1 10  1  0
  1 11  1  0
  1 12  1  0
  4 13  1  0
  4 14  1  0
  6 15  1  0
  7 16  1  0
  9 17  1  0
M  END
