
     RDKit          3D

 22 22  0  0  0  0  0  0  0  0999 V2000
    2.5205    0.2173    0.0299 C   0  0  0  0  0  0  0  0  0  0  0  0
    1.1234   -0.2067   -0.1909 C   0  0  0  0  0  0  0  0  0  0  0  0
    0.0702    0.5836   -0.1725 C   0  0  0  0  0  0  0  0  0  0  0  0
    0.0008    2.0631    0.0665 C   0  0  0  0  0  0  0  0  0  0  0  0
   -1.1649   -0.2228   -0.4396 C   0  0  0  0  0  0  0  0  0  0  0  0
   -2.2649    0.1624    0.5516 C   0  0  0  0  0  0  0  0  0  0  0  0
   -0.7306   -1.6097   -0.0979 C   0  0  0  0  0  0  0  0  0  0  0  0
    0.7190   -1.6224   -0.4702 C   0  0  0  0  0  0  0  0  0  0  0  0
    2.6316    0.8594    0.9399 H   0  0  0  0  0  0  0  0  0  0  0  0
    2.9373    0.7473   -0.8434 H   0  0  0  0  0  0  0  0  0  0  0  0
    3.1946   -0.6580    0.2140 H   0  0  0  0  0  0  0  0  0  0  0  0
   -0.2247    2.2247    1.1411 H   0  0  0  0  0  0  0  0  0  0  0  0
   -0.8608    2.5176   -0.5011 H   0  0  0  0  0  0  0  0  0  0  0  0
    0.9061    2.5836   -0.2762 H   0  0  0  0  0  0  0  0  0  0  0  0
   -1.4502   -0.0589   -1.4747 H   0  0  0  0  0  0  0  0  0  0  0  0
   -3.0851   -0.5697    0.3869 H   0  0  0  0  0  0  0  0  0  0  0  0
   -1.8170    0.0626    1.5633 H   0  0  0  0  0  0  0  0  0  0  0  0
   -2.5853    1.2010    0.4392 H   0  0  0  0  0  0  0  0  0  0  0  0
   -1.3277   -2.4088   -0.5477 H   0  0  0  0  0  0  0  0  0  0  0  0
   -0.7751   -1.7014    1.0272 H   0  0  0  0  0  0  0  0  0  0  0  0
    1.2853   -2.3171    0.1972 H   0  0  0  0  0  0  0  0  0  0  0  0
    0.8974   -1.8471   -1.5423 H   0  0  0  0  0  0  0  0  0  0  0  0
  1  2  1  0
  2  3  2  0
  3  4  1  0
  3  5  1  0
  5  6  1  0
  5  7  1  0
  7  8  1  0
  8  2  1  0
  1  9  1  0
  1 10  1  0
  1 11  1  0
  4 12  1  0
  4 13  1  0
  4 14  1  0
  5 15  1  0
  6 16  1  0
  6 17  1  0
  6 18  1  0
  7 19  1  0
  7 20  1  0
  8 21  1  0
  8 22  1  0
M  END
