
     RDKit          3D

 21 22  0  0  0  0  0  0  0  0999 V2000
    2.7453   -0.0953   -0.0546 C   0  0  0  0  0  0  0  0  0  0  0  0
    1.2753   -0.0479    0.0718 C   0  0  0  0  0  0  0  0  0  0  0  0
    0.4840    0.9025   -0.4878 C   0  0  0  0  0  0  0  0  0  0  0  0
   -0.8642    0.4938   -0.0614 C   0  0  0  0  0  0  0  0  0  0  0  0
   -2.0388    1.2216   -0.4164 C   0  0  0  0  0  0  0  0  0  0  0  0
   -0.6152    0.1327    1.4124 C   0  0  0  0  0  0  0  0  0  0  0  0
    0.3041   -0.9126    0.7633 C   0  0  0  0  0  0  0  0  0  0  0  0
   -0.8076   -1.0198   -0.2718 C   0  0  0  0  0  0  0  0  0  0  0  0
   -0.3138   -1.4026   -1.5001 O   0  0  0  0  0  0  0  0  0  0  0  0
    3.0763   -0.6857   -0.9509 H   0  0  0  0  0  0  0  0  0  0  0  0
    3.2518   -0.4945    0.8236 H   0  0  0  0  0  0  0  0  0  0  0  0
    3.1217    0.9417   -0.2340 H   0  0  0  0  0  0  0  0  0  0  0  0
    0.8051    1.7417   -1.0941 H   0  0  0  0  0  0  0  0  0  0  0  0
   -2.8753    0.5403   -0.7241 H   0  0  0  0  0  0  0  0  0  0  0  0
   -1.8592    1.8825   -1.3081 H   0  0  0  0  0  0  0  0  0  0  0  0
   -2.5034    1.8768    0.3786 H   0  0  0  0  0  0  0  0  0  0  0  0
   -0.0921    0.8924    1.9874 H   0  0  0  0  0  0  0  0  0  0  0  0
   -1.4825   -0.3663    1.8596 H   0  0  0  0  0  0  0  0  0  0  0  0
    0.5878   -1.7531    1.3191 H   0  0  0  0  0  0  0  0  0  0  0  0
   -1.7378   -1.4704    0.0713 H   0  0  0  0  0  0  0  0  0  0  0  0
   -0.4616   -2.3778   -1.5837 H   0  0  0  0  0  0  0  0  0  0  0  0
  1  2  1  0
  2  3  2  0
  3  4  1  0
  4  5  1  0
  4  6  1  0
  6  7  1  0
  7  8  1  0
  8  9  1  0
  7  2  1  0
  8  4  1  0
  1 10  1  0
  1 11  1  0
  1 12  1  0
  3 13  1  0
  5 14  1  0
  5 15  1  0
  5 16  1  0
  6 17  1  0
  6 18  1  0
  7 19  1  0
  8 20  1  0
  9 21  1  0
M  END
