
     RDKit          3D

 21 22  0  0  0  0  0  0  0  0999 V2000
    2.2309    0.7682    0.4792 C   0  0  0  0  0  0  0  0  0  0  0  0
    0.8032    0.6298    0.1412 C   0  0  0  0  0  0  0  0  0  0  0  0
   -0.1294    1.5861   -0.0688 C   0  0  0  0  0  0  0  0  0  0  0  0
   -1.3468    0.8091   -0.3344 C   0  0  0  0  0  0  0  0  0  0  0  0
   -2.5117    1.3657   -0.5712 O   0  0  0  0  0  0  0  0  0  0  0  0
   -1.2427   -0.2901    0.7362 C   0  0  0  0  0  0  0  0  0  0  0  0
    0.0261   -0.6232   -0.0547 C   0  0  0  0  0  0  0  0  0  0  0  0
    0.6251   -1.9107    0.0563 C   0  0  0  0  0  0  0  0  0  0  0  0
   -0.8042   -0.2575   -1.2865 C   0  0  0  0  0  0  0  0  0  0  0  0
    2.4080    1.8216    0.8328 H   0  0  0  0  0  0  0  0  0  0  0  0
    2.8184    0.5419   -0.4315 H   0  0  0  0  0  0  0  0  0  0  0  0
    2.4553    0.0678    1.3184 H   0  0  0  0  0  0  0  0  0  0  0  0
   -0.0399    2.6620   -0.0537 H   0  0  0  0  0  0  0  0  0  0  0  0
   -3.0513    1.4655    0.2604 H   0  0  0  0  0  0  0  0  0  0  0  0
   -2.0277   -1.0416    0.6971 H   0  0  0  0  0  0  0  0  0  0  0  0
   -0.9711    0.1320    1.7065 H   0  0  0  0  0  0  0  0  0  0  0  0
    1.7472   -1.8531   -0.0505 H   0  0  0  0  0  0  0  0  0  0  0  0
    0.3249   -2.6585   -0.7349 H   0  0  0  0  0  0  0  0  0  0  0  0
    0.4238   -2.4235    1.0194 H   0  0  0  0  0  0  0  0  0  0  0  0
   -0.2077    0.2225   -2.0718 H   0  0  0  0  0  0  0  0  0  0  0  0
   -1.5304   -1.0142   -1.5895 H   0  0  0  0  0  0  0  0  0  0  0  0
  1  2  1  0
  2  3  2  0
  3  4  1  0
  4  5  1  0
  4  6  1  0
  6  7  1  0
  7  8  1  0
  7  9  1  0
  7  2  1  0
  9  4  1  0
  1 10  1  0
  1 11  1  0
  1 12  1  0
  3 13  1  0
  5 14  1  0
  6 15  1  0
  6 16  1  0
  8 17  1  0
  8 18  1  0
  8 19  1  0
  9 20  1  0
  9 21  1  0
M  END
