
     RDKit          3D

 23 24  0  0  0  0  0  0  0  0999 V2000
    2.3868   -0.0982   -0.4913 C   0  0  0  0  0  0  0  0  0  0  0  0
    1.0401    0.3935   -0.1419 C   0  0  0  0  0  0  0  0  0  0  0  0
    0.6686    1.6519   -0.1744 C   0  0  0  0  0  0  0  0  0  0  0  0
   -0.7493    1.7904    0.2373 C   0  0  0  0  0  0  0  0  0  0  0  0
   -1.3180    0.4209    0.2612 C   0  0  0  0  0  0  0  0  0  0  0  0
   -1.6940   -0.2053   -1.0372 C   0  0  0  0  0  0  0  0  0  0  0  0
   -0.6207   -1.2548   -0.8651 C   0  0  0  0  0  0  0  0  0  0  0  0
   -0.0797   -0.4452    0.2901 C   0  0  0  0  0  0  0  0  0  0  0  0
    0.0443   -1.1540    1.5939 C   0  0  0  0  0  0  0  0  0  0  0  0
    2.3643   -0.4946   -1.5321 H   0  0  0  0  0  0  0  0  0  0  0  0
    3.1794    0.6630   -0.3531 H   0  0  0  0  0  0  0  0  0  0  0  0
    2.6287   -0.9894    0.1544 H   0  0  0  0  0  0  0  0  0  0  0  0
    1.2826    2.4966   -0.4566 H   0  0  0  0  0  0  0  0  0  0  0  0
   -0.7278    2.1671    1.2955 H   0  0  0  0  0  0  0  0  0  0  0  0
   -1.3119    2.4927   -0.4117 H   0  0  0  0  0  0  0  0  0  0  0  0
   -2.0296    0.2606    1.0901 H   0  0  0  0  0  0  0  0  0  0  0  0
   -2.6974   -0.7185   -0.9743 H   0  0  0  0  0  0  0  0  0  0  0  0
   -1.5967    0.4319   -1.9428 H   0  0  0  0  0  0  0  0  0  0  0  0
   -0.9510   -2.2586   -0.6021 H   0  0  0  0  0  0  0  0  0  0  0  0
    0.0430   -1.2361   -1.7762 H   0  0  0  0  0  0  0  0  0  0  0  0
    0.1387   -0.3774    2.3932 H   0  0  0  0  0  0  0  0  0  0  0  0
   -0.9029   -1.6923    1.7883 H   0  0  0  0  0  0  0  0  0  0  0  0
    0.9022   -1.8442    1.6549 H   0  0  0  0  0  0  0  0  0  0  0  0
  1  2  1  0
  2  3  2  0
  3  4  1  0
  4  5  1  0
  5  6  1  0
  6  7  1  0
  7  8  1  0
  8  9  1  0
  8  2  1  0
  8  5  1  0
  1 10  1  0
  1 11  1  0
  1 12  1  0
  3 13  1  0
  4 14  1  0
  4 15  1  0
  5 16  1  0
  6 17  1  0
  6 18  1  0
  7 19  1  0
  7 20  1  0
  9 21  1  0
  9 22  1  0
  9 23  1  0
M  END
