
     RDKit          3D

 21 22  0  0  0  0  0  0  0  0999 V2000
    2.4652    0.0793    0.1394 C   0  0  0  0  0  0  0  0  0  0  0  0
    1.0379   -0.3389    0.1342 C   0  0  0  0  0  0  0  0  0  0  0  0
    0.5611   -1.5786    0.4153 C   0  0  0  0  0  0  0  0  0  0  0  0
   -0.8990   -1.4018    0.2500 C   0  0  0  0  0  0  0  0  0  0  0  0
   -0.9529   -0.5654   -1.0338 C   0  0  0  0  0  0  0  0  0  0  0  0
   -0.1713    0.4225   -0.1570 C   0  0  0  0  0  0  0  0  0  0  0  0
   -0.1600    1.8098   -0.5063 C   0  0  0  0  0  0  0  0  0  0  0  0
   -1.1125   -0.0625    0.9558 C   0  0  0  0  0  0  0  0  0  0  0  0
   -2.3541    0.4953    0.7899 O   0  0  0  0  0  0  0  0  0  0  0  0
    3.0395   -0.6489    0.7599 H   0  0  0  0  0  0  0  0  0  0  0  0
    2.9004    0.0252   -0.8812 H   0  0  0  0  0  0  0  0  0  0  0  0
    2.5936    1.1238    0.4855 H   0  0  0  0  0  0  0  0  0  0  0  0
    1.1291   -2.4599    0.6894 H   0  0  0  0  0  0  0  0  0  0  0  0
   -1.5795   -2.1795    0.3885 H   0  0  0  0  0  0  0  0  0  0  0  0
   -1.9353   -0.1376   -1.2500 H   0  0  0  0  0  0  0  0  0  0  0  0
   -0.3732   -0.9647   -1.8637 H   0  0  0  0  0  0  0  0  0  0  0  0
   -1.0815    2.3263   -0.1682 H   0  0  0  0  0  0  0  0  0  0  0  0
    0.7385    2.3176   -0.1188 H   0  0  0  0  0  0  0  0  0  0  0  0
   -0.1510    1.9436   -1.6267 H   0  0  0  0  0  0  0  0  0  0  0  0
   -0.6644   -0.0096    1.9641 H   0  0  0  0  0  0  0  0  0  0  0  0
   -3.0307   -0.1961    0.6339 H   0  0  0  0  0  0  0  0  0  0  0  0
  1  2  1  0
  2  3  2  0
  3  4  1  0
  4  5  1  0
  5  6  1  0
  6  7  1  0
  6  8  1  0
  8  9  1  0
  6  2  1  0
  8  4  1  0
  1 10  1  0
  1 11  1  0
  1 12  1  0
  3 13  1  0
  4 14  1  0
  5 15  1  0
  5 16  1  0
  7 17  1  0
  7 18  1  0
  7 19  1  0
  8 20  1  0
  9 21  1  0
M  END
