
     RDKit          3D

 19 20  0  0  0  0  0  0  0  0999 V2000
   -1.2916    1.7332    0.1206 C   0  0  0  0  0  0  0  0  0  0  0  0
   -0.8096    0.2962    0.0874 C   0  0  0  0  0  0  0  0  0  0  0  0
   -1.4236   -0.7224    0.6679 C   0  0  0  0  0  0  0  0  0  0  0  0
   -0.7126   -2.0043    0.4602 C   0  0  0  0  0  0  0  0  0  0  0  0
    0.5540   -1.6011   -0.2033 C   0  0  0  0  0  0  0  0  0  0  0  0
    0.3821   -1.1911   -1.5244 O   0  0  0  0  0  0  0  0  0  0  0  0
    0.3976   -0.1690   -0.5846 C   0  0  0  0  0  0  0  0  0  0  0  0
    1.6161    0.7135   -0.6966 C   0  0  0  0  0  0  0  0  0  0  0  0
    1.6516    1.7313    0.2239 O   0  0  0  0  0  0  0  0  0  0  0  0
   -0.5603    2.2908    0.7422 H   0  0  0  0  0  0  0  0  0  0  0  0
   -2.3201    1.7865    0.5285 H   0  0  0  0  0  0  0  0  0  0  0  0
   -1.2160    2.1778   -0.9047 H   0  0  0  0  0  0  0  0  0  0  0  0
   -2.3691   -0.5837    1.2396 H   0  0  0  0  0  0  0  0  0  0  0  0
   -0.5775   -2.5664    1.4028 H   0  0  0  0  0  0  0  0  0  0  0  0
   -1.3359   -2.6251   -0.2510 H   0  0  0  0  0  0  0  0  0  0  0  0
    1.5381   -1.9415    0.1436 H   0  0  0  0  0  0  0  0  0  0  0  0
    2.5343    0.0803   -0.6307 H   0  0  0  0  0  0  0  0  0  0  0  0
    1.6134    1.1048   -1.7532 H   0  0  0  0  0  0  0  0  0  0  0  0
    2.3291    1.4903    0.9320 H   0  0  0  0  0  0  0  0  0  0  0  0
  1  2  1  0
  2  3  2  0
  3  4  1  0
  4  5  1  0
  5  6  1  0
  6  7  1  0
  7  8  1  0
  8  9  1  0
  7  2  1  0
  7  5  1  0
  1 10  1  0
  1 11  1  0
  1 12  1  0
  3 13  1  0
  4 14  1  0
  4 15  1  0
  5 16  1  0
  8 17  1  0
  8 18  1  0
  9 19  1  0
M  END
