
     RDKit          3D

 19 20  0  0  0  0  0  0  0  0999 V2000
    2.2994   -1.3646   -0.1503 C   0  0  0  0  0  0  0  0  0  0  0  0
    1.2753   -0.2531   -0.1519 C   0  0  0  0  0  0  0  0  0  0  0  0
    1.5800    1.0215    0.0236 C   0  0  0  0  0  0  0  0  0  0  0  0
    0.2797    1.7466   -0.0412 C   0  0  0  0  0  0  0  0  0  0  0  0
    0.0896    2.8635   -0.5320 O   0  0  0  0  0  0  0  0  0  0  0  0
   -0.5735    0.7420    0.6216 C   0  0  0  0  0  0  0  0  0  0  0  0
   -1.3609   -0.3442    0.2392 C   0  0  0  0  0  0  0  0  0  0  0  0
   -2.6722   -0.0342   -0.4912 C   0  0  0  0  0  0  0  0  0  0  0  0
   -0.1312   -0.3365   -0.4156 C   0  0  0  0  0  0  0  0  0  0  0  0
    3.3046   -0.9696   -0.0041 H   0  0  0  0  0  0  0  0  0  0  0  0
    2.2101   -1.9714   -1.0820 H   0  0  0  0  0  0  0  0  0  0  0  0
    2.0892   -2.0831    0.6845 H   0  0  0  0  0  0  0  0  0  0  0  0
    2.5895    1.4564    0.1642 H   0  0  0  0  0  0  0  0  0  0  0  0
   -0.2034    0.6492    1.6800 H   0  0  0  0  0  0  0  0  0  0  0  0
   -1.5545   -1.2121    0.9368 H   0  0  0  0  0  0  0  0  0  0  0  0
   -2.9669   -0.9056   -1.0980 H   0  0  0  0  0  0  0  0  0  0  0  0
   -2.5419    0.8951   -1.0895 H   0  0  0  0  0  0  0  0  0  0  0  0
   -3.4466    0.1351    0.2784 H   0  0  0  0  0  0  0  0  0  0  0  0
   -0.2661   -0.0351   -1.5227 H   0  0  0  0  0  0  0  0  0  0  0  0
  1  2  1  0
  2  3  2  0
  3  4  1  0
  4  5  2  0
  4  6  1  0
  6  7  1  0
  7  8  1  0
  7  9  1  0
  9  2  1  0
  9  6  1  0
  1 10  1  0
  1 11  1  0
  1 12  1  0
  3 13  1  0
  6 14  1  0
  7 15  1  0
  8 16  1  0
  8 17  1  0
  8 18  1  0
  9 19  1  0
M  END
