
     RDKit          3D

 17 17  0  0  0  0  0  0  0  0999 V2000
    2.3326   -0.1164   -0.0289 C   0  0  0  0  0  0  0  0  0  0  0  0
    0.8635    0.0269   -0.0162 C   0  0  0  0  0  0  0  0  0  0  0  0
    0.2950    1.1937    0.3087 C   0  0  0  0  0  0  0  0  0  0  0  0
   -1.1396    1.3679    0.3309 C   0  0  0  0  0  0  0  0  0  0  0  0
   -1.6766    2.4899    0.3233 O   0  0  0  0  0  0  0  0  0  0  0  0
   -1.9894    0.1649    0.3639 C   0  0  0  0  0  0  0  0  0  0  0  0
   -1.3799   -0.8143   -0.6092 C   0  0  0  0  0  0  0  0  0  0  0  0
   -2.0307   -1.2877   -1.5325 O   0  0  0  0  0  0  0  0  0  0  0  0
    0.0463   -1.1610   -0.3739 C   0  0  0  0  0  0  0  0  0  0  0  0
    2.6150   -0.6067    0.9341 H   0  0  0  0  0  0  0  0  0  0  0  0
    2.6005   -0.7334   -0.9073 H   0  0  0  0  0  0  0  0  0  0  0  0
    2.8154    0.8747   -0.0382 H   0  0  0  0  0  0  0  0  0  0  0  0
    0.9269    2.0346    0.5629 H   0  0  0  0  0  0  0  0  0  0  0  0
   -1.8568   -0.2957    1.3779 H   0  0  0  0  0  0  0  0  0  0  0  0
   -3.0461    0.3586    0.1191 H   0  0  0  0  0  0  0  0  0  0  0  0
    0.1217   -1.8908    0.4712 H   0  0  0  0  0  0  0  0  0  0  0  0
    0.5022   -1.6051   -1.2860 H   0  0  0  0  0  0  0  0  0  0  0  0
  1  2  1  0
  2  3  2  0
  3  4  1  0
  4  5  2  0
  4  6  1  0
  6  7  1  0
  7  8  2  0
  7  9  1  0
  9  2  1  0
  1 10  1  0
  1 11  1  0
  1 12  1  0
  3 13  1  0
  6 14  1  0
  6 15  1  0
  9 16  1  0
  9 17  1  0
M  END
