
     RDKit          3D

 19 19  0  0  0  0  0  0  0  0999 V2000
    2.2451   -0.5244    0.4420 C   0  0  0  0  0  0  0  0  0  0  0  0
    0.8837   -0.4327   -0.0902 C   0  0  0  0  0  0  0  0  0  0  0  0
    0.1116    0.6413   -0.0719 C   0  0  0  0  0  0  0  0  0  0  0  0
    0.5194    1.9181    0.4959 C   0  0  0  0  0  0  0  0  0  0  0  0
    1.6464    2.0954    1.0158 O   0  0  0  0  0  0  0  0  0  0  0  0
   -1.1584    0.2957   -0.7040 C   0  0  0  0  0  0  0  0  0  0  0  0
   -2.3143    0.1878    0.2594 C   0  0  0  0  0  0  0  0  0  0  0  0
   -0.9993   -0.9385   -1.3224 O   0  0  0  0  0  0  0  0  0  0  0  0
    0.1101   -1.5420   -0.7562 C   0  0  0  0  0  0  0  0  0  0  0  0
    2.2741   -0.6069    1.5570 H   0  0  0  0  0  0  0  0  0  0  0  0
    2.7142   -1.4524    0.0574 H   0  0  0  0  0  0  0  0  0  0  0  0
    2.9017    0.3174    0.1649 H   0  0  0  0  0  0  0  0  0  0  0  0
   -0.1498    2.7819    0.4907 H   0  0  0  0  0  0  0  0  0  0  0  0
   -1.4113    1.0621   -1.4415 H   0  0  0  0  0  0  0  0  0  0  0  0
   -3.0556   -0.5174   -0.1759 H   0  0  0  0  0  0  0  0  0  0  0  0
   -2.0301   -0.1981    1.2463 H   0  0  0  0  0  0  0  0  0  0  0  0
   -2.8582    1.1584    0.3789 H   0  0  0  0  0  0  0  0  0  0  0  0
    0.7203   -1.9791   -1.5689 H   0  0  0  0  0  0  0  0  0  0  0  0
   -0.1497   -2.2665    0.0227 H   0  0  0  0  0  0  0  0  0  0  0  0
  1  2  1  0
  2  3  2  0
  3  4  1  0
  4  5  2  0
  3  6  1  0
  6  7  1  0
  6  8  1  0
  8  9  1  0
  9  2  1  0
  1 10  1  0
  1 11  1  0
  1 12  1  0
  4 13  1  0
  6 14  1  0
  7 15  1  0
  7 16  1  0
  7 17  1  0
  9 18  1  0
  9 19  1  0
M  END
