
     RDKit          3D

 22 22  0  0  0  0  0  0  0  0999 V2000
    1.2329    1.8912   -0.1120 C   0  0  0  0  0  0  0  0  0  0  0  0
    0.2715    0.7697   -0.1118 C   0  0  0  0  0  0  0  0  0  0  0  0
    0.6950   -0.4601    0.1440 C   0  0  0  0  0  0  0  0  0  0  0  0
    2.1472   -0.6279    0.4201 C   0  0  0  0  0  0  0  0  0  0  0  0
   -0.2304   -1.6569    0.1619 C   0  0  0  0  0  0  0  0  0  0  0  0
   -1.5649   -1.3023   -0.4327 C   0  0  0  0  0  0  0  0  0  0  0  0
   -2.0003    0.0105    0.2249 C   0  0  0  0  0  0  0  0  0  0  0  0
   -1.1681    1.0976   -0.4101 C   0  0  0  0  0  0  0  0  0  0  0  0
    0.7076    2.7753    0.3101 H   0  0  0  0  0  0  0  0  0  0  0  0
    2.1153    1.7186    0.5294 H   0  0  0  0  0  0  0  0  0  0  0  0
    1.5919    2.1759   -1.1093 H   0  0  0  0  0  0  0  0  0  0  0  0
    2.3764   -1.7110    0.3562 H   0  0  0  0  0  0  0  0  0  0  0  0
    2.7546   -0.1502   -0.4018 H   0  0  0  0  0  0  0  0  0  0  0  0
    2.4688   -0.1536    1.3545 H   0  0  0  0  0  0  0  0  0  0  0  0
    0.2484   -2.5230   -0.3284 H   0  0  0  0  0  0  0  0  0  0  0  0
   -0.4222   -1.9456    1.2323 H   0  0  0  0  0  0  0  0  0  0  0  0
   -1.4277   -1.1756   -1.5239 H   0  0  0  0  0  0  0  0  0  0  0  0
   -2.2863   -2.0901   -0.2103 H   0  0  0  0  0  0  0  0  0  0  0  0
   -1.6923   -0.0442    1.3019 H   0  0  0  0  0  0  0  0  0  0  0  0
   -3.0726    0.1806    0.1381 H   0  0  0  0  0  0  0  0  0  0  0  0
   -1.3408    1.1149   -1.5081 H   0  0  0  0  0  0  0  0  0  0  0  0
   -1.4040    2.1062   -0.0249 H   0  0  0  0  0  0  0  0  0  0  0  0
  1  2  1  0
  2  3  2  0
  3  4  1  0
  3  5  1  0
  5  6  1  0
  6  7  1  0
  7  8  1  0
  8  2  1  0
  1  9  1  0
  1 10  1  0
  1 11  1  0
  4 12  1  0
  4 13  1  0
  4 14  1  0
  5 15  1  0
  5 16  1  0
  6 17  1  0
  6 18  1  0
  7 19  1  0
  7 20  1  0
  8 21  1  0
  8 22  1  0
M  END
