
     RDKit          3D

 21 21  0  0  0  0  0  0  0  0999 V2000
   -2.1254    0.7716   -0.1513 C   0  0  0  0  0  0  0  0  0  0  0  0
   -0.6779    0.4831    0.0143 C   0  0  0  0  0  0  0  0  0  0  0  0
   -0.3654   -0.8000    0.1211 C   0  0  0  0  0  0  0  0  0  0  0  0
   -1.4902   -1.7305    0.0597 C   0  0  0  0  0  0  0  0  0  0  0  0
    1.0247   -1.3034    0.2934 C   0  0  0  0  0  0  0  0  0  0  0  0
    1.8143   -0.6945   -0.6427 O   0  0  0  0  0  0  0  0  0  0  0  0
    2.4262    0.4679   -0.2466 C   0  0  0  0  0  0  0  0  0  0  0  0
    1.5143    1.6125   -0.0800 C   0  0  0  0  0  0  0  0  0  0  0  0
    0.1960    1.6714    0.0349 C   0  0  0  0  0  0  0  0  0  0  0  0
   -2.1889    1.6467   -0.8629 H   0  0  0  0  0  0  0  0  0  0  0  0
   -2.6044    1.1097    0.7874 H   0  0  0  0  0  0  0  0  0  0  0  0
   -2.6634   -0.0468   -0.6479 H   0  0  0  0  0  0  0  0  0  0  0  0
   -2.3190   -1.4989    0.7533 H   0  0  0  0  0  0  0  0  0  0  0  0
   -1.8598   -1.8910   -0.9869 H   0  0  0  0  0  0  0  0  0  0  0  0
   -1.1068   -2.7379    0.3751 H   0  0  0  0  0  0  0  0  0  0  0  0
    1.3537   -0.9389    1.3045 H   0  0  0  0  0  0  0  0  0  0  0  0
    1.0891   -2.3940    0.2053 H   0  0  0  0  0  0  0  0  0  0  0  0
    3.0917    0.3180    0.6422 H   0  0  0  0  0  0  0  0  0  0  0  0
    3.1318    0.7525   -1.0752 H   0  0  0  0  0  0  0  0  0  0  0  0
    2.0239    2.5668   -0.0474 H   0  0  0  0  0  0  0  0  0  0  0  0
   -0.2647    2.6359    0.1496 H   0  0  0  0  0  0  0  0  0  0  0  0
  1  2  1  0
  2  3  2  0
  3  4  1  0
  3  5  1  0
  5  6  1  0
  6  7  1  0
  7  8  1  0
  8  9  2  0
  9  2  1  0
  1 10  1  0
  1 11  1  0
  1 12  1  0
  4 13  1  0
  4 14  1  0
  4 15  1  0
  5 16  1  0
  5 17  1  0
  7 18  1  0
  7 19  1  0
  8 20  1  0
  9 21  1  0
M  END
