
     RDKit          3D

 19 19  0  0  0  0  0  0  0  0999 V2000
    2.4791   -0.4360    0.0146 C   0  0  0  0  0  0  0  0  0  0  0  0
    1.0285   -0.0671    0.2085 C   0  0  0  0  0  0  0  0  0  0  0  0
    0.1573   -1.0737    0.2504 C   0  0  0  0  0  0  0  0  0  0  0  0
   -1.3352   -1.0038    0.4310 C   0  0  0  0  0  0  0  0  0  0  0  0
   -1.9342   -0.1997   -0.7282 C   0  0  0  0  0  0  0  0  0  0  0  0
   -1.6992    1.2335   -0.4337 C   0  0  0  0  0  0  0  0  0  0  0  0
   -2.7246    1.9540   -0.3622 O   0  0  0  0  0  0  0  0  0  0  0  0
   -0.4486    1.8003   -0.2400 O   0  0  0  0  0  0  0  0  0  0  0  0
    0.7408    1.3676    0.3301 C   0  0  0  0  0  0  0  0  0  0  0  0
    2.5495   -1.4689   -0.3932 H   0  0  0  0  0  0  0  0  0  0  0  0
    2.8910    0.2547   -0.7295 H   0  0  0  0  0  0  0  0  0  0  0  0
    3.0158   -0.4453    0.9773 H   0  0  0  0  0  0  0  0  0  0  0  0
    0.5892   -2.0623    0.1394 H   0  0  0  0  0  0  0  0  0  0  0  0
   -1.7328   -2.0218    0.3419 H   0  0  0  0  0  0  0  0  0  0  0  0
   -1.6252   -0.5500    1.3774 H   0  0  0  0  0  0  0  0  0  0  0  0
   -1.2724   -0.4416   -1.6103 H   0  0  0  0  0  0  0  0  0  0  0  0
   -2.9782   -0.4533   -0.9142 H   0  0  0  0  0  0  0  0  0  0  0  0
    0.7056    1.6531    1.4226 H   0  0  0  0  0  0  0  0  0  0  0  0
    1.5935    1.9603   -0.0819 H   0  0  0  0  0  0  0  0  0  0  0  0
  1  2  1  0
  2  3  2  0
  3  4  1  0
  4  5  1  0
  5  6  1  0
  6  7  2  0
  6  8  1  0
  8  9  1  0
  9  2  1  0
  1 10  1  0
  1 11  1  0
  1 12  1  0
  3 13  1  0
  4 14  1  0
  4 15  1  0
  5 16  1  0
  5 17  1  0
  9 18  1  0
  9 19  1  0
M  END
