
     RDKit          3D

 21 21  0  0  0  0  0  0  0  0999 V2000
   -2.7048   -0.5415   -0.1862 C   0  0  0  0  0  0  0  0  0  0  0  0
   -1.1932   -0.3282   -0.0590 C   0  0  0  0  0  0  0  0  0  0  0  0
   -0.6037    0.5312    0.7247 C   0  0  0  0  0  0  0  0  0  0  0  0
    0.8560    0.4759    0.5998 C   0  0  0  0  0  0  0  0  0  0  0  0
    1.3755    1.8997    0.5517 C   0  0  0  0  0  0  0  0  0  0  0  0
    1.0712   -0.2339   -0.7240 C   0  0  0  0  0  0  0  0  0  0  0  0
    2.1642   -1.0747   -0.6597 O   0  0  0  0  0  0  0  0  0  0  0  0
   -0.1726   -1.0806   -0.8156 C   0  0  0  0  0  0  0  0  0  0  0  0
    0.0131   -2.3008   -0.1614 O   0  0  0  0  0  0  0  0  0  0  0  0
   -3.1215   -0.3606    0.8430 H   0  0  0  0  0  0  0  0  0  0  0  0
   -3.1388    0.1766   -0.8854 H   0  0  0  0  0  0  0  0  0  0  0  0
   -2.8509   -1.5766   -0.5266 H   0  0  0  0  0  0  0  0  0  0  0  0
   -1.1059    1.2331    1.4136 H   0  0  0  0  0  0  0  0  0  0  0  0
    1.3651   -0.0499    1.4220 H   0  0  0  0  0  0  0  0  0  0  0  0
    0.8083    2.5215   -0.1644 H   0  0  0  0  0  0  0  0  0  0  0  0
    2.4517    1.9427    0.3547 H   0  0  0  0  0  0  0  0  0  0  0  0
    1.2033    2.3275    1.5621 H   0  0  0  0  0  0  0  0  0  0  0  0
    1.1010    0.4562   -1.5787 H   0  0  0  0  0  0  0  0  0  0  0  0
    3.0346   -0.5989   -0.6696 H   0  0  0  0  0  0  0  0  0  0  0  0
   -0.4838   -1.2682   -1.8621 H   0  0  0  0  0  0  0  0  0  0  0  0
   -0.0688   -2.1505    0.8211 H   0  0  0  0  0  0  0  0  0  0  0  0
  1  2  1  0
  2  3  2  0
  3  4  1  0
  4  5  1  0
  4  6  1  0
  6  7  1  0
  6  8  1  0
  8  9  1  0
  8  2  1  0
  1 10  1  0
  1 11  1  0
  1 12  1  0
  3 13  1  0
  4 14  1  0
  5 15  1  0
  5 16  1  0
  5 17  1  0
  6 18  1  0
  7 19  1  0
  8 20  1  0
  9 21  1  0
M  END
