
     RDKit          3D

 19 19  0  0  0  0  0  0  0  0999 V2000
    2.5730    0.2167   -0.1418 C   0  0  0  0  0  0  0  0  0  0  0  0
    1.0955    0.0504   -0.1057 C   0  0  0  0  0  0  0  0  0  0  0  0
    0.6333   -1.1887   -0.1340 C   0  0  0  0  0  0  0  0  0  0  0  0
   -0.7671   -1.6765   -0.1108 C   0  0  0  0  0  0  0  0  0  0  0  0
   -1.6027   -0.6470    0.5268 C   0  0  0  0  0  0  0  0  0  0  0  0
   -1.9443   -0.8726    1.6584 O   0  0  0  0  0  0  0  0  0  0  0  0
   -2.0720    0.6241   -0.0485 C   0  0  0  0  0  0  0  0  0  0  0  0
   -0.9201    1.5765   -0.0185 C   0  0  0  0  0  0  0  0  0  0  0  0
    0.3702    1.3094   -0.0433 C   0  0  0  0  0  0  0  0  0  0  0  0
    2.9031    0.3046    0.9339 H   0  0  0  0  0  0  0  0  0  0  0  0
    2.8338    1.1750   -0.6639 H   0  0  0  0  0  0  0  0  0  0  0  0
    3.0736   -0.6530   -0.5652 H   0  0  0  0  0  0  0  0  0  0  0  0
    1.3932   -1.9753   -0.1816 H   0  0  0  0  0  0  0  0  0  0  0  0
   -1.1213   -1.9675   -1.1206 H   0  0  0  0  0  0  0  0  0  0  0  0
   -0.7984   -2.5891    0.5139 H   0  0  0  0  0  0  0  0  0  0  0  0
   -2.4589    0.5100   -1.0820 H   0  0  0  0  0  0  0  0  0  0  0  0
   -2.9223    0.9852    0.5630 H   0  0  0  0  0  0  0  0  0  0  0  0
   -1.2537    2.6062    0.0299 H   0  0  0  0  0  0  0  0  0  0  0  0
    0.9851    2.2116   -0.0101 H   0  0  0  0  0  0  0  0  0  0  0  0
  1  2  1  0
  2  3  2  0
  3  4  1  0
  4  5  1  0
  5  6  2  0
  5  7  1  0
  7  8  1  0
  8  9  2  0
  9  2  1  0
  1 10  1  0
  1 11  1  0
  1 12  1  0
  3 13  1  0
  4 14  1  0
  4 15  1  0
  7 16  1  0
  7 17  1  0
  8 18  1  0
  9 19  1  0
M  END
