
     RDKit          3D

 21 21  0  0  0  0  0  0  0  0999 V2000
    2.1759   -0.7375    0.5487 C   0  0  0  0  0  0  0  0  0  0  0  0
    0.9177    0.0470    0.2304 C   0  0  0  0  0  0  0  0  0  0  0  0
    0.8784    1.3295    0.5133 C   0  0  0  0  0  0  0  0  0  0  0  0
   -0.3071    2.1051    0.2222 C   0  0  0  0  0  0  0  0  0  0  0  0
   -0.5037    3.1499    0.8835 O   0  0  0  0  0  0  0  0  0  0  0  0
   -1.2135    1.6154   -0.8392 C   0  0  0  0  0  0  0  0  0  0  0  0
   -1.5019    0.1622   -0.4263 C   0  0  0  0  0  0  0  0  0  0  0  0
   -0.2395   -0.6170   -0.3860 C   0  0  0  0  0  0  0  0  0  0  0  0
   -0.5280   -1.9733    0.2238 C   0  0  0  0  0  0  0  0  0  0  0  0
    2.1752   -1.1027    1.5756 H   0  0  0  0  0  0  0  0  0  0  0  0
    2.2492   -1.5535   -0.2022 H   0  0  0  0  0  0  0  0  0  0  0  0
    3.0763   -0.0979    0.3842 H   0  0  0  0  0  0  0  0  0  0  0  0
    1.7445    1.8257    0.9735 H   0  0  0  0  0  0  0  0  0  0  0  0
   -2.1479    2.1648   -0.9246 H   0  0  0  0  0  0  0  0  0  0  0  0
   -0.6616    1.5194   -1.8170 H   0  0  0  0  0  0  0  0  0  0  0  0
   -2.2127   -0.2464   -1.1520 H   0  0  0  0  0  0  0  0  0  0  0  0
   -2.0241    0.2158    0.5491 H   0  0  0  0  0  0  0  0  0  0  0  0
    0.0590   -0.8380   -1.4538 H   0  0  0  0  0  0  0  0  0  0  0  0
   -0.6291   -1.9238    1.3278 H   0  0  0  0  0  0  0  0  0  0  0  0
   -1.5244   -2.3049   -0.1595 H   0  0  0  0  0  0  0  0  0  0  0  0
    0.2172   -2.7397   -0.0715 H   0  0  0  0  0  0  0  0  0  0  0  0
  1  2  1  0
  2  3  2  0
  3  4  1  0
  4  5  2  0
  4  6  1  0
  6  7  1  0
  7  8  1  0
  8  9  1  0
  8  2  1  0
  1 10  1  0
  1 11  1  0
  1 12  1  0
  3 13  1  0
  6 14  1  0
  6 15  1  0
  7 16  1  0
  7 17  1  0
  8 18  1  0
  9 19  1  0
  9 20  1  0
  9 21  1  0
M  END
