
     RDKit          3D

 18 18  0  0  0  0  0  0  0  0999 V2000
    1.9968    0.5395    0.2221 C   0  0  0  0  0  0  0  0  0  0  0  0
    0.4990    0.4375    0.0604 C   0  0  0  0  0  0  0  0  0  0  0  0
   -0.2081   -0.6562   -0.0140 C   0  0  0  0  0  0  0  0  0  0  0  0
    0.2977   -2.0443    0.0431 C   0  0  0  0  0  0  0  0  0  0  0  0
   -1.6417   -0.3236   -0.1695 C   0  0  0  0  0  0  0  0  0  0  0  0
   -1.7048    1.1457   -0.1949 C   0  0  0  0  0  0  0  0  0  0  0  0
   -2.7177    1.8023   -0.3280 O   0  0  0  0  0  0  0  0  0  0  0  0
   -0.3479    1.6662   -0.0333 C   0  0  0  0  0  0  0  0  0  0  0  0
    2.3571   -0.3465    0.7702 H   0  0  0  0  0  0  0  0  0  0  0  0
    2.2690    1.4602    0.7529 H   0  0  0  0  0  0  0  0  0  0  0  0
    2.4079    0.4757   -0.8039 H   0  0  0  0  0  0  0  0  0  0  0  0
    0.0925   -2.4376    1.0569 H   0  0  0  0  0  0  0  0  0  0  0  0
   -0.2303   -2.6627   -0.7384 H   0  0  0  0  0  0  0  0  0  0  0  0
    1.3539   -2.0444   -0.2286 H   0  0  0  0  0  0  0  0  0  0  0  0
   -2.2527   -0.7380    0.6711 H   0  0  0  0  0  0  0  0  0  0  0  0
   -1.9861   -0.8016   -1.1089 H   0  0  0  0  0  0  0  0  0  0  0  0
   -0.1820    2.2238    0.9134 H   0  0  0  0  0  0  0  0  0  0  0  0
   -0.0026    2.3040   -0.8706 H   0  0  0  0  0  0  0  0  0  0  0  0
  1  2  1  0
  2  3  2  0
  3  4  1  0
  3  5  1  0
  5  6  1  0
  6  7  2  0
  6  8  1  0
  8  2  1  0
  1  9  1  0
  1 10  1  0
  1 11  1  0
  4 12  1  0
  4 13  1  0
  4 14  1  0
  5 15  1  0
  5 16  1  0
  8 17  1  0
  8 18  1  0
M  END
