
     RDKit          3D

 19 20  0  0  0  0  0  0  0  0999 V2000
    2.6348    0.5633    0.0498 C   0  0  0  0  0  0  0  0  0  0  0  0
    1.2041    0.1774    0.0984 C   0  0  0  0  0  0  0  0  0  0  0  0
    0.2603    0.9234    0.6686 C   0  0  0  0  0  0  0  0  0  0  0  0
   -1.0351    0.2602    0.5438 C   0  0  0  0  0  0  0  0  0  0  0  0
   -2.2871    1.0837    0.3640 C   0  0  0  0  0  0  0  0  0  0  0  0
   -2.0030    0.3090    1.4943 O   0  0  0  0  0  0  0  0  0  0  0  0
   -0.8790   -0.8767   -0.4086 C   0  0  0  0  0  0  0  0  0  0  0  0
   -1.5506   -2.0195   -0.0677 O   0  0  0  0  0  0  0  0  0  0  0  0
    0.6209   -1.0580   -0.4615 C   0  0  0  0  0  0  0  0  0  0  0  0
    2.8734    0.9256   -0.9757 H   0  0  0  0  0  0  0  0  0  0  0  0
    2.8566    1.4158    0.7288 H   0  0  0  0  0  0  0  0  0  0  0  0
    3.3226   -0.2439    0.3182 H   0  0  0  0  0  0  0  0  0  0  0  0
    0.4182    1.8796    1.1546 H   0  0  0  0  0  0  0  0  0  0  0  0
   -2.0998    2.1735    0.3922 H   0  0  0  0  0  0  0  0  0  0  0  0
   -3.1121    0.6729   -0.2495 H   0  0  0  0  0  0  0  0  0  0  0  0
   -1.2775   -0.5286   -1.4041 H   0  0  0  0  0  0  0  0  0  0  0  0
   -1.7865   -2.5043   -0.9063 H   0  0  0  0  0  0  0  0  0  0  0  0
    0.9344   -1.9092    0.1749 H   0  0  0  0  0  0  0  0  0  0  0  0
    0.9055   -1.2444   -1.5144 H   0  0  0  0  0  0  0  0  0  0  0  0
  1  2  1  0
  2  3  2  0
  3  4  1  0
  4  5  1  0
  5  6  1  0
  4  7  1  0
  7  8  1  0
  7  9  1  0
  9  2  1  0
  6  4  1  0
  1 10  1  0
  1 11  1  0
  1 12  1  0
  3 13  1  0
  5 14  1  0
  5 15  1  0
  7 16  1  0
  8 17  1  0
  9 18  1  0
  9 19  1  0
M  END
