
     RDKit          3D

 20 21  0  0  0  0  0  0  0  0999 V2000
    2.4118   -0.3160   -0.0348 C   0  0  0  0  0  0  0  0  0  0  0  0
    0.9415   -0.3206    0.1783 C   0  0  0  0  0  0  0  0  0  0  0  0
    0.2919   -1.4581    0.0061 C   0  0  0  0  0  0  0  0  0  0  0  0
   -1.1795   -1.4637    0.2190 C   0  0  0  0  0  0  0  0  0  0  0  0
   -1.7139   -0.2123   -0.4522 C   0  0  0  0  0  0  0  0  0  0  0  0
   -1.1754    0.9710    0.2996 C   0  0  0  0  0  0  0  0  0  0  0  0
   -0.2159    1.9106   -0.4044 C   0  0  0  0  0  0  0  0  0  0  0  0
    0.2598    0.9247    0.5701 C   0  0  0  0  0  0  0  0  0  0  0  0
    2.9220   -0.7045    0.8897 H   0  0  0  0  0  0  0  0  0  0  0  0
    2.6450   -1.0501   -0.8351 H   0  0  0  0  0  0  0  0  0  0  0  0
    2.8107    0.6904   -0.2336 H   0  0  0  0  0  0  0  0  0  0  0  0
    0.8482   -2.3340   -0.2803 H   0  0  0  0  0  0  0  0  0  0  0  0
   -1.4084   -1.3320    1.3160 H   0  0  0  0  0  0  0  0  0  0  0  0
   -1.6519   -2.3829   -0.1733 H   0  0  0  0  0  0  0  0  0  0  0  0
   -1.2449   -0.1861   -1.4693 H   0  0  0  0  0  0  0  0  0  0  0  0
   -2.8014   -0.2068   -0.5344 H   0  0  0  0  0  0  0  0  0  0  0  0
   -1.8826    1.4079    1.0313 H   0  0  0  0  0  0  0  0  0  0  0  0
   -0.1777    1.7384   -1.5036 H   0  0  0  0  0  0  0  0  0  0  0  0
   -0.3261    2.9634   -0.1319 H   0  0  0  0  0  0  0  0  0  0  0  0
    0.6467    1.3606    1.5374 H   0  0  0  0  0  0  0  0  0  0  0  0
  1  2  1  0
  2  3  2  0
  3  4  1  0
  4  5  1  0
  5  6  1  0
  6  7  1  0
  7  8  1  0
  8  2  1  0
  8  6  1  0
  1  9  1  0
  1 10  1  0
  1 11  1  0
  3 12  1  0
  4 13  1  0
  4 14  1  0
  5 15  1  0
  5 16  1  0
  6 17  1  0
  7 18  1  0
  7 19  1  0
  8 20  1  0
M  END
