
     RDKit          3D

 19 21  0  0  0  0  0  0  0  0999 V2000
    2.1418    0.6426    0.2868 C   0  0  0  0  0  0  0  0  0  0  0  0
    0.9002   -0.1781    0.2143 C   0  0  0  0  0  0  0  0  0  0  0  0
    0.7433   -1.4880    0.3012 C   0  0  0  0  0  0  0  0  0  0  0  0
   -0.6956   -1.8446    0.1691 C   0  0  0  0  0  0  0  0  0  0  0  0
   -1.6909   -0.8978    0.8043 C   0  0  0  0  0  0  0  0  0  0  0  0
   -1.2442    0.3429    1.1728 O   0  0  0  0  0  0  0  0  0  0  0  0
   -0.4564    0.4595    0.0195 C   0  0  0  0  0  0  0  0  0  0  0  0
   -0.4685    1.7642   -0.6787 C   0  0  0  0  0  0  0  0  0  0  0  0
   -1.2262   -0.6746   -0.5484 C   0  0  0  0  0  0  0  0  0  0  0  0
    2.4863    0.8868   -0.7354 H   0  0  0  0  0  0  0  0  0  0  0  0
    2.9146    0.0509    0.8250 H   0  0  0  0  0  0  0  0  0  0  0  0
    1.9136    1.5508    0.8525 H   0  0  0  0  0  0  0  0  0  0  0  0
    1.5331   -2.1952    0.4456 H   0  0  0  0  0  0  0  0  0  0  0  0
   -0.9871   -2.8634   -0.0738 H   0  0  0  0  0  0  0  0  0  0  0  0
   -2.7063   -1.2426    1.0347 H   0  0  0  0  0  0  0  0  0  0  0  0
   -1.3102    1.8225   -1.4155 H   0  0  0  0  0  0  0  0  0  0  0  0
   -0.5829    2.6388   -0.0117 H   0  0  0  0  0  0  0  0  0  0  0  0
    0.5090    1.8950   -1.2027 H   0  0  0  0  0  0  0  0  0  0  0  0
   -1.7737   -0.6695   -1.4596 H   0  0  0  0  0  0  0  0  0  0  0  0
  1  2  1  0
  2  3  2  0
  3  4  1  0
  4  5  1  0
  5  6  1  0
  6  7  1  0
  7  8  1  0
  7  9  1  0
  7  2  1  0
  9  4  1  0
  9  5  1  0
  1 10  1  0
  1 11  1  0
  1 12  1  0
  3 13  1  0
  4 14  1  0
  5 15  1  0
  8 16  1  0
  8 17  1  0
  8 18  1  0
  9 19  1  0
M  END
