
     RDKit          3D

 21 22  0  0  0  0  0  0  0  0999 V2000
    2.4809    0.9373   -0.0788 C   0  0  0  0  0  0  0  0  0  0  0  0
    1.1277    0.3310    0.0709 C   0  0  0  0  0  0  0  0  0  0  0  0
    0.1017    1.1235    0.3543 C   0  0  0  0  0  0  0  0  0  0  0  0
   -1.2567    0.5973    0.5157 C   0  0  0  0  0  0  0  0  0  0  0  0
   -2.0855    0.8320   -0.7501 C   0  0  0  0  0  0  0  0  0  0  0  0
   -1.4196   -0.2985   -1.2781 O   0  0  0  0  0  0  0  0  0  0  0  0
   -1.4254   -0.8057    0.0124 C   0  0  0  0  0  0  0  0  0  0  0  0
   -0.2931   -1.6770    0.4096 C   0  0  0  0  0  0  0  0  0  0  0  0
    0.9985   -1.1274   -0.1050 C   0  0  0  0  0  0  0  0  0  0  0  0
    2.9447    1.1646    0.9129 H   0  0  0  0  0  0  0  0  0  0  0  0
    3.1320    0.2733   -0.6822 H   0  0  0  0  0  0  0  0  0  0  0  0
    2.4157    1.9032   -0.6477 H   0  0  0  0  0  0  0  0  0  0  0  0
    0.2768    2.1863    0.4685 H   0  0  0  0  0  0  0  0  0  0  0  0
   -1.7811    0.8388    1.4538 H   0  0  0  0  0  0  0  0  0  0  0  0
   -1.8530    1.7664   -1.2720 H   0  0  0  0  0  0  0  0  0  0  0  0
   -3.1516    0.6488   -0.5072 H   0  0  0  0  0  0  0  0  0  0  0  0
   -2.4411   -1.1743    0.2567 H   0  0  0  0  0  0  0  0  0  0  0  0
   -0.4280   -2.7116    0.0586 H   0  0  0  0  0  0  0  0  0  0  0  0
   -0.2533   -1.6983    1.5380 H   0  0  0  0  0  0  0  0  0  0  0  0
    1.8220   -1.6656    0.4520 H   0  0  0  0  0  0  0  0  0  0  0  0
    1.0883   -1.4441   -1.1822 H   0  0  0  0  0  0  0  0  0  0  0  0
  1  2  1  0
  2  3  2  0
  3  4  1  0
  4  5  1  0
  5  6  1  0
  6  7  1  0
  7  8  1  0
  8  9  1  0
  9  2  1  0
  7  4  1  0
  1 10  1  0
  1 11  1  0
  1 12  1  0
  3 13  1  0
  4 14  1  0
  5 15  1  0
  5 16  1  0
  7 17  1  0
  8 18  1  0
  8 19  1  0
  9 20  1  0
  9 21  1  0
M  END
