
     RDKit          3D

 21 21  0  0  0  0  0  0  0  0999 V2000
   -2.6516    0.8949   -0.4940 C   0  0  0  0  0  0  0  0  0  0  0  0
   -1.3430    0.2209   -0.2579 C   0  0  0  0  0  0  0  0  0  0  0  0
   -0.1821    0.4908   -0.8420 C   0  0  0  0  0  0  0  0  0  0  0  0
    0.8760   -0.4156   -0.3206 C   0  0  0  0  0  0  0  0  0  0  0  0
    0.9546   -1.6005   -1.0136 O   0  0  0  0  0  0  0  0  0  0  0  0
    2.2031    0.2842   -0.1667 C   0  0  0  0  0  0  0  0  0  0  0  0
    2.0297    1.4537    0.5349 O   0  0  0  0  0  0  0  0  0  0  0  0
    0.3132   -0.6915    1.0813 C   0  0  0  0  0  0  0  0  0  0  0  0
   -1.1434   -0.9128    0.7193 C   0  0  0  0  0  0  0  0  0  0  0  0
   -3.1784    0.3129   -1.2703 H   0  0  0  0  0  0  0  0  0  0  0  0
   -2.4802    1.9414   -0.8687 H   0  0  0  0  0  0  0  0  0  0  0  0
   -3.2353    0.9984    0.4431 H   0  0  0  0  0  0  0  0  0  0  0  0
   -0.0627    1.2650   -1.5846 H   0  0  0  0  0  0  0  0  0  0  0  0
    1.7960   -1.6657   -1.5568 H   0  0  0  0  0  0  0  0  0  0  0  0
    2.8632   -0.4328    0.4019 H   0  0  0  0  0  0  0  0  0  0  0  0
    2.6807    0.4494   -1.1428 H   0  0  0  0  0  0  0  0  0  0  0  0
    2.4897    1.4370    1.4147 H   0  0  0  0  0  0  0  0  0  0  0  0
    0.3568    0.2423    1.6691 H   0  0  0  0  0  0  0  0  0  0  0  0
    0.7794   -1.5492    1.5548 H   0  0  0  0  0  0  0  0  0  0  0  0
   -1.8209   -0.8526    1.5669 H   0  0  0  0  0  0  0  0  0  0  0  0
   -1.2448   -1.8704    0.1319 H   0  0  0  0  0  0  0  0  0  0  0  0
  1  2  1  0
  2  3  2  0
  3  4  1  0
  4  5  1  0
  4  6  1  0
  6  7  1  0
  4  8  1  0
  8  9  1  0
  9  2  1  0
  1 10  1  0
  1 11  1  0
  1 12  1  0
  3 13  1  0
  5 14  1  0
  6 15  1  0
  6 16  1  0
  7 17  1  0
  8 18  1  0
  8 19  1  0
  9 20  1  0
  9 21  1  0
M  END
