
     RDKit          3D

 19 19  0  0  0  0  0  0  0  0999 V2000
    2.3899   -0.4188    0.0985 C   0  0  0  0  0  0  0  0  0  0  0  0
    0.9228   -0.1561   -0.0014 C   0  0  0  0  0  0  0  0  0  0  0  0
    0.2198   -1.2775   -0.1558 C   0  0  0  0  0  0  0  0  0  0  0  0
   -1.2365   -1.3936   -0.2872 C   0  0  0  0  0  0  0  0  0  0  0  0
   -1.8479   -0.3294   -0.9053 O   0  0  0  0  0  0  0  0  0  0  0  0
   -2.0285    0.6687    0.0671 C   0  0  0  0  0  0  0  0  0  0  0  0
   -0.8518    1.5663   -0.0350 C   0  0  0  0  0  0  0  0  0  0  0  0
   -1.1214    2.7328   -0.2553 O   0  0  0  0  0  0  0  0  0  0  0  0
    0.5602    1.2568    0.0889 C   0  0  0  0  0  0  0  0  0  0  0  0
    2.7196   -0.8880   -0.8445 H   0  0  0  0  0  0  0  0  0  0  0  0
    2.9774    0.5033    0.2587 H   0  0  0  0  0  0  0  0  0  0  0  0
    2.5772   -1.0760    0.9786 H   0  0  0  0  0  0  0  0  0  0  0  0
    0.7724   -2.2107   -0.1893 H   0  0  0  0  0  0  0  0  0  0  0  0
   -1.4988   -2.3521   -0.8232 H   0  0  0  0  0  0  0  0  0  0  0  0
   -1.6704   -1.5385    0.7459 H   0  0  0  0  0  0  0  0  0  0  0  0
   -2.9632    1.2051   -0.1817 H   0  0  0  0  0  0  0  0  0  0  0  0
   -2.0388    0.2414    1.0900 H   0  0  0  0  0  0  0  0  0  0  0  0
    0.9673    1.6634    1.0543 H   0  0  0  0  0  0  0  0  0  0  0  0
    1.1509    1.8027   -0.7034 H   0  0  0  0  0  0  0  0  0  0  0  0
  1  2  1  0
  2  3  2  0
  3  4  1  0
  4  5  1  0
  5  6  1  0
  6  7  1  0
  7  8  2  0
  7  9  1  0
  9  2  1  0
  1 10  1  0
  1 11  1  0
  1 12  1  0
  3 13  1  0
  4 14  1  0
  4 15  1  0
  6 16  1  0
  6 17  1  0
  9 18  1  0
  9 19  1  0
M  END
