
     RDKit          3D

 19 19  0  0  0  0  0  0  0  0999 V2000
    2.7342    0.6520   -0.0269 C   0  0  0  0  0  0  0  0  0  0  0  0
    1.3527    0.0339   -0.0420 C   0  0  0  0  0  0  0  0  0  0  0  0
    0.3797    0.3012    0.8025 C   0  0  0  0  0  0  0  0  0  0  0  0
   -0.8012   -0.4831    0.4790 C   0  0  0  0  0  0  0  0  0  0  0  0
   -2.1002    0.2718    0.6557 C   0  0  0  0  0  0  0  0  0  0  0  0
   -2.1614    1.4031   -0.1532 O   0  0  0  0  0  0  0  0  0  0  0  0
   -0.5893   -0.9727   -0.9070 C   0  0  0  0  0  0  0  0  0  0  0  0
    0.9052   -0.9523   -1.0113 C   0  0  0  0  0  0  0  0  0  0  0  0
    1.5621   -1.6670   -1.7960 O   0  0  0  0  0  0  0  0  0  0  0  0
    3.0970    0.7630    1.0127 H   0  0  0  0  0  0  0  0  0  0  0  0
    2.7469    1.5923   -0.6001 H   0  0  0  0  0  0  0  0  0  0  0  0
    3.4238   -0.0590   -0.5232 H   0  0  0  0  0  0  0  0  0  0  0  0
    0.5062    1.0390    1.6323 H   0  0  0  0  0  0  0  0  0  0  0  0
   -0.8596   -1.3470    1.1924 H   0  0  0  0  0  0  0  0  0  0  0  0
   -2.1766    0.5233    1.7312 H   0  0  0  0  0  0  0  0  0  0  0  0
   -2.9191   -0.4469    0.4416 H   0  0  0  0  0  0  0  0  0  0  0  0
   -3.1079    1.6809   -0.2106 H   0  0  0  0  0  0  0  0  0  0  0  0
   -0.9391   -2.0289   -1.0336 H   0  0  0  0  0  0  0  0  0  0  0  0
   -1.0534   -0.3035   -1.6435 H   0  0  0  0  0  0  0  0  0  0  0  0
  1  2  1  0
  2  3  2  0
  3  4  1  0
  4  5  1  0
  5  6  1  0
  4  7  1  0
  7  8  1  0
  8  9  2  0
  8  2  1  0
  1 10  1  0
  1 11  1  0
  1 12  1  0
  3 13  1  0
  4 14  1  0
  5 15  1  0
  5 16  1  0
  6 17  1  0
  7 18  1  0
  7 19  1  0
M  END
