
     RDKit          3D

 19 20  0  0  0  0  0  0  0  0999 V2000
    2.1928   -0.5327   -0.3135 C   0  0  0  0  0  0  0  0  0  0  0  0
    0.8170   -0.0119   -0.3348 C   0  0  0  0  0  0  0  0  0  0  0  0
    0.2734    0.8478   -1.1898 C   0  0  0  0  0  0  0  0  0  0  0  0
   -1.1417    1.0366   -0.7855 C   0  0  0  0  0  0  0  0  0  0  0  0
   -0.9521    0.9800    0.7450 C   0  0  0  0  0  0  0  0  0  0  0  0
   -0.2522   -0.3895    0.6613 C   0  0  0  0  0  0  0  0  0  0  0  0
    0.1548   -0.9056    1.8047 O   0  0  0  0  0  0  0  0  0  0  0  0
   -1.3160   -1.1022   -0.1234 C   0  0  0  0  0  0  0  0  0  0  0  0
   -1.8120   -0.1573   -1.0191 O   0  0  0  0  0  0  0  0  0  0  0  0
    2.5451   -0.5899    0.7577 H   0  0  0  0  0  0  0  0  0  0  0  0
    2.8858    0.0884   -0.9096 H   0  0  0  0  0  0  0  0  0  0  0  0
    2.1840   -1.5442   -0.7883 H   0  0  0  0  0  0  0  0  0  0  0  0
    0.7303    1.3382   -2.0280 H   0  0  0  0  0  0  0  0  0  0  0  0
   -1.6242    1.9227   -1.1242 H   0  0  0  0  0  0  0  0  0  0  0  0
   -0.2655    1.7724    1.0166 H   0  0  0  0  0  0  0  0  0  0  0  0
   -1.8944    0.9301    1.2724 H   0  0  0  0  0  0  0  0  0  0  0  0
    0.3931   -0.2370    2.4765 H   0  0  0  0  0  0  0  0  0  0  0  0
   -2.1129   -1.5019    0.5440 H   0  0  0  0  0  0  0  0  0  0  0  0
   -0.8055   -1.9439   -0.6619 H   0  0  0  0  0  0  0  0  0  0  0  0
  1  2  1  0
  2  3  2  0
  3  4  1  0
  4  5  1  0
  5  6  1  0
  6  7  1  0
  6  8  1  0
  8  9  1  0
  6  2  1  0
  9  4  1  0
  1 10  1  0
  1 11  1  0
  1 12  1  0
  3 13  1  0
  4 14  1  0
  5 15  1  0
  5 16  1  0
  7 17  1  0
  8 18  1  0
  8 19  1  0
M  END
