
     RDKit          3D

 17 17  0  0  0  0  0  0  0  0999 V2000
   -2.3605    0.3683   -0.0568 C   0  0  0  0  0  0  0  0  0  0  0  0
   -0.9320   -0.0178    0.0716 C   0  0  0  0  0  0  0  0  0  0  0  0
   -0.4681   -1.2281    0.2196 C   0  0  0  0  0  0  0  0  0  0  0  0
    1.0331   -1.2257    0.3145 C   0  0  0  0  0  0  0  0  0  0  0  0
    1.4257    0.2140    0.4497 C   0  0  0  0  0  0  0  0  0  0  0  0
    2.4583    0.4776   -0.4350 O   0  0  0  0  0  0  0  0  0  0  0  0
    0.1827    0.9770    0.0448 C   0  0  0  0  0  0  0  0  0  0  0  0
   -2.5657    1.2377    0.6026 H   0  0  0  0  0  0  0  0  0  0  0  0
   -2.6395    0.6146   -1.1075 H   0  0  0  0  0  0  0  0  0  0  0  0
   -3.0513   -0.4343    0.2575 H   0  0  0  0  0  0  0  0  0  0  0  0
   -1.0335   -2.1491    0.2740 H   0  0  0  0  0  0  0  0  0  0  0  0
    1.4096   -1.7004   -0.5872 H   0  0  0  0  0  0  0  0  0  0  0  0
    1.3863   -1.8027    1.1827 H   0  0  0  0  0  0  0  0  0  0  0  0
    1.6964    0.4505    1.5001 H   0  0  0  0  0  0  0  0  0  0  0  0
    3.1785    0.9714    0.0428 H   0  0  0  0  0  0  0  0  0  0  0  0
    0.2879    1.4569   -0.9532 H   0  0  0  0  0  0  0  0  0  0  0  0
   -0.0079    1.7900    0.8006 H   0  0  0  0  0  0  0  0  0  0  0  0
  1  2  1  0
  2  3  2  0
  3  4  1  0
  4  5  1  0
  5  6  1  0
  5  7  1  0
  7  2  1  0
  1  8  1  0
  1  9  1  0
  1 10  1  0
  3 11  1  0
  4 12  1  0
  4 13  1  0
  5 14  1  0
  6 15  1  0
  7 16  1  0
  7 17  1  0
M  END
