
     RDKit          3D

 18 19  0  0  0  0  0  0  0  0999 V2000
    2.3373   -0.0376   -0.1514 C   0  0  0  0  0  0  0  0  0  0  0  0
    0.8870    0.1405    0.0753 C   0  0  0  0  0  0  0  0  0  0  0  0
    0.2502    1.2300   -0.3461 C   0  0  0  0  0  0  0  0  0  0  0  0
   -1.2524    1.1872   -0.3438 C   0  0  0  0  0  0  0  0  0  0  0  0
   -1.6867   -0.0641    0.3544 C   0  0  0  0  0  0  0  0  0  0  0  0
   -1.0245   -1.3079   -0.1875 C   0  0  0  0  0  0  0  0  0  0  0  0
    0.0557   -0.8801    0.7835 C   0  0  0  0  0  0  0  0  0  0  0  0
   -0.9368   -0.2228    1.5114 O   0  0  0  0  0  0  0  0  0  0  0  0
    2.5612   -0.8996   -0.8237 H   0  0  0  0  0  0  0  0  0  0  0  0
    2.8638   -0.1236    0.8269 H   0  0  0  0  0  0  0  0  0  0  0  0
    2.7354    0.8604   -0.6408 H   0  0  0  0  0  0  0  0  0  0  0  0
    0.8013    2.1014   -0.6733 H   0  0  0  0  0  0  0  0  0  0  0  0
   -1.5874    2.0504    0.2624 H   0  0  0  0  0  0  0  0  0  0  0  0
   -1.5923    1.2359   -1.3991 H   0  0  0  0  0  0  0  0  0  0  0  0
   -2.7686   -0.1354    0.5472 H   0  0  0  0  0  0  0  0  0  0  0  0
   -1.5426   -2.2066    0.1437 H   0  0  0  0  0  0  0  0  0  0  0  0
   -0.6969   -1.2552   -1.2334 H   0  0  0  0  0  0  0  0  0  0  0  0
    0.5963   -1.6729    1.2943 H   0  0  0  0  0  0  0  0  0  0  0  0
  1  2  1  0
  2  3  2  0
  3  4  1  0
  4  5  1  0
  5  6  1  0
  6  7  1  0
  7  8  1  0
  7  2  1  0
  8  5  1  0
  1  9  1  0
  1 10  1  0
  1 11  1  0
  3 12  1  0
  4 13  1  0
  4 14  1  0
  5 15  1  0
  6 16  1  0
  6 17  1  0
  7 18  1  0
M  END
