
     RDKit          3D

 21 21  0  0  0  0  0  0  0  0999 V2000
    2.7239    0.0114   -0.0846 C   0  0  0  0  0  0  0  0  0  0  0  0
    1.2371    0.0149   -0.1814 C   0  0  0  0  0  0  0  0  0  0  0  0
    0.6171    1.1785   -0.1150 C   0  0  0  0  0  0  0  0  0  0  0  0
   -0.7663    1.6295   -0.1639 C   0  0  0  0  0  0  0  0  0  0  0  0
   -1.8140    0.6073   -0.0096 C   0  0  0  0  0  0  0  0  0  0  0  0
   -1.4575   -0.5998    0.7765 C   0  0  0  0  0  0  0  0  0  0  0  0
   -0.8539   -1.6441   -0.1526 C   0  0  0  0  0  0  0  0  0  0  0  0
    0.5718   -1.2768   -0.3437 C   0  0  0  0  0  0  0  0  0  0  0  0
    1.3201   -2.2311   -0.7015 O   0  0  0  0  0  0  0  0  0  0  0  0
    3.0562    1.0578    0.0270 H   0  0  0  0  0  0  0  0  0  0  0  0
    3.2091   -0.5382   -0.8923 H   0  0  0  0  0  0  0  0  0  0  0  0
    2.9588   -0.5156    0.8799 H   0  0  0  0  0  0  0  0  0  0  0  0
    1.3245    2.0005    0.0068 H   0  0  0  0  0  0  0  0  0  0  0  0
   -0.8858    2.4594    0.5890 H   0  0  0  0  0  0  0  0  0  0  0  0
   -0.9149    2.1408   -1.1613 H   0  0  0  0  0  0  0  0  0  0  0  0
   -2.7052    1.0850    0.4964 H   0  0  0  0  0  0  0  0  0  0  0  0
   -2.2292    0.2546   -0.9992 H   0  0  0  0  0  0  0  0  0  0  0  0
   -2.3412   -1.0252    1.3120 H   0  0  0  0  0  0  0  0  0  0  0  0
   -0.6940   -0.4069    1.5769 H   0  0  0  0  0  0  0  0  0  0  0  0
   -1.3728   -1.5492   -1.1475 H   0  0  0  0  0  0  0  0  0  0  0  0
   -0.9838   -2.6526    0.2882 H   0  0  0  0  0  0  0  0  0  0  0  0
  1  2  1  0
  2  3  2  0
  3  4  1  0
  4  5  1  0
  5  6  1  0
  6  7  1  0
  7  8  1  0
  8  9  2  0
  8  2  1  0
  1 10  1  0
  1 11  1  0
  1 12  1  0
  3 13  1  0
  4 14  1  0
  4 15  1  0
  5 16  1  0
  5 17  1  0
  6 18  1  0
  6 19  1  0
  7 20  1  0
  7 21  1  0
M  END
