
     RDKit          3D

 19 20  0  0  0  0  0  0  0  0999 V2000
   -2.1586   -0.5156    0.4832 C   0  0  0  0  0  0  0  0  0  0  0  0
   -1.0134    0.1503   -0.1678 C   0  0  0  0  0  0  0  0  0  0  0  0
   -1.0234    1.2875   -0.8588 C   0  0  0  0  0  0  0  0  0  0  0  0
    0.3984    1.5318   -1.3121 C   0  0  0  0  0  0  0  0  0  0  0  0
    0.8661    0.1960   -1.3693 O   0  0  0  0  0  0  0  0  0  0  0  0
    0.3810   -0.3044   -0.1890 C   0  0  0  0  0  0  0  0  0  0  0  0
    0.8463   -1.5448    0.4315 C   0  0  0  0  0  0  0  0  0  0  0  0
    1.2688   -0.1726    0.9874 C   0  0  0  0  0  0  0  0  0  0  0  0
    2.6068    0.1635    0.7449 O   0  0  0  0  0  0  0  0  0  0  0  0
   -2.9537   -0.8214   -0.2398 H   0  0  0  0  0  0  0  0  0  0  0  0
   -2.6531    0.1068    1.2562 H   0  0  0  0  0  0  0  0  0  0  0  0
   -1.8274   -1.4373    0.9844 H   0  0  0  0  0  0  0  0  0  0  0  0
   -1.8650    1.9369   -1.0745 H   0  0  0  0  0  0  0  0  0  0  0  0
    0.9926    2.0183   -0.5230 H   0  0  0  0  0  0  0  0  0  0  0  0
    0.4305    2.0229   -2.2869 H   0  0  0  0  0  0  0  0  0  0  0  0
    0.1224   -2.0857    1.0838 H   0  0  0  0  0  0  0  0  0  0  0  0
    1.6319   -2.1404   -0.0797 H   0  0  0  0  0  0  0  0  0  0  0  0
    0.9016    0.1106    1.9761 H   0  0  0  0  0  0  0  0  0  0  0  0
    3.0483   -0.5025    0.1533 H   0  0  0  0  0  0  0  0  0  0  0  0
  1  2  1  0
  2  3  2  0
  3  4  1  0
  4  5  1  0
  5  6  1  0
  6  7  1  0
  7  8  1  0
  8  9  1  0
  6  2  1  0
  8  6  1  0
  1 10  1  0
  1 11  1  0
  1 12  1  0
  3 13  1  0
  4 14  1  0
  4 15  1  0
  7 16  1  0
  7 17  1  0
  8 18  1  0
  9 19  1  0
M  END
