
     RDKit          3D

 19 20  0  0  0  0  0  0  0  0999 V2000
    0.0652    2.1820    0.2087 C   0  0  0  0  0  0  0  0  0  0  0  0
   -0.3957    0.7481    0.0989 C   0  0  0  0  0  0  0  0  0  0  0  0
   -1.6369    0.3775    0.3506 C   0  0  0  0  0  0  0  0  0  0  0  0
   -1.8197   -1.1087    0.1621 C   0  0  0  0  0  0  0  0  0  0  0  0
   -0.6171   -1.4521   -0.6277 C   0  0  0  0  0  0  0  0  0  0  0  0
   -0.4756   -2.3620   -1.3933 O   0  0  0  0  0  0  0  0  0  0  0  0
    0.3746   -0.4305   -0.2696 C   0  0  0  0  0  0  0  0  0  0  0  0
    1.7149   -0.3817   -0.8707 C   0  0  0  0  0  0  0  0  0  0  0  0
    1.5360   -0.7552    0.5950 C   0  0  0  0  0  0  0  0  0  0  0  0
    0.4347    2.5623   -0.7581 H   0  0  0  0  0  0  0  0  0  0  0  0
    0.9081    2.1688    0.9517 H   0  0  0  0  0  0  0  0  0  0  0  0
   -0.7645    2.8259    0.5309 H   0  0  0  0  0  0  0  0  0  0  0  0
   -2.4882    1.0015    0.6616 H   0  0  0  0  0  0  0  0  0  0  0  0
   -1.7056   -1.6293    1.1541 H   0  0  0  0  0  0  0  0  0  0  0  0
   -2.7636   -1.3396   -0.3351 H   0  0  0  0  0  0  0  0  0  0  0  0
    1.9794   -1.2423   -1.5211 H   0  0  0  0  0  0  0  0  0  0  0  0
    2.1122    0.6210   -1.1170 H   0  0  0  0  0  0  0  0  0  0  0  0
    1.6664   -1.8174    0.8855 H   0  0  0  0  0  0  0  0  0  0  0  0
    1.8755    0.0317    1.2936 H   0  0  0  0  0  0  0  0  0  0  0  0
  1  2  1  0
  2  3  2  0
  3  4  1  0
  4  5  1  0
  5  6  2  0
  5  7  1  0
  7  8  1  0
  8  9  1  0
  7  2  1  0
  9  7  1  0
  1 10  1  0
  1 11  1  0
  1 12  1  0
  3 13  1  0
  4 14  1  0
  4 15  1  0
  8 16  1  0
  8 17  1  0
  9 18  1  0
  9 19  1  0
M  END
