
     RDKit          3D

 21 22  0  0  0  0  0  0  0  0999 V2000
   -1.8269   -1.6180    0.2670 C   0  0  0  0  0  0  0  0  0  0  0  0
   -0.6259   -0.7714   -0.0702 C   0  0  0  0  0  0  0  0  0  0  0  0
    0.6132   -1.1744   -0.0132 C   0  0  0  0  0  0  0  0  0  0  0  0
    1.5052   -0.0773   -0.4132 C   0  0  0  0  0  0  0  0  0  0  0  0
    2.6651    0.0965    0.5426 C   0  0  0  0  0  0  0  0  0  0  0  0
    0.6488    1.1146   -0.5468 C   0  0  0  0  0  0  0  0  0  0  0  0
   -0.1786    1.0820   -1.6891 O   0  0  0  0  0  0  0  0  0  0  0  0
   -0.7206    0.6208   -0.4982 C   0  0  0  0  0  0  0  0  0  0  0  0
   -1.8754    1.4603   -0.0035 C   0  0  0  0  0  0  0  0  0  0  0  0
   -2.1940   -1.2111    1.2506 H   0  0  0  0  0  0  0  0  0  0  0  0
   -2.5966   -1.5174   -0.5165 H   0  0  0  0  0  0  0  0  0  0  0  0
   -1.5278   -2.6629    0.4243 H   0  0  0  0  0  0  0  0  0  0  0  0
    0.9489   -2.2106    0.2970 H   0  0  0  0  0  0  0  0  0  0  0  0
    1.9388   -0.4138   -1.4110 H   0  0  0  0  0  0  0  0  0  0  0  0
    3.3299   -0.7910    0.3780 H   0  0  0  0  0  0  0  0  0  0  0  0
    3.2483    0.9704    0.1791 H   0  0  0  0  0  0  0  0  0  0  0  0
    2.3356    0.1737    1.5792 H   0  0  0  0  0  0  0  0  0  0  0  0
    0.9355    2.1032   -0.1442 H   0  0  0  0  0  0  0  0  0  0  0  0
   -2.3331    2.0191   -0.8203 H   0  0  0  0  0  0  0  0  0  0  0  0
   -1.6349    2.0835    0.8589 H   0  0  0  0  0  0  0  0  0  0  0  0
   -2.6557    0.7237    0.3496 H   0  0  0  0  0  0  0  0  0  0  0  0
  1  2  1  0
  2  3  2  0
  3  4  1  0
  4  5  1  0
  4  6  1  0
  6  7  1  0
  7  8  1  0
  8  9  1  0
  8  2  1  0
  8  6  1  0
  1 10  1  0
  1 11  1  0
  1 12  1  0
  3 13  1  0
  4 14  1  0
  5 15  1  0
  5 16  1  0
  5 17  1  0
  6 18  1  0
  9 19  1  0
  9 20  1  0
  9 21  1  0
M  END
