
     RDKit          3D

 18 19  0  0  0  0  0  0  0  0999 V2000
    2.5271   -0.0456    0.3524 C   0  0  0  0  0  0  0  0  0  0  0  0
    1.0474   -0.0416    0.0708 C   0  0  0  0  0  0  0  0  0  0  0  0
    0.2333   -0.8862    0.6490 C   0  0  0  0  0  0  0  0  0  0  0  0
   -1.1487   -0.6663    0.1991 C   0  0  0  0  0  0  0  0  0  0  0  0
   -1.9115   -1.7575   -0.1882 O   0  0  0  0  0  0  0  0  0  0  0  0
   -1.7734    0.6000    0.6439 C   0  0  0  0  0  0  0  0  0  0  0  0
   -1.1354    0.5156   -0.6793 C   0  0  0  0  0  0  0  0  0  0  0  0
    0.3057    0.8427   -0.8353 C   0  0  0  0  0  0  0  0  0  0  0  0
    2.6855   -0.0722    1.4554 H   0  0  0  0  0  0  0  0  0  0  0  0
    2.9643    0.8492   -0.1025 H   0  0  0  0  0  0  0  0  0  0  0  0
    2.9352   -1.0009   -0.0749 H   0  0  0  0  0  0  0  0  0  0  0  0
    0.4767   -1.6830    1.3844 H   0  0  0  0  0  0  0  0  0  0  0  0
   -2.4924   -1.4805   -0.9322 H   0  0  0  0  0  0  0  0  0  0  0  0
   -2.8633    0.6132    0.7632 H   0  0  0  0  0  0  0  0  0  0  0  0
   -1.2433    1.2138    1.4002 H   0  0  0  0  0  0  0  0  0  0  0  0
   -1.7911    0.4586   -1.5940 H   0  0  0  0  0  0  0  0  0  0  0  0
    0.6694    0.6156   -1.8783 H   0  0  0  0  0  0  0  0  0  0  0  0
    0.5146    1.9250   -0.6333 H   0  0  0  0  0  0  0  0  0  0  0  0
  1  2  1  0
  2  3  2  0
  3  4  1  0
  4  5  1  0
  4  6  1  0
  6  7  1  0
  7  8  1  0
  8  2  1  0
  7  4  1  0
  1  9  1  0
  1 10  1  0
  1 11  1  0
  3 12  1  0
  5 13  1  0
  6 14  1  0
  6 15  1  0
  7 16  1  0
  8 17  1  0
  8 18  1  0
M  END
