
     RDKit          3D

 23 23  0  0  0  0  0  0  0  0999 V2000
    2.6763   -0.8302   -0.4401 C   0  0  0  0  0  0  0  0  0  0  0  0
    1.2978   -0.3155   -0.2076 C   0  0  0  0  0  0  0  0  0  0  0  0
    0.1951   -1.0098   -0.3936 C   0  0  0  0  0  0  0  0  0  0  0  0
   -0.9835   -0.1894   -0.0661 C   0  0  0  0  0  0  0  0  0  0  0  0
   -1.9354   -1.0110    0.7673 C   0  0  0  0  0  0  0  0  0  0  0  0
   -1.7033    0.3400   -1.2641 C   0  0  0  0  0  0  0  0  0  0  0  0
   -0.4573    0.9694    0.7607 C   0  0  0  0  0  0  0  0  0  0  0  0
    0.9584    1.0374    0.2564 C   0  0  0  0  0  0  0  0  0  0  0  0
    1.7597    1.4347    1.3290 O   0  0  0  0  0  0  0  0  0  0  0  0
    2.9097   -0.8175   -1.5289 H   0  0  0  0  0  0  0  0  0  0  0  0
    3.4492   -0.2214    0.0807 H   0  0  0  0  0  0  0  0  0  0  0  0
    2.7207   -1.8677   -0.0569 H   0  0  0  0  0  0  0  0  0  0  0  0
    0.1468   -2.0334   -0.7362 H   0  0  0  0  0  0  0  0  0  0  0  0
   -1.4047   -1.9238    1.1690 H   0  0  0  0  0  0  0  0  0  0  0  0
   -2.2928   -0.4702    1.6627 H   0  0  0  0  0  0  0  0  0  0  0  0
   -2.7478   -1.4069    0.1326 H   0  0  0  0  0  0  0  0  0  0  0  0
   -2.7061    0.7121   -0.8999 H   0  0  0  0  0  0  0  0  0  0  0  0
   -1.8287   -0.4277   -2.0665 H   0  0  0  0  0  0  0  0  0  0  0  0
   -1.1572    1.1821   -1.7545 H   0  0  0  0  0  0  0  0  0  0  0  0
   -0.9630    1.9340    0.4895 H   0  0  0  0  0  0  0  0  0  0  0  0
   -0.5069    0.7954    1.8355 H   0  0  0  0  0  0  0  0  0  0  0  0
    1.0429    1.7425   -0.6001 H   0  0  0  0  0  0  0  0  0  0  0  0
    1.5302    2.3769    1.5310 H   0  0  0  0  0  0  0  0  0  0  0  0
  1  2  1  0
  2  3  2  0
  3  4  1  0
  4  5  1  0
  4  6  1  0
  4  7  1  0
  7  8  1  0
  8  9  1  0
  8  2  1  0
  1 10  1  0
  1 11  1  0
  1 12  1  0
  3 13  1  0
  5 14  1  0
  5 15  1  0
  5 16  1  0
  6 17  1  0
  6 18  1  0
  6 19  1  0
  7 20  1  0
  7 21  1  0
  8 22  1  0
  9 23  1  0
M  END
