
     RDKit          3D

 21 22  0  0  0  0  0  0  0  0999 V2000
   -3.0805    0.3790    0.0674 C   0  0  0  0  0  0  0  0  0  0  0  0
   -1.6420    0.0122   -0.0188 C   0  0  0  0  0  0  0  0  0  0  0  0
   -1.1463   -1.1245   -0.4398 C   0  0  0  0  0  0  0  0  0  0  0  0
    0.3182   -1.1068   -0.3761 C   0  0  0  0  0  0  0  0  0  0  0  0
    0.6556    0.0703    0.5490 C   0  0  0  0  0  0  0  0  0  0  0  0
    1.8854    0.7136   -0.0315 C   0  0  0  0  0  0  0  0  0  0  0  0
    3.0715   -0.2415   -0.1018 C   0  0  0  0  0  0  0  0  0  0  0  0
    3.0165    0.8964    0.7150 O   0  0  0  0  0  0  0  0  0  0  0  0
   -0.5493    0.9517    0.3874 C   0  0  0  0  0  0  0  0  0  0  0  0
   -3.7011   -0.2816   -0.5417 H   0  0  0  0  0  0  0  0  0  0  0  0
   -3.1794    1.4185   -0.2906 H   0  0  0  0  0  0  0  0  0  0  0  0
   -3.3476    0.3385    1.1612 H   0  0  0  0  0  0  0  0  0  0  0  0
   -1.7456   -1.9596   -0.7864 H   0  0  0  0  0  0  0  0  0  0  0  0
    0.7396   -0.9216   -1.3996 H   0  0  0  0  0  0  0  0  0  0  0  0
    0.7435   -2.0080    0.0629 H   0  0  0  0  0  0  0  0  0  0  0  0
    0.7792   -0.2635    1.5893 H   0  0  0  0  0  0  0  0  0  0  0  0
    1.6821    1.3353   -0.9237 H   0  0  0  0  0  0  0  0  0  0  0  0
    3.6275   -0.2128   -1.0442 H   0  0  0  0  0  0  0  0  0  0  0  0
    3.0359   -1.1806    0.4747 H   0  0  0  0  0  0  0  0  0  0  0  0
   -0.3702    1.7302   -0.3714 H   0  0  0  0  0  0  0  0  0  0  0  0
   -0.7929    1.4548    1.3636 H   0  0  0  0  0  0  0  0  0  0  0  0
  1  2  1  0
  2  3  2  0
  3  4  1  0
  4  5  1  0
  5  6  1  0
  6  7  1  0
  7  8  1  0
  5  9  1  0
  9  2  1  0
  8  6  1  0
  1 10  1  0
  1 11  1  0
  1 12  1  0
  3 13  1  0
  4 14  1  0
  4 15  1  0
  5 16  1  0
  6 17  1  0
  7 18  1  0
  7 19  1  0
  9 20  1  0
  9 21  1  0
M  END
