
     RDKit          3D

 23 24  0  0  0  0  0  0  0  0999 V2000
    2.6982    1.1110    0.4964 C   0  0  0  0  0  0  0  0  0  0  0  0
    1.5452    0.2720    0.0532 C   0  0  0  0  0  0  0  0  0  0  0  0
    1.6324   -0.6713   -0.8457 C   0  0  0  0  0  0  0  0  0  0  0  0
    0.3300   -1.3416   -1.0894 C   0  0  0  0  0  0  0  0  0  0  0  0
   -0.6161   -0.6452   -0.1607 C   0  0  0  0  0  0  0  0  0  0  0  0
   -1.4633   -1.5540    0.6807 C   0  0  0  0  0  0  0  0  0  0  0  0
   -0.9060    0.7601   -0.3948 C   0  0  0  0  0  0  0  0  0  0  0  0
   -2.2003    1.3851    0.0444 C   0  0  0  0  0  0  0  0  0  0  0  0
    0.1464    0.3989    0.5759 C   0  0  0  0  0  0  0  0  0  0  0  0
    3.5238    0.4156    0.7434 H   0  0  0  0  0  0  0  0  0  0  0  0
    3.0114    1.7323   -0.3701 H   0  0  0  0  0  0  0  0  0  0  0  0
    2.4343    1.7666    1.3255 H   0  0  0  0  0  0  0  0  0  0  0  0
    2.5391   -0.9626   -1.3780 H   0  0  0  0  0  0  0  0  0  0  0  0
   -0.0204   -1.2062   -2.1246 H   0  0  0  0  0  0  0  0  0  0  0  0
    0.4301   -2.4204   -0.8815 H   0  0  0  0  0  0  0  0  0  0  0  0
   -1.6072   -2.5066    0.1276 H   0  0  0  0  0  0  0  0  0  0  0  0
   -2.4407   -1.1607    0.9411 H   0  0  0  0  0  0  0  0  0  0  0  0
   -0.8920   -1.7850    1.6081 H   0  0  0  0  0  0  0  0  0  0  0  0
   -0.5298    1.1912   -1.3654 H   0  0  0  0  0  0  0  0  0  0  0  0
   -2.0859    2.4504    0.3380 H   0  0  0  0  0  0  0  0  0  0  0  0
   -2.6907    0.8629    0.8734 H   0  0  0  0  0  0  0  0  0  0  0  0
   -2.8702    1.3962   -0.8567 H   0  0  0  0  0  0  0  0  0  0  0  0
    0.0316    0.5113    1.6592 H   0  0  0  0  0  0  0  0  0  0  0  0
  1  2  1  0
  2  3  2  0
  3  4  1  0
  4  5  1  0
  5  6  1  0
  5  7  1  0
  7  8  1  0
  7  9  1  0
  9  2  1  0
  9  5  1  0
  1 10  1  0
  1 11  1  0
  1 12  1  0
  3 13  1  0
  4 14  1  0
  4 15  1  0
  6 16  1  0
  6 17  1  0
  6 18  1  0
  7 19  1  0
  8 20  1  0
  8 21  1  0
  8 22  1  0
  9 23  1  0
M  END
