
     RDKit          3D

 17 19  0  0  0  0  0  0  0  0999 V2000
    2.2850   -0.0648   -0.0484 C   0  0  0  0  0  0  0  0  0  0  0  0
    0.8221   -0.3256   -0.0524 C   0  0  0  0  0  0  0  0  0  0  0  0
    0.1837   -1.4803   -0.1279 C   0  0  0  0  0  0  0  0  0  0  0  0
   -1.2858   -1.2554   -0.0976 C   0  0  0  0  0  0  0  0  0  0  0  0
   -1.6602   -0.6481   -1.2928 O   0  0  0  0  0  0  0  0  0  0  0  0
   -1.3401    0.6203   -0.8684 C   0  0  0  0  0  0  0  0  0  0  0  0
   -1.3681    0.0988    0.5367 C   0  0  0  0  0  0  0  0  0  0  0  0
   -0.1825    0.7912    0.0379 C   0  0  0  0  0  0  0  0  0  0  0  0
    0.2013    2.0118    0.5168 O   0  0  0  0  0  0  0  0  0  0  0  0
    2.5368    0.6846   -0.8539 H   0  0  0  0  0  0  0  0  0  0  0  0
    2.5821    0.4373    0.9026 H   0  0  0  0  0  0  0  0  0  0  0  0
    2.8757   -0.9862   -0.2144 H   0  0  0  0  0  0  0  0  0  0  0  0
    0.6272   -2.4563   -0.2012 H   0  0  0  0  0  0  0  0  0  0  0  0
   -1.9077   -2.0473    0.2835 H   0  0  0  0  0  0  0  0  0  0  0  0
   -2.0188    1.4529   -1.1259 H   0  0  0  0  0  0  0  0  0  0  0  0
   -2.0681    0.3998    1.2784 H   0  0  0  0  0  0  0  0  0  0  0  0
   -0.2826    2.7673    0.1092 H   0  0  0  0  0  0  0  0  0  0  0  0
  1  2  1  0
  2  3  2  0
  3  4  1  0
  4  5  1  0
  5  6  1  0
  6  7  1  0
  7  8  1  0
  8  9  1  0
  8  2  1  0
  7  4  1  0
  8  6  1  0
  1 10  1  0
  1 11  1  0
  1 12  1  0
  3 13  1  0
  4 14  1  0
  6 15  1  0
  7 16  1  0
  9 17  1  0
M  END
