
     RDKit          3D

 19 20  0  0  0  0  0  0  0  0999 V2000
    1.9111   -1.4629    0.2680 C   0  0  0  0  0  0  0  0  0  0  0  0
    0.7702   -0.5298    0.2426 C   0  0  0  0  0  0  0  0  0  0  0  0
   -0.4202   -0.8264   -0.2336 C   0  0  0  0  0  0  0  0  0  0  0  0
   -1.6950   -1.3109   -0.8031 C   0  0  0  0  0  0  0  0  0  0  0  0
   -1.8773    0.0399   -1.2382 O   0  0  0  0  0  0  0  0  0  0  0  0
   -1.3374    0.3755   -0.0195 C   0  0  0  0  0  0  0  0  0  0  0  0
   -0.3951    1.5403    0.0706 C   0  0  0  0  0  0  0  0  0  0  0  0
   -0.0939    2.1310   -1.1296 O   0  0  0  0  0  0  0  0  0  0  0  0
    0.8182    0.8872    0.7284 C   0  0  0  0  0  0  0  0  0  0  0  0
    1.7545   -2.1405    1.1499 H   0  0  0  0  0  0  0  0  0  0  0  0
    2.8550   -0.9268    0.4746 H   0  0  0  0  0  0  0  0  0  0  0  0
    2.0418   -2.0465   -0.6550 H   0  0  0  0  0  0  0  0  0  0  0  0
   -2.4038   -1.5808    0.0174 H   0  0  0  0  0  0  0  0  0  0  0  0
   -1.6340   -2.0129   -1.6400 H   0  0  0  0  0  0  0  0  0  0  0  0
   -2.0510    0.2407    0.7972 H   0  0  0  0  0  0  0  0  0  0  0  0
   -0.7918    2.2771    0.7930 H   0  0  0  0  0  0  0  0  0  0  0  0
    0.0946    3.1048   -0.9404 H   0  0  0  0  0  0  0  0  0  0  0  0
    1.7273    1.3936    0.3712 H   0  0  0  0  0  0  0  0  0  0  0  0
    0.7266    0.8477    1.8296 H   0  0  0  0  0  0  0  0  0  0  0  0
  1  2  1  0
  2  3  2  0
  3  4  1  0
  4  5  1  0
  5  6  1  0
  6  7  1  0
  7  8  1  0
  7  9  1  0
  9  2  1  0
  6  3  1  0
  1 10  1  0
  1 11  1  0
  1 12  1  0
  4 13  1  0
  4 14  1  0
  6 15  1  0
  7 16  1  0
  8 17  1  0
  9 18  1  0
  9 19  1  0
M  END
