
     RDKit          3D

 18 19  0  0  0  0  0  0  0  0999 V2000
    2.4140   -0.1571   -0.0620 C   0  0  0  0  0  0  0  0  0  0  0  0
    0.9395   -0.1323    0.0518 C   0  0  0  0  0  0  0  0  0  0  0  0
    0.1921   -0.3795    1.1271 C   0  0  0  0  0  0  0  0  0  0  0  0
   -1.2436   -0.2670    0.7047 C   0  0  0  0  0  0  0  0  0  0  0  0
   -1.4745    1.1649    0.3349 C   0  0  0  0  0  0  0  0  0  0  0  0
   -0.6063    1.3918   -0.7263 O   0  0  0  0  0  0  0  0  0  0  0  0
   -0.0024    0.1855   -1.0576 C   0  0  0  0  0  0  0  0  0  0  0  0
   -1.1112   -0.8349   -0.7226 C   0  0  0  0  0  0  0  0  0  0  0  0
    2.8080   -1.1183   -0.4422 H   0  0  0  0  0  0  0  0  0  0  0  0
    2.7815    0.6677   -0.7381 H   0  0  0  0  0  0  0  0  0  0  0  0
    2.8619    0.0786    0.9466 H   0  0  0  0  0  0  0  0  0  0  0  0
    0.5223   -0.6191    2.1288 H   0  0  0  0  0  0  0  0  0  0  0  0
   -1.9528   -0.7552    1.3144 H   0  0  0  0  0  0  0  0  0  0  0  0
   -1.2563    1.8148    1.2057 H   0  0  0  0  0  0  0  0  0  0  0  0
   -2.5340    1.3469    0.0234 H   0  0  0  0  0  0  0  0  0  0  0  0
    0.3789    0.0986   -2.0453 H   0  0  0  0  0  0  0  0  0  0  0  0
   -0.7282   -1.8489   -0.7168 H   0  0  0  0  0  0  0  0  0  0  0  0
   -1.9888   -0.6365   -1.3268 H   0  0  0  0  0  0  0  0  0  0  0  0
  1  2  1  0
  2  3  2  0
  3  4  1  0
  4  5  1  0
  5  6  1  0
  6  7  1  0
  7  8  1  0
  7  2  1  0
  8  4  1  0
  1  9  1  0
  1 10  1  0
  1 11  1  0
  3 12  1  0
  4 13  1  0
  5 14  1  0
  5 15  1  0
  7 16  1  0
  8 17  1  0
  8 18  1  0
M  END
