
     RDKit          3D

 17 17  0  0  0  0  0  0  0  0999 V2000
    2.2195   -0.6286   -0.3431 C   0  0  0  0  0  0  0  0  0  0  0  0
    0.8060   -0.1512   -0.1484 C   0  0  0  0  0  0  0  0  0  0  0  0
   -0.1693   -1.0500   -0.2304 C   0  0  0  0  0  0  0  0  0  0  0  0
   -1.5676   -0.5497   -0.0329 C   0  0  0  0  0  0  0  0  0  0  0  0
   -1.9834    0.1587   -1.1826 O   0  0  0  0  0  0  0  0  0  0  0  0
   -1.5192    0.3813    1.1252 C   0  0  0  0  0  0  0  0  0  0  0  0
   -2.3670    0.2732    2.0495 O   0  0  0  0  0  0  0  0  0  0  0  0
   -0.5140    1.3404    1.1172 O   0  0  0  0  0  0  0  0  0  0  0  0
    0.5096    1.2984    0.1302 C   0  0  0  0  0  0  0  0  0  0  0  0
    2.4992   -1.2977    0.5042 H   0  0  0  0  0  0  0  0  0  0  0  0
    2.8784    0.2605   -0.2570 H   0  0  0  0  0  0  0  0  0  0  0  0
    2.3457   -1.1359   -1.3048 H   0  0  0  0  0  0  0  0  0  0  0  0
    0.0113   -2.0945   -0.4285 H   0  0  0  0  0  0  0  0  0  0  0  0
   -2.2875   -1.3628    0.1235 H   0  0  0  0  0  0  0  0  0  0  0  0
   -2.4877    0.9687   -0.9030 H   0  0  0  0  0  0  0  0  0  0  0  0
    1.3988    1.7511    0.5727 H   0  0  0  0  0  0  0  0  0  0  0  0
    0.2273    1.8382   -0.7919 H   0  0  0  0  0  0  0  0  0  0  0  0
  1  2  1  0
  2  3  2  0
  3  4  1  0
  4  5  1  0
  4  6  1  0
  6  7  2  0
  6  8  1  0
  8  9  1  0
  9  2  1  0
  1 10  1  0
  1 11  1  0
  1 12  1  0
  3 13  1  0
  4 14  1  0
  5 15  1  0
  9 16  1  0
  9 17  1  0
M  END
