
     RDKit          3D

 19 21  0  0  0  0  0  0  0  0999 V2000
    2.6623    0.2733    0.0635 C   0  0  0  0  0  0  0  0  0  0  0  0
    1.2349    0.1297   -0.2835 C   0  0  0  0  0  0  0  0  0  0  0  0
    0.5929    0.7388   -1.2696 C   0  0  0  0  0  0  0  0  0  0  0  0
   -0.8374    0.3248   -1.2848 C   0  0  0  0  0  0  0  0  0  0  0  0
   -0.9867   -1.0281   -1.6514 O   0  0  0  0  0  0  0  0  0  0  0  0
   -0.7804   -1.4507   -0.3550 C   0  0  0  0  0  0  0  0  0  0  0  0
    0.2596   -0.7580    0.4544 C   0  0  0  0  0  0  0  0  0  0  0  0
   -1.0305   -0.1173    0.1275 C   0  0  0  0  0  0  0  0  0  0  0  0
   -2.0314    0.3650    1.0485 C   0  0  0  0  0  0  0  0  0  0  0  0
    2.7497    0.9042    0.9809 H   0  0  0  0  0  0  0  0  0  0  0  0
    3.1017   -0.7310    0.2819 H   0  0  0  0  0  0  0  0  0  0  0  0
    3.2067    0.7281   -0.7827 H   0  0  0  0  0  0  0  0  0  0  0  0
    1.0687    1.4316   -1.9483 H   0  0  0  0  0  0  0  0  0  0  0  0
   -1.5483    1.0171   -1.7177 H   0  0  0  0  0  0  0  0  0  0  0  0
   -1.2472   -2.3809    0.0087 H   0  0  0  0  0  0  0  0  0  0  0  0
    0.5001   -1.0852    1.4603 H   0  0  0  0  0  0  0  0  0  0  0  0
   -2.1235    1.4861    0.9906 H   0  0  0  0  0  0  0  0  0  0  0  0
   -1.7256    0.1654    2.1029 H   0  0  0  0  0  0  0  0  0  0  0  0
   -3.0657   -0.0130    0.9189 H   0  0  0  0  0  0  0  0  0  0  0  0
  1  2  1  0
  2  3  2  0
  3  4  1  0
  4  5  1  0
  5  6  1  0
  6  7  1  0
  7  8  1  0
  8  9  1  0
  7  2  1  0
  8  4  1  0
  8  6  1  0
  1 10  1  0
  1 11  1  0
  1 12  1  0
  3 13  1  0
  4 14  1  0
  6 15  1  0
  7 16  1  0
  9 17  1  0
  9 18  1  0
  9 19  1  0
M  END
