
     RDKit          3D

 19 20  0  0  0  0  0  0  0  0999 V2000
   -2.3961   -0.8757    0.2713 C   0  0  0  0  0  0  0  0  0  0  0  0
   -1.1452   -0.0662    0.2721 C   0  0  0  0  0  0  0  0  0  0  0  0
   -1.0764    1.2578    0.3891 C   0  0  0  0  0  0  0  0  0  0  0  0
    0.4140    1.6090    0.3279 C   0  0  0  0  0  0  0  0  0  0  0  0
    0.7268    0.5851   -0.7310 C   0  0  0  0  0  0  0  0  0  0  0  0
    1.2346   -0.7110   -0.7447 C   0  0  0  0  0  0  0  0  0  0  0  0
    2.6531   -0.9100   -0.3091 C   0  0  0  0  0  0  0  0  0  0  0  0
    3.4253   -1.6698   -0.8161 O   0  0  0  0  0  0  0  0  0  0  0  0
    0.2001   -0.5636    0.1932 C   0  0  0  0  0  0  0  0  0  0  0  0
   -3.1862   -0.3854    0.9005 H   0  0  0  0  0  0  0  0  0  0  0  0
   -2.2485   -1.8849    0.7010 H   0  0  0  0  0  0  0  0  0  0  0  0
   -2.8509   -0.9409   -0.7510 H   0  0  0  0  0  0  0  0  0  0  0  0
   -1.8593    1.9888    0.5053 H   0  0  0  0  0  0  0  0  0  0  0  0
    0.4912    2.6340   -0.0210 H   0  0  0  0  0  0  0  0  0  0  0  0
    0.9212    1.3483    1.2512 H   0  0  0  0  0  0  0  0  0  0  0  0
    0.0719    0.8488   -1.6235 H   0  0  0  0  0  0  0  0  0  0  0  0
    1.0152   -1.3907   -1.6238 H   0  0  0  0  0  0  0  0  0  0  0  0
    3.0096   -0.3086    0.5445 H   0  0  0  0  0  0  0  0  0  0  0  0
    0.5996   -0.5651    1.2641 H   0  0  0  0  0  0  0  0  0  0  0  0
  1  2  1  0
  2  3  2  0
  3  4  1  0
  4  5  1  0
  5  6  1  0
  6  7  1  0
  7  8  2  0
  6  9  1  0
  9  2  1  0
  9  5  1  0
  1 10  1  0
  1 11  1  0
  1 12  1  0
  3 13  1  0
  4 14  1  0
  4 15  1  0
  5 16  1  0
  6 17  1  0
  7 18  1  0
  9 19  1  0
M  END
