
     RDKit          3D

 19 20  0  0  0  0  0  0  0  0999 V2000
    2.5584   -0.1734    0.1394 C   0  0  0  0  0  0  0  0  0  0  0  0
    1.0923   -0.0504    0.0719 C   0  0  0  0  0  0  0  0  0  0  0  0
    0.2848    0.5160    0.9441 C   0  0  0  0  0  0  0  0  0  0  0  0
   -1.0610    0.4181    0.4823 C   0  0  0  0  0  0  0  0  0  0  0  0
   -1.3549    1.5940   -0.3506 C   0  0  0  0  0  0  0  0  0  0  0  0
   -0.7536    2.1149   -1.2253 O   0  0  0  0  0  0  0  0  0  0  0  0
   -2.0942   -0.5450    0.4168 C   0  0  0  0  0  0  0  0  0  0  0  0
   -0.9010   -1.0214   -0.1027 C   0  0  0  0  0  0  0  0  0  0  0  0
    0.1933   -0.6240   -1.0124 C   0  0  0  0  0  0  0  0  0  0  0  0
    2.9352   -0.3796    1.1629 H   0  0  0  0  0  0  0  0  0  0  0  0
    3.0667    0.7188   -0.2761 H   0  0  0  0  0  0  0  0  0  0  0  0
    2.9176   -1.0366   -0.4830 H   0  0  0  0  0  0  0  0  0  0  0  0
    0.6279    0.9837    1.8757 H   0  0  0  0  0  0  0  0  0  0  0  0
   -2.3247    2.0763   -0.1043 H   0  0  0  0  0  0  0  0  0  0  0  0
   -2.9658   -0.4523   -0.2809 H   0  0  0  0  0  0  0  0  0  0  0  0
   -2.5132   -0.8733    1.4138 H   0  0  0  0  0  0  0  0  0  0  0  0
   -0.4167   -1.7774    0.6128 H   0  0  0  0  0  0  0  0  0  0  0  0
    0.7063   -1.5190   -1.4503 H   0  0  0  0  0  0  0  0  0  0  0  0
    0.0027    0.0307   -1.8342 H   0  0  0  0  0  0  0  0  0  0  0  0
  1  2  1  0
  2  3  2  0
  3  4  1  0
  4  5  1  0
  5  6  2  0
  4  7  1  0
  7  8  1  0
  8  9  1  0
  9  2  1  0
  8  4  1  0
  1 10  1  0
  1 11  1  0
  1 12  1  0
  3 13  1  0
  5 14  1  0
  7 15  1  0
  7 16  1  0
  8 17  1  0
  9 18  1  0
  9 19  1  0
M  END
