
     RDKit          3D

 23 23  0  0  0  0  0  0  0  0999 V2000
    2.6978    0.5463   -0.3913 C   0  0  0  0  0  0  0  0  0  0  0  0
    1.3007    0.0692   -0.0762 C   0  0  0  0  0  0  0  0  0  0  0  0
    1.2156   -1.2358    0.0947 C   0  0  0  0  0  0  0  0  0  0  0  0
    0.0342   -2.0584    0.4109 C   0  0  0  0  0  0  0  0  0  0  0  0
   -1.1667   -1.6807   -0.4322 C   0  0  0  0  0  0  0  0  0  0  0  0
   -1.6926   -0.3608   -0.0671 C   0  0  0  0  0  0  0  0  0  0  0  0
   -1.0744    0.7943    0.0963 C   0  0  0  0  0  0  0  0  0  0  0  0
   -1.9793    1.9151    0.4729 C   0  0  0  0  0  0  0  0  0  0  0  0
    0.3326    1.1667   -0.0269 C   0  0  0  0  0  0  0  0  0  0  0  0
    3.2481    0.7603    0.5539 H   0  0  0  0  0  0  0  0  0  0  0  0
    3.2731   -0.2442   -0.9127 H   0  0  0  0  0  0  0  0  0  0  0  0
    2.6734    1.4354   -1.0583 H   0  0  0  0  0  0  0  0  0  0  0  0
    2.1425   -1.7684   -0.0127 H   0  0  0  0  0  0  0  0  0  0  0  0
   -0.1960   -1.9601    1.4978 H   0  0  0  0  0  0  0  0  0  0  0  0
    0.2687   -3.1122    0.1560 H   0  0  0  0  0  0  0  0  0  0  0  0
   -1.9349   -2.4472   -0.2447 H   0  0  0  0  0  0  0  0  0  0  0  0
   -0.8514   -1.7606   -1.4880 H   0  0  0  0  0  0  0  0  0  0  0  0
   -2.7861   -0.3274    0.0980 H   0  0  0  0  0  0  0  0  0  0  0  0
   -3.0416    1.6614    0.3499 H   0  0  0  0  0  0  0  0  0  0  0  0
   -1.7180    2.8095   -0.1022 H   0  0  0  0  0  0  0  0  0  0  0  0
   -1.8097    2.1430    1.5459 H   0  0  0  0  0  0  0  0  0  0  0  0
    0.4752    1.8066   -0.9407 H   0  0  0  0  0  0  0  0  0  0  0  0
    0.5887    1.8481    0.8317 H   0  0  0  0  0  0  0  0  0  0  0  0
  1  2  1  0
  2  3  2  0
  3  4  1  0
  4  5  1  0
  5  6  1  0
  6  7  2  0
  7  8  1  0
  7  9  1  0
  9  2  1  0
  1 10  1  0
  1 11  1  0
  1 12  1  0
  3 13  1  0
  4 14  1  0
  4 15  1  0
  5 16  1  0
  5 17  1  0
  6 18  1  0
  8 19  1  0
  8 20  1  0
  8 21  1  0
  9 22  1  0
  9 23  1  0
M  END
