
     RDKit          3D

 19 20  0  0  0  0  0  0  0  0999 V2000
    2.3879    0.2031    0.2271 C   0  0  0  0  0  0  0  0  0  0  0  0
    0.9648    0.2322   -0.2110 C   0  0  0  0  0  0  0  0  0  0  0  0
    0.2236    1.2563   -0.6411 C   0  0  0  0  0  0  0  0  0  0  0  0
   -1.0907    0.7522   -0.9451 C   0  0  0  0  0  0  0  0  0  0  0  0
   -2.2681    0.4288   -0.2619 C   0  0  0  0  0  0  0  0  0  0  0  0
   -1.1548   -0.1943    0.3015 C   0  0  0  0  0  0  0  0  0  0  0  0
   -0.7374    0.3841    1.5376 O   0  0  0  0  0  0  0  0  0  0  0  0
    0.0220   -0.9729   -0.2045 C   0  0  0  0  0  0  0  0  0  0  0  0
    0.4372   -1.8882    0.7275 O   0  0  0  0  0  0  0  0  0  0  0  0
    2.7963   -0.7799   -0.1494 H   0  0  0  0  0  0  0  0  0  0  0  0
    2.9765    0.9743   -0.3305 H   0  0  0  0  0  0  0  0  0  0  0  0
    2.5029    0.2625    1.3119 H   0  0  0  0  0  0  0  0  0  0  0  0
    0.6292    2.2676   -0.7164 H   0  0  0  0  0  0  0  0  0  0  0  0
   -1.0185    0.2384   -1.9634 H   0  0  0  0  0  0  0  0  0  0  0  0
   -2.8015    1.2633    0.2732 H   0  0  0  0  0  0  0  0  0  0  0  0
   -3.0581   -0.2193   -0.7347 H   0  0  0  0  0  0  0  0  0  0  0  0
   -0.4616   -0.3830    2.0985 H   0  0  0  0  0  0  0  0  0  0  0  0
   -0.0441   -1.3156   -1.2332 H   0  0  0  0  0  0  0  0  0  0  0  0
   -0.3057   -2.5094    0.9137 H   0  0  0  0  0  0  0  0  0  0  0  0
  1  2  1  0
  2  3  2  0
  3  4  1  0
  4  5  1  0
  5  6  1  0
  6  7  1  0
  6  8  1  0
  8  9  1  0
  8  2  1  0
  6  4  1  0
  1 10  1  0
  1 11  1  0
  1 12  1  0
  3 13  1  0
  4 14  1  0
  5 15  1  0
  5 16  1  0
  7 17  1  0
  8 18  1  0
  9 19  1  0
M  END
