
     RDKit          3D

 19 20  0  0  0  0  0  0  0  0999 V2000
    2.1637    0.7893    0.4617 C   0  0  0  0  0  0  0  0  0  0  0  0
    0.7150    0.4041    0.3995 C   0  0  0  0  0  0  0  0  0  0  0  0
    0.2161   -0.7978    0.2319 C   0  0  0  0  0  0  0  0  0  0  0  0
    1.0286   -1.9957    0.0733 C   0  0  0  0  0  0  0  0  0  0  0  0
    2.2710   -1.9138    0.0922 O   0  0  0  0  0  0  0  0  0  0  0  0
   -1.2574   -0.8214    0.2192 C   0  0  0  0  0  0  0  0  0  0  0  0
   -2.0032   -0.1004   -0.8671 C   0  0  0  0  0  0  0  0  0  0  0  0
   -1.6511    0.5739    0.3980 C   0  0  0  0  0  0  0  0  0  0  0  0
   -0.4029    1.3605    0.5213 C   0  0  0  0  0  0  0  0  0  0  0  0
    2.6526    0.7293   -0.5280 H   0  0  0  0  0  0  0  0  0  0  0  0
    2.2320    1.7898    0.9313 H   0  0  0  0  0  0  0  0  0  0  0  0
    2.7325    0.1105    1.1537 H   0  0  0  0  0  0  0  0  0  0  0  0
    0.6013   -2.9825   -0.0642 H   0  0  0  0  0  0  0  0  0  0  0  0
   -1.7838   -1.6706    0.7230 H   0  0  0  0  0  0  0  0  0  0  0  0
   -3.0516   -0.4211   -1.0134 H   0  0  0  0  0  0  0  0  0  0  0  0
   -1.4160    0.0424   -1.7926 H   0  0  0  0  0  0  0  0  0  0  0  0
   -2.4707    0.8757    1.0905 H   0  0  0  0  0  0  0  0  0  0  0  0
   -0.2784    2.1385   -0.2608 H   0  0  0  0  0  0  0  0  0  0  0  0
   -0.2978    1.8892    1.4957 H   0  0  0  0  0  0  0  0  0  0  0  0
  1  2  1  0
  2  3  2  0
  3  4  1  0
  4  5  2  0
  3  6  1  0
  6  7  1  0
  7  8  1  0
  8  9  1  0
  9  2  1  0
  8  6  1  0
  1 10  1  0
  1 11  1  0
  1 12  1  0
  4 13  1  0
  6 14  1  0
  7 15  1  0
  7 16  1  0
  8 17  1  0
  9 18  1  0
  9 19  1  0
M  END
