
     RDKit          3D

 19 21  0  0  0  0  0  0  0  0999 V2000
    2.5515   -0.4355    0.4327 C   0  0  0  0  0  0  0  0  0  0  0  0
    1.1096   -0.0676    0.4884 C   0  0  0  0  0  0  0  0  0  0  0  0
    0.5182    0.9362    1.1235 C   0  0  0  0  0  0  0  0  0  0  0  0
   -0.9482    0.8949    0.8819 C   0  0  0  0  0  0  0  0  0  0  0  0
   -1.2090    1.3046   -0.5668 C   0  0  0  0  0  0  0  0  0  0  0  0
   -1.0174   -0.1697   -0.9325 C   0  0  0  0  0  0  0  0  0  0  0  0
    0.0790   -0.8799   -0.2428 C   0  0  0  0  0  0  0  0  0  0  0  0
   -1.1618   -0.5148    0.4677 C   0  0  0  0  0  0  0  0  0  0  0  0
   -2.0361   -1.3695    1.0232 O   0  0  0  0  0  0  0  0  0  0  0  0
    2.9645   -0.1204   -0.5513 H   0  0  0  0  0  0  0  0  0  0  0  0
    2.6937   -1.5379    0.4891 H   0  0  0  0  0  0  0  0  0  0  0  0
    3.1249   -0.0124    1.2838 H   0  0  0  0  0  0  0  0  0  0  0  0
    1.0108    1.6837    1.7313 H   0  0  0  0  0  0  0  0  0  0  0  0
   -1.5919    1.3380    1.6279 H   0  0  0  0  0  0  0  0  0  0  0  0
   -0.4317    1.9739   -0.9857 H   0  0  0  0  0  0  0  0  0  0  0  0
   -2.2357    1.6649   -0.7605 H   0  0  0  0  0  0  0  0  0  0  0  0
   -1.5578   -0.5936   -1.7720 H   0  0  0  0  0  0  0  0  0  0  0  0
    0.2729   -1.9292   -0.4581 H   0  0  0  0  0  0  0  0  0  0  0  0
   -2.1358   -2.1657    0.4413 H   0  0  0  0  0  0  0  0  0  0  0  0
  1  2  1  0
  2  3  2  0
  3  4  1  0
  4  5  1  0
  5  6  1  0
  6  7  1  0
  7  8  1  0
  8  9  1  0
  7  2  1  0
  8  4  1  0
  8  6  1  0
  1 10  1  0
  1 11  1  0
  1 12  1  0
  3 13  1  0
  4 14  1  0
  5 15  1  0
  5 16  1  0
  6 17  1  0
  7 18  1  0
  9 19  1  0
M  END
