
     RDKit          3D

 19 21  0  0  0  0  0  0  0  0999 V2000
    2.6748   -0.3749    0.2145 C   0  0  0  0  0  0  0  0  0  0  0  0
    1.2041   -0.4570   -0.0087 C   0  0  0  0  0  0  0  0  0  0  0  0
    0.5176   -1.1160   -0.9309 C   0  0  0  0  0  0  0  0  0  0  0  0
   -0.9432   -0.8935   -0.7563 C   0  0  0  0  0  0  0  0  0  0  0  0
   -1.4522   -0.8776    0.6103 C   0  0  0  0  0  0  0  0  0  0  0  0
   -0.5392   -0.6784    1.6416 O   0  0  0  0  0  0  0  0  0  0  0  0
    0.2243    0.2421    0.8773 C   0  0  0  0  0  0  0  0  0  0  0  0
   -0.9587    0.3683    0.0056 C   0  0  0  0  0  0  0  0  0  0  0  0
   -1.7187    1.5615   -0.2821 C   0  0  0  0  0  0  0  0  0  0  0  0
    2.9743    0.6177    0.6203 H   0  0  0  0  0  0  0  0  0  0  0  0
    3.2543   -0.5088   -0.7195 H   0  0  0  0  0  0  0  0  0  0  0  0
    3.0362   -1.1315    0.9457 H   0  0  0  0  0  0  0  0  0  0  0  0
    0.9715   -1.7251   -1.6954 H   0  0  0  0  0  0  0  0  0  0  0  0
   -1.5956   -0.9956   -1.6459 H   0  0  0  0  0  0  0  0  0  0  0  0
   -2.5321   -0.9451    0.8561 H   0  0  0  0  0  0  0  0  0  0  0  0
    0.5887    1.1034    1.4190 H   0  0  0  0  0  0  0  0  0  0  0  0
   -2.3787    1.9425    0.5475 H   0  0  0  0  0  0  0  0  0  0  0  0
   -2.3085    1.4433   -1.2154 H   0  0  0  0  0  0  0  0  0  0  0  0
   -1.0188    2.4246   -0.4837 H   0  0  0  0  0  0  0  0  0  0  0  0
  1  2  1  0
  2  3  2  0
  3  4  1  0
  4  5  1  0
  5  6  1  0
  6  7  1  0
  7  8  1  0
  8  9  1  0
  7  2  1  0
  8  4  1  0
  8  5  1  0
  1 10  1  0
  1 11  1  0
  1 12  1  0
  3 13  1  0
  4 14  1  0
  5 15  1  0
  7 16  1  0
  9 17  1  0
  9 18  1  0
  9 19  1  0
M  END
