
     RDKit          3D

 25 25  0  0  0  0  0  0  0  0999 V2000
    2.5544   -0.5182    0.2873 C   0  0  0  0  0  0  0  0  0  0  0  0
    1.2007    0.0038   -0.0019 C   0  0  0  0  0  0  0  0  0  0  0  0
    0.1335   -0.7561   -0.1856 C   0  0  0  0  0  0  0  0  0  0  0  0
    0.2790   -2.2370   -0.1006 C   0  0  0  0  0  0  0  0  0  0  0  0
   -1.2172   -0.2289   -0.4744 C   0  0  0  0  0  0  0  0  0  0  0  0
   -2.1957   -0.4793    0.6554 C   0  0  0  0  0  0  0  0  0  0  0  0
   -1.2294    1.2425   -0.7712 C   0  0  0  0  0  0  0  0  0  0  0  0
   -0.3061    1.9142    0.2436 C   0  0  0  0  0  0  0  0  0  0  0  0
    1.0888    1.5020   -0.0809 C   0  0  0  0  0  0  0  0  0  0  0  0
    2.9434   -0.1182    1.2686 H   0  0  0  0  0  0  0  0  0  0  0  0
    3.2431   -0.0513   -0.4773 H   0  0  0  0  0  0  0  0  0  0  0  0
    2.6639   -1.5925    0.1832 H   0  0  0  0  0  0  0  0  0  0  0  0
    0.9475   -2.5594    0.7129 H   0  0  0  0  0  0  0  0  0  0  0  0
   -0.7051   -2.7287    0.0971 H   0  0  0  0  0  0  0  0  0  0  0  0
    0.6061   -2.6158   -1.0956 H   0  0  0  0  0  0  0  0  0  0  0  0
   -1.6556   -0.7525   -1.3737 H   0  0  0  0  0  0  0  0  0  0  0  0
   -2.1714   -1.5344    0.9668 H   0  0  0  0  0  0  0  0  0  0  0  0
   -2.0270    0.1930    1.5147 H   0  0  0  0  0  0  0  0  0  0  0  0
   -3.2062   -0.1855    0.2460 H   0  0  0  0  0  0  0  0  0  0  0  0
   -0.8720    1.4560   -1.7811 H   0  0  0  0  0  0  0  0  0  0  0  0
   -2.2465    1.6436   -0.6151 H   0  0  0  0  0  0  0  0  0  0  0  0
   -0.3572    3.0328    0.1209 H   0  0  0  0  0  0  0  0  0  0  0  0
   -0.5947    1.6262    1.2766 H   0  0  0  0  0  0  0  0  0  0  0  0
    1.2667    1.7478   -1.1607 H   0  0  0  0  0  0  0  0  0  0  0  0
    1.8569    1.9960    0.5451 H   0  0  0  0  0  0  0  0  0  0  0  0
  1  2  1  0
  2  3  2  0
  3  4  1  0
  3  5  1  0
  5  6  1  0
  5  7  1  0
  7  8  1  0
  8  9  1  0
  9  2  1  0
  1 10  1  0
  1 11  1  0
  1 12  1  0
  4 13  1  0
  4 14  1  0
  4 15  1  0
  5 16  1  0
  6 17  1  0
  6 18  1  0
  6 19  1  0
  7 20  1  0
  7 21  1  0
  8 22  1  0
  8 23  1  0
  9 24  1  0
  9 25  1  0
M  END
