
     RDKit          3D

 23 24  0  0  0  0  0  0  0  0999 V2000
    2.9735   -1.1094    0.0047 C   0  0  0  0  0  0  0  0  0  0  0  0
    1.6749   -0.2839   -0.0217 C   0  0  0  0  0  0  0  0  0  0  0  0
    1.0646    0.1240   -1.0996 C   0  0  0  0  0  0  0  0  0  0  0  0
   -0.1313    0.8776   -0.7863 C   0  0  0  0  0  0  0  0  0  0  0  0
   -0.2527    0.8724    0.7212 C   0  0  0  0  0  0  0  0  0  0  0  0
    0.9446    0.1593    1.1745 C   0  0  0  0  0  0  0  0  0  0  0  0
   -1.3126    0.3022   -0.1153 C   0  0  0  0  0  0  0  0  0  0  0  0
   -2.5846    1.1057   -0.2847 C   0  0  0  0  0  0  0  0  0  0  0  0
   -1.5304   -1.1835   -0.0416 C   0  0  0  0  0  0  0  0  0  0  0  0
    3.1029   -1.5604    0.9965 H   0  0  0  0  0  0  0  0  0  0  0  0
    2.8052   -1.9158   -0.7345 H   0  0  0  0  0  0  0  0  0  0  0  0
    3.8175   -0.4866   -0.2938 H   0  0  0  0  0  0  0  0  0  0  0  0
    1.3946   -0.0660   -2.1370 H   0  0  0  0  0  0  0  0  0  0  0  0
   -0.1962    1.8919   -1.2249 H   0  0  0  0  0  0  0  0  0  0  0  0
   -0.5037    1.8264    1.2404 H   0  0  0  0  0  0  0  0  0  0  0  0
    1.6435    0.8922    1.6875 H   0  0  0  0  0  0  0  0  0  0  0  0
    0.7442   -0.6816    1.8848 H   0  0  0  0  0  0  0  0  0  0  0  0
   -3.2349    0.6187   -1.0420 H   0  0  0  0  0  0  0  0  0  0  0  0
   -2.3902    2.1346   -0.6547 H   0  0  0  0  0  0  0  0  0  0  0  0
   -3.0935    1.1276    0.6942 H   0  0  0  0  0  0  0  0  0  0  0  0
   -1.9356   -1.5589   -0.9986 H   0  0  0  0  0  0  0  0  0  0  0  0
   -0.6474   -1.7400    0.3164 H   0  0  0  0  0  0  0  0  0  0  0  0
   -2.3527   -1.3466    0.7145 H   0  0  0  0  0  0  0  0  0  0  0  0
  1  2  1  0
  2  3  2  0
  3  4  1  0
  4  5  1  0
  5  6  1  0
  5  7  1  0
  7  8  1  0
  7  9  1  0
  6  2  1  0
  7  4  1  0
  1 10  1  0
  1 11  1  0
  1 12  1  0
  3 13  1  0
  4 14  1  0
  5 15  1  0
  6 16  1  0
  6 17  1  0
  8 18  1  0
  8 19  1  0
  8 20  1  0
  9 21  1  0
  9 22  1  0
  9 23  1  0
M  END
