
     RDKit          3D

 21 21  0  0  0  0  0  0  0  0999 V2000
    2.5008    0.2523    0.2584 C   0  0  0  0  0  0  0  0  0  0  0  0
    1.1087    0.1588   -0.2584 C   0  0  0  0  0  0  0  0  0  0  0  0
    0.2739    1.1070    0.1571 C   0  0  0  0  0  0  0  0  0  0  0  0
   -1.1699    1.1981   -0.2431 C   0  0  0  0  0  0  0  0  0  0  0  0
   -1.8739   -0.0438    0.2213 C   0  0  0  0  0  0  0  0  0  0  0  0
   -2.2767    0.1346    1.5540 O   0  0  0  0  0  0  0  0  0  0  0  0
   -1.0137   -1.2751    0.1617 C   0  0  0  0  0  0  0  0  0  0  0  0
   -0.4084   -1.4889   -1.0433 O   0  0  0  0  0  0  0  0  0  0  0  0
    0.8619   -0.9894   -1.1673 C   0  0  0  0  0  0  0  0  0  0  0  0
    2.6083    1.0610    1.0054 H   0  0  0  0  0  0  0  0  0  0  0  0
    2.7209   -0.7581    0.7134 H   0  0  0  0  0  0  0  0  0  0  0  0
    3.1690    0.3454   -0.5994 H   0  0  0  0  0  0  0  0  0  0  0  0
    0.6524    1.8701    0.8304 H   0  0  0  0  0  0  0  0  0  0  0  0
   -1.2143    1.3221   -1.3531 H   0  0  0  0  0  0  0  0  0  0  0  0
   -1.6445    2.1051    0.1781 H   0  0  0  0  0  0  0  0  0  0  0  0
   -2.7695   -0.1907   -0.3856 H   0  0  0  0  0  0  0  0  0  0  0  0
   -2.0947    1.0781    1.8426 H   0  0  0  0  0  0  0  0  0  0  0  0
   -1.7083   -2.1484    0.3416 H   0  0  0  0  0  0  0  0  0  0  0  0
   -0.3207   -1.2924    1.0354 H   0  0  0  0  0  0  0  0  0  0  0  0
    1.6198   -1.7782   -1.0046 H   0  0  0  0  0  0  0  0  0  0  0  0
    0.9788   -0.6675   -2.2447 H   0  0  0  0  0  0  0  0  0  0  0  0
  1  2  1  0
  2  3  2  0
  3  4  1  0
  4  5  1  0
  5  6  1  0
  5  7  1  0
  7  8  1  0
  8  9  1  0
  9  2  1  0
  1 10  1  0
  1 11  1  0
  1 12  1  0
  3 13  1  0
  4 14  1  0
  4 15  1  0
  5 16  1  0
  6 17  1  0
  7 18  1  0
  7 19  1  0
  9 20  1  0
  9 21  1  0
M  END
