
     RDKit          3D

 19 20  0  0  0  0  0  0  0  0999 V2000
    1.8425   -1.2350    0.3685 C   0  0  0  0  0  0  0  0  0  0  0  0
    0.4734   -0.6736    0.0575 C   0  0  0  0  0  0  0  0  0  0  0  0
   -0.4743   -1.3024   -0.5924 C   0  0  0  0  0  0  0  0  0  0  0  0
   -1.7124   -0.4726   -0.7360 C   0  0  0  0  0  0  0  0  0  0  0  0
   -2.6761   -1.0113    0.1002 O   0  0  0  0  0  0  0  0  0  0  0  0
   -1.2816    0.8519   -0.2028 C   0  0  0  0  0  0  0  0  0  0  0  0
   -1.1017    0.8878    1.1757 O   0  0  0  0  0  0  0  0  0  0  0  0
    0.0457    0.6734    0.4609 C   0  0  0  0  0  0  0  0  0  0  0  0
    1.0238    1.8157    0.2277 C   0  0  0  0  0  0  0  0  0  0  0  0
    2.5569   -0.4159    0.5645 H   0  0  0  0  0  0  0  0  0  0  0  0
    1.7900   -1.9850    1.1759 H   0  0  0  0  0  0  0  0  0  0  0  0
    2.2447   -1.7695   -0.5400 H   0  0  0  0  0  0  0  0  0  0  0  0
   -0.3398   -2.3315   -0.9780 H   0  0  0  0  0  0  0  0  0  0  0  0
   -2.0581   -0.4410   -1.7894 H   0  0  0  0  0  0  0  0  0  0  0  0
   -2.5283   -0.6433    1.0019 H   0  0  0  0  0  0  0  0  0  0  0  0
   -1.4930    1.7881   -0.7554 H   0  0  0  0  0  0  0  0  0  0  0  0
    1.3196    1.7627   -0.8409 H   0  0  0  0  0  0  0  0  0  0  0  0
    0.4909    2.7679    0.3815 H   0  0  0  0  0  0  0  0  0  0  0  0
    1.8778    1.7336    0.9206 H   0  0  0  0  0  0  0  0  0  0  0  0
  1  2  1  0
  2  3  2  0
  3  4  1  0
  4  5  1  0
  4  6  1  0
  6  7  1  0
  7  8  1  0
  8  9  1  0
  8  2  1  0
  8  6  1  0
  1 10  1  0
  1 11  1  0
  1 12  1  0
  3 13  1  0
  4 14  1  0
  5 15  1  0
  6 16  1  0
  9 17  1  0
  9 18  1  0
  9 19  1  0
M  END
