
     RDKit          3D

 21 22  0  0  0  0  0  0  0  0999 V2000
    2.8221    0.2452   -0.6179 C   0  0  0  0  0  0  0  0  0  0  0  0
    1.3512   -0.0351   -0.3417 C   0  0  0  0  0  0  0  0  0  0  0  0
    0.7355   -1.1773   -0.5156 C   0  0  0  0  0  0  0  0  0  0  0  0
   -0.6771   -1.0331   -0.1326 C   0  0  0  0  0  0  0  0  0  0  0  0
   -1.6879   -1.4844   -0.9553 O   0  0  0  0  0  0  0  0  0  0  0  0
   -0.9024   -0.9114    1.3220 C   0  0  0  0  0  0  0  0  0  0  0  0
   -0.8462    0.3055    0.4600 C   0  0  0  0  0  0  0  0  0  0  0  0
   -2.1629    1.0437    0.3201 C   0  0  0  0  0  0  0  0  0  0  0  0
    0.4305    0.9978    0.1656 C   0  0  0  0  0  0  0  0  0  0  0  0
    3.2283    0.8127    0.2474 H   0  0  0  0  0  0  0  0  0  0  0  0
    3.3807   -0.7046   -0.6648 H   0  0  0  0  0  0  0  0  0  0  0  0
    2.9013    0.8627   -1.5264 H   0  0  0  0  0  0  0  0  0  0  0  0
    1.1775   -2.0838   -0.8791 H   0  0  0  0  0  0  0  0  0  0  0  0
   -1.4854   -1.3557   -1.9077 H   0  0  0  0  0  0  0  0  0  0  0  0
   -0.0562   -1.0933    2.0379 H   0  0  0  0  0  0  0  0  0  0  0  0
   -1.8644   -1.2451    1.7018 H   0  0  0  0  0  0  0  0  0  0  0  0
   -2.2187    1.6408   -0.6108 H   0  0  0  0  0  0  0  0  0  0  0  0
   -2.3206    1.6803    1.2374 H   0  0  0  0  0  0  0  0  0  0  0  0
   -2.9585    0.2666    0.3213 H   0  0  0  0  0  0  0  0  0  0  0  0
    0.3046    1.7175   -0.7025 H   0  0  0  0  0  0  0  0  0  0  0  0
    0.8487    1.5511    1.0409 H   0  0  0  0  0  0  0  0  0  0  0  0
  1  2  1  0
  2  3  2  0
  3  4  1  0
  4  5  1  0
  4  6  1  0
  6  7  1  0
  7  8  1  0
  7  9  1  0
  9  2  1  0
  7  4  1  0
  1 10  1  0
  1 11  1  0
  1 12  1  0
  3 13  1  0
  5 14  1  0
  6 15  1  0
  6 16  1  0
  8 17  1  0
  8 18  1  0
  8 19  1  0
  9 20  1  0
  9 21  1  0
M  END
