
     RDKit          3D

 21 21  0  0  0  0  0  0  0  0999 V2000
    2.5936   -0.3614    0.4442 C   0  0  0  0  0  0  0  0  0  0  0  0
    1.1238   -0.1049    0.3526 C   0  0  0  0  0  0  0  0  0  0  0  0
    0.3444   -1.1591    0.3764 C   0  0  0  0  0  0  0  0  0  0  0  0
   -1.0979   -1.3623    0.3141 C   0  0  0  0  0  0  0  0  0  0  0  0
   -1.4592   -2.5097   -0.4040 O   0  0  0  0  0  0  0  0  0  0  0  0
   -1.8919   -0.2385   -0.1786 C   0  0  0  0  0  0  0  0  0  0  0  0
   -1.6772    1.0583    0.0166 C   0  0  0  0  0  0  0  0  0  0  0  0
   -0.5800    1.6724    0.7812 C   0  0  0  0  0  0  0  0  0  0  0  0
    0.7667    1.3127    0.2477 C   0  0  0  0  0  0  0  0  0  0  0  0
    2.9298   -0.2175    1.4877 H   0  0  0  0  0  0  0  0  0  0  0  0
    3.1238    0.3967   -0.1732 H   0  0  0  0  0  0  0  0  0  0  0  0
    2.8713   -1.3534    0.0361 H   0  0  0  0  0  0  0  0  0  0  0  0
    0.9126   -2.0972    0.4626 H   0  0  0  0  0  0  0  0  0  0  0  0
   -1.4488   -1.5695    1.3688 H   0  0  0  0  0  0  0  0  0  0  0  0
   -2.4330   -2.4342   -0.5797 H   0  0  0  0  0  0  0  0  0  0  0  0
   -2.7781   -0.4969   -0.7866 H   0  0  0  0  0  0  0  0  0  0  0  0
   -2.4190    1.7181   -0.4588 H   0  0  0  0  0  0  0  0  0  0  0  0
   -0.6924    2.7687    0.7131 H   0  0  0  0  0  0  0  0  0  0  0  0
   -0.5963    1.4211    1.8612 H   0  0  0  0  0  0  0  0  0  0  0  0
    1.5194    1.9339    0.8167 H   0  0  0  0  0  0  0  0  0  0  0  0
    0.8884    1.6225   -0.8177 H   0  0  0  0  0  0  0  0  0  0  0  0
  1  2  1  0
  2  3  2  0
  3  4  1  0
  4  5  1  0
  4  6  1  0
  6  7  2  0
  7  8  1  0
  8  9  1  0
  9  2  1  0
  1 10  1  0
  1 11  1  0
  1 12  1  0
  3 13  1  0
  4 14  1  0
  5 15  1  0
  6 16  1  0
  7 17  1  0
  8 18  1  0
  8 19  1  0
  9 20  1  0
  9 21  1  0
M  END
