
     RDKit          3D

 22 22  0  0  0  0  0  0  0  0999 V2000
   -2.7555   -1.0142   -0.3481 C   0  0  0  0  0  0  0  0  0  0  0  0
   -1.3854   -0.4768   -0.0936 C   0  0  0  0  0  0  0  0  0  0  0  0
   -0.3836   -1.2468    0.2789 C   0  0  0  0  0  0  0  0  0  0  0  0
    0.8426   -0.4393    0.4553 C   0  0  0  0  0  0  0  0  0  0  0  0
    2.0882   -1.1676    0.0297 C   0  0  0  0  0  0  0  0  0  0  0  0
    0.5750    0.7916   -0.3597 C   0  0  0  0  0  0  0  0  0  0  0  0
    1.2381    2.0253    0.2424 C   0  0  0  0  0  0  0  0  0  0  0  0
   -0.9413    0.9459   -0.2197 C   0  0  0  0  0  0  0  0  0  0  0  0
   -2.7303   -1.9217   -0.9716 H   0  0  0  0  0  0  0  0  0  0  0  0
   -3.2560   -1.3261    0.6120 H   0  0  0  0  0  0  0  0  0  0  0  0
   -3.4052   -0.2309   -0.7845 H   0  0  0  0  0  0  0  0  0  0  0  0
   -0.4333   -2.3505    0.4429 H   0  0  0  0  0  0  0  0  0  0  0  0
    0.8833   -0.1133    1.5230 H   0  0  0  0  0  0  0  0  0  0  0  0
    1.7905   -2.1517   -0.4238 H   0  0  0  0  0  0  0  0  0  0  0  0
    2.6155   -0.5742   -0.7345 H   0  0  0  0  0  0  0  0  0  0  0  0
    2.7424   -1.3654    0.8973 H   0  0  0  0  0  0  0  0  0  0  0  0
    0.8983    0.7087   -1.3937 H   0  0  0  0  0  0  0  0  0  0  0  0
    0.4655    2.7707    0.5667 H   0  0  0  0  0  0  0  0  0  0  0  0
    1.9175    2.5194   -0.4507 H   0  0  0  0  0  0  0  0  0  0  0  0
    1.7894    1.7142    1.1457 H   0  0  0  0  0  0  0  0  0  0  0  0
   -1.3709    1.4213   -1.1214 H   0  0  0  0  0  0  0  0  0  0  0  0
   -1.1847    1.4813    0.7074 H   0  0  0  0  0  0  0  0  0  0  0  0
  1  2  1  0
  2  3  2  0
  3  4  1  0
  4  5  1  0
  4  6  1  0
  6  7  1  0
  6  8  1  0
  8  2  1  0
  1  9  1  0
  1 10  1  0
  1 11  1  0
  3 12  1  0
  4 13  1  0
  5 14  1  0
  5 15  1  0
  5 16  1  0
  6 17  1  0
  7 18  1  0
  7 19  1  0
  7 20  1  0
  8 21  1  0
  8 22  1  0
M  END
