
     RDKit          3D

 21 22  0  0  0  0  0  0  0  0999 V2000
    2.3496   -0.0459   -0.2729 C   0  0  0  0  0  0  0  0  0  0  0  0
    0.8995   -0.2444   -0.3670 C   0  0  0  0  0  0  0  0  0  0  0  0
    0.3308   -1.3671   -0.8453 C   0  0  0  0  0  0  0  0  0  0  0  0
   -1.1329   -1.0911   -0.8677 C   0  0  0  0  0  0  0  0  0  0  0  0
   -1.7068   -1.1355    0.5271 C   0  0  0  0  0  0  0  0  0  0  0  0
   -0.9355    0.0293    1.1704 C   0  0  0  0  0  0  0  0  0  0  0  0
   -0.2491    0.6172   -0.0111 C   0  0  0  0  0  0  0  0  0  0  0  0
    0.0507    2.0571    0.0543 C   0  0  0  0  0  0  0  0  0  0  0  0
   -1.1236    0.3091   -1.0830 O   0  0  0  0  0  0  0  0  0  0  0  0
    2.6225    0.7540    0.4702 H   0  0  0  0  0  0  0  0  0  0  0  0
    2.7341    0.2667   -1.2673 H   0  0  0  0  0  0  0  0  0  0  0  0
    2.8961   -0.9700    0.0519 H   0  0  0  0  0  0  0  0  0  0  0  0
    0.8118   -2.2871   -1.1545 H   0  0  0  0  0  0  0  0  0  0  0  0
   -1.6861   -1.6347   -1.6111 H   0  0  0  0  0  0  0  0  0  0  0  0
   -1.4991   -2.0816    1.0469 H   0  0  0  0  0  0  0  0  0  0  0  0
   -2.7601   -0.8470    0.4953 H   0  0  0  0  0  0  0  0  0  0  0  0
   -1.6352    0.7815    1.5868 H   0  0  0  0  0  0  0  0  0  0  0  0
   -0.2438   -0.3817    1.9156 H   0  0  0  0  0  0  0  0  0  0  0  0
   -0.8905    2.6156    0.2058 H   0  0  0  0  0  0  0  0  0  0  0  0
    0.4484    2.3838   -0.9294 H   0  0  0  0  0  0  0  0  0  0  0  0
    0.7192    2.2716    0.8851 H   0  0  0  0  0  0  0  0  0  0  0  0
  1  2  1  0
  2  3  2  0
  3  4  1  0
  4  5  1  0
  5  6  1  0
  6  7  1  0
  7  8  1  0
  7  9  1  0
  7  2  1  0
  9  4  1  0
  1 10  1  0
  1 11  1  0
  1 12  1  0
  3 13  1  0
  4 14  1  0
  5 15  1  0
  5 16  1  0
  6 17  1  0
  6 18  1  0
  8 19  1  0
  8 20  1  0
  8 21  1  0
M  END
