
     RDKit          3D

 19 19  0  0  0  0  0  0  0  0999 V2000
    2.5636    0.0736   -0.1799 C   0  0  0  0  0  0  0  0  0  0  0  0
    1.1324    0.3940    0.0771 C   0  0  0  0  0  0  0  0  0  0  0  0
    0.5286    1.5623   -0.0746 C   0  0  0  0  0  0  0  0  0  0  0  0
   -0.8811    1.4847    0.2775 C   0  0  0  0  0  0  0  0  0  0  0  0
   -1.6773    2.4491    0.2594 O   0  0  0  0  0  0  0  0  0  0  0  0
   -1.1642    0.0975    0.6433 C   0  0  0  0  0  0  0  0  0  0  0  0
   -2.2050   -0.5573   -0.2185 C   0  0  0  0  0  0  0  0  0  0  0  0
    0.1591   -0.6105    0.5598 C   0  0  0  0  0  0  0  0  0  0  0  0
    0.1658   -1.6984   -0.2715 O   0  0  0  0  0  0  0  0  0  0  0  0
    2.6694   -0.1469   -1.2708 H   0  0  0  0  0  0  0  0  0  0  0  0
    2.9209   -0.7672    0.4412 H   0  0  0  0  0  0  0  0  0  0  0  0
    3.1742    0.9544    0.1011 H   0  0  0  0  0  0  0  0  0  0  0  0
    1.0555    2.4665   -0.4266 H   0  0  0  0  0  0  0  0  0  0  0  0
   -1.5116    0.0807    1.7003 H   0  0  0  0  0  0  0  0  0  0  0  0
   -2.9845    0.1300   -0.5784 H   0  0  0  0  0  0  0  0  0  0  0  0
   -2.6841   -1.3648    0.3813 H   0  0  0  0  0  0  0  0  0  0  0  0
   -1.7368   -1.0692   -1.0927 H   0  0  0  0  0  0  0  0  0  0  0  0
    0.5016   -0.9261    1.5700 H   0  0  0  0  0  0  0  0  0  0  0  0
   -0.0265   -2.5523    0.1973 H   0  0  0  0  0  0  0  0  0  0  0  0
  1  2  1  0
  2  3  2  0
  3  4  1  0
  4  5  2  0
  4  6  1  0
  6  7  1  0
  6  8  1  0
  8  9  1  0
  8  2  1  0
  1 10  1  0
  1 11  1  0
  1 12  1  0
  3 13  1  0
  6 14  1  0
  7 15  1  0
  7 16  1  0
  7 17  1  0
  8 18  1  0
  9 19  1  0
M  END
