
     RDKit          3D

 25 25  0  0  0  0  0  0  0  0999 V2000
    3.0446    1.1005    0.2015 C   0  0  0  0  0  0  0  0  0  0  0  0
    1.7560    0.3230    0.1320 C   0  0  0  0  0  0  0  0  0  0  0  0
    0.9218    0.0620    1.1173 C   0  0  0  0  0  0  0  0  0  0  0  0
   -0.2485   -0.7311    0.6878 C   0  0  0  0  0  0  0  0  0  0  0  0
   -1.5169    0.0558    0.6019 C   0  0  0  0  0  0  0  0  0  0  0  0
   -2.6161   -0.8865    0.1529 C   0  0  0  0  0  0  0  0  0  0  0  0
   -1.4470    1.2497   -0.2887 C   0  0  0  0  0  0  0  0  0  0  0  0
    0.1766   -1.3082   -0.6454 C   0  0  0  0  0  0  0  0  0  0  0  0
    1.1985   -0.2901   -1.0974 C   0  0  0  0  0  0  0  0  0  0  0  0
    2.9491    2.1103   -0.1937 H   0  0  0  0  0  0  0  0  0  0  0  0
    3.4604    1.1321    1.2083 H   0  0  0  0  0  0  0  0  0  0  0  0
    3.7739    0.5480   -0.4428 H   0  0  0  0  0  0  0  0  0  0  0  0
    1.0679    0.3903    2.1441 H   0  0  0  0  0  0  0  0  0  0  0  0
   -0.3942   -1.5416    1.4175 H   0  0  0  0  0  0  0  0  0  0  0  0
   -1.7807    0.3920    1.6155 H   0  0  0  0  0  0  0  0  0  0  0  0
   -2.2560   -1.9325    0.0534 H   0  0  0  0  0  0  0  0  0  0  0  0
   -3.0392   -0.5815   -0.8365 H   0  0  0  0  0  0  0  0  0  0  0  0
   -3.4669   -0.9166    0.8630 H   0  0  0  0  0  0  0  0  0  0  0  0
   -2.3229    1.9108   -0.0211 H   0  0  0  0  0  0  0  0  0  0  0  0
   -0.5451    1.8442   -0.0968 H   0  0  0  0  0  0  0  0  0  0  0  0
   -1.5593    1.0298   -1.3609 H   0  0  0  0  0  0  0  0  0  0  0  0
   -0.6492   -1.4047   -1.3468 H   0  0  0  0  0  0  0  0  0  0  0  0
    0.7118   -2.2685   -0.4521 H   0  0  0  0  0  0  0  0  0  0  0  0
    0.7374    0.4694   -1.7740 H   0  0  0  0  0  0  0  0  0  0  0  0
    2.0439   -0.7566   -1.6388 H   0  0  0  0  0  0  0  0  0  0  0  0
  1  2  1  0
  2  3  2  0
  3  4  1  0
  4  5  1  0
  5  6  1  0
  5  7  1  0
  4  8  1  0
  8  9  1  0
  9  2  1  0
  1 10  1  0
  1 11  1  0
  1 12  1  0
  3 13  1  0
  4 14  1  0
  5 15  1  0
  6 16  1  0
  6 17  1  0
  6 18  1  0
  7 19  1  0
  7 20  1  0
  7 21  1  0
  8 22  1  0
  8 23  1  0
  9 24  1  0
  9 25  1  0
M  END
