
     RDKit          3D

 17 18  0  0  0  0  0  0  0  0999 V2000
    2.5146    0.0424    0.0308 C   0  0  0  0  0  0  0  0  0  0  0  0
    1.0615    0.2582   -0.1693 C   0  0  0  0  0  0  0  0  0  0  0  0
    0.3655    1.4219   -0.1917 C   0  0  0  0  0  0  0  0  0  0  0  0
   -1.0132    0.8936   -0.4417 C   0  0  0  0  0  0  0  0  0  0  0  0
   -0.7617   -0.0789   -1.4148 O   0  0  0  0  0  0  0  0  0  0  0  0
   -0.0385   -0.7266   -0.4003 C   0  0  0  0  0  0  0  0  0  0  0  0
   -1.0976   -0.2392    0.5384 C   0  0  0  0  0  0  0  0  0  0  0  0
   -2.3271   -1.0183    0.4585 C   0  0  0  0  0  0  0  0  0  0  0  0
   -2.6163   -1.8391    1.3019 O   0  0  0  0  0  0  0  0  0  0  0  0
    2.8925   -0.5399   -0.8310 H   0  0  0  0  0  0  0  0  0  0  0  0
    2.6731   -0.5861    0.9270 H   0  0  0  0  0  0  0  0  0  0  0  0
    2.9804    1.0464    0.1198 H   0  0  0  0  0  0  0  0  0  0  0  0
    0.7208    2.4355   -0.0637 H   0  0  0  0  0  0  0  0  0  0  0  0
   -1.8125    1.5682   -0.5662 H   0  0  0  0  0  0  0  0  0  0  0  0
    0.1859   -1.7509   -0.4955 H   0  0  0  0  0  0  0  0  0  0  0  0
   -0.7201   -0.0136    1.5617 H   0  0  0  0  0  0  0  0  0  0  0  0
   -3.0072   -0.8736   -0.3640 H   0  0  0  0  0  0  0  0  0  0  0  0
  1  2  1  0
  2  3  2  0
  3  4  1  0
  4  5  1  0
  5  6  1  0
  6  7  1  0
  7  8  1  0
  8  9  2  0
  6  2  1  0
  7  4  1  0
  1 10  1  0
  1 11  1  0
  1 12  1  0
  3 13  1  0
  4 14  1  0
  6 15  1  0
  7 16  1  0
  8 17  1  0
M  END
