
     RDKit          3D

 21 22  0  0  0  0  0  0  0  0999 V2000
    2.4233    0.9978   -0.1853 C   0  0  0  0  0  0  0  0  0  0  0  0
    1.1613    0.2476    0.0247 C   0  0  0  0  0  0  0  0  0  0  0  0
   -0.0798    0.6827   -0.0896 C   0  0  0  0  0  0  0  0  0  0  0  0
   -1.3418    1.4413   -0.2930 C   0  0  0  0  0  0  0  0  0  0  0  0
   -2.0935    0.1132   -0.5559 C   0  0  0  0  0  0  0  0  0  0  0  0
   -1.0035   -0.4796    0.2817 C   0  0  0  0  0  0  0  0  0  0  0  0
   -1.2252   -0.6135    1.6185 O   0  0  0  0  0  0  0  0  0  0  0  0
   -0.1782   -1.5951   -0.3123 C   0  0  0  0  0  0  0  0  0  0  0  0
    1.1443   -1.2105    0.3952 C   0  0  0  0  0  0  0  0  0  0  0  0
    2.8562    0.7142   -1.1875 H   0  0  0  0  0  0  0  0  0  0  0  0
    2.3004    2.0854   -0.0888 H   0  0  0  0  0  0  0  0  0  0  0  0
    3.1736    0.6228    0.5565 H   0  0  0  0  0  0  0  0  0  0  0  0
   -1.3952    2.0531   -1.2047 H   0  0  0  0  0  0  0  0  0  0  0  0
   -1.7627    1.9285    0.5829 H   0  0  0  0  0  0  0  0  0  0  0  0
   -3.0992    0.0842   -0.1201 H   0  0  0  0  0  0  0  0  0  0  0  0
   -2.1070   -0.1827   -1.6114 H   0  0  0  0  0  0  0  0  0  0  0  0
   -1.1542    0.2130    2.1519 H   0  0  0  0  0  0  0  0  0  0  0  0
   -0.5056   -2.5924   -0.0275 H   0  0  0  0  0  0  0  0  0  0  0  0
   -0.0484   -1.4440   -1.4059 H   0  0  0  0  0  0  0  0  0  0  0  0
    0.9473   -1.3042    1.4666 H   0  0  0  0  0  0  0  0  0  0  0  0
    1.9882   -1.7618    0.0039 H   0  0  0  0  0  0  0  0  0  0  0  0
  1  2  1  0
  2  3  2  0
  3  4  1  0
  4  5  1  0
  5  6  1  0
  6  7  1  0
  6  8  1  0
  8  9  1  0
  9  2  1  0
  6  3  1  0
  1 10  1  0
  1 11  1  0
  1 12  1  0
  4 13  1  0
  4 14  1  0
  5 15  1  0
  5 16  1  0
  7 17  1  0
  8 18  1  0
  8 19  1  0
  9 20  1  0
  9 21  1  0
M  END
