
     RDKit          3D

 23 24  0  0  0  0  0  0  0  0999 V2000
    2.3837    1.0475   -0.1651 C   0  0  0  0  0  0  0  0  0  0  0  0
    1.0418    0.5227    0.1979 C   0  0  0  0  0  0  0  0  0  0  0  0
    0.1682    1.4181    0.6349 C   0  0  0  0  0  0  0  0  0  0  0  0
   -1.3129    1.2786    0.5849 C   0  0  0  0  0  0  0  0  0  0  0  0
   -1.7798    0.2148   -0.3389 C   0  0  0  0  0  0  0  0  0  0  0  0
   -1.2010   -1.1145   -0.2364 C   0  0  0  0  0  0  0  0  0  0  0  0
    0.0023   -1.2821   -1.1629 C   0  0  0  0  0  0  0  0  0  0  0  0
    0.8671   -0.9208    0.0228 C   0  0  0  0  0  0  0  0  0  0  0  0
   -0.2977   -1.4137    0.8927 C   0  0  0  0  0  0  0  0  0  0  0  0
    2.4715    2.1324    0.0490 H   0  0  0  0  0  0  0  0  0  0  0  0
    2.5355    0.8490   -1.2390 H   0  0  0  0  0  0  0  0  0  0  0  0
    3.1188    0.4692    0.4579 H   0  0  0  0  0  0  0  0  0  0  0  0
    0.5650    2.3320    1.0658 H   0  0  0  0  0  0  0  0  0  0  0  0
   -1.7578    1.2266    1.6039 H   0  0  0  0  0  0  0  0  0  0  0  0
   -1.6754    2.2602    0.1611 H   0  0  0  0  0  0  0  0  0  0  0  0
   -1.6396    0.6008   -1.3903 H   0  0  0  0  0  0  0  0  0  0  0  0
   -2.8976    0.1541   -0.2262 H   0  0  0  0  0  0  0  0  0  0  0  0
   -1.9463   -1.9264   -0.4444 H   0  0  0  0  0  0  0  0  0  0  0  0
    0.1477   -2.3542   -1.4028 H   0  0  0  0  0  0  0  0  0  0  0  0
    0.0281   -0.5900   -2.0109 H   0  0  0  0  0  0  0  0  0  0  0  0
    1.7721   -1.5307    0.0819 H   0  0  0  0  0  0  0  0  0  0  0  0
   -0.4236   -0.8600    1.8302 H   0  0  0  0  0  0  0  0  0  0  0  0
   -0.1701   -2.5135    1.0338 H   0  0  0  0  0  0  0  0  0  0  0  0
  1  2  1  0
  2  3  2  0
  3  4  1  0
  4  5  1  0
  5  6  1  0
  6  7  1  0
  7  8  1  0
  8  9  1  0
  8  2  1  0
  9  6  1  0
  1 10  1  0
  1 11  1  0
  1 12  1  0
  3 13  1  0
  4 14  1  0
  4 15  1  0
  5 16  1  0
  5 17  1  0
  6 18  1  0
  7 19  1  0
  7 20  1  0
  8 21  1  0
  9 22  1  0
  9 23  1  0
M  END
