
     RDKit          3D

 23 24  0  0  0  0  0  0  0  0999 V2000
    2.8938   -0.9357   -0.5221 C   0  0  0  0  0  0  0  0  0  0  0  0
    1.5042   -0.4464   -0.3010 C   0  0  0  0  0  0  0  0  0  0  0  0
    1.1654    0.7695    0.0535 C   0  0  0  0  0  0  0  0  0  0  0  0
   -0.2885    0.9179    0.1852 C   0  0  0  0  0  0  0  0  0  0  0  0
   -0.8683    1.9390    1.0989 C   0  0  0  0  0  0  0  0  0  0  0  0
   -1.1430    0.6729   -1.0725 C   0  0  0  0  0  0  0  0  0  0  0  0
   -0.8583   -0.4018   -0.0509 C   0  0  0  0  0  0  0  0  0  0  0  0
   -2.0218   -0.9740    0.6574 C   0  0  0  0  0  0  0  0  0  0  0  0
    0.2846   -1.3143   -0.4625 C   0  0  0  0  0  0  0  0  0  0  0  0
    3.5043   -0.1163   -0.9967 H   0  0  0  0  0  0  0  0  0  0  0  0
    2.9090   -1.8493   -1.1434 H   0  0  0  0  0  0  0  0  0  0  0  0
    3.3422   -1.0902    0.4836 H   0  0  0  0  0  0  0  0  0  0  0  0
    1.8820    1.5657    0.2269 H   0  0  0  0  0  0  0  0  0  0  0  0
   -0.5067    1.9046    2.1308 H   0  0  0  0  0  0  0  0  0  0  0  0
   -1.9736    1.9201    1.0237 H   0  0  0  0  0  0  0  0  0  0  0  0
   -0.5611    2.9512    0.7015 H   0  0  0  0  0  0  0  0  0  0  0  0
   -2.1652    1.0674   -1.0895 H   0  0  0  0  0  0  0  0  0  0  0  0
   -0.5601    0.7406   -1.9910 H   0  0  0  0  0  0  0  0  0  0  0  0
   -1.7604   -2.0054    1.0280 H   0  0  0  0  0  0  0  0  0  0  0  0
   -2.4354   -0.3916    1.4757 H   0  0  0  0  0  0  0  0  0  0  0  0
   -2.8321   -1.1599   -0.1016 H   0  0  0  0  0  0  0  0  0  0  0  0
    0.3611   -2.2044    0.1905 H   0  0  0  0  0  0  0  0  0  0  0  0
    0.1278   -1.5595   -1.5246 H   0  0  0  0  0  0  0  0  0  0  0  0
  1  2  1  0
  2  3  2  0
  3  4  1  0
  4  5  1  0
  4  6  1  0
  6  7  1  0
  7  8  1  0
  7  9  1  0
  9  2  1  0
  7  4  1  0
  1 10  1  0
  1 11  1  0
  1 12  1  0
  3 13  1  0
  5 14  1  0
  5 15  1  0
  5 16  1  0
  6 17  1  0
  6 18  1  0
  8 19  1  0
  8 20  1  0
  8 21  1  0
  9 22  1  0
  9 23  1  0
M  END
