
     RDKit          3D

 21 22  0  0  0  0  0  0  0  0999 V2000
   -2.6048    0.1086   -0.1505 C   0  0  0  0  0  0  0  0  0  0  0  0
   -1.1658   -0.3208   -0.1257 C   0  0  0  0  0  0  0  0  0  0  0  0
   -0.6530   -1.4882   -0.4809 C   0  0  0  0  0  0  0  0  0  0  0  0
    0.8293   -1.5244   -0.3091 C   0  0  0  0  0  0  0  0  0  0  0  0
    1.0476   -0.3506    0.6043 C   0  0  0  0  0  0  0  0  0  0  0  0
    2.3513    0.0347    1.1085 C   0  0  0  0  0  0  0  0  0  0  0  0
    1.3920   -0.5405    1.9269 O   0  0  0  0  0  0  0  0  0  0  0  0
   -0.0778    0.5699    0.3247 C   0  0  0  0  0  0  0  0  0  0  0  0
    0.2307    1.5882   -0.7560 C   0  0  0  0  0  0  0  0  0  0  0  0
   -3.2284   -0.6043   -0.6963 H   0  0  0  0  0  0  0  0  0  0  0  0
   -2.9873    0.2049    0.9032 H   0  0  0  0  0  0  0  0  0  0  0  0
   -2.6201    1.1365   -0.5625 H   0  0  0  0  0  0  0  0  0  0  0  0
   -1.2822   -2.3056   -0.8529 H   0  0  0  0  0  0  0  0  0  0  0  0
    1.1629   -2.4562    0.1567 H   0  0  0  0  0  0  0  0  0  0  0  0
    1.3560   -1.2906   -1.2657 H   0  0  0  0  0  0  0  0  0  0  0  0
    3.2167   -0.6315    0.8800 H   0  0  0  0  0  0  0  0  0  0  0  0
    2.5387    1.1398    1.1765 H   0  0  0  0  0  0  0  0  0  0  0  0
   -0.3536    1.1300    1.2618 H   0  0  0  0  0  0  0  0  0  0  0  0
   -0.3335    1.3528   -1.7046 H   0  0  0  0  0  0  0  0  0  0  0  0
   -0.1145    2.5948   -0.4369 H   0  0  0  0  0  0  0  0  0  0  0  0
    1.2958    1.6525   -1.0016 H   0  0  0  0  0  0  0  0  0  0  0  0
  1  2  1  0
  2  3  2  0
  3  4  1  0
  4  5  1  0
  5  6  1  0
  6  7  1  0
  5  8  1  0
  8  9  1  0
  8  2  1  0
  7  5  1  0
  1 10  1  0
  1 11  1  0
  1 12  1  0
  3 13  1  0
  4 14  1  0
  4 15  1  0
  6 16  1  0
  6 17  1  0
  8 18  1  0
  9 19  1  0
  9 20  1  0
  9 21  1  0
M  END
