
     RDKit          3D

 17 18  0  0  0  0  0  0  0  0999 V2000
    2.5856   -0.2238    0.2471 C   0  0  0  0  0  0  0  0  0  0  0  0
    1.1133   -0.0485    0.2302 C   0  0  0  0  0  0  0  0  0  0  0  0
    0.1173   -0.9366    0.1577 C   0  0  0  0  0  0  0  0  0  0  0  0
   -1.0709   -0.0311    0.2150 C   0  0  0  0  0  0  0  0  0  0  0  0
   -2.3974   -0.5919    0.2989 C   0  0  0  0  0  0  0  0  0  0  0  0
   -0.6452    0.8674    1.2254 O   0  0  0  0  0  0  0  0  0  0  0  0
    0.3216    1.2365    0.2941 C   0  0  0  0  0  0  0  0  0  0  0  0
   -0.7332    1.0275   -0.7324 C   0  0  0  0  0  0  0  0  0  0  0  0
   -1.0107    1.5701   -1.7712 O   0  0  0  0  0  0  0  0  0  0  0  0
    2.8921   -1.1686    0.7485 H   0  0  0  0  0  0  0  0  0  0  0  0
    3.0268   -0.2069   -0.7629 H   0  0  0  0  0  0  0  0  0  0  0  0
    3.0673    0.5882    0.8660 H   0  0  0  0  0  0  0  0  0  0  0  0
    0.1824   -2.0152    0.0792 H   0  0  0  0  0  0  0  0  0  0  0  0
   -3.0402    0.0722    0.9438 H   0  0  0  0  0  0  0  0  0  0  0  0
   -2.3992   -1.5737    0.7881 H   0  0  0  0  0  0  0  0  0  0  0  0
   -2.8410   -0.7147   -0.7082 H   0  0  0  0  0  0  0  0  0  0  0  0
    0.8316    2.1491    0.3694 H   0  0  0  0  0  0  0  0  0  0  0  0
  1  2  1  0
  2  3  2  0
  3  4  1  0
  4  5  1  0
  4  6  1  0
  6  7  1  0
  7  8  1  0
  8  9  2  0
  7  2  1  0
  8  4  1  0
  1 10  1  0
  1 11  1  0
  1 12  1  0
  3 13  1  0
  5 14  1  0
  5 15  1  0
  5 16  1  0
  7 17  1  0
M  END
