
     RDKit          3D

 19 19  0  0  0  0  0  0  0  0999 V2000
    2.5541   -0.1282    0.2414 C   0  0  0  0  0  0  0  0  0  0  0  0
    1.0914    0.0235    0.0699 C   0  0  0  0  0  0  0  0  0  0  0  0
    0.6107    1.2446    0.2128 C   0  0  0  0  0  0  0  0  0  0  0  0
   -0.7967    1.7094    0.1021 C   0  0  0  0  0  0  0  0  0  0  0  0
   -1.4890    0.8912   -0.8130 O   0  0  0  0  0  0  0  0  0  0  0  0
   -2.0151   -0.2320   -0.2227 C   0  0  0  0  0  0  0  0  0  0  0  0
   -1.1473   -1.4371   -0.2691 C   0  0  0  0  0  0  0  0  0  0  0  0
    0.2953   -1.1632   -0.2393 C   0  0  0  0  0  0  0  0  0  0  0  0
    0.9943   -2.1792   -0.5496 O   0  0  0  0  0  0  0  0  0  0  0  0
    2.8880   -1.0422   -0.2905 H   0  0  0  0  0  0  0  0  0  0  0  0
    2.7596   -0.2077    1.3214 H   0  0  0  0  0  0  0  0  0  0  0  0
    3.0767    0.7520   -0.2188 H   0  0  0  0  0  0  0  0  0  0  0  0
    1.3792    1.9887    0.4431 H   0  0  0  0  0  0  0  0  0  0  0  0
   -0.7674    2.7278   -0.3332 H   0  0  0  0  0  0  0  0  0  0  0  0
   -1.2926    1.7261    1.0933 H   0  0  0  0  0  0  0  0  0  0  0  0
   -2.9602   -0.4793   -0.7912 H   0  0  0  0  0  0  0  0  0  0  0  0
   -2.3881   -0.0100    0.8198 H   0  0  0  0  0  0  0  0  0  0  0  0
   -1.3440   -2.0857   -1.1729 H   0  0  0  0  0  0  0  0  0  0  0  0
   -1.4490   -2.0985    0.5963 H   0  0  0  0  0  0  0  0  0  0  0  0
  1  2  1  0
  2  3  2  0
  3  4  1  0
  4  5  1  0
  5  6  1  0
  6  7  1  0
  7  8  1  0
  8  9  2  0
  8  2  1  0
  1 10  1  0
  1 11  1  0
  1 12  1  0
  3 13  1  0
  4 14  1  0
  4 15  1  0
  6 16  1  0
  6 17  1  0
  7 18  1  0
  7 19  1  0
M  END
