
     RDKit          3D

 17 17  0  0  0  0  0  0  0  0999 V2000
    2.1423   -0.5026    0.1594 C   0  0  0  0  0  0  0  0  0  0  0  0
    0.6893   -0.2003    0.1050 C   0  0  0  0  0  0  0  0  0  0  0  0
   -0.1916   -1.1953    0.0980 C   0  0  0  0  0  0  0  0  0  0  0  0
   -1.6723   -0.9397    0.0438 C   0  0  0  0  0  0  0  0  0  0  0  0
   -1.8484    0.3256    0.6428 O   0  0  0  0  0  0  0  0  0  0  0  0
   -1.2226    1.2333   -0.2125 C   0  0  0  0  0  0  0  0  0  0  0  0
    0.2827    1.2313    0.0602 C   0  0  0  0  0  0  0  0  0  0  0  0
    2.6434   -0.0281    1.0246 H   0  0  0  0  0  0  0  0  0  0  0  0
    2.3197   -1.5967    0.2302 H   0  0  0  0  0  0  0  0  0  0  0  0
    2.5971   -0.1699   -0.7999 H   0  0  0  0  0  0  0  0  0  0  0  0
    0.1391   -2.2222    0.1315 H   0  0  0  0  0  0  0  0  0  0  0  0
   -1.9451   -0.8321   -1.0133 H   0  0  0  0  0  0  0  0  0  0  0  0
   -2.2484   -1.6874    0.5998 H   0  0  0  0  0  0  0  0  0  0  0  0
   -1.3271    0.8658   -1.2721 H   0  0  0  0  0  0  0  0  0  0  0  0
   -1.6624    2.2342   -0.0893 H   0  0  0  0  0  0  0  0  0  0  0  0
    0.7914    1.7923   -0.7559 H   0  0  0  0  0  0  0  0  0  0  0  0
    0.5131    1.6919    1.0476 H   0  0  0  0  0  0  0  0  0  0  0  0
  1  2  1  0
  2  3  2  0
  3  4  1  0
  4  5  1  0
  5  6  1  0
  6  7  1  0
  7  2  1  0
  1  8  1  0
  1  9  1  0
  1 10  1  0
  3 11  1  0
  4 12  1  0
  4 13  1  0
  6 14  1  0
  6 15  1  0
  7 16  1  0
  7 17  1  0
M  END
