
     RDKit          3D

 14 15  0  0  0  0  0  0  0  0999 V2000
   -2.0640    0.1507   -0.1044 C   0  0  0  0  0  0  0  0  0  0  0  0
   -0.5789    0.0761   -0.0529 C   0  0  0  0  0  0  0  0  0  0  0  0
    0.2510    1.0904   -0.2329 C   0  0  0  0  0  0  0  0  0  0  0  0
    1.6333    0.6190   -0.1055 C   0  0  0  0  0  0  0  0  0  0  0  0
    1.9668    0.1854    1.1976 O   0  0  0  0  0  0  0  0  0  0  0  0
    1.5847   -0.8044    0.2875 C   0  0  0  0  0  0  0  0  0  0  0  0
    0.1492   -1.1474    0.2072 C   0  0  0  0  0  0  0  0  0  0  0  0
   -0.3181   -2.3064    0.3454 O   0  0  0  0  0  0  0  0  0  0  0  0
   -2.4898   -0.3727    0.7763 H   0  0  0  0  0  0  0  0  0  0  0  0
   -2.4067   -0.2738   -1.0709 H   0  0  0  0  0  0  0  0  0  0  0  0
   -2.4283    1.1894   -0.0682 H   0  0  0  0  0  0  0  0  0  0  0  0
   -0.0796    2.0955   -0.4398 H   0  0  0  0  0  0  0  0  0  0  0  0
    2.4335    1.0359   -0.7331 H   0  0  0  0  0  0  0  0  0  0  0  0
    2.3469   -1.5378   -0.0066 H   0  0  0  0  0  0  0  0  0  0  0  0
  1  2  1  0
  2  3  2  0
  3  4  1  0
  4  5  1  0
  5  6  1  0
  6  7  1  0
  7  8  2  0
  7  2  1  0
  6  4  1  0
  1  9  1  0
  1 10  1  0
  1 11  1  0
  3 12  1  0
  4 13  1  0
  6 14  1  0
M  END
