
     RDKit          3D

 13 13  0  0  0  0  0  0  0  0999 V2000
   -1.7944   -0.0282   -0.0709 C   0  0  0  0  0  0  0  0  0  0  0  0
   -0.2813   -0.0119   -0.0113 C   0  0  0  0  0  0  0  0  0  0  0  0
    0.5105   -1.0487   -0.1719 C   0  0  0  0  0  0  0  0  0  0  0  0
    1.8975   -0.6496   -0.0468 C   0  0  0  0  0  0  0  0  0  0  0  0
    2.8805   -1.4486   -0.1566 O   0  0  0  0  0  0  0  0  0  0  0  0
    1.8739    0.6989    0.1997 O   0  0  0  0  0  0  0  0  0  0  0  0
    0.5650    1.1660    0.2365 C   0  0  0  0  0  0  0  0  0  0  0  0
   -2.1589    0.4733   -0.9861 H   0  0  0  0  0  0  0  0  0  0  0  0
   -2.1417   -1.0884   -0.0245 H   0  0  0  0  0  0  0  0  0  0  0  0
   -2.2082    0.4558    0.8541 H   0  0  0  0  0  0  0  0  0  0  0  0
    0.1036   -2.0511   -0.3710 H   0  0  0  0  0  0  0  0  0  0  0  0
    0.3088    1.6840    1.1876 H   0  0  0  0  0  0  0  0  0  0  0  0
    0.4448    1.8486   -0.6390 H   0  0  0  0  0  0  0  0  0  0  0  0
  1  2  1  0
  2  3  2  0
  3  4  1  0
  4  5  2  0
  4  6  1  0
  6  7  1  0
  7  2  1  0
  1  8  1  0
  1  9  1  0
  1 10  1  0
  3 11  1  0
  7 12  1  0
  7 13  1  0
M  END
