
     RDKit          3D

 21 21  0  0  0  0  0  0  0  0999 V2000
    2.7553   -0.6341    0.4894 C   0  0  0  0  0  0  0  0  0  0  0  0
    1.3857   -0.3026   -0.0334 C   0  0  0  0  0  0  0  0  0  0  0  0
    1.1361    0.6784   -0.8851 C   0  0  0  0  0  0  0  0  0  0  0  0
   -0.3139    0.7430   -1.2036 C   0  0  0  0  0  0  0  0  0  0  0  0
   -0.9354    0.0015   -0.0733 C   0  0  0  0  0  0  0  0  0  0  0  0
   -1.0887    0.9317    1.1197 C   0  0  0  0  0  0  0  0  0  0  0  0
   -2.2388   -0.6565   -0.4114 C   0  0  0  0  0  0  0  0  0  0  0  0
    0.1295   -0.9677    0.2840 C   0  0  0  0  0  0  0  0  0  0  0  0
   -0.0230   -2.0983    0.7517 O   0  0  0  0  0  0  0  0  0  0  0  0
    3.4103   -1.0277   -0.3012 H   0  0  0  0  0  0  0  0  0  0  0  0
    3.1782    0.3355    0.8833 H   0  0  0  0  0  0  0  0  0  0  0  0
    2.7094   -1.3395    1.3242 H   0  0  0  0  0  0  0  0  0  0  0  0
    1.8453    1.3811   -1.3326 H   0  0  0  0  0  0  0  0  0  0  0  0
   -0.4688    0.1537   -2.1433 H   0  0  0  0  0  0  0  0  0  0  0  0
   -0.6830    1.7830   -1.3092 H   0  0  0  0  0  0  0  0  0  0  0  0
   -0.0361    1.1716    1.4459 H   0  0  0  0  0  0  0  0  0  0  0  0
   -1.5606    1.8877    0.8588 H   0  0  0  0  0  0  0  0  0  0  0  0
   -1.5652    0.3887    1.9450 H   0  0  0  0  0  0  0  0  0  0  0  0
   -2.0746   -1.4292   -1.1746 H   0  0  0  0  0  0  0  0  0  0  0  0
   -2.9343    0.1154   -0.7562 H   0  0  0  0  0  0  0  0  0  0  0  0
   -2.6275   -1.1158    0.5220 H   0  0  0  0  0  0  0  0  0  0  0  0
  1  2  1  0
  2  3  2  0
  3  4  1  0
  4  5  1  0
  5  6  1  0
  5  7  1  0
  5  8  1  0
  8  9  2  0
  8  2  1  0
  1 10  1  0
  1 11  1  0
  1 12  1  0
  3 13  1  0
  4 14  1  0
  4 15  1  0
  6 16  1  0
  6 17  1  0
  6 18  1  0
  7 19  1  0
  7 20  1  0
  7 21  1  0
M  END
