
     RDKit          3D

 23 24  0  0  0  0  0  0  0  0999 V2000
    2.6188   -0.1537    0.5321 C   0  0  0  0  0  0  0  0  0  0  0  0
    1.2591   -0.5120    0.0565 C   0  0  0  0  0  0  0  0  0  0  0  0
    0.7650   -1.6755   -0.3796 C   0  0  0  0  0  0  0  0  0  0  0  0
   -0.6386   -1.3263   -0.7235 C   0  0  0  0  0  0  0  0  0  0  0  0
   -0.4437    0.0011   -1.4239 C   0  0  0  0  0  0  0  0  0  0  0  0
    0.0925    0.4043   -0.0397 C   0  0  0  0  0  0  0  0  0  0  0  0
    0.1877    1.7821    0.3052 C   0  0  0  0  0  0  0  0  0  0  0  0
   -1.0099   -0.4757    0.5000 C   0  0  0  0  0  0  0  0  0  0  0  0
   -2.3813    0.0810    0.4848 C   0  0  0  0  0  0  0  0  0  0  0  0
    2.6729   -0.0862    1.6482 H   0  0  0  0  0  0  0  0  0  0  0  0
    3.3423   -0.9106    0.1534 H   0  0  0  0  0  0  0  0  0  0  0  0
    2.9127    0.8214    0.0706 H   0  0  0  0  0  0  0  0  0  0  0  0
    1.2919   -2.6212   -0.4500 H   0  0  0  0  0  0  0  0  0  0  0  0
   -1.3158   -2.0368   -1.0793 H   0  0  0  0  0  0  0  0  0  0  0  0
    0.4143    0.0003   -2.1291 H   0  0  0  0  0  0  0  0  0  0  0  0
   -1.3435    0.5263   -1.7369 H   0  0  0  0  0  0  0  0  0  0  0  0
   -0.3860    2.4321   -0.4169 H   0  0  0  0  0  0  0  0  0  0  0  0
   -0.2005    2.0861    1.3204 H   0  0  0  0  0  0  0  0  0  0  0  0
    1.2362    2.1553    0.2856 H   0  0  0  0  0  0  0  0  0  0  0  0
   -0.7830   -1.0460    1.4022 H   0  0  0  0  0  0  0  0  0  0  0  0
   -3.0915   -0.7569    0.2277 H   0  0  0  0  0  0  0  0  0  0  0  0
   -2.5440    0.9554   -0.1443 H   0  0  0  0  0  0  0  0  0  0  0  0
   -2.6558    0.3556    1.5366 H   0  0  0  0  0  0  0  0  0  0  0  0
  1  2  1  0
  2  3  2  0
  3  4  1  0
  4  5  1  0
  5  6  1  0
  6  7  1  0
  6  8  1  0
  8  9  1  0
  6  2  1  0
  8  4  1  0
  1 10  1  0
  1 11  1  0
  1 12  1  0
  3 13  1  0
  4 14  1  0
  5 15  1  0
  5 16  1  0
  7 17  1  0
  7 18  1  0
  7 19  1  0
  8 20  1  0
  9 21  1  0
  9 22  1  0
  9 23  1  0
M  END
