
     RDKit          3D

 19 21  0  0  0  0  0  0  0  0999 V2000
    2.5851    0.1210   -0.6178 C   0  0  0  0  0  0  0  0  0  0  0  0
    1.2950    0.3571    0.0563 C   0  0  0  0  0  0  0  0  0  0  0  0
    0.6142    1.4735    0.3276 C   0  0  0  0  0  0  0  0  0  0  0  0
   -0.5825    0.8980    1.0507 C   0  0  0  0  0  0  0  0  0  0  0  0
    0.0869   -0.0424    1.8738 O   0  0  0  0  0  0  0  0  0  0  0  0
    0.3715   -0.6859    0.6421 C   0  0  0  0  0  0  0  0  0  0  0  0
   -0.9536   -0.2440    0.2149 C   0  0  0  0  0  0  0  0  0  0  0  0
   -1.5730   -0.2756   -1.0617 C   0  0  0  0  0  0  0  0  0  0  0  0
   -2.1898   -0.9713    0.1993 C   0  0  0  0  0  0  0  0  0  0  0  0
    2.5363   -0.9225   -1.0455 H   0  0  0  0  0  0  0  0  0  0  0  0
    3.4493    0.1064    0.0846 H   0  0  0  0  0  0  0  0  0  0  0  0
    2.8093    0.8711   -1.3860 H   0  0  0  0  0  0  0  0  0  0  0  0
    0.8489    2.5040    0.0967 H   0  0  0  0  0  0  0  0  0  0  0  0
   -1.2648    1.5625    1.5013 H   0  0  0  0  0  0  0  0  0  0  0  0
    0.6970   -1.6895    0.6666 H   0  0  0  0  0  0  0  0  0  0  0  0
   -2.1977    0.5680   -1.4666 H   0  0  0  0  0  0  0  0  0  0  0  0
   -1.2380   -0.9832   -1.8598 H   0  0  0  0  0  0  0  0  0  0  0  0
   -3.1527   -0.5575    0.5430 H   0  0  0  0  0  0  0  0  0  0  0  0
   -2.1413   -2.0898    0.1805 H   0  0  0  0  0  0  0  0  0  0  0  0
  1  2  1  0
  2  3  2  0
  3  4  1  0
  4  5  1  0
  5  6  1  0
  6  7  1  0
  7  8  1  0
  8  9  1  0
  6  2  1  0
  9  7  1  0
  7  4  1  0
  1 10  1  0
  1 11  1  0
  1 12  1  0
  3 13  1  0
  4 14  1  0
  6 15  1  0
  8 16  1  0
  8 17  1  0
  9 18  1  0
  9 19  1  0
M  END
