
     RDKit          3D

 21 22  0  0  0  0  0  0  0  0999 V2000
    2.4368    1.0005   -0.0268 C   0  0  0  0  0  0  0  0  0  0  0  0
    1.2504    0.1135   -0.1426 C   0  0  0  0  0  0  0  0  0  0  0  0
    0.0089    0.5656   -0.2366 C   0  0  0  0  0  0  0  0  0  0  0  0
   -0.8949    1.7228   -0.2885 C   0  0  0  0  0  0  0  0  0  0  0  0
   -2.1124    1.3421    0.0890 C   0  0  0  0  0  0  0  0  0  0  0  0
   -2.1246   -0.1061    0.4260 C   0  0  0  0  0  0  0  0  0  0  0  0
   -0.9300   -0.6116   -0.3372 C   0  0  0  0  0  0  0  0  0  0  0  0
   -0.1423   -1.6595    0.3840 C   0  0  0  0  0  0  0  0  0  0  0  0
    1.2600   -1.3685   -0.1708 C   0  0  0  0  0  0  0  0  0  0  0  0
    2.1604    2.0130    0.2831 H   0  0  0  0  0  0  0  0  0  0  0  0
    3.2117    0.5936    0.6472 H   0  0  0  0  0  0  0  0  0  0  0  0
    2.9096    1.0131   -1.0506 H   0  0  0  0  0  0  0  0  0  0  0  0
   -0.5712    2.7271   -0.5973 H   0  0  0  0  0  0  0  0  0  0  0  0
   -2.9785    1.9927    0.1450 H   0  0  0  0  0  0  0  0  0  0  0  0
   -2.0956   -0.3114    1.4951 H   0  0  0  0  0  0  0  0  0  0  0  0
   -3.0278   -0.5447   -0.0633 H   0  0  0  0  0  0  0  0  0  0  0  0
   -1.1317   -0.8959   -1.3662 H   0  0  0  0  0  0  0  0  0  0  0  0
   -0.4201   -2.6862    0.1594 H   0  0  0  0  0  0  0  0  0  0  0  0
   -0.1257   -1.4054    1.4605 H   0  0  0  0  0  0  0  0  0  0  0  0
    2.0465   -1.8173    0.4331 H   0  0  0  0  0  0  0  0  0  0  0  0
    1.2705   -1.6774   -1.2426 H   0  0  0  0  0  0  0  0  0  0  0  0
  1  2  1  0
  2  3  2  0
  3  4  1  0
  4  5  2  0
  5  6  1  0
  6  7  1  0
  7  8  1  0
  8  9  1  0
  9  2  1  0
  7  3  1  0
  1 10  1  0
  1 11  1  0
  1 12  1  0
  4 13  1  0
  5 14  1  0
  6 15  1  0
  6 16  1  0
  7 17  1  0
  8 18  1  0
  8 19  1  0
  9 20  1  0
  9 21  1  0
M  END
