
     RDKit          3D

 19 19  0  0  0  0  0  0  0  0999 V2000
   -1.2041   -1.9205   -0.3685 C   0  0  0  0  0  0  0  0  0  0  0  0
   -0.2643   -0.7894   -0.1682 C   0  0  0  0  0  0  0  0  0  0  0  0
    0.9059   -0.8804    0.4289 C   0  0  0  0  0  0  0  0  0  0  0  0
    1.5473    0.4487    0.4378 C   0  0  0  0  0  0  0  0  0  0  0  0
    2.9252    0.3751    0.2390 O   0  0  0  0  0  0  0  0  0  0  0  0
    0.8652    1.1632   -0.6657 C   0  0  0  0  0  0  0  0  0  0  0  0
    1.3195    1.9848   -1.4114 O   0  0  0  0  0  0  0  0  0  0  0  0
   -0.5232    0.6226   -0.6354 C   0  0  0  0  0  0  0  0  0  0  0  0
   -1.3974    1.3795    0.3067 C   0  0  0  0  0  0  0  0  0  0  0  0
   -1.2674   -2.5823    0.5194 H   0  0  0  0  0  0  0  0  0  0  0  0
   -0.7639   -2.5510   -1.1827 H   0  0  0  0  0  0  0  0  0  0  0  0
   -2.2033   -1.5890   -0.7096 H   0  0  0  0  0  0  0  0  0  0  0  0
    1.3820   -1.7751    0.8698 H   0  0  0  0  0  0  0  0  0  0  0  0
    1.3335    0.9619    1.4199 H   0  0  0  0  0  0  0  0  0  0  0  0
    3.3278   -0.2070    0.9078 H   0  0  0  0  0  0  0  0  0  0  0  0
   -0.9750    0.5678   -1.6425 H   0  0  0  0  0  0  0  0  0  0  0  0
   -2.3786    1.6427   -0.1786 H   0  0  0  0  0  0  0  0  0  0  0  0
   -1.6771    0.7943    1.2241 H   0  0  0  0  0  0  0  0  0  0  0  0
   -0.9521    2.3541    0.6094 H   0  0  0  0  0  0  0  0  0  0  0  0
  1  2  1  0
  2  3  2  0
  3  4  1  0
  4  5  1  0
  4  6  1  0
  6  7  2  0
  6  8  1  0
  8  9  1  0
  8  2  1  0
  1 10  1  0
  1 11  1  0
  1 12  1  0
  3 13  1  0
  4 14  1  0
  5 15  1  0
  8 16  1  0
  9 17  1  0
  9 18  1  0
  9 19  1  0
M  END
