
     RDKit          3D

 22 22  0  0  0  0  0  0  0  0999 V2000
   -0.4479    2.1858    0.1659 C   0  0  0  0  0  0  0  0  0  0  0  0
    0.2832    0.9171    0.0308 C   0  0  0  0  0  0  0  0  0  0  0  0
    1.5948    0.7865   -0.1235 C   0  0  0  0  0  0  0  0  0  0  0  0
    1.9490   -0.6535   -0.2229 C   0  0  0  0  0  0  0  0  0  0  0  0
    0.7982   -1.2876    0.5280 C   0  0  0  0  0  0  0  0  0  0  0  0
   -0.3580   -0.4494    0.0480 C   0  0  0  0  0  0  0  0  0  0  0  0
   -0.8098   -0.7693   -1.3323 C   0  0  0  0  0  0  0  0  0  0  0  0
   -1.5025   -0.4864    1.0077 C   0  0  0  0  0  0  0  0  0  0  0  0
   -0.2219    2.6088    1.1589 H   0  0  0  0  0  0  0  0  0  0  0  0
   -1.5486    2.0188    0.0900 H   0  0  0  0  0  0  0  0  0  0  0  0
   -0.2154    2.9083   -0.6657 H   0  0  0  0  0  0  0  0  0  0  0  0
    2.3237    1.5861   -0.1734 H   0  0  0  0  0  0  0  0  0  0  0  0
    2.0162   -1.0038   -1.2757 H   0  0  0  0  0  0  0  0  0  0  0  0
    2.8860   -0.9039    0.3033 H   0  0  0  0  0  0  0  0  0  0  0  0
    0.6920   -2.3520    0.3396 H   0  0  0  0  0  0  0  0  0  0  0  0
    0.9509   -1.0297    1.6053 H   0  0  0  0  0  0  0  0  0  0  0  0
   -1.8768   -1.1347   -1.3511 H   0  0  0  0  0  0  0  0  0  0  0  0
   -0.8352    0.1507   -1.9881 H   0  0  0  0  0  0  0  0  0  0  0  0
   -0.2289   -1.5745   -1.8319 H   0  0  0  0  0  0  0  0  0  0  0  0
   -1.3163    0.1603    1.8969 H   0  0  0  0  0  0  0  0  0  0  0  0
   -2.4373   -0.1357    0.4922 H   0  0  0  0  0  0  0  0  0  0  0  0
   -1.6953   -1.5418    1.2980 H   0  0  0  0  0  0  0  0  0  0  0  0
  1  2  1  0
  2  3  2  0
  3  4  1  0
  4  5  1  0
  5  6  1  0
  6  7  1  0
  6  8  1  0
  6  2  1  0
  1  9  1  0
  1 10  1  0
  1 11  1  0
  3 12  1  0
  4 13  1  0
  4 14  1  0
  5 15  1  0
  5 16  1  0
  7 17  1  0
  7 18  1  0
  7 19  1  0
  8 20  1  0
  8 21  1  0
  8 22  1  0
M  END
