
     RDKit          3D

 19 21  0  0  0  0  0  0  0  0999 V2000
    2.1912   -0.7484   -0.6524 C   0  0  0  0  0  0  0  0  0  0  0  0
    0.9781    0.0706   -0.4408 C   0  0  0  0  0  0  0  0  0  0  0  0
    0.0610    0.4460   -1.3388 C   0  0  0  0  0  0  0  0  0  0  0  0
   -0.9453    1.2227   -0.5689 C   0  0  0  0  0  0  0  0  0  0  0  0
   -0.1029    1.8358    0.3904 O   0  0  0  0  0  0  0  0  0  0  0  0
    0.5286    0.6524    0.8458 C   0  0  0  0  0  0  0  0  0  0  0  0
   -0.6457   -0.1369    1.3306 C   0  0  0  0  0  0  0  0  0  0  0  0
   -1.3646   -1.0879    0.4351 C   0  0  0  0  0  0  0  0  0  0  0  0
   -1.7491    0.3239    0.3248 C   0  0  0  0  0  0  0  0  0  0  0  0
    3.0746   -0.1295   -0.9688 H   0  0  0  0  0  0  0  0  0  0  0  0
    2.4339   -1.2488    0.3149 H   0  0  0  0  0  0  0  0  0  0  0  0
    2.0544   -1.5103   -1.4711 H   0  0  0  0  0  0  0  0  0  0  0  0
    0.1048    0.1999   -2.3939 H   0  0  0  0  0  0  0  0  0  0  0  0
   -1.5139    1.9336   -1.1510 H   0  0  0  0  0  0  0  0  0  0  0  0
    1.3087    0.8367    1.5672 H   0  0  0  0  0  0  0  0  0  0  0  0
   -0.8902   -0.0693    2.3956 H   0  0  0  0  0  0  0  0  0  0  0  0
   -0.8486   -1.5747   -0.4053 H   0  0  0  0  0  0  0  0  0  0  0  0
   -2.0591   -1.7840    0.9726 H   0  0  0  0  0  0  0  0  0  0  0  0
   -2.6156    0.7680    0.8139 H   0  0  0  0  0  0  0  0  0  0  0  0
  1  2  1  0
  2  3  2  0
  3  4  1  0
  4  5  1  0
  5  6  1  0
  6  7  1  0
  7  8  1  0
  8  9  1  0
  6  2  1  0
  9  7  1  0
  9  4  1  0
  1 10  1  0
  1 11  1  0
  1 12  1  0
  3 13  1  0
  4 14  1  0
  6 15  1  0
  7 16  1  0
  8 17  1  0
  8 18  1  0
  9 19  1  0
M  END
