
     RDKit          3D

 21 22  0  0  0  0  0  0  0  0999 V2000
    2.8218    0.2370    0.3966 C   0  0  0  0  0  0  0  0  0  0  0  0
    1.3364    0.0735    0.2181 C   0  0  0  0  0  0  0  0  0  0  0  0
    0.4618    1.0571    0.3412 C   0  0  0  0  0  0  0  0  0  0  0  0
   -0.8743    0.5132    0.0963 C   0  0  0  0  0  0  0  0  0  0  0  0
   -2.0860    1.0551    0.7842 C   0  0  0  0  0  0  0  0  0  0  0  0
   -1.1088    0.1100   -1.3819 C   0  0  0  0  0  0  0  0  0  0  0  0
   -0.7314   -0.8650   -0.3332 C   0  0  0  0  0  0  0  0  0  0  0  0
   -1.6362   -1.8683   -0.0126 O   0  0  0  0  0  0  0  0  0  0  0  0
    0.7128   -1.2200   -0.1126 C   0  0  0  0  0  0  0  0  0  0  0  0
    3.1171    1.2910    0.2465 H   0  0  0  0  0  0  0  0  0  0  0  0
    3.3753   -0.3515   -0.3902 H   0  0  0  0  0  0  0  0  0  0  0  0
    3.1510   -0.0964    1.3942 H   0  0  0  0  0  0  0  0  0  0  0  0
    0.7055    2.0948    0.5844 H   0  0  0  0  0  0  0  0  0  0  0  0
   -2.6280    0.3039    1.3988 H   0  0  0  0  0  0  0  0  0  0  0  0
   -1.7470    1.9310    1.4017 H   0  0  0  0  0  0  0  0  0  0  0  0
   -2.8451    1.4772    0.0813 H   0  0  0  0  0  0  0  0  0  0  0  0
   -2.1821    0.0573   -1.7099 H   0  0  0  0  0  0  0  0  0  0  0  0
   -0.3774    0.4796   -2.1285 H   0  0  0  0  0  0  0  0  0  0  0  0
   -1.3914   -2.6636   -0.5844 H   0  0  0  0  0  0  0  0  0  0  0  0
    0.7853   -1.9513    0.7463 H   0  0  0  0  0  0  0  0  0  0  0  0
    1.1407   -1.6646   -1.0363 H   0  0  0  0  0  0  0  0  0  0  0  0
  1  2  1  0
  2  3  2  0
  3  4  1  0
  4  5  1  0
  4  6  1  0
  6  7  1  0
  7  8  1  0
  7  9  1  0
  9  2  1  0
  7  4  1  0
  1 10  1  0
  1 11  1  0
  1 12  1  0
  3 13  1  0
  5 14  1  0
  5 15  1  0
  5 16  1  0
  6 17  1  0
  6 18  1  0
  8 19  1  0
  9 20  1  0
  9 21  1  0
M  END
