
     RDKit          3D

 19 19  0  0  0  0  0  0  0  0999 V2000
    0.1687    2.1104    0.2339 C   0  0  0  0  0  0  0  0  0  0  0  0
   -0.0128    0.6614    0.0607 C   0  0  0  0  0  0  0  0  0  0  0  0
    0.9364   -0.2310   -0.1336 C   0  0  0  0  0  0  0  0  0  0  0  0
    2.3536    0.1125   -0.2054 C   0  0  0  0  0  0  0  0  0  0  0  0
    3.1684   -0.8239   -0.3943 O   0  0  0  0  0  0  0  0  0  0  0  0
    0.3627   -1.5855   -0.2687 C   0  0  0  0  0  0  0  0  0  0  0  0
   -0.9567   -1.4717    0.4492 C   0  0  0  0  0  0  0  0  0  0  0  0
   -1.3348   -0.0284    0.0867 C   0  0  0  0  0  0  0  0  0  0  0  0
   -1.9252   -0.0062   -1.1552 O   0  0  0  0  0  0  0  0  0  0  0  0
   -0.6924    2.5429    0.7591 H   0  0  0  0  0  0  0  0  0  0  0  0
    0.2867    2.5719   -0.7862 H   0  0  0  0  0  0  0  0  0  0  0  0
    1.0690    2.3639    0.8335 H   0  0  0  0  0  0  0  0  0  0  0  0
    2.7019    1.1486   -0.0991 H   0  0  0  0  0  0  0  0  0  0  0  0
    1.0147   -2.3727    0.1536 H   0  0  0  0  0  0  0  0  0  0  0  0
    0.1957   -1.7462   -1.3699 H   0  0  0  0  0  0  0  0  0  0  0  0
   -0.7509   -1.5113    1.5291 H   0  0  0  0  0  0  0  0  0  0  0  0
   -1.7220   -2.1617    0.1017 H   0  0  0  0  0  0  0  0  0  0  0  0
   -1.9446    0.3657    0.9014 H   0  0  0  0  0  0  0  0  0  0  0  0
   -2.9185    0.0612   -1.0700 H   0  0  0  0  0  0  0  0  0  0  0  0
  1  2  1  0
  2  3  2  0
  3  4  1  0
  4  5  2  0
  3  6  1  0
  6  7  1  0
  7  8  1  0
  8  9  1  0
  8  2  1  0
  1 10  1  0
  1 11  1  0
  1 12  1  0
  4 13  1  0
  6 14  1  0
  6 15  1  0
  7 16  1  0
  7 17  1  0
  8 18  1  0
  9 19  1  0
M  END
