
     RDKit          3D

 18 18  0  0  0  0  0  0  0  0999 V2000
    2.4053    0.2606    0.0914 C   0  0  0  0  0  0  0  0  0  0  0  0
    0.9241    0.2072    0.0654 C   0  0  0  0  0  0  0  0  0  0  0  0
    0.1944    1.3130    0.0353 C   0  0  0  0  0  0  0  0  0  0  0  0
   -1.2624    1.2861    0.0094 C   0  0  0  0  0  0  0  0  0  0  0  0
   -1.9928    2.2837   -0.2111 O   0  0  0  0  0  0  0  0  0  0  0  0
   -1.9152   -0.0228    0.2639 C   0  0  0  0  0  0  0  0  0  0  0  0
   -1.1190   -1.0394   -0.5582 C   0  0  0  0  0  0  0  0  0  0  0  0
    0.2589   -1.0949    0.0734 C   0  0  0  0  0  0  0  0  0  0  0  0
    2.7905   -0.2264   -0.8215 H   0  0  0  0  0  0  0  0  0  0  0  0
    2.7512   -0.3793    0.9497 H   0  0  0  0  0  0  0  0  0  0  0  0
    2.7723    1.3018    0.1904 H   0  0  0  0  0  0  0  0  0  0  0  0
    0.6593    2.2915    0.0286 H   0  0  0  0  0  0  0  0  0  0  0  0
   -2.9819   -0.0283    0.0059 H   0  0  0  0  0  0  0  0  0  0  0  0
   -1.7714   -0.2557    1.3577 H   0  0  0  0  0  0  0  0  0  0  0  0
   -1.0726   -0.6559   -1.5923 H   0  0  0  0  0  0  0  0  0  0  0  0
   -1.6332   -1.9910   -0.4629 H   0  0  0  0  0  0  0  0  0  0  0  0
    0.8572   -1.7948   -0.5451 H   0  0  0  0  0  0  0  0  0  0  0  0
    0.1353   -1.4554    1.1200 H   0  0  0  0  0  0  0  0  0  0  0  0
  1  2  1  0
  2  3  2  0
  3  4  1  0
  4  5  2  0
  4  6  1  0
  6  7  1  0
  7  8  1  0
  8  2  1  0
  1  9  1  0
  1 10  1  0
  1 11  1  0
  3 12  1  0
  6 13  1  0
  6 14  1  0
  7 15  1  0
  7 16  1  0
  8 17  1  0
  8 18  1  0
M  END
