
     RDKit          3D

 21 22  0  0  0  0  0  0  0  0999 V2000
    0.1180    1.9297    1.1119 C   0  0  0  0  0  0  0  0  0  0  0  0
   -0.2235    0.7305    0.2673 C   0  0  0  0  0  0  0  0  0  0  0  0
    0.6775   -0.0035   -0.3510 C   0  0  0  0  0  0  0  0  0  0  0  0
    2.1489    0.2185   -0.3231 C   0  0  0  0  0  0  0  0  0  0  0  0
    2.7525   -0.9339    0.2236 O   0  0  0  0  0  0  0  0  0  0  0  0
    0.0557   -1.1241   -1.1128 C   0  0  0  0  0  0  0  0  0  0  0  0
   -1.4187   -0.8455   -0.9619 C   0  0  0  0  0  0  0  0  0  0  0  0
   -1.9938   -1.1392    0.3678 C   0  0  0  0  0  0  0  0  0  0  0  0
   -1.5903    0.2309    0.0273 C   0  0  0  0  0  0  0  0  0  0  0  0
    0.9752    2.4901    0.7043 H   0  0  0  0  0  0  0  0  0  0  0  0
   -0.7577    2.6336    1.0416 H   0  0  0  0  0  0  0  0  0  0  0  0
    0.2878    1.6556    2.1662 H   0  0  0  0  0  0  0  0  0  0  0  0
    2.3929    1.0684    0.3458 H   0  0  0  0  0  0  0  0  0  0  0  0
    2.5129    0.3710   -1.3595 H   0  0  0  0  0  0  0  0  0  0  0  0
    2.2462   -1.1841    1.0136 H   0  0  0  0  0  0  0  0  0  0  0  0
    0.3786   -1.1520   -2.1706 H   0  0  0  0  0  0  0  0  0  0  0  0
    0.2768   -2.0554   -0.5764 H   0  0  0  0  0  0  0  0  0  0  0  0
   -2.0122   -0.8138   -1.8771 H   0  0  0  0  0  0  0  0  0  0  0  0
   -3.0635   -1.3504    0.4615 H   0  0  0  0  0  0  0  0  0  0  0  0
   -1.3603   -1.7163    1.1028 H   0  0  0  0  0  0  0  0  0  0  0  0
   -2.4029    0.9900   -0.1013 H   0  0  0  0  0  0  0  0  0  0  0  0
  1  2  1  0
  2  3  2  0
  3  4  1  0
  4  5  1  0
  3  6  1  0
  6  7  1  0
  7  8  1  0
  8  9  1  0
  9  2  1  0
  9  7  1  0
  1 10  1  0
  1 11  1  0
  1 12  1  0
  4 13  1  0
  4 14  1  0
  5 15  1  0
  6 16  1  0
  6 17  1  0
  7 18  1  0
  8 19  1  0
  8 20  1  0
  9 21  1  0
M  END
