
     RDKit          3D

 21 22  0  0  0  0  0  0  0  0999 V2000
    2.3099   -1.0249   -0.0969 C   0  0  0  0  0  0  0  0  0  0  0  0
    1.1598   -0.1085    0.0445 C   0  0  0  0  0  0  0  0  0  0  0  0
   -0.0487   -0.5555    0.2513 C   0  0  0  0  0  0  0  0  0  0  0  0
   -1.0588   -1.6021    0.4518 C   0  0  0  0  0  0  0  0  0  0  0  0
   -2.0358   -0.6298   -0.2319 C   0  0  0  0  0  0  0  0  0  0  0  0
   -1.1475    0.4342    0.3818 C   0  0  0  0  0  0  0  0  0  0  0  0
   -0.9365    1.6556   -0.4602 C   0  0  0  0  0  0  0  0  0  0  0  0
    0.3435    2.0505   -0.6349 O   0  0  0  0  0  0  0  0  0  0  0  0
    1.3474    1.3603   -0.0472 C   0  0  0  0  0  0  0  0  0  0  0  0
    2.0156   -2.0677   -0.2561 H   0  0  0  0  0  0  0  0  0  0  0  0
    2.9001   -0.9614    0.8454 H   0  0  0  0  0  0  0  0  0  0  0  0
    2.9467   -0.7267   -0.9692 H   0  0  0  0  0  0  0  0  0  0  0  0
   -0.9217   -2.5443   -0.1087 H   0  0  0  0  0  0  0  0  0  0  0  0
   -1.2884   -1.7511    1.5343 H   0  0  0  0  0  0  0  0  0  0  0  0
   -3.0403   -0.7153    0.1834 H   0  0  0  0  0  0  0  0  0  0  0  0
   -1.9225   -0.7395   -1.3182 H   0  0  0  0  0  0  0  0  0  0  0  0
   -1.4819    0.6345    1.4163 H   0  0  0  0  0  0  0  0  0  0  0  0
   -1.4905    2.4839    0.0427 H   0  0  0  0  0  0  0  0  0  0  0  0
   -1.4791    1.5105   -1.4378 H   0  0  0  0  0  0  0  0  0  0  0  0
    2.3271    1.5546   -0.5748 H   0  0  0  0  0  0  0  0  0  0  0  0
    1.5017    1.7428    0.9842 H   0  0  0  0  0  0  0  0  0  0  0  0
  1  2  1  0
  2  3  2  0
  3  4  1  0
  4  5  1  0
  5  6  1  0
  6  7  1  0
  7  8  1  0
  8  9  1  0
  9  2  1  0
  6  3  1  0
  1 10  1  0
  1 11  1  0
  1 12  1  0
  4 13  1  0
  4 14  1  0
  5 15  1  0
  5 16  1  0
  6 17  1  0
  7 18  1  0
  7 19  1  0
  9 20  1  0
  9 21  1  0
M  END
