
     RDKit          3D

 23 24  0  0  0  0  0  0  0  0999 V2000
   -3.0152    0.2673    0.0710 C   0  0  0  0  0  0  0  0  0  0  0  0
   -1.5231    0.2236   -0.0383 C   0  0  0  0  0  0  0  0  0  0  0  0
   -0.9111    1.3701   -0.3180 C   0  0  0  0  0  0  0  0  0  0  0  0
    0.5535    1.3684   -0.4336 C   0  0  0  0  0  0  0  0  0  0  0  0
    1.1162    0.5269    0.6670 C   0  0  0  0  0  0  0  0  0  0  0  0
    2.4691   -0.0465    0.2289 C   0  0  0  0  0  0  0  0  0  0  0  0
    1.7440   -1.3636   -0.0247 C   0  0  0  0  0  0  0  0  0  0  0  0
    0.5788   -0.8464    0.7537 C   0  0  0  0  0  0  0  0  0  0  0  0
   -0.7806   -1.0483    0.1594 C   0  0  0  0  0  0  0  0  0  0  0  0
   -3.3974    0.0684   -0.9580 H   0  0  0  0  0  0  0  0  0  0  0  0
   -3.3974   -0.4516    0.8072 H   0  0  0  0  0  0  0  0  0  0  0  0
   -3.3830    1.2707    0.3664 H   0  0  0  0  0  0  0  0  0  0  0  0
   -1.4793    2.2738   -0.4553 H   0  0  0  0  0  0  0  0  0  0  0  0
    0.9786    2.3924   -0.3200 H   0  0  0  0  0  0  0  0  0  0  0  0
    0.8369    0.9206   -1.4025 H   0  0  0  0  0  0  0  0  0  0  0  0
    1.2083    1.1130    1.6029 H   0  0  0  0  0  0  0  0  0  0  0  0
    3.2241   -0.0863    1.0380 H   0  0  0  0  0  0  0  0  0  0  0  0
    2.8704    0.4013   -0.6990 H   0  0  0  0  0  0  0  0  0  0  0  0
    1.5531   -1.5837   -1.0903 H   0  0  0  0  0  0  0  0  0  0  0  0
    2.2538   -2.2386    0.4449 H   0  0  0  0  0  0  0  0  0  0  0  0
    0.6242   -1.2247    1.8130 H   0  0  0  0  0  0  0  0  0  0  0  0
   -1.4175   -1.6706    0.8455 H   0  0  0  0  0  0  0  0  0  0  0  0
   -0.7064   -1.6364   -0.7787 H   0  0  0  0  0  0  0  0  0  0  0  0
  1  2  1  0
  2  3  2  0
  3  4  1  0
  4  5  1  0
  5  6  1  0
  6  7  1  0
  7  8  1  0
  8  9  1  0
  9  2  1  0
  8  5  1  0
  1 10  1  0
  1 11  1  0
  1 12  1  0
  3 13  1  0
  4 14  1  0
  4 15  1  0
  5 16  1  0
  6 17  1  0
  6 18  1  0
  7 19  1  0
  7 20  1  0
  8 21  1  0
  9 22  1  0
  9 23  1  0
M  END
