
     RDKit          3D

 23 24  0  0  0  0  0  0  0  0999 V2000
   -2.7277   -1.2454   -0.6429 C   0  0  0  0  0  0  0  0  0  0  0  0
   -1.3864   -0.6928   -0.3234 C   0  0  0  0  0  0  0  0  0  0  0  0
   -0.3412   -1.3423    0.1600 C   0  0  0  0  0  0  0  0  0  0  0  0
    0.7831   -0.3808    0.3201 C   0  0  0  0  0  0  0  0  0  0  0  0
    1.9051   -0.4968   -0.6013 C   0  0  0  0  0  0  0  0  0  0  0  0
    2.0550   -0.7190    0.9077 C   0  0  0  0  0  0  0  0  0  0  0  0
    0.0254    0.8826    0.5646 C   0  0  0  0  0  0  0  0  0  0  0  0
    0.8228    2.1361    0.4406 C   0  0  0  0  0  0  0  0  0  0  0  0
   -1.0272    0.7407   -0.5197 C   0  0  0  0  0  0  0  0  0  0  0  0
   -2.8701   -2.2643   -0.2021 H   0  0  0  0  0  0  0  0  0  0  0  0
   -2.8379   -1.3850   -1.7488 H   0  0  0  0  0  0  0  0  0  0  0  0
   -3.5525   -0.6267   -0.2267 H   0  0  0  0  0  0  0  0  0  0  0  0
   -0.2529   -2.3792    0.4138 H   0  0  0  0  0  0  0  0  0  0  0  0
    2.0538   -1.4357   -1.2053 H   0  0  0  0  0  0  0  0  0  0  0  0
    2.4413    0.3571   -1.0380 H   0  0  0  0  0  0  0  0  0  0  0  0
    2.6359    0.0740    1.4257 H   0  0  0  0  0  0  0  0  0  0  0  0
    2.1915   -1.7815    1.2538 H   0  0  0  0  0  0  0  0  0  0  0  0
   -0.5142    0.8383    1.5321 H   0  0  0  0  0  0  0  0  0  0  0  0
    1.0809    2.3671   -0.5998 H   0  0  0  0  0  0  0  0  0  0  0  0
    0.1970    2.9707    0.8221 H   0  0  0  0  0  0  0  0  0  0  0  0
    1.6917    2.0648    1.1177 H   0  0  0  0  0  0  0  0  0  0  0  0
   -0.5010    0.8926   -1.4846 H   0  0  0  0  0  0  0  0  0  0  0  0
   -1.8725    1.4253   -0.3657 H   0  0  0  0  0  0  0  0  0  0  0  0
  1  2  1  0
  2  3  2  0
  3  4  1  0
  4  5  1  0
  5  6  1  0
  4  7  1  0
  7  8  1  0
  7  9  1  0
  9  2  1  0
  6  4  1  0
  1 10  1  0
  1 11  1  0
  1 12  1  0
  3 13  1  0
  5 14  1  0
  5 15  1  0
  6 16  1  0
  6 17  1  0
  7 18  1  0
  8 19  1  0
  8 20  1  0
  8 21  1  0
  9 22  1  0
  9 23  1  0
M  END
