
     RDKit          3D

 23 23  0  0  0  0  0  0  0  0999 V2000
    2.7004    0.8353    0.2325 C   0  0  0  0  0  0  0  0  0  0  0  0
    1.3888    0.2204   -0.0564 C   0  0  0  0  0  0  0  0  0  0  0  0
    1.3976   -1.0758   -0.3132 C   0  0  0  0  0  0  0  0  0  0  0  0
    0.2318   -1.9331   -0.6318 C   0  0  0  0  0  0  0  0  0  0  0  0
   -0.8363   -1.6866    0.3832 C   0  0  0  0  0  0  0  0  0  0  0  0
   -1.7199   -0.5108    0.0489 C   0  0  0  0  0  0  0  0  0  0  0  0
   -1.0166    0.7676    0.0240 C   0  0  0  0  0  0  0  0  0  0  0  0
   -1.9188    1.9585    0.0533 C   0  0  0  0  0  0  0  0  0  0  0  0
    0.2599    1.1270   -0.0192 C   0  0  0  0  0  0  0  0  0  0  0  0
    3.1755    0.4636    1.1409 H   0  0  0  0  0  0  0  0  0  0  0  0
    3.4391    0.6561   -0.6023 H   0  0  0  0  0  0  0  0  0  0  0  0
    2.6083    1.9284    0.3203 H   0  0  0  0  0  0  0  0  0  0  0  0
    2.3813   -1.5221   -0.2772 H   0  0  0  0  0  0  0  0  0  0  0  0
    0.5658   -2.9976   -0.5080 H   0  0  0  0  0  0  0  0  0  0  0  0
   -0.1295   -1.8163   -1.6586 H   0  0  0  0  0  0  0  0  0  0  0  0
   -0.4206   -1.6415    1.3954 H   0  0  0  0  0  0  0  0  0  0  0  0
   -1.5137   -2.5911    0.3705 H   0  0  0  0  0  0  0  0  0  0  0  0
   -2.4909   -0.4620    0.8681 H   0  0  0  0  0  0  0  0  0  0  0  0
   -2.2689   -0.7045   -0.8772 H   0  0  0  0  0  0  0  0  0  0  0  0
   -1.4681    2.7748   -0.5800 H   0  0  0  0  0  0  0  0  0  0  0  0
   -1.9506    2.2955    1.1012 H   0  0  0  0  0  0  0  0  0  0  0  0
   -2.8887    1.7326   -0.3871 H   0  0  0  0  0  0  0  0  0  0  0  0
    0.4742    2.1817   -0.0274 H   0  0  0  0  0  0  0  0  0  0  0  0
  1  2  1  0
  2  3  2  0
  3  4  1  0
  4  5  1  0
  5  6  1  0
  6  7  1  0
  7  8  1  0
  7  9  2  0
  9  2  1  0
  1 10  1  0
  1 11  1  0
  1 12  1  0
  3 13  1  0
  4 14  1  0
  4 15  1  0
  5 16  1  0
  5 17  1  0
  6 18  1  0
  6 19  1  0
  8 20  1  0
  8 21  1  0
  8 22  1  0
  9 23  1  0
M  END
