
     RDKit          3D

 20 20  0  0  0  0  0  0  0  0999 V2000
    2.5700    0.7375    0.8820 C   0  0  0  0  0  0  0  0  0  0  0  0
    1.2995    0.0743    0.4313 C   0  0  0  0  0  0  0  0  0  0  0  0
    1.0790   -1.2209    0.3499 C   0  0  0  0  0  0  0  0  0  0  0  0
   -0.2778   -1.4854   -0.1303 C   0  0  0  0  0  0  0  0  0  0  0  0
   -0.8620   -0.1501   -0.5090 C   0  0  0  0  0  0  0  0  0  0  0  0
   -2.1961   -0.0327    0.2276 C   0  0  0  0  0  0  0  0  0  0  0  0
   -2.8411    1.1466   -0.0295 O   0  0  0  0  0  0  0  0  0  0  0  0
    0.1115    0.8541    0.0134 C   0  0  0  0  0  0  0  0  0  0  0  0
    3.3742   -0.0024    0.9026 H   0  0  0  0  0  0  0  0  0  0  0  0
    2.7659    1.5800    0.1850 H   0  0  0  0  0  0  0  0  0  0  0  0
    2.4185    1.1303    1.9163 H   0  0  0  0  0  0  0  0  0  0  0  0
    1.8100   -1.9758    0.6063 H   0  0  0  0  0  0  0  0  0  0  0  0
   -0.2627   -2.1801   -1.0162 H   0  0  0  0  0  0  0  0  0  0  0  0
   -0.8563   -2.0062    0.6590 H   0  0  0  0  0  0  0  0  0  0  0  0
   -0.9967   -0.1294   -1.6008 H   0  0  0  0  0  0  0  0  0  0  0  0
   -1.9205   -0.0411    1.3189 H   0  0  0  0  0  0  0  0  0  0  0  0
   -2.7763   -0.9424    0.0193 H   0  0  0  0  0  0  0  0  0  0  0  0
   -2.4960    1.6560   -0.7877 H   0  0  0  0  0  0  0  0  0  0  0  0
    0.3425    1.5824   -0.7905 H   0  0  0  0  0  0  0  0  0  0  0  0
   -0.2857    1.4054    0.9066 H   0  0  0  0  0  0  0  0  0  0  0  0
  1  2  1  0
  2  3  2  0
  3  4  1  0
  4  5  1  0
  5  6  1  0
  6  7  1  0
  5  8  1  0
  8  2  1  0
  1  9  1  0
  1 10  1  0
  1 11  1  0
  3 12  1  0
  4 13  1  0
  4 14  1  0
  5 15  1  0
  6 16  1  0
  6 17  1  0
  7 18  1  0
  8 19  1  0
  8 20  1  0
M  END
