
     RDKit          3D

 17 19  0  0  0  0  0  0  0  0999 V2000
    2.3752   -0.1219    0.2694 C   0  0  0  0  0  0  0  0  0  0  0  0
    0.9249    0.0574   -0.0686 C   0  0  0  0  0  0  0  0  0  0  0  0
    0.4090    1.1699   -0.5586 C   0  0  0  0  0  0  0  0  0  0  0  0
   -1.0520    0.9908   -0.7728 C   0  0  0  0  0  0  0  0  0  0  0  0
   -1.7735    0.3246    0.3427 C   0  0  0  0  0  0  0  0  0  0  0  0
   -1.0932   -0.6674    1.1956 C   0  0  0  0  0  0  0  0  0  0  0  0
   -1.2424   -1.0552    2.3283 O   0  0  0  0  0  0  0  0  0  0  0  0
   -0.1672   -0.9798    0.0936 C   0  0  0  0  0  0  0  0  0  0  0  0
   -1.2075   -0.4523   -0.8459 C   0  0  0  0  0  0  0  0  0  0  0  0
    2.9944    0.0302   -0.6384 H   0  0  0  0  0  0  0  0  0  0  0  0
    2.6496    0.6119    1.0765 H   0  0  0  0  0  0  0  0  0  0  0  0
    2.5010   -1.1363    0.6950 H   0  0  0  0  0  0  0  0  0  0  0  0
    0.9248    2.0832   -0.7825 H   0  0  0  0  0  0  0  0  0  0  0  0
   -1.6064    1.7252   -1.3393 H   0  0  0  0  0  0  0  0  0  0  0  0
   -2.8697    0.4662    0.3993 H   0  0  0  0  0  0  0  0  0  0  0  0
    0.1618   -2.0057   -0.0270 H   0  0  0  0  0  0  0  0  0  0  0  0
   -1.9287   -1.0409   -1.3675 H   0  0  0  0  0  0  0  0  0  0  0  0
  1  2  1  0
  2  3  2  0
  3  4  1  0
  4  5  1  0
  5  6  1  0
  6  7  2  0
  6  8  1  0
  8  9  1  0
  8  2  1  0
  9  4  1  0
  9  5  1  0
  1 10  1  0
  1 11  1  0
  1 12  1  0
  3 13  1  0
  4 14  1  0
  5 15  1  0
  8 16  1  0
  9 17  1  0
M  END
