
     RDKit          3D

 21 21  0  0  0  0  0  0  0  0999 V2000
    3.0242    0.2469   -0.0304 C   0  0  0  0  0  0  0  0  0  0  0  0
    1.5625   -0.0230   -0.0332 C   0  0  0  0  0  0  0  0  0  0  0  0
    1.0973   -1.0346    0.6811 C   0  0  0  0  0  0  0  0  0  0  0  0
   -0.2855   -1.5208    0.8570 C   0  0  0  0  0  0  0  0  0  0  0  0
   -1.1522   -1.0999   -0.1272 O   0  0  0  0  0  0  0  0  0  0  0  0
   -1.5268    0.2161   -0.0438 C   0  0  0  0  0  0  0  0  0  0  0  0
   -2.9623    0.4831   -0.3550 C   0  0  0  0  0  0  0  0  0  0  0  0
   -0.5947    1.0148   -0.8914 C   0  0  0  0  0  0  0  0  0  0  0  0
    0.7271    0.8625   -0.8380 C   0  0  0  0  0  0  0  0  0  0  0  0
    3.5843   -0.4779   -0.6534 H   0  0  0  0  0  0  0  0  0  0  0  0
    3.3646    0.0595    1.0306 H   0  0  0  0  0  0  0  0  0  0  0  0
    3.2536    1.2948   -0.2351 H   0  0  0  0  0  0  0  0  0  0  0  0
    1.8376   -1.5987    1.2239 H   0  0  0  0  0  0  0  0  0  0  0  0
   -0.6806   -1.3375    1.8801 H   0  0  0  0  0  0  0  0  0  0  0  0
   -0.2289   -2.6467    0.7658 H   0  0  0  0  0  0  0  0  0  0  0  0
   -1.3389    0.5521    1.0047 H   0  0  0  0  0  0  0  0  0  0  0  0
   -3.2087    0.5334   -1.4159 H   0  0  0  0  0  0  0  0  0  0  0  0
   -3.2051    1.4978    0.0723 H   0  0  0  0  0  0  0  0  0  0  0  0
   -3.5707   -0.2648    0.1836 H   0  0  0  0  0  0  0  0  0  0  0  0
   -1.0012    1.7431   -1.5736 H   0  0  0  0  0  0  0  0  0  0  0  0
    1.3045    1.4995   -1.5020 H   0  0  0  0  0  0  0  0  0  0  0  0
  1  2  1  0
  2  3  2  0
  3  4  1  0
  4  5  1  0
  5  6  1  0
  6  7  1  0
  6  8  1  0
  8  9  2  0
  9  2  1  0
  1 10  1  0
  1 11  1  0
  1 12  1  0
  3 13  1  0
  4 14  1  0
  4 15  1  0
  6 16  1  0
  7 17  1  0
  7 18  1  0
  7 19  1  0
  8 20  1  0
  9 21  1  0
M  END
