
     RDKit          3D

 19 20  0  0  0  0  0  0  0  0999 V2000
    2.5775    0.2122    1.0340 C   0  0  0  0  0  0  0  0  0  0  0  0
    1.3176   -0.1257    0.3227 C   0  0  0  0  0  0  0  0  0  0  0  0
    0.8534   -1.2927   -0.1298 C   0  0  0  0  0  0  0  0  0  0  0  0
   -0.4486   -0.8633   -0.7387 C   0  0  0  0  0  0  0  0  0  0  0  0
   -0.0281    0.3142   -1.3995 O   0  0  0  0  0  0  0  0  0  0  0  0
    0.1902    0.7924   -0.0910 C   0  0  0  0  0  0  0  0  0  0  0  0
   -1.0472    0.0495    0.2943 C   0  0  0  0  0  0  0  0  0  0  0  0
   -2.2779    0.7383   -0.2400 C   0  0  0  0  0  0  0  0  0  0  0  0
   -1.1227   -0.4470    1.5665 O   0  0  0  0  0  0  0  0  0  0  0  0
    2.7074    1.3269    0.9574 H   0  0  0  0  0  0  0  0  0  0  0  0
    2.5712   -0.0451    2.0956 H   0  0  0  0  0  0  0  0  0  0  0  0
    3.4736   -0.2080    0.5146 H   0  0  0  0  0  0  0  0  0  0  0  0
    1.2574   -2.2938   -0.0956 H   0  0  0  0  0  0  0  0  0  0  0  0
   -1.0358   -1.5601   -1.2626 H   0  0  0  0  0  0  0  0  0  0  0  0
    0.2964    1.8275    0.0677 H   0  0  0  0  0  0  0  0  0  0  0  0
   -2.2389    0.7538   -1.3587 H   0  0  0  0  0  0  0  0  0  0  0  0
   -2.1953    1.8184    0.0635 H   0  0  0  0  0  0  0  0  0  0  0  0
   -3.2195    0.2910    0.0942 H   0  0  0  0  0  0  0  0  0  0  0  0
   -1.6307   -1.2886    1.6504 H   0  0  0  0  0  0  0  0  0  0  0  0
  1  2  1  0
  2  3  2  0
  3  4  1  0
  4  5  1  0
  5  6  1  0
  6  7  1  0
  7  8  1  0
  7  9  1  0
  6  2  1  0
  7  4  1  0
  1 10  1  0
  1 11  1  0
  1 12  1  0
  3 13  1  0
  4 14  1  0
  6 15  1  0
  8 16  1  0
  8 17  1  0
  8 18  1  0
  9 19  1  0
M  END
