
     RDKit          3D

 19 20  0  0  0  0  0  0  0  0999 V2000
    2.5183   -0.2551   -0.0157 C   0  0  0  0  0  0  0  0  0  0  0  0
    1.0450   -0.1294   -0.0540 C   0  0  0  0  0  0  0  0  0  0  0  0
    0.2499   -0.6045    0.9121 C   0  0  0  0  0  0  0  0  0  0  0  0
   -1.1628   -0.3474    0.5066 C   0  0  0  0  0  0  0  0  0  0  0  0
   -2.1027   -1.0878    1.0751 O   0  0  0  0  0  0  0  0  0  0  0  0
   -1.3363    1.1316    0.5439 C   0  0  0  0  0  0  0  0  0  0  0  0
   -0.5303    1.6258   -0.3884 C   0  0  0  0  0  0  0  0  0  0  0  0
    0.1503    0.4888   -1.0623 C   0  0  0  0  0  0  0  0  0  0  0  0
   -1.0061   -0.5333   -1.0165 C   0  0  0  0  0  0  0  0  0  0  0  0
    2.9806    0.0629   -0.9711 H   0  0  0  0  0  0  0  0  0  0  0  0
    2.8072   -1.3164    0.1277 H   0  0  0  0  0  0  0  0  0  0  0  0
    2.8842    0.3247    0.8566 H   0  0  0  0  0  0  0  0  0  0  0  0
    0.5468   -1.0904    1.8297 H   0  0  0  0  0  0  0  0  0  0  0  0
   -2.7096   -1.6010    0.4975 H   0  0  0  0  0  0  0  0  0  0  0  0
   -1.9690    1.7368    1.1734 H   0  0  0  0  0  0  0  0  0  0  0  0
   -0.3775    2.6644   -0.6341 H   0  0  0  0  0  0  0  0  0  0  0  0
    0.5452    0.6628   -2.0281 H   0  0  0  0  0  0  0  0  0  0  0  0
   -1.8762   -0.1906   -1.5640 H   0  0  0  0  0  0  0  0  0  0  0  0
   -0.6567   -1.5420   -1.2212 H   0  0  0  0  0  0  0  0  0  0  0  0
  1  2  1  0
  2  3  2  0
  3  4  1  0
  4  5  1  0
  4  6  1  0
  6  7  2  0
  7  8  1  0
  8  9  1  0
  8  2  1  0
  9  4  1  0
  1 10  1  0
  1 11  1  0
  1 12  1  0
  3 13  1  0
  5 14  1  0
  6 15  1  0
  7 16  1  0
  8 17  1  0
  9 18  1  0
  9 19  1  0
M  END
