
     RDKit          3D

 21 22  0  0  0  0  0  0  0  0999 V2000
    2.6444    0.8208   -0.6743 C   0  0  0  0  0  0  0  0  0  0  0  0
    1.3246    0.2538   -0.2792 C   0  0  0  0  0  0  0  0  0  0  0  0
    0.1494    0.8130   -0.5517 C   0  0  0  0  0  0  0  0  0  0  0  0
   -0.9382   -0.0261   -0.0080 C   0  0  0  0  0  0  0  0  0  0  0  0
   -0.3306   -1.3761    0.1021 C   0  0  0  0  0  0  0  0  0  0  0  0
    1.1135   -1.0147    0.4746 C   0  0  0  0  0  0  0  0  0  0  0  0
   -2.2775    0.1065   -0.6163 C   0  0  0  0  0  0  0  0  0  0  0  0
   -2.6093    1.0447    0.3888 O   0  0  0  0  0  0  0  0  0  0  0  0
   -1.6212    0.5116    1.2195 C   0  0  0  0  0  0  0  0  0  0  0  0
    3.2607    0.1118   -1.2459 H   0  0  0  0  0  0  0  0  0  0  0  0
    2.5232    1.7232   -1.2776 H   0  0  0  0  0  0  0  0  0  0  0  0
    3.1801    1.1310    0.2605 H   0  0  0  0  0  0  0  0  0  0  0  0
   -0.0122    1.7387   -1.0871 H   0  0  0  0  0  0  0  0  0  0  0  0
   -0.2992   -1.8890   -0.8833 H   0  0  0  0  0  0  0  0  0  0  0  0
   -0.8285   -1.9396    0.8902 H   0  0  0  0  0  0  0  0  0  0  0  0
    1.1261   -0.8646    1.5628 H   0  0  0  0  0  0  0  0  0  0  0  0
    1.8090   -1.8166    0.1655 H   0  0  0  0  0  0  0  0  0  0  0  0
   -2.8942   -0.7976   -0.4431 H   0  0  0  0  0  0  0  0  0  0  0  0
   -2.3721    0.5470   -1.6086 H   0  0  0  0  0  0  0  0  0  0  0  0
   -1.9575   -0.3228    1.8655 H   0  0  0  0  0  0  0  0  0  0  0  0
   -0.9907    1.2452    1.7455 H   0  0  0  0  0  0  0  0  0  0  0  0
  1  2  1  0
  2  3  2  0
  3  4  1  0
  4  5  1  0
  5  6  1  0
  4  7  1  0
  7  8  1  0
  8  9  1  0
  6  2  1  0
  9  4  1  0
  1 10  1  0
  1 11  1  0
  1 12  1  0
  3 13  1  0
  5 14  1  0
  5 15  1  0
  6 16  1  0
  6 17  1  0
  7 18  1  0
  7 19  1  0
  9 20  1  0
  9 21  1  0
M  END
