
     RDKit          3D

 19 19  0  0  0  0  0  0  0  0999 V2000
   -2.2419   -1.0194    0.5250 C   0  0  0  0  0  0  0  0  0  0  0  0
   -1.0639   -0.2524    0.0579 C   0  0  0  0  0  0  0  0  0  0  0  0
    0.0813   -0.8938   -0.0768 C   0  0  0  0  0  0  0  0  0  0  0  0
    1.3363   -0.2352   -0.5379 C   0  0  0  0  0  0  0  0  0  0  0  0
    2.1368    0.0766    0.7299 C   0  0  0  0  0  0  0  0  0  0  0  0
    1.0600    1.0015   -1.2952 C   0  0  0  0  0  0  0  0  0  0  0  0
    1.9489    1.5021   -2.0317 O   0  0  0  0  0  0  0  0  0  0  0  0
   -0.1829    1.5877   -1.1764 O   0  0  0  0  0  0  0  0  0  0  0  0
   -1.1593    1.1872   -0.2504 C   0  0  0  0  0  0  0  0  0  0  0  0
   -2.6098   -1.7004   -0.2936 H   0  0  0  0  0  0  0  0  0  0  0  0
   -3.0478   -0.3300    0.8285 H   0  0  0  0  0  0  0  0  0  0  0  0
   -1.8914   -1.6733    1.3624 H   0  0  0  0  0  0  0  0  0  0  0  0
    0.1147   -1.9373    0.1553 H   0  0  0  0  0  0  0  0  0  0  0  0
    1.8738   -0.9631   -1.1836 H   0  0  0  0  0  0  0  0  0  0  0  0
    1.4115    0.2961    1.5399 H   0  0  0  0  0  0  0  0  0  0  0  0
    2.6520   -0.8617    1.0121 H   0  0  0  0  0  0  0  0  0  0  0  0
    2.7986    0.9370    0.6019 H   0  0  0  0  0  0  0  0  0  0  0  0
   -2.1776    1.4552   -0.6381 H   0  0  0  0  0  0  0  0  0  0  0  0
   -1.0393    1.8231    0.6706 H   0  0  0  0  0  0  0  0  0  0  0  0
  1  2  1  0
  2  3  2  0
  3  4  1  0
  4  5  1  0
  4  6  1  0
  6  7  2  0
  6  8  1  0
  8  9  1  0
  9  2  1  0
  1 10  1  0
  1 11  1  0
  1 12  1  0
  3 13  1  0
  4 14  1  0
  5 15  1  0
  5 16  1  0
  5 17  1  0
  9 18  1  0
  9 19  1  0
M  END
