
     RDKit          3D

 19 20  0  0  0  0  0  0  0  0999 V2000
   -2.5554    0.0897   -0.3805 C   0  0  0  0  0  0  0  0  0  0  0  0
   -1.1505   -0.1360    0.0580 C   0  0  0  0  0  0  0  0  0  0  0  0
   -0.5166   -1.2954    0.2391 C   0  0  0  0  0  0  0  0  0  0  0  0
    0.8155   -0.9513    0.7800 C   0  0  0  0  0  0  0  0  0  0  0  0
    0.5114    0.2480    1.4742 O   0  0  0  0  0  0  0  0  0  0  0  0
   -0.1292    0.9054    0.3958 C   0  0  0  0  0  0  0  0  0  0  0  0
    0.9144    0.8757   -0.6693 C   0  0  0  0  0  0  0  0  0  0  0  0
    1.7095   -0.3855   -0.2974 C   0  0  0  0  0  0  0  0  0  0  0  0
    2.9086    0.0399    0.2763 O   0  0  0  0  0  0  0  0  0  0  0  0
   -3.2652   -0.5940    0.1544 H   0  0  0  0  0  0  0  0  0  0  0  0
   -2.8717    1.1205   -0.0594 H   0  0  0  0  0  0  0  0  0  0  0  0
   -2.6485    0.0210   -1.4711 H   0  0  0  0  0  0  0  0  0  0  0  0
   -0.9741   -2.2464    0.0054 H   0  0  0  0  0  0  0  0  0  0  0  0
    1.2723   -1.6993    1.4073 H   0  0  0  0  0  0  0  0  0  0  0  0
   -0.5348    1.8626    0.6530 H   0  0  0  0  0  0  0  0  0  0  0  0
    0.4107    0.6443   -1.6342 H   0  0  0  0  0  0  0  0  0  0  0  0
    1.5549    1.7551   -0.6956 H   0  0  0  0  0  0  0  0  0  0  0  0
    1.8618   -1.0453   -1.1472 H   0  0  0  0  0  0  0  0  0  0  0  0
    2.6869    0.7911    0.9110 H   0  0  0  0  0  0  0  0  0  0  0  0
  1  2  1  0
  2  3  2  0
  3  4  1  0
  4  5  1  0
  5  6  1  0
  6  7  1  0
  7  8  1  0
  8  9  1  0
  6  2  1  0
  8  4  1  0
  1 10  1  0
  1 11  1  0
  1 12  1  0
  3 13  1  0
  4 14  1  0
  6 15  1  0
  7 16  1  0
  7 17  1  0
  8 18  1  0
  9 19  1  0
M  END
