
     RDKit          3D

 21 23  0  0  0  0  0  0  0  0999 V2000
    2.5577   -0.4596    0.2436 C   0  0  0  0  0  0  0  0  0  0  0  0
    1.1220   -0.0871    0.1544 C   0  0  0  0  0  0  0  0  0  0  0  0
    0.7524    1.1527    0.4578 C   0  0  0  0  0  0  0  0  0  0  0  0
   -0.6631    1.5023    0.2872 C   0  0  0  0  0  0  0  0  0  0  0  0
   -1.3759    0.7996   -0.7893 C   0  0  0  0  0  0  0  0  0  0  0  0
   -0.6797   -0.3468   -1.4220 C   0  0  0  0  0  0  0  0  0  0  0  0
    0.0329   -1.0061   -0.2561 C   0  0  0  0  0  0  0  0  0  0  0  0
   -1.0556   -0.9291    0.8122 C   0  0  0  0  0  0  0  0  0  0  0  0
   -1.6161    0.4421    0.6643 C   0  0  0  0  0  0  0  0  0  0  0  0
    2.9477   -0.1512    1.2582 H   0  0  0  0  0  0  0  0  0  0  0  0
    3.1906    0.1030   -0.4829 H   0  0  0  0  0  0  0  0  0  0  0  0
    2.7116   -1.5391    0.1015 H   0  0  0  0  0  0  0  0  0  0  0  0
    1.4291    1.9153    0.8211 H   0  0  0  0  0  0  0  0  0  0  0  0
   -0.9741    2.5421    0.4769 H   0  0  0  0  0  0  0  0  0  0  0  0
   -2.2389    1.2905   -1.2657 H   0  0  0  0  0  0  0  0  0  0  0  0
    0.0164   -0.0210   -2.2092 H   0  0  0  0  0  0  0  0  0  0  0  0
   -1.4062   -1.0900   -1.8367 H   0  0  0  0  0  0  0  0  0  0  0  0
    0.3363   -2.0310   -0.4369 H   0  0  0  0  0  0  0  0  0  0  0  0
   -1.8500   -1.6477    0.4774 H   0  0  0  0  0  0  0  0  0  0  0  0
   -0.6838   -1.1824    1.8044 H   0  0  0  0  0  0  0  0  0  0  0  0
   -2.5532    0.7434    1.1398 H   0  0  0  0  0  0  0  0  0  0  0  0
  1  2  1  0
  2  3  2  0
  3  4  1  0
  4  5  1  0
  5  6  1  0
  6  7  1  0
  7  8  1  0
  8  9  1  0
  7  2  1  0
  9  4  1  0
  9  5  1  0
  1 10  1  0
  1 11  1  0
  1 12  1  0
  3 13  1  0
  4 14  1  0
  5 15  1  0
  6 16  1  0
  6 17  1  0
  7 18  1  0
  8 19  1  0
  8 20  1  0
  9 21  1  0
M  END
