
     RDKit          3D

 17 19  0  0  0  0  0  0  0  0999 V2000
    2.4566   -0.4593   -0.1813 C   0  0  0  0  0  0  0  0  0  0  0  0
    1.0069   -0.0753   -0.1688 C   0  0  0  0  0  0  0  0  0  0  0  0
   -0.0031   -0.7786   -0.6634 C   0  0  0  0  0  0  0  0  0  0  0  0
   -1.2434   -0.0524   -0.4461 C   0  0  0  0  0  0  0  0  0  0  0  0
   -2.3282   -0.7557    0.3608 C   0  0  0  0  0  0  0  0  0  0  0  0
   -2.4430   -0.4206   -0.9838 O   0  0  0  0  0  0  0  0  0  0  0  0
   -0.9257    1.3130    0.0118 C   0  0  0  0  0  0  0  0  0  0  0  0
    0.0618    2.0931   -0.5333 O   0  0  0  0  0  0  0  0  0  0  0  0
    0.5276    1.2018    0.4278 C   0  0  0  0  0  0  0  0  0  0  0  0
    2.6851   -1.0796   -1.0911 H   0  0  0  0  0  0  0  0  0  0  0  0
    2.7053   -1.1189    0.6920 H   0  0  0  0  0  0  0  0  0  0  0  0
    3.0928    0.4590   -0.1846 H   0  0  0  0  0  0  0  0  0  0  0  0
    0.1527   -1.7513   -1.1485 H   0  0  0  0  0  0  0  0  0  0  0  0
   -2.0921   -1.7773    0.6618 H   0  0  0  0  0  0  0  0  0  0  0  0
   -2.8836   -0.1549    1.1125 H   0  0  0  0  0  0  0  0  0  0  0  0
   -1.6302    1.8242    0.7293 H   0  0  0  0  0  0  0  0  0  0  0  0
    0.8606    1.5327    1.4049 H   0  0  0  0  0  0  0  0  0  0  0  0
  1  2  1  0
  2  3  2  0
  3  4  1  0
  4  5  1  0
  5  6  1  0
  4  7  1  0
  7  8  1  0
  8  9  1  0
  9  2  1  0
  6  4  1  0
  9  7  1  0
  1 10  1  0
  1 11  1  0
  1 12  1  0
  3 13  1  0
  5 14  1  0
  5 15  1  0
  7 16  1  0
  9 17  1  0
M  END
