
     RDKit          3D

 21 22  0  0  0  0  0  0  0  0999 V2000
   -0.8905    2.3336   -0.2670 C   0  0  0  0  0  0  0  0  0  0  0  0
   -0.3485    0.9814   -0.2299 C   0  0  0  0  0  0  0  0  0  0  0  0
    0.8965    0.8243    0.2757 C   0  0  0  0  0  0  0  0  0  0  0  0
    1.5866   -0.4811    0.3822 C   0  0  0  0  0  0  0  0  0  0  0  0
    2.6460   -0.5973   -0.5114 O   0  0  0  0  0  0  0  0  0  0  0  0
    0.6477   -1.6779    0.2884 C   0  0  0  0  0  0  0  0  0  0  0  0
   -0.6942   -1.1663    0.5810 C   0  0  0  0  0  0  0  0  0  0  0  0
   -1.9181   -1.1336   -0.1153 C   0  0  0  0  0  0  0  0  0  0  0  0
   -0.9665   -0.2590   -0.6678 C   0  0  0  0  0  0  0  0  0  0  0  0
   -0.1652    2.9745   -0.8426 H   0  0  0  0  0  0  0  0  0  0  0  0
   -1.8705    2.4333   -0.7233 H   0  0  0  0  0  0  0  0  0  0  0  0
   -0.9187    2.8057    0.7525 H   0  0  0  0  0  0  0  0  0  0  0  0
    1.4523    1.6870    0.6347 H   0  0  0  0  0  0  0  0  0  0  0  0
    2.0330   -0.5164    1.4002 H   0  0  0  0  0  0  0  0  0  0  0  0
    3.0064    0.2723   -0.7917 H   0  0  0  0  0  0  0  0  0  0  0  0
    0.9892   -2.4550    0.9880 H   0  0  0  0  0  0  0  0  0  0  0  0
    0.7467   -2.0282   -0.7808 H   0  0  0  0  0  0  0  0  0  0  0  0
   -0.6937   -0.6518    1.5908 H   0  0  0  0  0  0  0  0  0  0  0  0
   -2.8278   -0.7134    0.3810 H   0  0  0  0  0  0  0  0  0  0  0  0
   -2.2254   -2.0441   -0.7046 H   0  0  0  0  0  0  0  0  0  0  0  0
   -0.4853   -0.5880   -1.6401 H   0  0  0  0  0  0  0  0  0  0  0  0
  1  2  1  0
  2  3  2  0
  3  4  1  0
  4  5  1  0
  4  6  1  0
  6  7  1  0
  7  8  1  0
  8  9  1  0
  9  2  1  0
  9  7  1  0
  1 10  1  0
  1 11  1  0
  1 12  1  0
  3 13  1  0
  4 14  1  0
  5 15  1  0
  6 16  1  0
  6 17  1  0
  7 18  1  0
  8 19  1  0
  8 20  1  0
  9 21  1  0
M  END
