
     RDKit          3D

 21 22  0  0  0  0  0  0  0  0999 V2000
    2.5452    0.8836   -0.2291 C   0  0  0  0  0  0  0  0  0  0  0  0
    1.1966    0.3106   -0.0966 C   0  0  0  0  0  0  0  0  0  0  0  0
    0.1902    0.8423    0.5917 C   0  0  0  0  0  0  0  0  0  0  0  0
   -0.9301   -0.0552    0.4322 C   0  0  0  0  0  0  0  0  0  0  0  0
   -1.6755    0.3024   -0.8375 C   0  0  0  0  0  0  0  0  0  0  0  0
   -2.0938    1.6491   -0.6052 O   0  0  0  0  0  0  0  0  0  0  0  0
   -1.4075   -1.2392    1.0324 C   0  0  0  0  0  0  0  0  0  0  0  0
   -0.1057   -1.3670    0.5418 C   0  0  0  0  0  0  0  0  0  0  0  0
    0.7073   -1.0076   -0.6411 C   0  0  0  0  0  0  0  0  0  0  0  0
    3.3121    0.1390   -0.5167 H   0  0  0  0  0  0  0  0  0  0  0  0
    2.9165    1.3227    0.7424 H   0  0  0  0  0  0  0  0  0  0  0  0
    2.5667    1.7459   -0.9490 H   0  0  0  0  0  0  0  0  0  0  0  0
    0.2364    1.7803    1.1583 H   0  0  0  0  0  0  0  0  0  0  0  0
   -2.6222   -0.2473   -0.9763 H   0  0  0  0  0  0  0  0  0  0  0  0
   -1.1066    0.3634   -1.7492 H   0  0  0  0  0  0  0  0  0  0  0  0
   -2.3778    1.7354    0.3406 H   0  0  0  0  0  0  0  0  0  0  0  0
   -2.2016   -1.8536    0.5433 H   0  0  0  0  0  0  0  0  0  0  0  0
   -1.6303   -1.1953    2.1303 H   0  0  0  0  0  0  0  0  0  0  0  0
    0.6566   -1.4214    1.4077 H   0  0  0  0  0  0  0  0  0  0  0  0
    0.2474   -0.9776   -1.6043 H   0  0  0  0  0  0  0  0  0  0  0  0
    1.5761   -1.7102   -0.7155 H   0  0  0  0  0  0  0  0  0  0  0  0
  1  2  1  0
  2  3  2  0
  3  4  1  0
  4  5  1  0
  5  6  1  0
  4  7  1  0
  7  8  1  0
  8  9  1  0
  9  2  1  0
  8  4  1  0
  1 10  1  0
  1 11  1  0
  1 12  1  0
  3 13  1  0
  5 14  1  0
  5 15  1  0
  6 16  1  0
  7 17  1  0
  7 18  1  0
  8 19  1  0
  9 20  1  0
  9 21  1  0
M  END
