
     RDKit          3D

 21 21  0  0  0  0  0  0  0  0999 V2000
    2.5670    0.3606    0.3288 C   0  0  0  0  0  0  0  0  0  0  0  0
    1.0881    0.3492    0.1894 C   0  0  0  0  0  0  0  0  0  0  0  0
    0.4932    1.3548   -0.4318 C   0  0  0  0  0  0  0  0  0  0  0  0
   -0.9215    1.6186   -0.7188 C   0  0  0  0  0  0  0  0  0  0  0  0
   -1.9754    0.8799   -0.4171 C   0  0  0  0  0  0  0  0  0  0  0  0
   -1.9822   -0.4059    0.2911 C   0  0  0  0  0  0  0  0  0  0  0  0
   -0.7812   -1.2689   -0.0100 C   0  0  0  0  0  0  0  0  0  0  0  0
   -0.4815   -1.2988   -1.3736 O   0  0  0  0  0  0  0  0  0  0  0  0
    0.4244   -0.8223    0.7793 C   0  0  0  0  0  0  0  0  0  0  0  0
    2.8298    0.0902    1.3869 H   0  0  0  0  0  0  0  0  0  0  0  0
    2.9928    1.3804    0.1827 H   0  0  0  0  0  0  0  0  0  0  0  0
    3.0691   -0.3523   -0.3490 H   0  0  0  0  0  0  0  0  0  0  0  0
    1.1900    2.0965   -0.7782 H   0  0  0  0  0  0  0  0  0  0  0  0
   -1.1830    2.5263   -1.2454 H   0  0  0  0  0  0  0  0  0  0  0  0
   -2.9494    1.2429   -0.7142 H   0  0  0  0  0  0  0  0  0  0  0  0
   -2.8842   -0.9573    0.0112 H   0  0  0  0  0  0  0  0  0  0  0  0
   -1.9347   -0.1782    1.3952 H   0  0  0  0  0  0  0  0  0  0  0  0
   -1.0039   -2.3124    0.2948 H   0  0  0  0  0  0  0  0  0  0  0  0
    0.2294   -1.9785   -1.4905 H   0  0  0  0  0  0  0  0  0  0  0  0
    1.1195   -1.7011    0.8448 H   0  0  0  0  0  0  0  0  0  0  0  0
    0.0936   -0.6236    1.8243 H   0  0  0  0  0  0  0  0  0  0  0  0
  1  2  1  0
  2  3  2  0
  3  4  1  0
  4  5  2  0
  5  6  1  0
  6  7  1  0
  7  8  1  0
  7  9  1  0
  9  2  1  0
  1 10  1  0
  1 11  1  0
  1 12  1  0
  3 13  1  0
  4 14  1  0
  5 15  1  0
  6 16  1  0
  6 17  1  0
  7 18  1  0
  8 19  1  0
  9 20  1  0
  9 21  1  0
M  END
