
     RDKit          3D

 21 22  0  0  0  0  0  0  0  0999 V2000
    2.5384   -1.2600   -0.1819 C   0  0  0  0  0  0  0  0  0  0  0  0
    1.3931   -0.3133   -0.1966 C   0  0  0  0  0  0  0  0  0  0  0  0
    0.2229   -0.5158   -0.7915 C   0  0  0  0  0  0  0  0  0  0  0  0
   -0.6583    0.6644   -0.5791 C   0  0  0  0  0  0  0  0  0  0  0  0
   -2.1054    0.3060   -0.4831 C   0  0  0  0  0  0  0  0  0  0  0  0
   -2.6343   -0.5889    0.5370 C   0  0  0  0  0  0  0  0  0  0  0  0
   -2.5275   -0.9585   -0.8974 O   0  0  0  0  0  0  0  0  0  0  0  0
   -0.1010    1.1985    0.7257 C   0  0  0  0  0  0  0  0  0  0  0  0
    1.4021    1.0252    0.4719 C   0  0  0  0  0  0  0  0  0  0  0  0
    2.7581   -1.6584   -1.2112 H   0  0  0  0  0  0  0  0  0  0  0  0
    2.3194   -2.0870    0.5279 H   0  0  0  0  0  0  0  0  0  0  0  0
    3.4546   -0.7642    0.1726 H   0  0  0  0  0  0  0  0  0  0  0  0
   -0.0343   -1.4270   -1.3518 H   0  0  0  0  0  0  0  0  0  0  0  0
   -0.5249    1.4014   -1.4118 H   0  0  0  0  0  0  0  0  0  0  0  0
   -2.8064    1.1178   -0.8321 H   0  0  0  0  0  0  0  0  0  0  0  0
   -3.7110   -0.5455    0.7829 H   0  0  0  0  0  0  0  0  0  0  0  0
   -1.9274   -1.1682    1.1342 H   0  0  0  0  0  0  0  0  0  0  0  0
   -0.3706    2.2319    0.9283 H   0  0  0  0  0  0  0  0  0  0  0  0
   -0.3885    0.4770    1.5125 H   0  0  0  0  0  0  0  0  0  0  0  0
    1.9814    1.0389    1.3930 H   0  0  0  0  0  0  0  0  0  0  0  0
    1.7195    1.8256   -0.2495 H   0  0  0  0  0  0  0  0  0  0  0  0
  1  2  1  0
  2  3  2  0
  3  4  1  0
  4  5  1  0
  5  6  1  0
  6  7  1  0
  4  8  1  0
  8  9  1  0
  9  2  1  0
  7  5  1  0
  1 10  1  0
  1 11  1  0
  1 12  1  0
  3 13  1  0
  4 14  1  0
  5 15  1  0
  6 16  1  0
  6 17  1  0
  8 18  1  0
  8 19  1  0
  9 20  1  0
  9 21  1  0
M  END
