
     RDKit          3D

 16 16  0  0  0  0  0  0  0  0999 V2000
    2.3311   -0.2523   -0.1338 C   0  0  0  0  0  0  0  0  0  0  0  0
    0.9030    0.0510   -0.0326 C   0  0  0  0  0  0  0  0  0  0  0  0
   -0.1079   -0.7315    0.3250 C   0  0  0  0  0  0  0  0  0  0  0  0
   -1.3684    0.0583    0.2651 C   0  0  0  0  0  0  0  0  0  0  0  0
   -2.5471   -0.7517   -0.0425 C   0  0  0  0  0  0  0  0  0  0  0  0
   -2.8907   -1.6153    0.7449 O   0  0  0  0  0  0  0  0  0  0  0  0
   -1.0725    1.0081   -0.7010 O   0  0  0  0  0  0  0  0  0  0  0  0
    0.2466    1.3648   -0.3258 C   0  0  0  0  0  0  0  0  0  0  0  0
    2.4351   -1.3676   -0.2236 H   0  0  0  0  0  0  0  0  0  0  0  0
    2.9292    0.0485    0.7450 H   0  0  0  0  0  0  0  0  0  0  0  0
    2.8184    0.1773   -1.0267 H   0  0  0  0  0  0  0  0  0  0  0  0
    0.0170   -1.7850    0.6104 H   0  0  0  0  0  0  0  0  0  0  0  0
   -1.4644    0.6238    1.2304 H   0  0  0  0  0  0  0  0  0  0  0  0
   -3.1455   -0.6354   -0.9360 H   0  0  0  0  0  0  0  0  0  0  0  0
    0.7559    1.9060   -1.1206 H   0  0  0  0  0  0  0  0  0  0  0  0
    0.1603    1.9009    0.6219 H   0  0  0  0  0  0  0  0  0  0  0  0
  1  2  1  0
  2  3  2  0
  3  4  1  0
  4  5  1  0
  5  6  2  0
  4  7  1  0
  7  8  1  0
  8  2  1  0
  1  9  1  0
  1 10  1  0
  1 11  1  0
  3 12  1  0
  4 13  1  0
  5 14  1  0
  8 15  1  0
  8 16  1  0
M  END
