
     RDKit          3D

 21 22  0  0  0  0  0  0  0  0999 V2000
    1.8401   -1.6269    0.0265 C   0  0  0  0  0  0  0  0  0  0  0  0
    1.0381   -0.3790    0.0489 C   0  0  0  0  0  0  0  0  0  0  0  0
    1.5933    0.7488   -0.3605 C   0  0  0  0  0  0  0  0  0  0  0  0
    0.7503    1.9815   -0.3214 C   0  0  0  0  0  0  0  0  0  0  0  0
   -0.5439    1.5484   -0.6940 O   0  0  0  0  0  0  0  0  0  0  0  0
   -1.0670    0.8944    0.3989 C   0  0  0  0  0  0  0  0  0  0  0  0
   -2.3187    0.0844    0.1313 C   0  0  0  0  0  0  0  0  0  0  0  0
   -1.3723   -0.9615   -0.4751 C   0  0  0  0  0  0  0  0  0  0  0  0
   -0.3456   -0.4328    0.5246 C   0  0  0  0  0  0  0  0  0  0  0  0
    2.3673   -1.6757    1.0146 H   0  0  0  0  0  0  0  0  0  0  0  0
    1.1517   -2.5057   -0.0531 H   0  0  0  0  0  0  0  0  0  0  0  0
    2.5464   -1.6728   -0.8067 H   0  0  0  0  0  0  0  0  0  0  0  0
    2.6002    0.7858   -0.7058 H   0  0  0  0  0  0  0  0  0  0  0  0
    1.1446    2.7252   -1.0144 H   0  0  0  0  0  0  0  0  0  0  0  0
    0.6442    2.3353    0.7256 H   0  0  0  0  0  0  0  0  0  0  0  0
   -1.0836    1.5080    1.3151 H   0  0  0  0  0  0  0  0  0  0  0  0
   -3.0329    0.5175   -0.5761 H   0  0  0  0  0  0  0  0  0  0  0  0
   -2.7239   -0.3127    1.0742 H   0  0  0  0  0  0  0  0  0  0  0  0
   -1.0893   -0.6872   -1.5078 H   0  0  0  0  0  0  0  0  0  0  0  0
   -1.6528   -1.9951   -0.2816 H   0  0  0  0  0  0  0  0  0  0  0  0
   -0.4463   -0.8800    1.5369 H   0  0  0  0  0  0  0  0  0  0  0  0
  1  2  1  0
  2  3  2  0
  3  4  1  0
  4  5  1  0
  5  6  1  0
  6  7  1  0
  7  8  1  0
  8  9  1  0
  9  2  1  0
  9  6  1  0
  1 10  1  0
  1 11  1  0
  1 12  1  0
  3 13  1  0
  4 14  1  0
  4 15  1  0
  6 16  1  0
  7 17  1  0
  7 18  1  0
  8 19  1  0
  8 20  1  0
  9 21  1  0
M  END
