
     RDKit          3D

 23 24  0  0  0  0  0  0  0  0999 V2000
   -1.3673    2.0515    0.0806 C   0  0  0  0  0  0  0  0  0  0  0  0
   -0.3875    0.9396   -0.0848 C   0  0  0  0  0  0  0  0  0  0  0  0
    0.9011    1.0674   -0.3076 C   0  0  0  0  0  0  0  0  0  0  0  0
    1.5231   -0.2752   -0.4115 C   0  0  0  0  0  0  0  0  0  0  0  0
    2.9047   -0.2855    0.2171 C   0  0  0  0  0  0  0  0  0  0  0  0
    0.5586   -1.1533    0.3411 C   0  0  0  0  0  0  0  0  0  0  0  0
   -0.7488   -0.5041   -0.0097 C   0  0  0  0  0  0  0  0  0  0  0  0
   -1.7603   -1.0820   -0.8743 C   0  0  0  0  0  0  0  0  0  0  0  0
   -2.0296   -0.8615    0.5898 C   0  0  0  0  0  0  0  0  0  0  0  0
   -1.2632    2.5594    1.0677 H   0  0  0  0  0  0  0  0  0  0  0  0
   -1.1440    2.7777   -0.7507 H   0  0  0  0  0  0  0  0  0  0  0  0
   -2.4010    1.7067   -0.0082 H   0  0  0  0  0  0  0  0  0  0  0  0
    1.4349    2.0187   -0.4022 H   0  0  0  0  0  0  0  0  0  0  0  0
    1.5587   -0.6307   -1.4641 H   0  0  0  0  0  0  0  0  0  0  0  0
    3.0627   -1.2742    0.7011 H   0  0  0  0  0  0  0  0  0  0  0  0
    3.6710   -0.0417   -0.5390 H   0  0  0  0  0  0  0  0  0  0  0  0
    2.9526    0.5034    1.0009 H   0  0  0  0  0  0  0  0  0  0  0  0
    0.6197   -2.2167    0.0606 H   0  0  0  0  0  0  0  0  0  0  0  0
    0.7276   -1.0221    1.4342 H   0  0  0  0  0  0  0  0  0  0  0  0
   -1.7332   -2.0958   -1.2899 H   0  0  0  0  0  0  0  0  0  0  0  0
   -2.3164   -0.3638   -1.5477 H   0  0  0  0  0  0  0  0  0  0  0  0
   -2.7393   -0.0807    0.9145 H   0  0  0  0  0  0  0  0  0  0  0  0
   -2.0243   -1.7372    1.2821 H   0  0  0  0  0  0  0  0  0  0  0  0
  1  2  1  0
  2  3  2  0
  3  4  1  0
  4  5  1  0
  4  6  1  0
  6  7  1  0
  7  8  1  0
  8  9  1  0
  7  2  1  0
  9  7  1  0
  1 10  1  0
  1 11  1  0
  1 12  1  0
  3 13  1  0
  4 14  1  0
  5 15  1  0
  5 16  1  0
  5 17  1  0
  6 18  1  0
  6 19  1  0
  8 20  1  0
  8 21  1  0
  9 22  1  0
  9 23  1  0
M  END
