
     RDKit          3D

 23 23  0  0  0  0  0  0  0  0999 V2000
    1.3208    2.0040    0.5404 C   0  0  0  0  0  0  0  0  0  0  0  0
    0.3994    0.8663    0.1840 C   0  0  0  0  0  0  0  0  0  0  0  0
   -0.8040    1.2378   -0.2010 C   0  0  0  0  0  0  0  0  0  0  0  0
   -1.9734    0.4766   -0.6236 C   0  0  0  0  0  0  0  0  0  0  0  0
   -2.0948   -0.8866    0.0059 C   0  0  0  0  0  0  0  0  0  0  0  0
   -1.0032   -1.6769   -0.3166 O   0  0  0  0  0  0  0  0  0  0  0  0
    0.0009   -1.5532    0.6404 C   0  0  0  0  0  0  0  0  0  0  0  0
    0.9730   -0.4634    0.3171 C   0  0  0  0  0  0  0  0  0  0  0  0
    1.7946   -0.8759   -0.9095 C   0  0  0  0  0  0  0  0  0  0  0  0
    0.9029    2.9732    0.2146 H   0  0  0  0  0  0  0  0  0  0  0  0
    2.3349    1.8460    0.1247 H   0  0  0  0  0  0  0  0  0  0  0  0
    1.3593    2.0139    1.6478 H   0  0  0  0  0  0  0  0  0  0  0  0
   -0.9478    2.3234   -0.2024 H   0  0  0  0  0  0  0  0  0  0  0  0
   -2.8812    1.0441   -0.3292 H   0  0  0  0  0  0  0  0  0  0  0  0
   -2.0456    0.3446   -1.7297 H   0  0  0  0  0  0  0  0  0  0  0  0
   -3.0173   -1.3562   -0.3959 H   0  0  0  0  0  0  0  0  0  0  0  0
   -2.2463   -0.8139    1.1116 H   0  0  0  0  0  0  0  0  0  0  0  0
   -0.3967   -1.4765    1.6731 H   0  0  0  0  0  0  0  0  0  0  0  0
    0.5713   -2.5182    0.6161 H   0  0  0  0  0  0  0  0  0  0  0  0
    1.7156   -0.4380    1.1574 H   0  0  0  0  0  0  0  0  0  0  0  0
    1.2410   -0.7229   -1.8394 H   0  0  0  0  0  0  0  0  0  0  0  0
    2.0074   -1.9685   -0.7852 H   0  0  0  0  0  0  0  0  0  0  0  0
    2.7890   -0.3796   -0.9006 H   0  0  0  0  0  0  0  0  0  0  0  0
  1  2  1  0
  2  3  2  0
  3  4  1  0
  4  5  1  0
  5  6  1  0
  6  7  1  0
  7  8  1  0
  8  9  1  0
  8  2  1  0
  1 10  1  0
  1 11  1  0
  1 12  1  0
  3 13  1  0
  4 14  1  0
  4 15  1  0
  5 16  1  0
  5 17  1  0
  7 18  1  0
  7 19  1  0
  8 20  1  0
  9 21  1  0
  9 22  1  0
  9 23  1  0
M  END
