
     RDKit          3D

 23 23  0  0  0  0  0  0  0  0999 V2000
    2.6954   -0.0391   -0.3491 C   0  0  0  0  0  0  0  0  0  0  0  0
    1.2297   -0.3042   -0.3775 C   0  0  0  0  0  0  0  0  0  0  0  0
    0.5821   -0.8823   -1.3841 C   0  0  0  0  0  0  0  0  0  0  0  0
   -0.8662   -0.9795   -1.0565 C   0  0  0  0  0  0  0  0  0  0  0  0
   -0.8662   -0.8740    0.4334 C   0  0  0  0  0  0  0  0  0  0  0  0
   -2.1724   -0.4059    1.0116 C   0  0  0  0  0  0  0  0  0  0  0  0
    0.2826    0.0416    0.7183 C   0  0  0  0  0  0  0  0  0  0  0  0
   -0.0523    1.5076    0.5812 C   0  0  0  0  0  0  0  0  0  0  0  0
   -0.6412    1.7611   -0.6531 O   0  0  0  0  0  0  0  0  0  0  0  0
    2.9199    0.9813   -0.0326 H   0  0  0  0  0  0  0  0  0  0  0  0
    3.1366   -0.2086   -1.3603 H   0  0  0  0  0  0  0  0  0  0  0  0
    3.1911   -0.7315    0.3745 H   0  0  0  0  0  0  0  0  0  0  0  0
    0.9959   -1.2442   -2.3184 H   0  0  0  0  0  0  0  0  0  0  0  0
   -1.4683   -0.2157   -1.5750 H   0  0  0  0  0  0  0  0  0  0  0  0
   -1.2646   -2.0063   -1.3030 H   0  0  0  0  0  0  0  0  0  0  0  0
   -0.6137   -1.8693    0.8526 H   0  0  0  0  0  0  0  0  0  0  0  0
   -2.6912    0.3437    0.4126 H   0  0  0  0  0  0  0  0  0  0  0  0
   -2.8371   -1.3127    1.0636 H   0  0  0  0  0  0  0  0  0  0  0  0
   -1.9890   -0.1118    2.0636 H   0  0  0  0  0  0  0  0  0  0  0  0
    0.7170   -0.1589    1.7194 H   0  0  0  0  0  0  0  0  0  0  0  0
    0.9392    2.0483    0.5565 H   0  0  0  0  0  0  0  0  0  0  0  0
   -0.5986    1.9221    1.4290 H   0  0  0  0  0  0  0  0  0  0  0  0
   -0.6289    2.7381   -0.8067 H   0  0  0  0  0  0  0  0  0  0  0  0
  1  2  1  0
  2  3  2  0
  3  4  1  0
  4  5  1  0
  5  6  1  0
  5  7  1  0
  7  8  1  0
  8  9  1  0
  7  2  1  0
  1 10  1  0
  1 11  1  0
  1 12  1  0
  3 13  1  0
  4 14  1  0
  4 15  1  0
  5 16  1  0
  6 17  1  0
  6 18  1  0
  6 19  1  0
  7 20  1  0
  8 21  1  0
  8 22  1  0
  9 23  1  0
M  END
