
     RDKit          3D

 21 22  0  0  0  0  0  0  0  0999 V2000
    2.2024    0.3953   -0.3000 C   0  0  0  0  0  0  0  0  0  0  0  0
    0.8390   -0.1120   -0.0178 C   0  0  0  0  0  0  0  0  0  0  0  0
   -0.1381    0.7116    0.3047 C   0  0  0  0  0  0  0  0  0  0  0  0
    0.0072    2.1716    0.4116 C   0  0  0  0  0  0  0  0  0  0  0  0
   -1.4650    0.0958    0.5728 C   0  0  0  0  0  0  0  0  0  0  0  0
   -1.7761   -0.7242   -0.6643 C   0  0  0  0  0  0  0  0  0  0  0  0
   -0.9561   -1.7197    0.0989 C   0  0  0  0  0  0  0  0  0  0  0  0
    0.5268   -1.5870   -0.0907 C   0  0  0  0  0  0  0  0  0  0  0  0
   -1.3205   -1.1055    1.2744 O   0  0  0  0  0  0  0  0  0  0  0  0
    2.1676    1.2403   -1.0298 H   0  0  0  0  0  0  0  0  0  0  0  0
    2.8389   -0.4104   -0.7283 H   0  0  0  0  0  0  0  0  0  0  0  0
    2.7304    0.7255    0.6337 H   0  0  0  0  0  0  0  0  0  0  0  0
    1.0705    2.4906    0.3546 H   0  0  0  0  0  0  0  0  0  0  0  0
   -0.5134    2.7239   -0.4199 H   0  0  0  0  0  0  0  0  0  0  0  0
   -0.4831    2.5104    1.3445 H   0  0  0  0  0  0  0  0  0  0  0  0
   -2.2517    0.7523    0.9342 H   0  0  0  0  0  0  0  0  0  0  0  0
   -2.8192   -1.0037   -0.7738 H   0  0  0  0  0  0  0  0  0  0  0  0
   -1.2863   -0.3298   -1.5996 H   0  0  0  0  0  0  0  0  0  0  0  0
   -1.2858   -2.7674   -0.0439 H   0  0  0  0  0  0  0  0  0  0  0  0
    0.8752   -2.0159   -1.0474 H   0  0  0  0  0  0  0  0  0  0  0  0
    1.0373   -2.0417    0.7860 H   0  0  0  0  0  0  0  0  0  0  0  0
  1  2  1  0
  2  3  2  0
  3  4  1  0
  3  5  1  0
  5  6  1  0
  6  7  1  0
  7  8  1  0
  7  9  1  0
  8  2  1  0
  9  5  1  0
  1 10  1  0
  1 11  1  0
  1 12  1  0
  4 13  1  0
  4 14  1  0
  4 15  1  0
  5 16  1  0
  6 17  1  0
  6 18  1  0
  7 19  1  0
  8 20  1  0
  8 21  1  0
M  END
