
     RDKit          3D

 18 18  0  0  0  0  0  0  0  0999 V2000
    2.1985    0.2107    0.1179 C   0  0  0  0  0  0  0  0  0  0  0  0
    0.7219    0.2109    0.0726 C   0  0  0  0  0  0  0  0  0  0  0  0
   -0.0266    1.2973   -0.0867 C   0  0  0  0  0  0  0  0  0  0  0  0
   -1.4984    1.1284   -0.1106 C   0  0  0  0  0  0  0  0  0  0  0  0
   -1.9430    0.0335   -0.7806 O   0  0  0  0  0  0  0  0  0  0  0  0
   -1.1228   -1.0460   -0.8361 C   0  0  0  0  0  0  0  0  0  0  0  0
   -0.0378   -1.0806    0.2112 C   0  0  0  0  0  0  0  0  0  0  0  0
   -0.5429   -1.2280    1.4850 O   0  0  0  0  0  0  0  0  0  0  0  0
    2.6277    1.0706    0.6605 H   0  0  0  0  0  0  0  0  0  0  0  0
    2.6577    0.0747   -0.8940 H   0  0  0  0  0  0  0  0  0  0  0  0
    2.5045   -0.6973    0.7017 H   0  0  0  0  0  0  0  0  0  0  0  0
    0.4649    2.2465   -0.1908 H   0  0  0  0  0  0  0  0  0  0  0  0
   -1.9316    2.0384   -0.6126 H   0  0  0  0  0  0  0  0  0  0  0  0
   -1.9408    1.1265    0.9080 H   0  0  0  0  0  0  0  0  0  0  0  0
   -1.6808   -2.0074   -0.8330 H   0  0  0  0  0  0  0  0  0  0  0  0
   -0.5875   -1.0176   -1.8302 H   0  0  0  0  0  0  0  0  0  0  0  0
    0.5978   -1.9557   -0.0154 H   0  0  0  0  0  0  0  0  0  0  0  0
   -0.4608   -0.4048    2.0330 H   0  0  0  0  0  0  0  0  0  0  0  0
  1  2  1  0
  2  3  2  0
  3  4  1  0
  4  5  1  0
  5  6  1  0
  6  7  1  0
  7  8  1  0
  7  2  1  0
  1  9  1  0
  1 10  1  0
  1 11  1  0
  3 12  1  0
  4 13  1  0
  4 14  1  0
  6 15  1  0
  6 16  1  0
  7 17  1  0
  8 18  1  0
M  END
