
     RDKit          3D

 21 21  0  0  0  0  0  0  0  0999 V2000
    2.7177   -0.1675    0.4877 C   0  0  0  0  0  0  0  0  0  0  0  0
    1.3604    0.2272    0.0040 C   0  0  0  0  0  0  0  0  0  0  0  0
    0.8486    1.4429   -0.0461 C   0  0  0  0  0  0  0  0  0  0  0  0
   -0.5205    1.3755   -0.5913 C   0  0  0  0  0  0  0  0  0  0  0  0
   -1.1551    2.2921   -1.1713 O   0  0  0  0  0  0  0  0  0  0  0  0
   -0.9333   -0.0264   -0.2785 C   0  0  0  0  0  0  0  0  0  0  0  0
   -1.3402   -0.1442    1.1653 C   0  0  0  0  0  0  0  0  0  0  0  0
   -1.9678   -0.5349   -1.2276 C   0  0  0  0  0  0  0  0  0  0  0  0
    0.3774   -0.7504   -0.5061 C   0  0  0  0  0  0  0  0  0  0  0  0
    3.3009   -0.4738   -0.4022 H   0  0  0  0  0  0  0  0  0  0  0  0
    2.5721   -1.1000    1.1051 H   0  0  0  0  0  0  0  0  0  0  0  0
    3.1908    0.6325    1.0780 H   0  0  0  0  0  0  0  0  0  0  0  0
    1.3643    2.3614    0.2693 H   0  0  0  0  0  0  0  0  0  0  0  0
   -2.2507   -0.7258    1.3318 H   0  0  0  0  0  0  0  0  0  0  0  0
   -1.3951    0.8788    1.5957 H   0  0  0  0  0  0  0  0  0  0  0  0
   -0.5206   -0.6556    1.7390 H   0  0  0  0  0  0  0  0  0  0  0  0
   -1.5881   -0.3952   -2.2556 H   0  0  0  0  0  0  0  0  0  0  0  0
   -2.9343   -0.0339   -1.0583 H   0  0  0  0  0  0  0  0  0  0  0  0
   -2.0795   -1.6199   -1.0697 H   0  0  0  0  0  0  0  0  0  0  0  0
    0.4189   -1.7274   -0.0074 H   0  0  0  0  0  0  0  0  0  0  0  0
    0.5341   -0.8555   -1.6190 H   0  0  0  0  0  0  0  0  0  0  0  0
  1  2  1  0
  2  3  2  0
  3  4  1  0
  4  5  2  0
  4  6  1  0
  6  7  1  0
  6  8  1  0
  6  9  1  0
  9  2  1  0
  1 10  1  0
  1 11  1  0
  1 12  1  0
  3 13  1  0
  7 14  1  0
  7 15  1  0
  7 16  1  0
  8 17  1  0
  8 18  1  0
  8 19  1  0
  9 20  1  0
  9 21  1  0
M  END
