
     RDKit          3D

 21 21  0  0  0  0  0  0  0  0999 V2000
    2.6061    0.6514   -0.5371 C   0  0  0  0  0  0  0  0  0  0  0  0
    1.1668    0.2715   -0.2885 C   0  0  0  0  0  0  0  0  0  0  0  0
    0.3158    1.2679   -0.0863 C   0  0  0  0  0  0  0  0  0  0  0  0
   -1.1169    1.3300    0.1811 C   0  0  0  0  0  0  0  0  0  0  0  0
   -1.8923    0.0851   -0.1436 C   0  0  0  0  0  0  0  0  0  0  0  0
   -1.9630   -0.0839   -1.5482 O   0  0  0  0  0  0  0  0  0  0  0  0
   -1.4161   -1.1281    0.4937 C   0  0  0  0  0  0  0  0  0  0  0  0
   -0.2086   -1.6672    0.4266 C   0  0  0  0  0  0  0  0  0  0  0  0
    0.9409   -1.1634   -0.3120 C   0  0  0  0  0  0  0  0  0  0  0  0
    3.0760    0.9377    0.4305 H   0  0  0  0  0  0  0  0  0  0  0  0
    3.1482   -0.1652   -1.0246 H   0  0  0  0  0  0  0  0  0  0  0  0
    2.5567    1.5466   -1.2165 H   0  0  0  0  0  0  0  0  0  0  0  0
    0.8019    2.2374   -0.1326 H   0  0  0  0  0  0  0  0  0  0  0  0
   -1.5451    2.1346   -0.4905 H   0  0  0  0  0  0  0  0  0  0  0  0
   -1.3629    1.6844    1.2114 H   0  0  0  0  0  0  0  0  0  0  0  0
   -2.9422    0.2751    0.1631 H   0  0  0  0  0  0  0  0  0  0  0  0
   -2.6544   -0.7865   -1.6777 H   0  0  0  0  0  0  0  0  0  0  0  0
   -2.1307   -1.6669    1.1022 H   0  0  0  0  0  0  0  0  0  0  0  0
   -0.0402   -2.5870    0.9771 H   0  0  0  0  0  0  0  0  0  0  0  0
    0.7936   -1.4600   -1.3933 H   0  0  0  0  0  0  0  0  0  0  0  0
    1.8664   -1.7135   -0.0123 H   0  0  0  0  0  0  0  0  0  0  0  0
  1  2  1  0
  2  3  2  0
  3  4  1  0
  4  5  1  0
  5  6  1  0
  5  7  1  0
  7  8  2  0
  8  9  1  0
  9  2  1  0
  1 10  1  0
  1 11  1  0
  1 12  1  0
  3 13  1  0
  4 14  1  0
  4 15  1  0
  5 16  1  0
  6 17  1  0
  7 18  1  0
  8 19  1  0
  9 20  1  0
  9 21  1  0
M  END
