
     RDKit          3D

 21 22  0  0  0  0  0  0  0  0999 V2000
    2.1329   -1.4244    0.0860 C   0  0  0  0  0  0  0  0  0  0  0  0
    0.7827   -0.7295    0.2180 C   0  0  0  0  0  0  0  0  0  0  0  0
   -0.0667   -0.9320    1.2011 C   0  0  0  0  0  0  0  0  0  0  0  0
   -1.2742   -0.0951    1.0134 C   0  0  0  0  0  0  0  0  0  0  0  0
   -2.1559   -0.6049   -0.0646 C   0  0  0  0  0  0  0  0  0  0  0  0
   -1.1970    0.4337   -0.3970 C   0  0  0  0  0  0  0  0  0  0  0  0
   -1.7068    1.7108   -0.6625 O   0  0  0  0  0  0  0  0  0  0  0  0
    0.2262    0.2722   -0.7155 C   0  0  0  0  0  0  0  0  0  0  0  0
    0.9144    1.5992   -0.3363 C   0  0  0  0  0  0  0  0  0  0  0  0
    2.7851   -0.8280   -0.5663 H   0  0  0  0  0  0  0  0  0  0  0  0
    2.5422   -1.4929    1.1272 H   0  0  0  0  0  0  0  0  0  0  0  0
    1.9750   -2.4618   -0.2443 H   0  0  0  0  0  0  0  0  0  0  0  0
    0.0763   -1.5973    2.0213 H   0  0  0  0  0  0  0  0  0  0  0  0
   -1.6358    0.5422    1.8222 H   0  0  0  0  0  0  0  0  0  0  0  0
   -3.2159   -0.3127    0.0151 H   0  0  0  0  0  0  0  0  0  0  0  0
   -2.0425   -1.6501   -0.4515 H   0  0  0  0  0  0  0  0  0  0  0  0
   -1.8169    1.7389   -1.6631 H   0  0  0  0  0  0  0  0  0  0  0  0
    0.4525    0.0320   -1.7782 H   0  0  0  0  0  0  0  0  0  0  0  0
    1.9191    1.4152    0.0840 H   0  0  0  0  0  0  0  0  0  0  0  0
    0.3307    2.1070    0.4840 H   0  0  0  0  0  0  0  0  0  0  0  0
    0.9748    2.2775   -1.1928 H   0  0  0  0  0  0  0  0  0  0  0  0
  1  2  1  0
  2  3  2  0
  3  4  1  0
  4  5  1  0
  5  6  1  0
  6  7  1  0
  6  8  1  0
  8  9  1  0
  8  2  1  0
  6  4  1  0
  1 10  1  0
  1 11  1  0
  1 12  1  0
  3 13  1  0
  4 14  1  0
  5 15  1  0
  5 16  1  0
  7 17  1  0
  8 18  1  0
  9 19  1  0
  9 20  1  0
  9 21  1  0
M  END
