
     RDKit          3D

 21 22  0  0  0  0  0  0  0  0999 V2000
    2.8062   -0.0430    0.5944 C   0  0  0  0  0  0  0  0  0  0  0  0
    1.3466   -0.0426    0.3255 C   0  0  0  0  0  0  0  0  0  0  0  0
    0.7734    1.1059   -0.0280 C   0  0  0  0  0  0  0  0  0  0  0  0
   -0.6611    1.2709   -0.3277 C   0  0  0  0  0  0  0  0  0  0  0  0
   -1.3524   -0.0508   -0.6770 C   0  0  0  0  0  0  0  0  0  0  0  0
   -2.3615   -0.4311    0.3524 C   0  0  0  0  0  0  0  0  0  0  0  0
   -0.2988   -1.0320   -0.9651 C   0  0  0  0  0  0  0  0  0  0  0  0
    0.1195   -2.1458   -0.4123 O   0  0  0  0  0  0  0  0  0  0  0  0
    0.4326   -1.1655    0.3990 C   0  0  0  0  0  0  0  0  0  0  0  0
    3.1171   -0.9294    1.2110 H   0  0  0  0  0  0  0  0  0  0  0  0
    3.0127    0.8959    1.1801 H   0  0  0  0  0  0  0  0  0  0  0  0
    3.4067   -0.0005   -0.3395 H   0  0  0  0  0  0  0  0  0  0  0  0
    1.3985    2.0138   -0.1086 H   0  0  0  0  0  0  0  0  0  0  0  0
   -1.2356    1.7077    0.5242 H   0  0  0  0  0  0  0  0  0  0  0  0
   -0.7492    2.0025   -1.1574 H   0  0  0  0  0  0  0  0  0  0  0  0
   -1.9138    0.1337   -1.6198 H   0  0  0  0  0  0  0  0  0  0  0  0
   -3.4123   -0.4863   -0.0541 H   0  0  0  0  0  0  0  0  0  0  0  0
   -2.1819   -1.3623    0.8716 H   0  0  0  0  0  0  0  0  0  0  0  0
   -2.3762    0.3825    1.1294 H   0  0  0  0  0  0  0  0  0  0  0  0
    0.3354   -0.7182   -1.8489 H   0  0  0  0  0  0  0  0  0  0  0  0
   -0.2056   -1.1052    1.3097 H   0  0  0  0  0  0  0  0  0  0  0  0
  1  2  1  0
  2  3  2  0
  3  4  1  0
  4  5  1  0
  5  6  1  0
  5  7  1  0
  7  8  1  0
  8  9  1  0
  9  2  1  0
  9  7  1  0
  1 10  1  0
  1 11  1  0
  1 12  1  0
  3 13  1  0
  4 14  1  0
  4 15  1  0
  5 16  1  0
  6 17  1  0
  6 18  1  0
  6 19  1  0
  7 20  1  0
  9 21  1  0
M  END
