
     RDKit          3D

 17 18  0  0  0  0  0  0  0  0999 V2000
    2.1931   -0.5256    0.1037 C   0  0  0  0  0  0  0  0  0  0  0  0
    0.8808    0.2167   -0.0223 C   0  0  0  0  0  0  0  0  0  0  0  0
    0.2294    0.5807   -1.1083 C   0  0  0  0  0  0  0  0  0  0  0  0
   -0.9625    1.2762   -0.7521 C   0  0  0  0  0  0  0  0  0  0  0  0
   -2.1541    1.1019   -0.2599 O   0  0  0  0  0  0  0  0  0  0  0  0
   -1.3273    0.4071    0.4563 C   0  0  0  0  0  0  0  0  0  0  0  0
   -1.5710   -1.0939    0.1953 C   0  0  0  0  0  0  0  0  0  0  0  0
   -0.0163    0.6284    1.0812 C   0  0  0  0  0  0  0  0  0  0  0  0
    0.3027    1.0329    2.1893 O   0  0  0  0  0  0  0  0  0  0  0  0
    2.0897   -1.5543   -0.2665 H   0  0  0  0  0  0  0  0  0  0  0  0
    2.5346   -0.4362    1.1321 H   0  0  0  0  0  0  0  0  0  0  0  0
    2.9417   -0.0454   -0.5821 H   0  0  0  0  0  0  0  0  0  0  0  0
    0.6486    0.3246   -2.1019 H   0  0  0  0  0  0  0  0  0  0  0  0
   -0.6606    2.3777   -0.5172 H   0  0  0  0  0  0  0  0  0  0  0  0
   -1.5095   -1.3114   -0.8811 H   0  0  0  0  0  0  0  0  0  0  0  0
   -0.9705   -1.7257    0.8368 H   0  0  0  0  0  0  0  0  0  0  0  0
   -2.6487   -1.2537    0.4965 H   0  0  0  0  0  0  0  0  0  0  0  0
  1  2  1  0
  2  3  2  0
  3  4  1  0
  4  5  1  0
  5  6  1  0
  6  7  1  0
  6  8  1  0
  8  9  2  0
  8  2  1  0
  6  4  1  0
  1 10  1  0
  1 11  1  0
  1 12  1  0
  3 13  1  0
  4 14  1  0
  7 15  1  0
  7 16  1  0
  7 17  1  0
M  END
