
     RDKit          3D

 16 16  0  0  0  0  0  0  0  0999 V2000
    2.2545   -0.0457   -0.3075 C   0  0  0  0  0  0  0  0  0  0  0  0
    0.7923    0.1938   -0.1232 C   0  0  0  0  0  0  0  0  0  0  0  0
    0.1729    1.3332    0.0635 C   0  0  0  0  0  0  0  0  0  0  0  0
   -1.2753    1.0850    0.1966 C   0  0  0  0  0  0  0  0  0  0  0  0
   -2.1946    1.8987   -0.0255 O   0  0  0  0  0  0  0  0  0  0  0  0
   -1.3328   -0.3499    0.6519 C   0  0  0  0  0  0  0  0  0  0  0  0
   -2.5411   -0.9356    0.3950 O   0  0  0  0  0  0  0  0  0  0  0  0
   -0.1867   -0.9132   -0.1457 C   0  0  0  0  0  0  0  0  0  0  0  0
    2.5376   -0.8476    0.4219 H   0  0  0  0  0  0  0  0  0  0  0  0
    2.8512    0.8586   -0.1403 H   0  0  0  0  0  0  0  0  0  0  0  0
    2.3752   -0.4044   -1.3514 H   0  0  0  0  0  0  0  0  0  0  0  0
    0.6828    2.2918    0.1070 H   0  0  0  0  0  0  0  0  0  0  0  0
   -1.0667   -0.4347    1.7242 H   0  0  0  0  0  0  0  0  0  0  0  0
   -2.8157   -0.8264   -0.5295 H   0  0  0  0  0  0  0  0  0  0  0  0
    0.2184   -1.8504    0.2822 H   0  0  0  0  0  0  0  0  0  0  0  0
   -0.4720   -1.0532   -1.2192 H   0  0  0  0  0  0  0  0  0  0  0  0
  1  2  1  0
  2  3  2  0
  3  4  1  0
  4  5  2  0
  4  6  1  0
  6  7  1  0
  6  8  1  0
  8  2  1  0
  1  9  1  0
  1 10  1  0
  1 11  1  0
  3 12  1  0
  6 13  1  0
  7 14  1  0
  8 15  1  0
  8 16  1  0
M  END
