
     RDKit          3D

 23 24  0  0  0  0  0  0  0  0999 V2000
    3.0751   -0.2330   -0.1523 C   0  0  0  0  0  0  0  0  0  0  0  0
    1.6406   -0.0397    0.1195 C   0  0  0  0  0  0  0  0  0  0  0  0
    0.9445   -0.8903    0.8645 C   0  0  0  0  0  0  0  0  0  0  0  0
   -0.4928   -0.5674    1.0536 C   0  0  0  0  0  0  0  0  0  0  0  0
   -1.2048   -0.1399   -0.1827 C   0  0  0  0  0  0  0  0  0  0  0  0
   -0.2867    0.4745   -1.1971 C   0  0  0  0  0  0  0  0  0  0  0  0
    0.8713    1.1235   -0.4283 C   0  0  0  0  0  0  0  0  0  0  0  0
   -2.5083    0.6238   -0.0148 C   0  0  0  0  0  0  0  0  0  0  0  0
   -2.5027   -0.7325   -0.5850 C   0  0  0  0  0  0  0  0  0  0  0  0
    3.2668   -1.1040   -0.8429 H   0  0  0  0  0  0  0  0  0  0  0  0
    3.6803   -0.3853    0.7703 H   0  0  0  0  0  0  0  0  0  0  0  0
    3.4542    0.6568   -0.7140 H   0  0  0  0  0  0  0  0  0  0  0  0
    1.4173   -1.7825    1.3123 H   0  0  0  0  0  0  0  0  0  0  0  0
   -0.5254    0.2682    1.8099 H   0  0  0  0  0  0  0  0  0  0  0  0
   -1.0309   -1.4252    1.5331 H   0  0  0  0  0  0  0  0  0  0  0  0
    0.1828   -0.3177   -1.8485 H   0  0  0  0  0  0  0  0  0  0  0  0
   -0.8077    1.1917   -1.8411 H   0  0  0  0  0  0  0  0  0  0  0  0
    1.5145    1.7101   -1.0950 H   0  0  0  0  0  0  0  0  0  0  0  0
    0.4494    1.7086    0.4200 H   0  0  0  0  0  0  0  0  0  0  0  0
   -2.7184    1.4901   -0.6490 H   0  0  0  0  0  0  0  0  0  0  0  0
   -2.8429    0.7541    1.0424 H   0  0  0  0  0  0  0  0  0  0  0  0
   -2.6742   -0.8196   -1.6779 H   0  0  0  0  0  0  0  0  0  0  0  0
   -2.9020   -1.5642    0.0412 H   0  0  0  0  0  0  0  0  0  0  0  0
  1  2  1  0
  2  3  2  0
  3  4  1  0
  4  5  1  0
  5  6  1  0
  6  7  1  0
  5  8  1  0
  8  9  1  0
  7  2  1  0
  9  5  1  0
  1 10  1  0
  1 11  1  0
  1 12  1  0
  3 13  1  0
  4 14  1  0
  4 15  1  0
  6 16  1  0
  6 17  1  0
  7 18  1  0
  7 19  1  0
  8 20  1  0
  8 21  1  0
  9 22  1  0
  9 23  1  0
M  END
