
     RDKit          3D

 21 22  0  0  0  0  0  0  0  0999 V2000
    2.5332   -0.8970    0.0296 C   0  0  0  0  0  0  0  0  0  0  0  0
    1.1063   -0.4892    0.1472 C   0  0  0  0  0  0  0  0  0  0  0  0
    0.1697   -1.4217    0.2342 C   0  0  0  0  0  0  0  0  0  0  0  0
   -1.2632   -1.0930    0.3529 C   0  0  0  0  0  0  0  0  0  0  0  0
   -2.0358   -0.6554   -0.8622 C   0  0  0  0  0  0  0  0  0  0  0  0
   -1.6239    0.3077    0.2894 C   0  0  0  0  0  0  0  0  0  0  0  0
   -0.6121    1.3020   -0.0834 C   0  0  0  0  0  0  0  0  0  0  0  0
   -0.8860    2.5156    0.5916 O   0  0  0  0  0  0  0  0  0  0  0  0
    0.8017    0.9592    0.1610 C   0  0  0  0  0  0  0  0  0  0  0  0
    3.2277   -0.0653    0.1155 H   0  0  0  0  0  0  0  0  0  0  0  0
    2.7520   -1.5852    0.8914 H   0  0  0  0  0  0  0  0  0  0  0  0
    2.6979   -1.4815   -0.8782 H   0  0  0  0  0  0  0  0  0  0  0  0
    0.4775   -2.4616    0.2167 H   0  0  0  0  0  0  0  0  0  0  0  0
   -1.8614   -1.7435    1.0354 H   0  0  0  0  0  0  0  0  0  0  0  0
   -1.5339   -0.5278   -1.8252 H   0  0  0  0  0  0  0  0  0  0  0  0
   -3.1109   -0.8916   -0.9453 H   0  0  0  0  0  0  0  0  0  0  0  0
   -2.5045    0.6553    0.9063 H   0  0  0  0  0  0  0  0  0  0  0  0
   -0.7491    1.5615   -1.1745 H   0  0  0  0  0  0  0  0  0  0  0  0
   -0.1890    3.1500    0.3368 H   0  0  0  0  0  0  0  0  0  0  0  0
    1.1630    1.4402    1.1088 H   0  0  0  0  0  0  0  0  0  0  0  0
    1.4410    1.4213   -0.6480 H   0  0  0  0  0  0  0  0  0  0  0  0
  1  2  1  0
  2  3  2  0
  3  4  1  0
  4  5  1  0
  5  6  1  0
  6  7  1  0
  7  8  1  0
  7  9  1  0
  9  2  1  0
  6  4  1  0
  1 10  1  0
  1 11  1  0
  1 12  1  0
  3 13  1  0
  4 14  1  0
  5 15  1  0
  5 16  1  0
  6 17  1  0
  7 18  1  0
  8 19  1  0
  9 20  1  0
  9 21  1  0
M  END
