
     RDKit          3D

 18 19  0  0  0  0  0  0  0  0999 V2000
    2.3132    0.5336    0.3482 C   0  0  0  0  0  0  0  0  0  0  0  0
    0.9110    0.1865    0.0109 C   0  0  0  0  0  0  0  0  0  0  0  0
    0.0648    1.1925   -0.1758 C   0  0  0  0  0  0  0  0  0  0  0  0
   -1.3800    0.9153   -0.5223 C   0  0  0  0  0  0  0  0  0  0  0  0
   -1.7757   -0.2837    0.3147 C   0  0  0  0  0  0  0  0  0  0  0  0
   -0.9116   -1.4621   -0.0755 C   0  0  0  0  0  0  0  0  0  0  0  0
   -0.0774   -1.8931    0.9511 O   0  0  0  0  0  0  0  0  0  0  0  0
    0.5163   -1.2402   -0.1026 C   0  0  0  0  0  0  0  0  0  0  0  0
    3.0095   -0.3212    0.1821 H   0  0  0  0  0  0  0  0  0  0  0  0
    2.7059    1.3521   -0.3204 H   0  0  0  0  0  0  0  0  0  0  0  0
    2.4180    0.8947    1.3742 H   0  0  0  0  0  0  0  0  0  0  0  0
    0.3860    2.2154   -0.0856 H   0  0  0  0  0  0  0  0  0  0  0  0
   -1.9818    1.7907   -0.1741 H   0  0  0  0  0  0  0  0  0  0  0  0
   -1.5055    0.7166   -1.5914 H   0  0  0  0  0  0  0  0  0  0  0  0
   -2.8273   -0.5868    0.1151 H   0  0  0  0  0  0  0  0  0  0  0  0
   -1.6406    0.0159    1.3750 H   0  0  0  0  0  0  0  0  0  0  0  0
   -1.3390   -2.2115   -0.7771 H   0  0  0  0  0  0  0  0  0  0  0  0
    1.1143   -1.8147   -0.8463 H   0  0  0  0  0  0  0  0  0  0  0  0
  1  2  1  0
  2  3  2  0
  3  4  1  0
  4  5  1  0
  5  6  1  0
  6  7  1  0
  7  8  1  0
  8  2  1  0
  8  6  1  0
  1  9  1  0
  1 10  1  0
  1 11  1  0
  3 12  1  0
  4 13  1  0
  4 14  1  0
  5 15  1  0
  5 16  1  0
  6 17  1  0
  8 18  1  0
M  END
