
     RDKit          3D

 21 21  0  0  0  0  0  0  0  0999 V2000
    2.2704   -1.0089    0.1641 C   0  0  0  0  0  0  0  0  0  0  0  0
    0.9419   -0.3790   -0.1268 C   0  0  0  0  0  0  0  0  0  0  0  0
   -0.0340   -1.1288   -0.6015 C   0  0  0  0  0  0  0  0  0  0  0  0
   -1.3368   -0.4448   -0.8726 C   0  0  0  0  0  0  0  0  0  0  0  0
   -2.1500   -0.4672    0.3848 C   0  0  0  0  0  0  0  0  0  0  0  0
   -1.0788    0.7998   -1.3711 O   0  0  0  0  0  0  0  0  0  0  0  0
   -0.4242    1.6586   -0.5452 C   0  0  0  0  0  0  0  0  0  0  0  0
    0.7860    1.0877    0.1388 C   0  0  0  0  0  0  0  0  0  0  0  0
    0.7594    1.3709    1.4904 O   0  0  0  0  0  0  0  0  0  0  0  0
    2.3811   -1.0138    1.2578 H   0  0  0  0  0  0  0  0  0  0  0  0
    3.0946   -0.4083   -0.2742 H   0  0  0  0  0  0  0  0  0  0  0  0
    2.3044   -2.0353   -0.2627 H   0  0  0  0  0  0  0  0  0  0  0  0
    0.1113   -2.1863   -0.7825 H   0  0  0  0  0  0  0  0  0  0  0  0
   -1.9068   -1.0121   -1.6443 H   0  0  0  0  0  0  0  0  0  0  0  0
   -2.1085   -1.5099    0.7953 H   0  0  0  0  0  0  0  0  0  0  0  0
   -1.6968    0.1758    1.1642 H   0  0  0  0  0  0  0  0  0  0  0  0
   -3.2114   -0.2361    0.2328 H   0  0  0  0  0  0  0  0  0  0  0  0
   -0.0777    2.5185   -1.1935 H   0  0  0  0  0  0  0  0  0  0  0  0
   -1.1357    2.0650    0.2278 H   0  0  0  0  0  0  0  0  0  0  0  0
    1.7349    1.5543   -0.2598 H   0  0  0  0  0  0  0  0  0  0  0  0
    0.7764    0.5999    2.0783 H   0  0  0  0  0  0  0  0  0  0  0  0
  1  2  1  0
  2  3  2  0
  3  4  1  0
  4  5  1  0
  4  6  1  0
  6  7  1  0
  7  8  1  0
  8  9  1  0
  8  2  1  0
  1 10  1  0
  1 11  1  0
  1 12  1  0
  3 13  1  0
  4 14  1  0
  5 15  1  0
  5 16  1  0
  5 17  1  0
  7 18  1  0
  7 19  1  0
  8 20  1  0
  9 21  1  0
M  END
