
     RDKit          3D

 21 22  0  0  0  0  0  0  0  0999 V2000
    2.7851   -0.2601    0.5335 C   0  0  0  0  0  0  0  0  0  0  0  0
    1.3701   -0.0517    0.1519 C   0  0  0  0  0  0  0  0  0  0  0  0
    0.9118    0.9700   -0.5512 C   0  0  0  0  0  0  0  0  0  0  0  0
   -0.5370    0.8688   -0.7510 C   0  0  0  0  0  0  0  0  0  0  0  0
   -1.3365    1.7045    0.1887 C   0  0  0  0  0  0  0  0  0  0  0  0
   -1.4990    0.5931    1.0280 O   0  0  0  0  0  0  0  0  0  0  0  0
   -0.9766   -0.2711    0.0940 C   0  0  0  0  0  0  0  0  0  0  0  0
   -1.9666   -1.2254   -0.4987 C   0  0  0  0  0  0  0  0  0  0  0  0
    0.2799   -0.9721    0.5141 C   0  0  0  0  0  0  0  0  0  0  0  0
    3.3529    0.6960    0.5540 H   0  0  0  0  0  0  0  0  0  0  0  0
    2.8289   -0.7934    1.5010 H   0  0  0  0  0  0  0  0  0  0  0  0
    3.3189   -0.9121   -0.2036 H   0  0  0  0  0  0  0  0  0  0  0  0
    1.5376    1.7693   -0.9237 H   0  0  0  0  0  0  0  0  0  0  0  0
   -0.9199    0.9316   -1.7735 H   0  0  0  0  0  0  0  0  0  0  0  0
   -0.7654    2.5417    0.6365 H   0  0  0  0  0  0  0  0  0  0  0  0
   -2.3546    1.9923   -0.1897 H   0  0  0  0  0  0  0  0  0  0  0  0
   -2.4417   -1.7835    0.3457 H   0  0  0  0  0  0  0  0  0  0  0  0
   -2.7451   -0.7367   -1.0998 H   0  0  0  0  0  0  0  0  0  0  0  0
   -1.4612   -1.9594   -1.1439 H   0  0  0  0  0  0  0  0  0  0  0  0
    0.4120   -1.9318   -0.0134 H   0  0  0  0  0  0  0  0  0  0  0  0
    0.2064   -1.1700    1.6010 H   0  0  0  0  0  0  0  0  0  0  0  0
  1  2  1  0
  2  3  2  0
  3  4  1  0
  4  5  1  0
  5  6  1  0
  6  7  1  0
  7  8  1  0
  7  9  1  0
  9  2  1  0
  7  4  1  0
  1 10  1  0
  1 11  1  0
  1 12  1  0
  3 13  1  0
  4 14  1  0
  5 15  1  0
  5 16  1  0
  8 17  1  0
  8 18  1  0
  8 19  1  0
  9 20  1  0
  9 21  1  0
M  END
