
     RDKit          3D

 16 17  0  0  0  0  0  0  0  0999 V2000
    2.3043    0.4524    0.1431 C   0  0  0  0  0  0  0  0  0  0  0  0
    0.8979   -0.0148    0.0723 C   0  0  0  0  0  0  0  0  0  0  0  0
    0.4027   -1.2422    0.2566 C   0  0  0  0  0  0  0  0  0  0  0  0
   -1.0625   -0.9855    0.0371 C   0  0  0  0  0  0  0  0  0  0  0  0
   -0.9894   -0.1601   -1.1082 O   0  0  0  0  0  0  0  0  0  0  0  0
   -0.3608    0.7507   -0.2242 C   0  0  0  0  0  0  0  0  0  0  0  0
   -1.3476    0.2805    0.7970 C   0  0  0  0  0  0  0  0  0  0  0  0
   -2.6211    0.7583    0.5552 O   0  0  0  0  0  0  0  0  0  0  0  0
    2.7045    0.3860    1.1937 H   0  0  0  0  0  0  0  0  0  0  0  0
    2.9904   -0.1337   -0.4990 H   0  0  0  0  0  0  0  0  0  0  0  0
    2.3027    1.5295   -0.1075 H   0  0  0  0  0  0  0  0  0  0  0  0
    0.8507   -2.1847    0.4936 H   0  0  0  0  0  0  0  0  0  0  0  0
   -1.7372   -1.7925    0.0428 H   0  0  0  0  0  0  0  0  0  0  0  0
   -0.2941    1.7641   -0.5090 H   0  0  0  0  0  0  0  0  0  0  0  0
   -1.0133    0.2993    1.8528 H   0  0  0  0  0  0  0  0  0  0  0  0
   -3.0271    0.2930   -0.2189 H   0  0  0  0  0  0  0  0  0  0  0  0
  1  2  1  0
  2  3  2  0
  3  4  1  0
  4  5  1  0
  5  6  1  0
  6  7  1  0
  7  8  1  0
  6  2  1  0
  7  4  1  0
  1  9  1  0
  1 10  1  0
  1 11  1  0
  3 12  1  0
  4 13  1  0
  6 14  1  0
  7 15  1  0
  8 16  1  0
M  END
