
     RDKit          3D

 21 21  0  0  0  0  0  0  0  0999 V2000
    2.9524    0.1285   -0.0456 C   0  0  0  0  0  0  0  0  0  0  0  0
    1.4432    0.1592   -0.0629 C   0  0  0  0  0  0  0  0  0  0  0  0
    0.7873    1.2937   -0.2067 C   0  0  0  0  0  0  0  0  0  0  0  0
   -0.6664    1.3063   -0.2214 C   0  0  0  0  0  0  0  0  0  0  0  0
   -1.2349    2.3037   -0.7068 O   0  0  0  0  0  0  0  0  0  0  0  0
   -1.3226    0.1279    0.3443 C   0  0  0  0  0  0  0  0  0  0  0  0
   -2.8185    0.1448    0.2422 C   0  0  0  0  0  0  0  0  0  0  0  0
   -0.7078   -1.0767   -0.3339 C   0  0  0  0  0  0  0  0  0  0  0  0
    0.7435   -1.1152    0.0865 C   0  0  0  0  0  0  0  0  0  0  0  0
    3.3787    1.1379   -0.1365 H   0  0  0  0  0  0  0  0  0  0  0  0
    3.3495   -0.4941   -0.8502 H   0  0  0  0  0  0  0  0  0  0  0  0
    3.2212   -0.2612    0.9566 H   0  0  0  0  0  0  0  0  0  0  0  0
    1.3793    2.1936   -0.3109 H   0  0  0  0  0  0  0  0  0  0  0  0
   -1.0603    0.0556    1.4202 H   0  0  0  0  0  0  0  0  0  0  0  0
   -3.1814    1.0191    0.8149 H   0  0  0  0  0  0  0  0  0  0  0  0
   -3.1932   -0.7571    0.7819 H   0  0  0  0  0  0  0  0  0  0  0  0
   -3.1841    0.2046   -0.7905 H   0  0  0  0  0  0  0  0  0  0  0  0
   -1.2306   -2.0055   -0.0917 H   0  0  0  0  0  0  0  0  0  0  0  0
   -0.7422   -0.9436   -1.4433 H   0  0  0  0  0  0  0  0  0  0  0  0
    1.2435   -1.8862   -0.5688 H   0  0  0  0  0  0  0  0  0  0  0  0
    0.8435   -1.5354    1.1227 H   0  0  0  0  0  0  0  0  0  0  0  0
  1  2  1  0
  2  3  2  0
  3  4  1  0
  4  5  2  0
  4  6  1  0
  6  7  1  0
  6  8  1  0
  8  9  1  0
  9  2  1  0
  1 10  1  0
  1 11  1  0
  1 12  1  0
  3 13  1  0
  6 14  1  0
  7 15  1  0
  7 16  1  0
  7 17  1  0
  8 18  1  0
  8 19  1  0
  9 20  1  0
  9 21  1  0
M  END
