
     RDKit          3D

 19 21  0  0  0  0  0  0  0  0999 V2000
    2.2453    0.1495    0.0377 C   0  0  0  0  0  0  0  0  0  0  0  0
    0.8570   -0.3536    0.0769 C   0  0  0  0  0  0  0  0  0  0  0  0
    0.5147   -1.6339    0.0653 C   0  0  0  0  0  0  0  0  0  0  0  0
   -0.9849   -1.7360    0.1165 C   0  0  0  0  0  0  0  0  0  0  0  0
   -1.4652   -1.2985    1.3682 O   0  0  0  0  0  0  0  0  0  0  0  0
   -1.4341    0.0496    1.0149 C   0  0  0  0  0  0  0  0  0  0  0  0
   -1.3877   -0.4040   -0.4093 C   0  0  0  0  0  0  0  0  0  0  0  0
   -0.3713    0.5024    0.1292 C   0  0  0  0  0  0  0  0  0  0  0  0
   -0.3099    1.8723   -0.4658 C   0  0  0  0  0  0  0  0  0  0  0  0
    2.3500    1.0132   -0.6278 H   0  0  0  0  0  0  0  0  0  0  0  0
    2.9616   -0.6272   -0.2776 H   0  0  0  0  0  0  0  0  0  0  0  0
    2.5838    0.4928    1.0537 H   0  0  0  0  0  0  0  0  0  0  0  0
    1.2348   -2.4391    0.0249 H   0  0  0  0  0  0  0  0  0  0  0  0
   -1.4256   -2.6313   -0.2881 H   0  0  0  0  0  0  0  0  0  0  0  0
   -2.2717    0.6928    1.3503 H   0  0  0  0  0  0  0  0  0  0  0  0
   -2.1392   -0.2086   -1.1354 H   0  0  0  0  0  0  0  0  0  0  0  0
   -1.2949    2.3515   -0.3205 H   0  0  0  0  0  0  0  0  0  0  0  0
    0.5422    2.4586   -0.1297 H   0  0  0  0  0  0  0  0  0  0  0  0
   -0.2049    1.7498   -1.5833 H   0  0  0  0  0  0  0  0  0  0  0  0
  1  2  1  0
  2  3  2  0
  3  4  1  0
  4  5  1  0
  5  6  1  0
  6  7  1  0
  7  8  1  0
  8  9  1  0
  8  2  1  0
  7  4  1  0
  8  6  1  0
  1 10  1  0
  1 11  1  0
  1 12  1  0
  3 13  1  0
  4 14  1  0
  6 15  1  0
  7 16  1  0
  9 17  1  0
  9 18  1  0
  9 19  1  0
M  END
