
     RDKit          3D

 21 22  0  0  0  0  0  0  0  0999 V2000
   -2.6604    0.1418   -0.3601 C   0  0  0  0  0  0  0  0  0  0  0  0
   -1.1952   -0.0716   -0.2268 C   0  0  0  0  0  0  0  0  0  0  0  0
   -0.3142   -0.3740   -1.1815 C   0  0  0  0  0  0  0  0  0  0  0  0
    0.9422   -0.9136   -0.6222 C   0  0  0  0  0  0  0  0  0  0  0  0
    2.0257    0.1372   -0.4918 C   0  0  0  0  0  0  0  0  0  0  0  0
    1.3773    1.3731    0.0456 C   0  0  0  0  0  0  0  0  0  0  0  0
    0.4413    1.2423    0.9668 C   0  0  0  0  0  0  0  0  0  0  0  0
   -0.3799    0.0108    1.0428 C   0  0  0  0  0  0  0  0  0  0  0  0
    0.5175   -1.2182    0.8237 C   0  0  0  0  0  0  0  0  0  0  0  0
   -3.0781   -0.6897   -0.9625 H   0  0  0  0  0  0  0  0  0  0  0  0
   -2.8972    1.1387   -0.8051 H   0  0  0  0  0  0  0  0  0  0  0  0
   -3.0964    0.1547    0.6621 H   0  0  0  0  0  0  0  0  0  0  0  0
   -0.5259   -0.2280   -2.2535 H   0  0  0  0  0  0  0  0  0  0  0  0
    1.2972   -1.8227   -1.1325 H   0  0  0  0  0  0  0  0  0  0  0  0
    2.7454   -0.1884    0.3140 H   0  0  0  0  0  0  0  0  0  0  0  0
    2.5722    0.3106   -1.4188 H   0  0  0  0  0  0  0  0  0  0  0  0
    1.6836    2.3663   -0.3279 H   0  0  0  0  0  0  0  0  0  0  0  0
    0.2721    2.0383    1.6704 H   0  0  0  0  0  0  0  0  0  0  0  0
   -0.9827   -0.0634    1.9382 H   0  0  0  0  0  0  0  0  0  0  0  0
    1.3669   -1.2342    1.5054 H   0  0  0  0  0  0  0  0  0  0  0  0
   -0.1113   -2.1098    0.8139 H   0  0  0  0  0  0  0  0  0  0  0  0
  1  2  1  0
  2  3  2  0
  3  4  1  0
  4  5  1  0
  5  6  1  0
  6  7  2  0
  7  8  1  0
  8  9  1  0
  8  2  1  0
  9  4  1  0
  1 10  1  0
  1 11  1  0
  1 12  1  0
  3 13  1  0
  4 14  1  0
  5 15  1  0
  5 16  1  0
  6 17  1  0
  7 18  1  0
  8 19  1  0
  9 20  1  0
  9 21  1  0
M  END
