
     RDKit          3D

 21 22  0  0  0  0  0  0  0  0999 V2000
    2.1954   -0.4286    0.2565 C   0  0  0  0  0  0  0  0  0  0  0  0
    0.9173    0.2953    0.0506 C   0  0  0  0  0  0  0  0  0  0  0  0
    0.8227    1.6140   -0.0731 C   0  0  0  0  0  0  0  0  0  0  0  0
   -0.5953    2.0274   -0.2681 C   0  0  0  0  0  0  0  0  0  0  0  0
   -1.4170    0.7785   -0.1761 C   0  0  0  0  0  0  0  0  0  0  0  0
   -0.4047   -0.3002   -0.0472 C   0  0  0  0  0  0  0  0  0  0  0  0
   -0.5622   -1.4967   -0.9461 C   0  0  0  0  0  0  0  0  0  0  0  0
   -1.5574   -1.9489   -0.0574 O   0  0  0  0  0  0  0  0  0  0  0  0
   -0.8008   -1.3251    0.9621 C   0  0  0  0  0  0  0  0  0  0  0  0
    2.2009   -0.8349    1.2900 H   0  0  0  0  0  0  0  0  0  0  0  0
    2.3247   -1.2550   -0.4835 H   0  0  0  0  0  0  0  0  0  0  0  0
    3.0853    0.2365    0.1141 H   0  0  0  0  0  0  0  0  0  0  0  0
    1.6314    2.3363   -0.0439 H   0  0  0  0  0  0  0  0  0  0  0  0
   -0.8151    2.7539    0.5612 H   0  0  0  0  0  0  0  0  0  0  0  0
   -0.7522    2.5373   -1.2260 H   0  0  0  0  0  0  0  0  0  0  0  0
   -2.0114    0.8355    0.7772 H   0  0  0  0  0  0  0  0  0  0  0  0
   -2.1373    0.6441   -0.9885 H   0  0  0  0  0  0  0  0  0  0  0  0
    0.3287   -2.1713   -0.8111 H   0  0  0  0  0  0  0  0  0  0  0  0
   -0.8825   -1.3199   -1.9677 H   0  0  0  0  0  0  0  0  0  0  0  0
   -0.0301   -1.9989    1.3367 H   0  0  0  0  0  0  0  0  0  0  0  0
   -1.5405   -0.9791    1.7404 H   0  0  0  0  0  0  0  0  0  0  0  0
  1  2  1  0
  2  3  2  0
  3  4  1  0
  4  5  1  0
  5  6  1  0
  6  7  1  0
  7  8  1  0
  8  9  1  0
  6  2  1  0
  9  6  1  0
  1 10  1  0
  1 11  1  0
  1 12  1  0
  3 13  1  0
  4 14  1  0
  4 15  1  0
  5 16  1  0
  5 17  1  0
  7 18  1  0
  7 19  1  0
  9 20  1  0
  9 21  1  0
M  END
