
     RDKit          3D

 20 20  0  0  0  0  0  0  0  0999 V2000
    2.5892   -0.6995   -0.6253 C   0  0  0  0  0  0  0  0  0  0  0  0
    1.2328   -0.1290   -0.4056 C   0  0  0  0  0  0  0  0  0  0  0  0
    0.1619   -0.7698    0.0163 C   0  0  0  0  0  0  0  0  0  0  0  0
   -0.9833    0.1586    0.1001 C   0  0  0  0  0  0  0  0  0  0  0  0
   -2.1991   -0.5548   -0.4340 C   0  0  0  0  0  0  0  0  0  0  0  0
   -1.1566    0.5479    1.5545 C   0  0  0  0  0  0  0  0  0  0  0  0
   -0.5917    1.2335   -0.6460 O   0  0  0  0  0  0  0  0  0  0  0  0
    0.7980    1.2890   -0.6188 C   0  0  0  0  0  0  0  0  0  0  0  0
    3.3311    0.1264   -0.5985 H   0  0  0  0  0  0  0  0  0  0  0  0
    2.6123   -1.2681   -1.5823 H   0  0  0  0  0  0  0  0  0  0  0  0
    2.8924   -1.3985    0.1852 H   0  0  0  0  0  0  0  0  0  0  0  0
    0.1069   -1.8153    0.2685 H   0  0  0  0  0  0  0  0  0  0  0  0
   -1.9628   -1.2741   -1.2443 H   0  0  0  0  0  0  0  0  0  0  0  0
   -2.9658    0.1365   -0.8402 H   0  0  0  0  0  0  0  0  0  0  0  0
   -2.6248   -1.1560    0.4013 H   0  0  0  0  0  0  0  0  0  0  0  0
   -0.1448    0.4961    2.0479 H   0  0  0  0  0  0  0  0  0  0  0  0
   -1.8122   -0.1455    2.1086 H   0  0  0  0  0  0  0  0  0  0  0  0
   -1.5206    1.5813    1.6811 H   0  0  0  0  0  0  0  0  0  0  0  0
    1.0960    1.9440    0.2097 H   0  0  0  0  0  0  0  0  0  0  0  0
    1.1411    1.6975   -1.5783 H   0  0  0  0  0  0  0  0  0  0  0  0
  1  2  1  0
  2  3  2  0
  3  4  1  0
  4  5  1  0
  4  6  1  0
  4  7  1  0
  7  8  1  0
  8  2  1  0
  1  9  1  0
  1 10  1  0
  1 11  1  0
  3 12  1  0
  5 13  1  0
  5 14  1  0
  5 15  1  0
  6 16  1  0
  6 17  1  0
  6 18  1  0
  8 19  1  0
  8 20  1  0
M  END
