
     RDKit          3D

 21 22  0  0  0  0  0  0  0  0999 V2000
   -2.1147   -1.2483    0.4200 C   0  0  0  0  0  0  0  0  0  0  0  0
   -0.7556   -0.6955    0.1375 C   0  0  0  0  0  0  0  0  0  0  0  0
    0.3773   -1.1907    0.5975 C   0  0  0  0  0  0  0  0  0  0  0  0
    1.5187   -0.4007    0.1242 C   0  0  0  0  0  0  0  0  0  0  0  0
    2.8531   -0.4472    0.5268 C   0  0  0  0  0  0  0  0  0  0  0  0
    2.3973   -0.9079   -0.8277 O   0  0  0  0  0  0  0  0  0  0  0  0
    0.8836    0.9288   -0.2826 C   0  0  0  0  0  0  0  0  0  0  0  0
   -0.4772    0.4696   -0.6926 C   0  0  0  0  0  0  0  0  0  0  0  0
   -1.4407    1.6139   -0.4765 C   0  0  0  0  0  0  0  0  0  0  0  0
   -2.9069   -0.5785    0.0538 H   0  0  0  0  0  0  0  0  0  0  0  0
   -2.1943   -2.1989   -0.1301 H   0  0  0  0  0  0  0  0  0  0  0  0
   -2.2602   -1.3586    1.5164 H   0  0  0  0  0  0  0  0  0  0  0  0
    0.4523   -2.0568    1.2336 H   0  0  0  0  0  0  0  0  0  0  0  0
    3.3414   -1.3020    1.0054 H   0  0  0  0  0  0  0  0  0  0  0  0
    3.5118    0.4450    0.4503 H   0  0  0  0  0  0  0  0  0  0  0  0
    0.8188    1.5573    0.6078 H   0  0  0  0  0  0  0  0  0  0  0  0
    1.4193    1.3951   -1.1340 H   0  0  0  0  0  0  0  0  0  0  0  0
   -0.5361    0.1708   -1.7622 H   0  0  0  0  0  0  0  0  0  0  0  0
   -1.5879    1.8456    0.5918 H   0  0  0  0  0  0  0  0  0  0  0  0
   -2.3553    1.4389   -1.0439 H   0  0  0  0  0  0  0  0  0  0  0  0
   -0.9449    2.5203   -0.9155 H   0  0  0  0  0  0  0  0  0  0  0  0
  1  2  1  0
  2  3  2  0
  3  4  1  0
  4  5  1  0
  5  6  1  0
  4  7  1  0
  7  8  1  0
  8  9  1  0
  8  2  1  0
  6  4  1  0
  1 10  1  0
  1 11  1  0
  1 12  1  0
  3 13  1  0
  5 14  1  0
  5 15  1  0
  7 16  1  0
  7 17  1  0
  8 18  1  0
  9 19  1  0
  9 20  1  0
  9 21  1  0
M  END
