
     RDKit          3D

 19 20  0  0  0  0  0  0  0  0999 V2000
    2.2010   -0.5796    0.1224 C   0  0  0  0  0  0  0  0  0  0  0  0
    0.8999    0.1726   -0.0357 C   0  0  0  0  0  0  0  0  0  0  0  0
    0.5567    1.2716    0.6097 C   0  0  0  0  0  0  0  0  0  0  0  0
   -0.7957    1.6736    0.1554 C   0  0  0  0  0  0  0  0  0  0  0  0
   -1.3645    0.4847   -0.5702 C   0  0  0  0  0  0  0  0  0  0  0  0
   -2.0313   -0.4013    0.2379 O   0  0  0  0  0  0  0  0  0  0  0  0
   -1.2382   -1.5062    0.4416 C   0  0  0  0  0  0  0  0  0  0  0  0
   -0.4033   -1.6286   -0.6855 O   0  0  0  0  0  0  0  0  0  0  0  0
   -0.1411   -0.3001   -0.9798 C   0  0  0  0  0  0  0  0  0  0  0  0
    2.5871   -0.8147   -0.9019 H   0  0  0  0  0  0  0  0  0  0  0  0
    2.9364   -0.0157    0.6953 H   0  0  0  0  0  0  0  0  0  0  0  0
    1.9407   -1.5631    0.5835 H   0  0  0  0  0  0  0  0  0  0  0  0
    1.1899    1.7850    1.3585 H   0  0  0  0  0  0  0  0  0  0  0  0
   -0.7034    2.5565   -0.5157 H   0  0  0  0  0  0  0  0  0  0  0  0
   -1.4141    1.9011    1.0565 H   0  0  0  0  0  0  0  0  0  0  0  0
   -1.9479    0.8182   -1.4571 H   0  0  0  0  0  0  0  0  0  0  0  0
   -0.6069   -1.3345    1.3388 H   0  0  0  0  0  0  0  0  0  0  0  0
   -1.8649   -2.4096    0.5388 H   0  0  0  0  0  0  0  0  0  0  0  0
    0.1997   -0.1098   -1.9926 H   0  0  0  0  0  0  0  0  0  0  0  0
  1  2  1  0
  2  3  2  0
  3  4  1  0
  4  5  1  0
  5  6  1  0
  6  7  1  0
  7  8  1  0
  8  9  1  0
  9  2  1  0
  9  5  1  0
  1 10  1  0
  1 11  1  0
  1 12  1  0
  3 13  1  0
  4 14  1  0
  4 15  1  0
  5 16  1  0
  7 17  1  0
  7 18  1  0
  9 19  1  0
M  END
