
     RDKit          3D

 21 21  0  0  0  0  0  0  0  0999 V2000
    2.2358   -0.5766    0.0916 C   0  0  0  0  0  0  0  0  0  0  0  0
    0.7435   -0.3564    0.0348 C   0  0  0  0  0  0  0  0  0  0  0  0
    0.3141    0.8635   -0.1645 C   0  0  0  0  0  0  0  0  0  0  0  0
    1.2865    1.9543   -0.3226 C   0  0  0  0  0  0  0  0  0  0  0  0
    0.8626    3.1441   -0.5171 O   0  0  0  0  0  0  0  0  0  0  0  0
   -1.1544    1.2006   -0.2403 C   0  0  0  0  0  0  0  0  0  0  0  0
   -1.8807    0.1160    0.5254 C   0  0  0  0  0  0  0  0  0  0  0  0
   -1.5428   -1.1781   -0.2306 C   0  0  0  0  0  0  0  0  0  0  0  0
   -0.1384   -1.5310    0.2084 C   0  0  0  0  0  0  0  0  0  0  0  0
    2.4685   -1.6612    0.1441 H   0  0  0  0  0  0  0  0  0  0  0  0
    2.6687   -0.0206    0.9576 H   0  0  0  0  0  0  0  0  0  0  0  0
    2.7268   -0.1885   -0.8157 H   0  0  0  0  0  0  0  0  0  0  0  0
    2.3255    1.7363   -0.2728 H   0  0  0  0  0  0  0  0  0  0  0  0
   -1.4782    1.0931   -1.3156 H   0  0  0  0  0  0  0  0  0  0  0  0
   -1.3395    2.2064    0.1400 H   0  0  0  0  0  0  0  0  0  0  0  0
   -2.9605    0.2831    0.5858 H   0  0  0  0  0  0  0  0  0  0  0  0
   -1.3939    0.0617    1.5278 H   0  0  0  0  0  0  0  0  0  0  0  0
   -1.5210   -1.0094   -1.3153 H   0  0  0  0  0  0  0  0  0  0  0  0
   -2.2620   -1.9713   -0.0209 H   0  0  0  0  0  0  0  0  0  0  0  0
    0.2401   -2.4321   -0.3162 H   0  0  0  0  0  0  0  0  0  0  0  0
   -0.2008   -1.7339    1.3161 H   0  0  0  0  0  0  0  0  0  0  0  0
  1  2  1  0
  2  3  2  0
  3  4  1  0
  4  5  2  0
  3  6  1  0
  6  7  1  0
  7  8  1  0
  8  9  1  0
  9  2  1  0
  1 10  1  0
  1 11  1  0
  1 12  1  0
  4 13  1  0
  6 14  1  0
  6 15  1  0
  7 16  1  0
  7 17  1  0
  8 18  1  0
  8 19  1  0
  9 20  1  0
  9 21  1  0
M  END
