
     RDKit          3D

 17 17  0  0  0  0  0  0  0  0999 V2000
    1.9828   -0.2759   -0.2821 C   0  0  0  0  0  0  0  0  0  0  0  0
    0.7136    0.5084   -0.1637 C   0  0  0  0  0  0  0  0  0  0  0  0
   -0.4154   -0.0455    0.2342 C   0  0  0  0  0  0  0  0  0  0  0  0
   -0.6429   -1.4822    0.6244 C   0  0  0  0  0  0  0  0  0  0  0  0
   -1.6135   -2.0274   -0.2365 O   0  0  0  0  0  0  0  0  0  0  0  0
   -1.4451    1.0171    0.2305 C   0  0  0  0  0  0  0  0  0  0  0  0
   -0.7899    2.1737   -0.1958 O   0  0  0  0  0  0  0  0  0  0  0  0
    0.5503    1.9258   -0.4565 C   0  0  0  0  0  0  0  0  0  0  0  0
    1.4332    2.7433   -0.8576 O   0  0  0  0  0  0  0  0  0  0  0  0
    2.0700   -0.9827    0.5787 H   0  0  0  0  0  0  0  0  0  0  0  0
    2.8451    0.4235   -0.2889 H   0  0  0  0  0  0  0  0  0  0  0  0
    1.9108   -0.8919   -1.1822 H   0  0  0  0  0  0  0  0  0  0  0  0
    0.2787   -2.0732    0.5043 H   0  0  0  0  0  0  0  0  0  0  0  0
   -1.0418   -1.5503    1.6566 H   0  0  0  0  0  0  0  0  0  0  0  0
   -1.7059   -1.4515   -1.0320 H   0  0  0  0  0  0  0  0  0  0  0  0
   -2.3148    0.7664   -0.4107 H   0  0  0  0  0  0  0  0  0  0  0  0
   -1.8153    1.2225    1.2773 H   0  0  0  0  0  0  0  0  0  0  0  0
  1  2  1  0
  2  3  2  0
  3  4  1  0
  4  5  1  0
  3  6  1  0
  6  7  1  0
  7  8  1  0
  8  9  2  0
  8  2  1  0
  1 10  1  0
  1 11  1  0
  1 12  1  0
  4 13  1  0
  4 14  1  0
  5 15  1  0
  6 16  1  0
  6 17  1  0
M  END
