
     RDKit          3D

 19 19  0  0  0  0  0  0  0  0999 V2000
    2.8139    0.1002   -0.5417 C   0  0  0  0  0  0  0  0  0  0  0  0
    1.3691   -0.2135   -0.3038 C   0  0  0  0  0  0  0  0  0  0  0  0
    0.8706   -1.4255   -0.0330 C   0  0  0  0  0  0  0  0  0  0  0  0
   -0.6033   -1.3354    0.1396 C   0  0  0  0  0  0  0  0  0  0  0  0
   -0.8317    0.1190    0.3955 C   0  0  0  0  0  0  0  0  0  0  0  0
   -2.1849    0.5993   -0.0511 C   0  0  0  0  0  0  0  0  0  0  0  0
   -2.2817    1.9608    0.2371 O   0  0  0  0  0  0  0  0  0  0  0  0
    0.2806    0.7576   -0.3304 C   0  0  0  0  0  0  0  0  0  0  0  0
    0.3852    1.8789   -0.8888 O   0  0  0  0  0  0  0  0  0  0  0  0
    2.9088    1.1026   -0.9509 H   0  0  0  0  0  0  0  0  0  0  0  0
    3.2674   -0.6048   -1.2637 H   0  0  0  0  0  0  0  0  0  0  0  0
    3.3744    0.1010    0.4359 H   0  0  0  0  0  0  0  0  0  0  0  0
    1.4048   -2.3639    0.0594 H   0  0  0  0  0  0  0  0  0  0  0  0
   -0.9775   -1.9910    0.9460 H   0  0  0  0  0  0  0  0  0  0  0  0
   -1.0697   -1.5770   -0.8474 H   0  0  0  0  0  0  0  0  0  0  0  0
   -0.7634    0.3147    1.4919 H   0  0  0  0  0  0  0  0  0  0  0  0
   -2.9345    0.0906    0.6082 H   0  0  0  0  0  0  0  0  0  0  0  0
   -2.4193    0.3631   -1.0981 H   0  0  0  0  0  0  0  0  0  0  0  0
   -2.6090    2.1234    1.1486 H   0  0  0  0  0  0  0  0  0  0  0  0
  1  2  1  0
  2  3  2  0
  3  4  1  0
  4  5  1  0
  5  6  1  0
  6  7  1  0
  5  8  1  0
  8  9  2  0
  8  2  1  0
  1 10  1  0
  1 11  1  0
  1 12  1  0
  3 13  1  0
  4 14  1  0
  4 15  1  0
  5 16  1  0
  6 17  1  0
  6 18  1  0
  7 19  1  0
M  END
