
     RDKit          3D

 21 23  0  0  0  0  0  0  0  0999 V2000
    2.4131   -0.9001   -0.2598 C   0  0  0  0  0  0  0  0  0  0  0  0
    1.1159   -0.1686    0.0165 C   0  0  0  0  0  0  0  0  0  0  0  0
    0.9924    1.1106   -0.2541 C   0  0  0  0  0  0  0  0  0  0  0  0
   -0.2361    1.8489   -0.0036 C   0  0  0  0  0  0  0  0  0  0  0  0
   -1.3166    1.1334    0.7194 C   0  0  0  0  0  0  0  0  0  0  0  0
   -1.9363   -0.1091    0.2146 C   0  0  0  0  0  0  0  0  0  0  0  0
   -1.1125   -1.2189   -0.3706 C   0  0  0  0  0  0  0  0  0  0  0  0
    0.0095   -0.9345    0.5940 C   0  0  0  0  0  0  0  0  0  0  0  0
   -0.9432   -0.1062    1.4028 C   0  0  0  0  0  0  0  0  0  0  0  0
    3.0700   -0.3075   -0.9171 H   0  0  0  0  0  0  0  0  0  0  0  0
    2.9239   -0.9821    0.7253 H   0  0  0  0  0  0  0  0  0  0  0  0
    2.2351   -1.8661   -0.7490 H   0  0  0  0  0  0  0  0  0  0  0  0
    1.8355    1.6262   -0.6768 H   0  0  0  0  0  0  0  0  0  0  0  0
    0.0239    2.7645    0.6083 H   0  0  0  0  0  0  0  0  0  0  0  0
   -0.6501    2.2888   -0.9568 H   0  0  0  0  0  0  0  0  0  0  0  0
   -2.0287    1.8048    1.2662 H   0  0  0  0  0  0  0  0  0  0  0  0
   -2.9782   -0.3508    0.4366 H   0  0  0  0  0  0  0  0  0  0  0  0
   -0.8569   -1.1407   -1.4372 H   0  0  0  0  0  0  0  0  0  0  0  0
   -1.5425   -2.2309   -0.1317 H   0  0  0  0  0  0  0  0  0  0  0  0
    0.3482   -1.8078    1.1903 H   0  0  0  0  0  0  0  0  0  0  0  0
   -1.3663   -0.4542    2.3405 H   0  0  0  0  0  0  0  0  0  0  0  0
  1  2  1  0
  2  3  2  0
  3  4  1  0
  4  5  1  0
  5  6  1  0
  6  7  1  0
  7  8  1  0
  8  9  1  0
  8  2  1  0
  9  5  1  0
  9  6  1  0
  1 10  1  0
  1 11  1  0
  1 12  1  0
  3 13  1  0
  4 14  1  0
  4 15  1  0
  5 16  1  0
  6 17  1  0
  7 18  1  0
  7 19  1  0
  8 20  1  0
  9 21  1  0
M  END
