
     RDKit          3D

 21 22  0  0  0  0  0  0  0  0999 V2000
    1.0258    2.0891    0.1333 C   0  0  0  0  0  0  0  0  0  0  0  0
    0.3360    0.7666    0.1662 C   0  0  0  0  0  0  0  0  0  0  0  0
   -0.9523    0.6475   -0.0885 C   0  0  0  0  0  0  0  0  0  0  0  0
   -2.4082    0.7487   -0.4075 C   0  0  0  0  0  0  0  0  0  0  0  0
   -2.5370   -0.3678    0.4820 O   0  0  0  0  0  0  0  0  0  0  0  0
   -1.3538   -0.8049   -0.0321 C   0  0  0  0  0  0  0  0  0  0  0  0
   -0.2889   -1.3430    0.8925 C   0  0  0  0  0  0  0  0  0  0  0  0
    0.9665   -0.5649    0.5027 C   0  0  0  0  0  0  0  0  0  0  0  0
    1.6911   -1.1615   -0.6440 C   0  0  0  0  0  0  0  0  0  0  0  0
    2.0542    1.9498    0.5270 H   0  0  0  0  0  0  0  0  0  0  0  0
    0.5319    2.8268    0.7960 H   0  0  0  0  0  0  0  0  0  0  0  0
    1.1298    2.4476   -0.9044 H   0  0  0  0  0  0  0  0  0  0  0  0
   -2.9130    1.6537   -0.0390 H   0  0  0  0  0  0  0  0  0  0  0  0
   -2.5751    0.4650   -1.4549 H   0  0  0  0  0  0  0  0  0  0  0  0
   -1.4586   -1.2905   -1.0008 H   0  0  0  0  0  0  0  0  0  0  0  0
   -0.5387   -1.2595    1.9505 H   0  0  0  0  0  0  0  0  0  0  0  0
   -0.1211   -2.4041    0.6297 H   0  0  0  0  0  0  0  0  0  0  0  0
    1.5967   -0.3935    1.3813 H   0  0  0  0  0  0  0  0  0  0  0  0
    2.1154   -0.4024   -1.3544 H   0  0  0  0  0  0  0  0  0  0  0  0
    2.5915   -1.7367   -0.2846 H   0  0  0  0  0  0  0  0  0  0  0  0
    1.1077   -1.8662   -1.2512 H   0  0  0  0  0  0  0  0  0  0  0  0
  1  2  1  0
  2  3  2  0
  3  4  1  0
  4  5  1  0
  5  6  1  0
  6  7  1  0
  7  8  1  0
  8  9  1  0
  8  2  1  0
  6  3  1  0
  1 10  1  0
  1 11  1  0
  1 12  1  0
  4 13  1  0
  4 14  1  0
  6 15  1  0
  7 16  1  0
  7 17  1  0
  8 18  1  0
  9 19  1  0
  9 20  1  0
  9 21  1  0
M  END
