
     RDKit          3D

 21 22  0  0  0  0  0  0  0  0999 V2000
    2.6025    0.3752    0.1492 C   0  0  0  0  0  0  0  0  0  0  0  0
    1.2036    0.0375   -0.2238 C   0  0  0  0  0  0  0  0  0  0  0  0
    0.3451    0.9365   -0.6936 C   0  0  0  0  0  0  0  0  0  0  0  0
   -1.0963    0.5289   -0.7063 C   0  0  0  0  0  0  0  0  0  0  0  0
   -1.8450    1.3129    0.3650 C   0  0  0  0  0  0  0  0  0  0  0  0
   -1.1989   -0.9426   -0.4460 C   0  0  0  0  0  0  0  0  0  0  0  0
   -0.5022   -1.3575    0.8292 C   0  0  0  0  0  0  0  0  0  0  0  0
    0.6812   -1.3599   -0.0863 C   0  0  0  0  0  0  0  0  0  0  0  0
   -0.2079   -1.6366   -1.1481 O   0  0  0  0  0  0  0  0  0  0  0  0
    2.6795    0.8309    1.1583 H   0  0  0  0  0  0  0  0  0  0  0  0
    3.0146    1.1267   -0.5866 H   0  0  0  0  0  0  0  0  0  0  0  0
    3.2721   -0.5103    0.0406 H   0  0  0  0  0  0  0  0  0  0  0  0
    0.6460    1.9150   -1.0527 H   0  0  0  0  0  0  0  0  0  0  0  0
   -1.5501    0.7275   -1.6964 H   0  0  0  0  0  0  0  0  0  0  0  0
   -1.1083    1.8517    0.9983 H   0  0  0  0  0  0  0  0  0  0  0  0
   -2.4817    2.0652   -0.1041 H   0  0  0  0  0  0  0  0  0  0  0  0
   -2.4642    0.6348    1.0047 H   0  0  0  0  0  0  0  0  0  0  0  0
   -2.1710   -1.4029   -0.6398 H   0  0  0  0  0  0  0  0  0  0  0  0
   -0.4657   -0.6250    1.6323 H   0  0  0  0  0  0  0  0  0  0  0  0
   -0.7904   -2.3811    1.1308 H   0  0  0  0  0  0  0  0  0  0  0  0
    1.4371   -2.1267    0.0755 H   0  0  0  0  0  0  0  0  0  0  0  0
  1  2  1  0
  2  3  2  0
  3  4  1  0
  4  5  1  0
  4  6  1  0
  6  7  1  0
  7  8  1  0
  8  9  1  0
  8  2  1  0
  9  6  1  0
  1 10  1  0
  1 11  1  0
  1 12  1  0
  3 13  1  0
  4 14  1  0
  5 15  1  0
  5 16  1  0
  5 17  1  0
  6 18  1  0
  7 19  1  0
  7 20  1  0
  8 21  1  0
M  END
