
     RDKit          3D

 19 20  0  0  0  0  0  0  0  0999 V2000
    2.4008    0.4158    0.6209 C   0  0  0  0  0  0  0  0  0  0  0  0
    0.9805    0.2247    0.1841 C   0  0  0  0  0  0  0  0  0  0  0  0
    0.0447    0.6386    1.0362 C   0  0  0  0  0  0  0  0  0  0  0  0
   -1.3681    0.4623    0.6310 C   0  0  0  0  0  0  0  0  0  0  0  0
   -1.6528    1.4569   -0.3121 O   0  0  0  0  0  0  0  0  0  0  0  0
   -1.6246   -0.8598   -0.0402 C   0  0  0  0  0  0  0  0  0  0  0  0
   -0.7672   -1.9278    0.1701 O   0  0  0  0  0  0  0  0  0  0  0  0
   -0.6510   -1.2140   -1.0145 C   0  0  0  0  0  0  0  0  0  0  0  0
    0.6005   -0.3820   -1.1057 C   0  0  0  0  0  0  0  0  0  0  0  0
    3.1266    0.1327   -0.1414 H   0  0  0  0  0  0  0  0  0  0  0  0
    2.5274   -0.1333    1.5901 H   0  0  0  0  0  0  0  0  0  0  0  0
    2.5262    1.4971    0.8718 H   0  0  0  0  0  0  0  0  0  0  0  0
    0.2823    1.0891    1.9930 H   0  0  0  0  0  0  0  0  0  0  0  0
   -2.0858    0.5871    1.4552 H   0  0  0  0  0  0  0  0  0  0  0  0
   -2.6467    1.4479   -0.4109 H   0  0  0  0  0  0  0  0  0  0  0  0
   -2.6972   -1.0660   -0.2181 H   0  0  0  0  0  0  0  0  0  0  0  0
   -0.9630   -1.6627   -1.9732 H   0  0  0  0  0  0  0  0  0  0  0  0
    1.4243   -1.0732   -1.3974 H   0  0  0  0  0  0  0  0  0  0  0  0
    0.5431    0.3667   -1.9390 H   0  0  0  0  0  0  0  0  0  0  0  0
  1  2  1  0
  2  3  2  0
  3  4  1  0
  4  5  1  0
  4  6  1  0
  6  7  1  0
  7  8  1  0
  8  9  1  0
  9  2  1  0
  8  6  1  0
  1 10  1  0
  1 11  1  0
  1 12  1  0
  3 13  1  0
  4 14  1  0
  5 15  1  0
  6 16  1  0
  8 17  1  0
  9 18  1  0
  9 19  1  0
M  END
