
     RDKit          3D

 19 20  0  0  0  0  0  0  0  0999 V2000
   -2.0806   -1.2254   -0.1984 C   0  0  0  0  0  0  0  0  0  0  0  0
   -0.7898   -0.4962    0.0875 C   0  0  0  0  0  0  0  0  0  0  0  0
    0.2690   -1.2781    0.3185 C   0  0  0  0  0  0  0  0  0  0  0  0
    1.6127   -0.8040    0.6153 C   0  0  0  0  0  0  0  0  0  0  0  0
    2.7406   -0.8400   -0.0731 O   0  0  0  0  0  0  0  0  0  0  0  0
    1.9703    0.0807   -0.6067 C   0  0  0  0  0  0  0  0  0  0  0  0
    1.5454    1.3919   -0.1804 C   0  0  0  0  0  0  0  0  0  0  0  0
    0.2980    1.7421    0.0885 C   0  0  0  0  0  0  0  0  0  0  0  0
   -0.9841    0.9766    0.0487 C   0  0  0  0  0  0  0  0  0  0  0  0
   -1.9048   -2.2699   -0.4840 H   0  0  0  0  0  0  0  0  0  0  0  0
   -2.6348   -1.2219    0.7648 H   0  0  0  0  0  0  0  0  0  0  0  0
   -2.6942   -0.6706   -0.9267 H   0  0  0  0  0  0  0  0  0  0  0  0
    0.0556   -2.3372    0.2690 H   0  0  0  0  0  0  0  0  0  0  0  0
    1.7250   -0.3245    1.6321 H   0  0  0  0  0  0  0  0  0  0  0  0
    1.5027   -0.2132   -1.5867 H   0  0  0  0  0  0  0  0  0  0  0  0
    2.2722    2.1564   -0.0651 H   0  0  0  0  0  0  0  0  0  0  0  0
    0.1610    2.7935    0.4033 H   0  0  0  0  0  0  0  0  0  0  0  0
   -1.6384    1.3435    0.8600 H   0  0  0  0  0  0  0  0  0  0  0  0
   -1.4256    1.1962   -0.9667 H   0  0  0  0  0  0  0  0  0  0  0  0
  1  2  1  0
  2  3  2  0
  3  4  1  0
  4  5  1  0
  5  6  1  0
  6  7  1  0
  7  8  2  0
  8  9  1  0
  9  2  1  0
  6  4  1  0
  1 10  1  0
  1 11  1  0
  1 12  1  0
  3 13  1  0
  4 14  1  0
  6 15  1  0
  7 16  1  0
  8 17  1  0
  9 18  1  0
  9 19  1  0
M  END
