
     RDKit          3D

 21 23  0  0  0  0  0  0  0  0999 V2000
    2.6510   -0.5319   -0.0580 C   0  0  0  0  0  0  0  0  0  0  0  0
    1.2051   -0.1787    0.0289 C   0  0  0  0  0  0  0  0  0  0  0  0
    0.4688   -0.8685    0.8911 C   0  0  0  0  0  0  0  0  0  0  0  0
   -0.9805   -0.5798    1.0395 C   0  0  0  0  0  0  0  0  0  0  0  0
   -1.7193   -1.0026   -0.2072 C   0  0  0  0  0  0  0  0  0  0  0  0
   -1.8373    0.4346   -0.5843 C   0  0  0  0  0  0  0  0  0  0  0  0
   -0.6821    1.3479   -0.5180 C   0  0  0  0  0  0  0  0  0  0  0  0
    0.7098    0.8970   -0.8392 C   0  0  0  0  0  0  0  0  0  0  0  0
   -1.2365    0.8536    0.7440 C   0  0  0  0  0  0  0  0  0  0  0  0
    3.2027    0.3464    0.3787 H   0  0  0  0  0  0  0  0  0  0  0  0
    2.9325   -0.6850   -1.1089 H   0  0  0  0  0  0  0  0  0  0  0  0
    2.9102   -1.4255    0.5412 H   0  0  0  0  0  0  0  0  0  0  0  0
    0.9085   -1.6515    1.5000 H   0  0  0  0  0  0  0  0  0  0  0  0
   -1.4032   -0.9397    1.9753 H   0  0  0  0  0  0  0  0  0  0  0  0
   -2.6432   -1.5321    0.0359 H   0  0  0  0  0  0  0  0  0  0  0  0
   -1.1060   -1.5616   -0.9478 H   0  0  0  0  0  0  0  0  0  0  0  0
   -2.8236    0.8081   -0.8811 H   0  0  0  0  0  0  0  0  0  0  0  0
   -0.8955    2.4059   -0.7666 H   0  0  0  0  0  0  0  0  0  0  0  0
    0.7659    0.6019   -1.9246 H   0  0  0  0  0  0  0  0  0  0  0  0
    1.3849    1.7708   -0.7269 H   0  0  0  0  0  0  0  0  0  0  0  0
   -1.8122    1.4906    1.4281 H   0  0  0  0  0  0  0  0  0  0  0  0
  1  2  1  0
  2  3  2  0
  3  4  1  0
  4  5  1  0
  5  6  1  0
  6  7  1  0
  7  8  1  0
  7  9  1  0
  8  2  1  0
  9  4  1  0
  9  6  1  0
  1 10  1  0
  1 11  1  0
  1 12  1  0
  3 13  1  0
  4 14  1  0
  5 15  1  0
  5 16  1  0
  6 17  1  0
  7 18  1  0
  8 19  1  0
  8 20  1  0
  9 21  1  0
M  END
