
     RDKit          3D

 18 19  0  0  0  0  0  0  0  0999 V2000
    2.6393    0.2918   -0.2497 C   0  0  0  0  0  0  0  0  0  0  0  0
    1.2276   -0.1147   -0.2686 C   0  0  0  0  0  0  0  0  0  0  0  0
    0.7397   -1.2938   -0.6160 C   0  0  0  0  0  0  0  0  0  0  0  0
   -0.7387   -1.2944   -0.4962 C   0  0  0  0  0  0  0  0  0  0  0  0
   -1.2057   -1.2170    0.8011 O   0  0  0  0  0  0  0  0  0  0  0  0
   -1.1560   -0.0486    0.0486 C   0  0  0  0  0  0  0  0  0  0  0  0
   -2.4725    0.6002   -0.2225 C   0  0  0  0  0  0  0  0  0  0  0  0
    0.1030    0.8016    0.1232 C   0  0  0  0  0  0  0  0  0  0  0  0
    3.2886   -0.6315   -0.2643 H   0  0  0  0  0  0  0  0  0  0  0  0
    2.9338    0.8887   -1.1489 H   0  0  0  0  0  0  0  0  0  0  0  0
    2.8613    0.9057    0.6557 H   0  0  0  0  0  0  0  0  0  0  0  0
    1.3252   -2.1324   -0.9388 H   0  0  0  0  0  0  0  0  0  0  0  0
   -1.3458   -1.7884   -1.2784 H   0  0  0  0  0  0  0  0  0  0  0  0
   -2.3902    1.6888   -0.4333 H   0  0  0  0  0  0  0  0  0  0  0  0
   -3.1047    0.4947    0.6904 H   0  0  0  0  0  0  0  0  0  0  0  0
   -3.0093    0.0687   -1.0293 H   0  0  0  0  0  0  0  0  0  0  0  0
    0.2773    1.2121    1.1171 H   0  0  0  0  0  0  0  0  0  0  0  0
    0.0269    1.5684   -0.6735 H   0  0  0  0  0  0  0  0  0  0  0  0
  1  2  1  0
  2  3  2  0
  3  4  1  0
  4  5  1  0
  5  6  1  0
  6  7  1  0
  6  8  1  0
  8  2  1  0
  6  4  1  0
  1  9  1  0
  1 10  1  0
  1 11  1  0
  3 12  1  0
  4 13  1  0
  7 14  1  0
  7 15  1  0
  7 16  1  0
  8 17  1  0
  8 18  1  0
M  END
