
     RDKit          3D

 19 19  0  0  0  0  0  0  0  0999 V2000
   -2.2054   -0.4995   -0.3770 C   0  0  0  0  0  0  0  0  0  0  0  0
   -0.8581   -0.0323    0.0434 C   0  0  0  0  0  0  0  0  0  0  0  0
   -0.6206    1.2388   -0.2547 C   0  0  0  0  0  0  0  0  0  0  0  0
    0.6352    2.0128    0.0313 C   0  0  0  0  0  0  0  0  0  0  0  0
    1.6679    1.2911   -0.6461 O   0  0  0  0  0  0  0  0  0  0  0  0
    1.9614   -0.0526   -0.4536 C   0  0  0  0  0  0  0  0  0  0  0  0
    3.0349   -0.3747   -1.0590 O   0  0  0  0  0  0  0  0  0  0  0  0
    1.3577   -1.1702    0.2573 C   0  0  0  0  0  0  0  0  0  0  0  0
   -0.0451   -1.0410    0.7025 C   0  0  0  0  0  0  0  0  0  0  0  0
   -2.8790    0.3298   -0.6626 H   0  0  0  0  0  0  0  0  0  0  0  0
   -2.1736   -1.2541   -1.1710 H   0  0  0  0  0  0  0  0  0  0  0  0
   -2.7148   -0.9999    0.4969 H   0  0  0  0  0  0  0  0  0  0  0  0
   -1.4344    1.7467   -0.7560 H   0  0  0  0  0  0  0  0  0  0  0  0
    0.5436    3.0203   -0.4220 H   0  0  0  0  0  0  0  0  0  0  0  0
    0.8437    2.1091    1.0945 H   0  0  0  0  0  0  0  0  0  0  0  0
    1.9991   -1.3829    1.1609 H   0  0  0  0  0  0  0  0  0  0  0  0
    1.5018   -2.0865   -0.3885 H   0  0  0  0  0  0  0  0  0  0  0  0
   -0.5256   -2.0344    0.5918 H   0  0  0  0  0  0  0  0  0  0  0  0
   -0.0888   -0.8205    1.8117 H   0  0  0  0  0  0  0  0  0  0  0  0
  1  2  1  0
  2  3  2  0
  3  4  1  0
  4  5  1  0
  5  6  1  0
  6  7  2  0
  6  8  1  0
  8  9  1  0
  9  2  1  0
  1 10  1  0
  1 11  1  0
  1 12  1  0
  3 13  1  0
  4 14  1  0
  4 15  1  0
  8 16  1  0
  8 17  1  0
  9 18  1  0
  9 19  1  0
M  END
