
     RDKit          3D

 19 19  0  0  0  0  0  0  0  0999 V2000
    2.6610   -0.0797    0.3422 C   0  0  0  0  0  0  0  0  0  0  0  0
    1.1597    0.0282    0.2313 C   0  0  0  0  0  0  0  0  0  0  0  0
    0.3821   -0.5779    1.1292 C   0  0  0  0  0  0  0  0  0  0  0  0
   -1.1059   -0.4996    1.0606 C   0  0  0  0  0  0  0  0  0  0  0  0
   -1.4821   -0.4169   -0.4101 C   0  0  0  0  0  0  0  0  0  0  0  0
   -2.8584   -0.4618   -0.5978 O   0  0  0  0  0  0  0  0  0  0  0  0
   -0.9045    0.9289   -0.8695 C   0  0  0  0  0  0  0  0  0  0  0  0
    0.5584    0.7827   -0.8396 C   0  0  0  0  0  0  0  0  0  0  0  0
    1.2465    1.3062   -1.7286 O   0  0  0  0  0  0  0  0  0  0  0  0
    2.9251    0.5829    1.2138 H   0  0  0  0  0  0  0  0  0  0  0  0
    3.1063    0.2572   -0.5995 H   0  0  0  0  0  0  0  0  0  0  0  0
    2.9642   -1.1193    0.5603 H   0  0  0  0  0  0  0  0  0  0  0  0
    0.8546   -1.1334    1.9169 H   0  0  0  0  0  0  0  0  0  0  0  0
   -1.4921    0.4459    1.5196 H   0  0  0  0  0  0  0  0  0  0  0  0
   -1.5737   -1.3738    1.5520 H   0  0  0  0  0  0  0  0  0  0  0  0
   -0.9426   -1.2137   -0.9580 H   0  0  0  0  0  0  0  0  0  0  0  0
   -3.0330   -0.3959   -1.5502 H   0  0  0  0  0  0  0  0  0  0  0  0
   -1.3001    1.2153   -1.8626 H   0  0  0  0  0  0  0  0  0  0  0  0
   -1.1656    1.7248   -0.1101 H   0  0  0  0  0  0  0  0  0  0  0  0
  1  2  1  0
  2  3  2  0
  3  4  1  0
  4  5  1  0
  5  6  1  0
  5  7  1  0
  7  8  1  0
  8  9  2  0
  8  2  1  0
  1 10  1  0
  1 11  1  0
  1 12  1  0
  3 13  1  0
  4 14  1  0
  4 15  1  0
  5 16  1  0
  6 17  1  0
  7 18  1  0
  7 19  1  0
M  END
