
     RDKit          3D

 20 21  0  0  0  0  0  0  0  0999 V2000
    2.3086   -0.2207    0.2189 C   0  0  0  0  0  0  0  0  0  0  0  0
    0.8590   -0.2767   -0.1194 C   0  0  0  0  0  0  0  0  0  0  0  0
   -0.0339    0.7083   -0.0248 C   0  0  0  0  0  0  0  0  0  0  0  0
    0.2178    2.1127    0.4523 C   0  0  0  0  0  0  0  0  0  0  0  0
   -1.2889    0.1876   -0.4993 C   0  0  0  0  0  0  0  0  0  0  0  0
   -2.3569   -0.5610    0.0041 C   0  0  0  0  0  0  0  0  0  0  0  0
   -1.1406   -1.2110    0.1940 C   0  0  0  0  0  0  0  0  0  0  0  0
    0.0898   -1.5019   -0.6148 C   0  0  0  0  0  0  0  0  0  0  0  0
    2.8087    0.6496   -0.2684 H   0  0  0  0  0  0  0  0  0  0  0  0
    2.8030   -1.1288   -0.1722 H   0  0  0  0  0  0  0  0  0  0  0  0
    2.4322   -0.0777    1.3045 H   0  0  0  0  0  0  0  0  0  0  0  0
    0.3613    2.1248    1.5564 H   0  0  0  0  0  0  0  0  0  0  0  0
    1.1028    2.4808   -0.0998 H   0  0  0  0  0  0  0  0  0  0  0  0
   -0.6235    2.7533    0.1898 H   0  0  0  0  0  0  0  0  0  0  0  0
   -1.2403    0.1801   -1.6408 H   0  0  0  0  0  0  0  0  0  0  0  0
   -3.1165   -1.0238   -0.6818 H   0  0  0  0  0  0  0  0  0  0  0  0
   -2.9259   -0.1189    0.8756 H   0  0  0  0  0  0  0  0  0  0  0  0
   -0.7808   -1.1954    1.2739 H   0  0  0  0  0  0  0  0  0  0  0  0
    0.5718   -2.4308   -0.2485 H   0  0  0  0  0  0  0  0  0  0  0  0
   -0.0478   -1.4502   -1.6998 H   0  0  0  0  0  0  0  0  0  0  0  0
  1  2  1  0
  2  3  2  0
  3  4  1  0
  3  5  1  0
  5  6  1  0
  6  7  1  0
  7  8  1  0
  8  2  1  0
  7  5  1  0
  1  9  1  0
  1 10  1  0
  1 11  1  0
  4 12  1  0
  4 13  1  0
  4 14  1  0
  5 15  1  0
  6 16  1  0
  6 17  1  0
  7 18  1  0
  8 19  1  0
  8 20  1  0
M  END
