
     RDKit          3D

 23 24  0  0  0  0  0  0  0  0999 V2000
   -0.1850    2.8650   -0.1087 C   0  0  0  0  0  0  0  0  0  0  0  0
    0.0696    1.3923   -0.3211 C   0  0  0  0  0  0  0  0  0  0  0  0
    1.2664    0.9319   -0.6249 C   0  0  0  0  0  0  0  0  0  0  0  0
    1.2205   -0.5184   -0.7706 C   0  0  0  0  0  0  0  0  0  0  0  0
    2.0874   -1.1156    0.3236 C   0  0  0  0  0  0  0  0  0  0  0  0
   -0.2073   -0.9011   -0.6508 C   0  0  0  0  0  0  0  0  0  0  0  0
   -0.9065   -0.7895    0.6948 C   0  0  0  0  0  0  0  0  0  0  0  0
   -2.1452   -1.6262    0.7970 C   0  0  0  0  0  0  0  0  0  0  0  0
   -0.9576    0.3657   -0.2154 C   0  0  0  0  0  0  0  0  0  0  0  0
   -1.2548    3.0941   -0.0552 H   0  0  0  0  0  0  0  0  0  0  0  0
    0.2383    3.4526   -0.9562 H   0  0  0  0  0  0  0  0  0  0  0  0
    0.2886    3.2295    0.8148 H   0  0  0  0  0  0  0  0  0  0  0  0
    2.1952    1.5347   -0.7578 H   0  0  0  0  0  0  0  0  0  0  0  0
    1.5655   -0.8368   -1.7786 H   0  0  0  0  0  0  0  0  0  0  0  0
    3.1027   -1.2919   -0.0779 H   0  0  0  0  0  0  0  0  0  0  0  0
    1.6509   -2.0299    0.7610 H   0  0  0  0  0  0  0  0  0  0  0  0
    2.1962   -0.3959    1.1818 H   0  0  0  0  0  0  0  0  0  0  0  0
   -0.6911   -1.4912   -1.4598 H   0  0  0  0  0  0  0  0  0  0  0  0
   -0.2337   -0.8075    1.5683 H   0  0  0  0  0  0  0  0  0  0  0  0
   -2.8581   -1.2938    1.5596 H   0  0  0  0  0  0  0  0  0  0  0  0
   -1.8671   -2.6980    1.0144 H   0  0  0  0  0  0  0  0  0  0  0  0
   -2.6774   -1.6748   -0.1844 H   0  0  0  0  0  0  0  0  0  0  0  0
   -1.8974    0.6049   -0.7539 H   0  0  0  0  0  0  0  0  0  0  0  0
  1  2  1  0
  2  3  2  0
  3  4  1  0
  4  5  1  0
  4  6  1  0
  6  7  1  0
  7  8  1  0
  7  9  1  0
  9  2  1  0
  9  6  1  0
  1 10  1  0
  1 11  1  0
  1 12  1  0
  3 13  1  0
  4 14  1  0
  5 15  1  0
  5 16  1  0
  5 17  1  0
  6 18  1  0
  7 19  1  0
  8 20  1  0
  8 21  1  0
  8 22  1  0
  9 23  1  0
M  END
