
     RDKit          3D

 21 21  0  0  0  0  0  0  0  0999 V2000
   -2.8453    0.6101    0.2852 C   0  0  0  0  0  0  0  0  0  0  0  0
   -1.5298   -0.0830    0.0425 C   0  0  0  0  0  0  0  0  0  0  0  0
   -1.3002   -1.1558   -0.6895 C   0  0  0  0  0  0  0  0  0  0  0  0
    0.1713   -1.5030   -0.6523 C   0  0  0  0  0  0  0  0  0  0  0  0
    0.7219   -0.0801   -0.4512 C   0  0  0  0  0  0  0  0  0  0  0  0
    2.1413   -0.1116    0.0392 C   0  0  0  0  0  0  0  0  0  0  0  0
    2.5873    1.2944    0.2039 C   0  0  0  0  0  0  0  0  0  0  0  0
    3.7321    1.5055    0.6012 O   0  0  0  0  0  0  0  0  0  0  0  0
   -0.2424    0.3579    0.6281 C   0  0  0  0  0  0  0  0  0  0  0  0
   -2.8064    1.0502    1.3036 H   0  0  0  0  0  0  0  0  0  0  0  0
   -3.0029    1.4468   -0.4137 H   0  0  0  0  0  0  0  0  0  0  0  0
   -3.6805   -0.1365    0.2624 H   0  0  0  0  0  0  0  0  0  0  0  0
   -2.0827   -1.6807   -1.2232 H   0  0  0  0  0  0  0  0  0  0  0  0
    0.3321   -2.1084    0.2464 H   0  0  0  0  0  0  0  0  0  0  0  0
    0.5116   -1.9401   -1.5878 H   0  0  0  0  0  0  0  0  0  0  0  0
    0.5949    0.4429   -1.4013 H   0  0  0  0  0  0  0  0  0  0  0  0
    2.1486   -0.5653    1.0586 H   0  0  0  0  0  0  0  0  0  0  0  0
    2.7915   -0.7199   -0.5857 H   0  0  0  0  0  0  0  0  0  0  0  0
    1.9453    2.1549   -0.0117 H   0  0  0  0  0  0  0  0  0  0  0  0
   -0.2046    1.4479    0.8074 H   0  0  0  0  0  0  0  0  0  0  0  0
    0.0167   -0.2261    1.5378 H   0  0  0  0  0  0  0  0  0  0  0  0
  1  2  1  0
  2  3  2  0
  3  4  1  0
  4  5  1  0
  5  6  1  0
  6  7  1  0
  7  8  2  0
  5  9  1  0
  9  2  1  0
  1 10  1  0
  1 11  1  0
  1 12  1  0
  3 13  1  0
  4 14  1  0
  4 15  1  0
  5 16  1  0
  6 17  1  0
  6 18  1  0
  7 19  1  0
  9 20  1  0
  9 21  1  0
M  END
