
     RDKit          3D

 19 20  0  0  0  0  0  0  0  0999 V2000
    2.2797    0.9336   -0.1101 C   0  0  0  0  0  0  0  0  0  0  0  0
    1.1277    0.0075   -0.0209 C   0  0  0  0  0  0  0  0  0  0  0  0
   -0.1251    0.3209    0.2233 C   0  0  0  0  0  0  0  0  0  0  0  0
   -1.4700    0.9124    0.5132 C   0  0  0  0  0  0  0  0  0  0  0  0
   -1.7976    2.0195   -0.2505 O   0  0  0  0  0  0  0  0  0  0  0  0
   -2.1254   -0.3492   -0.1031 C   0  0  0  0  0  0  0  0  0  0  0  0
   -0.8293   -1.0345    0.2617 C   0  0  0  0  0  0  0  0  0  0  0  0
   -0.1236   -1.6601   -0.7549 O   0  0  0  0  0  0  0  0  0  0  0  0
    1.1959   -1.4825   -0.2331 C   0  0  0  0  0  0  0  0  0  0  0  0
    2.3300    1.4737    0.8668 H   0  0  0  0  0  0  0  0  0  0  0  0
    3.2080    0.3817   -0.3266 H   0  0  0  0  0  0  0  0  0  0  0  0
    2.1568    1.7121   -0.8869 H   0  0  0  0  0  0  0  0  0  0  0  0
   -1.7269    1.0189    1.5658 H   0  0  0  0  0  0  0  0  0  0  0  0
   -1.2287    1.9985   -1.0797 H   0  0  0  0  0  0  0  0  0  0  0  0
   -2.9729   -0.6925    0.5166 H   0  0  0  0  0  0  0  0  0  0  0  0
   -2.2733   -0.2726   -1.1767 H   0  0  0  0  0  0  0  0  0  0  0  0
   -0.7909   -1.5080    1.2460 H   0  0  0  0  0  0  0  0  0  0  0  0
    1.2107   -2.0266    0.7113 H   0  0  0  0  0  0  0  0  0  0  0  0
    1.9548   -1.7530   -0.9621 H   0  0  0  0  0  0  0  0  0  0  0  0
  1  2  1  0
  2  3  2  0
  3  4  1  0
  4  5  1  0
  4  6  1  0
  6  7  1  0
  7  8  1  0
  8  9  1  0
  9  2  1  0
  7  3  1  0
  1 10  1  0
  1 11  1  0
  1 12  1  0
  4 13  1  0
  5 14  1  0
  6 15  1  0
  6 16  1  0
  7 17  1  0
  9 18  1  0
  9 19  1  0
M  END
