
     RDKit          3D

 18 19  0  0  0  0  0  0  0  0999 V2000
    2.4577    0.7576    0.5097 C   0  0  0  0  0  0  0  0  0  0  0  0
    1.1024    0.1470    0.5110 C   0  0  0  0  0  0  0  0  0  0  0  0
   -0.0058    0.8304    0.7207 C   0  0  0  0  0  0  0  0  0  0  0  0
   -1.1806   -0.0651    0.6576 C   0  0  0  0  0  0  0  0  0  0  0  0
   -2.2557    0.4916   -0.2565 C   0  0  0  0  0  0  0  0  0  0  0  0
   -0.6562   -1.3729    0.2069 C   0  0  0  0  0  0  0  0  0  0  0  0
    0.1079   -2.0510    1.1508 O   0  0  0  0  0  0  0  0  0  0  0  0
    0.8503   -1.2918    0.2742 C   0  0  0  0  0  0  0  0  0  0  0  0
    2.7372    0.8718   -0.5773 H   0  0  0  0  0  0  0  0  0  0  0  0
    2.4870    1.7408    0.9983 H   0  0  0  0  0  0  0  0  0  0  0  0
    3.2230    0.0915    0.9376 H   0  0  0  0  0  0  0  0  0  0  0  0
   -0.0928    1.9154    0.9190 H   0  0  0  0  0  0  0  0  0  0  0  0
   -1.5948   -0.1805    1.6972 H   0  0  0  0  0  0  0  0  0  0  0  0
   -1.9982    1.5124   -0.6288 H   0  0  0  0  0  0  0  0  0  0  0  0
   -2.3804   -0.2306   -1.0956 H   0  0  0  0  0  0  0  0  0  0  0  0
   -3.2050    0.5556    0.3014 H   0  0  0  0  0  0  0  0  0  0  0  0
   -1.0448   -1.8975   -0.6762 H   0  0  0  0  0  0  0  0  0  0  0  0
    1.4489   -1.8248   -0.4972 H   0  0  0  0  0  0  0  0  0  0  0  0
  1  2  1  0
  2  3  2  0
  3  4  1  0
  4  5  1  0
  4  6  1  0
  6  7  1  0
  7  8  1  0
  8  2  1  0
  8  6  1  0
  1  9  1  0
  1 10  1  0
  1 11  1  0
  3 12  1  0
  4 13  1  0
  5 14  1  0
  5 15  1  0
  5 16  1  0
  6 17  1  0
  8 18  1  0
M  END
