
     RDKit          3D

 21 22  0  0  0  0  0  0  0  0999 V2000
    2.7975    0.2189    0.2737 C   0  0  0  0  0  0  0  0  0  0  0  0
    1.3214    0.0501    0.3085 C   0  0  0  0  0  0  0  0  0  0  0  0
    0.5516    0.2393    1.3383 C   0  0  0  0  0  0  0  0  0  0  0  0
   -0.8423   -0.0284    0.9754 C   0  0  0  0  0  0  0  0  0  0  0  0
   -1.4165    1.1749    0.2292 C   0  0  0  0  0  0  0  0  0  0  0  0
   -1.9668    0.1555   -0.7780 C   0  0  0  0  0  0  0  0  0  0  0  0
   -0.8349   -0.7623   -0.3181 C   0  0  0  0  0  0  0  0  0  0  0  0
   -1.1336   -2.0950   -0.3130 O   0  0  0  0  0  0  0  0  0  0  0  0
    0.5208   -0.3671   -0.8563 C   0  0  0  0  0  0  0  0  0  0  0  0
    3.2243   -0.8177    0.2866 H   0  0  0  0  0  0  0  0  0  0  0  0
    3.1648    0.7998    1.1608 H   0  0  0  0  0  0  0  0  0  0  0  0
    3.1175    0.7498   -0.6715 H   0  0  0  0  0  0  0  0  0  0  0  0
    0.8694    0.5483    2.3258 H   0  0  0  0  0  0  0  0  0  0  0  0
   -1.4980   -0.4187    1.7711 H   0  0  0  0  0  0  0  0  0  0  0  0
   -2.2280    1.6800    0.7811 H   0  0  0  0  0  0  0  0  0  0  0  0
   -0.6734    1.8545   -0.1926 H   0  0  0  0  0  0  0  0  0  0  0  0
   -2.9237   -0.2199   -0.4157 H   0  0  0  0  0  0  0  0  0  0  0  0
   -1.8937    0.4858   -1.8203 H   0  0  0  0  0  0  0  0  0  0  0  0
   -1.6125   -2.3047   -1.1761 H   0  0  0  0  0  0  0  0  0  0  0  0
    0.4708    0.3737   -1.6607 H   0  0  0  0  0  0  0  0  0  0  0  0
    0.9855   -1.3170   -1.2484 H   0  0  0  0  0  0  0  0  0  0  0  0
  1  2  1  0
  2  3  2  0
  3  4  1  0
  4  5  1  0
  5  6  1  0
  6  7  1  0
  7  8  1  0
  7  9  1  0
  9  2  1  0
  7  4  1  0
  1 10  1  0
  1 11  1  0
  1 12  1  0
  3 13  1  0
  4 14  1  0
  5 15  1  0
  5 16  1  0
  6 17  1  0
  6 18  1  0
  8 19  1  0
  9 20  1  0
  9 21  1  0
M  END
