
     RDKit          3D

 18 18  0  0  0  0  0  0  0  0999 V2000
   -1.3562   -1.5694    0.2068 C   0  0  0  0  0  0  0  0  0  0  0  0
   -0.7644   -0.1809    0.0943 C   0  0  0  0  0  0  0  0  0  0  0  0
    0.4703    0.1401   -0.2282 C   0  0  0  0  0  0  0  0  0  0  0  0
    1.5795   -0.7661   -0.5584 C   0  0  0  0  0  0  0  0  0  0  0  0
    2.6655   -0.6348    0.3022 O   0  0  0  0  0  0  0  0  0  0  0  0
    0.5764    1.6230   -0.2081 C   0  0  0  0  0  0  0  0  0  0  0  0
   -0.7479    2.0883   -0.1640 O   0  0  0  0  0  0  0  0  0  0  0  0
   -1.5057    1.0606    0.3383 C   0  0  0  0  0  0  0  0  0  0  0  0
   -2.2332   -1.6679   -0.4966 H   0  0  0  0  0  0  0  0  0  0  0  0
   -1.7773   -1.6517    1.2244 H   0  0  0  0  0  0  0  0  0  0  0  0
   -0.6156   -2.3375   -0.0363 H   0  0  0  0  0  0  0  0  0  0  0  0
    1.2687   -1.8067   -0.6196 H   0  0  0  0  0  0  0  0  0  0  0  0
    1.9689   -0.4839   -1.5790 H   0  0  0  0  0  0  0  0  0  0  0  0
    2.5141    0.0425    1.0031 H   0  0  0  0  0  0  0  0  0  0  0  0
    1.1892    2.0052    0.6106 H   0  0  0  0  0  0  0  0  0  0  0  0
    0.9535    1.9231   -1.2241 H   0  0  0  0  0  0  0  0  0  0  0  0
   -2.5323    1.0558   -0.1006 H   0  0  0  0  0  0  0  0  0  0  0  0
   -1.6535    1.1601    1.4350 H   0  0  0  0  0  0  0  0  0  0  0  0
  1  2  1  0
  2  3  2  0
  3  4  1  0
  4  5  1  0
  3  6  1  0
  6  7  1  0
  7  8  1  0
  8  2  1  0
  1  9  1  0
  1 10  1  0
  1 11  1  0
  4 12  1  0
  4 13  1  0
  5 14  1  0
  6 15  1  0
  6 16  1  0
  8 17  1  0
  8 18  1  0
M  END
