
     RDKit          3D

 19 20  0  0  0  0  0  0  0  0999 V2000
    2.4002    0.2640    0.1876 C   0  0  0  0  0  0  0  0  0  0  0  0
    0.9884    0.0396   -0.2113 C   0  0  0  0  0  0  0  0  0  0  0  0
    0.4530   -0.2922   -1.3772 C   0  0  0  0  0  0  0  0  0  0  0  0
   -1.0090   -0.4526   -1.1865 C   0  0  0  0  0  0  0  0  0  0  0  0
   -1.5913    0.7893   -0.9394 O   0  0  0  0  0  0  0  0  0  0  0  0
   -1.0091    1.2895    0.2327 C   0  0  0  0  0  0  0  0  0  0  0  0
   -0.1489    0.1729    0.7596 C   0  0  0  0  0  0  0  0  0  0  0  0
   -0.9914   -1.0122    0.2516 C   0  0  0  0  0  0  0  0  0  0  0  0
   -2.2302   -1.0531    0.8054 O   0  0  0  0  0  0  0  0  0  0  0  0
    2.6402   -0.5059    0.9596 H   0  0  0  0  0  0  0  0  0  0  0  0
    2.5458    1.2491    0.6862 H   0  0  0  0  0  0  0  0  0  0  0  0
    3.0617    0.1271   -0.6863 H   0  0  0  0  0  0  0  0  0  0  0  0
    0.9829   -0.4221   -2.2975 H   0  0  0  0  0  0  0  0  0  0  0  0
   -1.5260   -1.0667   -1.8815 H   0  0  0  0  0  0  0  0  0  0  0  0
   -1.7739    1.6328    0.9530 H   0  0  0  0  0  0  0  0  0  0  0  0
   -0.3202    2.1179   -0.0533 H   0  0  0  0  0  0  0  0  0  0  0  0
    0.0904    0.1565    1.7827 H   0  0  0  0  0  0  0  0  0  0  0  0
   -0.4270   -1.9379    0.2241 H   0  0  0  0  0  0  0  0  0  0  0  0
   -2.1356   -1.0961    1.7906 H   0  0  0  0  0  0  0  0  0  0  0  0
  1  2  1  0
  2  3  2  0
  3  4  1  0
  4  5  1  0
  5  6  1  0
  6  7  1  0
  7  8  1  0
  8  9  1  0
  7  2  1  0
  8  4  1  0
  1 10  1  0
  1 11  1  0
  1 12  1  0
  3 13  1  0
  4 14  1  0
  6 15  1  0
  6 16  1  0
  7 17  1  0
  8 18  1  0
  9 19  1  0
M  END
