
     RDKit          3D

 20 21  0  0  0  0  0  0  0  0999 V2000
    2.2854    1.2058   -0.0190 C   0  0  0  0  0  0  0  0  0  0  0  0
    1.1406    0.2275   -0.1102 C   0  0  0  0  0  0  0  0  0  0  0  0
    0.3219    0.0739   -1.1319 C   0  0  0  0  0  0  0  0  0  0  0  0
   -0.6815   -0.9832   -0.8619 C   0  0  0  0  0  0  0  0  0  0  0  0
   -1.7201   -0.6470    0.1570 C   0  0  0  0  0  0  0  0  0  0  0  0
   -1.9097    0.8193    0.4327 C   0  0  0  0  0  0  0  0  0  0  0  0
   -0.5165   -1.3740    0.5587 C   0  0  0  0  0  0  0  0  0  0  0  0
    0.7552   -0.7278    0.9554 C   0  0  0  0  0  0  0  0  0  0  0  0
    2.9130    1.1616   -0.9421 H   0  0  0  0  0  0  0  0  0  0  0  0
    2.9320    0.9283    0.8150 H   0  0  0  0  0  0  0  0  0  0  0  0
    1.9093    2.2501    0.0349 H   0  0  0  0  0  0  0  0  0  0  0  0
    0.4105    0.6785   -2.0508 H   0  0  0  0  0  0  0  0  0  0  0  0
   -0.8328   -1.7827   -1.5988 H   0  0  0  0  0  0  0  0  0  0  0  0
   -2.6603   -1.2058    0.0592 H   0  0  0  0  0  0  0  0  0  0  0  0
   -2.3895    1.0035    1.4191 H   0  0  0  0  0  0  0  0  0  0  0  0
   -0.9807    1.4142    0.3084 H   0  0  0  0  0  0  0  0  0  0  0  0
   -2.6200    1.2077   -0.3424 H   0  0  0  0  0  0  0  0  0  0  0  0
   -0.6672   -2.4455    0.8670 H   0  0  0  0  0  0  0  0  0  0  0  0
    1.5549   -1.5253    0.9591 H   0  0  0  0  0  0  0  0  0  0  0  0
    0.7557   -0.2791    1.9610 H   0  0  0  0  0  0  0  0  0  0  0  0
  1  2  1  0
  2  3  2  0
  3  4  1  0
  4  5  1  0
  5  6  1  0
  5  7  1  0
  7  8  1  0
  8  2  1  0
  7  4  1  0
  1  9  1  0
  1 10  1  0
  1 11  1  0
  3 12  1  0
  4 13  1  0
  5 14  1  0
  6 15  1  0
  6 16  1  0
  6 17  1  0
  7 18  1  0
  8 19  1  0
  8 20  1  0
M  END
