
     RDKit          3D

 15 15  0  0  0  0  0  0  0  0999 V2000
    2.0759    0.2129    0.3171 C   0  0  0  0  0  0  0  0  0  0  0  0
    0.5995    0.0866    0.0459 C   0  0  0  0  0  0  0  0  0  0  0  0
   -0.2411    1.1063    0.0992 C   0  0  0  0  0  0  0  0  0  0  0  0
   -1.6407    0.6454   -0.2228 C   0  0  0  0  0  0  0  0  0  0  0  0
   -1.5175   -0.8081    0.0830 C   0  0  0  0  0  0  0  0  0  0  0  0
   -2.3305   -1.5805    0.5496 O   0  0  0  0  0  0  0  0  0  0  0  0
   -0.1296   -1.1586   -0.3134 C   0  0  0  0  0  0  0  0  0  0  0  0
    2.5426    0.9296   -0.3648 H   0  0  0  0  0  0  0  0  0  0  0  0
    2.1877    0.5799    1.3741 H   0  0  0  0  0  0  0  0  0  0  0  0
    2.5634   -0.7769    0.2373 H   0  0  0  0  0  0  0  0  0  0  0  0
   -0.0557    2.1508    0.3289 H   0  0  0  0  0  0  0  0  0  0  0  0
   -1.8322    0.7283   -1.3156 H   0  0  0  0  0  0  0  0  0  0  0  0
   -2.3927    1.1563    0.3947 H   0  0  0  0  0  0  0  0  0  0  0  0
   -0.1010   -1.2363   -1.4175 H   0  0  0  0  0  0  0  0  0  0  0  0
    0.2719   -2.0356    0.2044 H   0  0  0  0  0  0  0  0  0  0  0  0
  1  2  1  0
  2  3  2  0
  3  4  1  0
  4  5  1  0
  5  6  2  0
  5  7  1  0
  7  2  1  0
  1  8  1  0
  1  9  1  0
  1 10  1  0
  3 11  1  0
  4 12  1  0
  4 13  1  0
  7 14  1  0
  7 15  1  0
M  END
