
     RDKit          3D

 21 22  0  0  0  0  0  0  0  0999 V2000
   -1.4835   -1.6959    0.5332 C   0  0  0  0  0  0  0  0  0  0  0  0
   -1.2219   -0.3255    0.0201 C   0  0  0  0  0  0  0  0  0  0  0  0
   -2.0645    0.6016   -0.4236 C   0  0  0  0  0  0  0  0  0  0  0  0
   -1.2180    1.7905   -0.8101 C   0  0  0  0  0  0  0  0  0  0  0  0
   -0.0074    1.1490   -1.1373 O   0  0  0  0  0  0  0  0  0  0  0  0
    0.1124    0.2642   -0.0851 C   0  0  0  0  0  0  0  0  0  0  0  0
    0.9001    0.6897    1.0874 C   0  0  0  0  0  0  0  0  0  0  0  0
    1.3079   -0.4753    0.2495 C   0  0  0  0  0  0  0  0  0  0  0  0
    2.5268   -0.4124   -0.6289 C   0  0  0  0  0  0  0  0  0  0  0  0
   -1.2490   -2.4774   -0.2383 H   0  0  0  0  0  0  0  0  0  0  0  0
   -2.5407   -1.8262    0.8432 H   0  0  0  0  0  0  0  0  0  0  0  0
   -0.7846   -1.8781    1.3666 H   0  0  0  0  0  0  0  0  0  0  0  0
   -3.1399    0.4920   -0.4823 H   0  0  0  0  0  0  0  0  0  0  0  0
   -1.6475    2.3424   -1.6417 H   0  0  0  0  0  0  0  0  0  0  0  0
   -1.0561    2.3690    0.1117 H   0  0  0  0  0  0  0  0  0  0  0  0
    1.4146    1.6676    1.0065 H   0  0  0  0  0  0  0  0  0  0  0  0
    0.5113    0.5143    2.1285 H   0  0  0  0  0  0  0  0  0  0  0  0
    1.1917   -1.4633    0.7632 H   0  0  0  0  0  0  0  0  0  0  0  0
    2.9109    0.6040   -0.7408 H   0  0  0  0  0  0  0  0  0  0  0  0
    2.2235   -0.7903   -1.6441 H   0  0  0  0  0  0  0  0  0  0  0  0
    3.3138   -1.1400   -0.2775 H   0  0  0  0  0  0  0  0  0  0  0  0
  1  2  1  0
  2  3  2  0
  3  4  1  0
  4  5  1  0
  5  6  1  0
  6  7  1  0
  7  8  1  0
  8  9  1  0
  6  2  1  0
  8  6  1  0
  1 10  1  0
  1 11  1  0
  1 12  1  0
  3 13  1  0
  4 14  1  0
  4 15  1  0
  7 16  1  0
  7 17  1  0
  8 18  1  0
  9 19  1  0
  9 20  1  0
  9 21  1  0
M  END
