
     RDKit          3D

 23 23  0  0  0  0  0  0  0  0999 V2000
    2.6957    0.1086    0.3223 C   0  0  0  0  0  0  0  0  0  0  0  0
    1.2436    0.2106   -0.0852 C   0  0  0  0  0  0  0  0  0  0  0  0
    0.6840    1.3135    0.4038 C   0  0  0  0  0  0  0  0  0  0  0  0
   -0.7315    1.7224    0.1945 C   0  0  0  0  0  0  0  0  0  0  0  0
   -1.5463    0.6527   -0.4443 C   0  0  0  0  0  0  0  0  0  0  0  0
   -1.3987   -0.6038    0.3866 C   0  0  0  0  0  0  0  0  0  0  0  0
   -2.6282   -1.2489    0.5561 O   0  0  0  0  0  0  0  0  0  0  0  0
   -0.5070   -1.5439   -0.3832 C   0  0  0  0  0  0  0  0  0  0  0  0
    0.7317   -0.8801   -0.9131 C   0  0  0  0  0  0  0  0  0  0  0  0
    3.1951   -0.6676   -0.2847 H   0  0  0  0  0  0  0  0  0  0  0  0
    3.1778    1.0833    0.1272 H   0  0  0  0  0  0  0  0  0  0  0  0
    2.6844   -0.1203    1.4003 H   0  0  0  0  0  0  0  0  0  0  0  0
    1.2923    1.9812    1.0063 H   0  0  0  0  0  0  0  0  0  0  0  0
   -0.7960    2.6484   -0.4289 H   0  0  0  0  0  0  0  0  0  0  0  0
   -1.2052    1.9871    1.1708 H   0  0  0  0  0  0  0  0  0  0  0  0
   -2.6014    1.0003   -0.4837 H   0  0  0  0  0  0  0  0  0  0  0  0
   -1.1708    0.5107   -1.4827 H   0  0  0  0  0  0  0  0  0  0  0  0
   -0.9032   -0.3928    1.3649 H   0  0  0  0  0  0  0  0  0  0  0  0
   -2.8790   -1.1701    1.5040 H   0  0  0  0  0  0  0  0  0  0  0  0
   -0.2831   -2.4070    0.2778 H   0  0  0  0  0  0  0  0  0  0  0  0
   -1.0976   -1.9482   -1.2320 H   0  0  0  0  0  0  0  0  0  0  0  0
    1.5010   -1.6775   -0.9963 H   0  0  0  0  0  0  0  0  0  0  0  0
    0.5426   -0.5586   -1.9806 H   0  0  0  0  0  0  0  0  0  0  0  0
  1  2  1  0
  2  3  2  0
  3  4  1  0
  4  5  1  0
  5  6  1  0
  6  7  1  0
  6  8  1  0
  8  9  1  0
  9  2  1  0
  1 10  1  0
  1 11  1  0
  1 12  1  0
  3 13  1  0
  4 14  1  0
  4 15  1  0
  5 16  1  0
  5 17  1  0
  6 18  1  0
  7 19  1  0
  8 20  1  0
  8 21  1  0
  9 22  1  0
  9 23  1  0
M  END
