
     RDKit          3D

 21 21  0  0  0  0  0  0  0  0999 V2000
   -2.4160    1.1156   -0.0756 C   0  0  0  0  0  0  0  0  0  0  0  0
   -1.0273    0.5858    0.0650 C   0  0  0  0  0  0  0  0  0  0  0  0
   -0.1136    1.5643    0.0645 C   0  0  0  0  0  0  0  0  0  0  0  0
    1.3410    1.5256    0.1757 C   0  0  0  0  0  0  0  0  0  0  0  0
    2.2944    0.6078    0.2765 C   0  0  0  0  0  0  0  0  0  0  0  0
    2.1856   -0.8534    0.3139 C   0  0  0  0  0  0  0  0  0  0  0  0
    1.2749   -1.7445   -0.0557 C   0  0  0  0  0  0  0  0  0  0  0  0
   -0.0488   -1.5814   -0.6809 C   0  0  0  0  0  0  0  0  0  0  0  0
   -1.0476   -0.8633    0.1653 C   0  0  0  0  0  0  0  0  0  0  0  0
   -2.4280    2.2321    0.0579 H   0  0  0  0  0  0  0  0  0  0  0  0
   -2.9966    0.7025    0.7787 H   0  0  0  0  0  0  0  0  0  0  0  0
   -2.8731    0.8480   -1.0361 H   0  0  0  0  0  0  0  0  0  0  0  0
   -0.5462    2.5503   -0.0368 H   0  0  0  0  0  0  0  0  0  0  0  0
    1.7783    2.5340    0.1773 H   0  0  0  0  0  0  0  0  0  0  0  0
    3.3059    0.9709    0.3423 H   0  0  0  0  0  0  0  0  0  0  0  0
    3.0752   -1.3329    0.7561 H   0  0  0  0  0  0  0  0  0  0  0  0
    1.5688   -2.7858    0.1436 H   0  0  0  0  0  0  0  0  0  0  0  0
   -0.4653   -2.5778   -0.9305 H   0  0  0  0  0  0  0  0  0  0  0  0
    0.0405   -1.0460   -1.6697 H   0  0  0  0  0  0  0  0  0  0  0  0
   -0.8521   -1.1835    1.2307 H   0  0  0  0  0  0  0  0  0  0  0  0
   -2.0500   -1.2684   -0.0622 H   0  0  0  0  0  0  0  0  0  0  0  0
  1  2  1  0
  2  3  2  3
  3  4  1  0
  4  5  2  3
  5  6  1  0
  6  7  2  3
  7  8  1  0
  8  9  1  0
  9  2  1  0
  1 10  1  0
  1 11  1  0
  1 12  1  0
  3 13  1  0
  4 14  1  0
  5 15  1  0
  6 16  1  0
  7 17  1  0
  8 18  1  0
  8 19  1  0
  9 20  1  0
  9 21  1  0
M  END
