
     RDKit          3D

 21 22  0  0  0  0  0  0  0  0999 V2000
    2.5017   -0.0912    0.3616 C   0  0  0  0  0  0  0  0  0  0  0  0
    1.0892    0.1529   -0.0379 C   0  0  0  0  0  0  0  0  0  0  0  0
    0.7897    1.4657   -0.0147 C   0  0  0  0  0  0  0  0  0  0  0  0
   -0.5209    2.0099   -0.3578 C   0  0  0  0  0  0  0  0  0  0  0  0
   -1.6850    1.3937   -0.2778 C   0  0  0  0  0  0  0  0  0  0  0  0
   -1.9410    0.0289    0.1702 C   0  0  0  0  0  0  0  0  0  0  0  0
   -1.0990   -1.0490   -0.3198 C   0  0  0  0  0  0  0  0  0  0  0  0
   -0.2665   -1.7707    0.7910 C   0  0  0  0  0  0  0  0  0  0  0  0
    0.3097   -1.0166   -0.3734 C   0  0  0  0  0  0  0  0  0  0  0  0
    2.5783   -0.5155    1.3756 H   0  0  0  0  0  0  0  0  0  0  0  0
    2.8747   -0.8954   -0.3387 H   0  0  0  0  0  0  0  0  0  0  0  0
    3.1493    0.7819    0.1850 H   0  0  0  0  0  0  0  0  0  0  0  0
    1.5512    2.1691    0.2689 H   0  0  0  0  0  0  0  0  0  0  0  0
   -0.5302    3.0501   -0.7224 H   0  0  0  0  0  0  0  0  0  0  0  0
   -2.5060    2.0394   -0.5997 H   0  0  0  0  0  0  0  0  0  0  0  0
   -1.9665    0.0666    1.3028 H   0  0  0  0  0  0  0  0  0  0  0  0
   -3.0314   -0.1644   -0.0738 H   0  0  0  0  0  0  0  0  0  0  0  0
   -1.6248   -1.8097   -0.9762 H   0  0  0  0  0  0  0  0  0  0  0  0
   -0.2476   -1.2881    1.7833 H   0  0  0  0  0  0  0  0  0  0  0  0
   -0.2586   -2.8562    0.8052 H   0  0  0  0  0  0  0  0  0  0  0  0
    0.8336   -1.7014   -1.1058 H   0  0  0  0  0  0  0  0  0  0  0  0
  1  2  1  0
  2  3  2  0
  3  4  1  0
  4  5  2  0
  5  6  1  0
  6  7  1  0
  7  8  1  0
  8  9  1  0
  9  2  1  0
  9  7  1  0
  1 10  1  0
  1 11  1  0
  1 12  1  0
  3 13  1  0
  4 14  1  0
  5 15  1  0
  6 16  1  0
  6 17  1  0
  7 18  1  0
  8 19  1  0
  8 20  1  0
  9 21  1  0
M  END
