
     RDKit          3D

 21 22  0  0  0  0  0  0  0  0999 V2000
    2.5229    0.1950    0.1117 C   0  0  0  0  0  0  0  0  0  0  0  0
    1.0843   -0.1723    0.0640 C   0  0  0  0  0  0  0  0  0  0  0  0
    0.4105   -0.6170    1.1049 C   0  0  0  0  0  0  0  0  0  0  0  0
   -1.0645   -0.7284    1.1398 C   0  0  0  0  0  0  0  0  0  0  0  0
   -1.6344   -0.9324   -0.2666 C   0  0  0  0  0  0  0  0  0  0  0  0
   -1.0633    0.3350   -0.9153 C   0  0  0  0  0  0  0  0  0  0  0  0
   -1.0882    1.2900    0.2570 C   0  0  0  0  0  0  0  0  0  0  0  0
   -1.5356    0.5868    1.3678 O   0  0  0  0  0  0  0  0  0  0  0  0
    0.3798   -0.0179   -1.2619 C   0  0  0  0  0  0  0  0  0  0  0  0
    2.6445    1.3092   -0.0183 H   0  0  0  0  0  0  0  0  0  0  0  0
    3.1035   -0.2843   -0.7022 H   0  0  0  0  0  0  0  0  0  0  0  0
    2.9886   -0.0617    1.0662 H   0  0  0  0  0  0  0  0  0  0  0  0
    0.9603   -0.9161    1.9781 H   0  0  0  0  0  0  0  0  0  0  0  0
   -1.4375   -1.4436    1.8594 H   0  0  0  0  0  0  0  0  0  0  0  0
   -1.2683   -1.8433   -0.7375 H   0  0  0  0  0  0  0  0  0  0  0  0
   -2.7149   -0.8200   -0.1997 H   0  0  0  0  0  0  0  0  0  0  0  0
   -1.6413    0.6656   -1.7709 H   0  0  0  0  0  0  0  0  0  0  0  0
   -0.0762    1.6720    0.5039 H   0  0  0  0  0  0  0  0  0  0  0  0
   -1.8000    2.0953    0.0227 H   0  0  0  0  0  0  0  0  0  0  0  0
    0.8443    0.7356   -1.8923 H   0  0  0  0  0  0  0  0  0  0  0  0
    0.3854   -1.0474   -1.7106 H   0  0  0  0  0  0  0  0  0  0  0  0
  1  2  1  0
  2  3  2  0
  3  4  1  0
  4  5  1  0
  5  6  1  0
  6  7  1  0
  7  8  1  0
  6  9  1  0
  9  2  1  0
  8  4  1  0
  1 10  1  0
  1 11  1  0
  1 12  1  0
  3 13  1  0
  4 14  1  0
  5 15  1  0
  5 16  1  0
  6 17  1  0
  7 18  1  0
  7 19  1  0
  9 20  1  0
  9 21  1  0
M  END
