
     RDKit          3D

 21 22  0  0  0  0  0  0  0  0999 V2000
   -2.1751   -1.1985   -0.2556 C   0  0  0  0  0  0  0  0  0  0  0  0
   -0.8710   -0.4853   -0.1741 C   0  0  0  0  0  0  0  0  0  0  0  0
   -0.6678    0.7926    0.1239 C   0  0  0  0  0  0  0  0  0  0  0  0
   -1.7185    1.8003    0.4452 C   0  0  0  0  0  0  0  0  0  0  0  0
    0.7835    1.1203    0.1006 C   0  0  0  0  0  0  0  0  0  0  0  0
    1.3835    1.0485   -1.1277 O   0  0  0  0  0  0  0  0  0  0  0  0
    1.4893   -0.1081   -0.3718 C   0  0  0  0  0  0  0  0  0  0  0  0
    2.8764   -0.4202    0.1203 C   0  0  0  0  0  0  0  0  0  0  0  0
    0.4394   -1.1588   -0.4322 C   0  0  0  0  0  0  0  0  0  0  0  0
   -2.9148   -0.7916    0.4655 H   0  0  0  0  0  0  0  0  0  0  0  0
   -2.6145   -1.1950   -1.2586 H   0  0  0  0  0  0  0  0  0  0  0  0
   -2.0291   -2.2733    0.0576 H   0  0  0  0  0  0  0  0  0  0  0  0
   -1.4974    2.7457   -0.0921 H   0  0  0  0  0  0  0  0  0  0  0  0
   -1.6694    2.0053    1.5464 H   0  0  0  0  0  0  0  0  0  0  0  0
   -2.7393    1.4185    0.1856 H   0  0  0  0  0  0  0  0  0  0  0  0
    1.2100    1.7314    0.9147 H   0  0  0  0  0  0  0  0  0  0  0  0
    3.1739    0.3434    0.8897 H   0  0  0  0  0  0  0  0  0  0  0  0
    2.8895   -1.4200    0.6155 H   0  0  0  0  0  0  0  0  0  0  0  0
    3.5879   -0.3545   -0.7255 H   0  0  0  0  0  0  0  0  0  0  0  0
    0.6326   -1.8972    0.3696 H   0  0  0  0  0  0  0  0  0  0  0  0
    0.4310   -1.7035   -1.3969 H   0  0  0  0  0  0  0  0  0  0  0  0
  1  2  1  0
  2  3  2  0
  3  4  1  0
  3  5  1  0
  5  6  1  0
  6  7  1  0
  7  8  1  0
  7  9  1  0
  9  2  1  0
  7  5  1  0
  1 10  1  0
  1 11  1  0
  1 12  1  0
  4 13  1  0
  4 14  1  0
  4 15  1  0
  5 16  1  0
  8 17  1  0
  8 18  1  0
  8 19  1  0
  9 20  1  0
  9 21  1  0
M  END
