
     RDKit          3D

 21 22  0  0  0  0  0  0  0  0999 V2000
    2.6371   -0.8139   -0.6582 C   0  0  0  0  0  0  0  0  0  0  0  0
    1.3687   -0.2045   -0.1083 C   0  0  0  0  0  0  0  0  0  0  0  0
    0.7384   -0.5479    0.9909 C   0  0  0  0  0  0  0  0  0  0  0  0
   -0.4707    0.2187    1.2778 C   0  0  0  0  0  0  0  0  0  0  0  0
   -0.5097    1.1935    0.1392 C   0  0  0  0  0  0  0  0  0  0  0  0
    0.6264    0.9009   -0.7455 C   0  0  0  0  0  0  0  0  0  0  0  0
   -1.6293    0.2742    0.3751 C   0  0  0  0  0  0  0  0  0  0  0  0
   -1.8409   -0.9493   -0.4949 C   0  0  0  0  0  0  0  0  0  0  0  0
   -2.7910    0.8250    0.8671 O   0  0  0  0  0  0  0  0  0  0  0  0
    2.4247   -1.5707   -1.4161 H   0  0  0  0  0  0  0  0  0  0  0  0
    3.1909    0.0151   -1.1470 H   0  0  0  0  0  0  0  0  0  0  0  0
    3.2696   -1.2191    0.1316 H   0  0  0  0  0  0  0  0  0  0  0  0
    1.1012   -1.3589    1.6471 H   0  0  0  0  0  0  0  0  0  0  0  0
   -0.6250    0.5838    2.3159 H   0  0  0  0  0  0  0  0  0  0  0  0
   -0.6662    2.2760    0.3639 H   0  0  0  0  0  0  0  0  0  0  0  0
    1.3233    1.7808   -0.8412 H   0  0  0  0  0  0  0  0  0  0  0  0
    0.3243    0.6360   -1.7824 H   0  0  0  0  0  0  0  0  0  0  0  0
   -2.8310   -0.8625   -1.0026 H   0  0  0  0  0  0  0  0  0  0  0  0
   -1.0600   -1.0962   -1.2426 H   0  0  0  0  0  0  0  0  0  0  0  0
   -1.9068   -1.8476    0.1545 H   0  0  0  0  0  0  0  0  0  0  0  0
   -2.6739    1.7668    1.1758 H   0  0  0  0  0  0  0  0  0  0  0  0
  1  2  1  0
  2  3  2  0
  3  4  1  0
  4  5  1  0
  5  6  1  0
  5  7  1  0
  7  8  1  0
  7  9  1  0
  6  2  1  0
  7  4  1  0
  1 10  1  0
  1 11  1  0
  1 12  1  0
  3 13  1  0
  4 14  1  0
  5 15  1  0
  6 16  1  0
  6 17  1  0
  8 18  1  0
  8 19  1  0
  8 20  1  0
  9 21  1  0
M  END
