
     RDKit          3D

 23 24  0  0  0  0  0  0  0  0999 V2000
    3.2270   -0.6821   -0.1664 C   0  0  0  0  0  0  0  0  0  0  0  0
    1.8365   -0.1284   -0.1031 C   0  0  0  0  0  0  0  0  0  0  0  0
    1.4998    1.1475   -0.1747 C   0  0  0  0  0  0  0  0  0  0  0  0
    0.0069    1.2983   -0.0726 C   0  0  0  0  0  0  0  0  0  0  0  0
   -0.3163    0.0263    0.7128 C   0  0  0  0  0  0  0  0  0  0  0  0
   -1.7579   -0.3446    0.6376 C   0  0  0  0  0  0  0  0  0  0  0  0
   -2.4315   -0.6368   -0.6363 C   0  0  0  0  0  0  0  0  0  0  0  0
   -2.7003    0.6605    0.0622 C   0  0  0  0  0  0  0  0  0  0  0  0
    0.6087   -0.9549    0.0513 C   0  0  0  0  0  0  0  0  0  0  0  0
    3.8803   -0.0642   -0.8256 H   0  0  0  0  0  0  0  0  0  0  0  0
    3.7171   -0.6831    0.8350 H   0  0  0  0  0  0  0  0  0  0  0  0
    3.1770   -1.7338   -0.4972 H   0  0  0  0  0  0  0  0  0  0  0  0
    2.1750    1.9921   -0.2905 H   0  0  0  0  0  0  0  0  0  0  0  0
   -0.2714    2.2072    0.4976 H   0  0  0  0  0  0  0  0  0  0  0  0
   -0.4088    1.2805   -1.0851 H   0  0  0  0  0  0  0  0  0  0  0  0
    0.0062    0.1946    1.7427 H   0  0  0  0  0  0  0  0  0  0  0  0
   -2.1441   -0.8161    1.5876 H   0  0  0  0  0  0  0  0  0  0  0  0
   -3.2223   -1.4377   -0.5784 H   0  0  0  0  0  0  0  0  0  0  0  0
   -1.8256   -0.6174   -1.5575 H   0  0  0  0  0  0  0  0  0  0  0  0
   -3.7094    0.8000    0.5090 H   0  0  0  0  0  0  0  0  0  0  0  0
   -2.2917    1.5873   -0.3635 H   0  0  0  0  0  0  0  0  0  0  0  0
    0.7821   -1.8714    0.6483 H   0  0  0  0  0  0  0  0  0  0  0  0
    0.1628   -1.2237   -0.9331 H   0  0  0  0  0  0  0  0  0  0  0  0
  1  2  1  0
  2  3  2  0
  3  4  1  0
  4  5  1  0
  5  6  1  0
  6  7  1  0
  7  8  1  0
  5  9  1  0
  9  2  1  0
  8  6  1  0
  1 10  1  0
  1 11  1  0
  1 12  1  0
  3 13  1  0
  4 14  1  0
  4 15  1  0
  5 16  1  0
  6 17  1  0
  7 18  1  0
  7 19  1  0
  8 20  1  0
  8 21  1  0
  9 22  1  0
  9 23  1  0
M  END
