
     RDKit          3D

 23 23  0  0  0  0  0  0  0  0999 V2000
    1.3409    1.8623   -0.0345 C   0  0  0  0  0  0  0  0  0  0  0  0
    0.3763    0.7447   -0.3572 C   0  0  0  0  0  0  0  0  0  0  0  0
   -0.9093    1.0716   -0.4217 C   0  0  0  0  0  0  0  0  0  0  0  0
   -2.0682    0.1883   -0.7168 C   0  0  0  0  0  0  0  0  0  0  0  0
   -2.1923   -0.7890    0.4542 C   0  0  0  0  0  0  0  0  0  0  0  0
   -0.7892   -1.1753    0.8714 C   0  0  0  0  0  0  0  0  0  0  0  0
    0.0050   -1.5565   -0.1771 O   0  0  0  0  0  0  0  0  0  0  0  0
    0.9358   -0.6001   -0.5716 C   0  0  0  0  0  0  0  0  0  0  0  0
    2.2848   -0.8064    0.0416 C   0  0  0  0  0  0  0  0  0  0  0  0
    1.9860    2.1020   -0.8850 H   0  0  0  0  0  0  0  0  0  0  0  0
    1.9602    1.5500    0.8553 H   0  0  0  0  0  0  0  0  0  0  0  0
    0.7307    2.7127    0.3309 H   0  0  0  0  0  0  0  0  0  0  0  0
   -1.1670    2.1041   -0.2401 H   0  0  0  0  0  0  0  0  0  0  0  0
   -1.8509   -0.4561   -1.6084 H   0  0  0  0  0  0  0  0  0  0  0  0
   -2.9814    0.7419   -0.9003 H   0  0  0  0  0  0  0  0  0  0  0  0
   -2.6362   -0.2105    1.2924 H   0  0  0  0  0  0  0  0  0  0  0  0
   -2.8299   -1.6385    0.2349 H   0  0  0  0  0  0  0  0  0  0  0  0
   -0.2947   -0.3464    1.4152 H   0  0  0  0  0  0  0  0  0  0  0  0
   -0.8584   -2.0159    1.6087 H   0  0  0  0  0  0  0  0  0  0  0  0
    1.0425   -0.7280   -1.6869 H   0  0  0  0  0  0  0  0  0  0  0  0
    2.3939   -0.4327    1.0604 H   0  0  0  0  0  0  0  0  0  0  0  0
    2.4516   -1.9194    0.0873 H   0  0  0  0  0  0  0  0  0  0  0  0
    3.0697   -0.4028   -0.6530 H   0  0  0  0  0  0  0  0  0  0  0  0
  1  2  1  0
  2  3  2  0
  3  4  1  0
  4  5  1  0
  5  6  1  0
  6  7  1  0
  7  8  1  0
  8  9  1  0
  8  2  1  0
  1 10  1  0
  1 11  1  0
  1 12  1  0
  3 13  1  0
  4 14  1  0
  4 15  1  0
  5 16  1  0
  5 17  1  0
  6 18  1  0
  6 19  1  0
  8 20  1  0
  9 21  1  0
  9 22  1  0
  9 23  1  0
M  END
