
     RDKit          3D

 21 22  0  0  0  0  0  0  0  0999 V2000
    2.9737   -0.1097    0.3948 C   0  0  0  0  0  0  0  0  0  0  0  0
    1.5304   -0.1832    0.0105 C   0  0  0  0  0  0  0  0  0  0  0  0
    0.8256   -1.2428   -0.3593 C   0  0  0  0  0  0  0  0  0  0  0  0
   -0.5876   -0.8976   -0.6614 C   0  0  0  0  0  0  0  0  0  0  0  0
   -1.4536   -1.3587    0.3272 O   0  0  0  0  0  0  0  0  0  0  0  0
   -2.5436   -0.4875    0.2941 C   0  0  0  0  0  0  0  0  0  0  0  0
   -1.8202    0.8639    0.3536 C   0  0  0  0  0  0  0  0  0  0  0  0
   -0.6579    0.5909   -0.5825 C   0  0  0  0  0  0  0  0  0  0  0  0
    0.6505    1.0129   -0.0030 C   0  0  0  0  0  0  0  0  0  0  0  0
    3.5999    0.2789   -0.4482 H   0  0  0  0  0  0  0  0  0  0  0  0
    3.1188    0.5935    1.2575 H   0  0  0  0  0  0  0  0  0  0  0  0
    3.3744   -1.0870    0.7217 H   0  0  0  0  0  0  0  0  0  0  0  0
    1.2231   -2.2432   -0.4351 H   0  0  0  0  0  0  0  0  0  0  0  0
   -0.9007   -1.3019   -1.6494 H   0  0  0  0  0  0  0  0  0  0  0  0
   -3.1535   -0.6598    1.1850 H   0  0  0  0  0  0  0  0  0  0  0  0
   -3.0802   -0.6062   -0.6584 H   0  0  0  0  0  0  0  0  0  0  0  0
   -2.4567    1.6873    0.0340 H   0  0  0  0  0  0  0  0  0  0  0  0
   -1.4237    0.9468    1.3720 H   0  0  0  0  0  0  0  0  0  0  0  0
   -0.8813    1.0282   -1.5666 H   0  0  0  0  0  0  0  0  0  0  0  0
    0.4952    1.3924    1.0310 H   0  0  0  0  0  0  0  0  0  0  0  0
    1.1672    1.7829   -0.6175 H   0  0  0  0  0  0  0  0  0  0  0  0
  1  2  1  0
  2  3  2  0
  3  4  1  0
  4  5  1  0
  5  6  1  0
  6  7  1  0
  7  8  1  0
  8  9  1  0
  9  2  1  0
  8  4  1  0
  1 10  1  0
  1 11  1  0
  1 12  1  0
  3 13  1  0
  4 14  1  0
  6 15  1  0
  6 16  1  0
  7 17  1  0
  7 18  1  0
  8 19  1  0
  9 20  1  0
  9 21  1  0
M  END
