
     RDKit          3D

 19 20  0  0  0  0  0  0  0  0999 V2000
    2.8481    0.6376    0.1944 C   0  0  0  0  0  0  0  0  0  0  0  0
    1.4893    0.0630   -0.1587 C   0  0  0  0  0  0  0  0  0  0  0  0
    0.6138   -0.5296    0.6609 C   0  0  0  0  0  0  0  0  0  0  0  0
   -0.5228   -0.9299   -0.1037 C   0  0  0  0  0  0  0  0  0  0  0  0
   -1.7044   -0.4607   -0.6671 C   0  0  0  0  0  0  0  0  0  0  0  0
   -2.7407    0.1067    0.3125 C   0  0  0  0  0  0  0  0  0  0  0  0
   -0.5766    0.3006   -1.0513 C   0  0  0  0  0  0  0  0  0  0  0  0
    0.7997    0.1029   -1.4495 C   0  0  0  0  0  0  0  0  0  0  0  0
    1.3004   -0.0066   -2.5603 O   0  0  0  0  0  0  0  0  0  0  0  0
    3.4220   -0.1061    0.7807 H   0  0  0  0  0  0  0  0  0  0  0  0
    3.4135    0.8052   -0.7345 H   0  0  0  0  0  0  0  0  0  0  0  0
    2.7855    1.5694    0.7497 H   0  0  0  0  0  0  0  0  0  0  0  0
    0.8522   -0.6308    1.7401 H   0  0  0  0  0  0  0  0  0  0  0  0
   -0.1977   -1.9160   -0.6360 H   0  0  0  0  0  0  0  0  0  0  0  0
   -2.2530   -0.9987   -1.4706 H   0  0  0  0  0  0  0  0  0  0  0  0
   -3.0417   -0.7369    0.9764 H   0  0  0  0  0  0  0  0  0  0  0  0
   -2.2011    0.9098    0.8688 H   0  0  0  0  0  0  0  0  0  0  0  0
   -3.6357    0.4826   -0.2215 H   0  0  0  0  0  0  0  0  0  0  0  0
   -0.6508    1.3375   -0.5917 H   0  0  0  0  0  0  0  0  0  0  0  0
  1  2  1  0
  2  3  2  0
  3  4  1  0
  4  5  1  0
  5  6  1  0
  5  7  1  0
  7  8  1  0
  8  9  2  0
  8  2  1  0
  7  4  1  0
  1 10  1  0
  1 11  1  0
  1 12  1  0
  3 13  1  0
  4 14  1  0
  5 15  1  0
  6 16  1  0
  6 17  1  0
  6 18  1  0
  7 19  1  0
M  END
