
     RDKit          3D

 19 20  0  0  0  0  0  0  0  0999 V2000
   -2.1356   -0.8020   -0.2416 C   0  0  0  0  0  0  0  0  0  0  0  0
   -0.7650   -0.3616    0.2371 C   0  0  0  0  0  0  0  0  0  0  0  0
    0.1501   -1.2458   -0.1776 C   0  0  0  0  0  0  0  0  0  0  0  0
    1.6099   -1.1015    0.1295 C   0  0  0  0  0  0  0  0  0  0  0  0
    1.9990    0.2347   -0.3969 C   0  0  0  0  0  0  0  0  0  0  0  0
    1.2699    1.3157   -0.3881 C   0  0  0  0  0  0  0  0  0  0  0  0
   -0.1091    1.6564    0.0933 C   0  0  0  0  0  0  0  0  0  0  0  0
   -0.1959    1.9870    1.3033 O   0  0  0  0  0  0  0  0  0  0  0  0
   -0.7656    0.8365    0.9877 C   0  0  0  0  0  0  0  0  0  0  0  0
   -2.2435   -1.8898   -0.2086 H   0  0  0  0  0  0  0  0  0  0  0  0
   -2.2345   -0.3804   -1.2582 H   0  0  0  0  0  0  0  0  0  0  0  0
   -2.9245   -0.3705    0.4039 H   0  0  0  0  0  0  0  0  0  0  0  0
   -0.1629   -2.1026   -0.7583 H   0  0  0  0  0  0  0  0  0  0  0  0
    2.1621   -1.9288   -0.3688 H   0  0  0  0  0  0  0  0  0  0  0  0
    1.7084   -1.1320    1.2207 H   0  0  0  0  0  0  0  0  0  0  0  0
    2.9954    0.2504   -0.8161 H   0  0  0  0  0  0  0  0  0  0  0  0
    1.7859    2.1818   -0.8392 H   0  0  0  0  0  0  0  0  0  0  0  0
   -0.7077    2.1434   -0.7329 H   0  0  0  0  0  0  0  0  0  0  0  0
   -1.4364    0.7092    1.8108 H   0  0  0  0  0  0  0  0  0  0  0  0
  1  2  1  0
  2  3  2  0
  3  4  1  0
  4  5  1  0
  5  6  2  0
  6  7  1  0
  7  8  1  0
  8  9  1  0
  9  2  1  0
  9  7  1  0
  1 10  1  0
  1 11  1  0
  1 12  1  0
  3 13  1  0
  4 14  1  0
  4 15  1  0
  5 16  1  0
  6 17  1  0
  7 18  1  0
  9 19  1  0
M  END
