
     RDKit          3D

 19 20  0  0  0  0  0  0  0  0999 V2000
    2.7195    0.2751    0.4360 C   0  0  0  0  0  0  0  0  0  0  0  0
    1.2394    0.1696    0.3017 C   0  0  0  0  0  0  0  0  0  0  0  0
    0.3570    0.5267    1.2216 C   0  0  0  0  0  0  0  0  0  0  0  0
   -1.0032    0.2799    0.7413 C   0  0  0  0  0  0  0  0  0  0  0  0
   -1.4812    1.3140   -0.0973 O   0  0  0  0  0  0  0  0  0  0  0  0
   -2.4487    0.5804   -0.8245 C   0  0  0  0  0  0  0  0  0  0  0  0
   -1.8262   -0.6030   -1.1886 O   0  0  0  0  0  0  0  0  0  0  0  0
   -0.7779   -0.8128   -0.3105 C   0  0  0  0  0  0  0  0  0  0  0  0
    0.5336   -0.3615   -0.9070 C   0  0  0  0  0  0  0  0  0  0  0  0
    3.0178   -0.4534    1.2289 H   0  0  0  0  0  0  0  0  0  0  0  0
    2.9878    1.2951    0.7938 H   0  0  0  0  0  0  0  0  0  0  0  0
    3.2170    0.0409   -0.5249 H   0  0  0  0  0  0  0  0  0  0  0  0
    0.6120    0.9421    2.1905 H   0  0  0  0  0  0  0  0  0  0  0  0
   -1.7314   -0.0082    1.4956 H   0  0  0  0  0  0  0  0  0  0  0  0
   -2.8595    1.1513   -1.6549 H   0  0  0  0  0  0  0  0  0  0  0  0
   -3.2260    0.3152   -0.0550 H   0  0  0  0  0  0  0  0  0  0  0  0
   -0.7494   -1.8095    0.1268 H   0  0  0  0  0  0  0  0  0  0  0  0
    1.1034   -1.1536   -1.3861 H   0  0  0  0  0  0  0  0  0  0  0  0
    0.3159    0.5104   -1.5874 H   0  0  0  0  0  0  0  0  0  0  0  0
  1  2  1  0
  2  3  2  0
  3  4  1  0
  4  5  1  0
  5  6  1  0
  6  7  1  0
  7  8  1  0
  8  9  1  0
  9  2  1  0
  8  4  1  0
  1 10  1  0
  1 11  1  0
  1 12  1  0
  3 13  1  0
  4 14  1  0
  6 15  1  0
  6 16  1  0
  8 17  1  0
  9 18  1  0
  9 19  1  0
M  END
