
     RDKit          3D

 21 21  0  0  0  0  0  0  0  0999 V2000
   -2.2484   -0.9643    0.5742 C   0  0  0  0  0  0  0  0  0  0  0  0
   -0.8955   -0.5066    0.1740 C   0  0  0  0  0  0  0  0  0  0  0  0
    0.1874   -1.2708    0.2844 C   0  0  0  0  0  0  0  0  0  0  0  0
    1.5396   -0.8011   -0.1204 C   0  0  0  0  0  0  0  0  0  0  0  0
    1.6671   -1.0717   -1.4932 O   0  0  0  0  0  0  0  0  0  0  0  0
    1.7880    0.6453    0.1591 C   0  0  0  0  0  0  0  0  0  0  0  0
    0.5682    1.4763    0.3012 C   0  0  0  0  0  0  0  0  0  0  0  0
   -0.6516    0.8719   -0.3917 C   0  0  0  0  0  0  0  0  0  0  0  0
   -1.7351    1.6977   -0.2323 O   0  0  0  0  0  0  0  0  0  0  0  0
   -2.4461   -0.7820    1.6511 H   0  0  0  0  0  0  0  0  0  0  0  0
   -3.0501   -0.4737    0.0032 H   0  0  0  0  0  0  0  0  0  0  0  0
   -2.3373   -2.0553    0.4036 H   0  0  0  0  0  0  0  0  0  0  0  0
    0.0383   -2.2848    0.6958 H   0  0  0  0  0  0  0  0  0  0  0  0
    2.3245   -1.4012    0.3966 H   0  0  0  0  0  0  0  0  0  0  0  0
    1.8020   -2.0519   -1.5576 H   0  0  0  0  0  0  0  0  0  0  0  0
    2.3625    0.7282    1.1276 H   0  0  0  0  0  0  0  0  0  0  0  0
    2.4396    1.0854   -0.6490 H   0  0  0  0  0  0  0  0  0  0  0  0
    0.7371    2.4656   -0.1693 H   0  0  0  0  0  0  0  0  0  0  0  0
    0.3055    1.6953    1.3705 H   0  0  0  0  0  0  0  0  0  0  0  0
   -0.3934    0.8165   -1.4649 H   0  0  0  0  0  0  0  0  0  0  0  0
   -2.0020    2.1815   -1.0629 H   0  0  0  0  0  0  0  0  0  0  0  0
  1  2  1  0
  2  3  2  0
  3  4  1  0
  4  5  1  0
  4  6  1  0
  6  7  1  0
  7  8  1  0
  8  9  1  0
  8  2  1  0
  1 10  1  0
  1 11  1  0
  1 12  1  0
  3 13  1  0
  4 14  1  0
  5 15  1  0
  6 16  1  0
  6 17  1  0
  7 18  1  0
  7 19  1  0
  8 20  1  0
  9 21  1  0
M  END
