
     RDKit          3D

 19 21  0  0  0  0  0  0  0  0999 V2000
    2.6261    0.4235    0.0667 C   0  0  0  0  0  0  0  0  0  0  0  0
    1.2564   -0.0845   -0.0367 C   0  0  0  0  0  0  0  0  0  0  0  0
    0.7917   -1.3181   -0.3469 C   0  0  0  0  0  0  0  0  0  0  0  0
   -0.6808   -1.1243   -0.2859 C   0  0  0  0  0  0  0  0  0  0  0  0
   -0.8567    0.1966   -0.9670 C   0  0  0  0  0  0  0  0  0  0  0  0
   -2.1895    0.6392   -0.4920 C   0  0  0  0  0  0  0  0  0  0  0  0
   -2.1633    0.2891    0.8170 C   0  0  0  0  0  0  0  0  0  0  0  0
   -0.8219   -0.2908    0.9720 C   0  0  0  0  0  0  0  0  0  0  0  0
    0.0307    0.6828    0.1876 C   0  0  0  0  0  0  0  0  0  0  0  0
    2.7260    1.2552   -0.6915 H   0  0  0  0  0  0  0  0  0  0  0  0
    3.3696   -0.3759   -0.1178 H   0  0  0  0  0  0  0  0  0  0  0  0
    2.7955    0.9384    1.0515 H   0  0  0  0  0  0  0  0  0  0  0  0
    1.3415   -2.2202   -0.5808 H   0  0  0  0  0  0  0  0  0  0  0  0
   -1.3376   -1.9292   -0.4607 H   0  0  0  0  0  0  0  0  0  0  0  0
   -0.5398    0.3652   -1.9527 H   0  0  0  0  0  0  0  0  0  0  0  0
   -2.9708    1.1167   -1.0562 H   0  0  0  0  0  0  0  0  0  0  0  0
   -2.9275    0.4005    1.5733 H   0  0  0  0  0  0  0  0  0  0  0  0
   -0.4789   -0.6692    1.8938 H   0  0  0  0  0  0  0  0  0  0  0  0
    0.0292    1.7049    0.4262 H   0  0  0  0  0  0  0  0  0  0  0  0
  1  2  1  0
  2  3  2  0
  3  4  1  0
  4  5  1  0
  5  6  1  0
  6  7  2  0
  7  8  1  0
  8  9  1  0
  9  2  1  0
  8  4  1  0
  9  5  1  0
  1 10  1  0
  1 11  1  0
  1 12  1  0
  3 13  1  0
  4 14  1  0
  5 15  1  0
  6 16  1  0
  7 17  1  0
  8 18  1  0
  9 19  1  0
M  END
