
     RDKit          3D

 21 22  0  0  0  0  0  0  0  0999 V2000
    2.7893    0.4225    0.3982 C   0  0  0  0  0  0  0  0  0  0  0  0
    1.3989    0.1747   -0.0437 C   0  0  0  0  0  0  0  0  0  0  0  0
    0.4956    1.0774   -0.4110 C   0  0  0  0  0  0  0  0  0  0  0  0
   -0.7893    0.4342   -0.7882 C   0  0  0  0  0  0  0  0  0  0  0  0
   -1.9244    1.2549   -0.2269 C   0  0  0  0  0  0  0  0  0  0  0  0
   -0.7097   -0.9171   -0.1675 C   0  0  0  0  0  0  0  0  0  0  0  0
   -1.5610   -1.3610    0.8246 C   0  0  0  0  0  0  0  0  0  0  0  0
   -1.5550   -1.9362   -0.5697 O   0  0  0  0  0  0  0  0  0  0  0  0
    0.7802   -1.1952   -0.1444 C   0  0  0  0  0  0  0  0  0  0  0  0
    3.4644    0.6839   -0.4547 H   0  0  0  0  0  0  0  0  0  0  0  0
    2.8257    1.3010    1.0792 H   0  0  0  0  0  0  0  0  0  0  0  0
    3.1864   -0.4481    0.9312 H   0  0  0  0  0  0  0  0  0  0  0  0
    0.7392    2.1550   -0.4116 H   0  0  0  0  0  0  0  0  0  0  0  0
   -0.8815    0.4080   -1.8966 H   0  0  0  0  0  0  0  0  0  0  0  0
   -2.9015    0.8930   -0.5493 H   0  0  0  0  0  0  0  0  0  0  0  0
   -1.7979    2.2931   -0.6144 H   0  0  0  0  0  0  0  0  0  0  0  0
   -1.8201    1.3410    0.8790 H   0  0  0  0  0  0  0  0  0  0  0  0
   -2.5879   -0.9806    0.9822 H   0  0  0  0  0  0  0  0  0  0  0  0
   -1.2464   -2.1533    1.5633 H   0  0  0  0  0  0  0  0  0  0  0  0
    1.0055   -1.8093    0.7283 H   0  0  0  0  0  0  0  0  0  0  0  0
    1.0897   -1.6376   -1.1081 H   0  0  0  0  0  0  0  0  0  0  0  0
  1  2  1  0
  2  3  2  0
  3  4  1  0
  4  5  1  0
  4  6  1  0
  6  7  1  0
  7  8  1  0
  6  9  1  0
  9  2  1  0
  8  6  1  0
  1 10  1  0
  1 11  1  0
  1 12  1  0
  3 13  1  0
  4 14  1  0
  5 15  1  0
  5 16  1  0
  5 17  1  0
  7 18  1  0
  7 19  1  0
  9 20  1  0
  9 21  1  0
M  END
