
     RDKit          3D

 16 16  0  0  0  0  0  0  0  0999 V2000
    2.2474    0.0955   -0.0456 C   0  0  0  0  0  0  0  0  0  0  0  0
    0.7665   -0.1526    0.0846 C   0  0  0  0  0  0  0  0  0  0  0  0
    0.0814   -1.1764   -0.4072 C   0  0  0  0  0  0  0  0  0  0  0  0
   -1.3428   -1.0252   -0.0442 C   0  0  0  0  0  0  0  0  0  0  0  0
   -1.4720    0.4579    0.2155 C   0  0  0  0  0  0  0  0  0  0  0  0
   -1.5673    1.1458   -0.9914 O   0  0  0  0  0  0  0  0  0  0  0  0
   -0.1354    0.7466    0.7943 C   0  0  0  0  0  0  0  0  0  0  0  0
    0.2047    1.5569    1.6826 O   0  0  0  0  0  0  0  0  0  0  0  0
    2.4351    0.4731   -1.0879 H   0  0  0  0  0  0  0  0  0  0  0  0
    2.8184   -0.8556    0.0376 H   0  0  0  0  0  0  0  0  0  0  0  0
    2.5846    0.7873    0.7256 H   0  0  0  0  0  0  0  0  0  0  0  0
    0.4857   -2.0028   -0.9864 H   0  0  0  0  0  0  0  0  0  0  0  0
   -2.0327   -1.2791   -0.8658 H   0  0  0  0  0  0  0  0  0  0  0  0
   -1.5950   -1.5347    0.9080 H   0  0  0  0  0  0  0  0  0  0  0  0
   -2.2989    0.7031    0.9112 H   0  0  0  0  0  0  0  0  0  0  0  0
   -1.1798    2.0603   -0.9308 H   0  0  0  0  0  0  0  0  0  0  0  0
  1  2  1  0
  2  3  2  0
  3  4  1  0
  4  5  1  0
  5  6  1  0
  5  7  1  0
  7  8  2  0
  7  2  1  0
  1  9  1  0
  1 10  1  0
  1 11  1  0
  3 12  1  0
  4 13  1  0
  4 14  1  0
  5 15  1  0
  6 16  1  0
M  END
