
     RDKit          3D

 17 19  0  0  0  0  0  0  0  0999 V2000
    2.2723    0.0399   -0.7251 C   0  0  0  0  0  0  0  0  0  0  0  0
    1.0279   -0.0468    0.0763 C   0  0  0  0  0  0  0  0  0  0  0  0
    0.5644    0.7745    1.0427 C   0  0  0  0  0  0  0  0  0  0  0  0
   -0.7221    0.0692    1.3936 C   0  0  0  0  0  0  0  0  0  0  0  0
   -0.2535   -1.2601    1.4293 O   0  0  0  0  0  0  0  0  0  0  0  0
   -0.0638   -1.0723    0.0365 C   0  0  0  0  0  0  0  0  0  0  0  0
   -1.2826   -0.2457    0.0732 C   0  0  0  0  0  0  0  0  0  0  0  0
   -1.9631    0.4775   -0.8449 C   0  0  0  0  0  0  0  0  0  0  0  0
   -2.5422   -0.7095   -0.1529 O   0  0  0  0  0  0  0  0  0  0  0  0
    2.6312   -0.9856   -0.9709 H   0  0  0  0  0  0  0  0  0  0  0  0
    2.1171    0.5482   -1.6978 H   0  0  0  0  0  0  0  0  0  0  0  0
    3.0279    0.6306   -0.1799 H   0  0  0  0  0  0  0  0  0  0  0  0
    0.9797    1.6738    1.4541 H   0  0  0  0  0  0  0  0  0  0  0  0
   -1.2895    0.4313    2.2050 H   0  0  0  0  0  0  0  0  0  0  0  0
    0.0477   -1.9269   -0.5723 H   0  0  0  0  0  0  0  0  0  0  0  0
   -2.5712    1.3738   -0.6267 H   0  0  0  0  0  0  0  0  0  0  0  0
   -1.9803    0.2283   -1.9401 H   0  0  0  0  0  0  0  0  0  0  0  0
  1  2  1  0
  2  3  2  0
  3  4  1  0
  4  5  1  0
  5  6  1  0
  6  7  1  0
  7  8  1  0
  8  9  1  0
  6  2  1  0
  9  7  1  0
  7  4  1  0
  1 10  1  0
  1 11  1  0
  1 12  1  0
  3 13  1  0
  4 14  1  0
  6 15  1  0
  8 16  1  0
  8 17  1  0
M  END
