
     RDKit          3D

 20 20  0  0  0  0  0  0  0  0999 V2000
    2.5970   -0.3819    0.1357 C   0  0  0  0  0  0  0  0  0  0  0  0
    1.1781   -0.0046   -0.0393 C   0  0  0  0  0  0  0  0  0  0  0  0
    0.1863   -0.8855   -0.1273 C   0  0  0  0  0  0  0  0  0  0  0  0
   -1.1132   -0.1733   -0.2985 C   0  0  0  0  0  0  0  0  0  0  0  0
   -2.1657   -0.9246    0.4400 C   0  0  0  0  0  0  0  0  0  0  0  0
   -1.3459   -0.0690   -1.6630 O   0  0  0  0  0  0  0  0  0  0  0  0
   -0.8209    1.1860    0.2540 C   0  0  0  0  0  0  0  0  0  0  0  0
    0.6301    1.3760   -0.1439 C   0  0  0  0  0  0  0  0  0  0  0  0
    2.8285   -1.3704   -0.3481 H   0  0  0  0  0  0  0  0  0  0  0  0
    2.8001   -0.4468    1.2265 H   0  0  0  0  0  0  0  0  0  0  0  0
    3.2571    0.3507   -0.3601 H   0  0  0  0  0  0  0  0  0  0  0  0
    0.2548   -1.9670   -0.0871 H   0  0  0  0  0  0  0  0  0  0  0  0
   -2.6933   -1.5801   -0.3134 H   0  0  0  0  0  0  0  0  0  0  0  0
   -1.7449   -1.6319    1.1965 H   0  0  0  0  0  0  0  0  0  0  0  0
   -2.8842   -0.2860    0.9925 H   0  0  0  0  0  0  0  0  0  0  0  0
   -0.4919   -0.1890   -2.1801 H   0  0  0  0  0  0  0  0  0  0  0  0
   -0.9090    1.2608    1.3470 H   0  0  0  0  0  0  0  0  0  0  0  0
   -1.4004    1.9555   -0.2967 H   0  0  0  0  0  0  0  0  0  0  0  0
    1.1251    2.0879    0.5432 H   0  0  0  0  0  0  0  0  0  0  0  0
    0.7122    1.6931   -1.2000 H   0  0  0  0  0  0  0  0  0  0  0  0
  1  2  1  0
  2  3  2  0
  3  4  1  0
  4  5  1  0
  4  6  1  0
  4  7  1  0
  7  8  1  0
  8  2  1  0
  1  9  1  0
  1 10  1  0
  1 11  1  0
  3 12  1  0
  5 13  1  0
  5 14  1  0
  5 15  1  0
  6 16  1  0
  7 17  1  0
  7 18  1  0
  8 19  1  0
  8 20  1  0
M  END
