
     RDKit          3D

 21 21  0  0  0  0  0  0  0  0999 V2000
    2.6384   -0.2158    0.5831 C   0  0  0  0  0  0  0  0  0  0  0  0
    1.2824    0.0839    0.0714 C   0  0  0  0  0  0  0  0  0  0  0  0
    0.7744    1.2892    0.2969 C   0  0  0  0  0  0  0  0  0  0  0  0
   -0.5136    1.8691   -0.0765 C   0  0  0  0  0  0  0  0  0  0  0  0
   -1.5826    1.1523   -0.3962 C   0  0  0  0  0  0  0  0  0  0  0  0
   -1.8532   -0.2776   -0.4874 C   0  0  0  0  0  0  0  0  0  0  0  0
   -2.9853   -0.5457    0.3075 O   0  0  0  0  0  0  0  0  0  0  0  0
   -0.7658   -1.1810   -0.0340 C   0  0  0  0  0  0  0  0  0  0  0  0
    0.5551   -0.9947   -0.6761 C   0  0  0  0  0  0  0  0  0  0  0  0
    2.9387   -1.1976    0.1647 H   0  0  0  0  0  0  0  0  0  0  0  0
    2.6835   -0.2060    1.7008 H   0  0  0  0  0  0  0  0  0  0  0  0
    3.3607    0.5414    0.1884 H   0  0  0  0  0  0  0  0  0  0  0  0
    1.4335    1.9668    0.8598 H   0  0  0  0  0  0  0  0  0  0  0  0
   -0.5995    2.9530   -0.0928 H   0  0  0  0  0  0  0  0  0  0  0  0
   -2.4331    1.7752   -0.6407 H   0  0  0  0  0  0  0  0  0  0  0  0
   -2.1592   -0.5238   -1.5266 H   0  0  0  0  0  0  0  0  0  0  0  0
   -2.6563   -0.4570    1.2567 H   0  0  0  0  0  0  0  0  0  0  0  0
   -0.6349   -1.0972    1.0829 H   0  0  0  0  0  0  0  0  0  0  0  0
   -1.0969   -2.2272   -0.2022 H   0  0  0  0  0  0  0  0  0  0  0  0
    0.4802   -0.7541   -1.7596 H   0  0  0  0  0  0  0  0  0  0  0  0
    1.1334   -1.9532   -0.6201 H   0  0  0  0  0  0  0  0  0  0  0  0
  1  2  1  0
  2  3  2  0
  3  4  1  0
  4  5  2  0
  5  6  1  0
  6  7  1  0
  6  8  1  0
  8  9  1  0
  9  2  1  0
  1 10  1  0
  1 11  1  0
  1 12  1  0
  3 13  1  0
  4 14  1  0
  5 15  1  0
  6 16  1  0
  7 17  1  0
  8 18  1  0
  8 19  1  0
  9 20  1  0
  9 21  1  0
M  END
