
     RDKit          3D

 23 24  0  0  0  0  0  0  0  0999 V2000
    2.8541   -0.1323   -0.1294 C   0  0  0  0  0  0  0  0  0  0  0  0
    1.3796    0.0910    0.0289 C   0  0  0  0  0  0  0  0  0  0  0  0
    0.6687   -0.9517    0.4480 C   0  0  0  0  0  0  0  0  0  0  0  0
   -0.8283   -0.8974    0.6602 C   0  0  0  0  0  0  0  0  0  0  0  0
   -1.5661   -1.6930   -0.3538 C   0  0  0  0  0  0  0  0  0  0  0  0
   -1.1652    0.5304    0.7465 C   0  0  0  0  0  0  0  0  0  0  0  0
   -1.8872    1.4256   -0.0782 C   0  0  0  0  0  0  0  0  0  0  0  0
   -0.6285    1.0988   -0.6196 C   0  0  0  0  0  0  0  0  0  0  0  0
    0.7621    1.4215   -0.2747 C   0  0  0  0  0  0  0  0  0  0  0  0
    3.0698   -1.1813   -0.4520 H   0  0  0  0  0  0  0  0  0  0  0  0
    3.3091    0.0102    0.8606 H   0  0  0  0  0  0  0  0  0  0  0  0
    3.2857    0.5262   -0.9023 H   0  0  0  0  0  0  0  0  0  0  0  0
    1.1446   -1.9193    0.6637 H   0  0  0  0  0  0  0  0  0  0  0  0
   -0.9816   -1.3998    1.6577 H   0  0  0  0  0  0  0  0  0  0  0  0
   -1.2102   -1.5902   -1.3876 H   0  0  0  0  0  0  0  0  0  0  0  0
   -1.4690   -2.7810   -0.0648 H   0  0  0  0  0  0  0  0  0  0  0  0
   -2.6254   -1.4215   -0.3244 H   0  0  0  0  0  0  0  0  0  0  0  0
   -0.7101    0.9781    1.6821 H   0  0  0  0  0  0  0  0  0  0  0  0
   -2.0859    2.4673    0.3030 H   0  0  0  0  0  0  0  0  0  0  0  0
   -2.8123    1.0813   -0.6239 H   0  0  0  0  0  0  0  0  0  0  0  0
   -0.6333    0.3640   -1.4852 H   0  0  0  0  0  0  0  0  0  0  0  0
    1.3248    1.9768   -1.0428 H   0  0  0  0  0  0  0  0  0  0  0  0
    0.8047    1.9962    0.6880 H   0  0  0  0  0  0  0  0  0  0  0  0
  1  2  1  0
  2  3  2  0
  3  4  1  0
  4  5  1  0
  4  6  1  0
  6  7  1  0
  7  8  1  0
  8  9  1  0
  9  2  1  0
  8  6  1  0
  1 10  1  0
  1 11  1  0
  1 12  1  0
  3 13  1  0
  4 14  1  0
  5 15  1  0
  5 16  1  0
  5 17  1  0
  6 18  1  0
  7 19  1  0
  7 20  1  0
  8 21  1  0
  9 22  1  0
  9 23  1  0
M  END
