
     RDKit          3D

 19 19  0  0  0  0  0  0  0  0999 V2000
    2.7321   -0.5234    0.1454 C   0  0  0  0  0  0  0  0  0  0  0  0
    1.2745   -0.3310   -0.0969 C   0  0  0  0  0  0  0  0  0  0  0  0
    0.6661    0.8364   -0.2181 C   0  0  0  0  0  0  0  0  0  0  0  0
   -0.7699    0.6021   -0.4507 C   0  0  0  0  0  0  0  0  0  0  0  0
   -1.6437    1.6157    0.2440 C   0  0  0  0  0  0  0  0  0  0  0  0
   -0.9912   -0.7873    0.0920 C   0  0  0  0  0  0  0  0  0  0  0  0
   -2.0619   -1.4269   -0.5228 O   0  0  0  0  0  0  0  0  0  0  0  0
    0.3103   -1.4116   -0.2233 C   0  0  0  0  0  0  0  0  0  0  0  0
    0.5743   -2.5818   -0.5307 O   0  0  0  0  0  0  0  0  0  0  0  0
    3.3581    0.1575   -0.4596 H   0  0  0  0  0  0  0  0  0  0  0  0
    2.9785   -0.3444    1.2288 H   0  0  0  0  0  0  0  0  0  0  0  0
    3.0321   -1.5488   -0.0713 H   0  0  0  0  0  0  0  0  0  0  0  0
    1.1506    1.8230   -0.1558 H   0  0  0  0  0  0  0  0  0  0  0  0
   -0.9637    0.5775   -1.5581 H   0  0  0  0  0  0  0  0  0  0  0  0
   -1.0800    2.4595    0.6773 H   0  0  0  0  0  0  0  0  0  0  0  0
   -2.4131    1.9619   -0.4948 H   0  0  0  0  0  0  0  0  0  0  0  0
   -2.1901    1.0913    1.0420 H   0  0  0  0  0  0  0  0  0  0  0  0
   -1.1537   -0.7133    1.2059 H   0  0  0  0  0  0  0  0  0  0  0  0
   -2.8092   -1.4562    0.1465 H   0  0  0  0  0  0  0  0  0  0  0  0
  1  2  1  0
  2  3  2  0
  3  4  1  0
  4  5  1  0
  4  6  1  0
  6  7  1  0
  6  8  1  0
  8  9  2  0
  8  2  1  0
  1 10  1  0
  1 11  1  0
  1 12  1  0
  3 13  1  0
  4 14  1  0
  5 15  1  0
  5 16  1  0
  5 17  1  0
  6 18  1  0
  7 19  1  0
M  END
