
     RDKit          3D

 25 25  0  0  0  0  0  0  0  0999 V2000
    2.7498    1.4373    0.0442 C   0  0  0  0  0  0  0  0  0  0  0  0
    1.4324    0.7201    0.0922 C   0  0  0  0  0  0  0  0  0  0  0  0
    0.2325    1.2596    0.0833 C   0  0  0  0  0  0  0  0  0  0  0  0
   -0.8438    0.2490    0.1412 C   0  0  0  0  0  0  0  0  0  0  0  0
   -1.7253    0.5443    1.3499 C   0  0  0  0  0  0  0  0  0  0  0  0
   -1.7012    0.4049   -1.0806 C   0  0  0  0  0  0  0  0  0  0  0  0
   -0.1491   -1.0416    0.2725 C   0  0  0  0  0  0  0  0  0  0  0  0
   -0.5169   -2.1155   -0.6661 C   0  0  0  0  0  0  0  0  0  0  0  0
    1.3395   -0.7587    0.1586 C   0  0  0  0  0  0  0  0  0  0  0  0
    3.1695    1.5493    1.0441 H   0  0  0  0  0  0  0  0  0  0  0  0
    2.5846    2.4009   -0.4792 H   0  0  0  0  0  0  0  0  0  0  0  0
    3.4517    0.8316   -0.5711 H   0  0  0  0  0  0  0  0  0  0  0  0
    0.0554    2.3283    0.0383 H   0  0  0  0  0  0  0  0  0  0  0  0
   -1.2914    0.0517    2.2499 H   0  0  0  0  0  0  0  0  0  0  0  0
   -1.8706    1.6219    1.4621 H   0  0  0  0  0  0  0  0  0  0  0  0
   -2.7051    0.0206    1.1467 H   0  0  0  0  0  0  0  0  0  0  0  0
   -1.0615    0.5046   -1.9911 H   0  0  0  0  0  0  0  0  0  0  0  0
   -2.5008   -0.3289   -1.1767 H   0  0  0  0  0  0  0  0  0  0  0  0
   -2.2112    1.4082   -0.9812 H   0  0  0  0  0  0  0  0  0  0  0  0
   -0.3176   -1.4244    1.3228 H   0  0  0  0  0  0  0  0  0  0  0  0
    0.4014   -2.5731   -1.1390 H   0  0  0  0  0  0  0  0  0  0  0  0
   -1.0055   -2.9907   -0.1459 H   0  0  0  0  0  0  0  0  0  0  0  0
   -1.1771   -1.8488   -1.4911 H   0  0  0  0  0  0  0  0  0  0  0  0
    1.8952   -1.0732    1.0713 H   0  0  0  0  0  0  0  0  0  0  0  0
    1.7653   -1.1776   -0.7550 H   0  0  0  0  0  0  0  0  0  0  0  0
  1  2  1  0
  2  3  2  0
  3  4  1  0
  4  5  1  0
  4  6  1  0
  4  7  1  0
  7  8  1  0
  7  9  1  0
  9  2  1  0
  1 10  1  0
  1 11  1  0
  1 12  1  0
  3 13  1  0
  5 14  1  0
  5 15  1  0
  5 16  1  0
  6 17  1  0
  6 18  1  0
  6 19  1  0
  7 20  1  0
  8 21  1  0
  8 22  1  0
  8 23  1  0
  9 24  1  0
  9 25  1  0
M  END
