
     RDKit          3D

 23 23  0  0  0  0  0  0  0  0999 V2000
    3.0239   -0.1097    0.0799 C   0  0  0  0  0  0  0  0  0  0  0  0
    1.5493   -0.0815    0.2596 C   0  0  0  0  0  0  0  0  0  0  0  0
    0.8950   -1.2314    0.2119 C   0  0  0  0  0  0  0  0  0  0  0  0
   -0.5755   -1.2926    0.3822 C   0  0  0  0  0  0  0  0  0  0  0  0
   -1.2706   -0.0055    0.1297 C   0  0  0  0  0  0  0  0  0  0  0  0
   -2.5026   -0.2588   -0.7254 C   0  0  0  0  0  0  0  0  0  0  0  0
   -1.6808    0.5346    1.3748 O   0  0  0  0  0  0  0  0  0  0  0  0
   -0.3988    1.0614   -0.4903 C   0  0  0  0  0  0  0  0  0  0  0  0
    0.7897    1.1806    0.4812 C   0  0  0  0  0  0  0  0  0  0  0  0
    3.2749   -0.5357   -0.8915 H   0  0  0  0  0  0  0  0  0  0  0  0
    3.4704   -0.7984    0.8558 H   0  0  0  0  0  0  0  0  0  0  0  0
    3.4295    0.8833    0.2803 H   0  0  0  0  0  0  0  0  0  0  0  0
    1.4678   -2.1713    0.0389 H   0  0  0  0  0  0  0  0  0  0  0  0
   -0.8281   -1.6678    1.4225 H   0  0  0  0  0  0  0  0  0  0  0  0
   -0.9779   -2.0773   -0.2988 H   0  0  0  0  0  0  0  0  0  0  0  0
   -3.4093    0.0418   -0.1618 H   0  0  0  0  0  0  0  0  0  0  0  0
   -2.4652    0.3960   -1.6249 H   0  0  0  0  0  0  0  0  0  0  0  0
   -2.6079   -1.3307   -0.9965 H   0  0  0  0  0  0  0  0  0  0  0  0
   -2.0030    1.4318    1.1888 H   0  0  0  0  0  0  0  0  0  0  0  0
    0.0546    0.7364   -1.4551 H   0  0  0  0  0  0  0  0  0  0  0  0
   -0.9555    1.9961   -0.5570 H   0  0  0  0  0  0  0  0  0  0  0  0
    1.3828    2.0767    0.2697 H   0  0  0  0  0  0  0  0  0  0  0  0
    0.3371    1.2217    1.4910 H   0  0  0  0  0  0  0  0  0  0  0  0
  1  2  1  0
  2  3  2  0
  3  4  1  0
  4  5  1  0
  5  6  1  0
  5  7  1  0
  5  8  1  0
  8  9  1  0
  9  2  1  0
  1 10  1  0
  1 11  1  0
  1 12  1  0
  3 13  1  0
  4 14  1  0
  4 15  1  0
  6 16  1  0
  6 17  1  0
  6 18  1  0
  7 19  1  0
  8 20  1  0
  8 21  1  0
  9 22  1  0
  9 23  1  0
M  END
