
     RDKit          3D

 21 21  0  0  0  0  0  0  0  0999 V2000
    2.5098    0.7338    0.0752 C   0  0  0  0  0  0  0  0  0  0  0  0
    1.1387    0.2042   -0.1172 C   0  0  0  0  0  0  0  0  0  0  0  0
    0.1900    1.1207   -0.0147 C   0  0  0  0  0  0  0  0  0  0  0  0
   -1.2663    0.8684   -0.1621 C   0  0  0  0  0  0  0  0  0  0  0  0
   -2.0276    2.0006    0.0668 O   0  0  0  0  0  0  0  0  0  0  0  0
   -1.6190   -0.2878    0.7118 C   0  0  0  0  0  0  0  0  0  0  0  0
   -1.2536   -1.5781    0.0161 C   0  0  0  0  0  0  0  0  0  0  0  0
   -0.2648   -1.4787   -0.9201 O   0  0  0  0  0  0  0  0  0  0  0  0
    1.0046   -1.2584   -0.3955 C   0  0  0  0  0  0  0  0  0  0  0  0
    2.6659    1.5619   -0.6437 H   0  0  0  0  0  0  0  0  0  0  0  0
    3.2382   -0.1031   -0.0712 H   0  0  0  0  0  0  0  0  0  0  0  0
    2.6006    1.1577    1.1097 H   0  0  0  0  0  0  0  0  0  0  0  0
    0.5301    2.1135    0.1912 H   0  0  0  0  0  0  0  0  0  0  0  0
   -1.4411    0.5574   -1.2310 H   0  0  0  0  0  0  0  0  0  0  0  0
   -1.9606    2.5611   -0.7478 H   0  0  0  0  0  0  0  0  0  0  0  0
   -1.0476   -0.2750    1.6792 H   0  0  0  0  0  0  0  0  0  0  0  0
   -2.6932   -0.2700    1.0173 H   0  0  0  0  0  0  0  0  0  0  0  0
   -2.1861   -1.8928   -0.5393 H   0  0  0  0  0  0  0  0  0  0  0  0
   -1.0893   -2.3879    0.7582 H   0  0  0  0  0  0  0  0  0  0  0  0
    1.2480   -1.8860    0.4605 H   0  0  0  0  0  0  0  0  0  0  0  0
    1.7234   -1.4616   -1.2435 H   0  0  0  0  0  0  0  0  0  0  0  0
  1  2  1  0
  2  3  2  0
  3  4  1  0
  4  5  1  0
  4  6  1  0
  6  7  1  0
  7  8  1  0
  8  9  1  0
  9  2  1  0
  1 10  1  0
  1 11  1  0
  1 12  1  0
  3 13  1  0
  4 14  1  0
  5 15  1  0
  6 16  1  0
  6 17  1  0
  7 18  1  0
  7 19  1  0
  9 20  1  0
  9 21  1  0
M  END
