
     RDKit          3D

 18 18  0  0  0  0  0  0  0  0999 V2000
    2.4702    0.0097   -0.1114 C   0  0  0  0  0  0  0  0  0  0  0  0
    0.9806    0.1001    0.0939 C   0  0  0  0  0  0  0  0  0  0  0  0
    0.2261    1.1779   -0.0318 C   0  0  0  0  0  0  0  0  0  0  0  0
   -1.1970    0.8925    0.2475 C   0  0  0  0  0  0  0  0  0  0  0  0
   -2.0560    1.5477   -0.6293 O   0  0  0  0  0  0  0  0  0  0  0  0
   -1.3046   -0.5859    0.1323 C   0  0  0  0  0  0  0  0  0  0  0  0
   -1.6325   -0.9864   -1.1482 O   0  0  0  0  0  0  0  0  0  0  0  0
    0.1097   -1.0395    0.4764 C   0  0  0  0  0  0  0  0  0  0  0  0
    2.8068    0.8039   -0.8077 H   0  0  0  0  0  0  0  0  0  0  0  0
    2.6638   -0.9954   -0.5229 H   0  0  0  0  0  0  0  0  0  0  0  0
    3.0095    0.0885    0.8500 H   0  0  0  0  0  0  0  0  0  0  0  0
    0.6546    2.1633   -0.3162 H   0  0  0  0  0  0  0  0  0  0  0  0
   -1.3819    1.1697    1.3030 H   0  0  0  0  0  0  0  0  0  0  0  0
   -2.9801    1.3167   -0.3273 H   0  0  0  0  0  0  0  0  0  0  0  0
   -2.0461   -0.9488    0.8731 H   0  0  0  0  0  0  0  0  0  0  0  0
   -0.8942   -1.5527   -1.5301 H   0  0  0  0  0  0  0  0  0  0  0  0
    0.3896   -1.9275   -0.1171 H   0  0  0  0  0  0  0  0  0  0  0  0
    0.1814   -1.2341    1.5659 H   0  0  0  0  0  0  0  0  0  0  0  0
  1  2  1  0
  2  3  2  0
  3  4  1  0
  4  5  1  0
  4  6  1  0
  6  7  1  0
  6  8  1  0
  8  2  1  0
  1  9  1  0
  1 10  1  0
  1 11  1  0
  3 12  1  0
  4 13  1  0
  5 14  1  0
  6 15  1  0
  7 16  1  0
  8 17  1  0
  8 18  1  0
M  END
