
     RDKit          3D

 19 20  0  0  0  0  0  0  0  0999 V2000
   -2.7994    0.1028   -0.3171 C   0  0  0  0  0  0  0  0  0  0  0  0
   -1.3279   -0.0430   -0.2379 C   0  0  0  0  0  0  0  0  0  0  0  0
   -0.3838    0.8587    0.1272 C   0  0  0  0  0  0  0  0  0  0  0  0
    0.8493    0.0562   -0.0501 C   0  0  0  0  0  0  0  0  0  0  0  0
    2.1425    0.6668    0.1187 C   0  0  0  0  0  0  0  0  0  0  0  0
    2.2877    1.2825    1.3310 O   0  0  0  0  0  0  0  0  0  0  0  0
    0.4999   -1.2292    0.6416 C   0  0  0  0  0  0  0  0  0  0  0  0
   -0.4551   -1.2265   -0.5373 C   0  0  0  0  0  0  0  0  0  0  0  0
    0.5714   -0.6077   -1.2503 O   0  0  0  0  0  0  0  0  0  0  0  0
   -3.1673   -0.7295   -0.9646 H   0  0  0  0  0  0  0  0  0  0  0  0
   -3.1119    1.0618   -0.7778 H   0  0  0  0  0  0  0  0  0  0  0  0
   -3.2705   -0.0456    0.6798 H   0  0  0  0  0  0  0  0  0  0  0  0
   -0.5126    1.8824    0.4562 H   0  0  0  0  0  0  0  0  0  0  0  0
    2.9419   -0.0910    0.0091 H   0  0  0  0  0  0  0  0  0  0  0  0
    2.3216    1.4269   -0.6695 H   0  0  0  0  0  0  0  0  0  0  0  0
    3.1050    1.8558    1.2731 H   0  0  0  0  0  0  0  0  0  0  0  0
    1.2451   -2.0238    0.6343 H   0  0  0  0  0  0  0  0  0  0  0  0
   -0.0510   -1.0737    1.6075 H   0  0  0  0  0  0  0  0  0  0  0  0
   -0.8849   -2.1241   -0.8756 H   0  0  0  0  0  0  0  0  0  0  0  0
  1  2  1  0
  2  3  2  0
  3  4  1  0
  4  5  1  0
  5  6  1  0
  4  7  1  0
  7  8  1  0
  8  9  1  0
  8  2  1  0
  9  4  1  0
  1 10  1  0
  1 11  1  0
  1 12  1  0
  3 13  1  0
  5 14  1  0
  5 15  1  0
  6 16  1  0
  7 17  1  0
  7 18  1  0
  8 19  1  0
M  END
