
     RDKit          3D

 21 22  0  0  0  0  0  0  0  0999 V2000
    2.8055    0.3114   -0.1238 C   0  0  0  0  0  0  0  0  0  0  0  0
    1.3686   -0.0228    0.0622 C   0  0  0  0  0  0  0  0  0  0  0  0
    0.8816   -0.5917    1.1472 C   0  0  0  0  0  0  0  0  0  0  0  0
   -0.5628   -0.7900    1.0252 C   0  0  0  0  0  0  0  0  0  0  0  0
   -0.9838   -1.9186    0.3311 O   0  0  0  0  0  0  0  0  0  0  0  0
   -1.6804   -1.1695   -0.6247 C   0  0  0  0  0  0  0  0  0  0  0  0
   -0.9330    0.0426   -0.1567 C   0  0  0  0  0  0  0  0  0  0  0  0
   -1.7182    1.2429    0.2017 C   0  0  0  0  0  0  0  0  0  0  0  0
    0.3236    0.2530   -0.9622 C   0  0  0  0  0  0  0  0  0  0  0  0
    2.9964    1.2811    0.3630 H   0  0  0  0  0  0  0  0  0  0  0  0
    3.3965   -0.5160    0.3227 H   0  0  0  0  0  0  0  0  0  0  0  0
    3.0500    0.4229   -1.2022 H   0  0  0  0  0  0  0  0  0  0  0  0
    1.4518   -0.8900    2.0403 H   0  0  0  0  0  0  0  0  0  0  0  0
   -1.1669   -0.5897    1.9381 H   0  0  0  0  0  0  0  0  0  0  0  0
   -2.7584   -1.0764   -0.4651 H   0  0  0  0  0  0  0  0  0  0  0  0
   -1.4227   -1.4807   -1.6792 H   0  0  0  0  0  0  0  0  0  0  0  0
   -1.0613    2.1399    0.1777 H   0  0  0  0  0  0  0  0  0  0  0  0
   -2.2068    1.1355    1.2121 H   0  0  0  0  0  0  0  0  0  0  0  0
   -2.5610    1.4152   -0.5019 H   0  0  0  0  0  0  0  0  0  0  0  0
    0.3635    1.2906   -1.3447 H   0  0  0  0  0  0  0  0  0  0  0  0
    0.4177   -0.4895   -1.7608 H   0  0  0  0  0  0  0  0  0  0  0  0
  1  2  1  0
  2  3  2  0
  3  4  1  0
  4  5  1  0
  5  6  1  0
  6  7  1  0
  7  8  1  0
  7  9  1  0
  9  2  1  0
  7  4  1  0
  1 10  1  0
  1 11  1  0
  1 12  1  0
  3 13  1  0
  4 14  1  0
  6 15  1  0
  6 16  1  0
  8 17  1  0
  8 18  1  0
  8 19  1  0
  9 20  1  0
  9 21  1  0
M  END
