
     RDKit          3D

 23 24  0  0  0  0  0  0  0  0999 V2000
    1.2313    1.8992    0.5889 C   0  0  0  0  0  0  0  0  0  0  0  0
    0.4210    0.7823    0.0254 C   0  0  0  0  0  0  0  0  0  0  0  0
    0.8613   -0.4865   -0.0973 C   0  0  0  0  0  0  0  0  0  0  0  0
    2.2423   -0.9849    0.1016 C   0  0  0  0  0  0  0  0  0  0  0  0
   -0.3647   -1.2648   -0.4788 C   0  0  0  0  0  0  0  0  0  0  0  0
   -1.3391   -1.1162    0.6506 C   0  0  0  0  0  0  0  0  0  0  0  0
   -1.8999    0.3123    0.5477 C   0  0  0  0  0  0  0  0  0  0  0  0
   -0.9745    0.8946   -0.4795 C   0  0  0  0  0  0  0  0  0  0  0  0
   -0.9527   -0.2667   -1.4910 C   0  0  0  0  0  0  0  0  0  0  0  0
    0.5763    2.6990    1.0130 H   0  0  0  0  0  0  0  0  0  0  0  0
    1.8739    2.2810   -0.2209 H   0  0  0  0  0  0  0  0  0  0  0  0
    1.8561    1.5548    1.4582 H   0  0  0  0  0  0  0  0  0  0  0  0
    2.9323   -0.2982   -0.4288 H   0  0  0  0  0  0  0  0  0  0  0  0
    2.3259   -1.9794   -0.4085 H   0  0  0  0  0  0  0  0  0  0  0  0
    2.5268   -1.0465    1.1545 H   0  0  0  0  0  0  0  0  0  0  0  0
   -0.1936   -2.2361   -0.8625 H   0  0  0  0  0  0  0  0  0  0  0  0
   -0.7511   -1.1205    1.6023 H   0  0  0  0  0  0  0  0  0  0  0  0
   -2.1265   -1.8670    0.6844 H   0  0  0  0  0  0  0  0  0  0  0  0
   -2.9392    0.1911    0.1242 H   0  0  0  0  0  0  0  0  0  0  0  0
   -1.8951    0.8231    1.5120 H   0  0  0  0  0  0  0  0  0  0  0  0
   -1.2469    1.8330   -0.9036 H   0  0  0  0  0  0  0  0  0  0  0  0
   -1.9463   -0.5460   -1.8206 H   0  0  0  0  0  0  0  0  0  0  0  0
   -0.2176   -0.0574   -2.2712 H   0  0  0  0  0  0  0  0  0  0  0  0
  1  2  1  0
  2  3  2  0
  3  4  1  0
  3  5  1  0
  5  6  1  0
  6  7  1  0
  7  8  1  0
  8  9  1  0
  8  2  1  0
  9  5  1  0
  1 10  1  0
  1 11  1  0
  1 12  1  0
  4 13  1  0
  4 14  1  0
  4 15  1  0
  5 16  1  0
  6 17  1  0
  6 18  1  0
  7 19  1  0
  7 20  1  0
  8 21  1  0
  9 22  1  0
  9 23  1  0
M  END
