
     RDKit          3D

 21 22  0  0  0  0  0  0  0  0999 V2000
    2.9083    0.2333    0.2186 C   0  0  0  0  0  0  0  0  0  0  0  0
    1.4451    0.0654   -0.0068 C   0  0  0  0  0  0  0  0  0  0  0  0
    0.7866    0.9699   -0.6858 C   0  0  0  0  0  0  0  0  0  0  0  0
   -0.6670    0.8846   -0.9577 C   0  0  0  0  0  0  0  0  0  0  0  0
   -1.3914   -0.1180   -0.1362 C   0  0  0  0  0  0  0  0  0  0  0  0
   -2.8207    0.2641    0.2080 C   0  0  0  0  0  0  0  0  0  0  0  0
   -1.3335   -1.4820   -0.5985 O   0  0  0  0  0  0  0  0  0  0  0  0
   -0.6991   -1.0038    0.6602 C   0  0  0  0  0  0  0  0  0  0  0  0
    0.7759   -1.1431    0.5571 C   0  0  0  0  0  0  0  0  0  0  0  0
    3.4946   -0.0957   -0.6741 H   0  0  0  0  0  0  0  0  0  0  0  0
    3.1657    1.2806    0.4686 H   0  0  0  0  0  0  0  0  0  0  0  0
    3.2682   -0.4125    1.0715 H   0  0  0  0  0  0  0  0  0  0  0  0
    1.3326    1.8213   -1.0664 H   0  0  0  0  0  0  0  0  0  0  0  0
   -0.7866    0.6337   -2.0473 H   0  0  0  0  0  0  0  0  0  0  0  0
   -1.0886    1.8978   -0.7517 H   0  0  0  0  0  0  0  0  0  0  0  0
   -3.4375    0.1063   -0.7160 H   0  0  0  0  0  0  0  0  0  0  0  0
   -3.2238   -0.3731    1.0268 H   0  0  0  0  0  0  0  0  0  0  0  0
   -2.8951    1.3473    0.4347 H   0  0  0  0  0  0  0  0  0  0  0  0
   -1.1729   -1.5037    1.5397 H   0  0  0  0  0  0  0  0  0  0  0  0
    1.2440   -1.3713    1.5592 H   0  0  0  0  0  0  0  0  0  0  0  0
    1.0952   -2.0010   -0.1039 H   0  0  0  0  0  0  0  0  0  0  0  0
  1  2  1  0
  2  3  2  0
  3  4  1  0
  4  5  1  0
  5  6  1  0
  5  7  1  0
  7  8  1  0
  8  9  1  0
  9  2  1  0
  8  5  1  0
  1 10  1  0
  1 11  1  0
  1 12  1  0
  3 13  1  0
  4 14  1  0
  4 15  1  0
  6 16  1  0
  6 17  1  0
  6 18  1  0
  8 19  1  0
  9 20  1  0
  9 21  1  0
M  END
