
     RDKit          3D

 14 14  0  0  0  0  0  0  0  0999 V2000
   -1.9873    0.3220   -0.1930 C   0  0  0  0  0  0  0  0  0  0  0  0
   -0.4800    0.1691   -0.0271 C   0  0  0  0  0  0  0  0  0  0  0  0
    0.3667    1.1350    0.2305 C   0  0  0  0  0  0  0  0  0  0  0  0
    1.7240    0.6531    0.3261 C   0  0  0  0  0  0  0  0  0  0  0  0
    2.7955    1.2916    0.5608 O   0  0  0  0  0  0  0  0  0  0  0  0
    1.6569   -0.7736    0.0946 C   0  0  0  0  0  0  0  0  0  0  0  0
    2.6508   -1.5999    0.0906 O   0  0  0  0  0  0  0  0  0  0  0  0
    0.2439   -1.0945   -0.1335 C   0  0  0  0  0  0  0  0  0  0  0  0
   -2.2366    1.3819   -0.1752 H   0  0  0  0  0  0  0  0  0  0  0  0
   -2.3130   -0.1296   -1.1348 H   0  0  0  0  0  0  0  0  0  0  0  0
   -2.4903   -0.2165    0.6517 H   0  0  0  0  0  0  0  0  0  0  0  0
    0.0455    2.1794    0.3533 H   0  0  0  0  0  0  0  0  0  0  0  0
    0.1592   -1.4346   -1.1999 H   0  0  0  0  0  0  0  0  0  0  0  0
   -0.1352   -1.8833    0.5561 H   0  0  0  0  0  0  0  0  0  0  0  0
  1  2  1  0
  2  3  2  0
  3  4  1  0
  4  5  2  0
  4  6  1  0
  6  7  2  0
  6  8  1  0
  8  2  1  0
  1  9  1  0
  1 10  1  0
  1 11  1  0
  3 12  1  0
  8 13  1  0
  8 14  1  0
M  END
