
     RDKit          3D

 19 19  0  0  0  0  0  0  0  0999 V2000
    2.5500    0.3432   -0.0446 C   0  0  0  0  0  0  0  0  0  0  0  0
    1.0534    0.1658    0.0596 C   0  0  0  0  0  0  0  0  0  0  0  0
    0.3506    1.2753    0.0732 C   0  0  0  0  0  0  0  0  0  0  0  0
   -1.0976    1.3882    0.1656 C   0  0  0  0  0  0  0  0  0  0  0  0
   -1.4908    2.5985    0.1023 O   0  0  0  0  0  0  0  0  0  0  0  0
   -2.1509    0.3716    0.3152 C   0  0  0  0  0  0  0  0  0  0  0  0
   -1.8844   -0.8531   -0.4682 C   0  0  0  0  0  0  0  0  0  0  0  0
   -0.7022   -1.4758   -0.5033 C   0  0  0  0  0  0  0  0  0  0  0  0
    0.5770   -1.2082    0.1318 C   0  0  0  0  0  0  0  0  0  0  0  0
    2.8013    1.3803   -0.3656 H   0  0  0  0  0  0  0  0  0  0  0  0
    2.9276    0.2678    1.0096 H   0  0  0  0  0  0  0  0  0  0  0  0
    3.0099   -0.4374   -0.6512 H   0  0  0  0  0  0  0  0  0  0  0  0
    0.9288    2.2013    0.0077 H   0  0  0  0  0  0  0  0  0  0  0  0
   -2.2198    0.0914    1.3835 H   0  0  0  0  0  0  0  0  0  0  0  0
   -3.1279    0.8303    0.0491 H   0  0  0  0  0  0  0  0  0  0  0  0
   -2.7001   -1.2402   -1.0280 H   0  0  0  0  0  0  0  0  0  0  0  0
   -0.7334   -2.3529   -1.1404 H   0  0  0  0  0  0  0  0  0  0  0  0
    0.5500   -1.4891    1.2235 H   0  0  0  0  0  0  0  0  0  0  0  0
    1.3584   -1.8570   -0.3197 H   0  0  0  0  0  0  0  0  0  0  0  0
  1  2  1  0
  2  3  2  0
  3  4  1  0
  4  5  2  0
  4  6  1  0
  6  7  1  0
  7  8  2  0
  8  9  1  0
  9  2  1  0
  1 10  1  0
  1 11  1  0
  1 12  1  0
  3 13  1  0
  6 14  1  0
  6 15  1  0
  7 16  1  0
  8 17  1  0
  9 18  1  0
  9 19  1  0
M  END
