
     RDKit          3D

 25 25  0  0  0  0  0  0  0  0999 V2000
   -1.5842   -1.7455    0.4583 C   0  0  0  0  0  0  0  0  0  0  0  0
   -0.6816   -0.6623   -0.0915 C   0  0  0  0  0  0  0  0  0  0  0  0
    0.6280   -0.6769    0.0359 C   0  0  0  0  0  0  0  0  0  0  0  0
    1.4495   -1.7419    0.7332 C   0  0  0  0  0  0  0  0  0  0  0  0
    1.1739    0.5217   -0.6311 C   0  0  0  0  0  0  0  0  0  0  0  0
    2.4160    1.0482    0.0379 C   0  0  0  0  0  0  0  0  0  0  0  0
    0.0376    1.4841   -0.6233 C   0  0  0  0  0  0  0  0  0  0  0  0
   -1.1646    0.5354   -0.8182 C   0  0  0  0  0  0  0  0  0  0  0  0
   -2.3147    1.1172   -0.0291 C   0  0  0  0  0  0  0  0  0  0  0  0
   -2.6114   -1.6219    0.0940 H   0  0  0  0  0  0  0  0  0  0  0  0
   -1.2430   -2.7475    0.0662 H   0  0  0  0  0  0  0  0  0  0  0  0
   -1.5357   -1.8035    1.5475 H   0  0  0  0  0  0  0  0  0  0  0  0
    1.4391   -1.6030    1.8255 H   0  0  0  0  0  0  0  0  0  0  0  0
    2.4872   -1.6865    0.3942 H   0  0  0  0  0  0  0  0  0  0  0  0
    0.9549   -2.6944    0.5038 H   0  0  0  0  0  0  0  0  0  0  0  0
    1.4213    0.3081   -1.7141 H   0  0  0  0  0  0  0  0  0  0  0  0
    3.2847    0.5043   -0.3982 H   0  0  0  0  0  0  0  0  0  0  0  0
    2.5803    2.1226   -0.1101 H   0  0  0  0  0  0  0  0  0  0  0  0
    2.4276    0.8025    1.1262 H   0  0  0  0  0  0  0  0  0  0  0  0
    0.0459    2.2152   -1.4505 H   0  0  0  0  0  0  0  0  0  0  0  0
   -0.0659    2.0439    0.3175 H   0  0  0  0  0  0  0  0  0  0  0  0
   -1.3834    0.3690   -1.8704 H   0  0  0  0  0  0  0  0  0  0  0  0
   -2.9330    0.3571    0.4697 H   0  0  0  0  0  0  0  0  0  0  0  0
   -2.9203    1.7888   -0.6717 H   0  0  0  0  0  0  0  0  0  0  0  0
   -1.9081    1.7653    0.7985 H   0  0  0  0  0  0  0  0  0  0  0  0
  1  2  1  0
  2  3  2  0
  3  4  1  0
  3  5  1  0
  5  6  1  0
  5  7  1  0
  7  8  1  0
  8  9  1  0
  8  2  1  0
  1 10  1  0
  1 11  1  0
  1 12  1  0
  4 13  1  0
  4 14  1  0
  4 15  1  0
  5 16  1  0
  6 17  1  0
  6 18  1  0
  6 19  1  0
  7 20  1  0
  7 21  1  0
  8 22  1  0
  9 23  1  0
  9 24  1  0
  9 25  1  0
M  END
