
     RDKit          3D

 23 24  0  0  0  0  0  0  0  0999 V2000
   -2.1781    1.3075   -0.1738 C   0  0  0  0  0  0  0  0  0  0  0  0
   -0.7723    0.9085    0.1078 C   0  0  0  0  0  0  0  0  0  0  0  0
    0.1743    1.7931   -0.1723 C   0  0  0  0  0  0  0  0  0  0  0  0
    1.5835    1.3949    0.1094 C   0  0  0  0  0  0  0  0  0  0  0  0
    1.7179   -0.0331   -0.3732 C   0  0  0  0  0  0  0  0  0  0  0  0
    0.8971   -0.8788    0.5882 C   0  0  0  0  0  0  0  0  0  0  0  0
    0.4510   -2.1868   -0.0197 C   0  0  0  0  0  0  0  0  0  0  0  0
   -0.8925   -1.5463   -0.2899 C   0  0  0  0  0  0  0  0  0  0  0  0
   -0.5174   -0.4288    0.6740 C   0  0  0  0  0  0  0  0  0  0  0  0
   -2.8944    0.5532    0.1994 H   0  0  0  0  0  0  0  0  0  0  0  0
   -2.2556    1.4602   -1.2746 H   0  0  0  0  0  0  0  0  0  0  0  0
   -2.4317    2.2596    0.3383 H   0  0  0  0  0  0  0  0  0  0  0  0
   -0.0846    2.7600   -0.5880 H   0  0  0  0  0  0  0  0  0  0  0  0
    2.2993    2.0754   -0.3850 H   0  0  0  0  0  0  0  0  0  0  0  0
    1.7126    1.4743    1.2207 H   0  0  0  0  0  0  0  0  0  0  0  0
    1.3119   -0.0695   -1.4021 H   0  0  0  0  0  0  0  0  0  0  0  0
    2.7607   -0.3865   -0.3635 H   0  0  0  0  0  0  0  0  0  0  0  0
    1.4282   -0.9654    1.5599 H   0  0  0  0  0  0  0  0  0  0  0  0
    0.4195   -2.9818    0.7684 H   0  0  0  0  0  0  0  0  0  0  0  0
    0.9978   -2.5163   -0.9114 H   0  0  0  0  0  0  0  0  0  0  0  0
   -1.0569   -1.1841   -1.3093 H   0  0  0  0  0  0  0  0  0  0  0  0
   -1.6955   -2.1992    0.0500 H   0  0  0  0  0  0  0  0  0  0  0  0
   -0.9749   -0.6102    1.6468 H   0  0  0  0  0  0  0  0  0  0  0  0
  1  2  1  0
  2  3  2  0
  3  4  1  0
  4  5  1  0
  5  6  1  0
  6  7  1  0
  7  8  1  0
  8  9  1  0
  9  2  1  0
  9  6  1  0
  1 10  1  0
  1 11  1  0
  1 12  1  0
  3 13  1  0
  4 14  1  0
  4 15  1  0
  5 16  1  0
  5 17  1  0
  6 18  1  0
  7 19  1  0
  7 20  1  0
  8 21  1  0
  8 22  1  0
  9 23  1  0
M  END
