
     RDKit          3D

 23 23  0  0  0  0  0  0  0  0999 V2000
    1.9939    1.4316   -0.6127 C   0  0  0  0  0  0  0  0  0  0  0  0
    0.7395    0.7448   -0.2147 C   0  0  0  0  0  0  0  0  0  0  0  0
    0.6389   -0.5118    0.2035 C   0  0  0  0  0  0  0  0  0  0  0  0
    1.7495   -1.4942    0.3625 C   0  0  0  0  0  0  0  0  0  0  0  0
   -0.7846   -0.8251    0.5046 C   0  0  0  0  0  0  0  0  0  0  0  0
   -1.4102   -1.3350   -0.7760 C   0  0  0  0  0  0  0  0  0  0  0  0
   -1.3144    0.5532    0.8406 C   0  0  0  0  0  0  0  0  0  0  0  0
   -2.6855    0.6253    0.7723 O   0  0  0  0  0  0  0  0  0  0  0  0
   -0.6246    1.3888   -0.2283 C   0  0  0  0  0  0  0  0  0  0  0  0
    2.2484    1.1181   -1.6342 H   0  0  0  0  0  0  0  0  0  0  0  0
    1.8337    2.5331   -0.6403 H   0  0  0  0  0  0  0  0  0  0  0  0
    2.8007    1.2395    0.1180 H   0  0  0  0  0  0  0  0  0  0  0  0
    1.3516   -2.4746    0.0167 H   0  0  0  0  0  0  0  0  0  0  0  0
    2.0569   -1.6036    1.4207 H   0  0  0  0  0  0  0  0  0  0  0  0
    2.5988   -1.2477   -0.3079 H   0  0  0  0  0  0  0  0  0  0  0  0
   -0.9121   -1.5140    1.3446 H   0  0  0  0  0  0  0  0  0  0  0  0
   -0.6907   -1.3552   -1.6206 H   0  0  0  0  0  0  0  0  0  0  0  0
   -1.7572   -2.3699   -0.6078 H   0  0  0  0  0  0  0  0  0  0  0  0
   -2.2516   -0.6625   -1.0891 H   0  0  0  0  0  0  0  0  0  0  0  0
   -0.8942    0.8331    1.8167 H   0  0  0  0  0  0  0  0  0  0  0  0
   -2.9977    1.2650    1.4592 H   0  0  0  0  0  0  0  0  0  0  0  0
   -0.5791    2.4335    0.0870 H   0  0  0  0  0  0  0  0  0  0  0  0
   -1.1101    1.2277   -1.2149 H   0  0  0  0  0  0  0  0  0  0  0  0
  1  2  1  0
  2  3  2  0
  3  4  1  0
  3  5  1  0
  5  6  1  0
  5  7  1  0
  7  8  1  0
  7  9  1  0
  9  2  1  0
  1 10  1  0
  1 11  1  0
  1 12  1  0
  4 13  1  0
  4 14  1  0
  4 15  1  0
  5 16  1  0
  6 17  1  0
  6 18  1  0
  6 19  1  0
  7 20  1  0
  8 21  1  0
  9 22  1  0
  9 23  1  0
M  END
