
     RDKit          3D

 21 21  0  0  0  0  0  0  0  0999 V2000
    2.4831    0.7054   -0.1306 C   0  0  0  0  0  0  0  0  0  0  0  0
    1.0629    0.2807   -0.0625 C   0  0  0  0  0  0  0  0  0  0  0  0
    0.1518    1.0289   -0.6805 C   0  0  0  0  0  0  0  0  0  0  0  0
   -1.2597    0.5634   -0.5846 C   0  0  0  0  0  0  0  0  0  0  0  0
   -1.8827    0.9228    0.7434 C   0  0  0  0  0  0  0  0  0  0  0  0
   -1.3199   -0.9113   -0.7192 C   0  0  0  0  0  0  0  0  0  0  0  0
   -2.2838   -1.4025   -1.2874 O   0  0  0  0  0  0  0  0  0  0  0  0
   -0.2288   -1.7645   -0.1728 C   0  0  0  0  0  0  0  0  0  0  0  0
    0.7161   -0.9547    0.6870 C   0  0  0  0  0  0  0  0  0  0  0  0
    3.0453    0.3120    0.7453 H   0  0  0  0  0  0  0  0  0  0  0  0
    2.9860    0.3729   -1.0626 H   0  0  0  0  0  0  0  0  0  0  0  0
    2.5389    1.8260   -0.0330 H   0  0  0  0  0  0  0  0  0  0  0  0
    0.4303    1.9380   -1.2294 H   0  0  0  0  0  0  0  0  0  0  0  0
   -1.8173    1.0099   -1.4360 H   0  0  0  0  0  0  0  0  0  0  0  0
   -1.1266    1.4478    1.3728 H   0  0  0  0  0  0  0  0  0  0  0  0
   -2.7542    1.6055    0.6305 H   0  0  0  0  0  0  0  0  0  0  0  0
   -2.1975    0.0307    1.3211 H   0  0  0  0  0  0  0  0  0  0  0  0
    0.3144   -2.2544   -1.0059 H   0  0  0  0  0  0  0  0  0  0  0  0
   -0.6839   -2.5660    0.4399 H   0  0  0  0  0  0  0  0  0  0  0  0
    1.6222   -1.5429    0.8498 H   0  0  0  0  0  0  0  0  0  0  0  0
    0.2032   -0.6478    1.6148 H   0  0  0  0  0  0  0  0  0  0  0  0
  1  2  1  0
  2  3  2  0
  3  4  1  0
  4  5  1  0
  4  6  1  0
  6  7  2  0
  6  8  1  0
  8  9  1  0
  9  2  1  0
  1 10  1  0
  1 11  1  0
  1 12  1  0
  3 13  1  0
  4 14  1  0
  5 15  1  0
  5 16  1  0
  5 17  1  0
  8 18  1  0
  8 19  1  0
  9 20  1  0
  9 21  1  0
M  END
