
     RDKit          3D

 17 18  0  0  0  0  0  0  0  0999 V2000
    1.9405    0.4860   -0.6623 C   0  0  0  0  0  0  0  0  0  0  0  0
    0.7411   -0.0624    0.0336 C   0  0  0  0  0  0  0  0  0  0  0  0
    0.2282    0.2509    1.2233 C   0  0  0  0  0  0  0  0  0  0  0  0
   -0.9382   -0.5672    1.4488 C   0  0  0  0  0  0  0  0  0  0  0  0
   -2.1815   -0.6208    1.0493 O   0  0  0  0  0  0  0  0  0  0  0  0
   -1.4593   -0.4328   -0.0148 C   0  0  0  0  0  0  0  0  0  0  0  0
   -1.5442    0.9593   -0.5389 C   0  0  0  0  0  0  0  0  0  0  0  0
   -2.2090    1.8275   -0.0114 O   0  0  0  0  0  0  0  0  0  0  0  0
   -0.2124   -1.1151   -0.5295 C   0  0  0  0  0  0  0  0  0  0  0  0
    2.1406    1.4835   -0.2185 H   0  0  0  0  0  0  0  0  0  0  0  0
    1.8106    0.5237   -1.7584 H   0  0  0  0  0  0  0  0  0  0  0  0
    2.7845   -0.2155   -0.4717 H   0  0  0  0  0  0  0  0  0  0  0  0
    0.6925    1.0266    1.8628 H   0  0  0  0  0  0  0  0  0  0  0  0
   -0.6004   -1.6146    1.7610 H   0  0  0  0  0  0  0  0  0  0  0  0
   -1.0007    1.2322   -1.4246 H   0  0  0  0  0  0  0  0  0  0  0  0
   -0.1743   -1.0588   -1.6151 H   0  0  0  0  0  0  0  0  0  0  0  0
   -0.0179   -2.1025   -0.1337 H   0  0  0  0  0  0  0  0  0  0  0  0
  1  2  1  0
  2  3  2  0
  3  4  1  0
  4  5  1  0
  5  6  1  0
  6  7  1  0
  7  8  2  0
  6  9  1  0
  9  2  1  0
  6  4  1  0
  1 10  1  0
  1 11  1  0
  1 12  1  0
  3 13  1  0
  4 14  1  0
  7 15  1  0
  9 16  1  0
  9 17  1  0
M  END
