
     RDKit          3D

 19 19  0  0  0  0  0  0  0  0999 V2000
    2.2060    0.2486    0.1426 C   0  0  0  0  0  0  0  0  0  0  0  0
    0.8139   -0.1808   -0.1353 C   0  0  0  0  0  0  0  0  0  0  0  0
    0.4301   -1.0993   -1.0059 C   0  0  0  0  0  0  0  0  0  0  0  0
   -1.0196   -1.2165   -0.9678 C   0  0  0  0  0  0  0  0  0  0  0  0
   -1.7940   -1.7297   -1.8051 O   0  0  0  0  0  0  0  0  0  0  0  0
   -1.4695   -0.5938    0.2983 C   0  0  0  0  0  0  0  0  0  0  0  0
   -1.4898   -1.5598    1.3179 O   0  0  0  0  0  0  0  0  0  0  0  0
   -0.3619    0.3964    0.5629 C   0  0  0  0  0  0  0  0  0  0  0  0
   -0.6670    1.7552   -0.0576 C   0  0  0  0  0  0  0  0  0  0  0  0
    2.6362   -0.4403    0.9023 H   0  0  0  0  0  0  0  0  0  0  0  0
    2.2332    1.2779    0.5804 H   0  0  0  0  0  0  0  0  0  0  0  0
    2.8599    0.2184   -0.7412 H   0  0  0  0  0  0  0  0  0  0  0  0
    1.0782   -1.6953   -1.6666 H   0  0  0  0  0  0  0  0  0  0  0  0
   -2.4584   -0.1441    0.2402 H   0  0  0  0  0  0  0  0  0  0  0  0
   -0.6065   -2.0379    1.3706 H   0  0  0  0  0  0  0  0  0  0  0  0
   -0.2340    0.5065    1.6360 H   0  0  0  0  0  0  0  0  0  0  0  0
   -1.3869    1.6590   -0.9035 H   0  0  0  0  0  0  0  0  0  0  0  0
   -1.0344    2.4438    0.7309 H   0  0  0  0  0  0  0  0  0  0  0  0
    0.2644    2.1918   -0.4991 H   0  0  0  0  0  0  0  0  0  0  0  0
  1  2  1  0
  2  3  2  0
  3  4  1  0
  4  5  2  0
  4  6  1  0
  6  7  1  0
  6  8  1  0
  8  9  1  0
  8  2  1  0
  1 10  1  0
  1 11  1  0
  1 12  1  0
  3 13  1  0
  6 14  1  0
  7 15  1  0
  8 16  1  0
  9 17  1  0
  9 18  1  0
  9 19  1  0
M  END
