
     RDKit          3D

 23 23  0  0  0  0  0  0  0  0999 V2000
    3.0545   -0.5720    0.1630 C   0  0  0  0  0  0  0  0  0  0  0  0
    1.6713   -0.1408   -0.0523 C   0  0  0  0  0  0  0  0  0  0  0  0
    0.9682   -0.5394   -1.1210 C   0  0  0  0  0  0  0  0  0  0  0  0
   -0.4176   -0.0263   -1.2112 C   0  0  0  0  0  0  0  0  0  0  0  0
   -1.1046    0.0269    0.1323 C   0  0  0  0  0  0  0  0  0  0  0  0
   -2.0216   -1.1919    0.1961 C   0  0  0  0  0  0  0  0  0  0  0  0
   -1.9453    1.2986    0.2497 C   0  0  0  0  0  0  0  0  0  0  0  0
   -0.2374    0.0232    1.2140 O   0  0  0  0  0  0  0  0  0  0  0  0
    0.9141    0.7717    0.8842 C   0  0  0  0  0  0  0  0  0  0  0  0
    3.1535   -1.6218    0.4895 H   0  0  0  0  0  0  0  0  0  0  0  0
    3.5022    0.1436    0.9152 H   0  0  0  0  0  0  0  0  0  0  0  0
    3.6671   -0.3945   -0.7677 H   0  0  0  0  0  0  0  0  0  0  0  0
    1.4203   -1.2035   -1.8630 H   0  0  0  0  0  0  0  0  0  0  0  0
   -1.0280   -0.5958   -1.9537 H   0  0  0  0  0  0  0  0  0  0  0  0
   -0.3819    1.0214   -1.6288 H   0  0  0  0  0  0  0  0  0  0  0  0
   -1.8972   -1.7309    1.1584 H   0  0  0  0  0  0  0  0  0  0  0  0
   -3.0719   -0.8346    0.0536 H   0  0  0  0  0  0  0  0  0  0  0  0
   -1.7837   -1.9279   -0.5994 H   0  0  0  0  0  0  0  0  0  0  0  0
   -1.7552    1.8351    1.1963 H   0  0  0  0  0  0  0  0  0  0  0  0
   -1.7564    1.9835   -0.6173 H   0  0  0  0  0  0  0  0  0  0  0  0
   -3.0368    1.0327    0.1958 H   0  0  0  0  0  0  0  0  0  0  0  0
    0.5790    1.6260    0.2865 H   0  0  0  0  0  0  0  0  0  0  0  0
    1.5074    1.0165    1.7680 H   0  0  0  0  0  0  0  0  0  0  0  0
  1  2  1  0
  2  3  2  0
  3  4  1  0
  4  5  1  0
  5  6  1  0
  5  7  1  0
  5  8  1  0
  8  9  1  0
  9  2  1  0
  1 10  1  0
  1 11  1  0
  1 12  1  0
  3 13  1  0
  4 14  1  0
  4 15  1  0
  6 16  1  0
  6 17  1  0
  6 18  1  0
  7 19  1  0
  7 20  1  0
  7 21  1  0
  9 22  1  0
  9 23  1  0
M  END
