
     RDKit          3D

 23 23  0  0  0  0  0  0  0  0999 V2000
    2.3158    0.6166    0.2519 C   0  0  0  0  0  0  0  0  0  0  0  0
    0.9427    0.0529    0.1654 C   0  0  0  0  0  0  0  0  0  0  0  0
   -0.1133    0.7335   -0.2209 C   0  0  0  0  0  0  0  0  0  0  0  0
    0.0600    2.1724   -0.6024 C   0  0  0  0  0  0  0  0  0  0  0  0
   -1.4894    0.1828   -0.3117 C   0  0  0  0  0  0  0  0  0  0  0  0
   -2.3920    0.9563    0.4167 O   0  0  0  0  0  0  0  0  0  0  0  0
   -1.5871   -1.2435    0.1090 C   0  0  0  0  0  0  0  0  0  0  0  0
   -0.3019   -1.9509   -0.3394 C   0  0  0  0  0  0  0  0  0  0  0  0
    0.7893   -1.3882    0.5511 C   0  0  0  0  0  0  0  0  0  0  0  0
    2.3493    1.7021    0.3213 H   0  0  0  0  0  0  0  0  0  0  0  0
    2.7794    0.1926    1.1694 H   0  0  0  0  0  0  0  0  0  0  0  0
    2.9248    0.2142   -0.5968 H   0  0  0  0  0  0  0  0  0  0  0  0
   -0.7329    2.4621   -1.3535 H   0  0  0  0  0  0  0  0  0  0  0  0
   -0.1200    2.8483    0.2755 H   0  0  0  0  0  0  0  0  0  0  0  0
    1.0188    2.3653   -1.0948 H   0  0  0  0  0  0  0  0  0  0  0  0
   -1.7793    0.2326   -1.3975 H   0  0  0  0  0  0  0  0  0  0  0  0
   -2.1537    0.8976    1.3778 H   0  0  0  0  0  0  0  0  0  0  0  0
   -1.6000   -1.3097    1.2062 H   0  0  0  0  0  0  0  0  0  0  0  0
   -2.4629   -1.7403   -0.3721 H   0  0  0  0  0  0  0  0  0  0  0  0
   -0.3741   -3.0361   -0.2536 H   0  0  0  0  0  0  0  0  0  0  0  0
   -0.1586   -1.6345   -1.4016 H   0  0  0  0  0  0  0  0  0  0  0  0
    1.7211   -1.9465    0.5114 H   0  0  0  0  0  0  0  0  0  0  0  0
    0.3640   -1.3796    1.5886 H   0  0  0  0  0  0  0  0  0  0  0  0
  1  2  1  0
  2  3  2  0
  3  4  1  0
  3  5  1  0
  5  6  1  0
  5  7  1  0
  7  8  1  0
  8  9  1  0
  9  2  1  0
  1 10  1  0
  1 11  1  0
  1 12  1  0
  4 13  1  0
  4 14  1  0
  4 15  1  0
  5 16  1  0
  6 17  1  0
  7 18  1  0
  7 19  1  0
  8 20  1  0
  8 21  1  0
  9 22  1  0
  9 23  1  0
M  END
