
     RDKit          3D

 21 22  0  0  0  0  0  0  0  0999 V2000
    3.0276   -0.2769   -0.6308 C   0  0  0  0  0  0  0  0  0  0  0  0
    1.5880    0.0156   -0.3239 C   0  0  0  0  0  0  0  0  0  0  0  0
    0.8329    1.0106   -0.7757 C   0  0  0  0  0  0  0  0  0  0  0  0
   -0.5312    0.9639   -0.2492 C   0  0  0  0  0  0  0  0  0  0  0  0
   -1.4068   -0.2211   -0.4683 C   0  0  0  0  0  0  0  0  0  0  0  0
   -2.8609   -0.1076   -0.1784 C   0  0  0  0  0  0  0  0  0  0  0  0
   -0.5015   -0.1432    0.7312 C   0  0  0  0  0  0  0  0  0  0  0  0
   -1.0356    0.1219    1.9793 O   0  0  0  0  0  0  0  0  0  0  0  0
    0.8007   -0.8543    0.5934 C   0  0  0  0  0  0  0  0  0  0  0  0
    3.5663   -0.5361    0.3111 H   0  0  0  0  0  0  0  0  0  0  0  0
    3.5393    0.5784   -1.0791 H   0  0  0  0  0  0  0  0  0  0  0  0
    3.0251   -1.1913   -1.2551 H   0  0  0  0  0  0  0  0  0  0  0  0
    1.2060    1.7645   -1.4591 H   0  0  0  0  0  0  0  0  0  0  0  0
   -1.0831    1.9027    0.0042 H   0  0  0  0  0  0  0  0  0  0  0  0
   -1.1520   -0.9429   -1.2756 H   0  0  0  0  0  0  0  0  0  0  0  0
   -3.5044   -0.4333   -1.0058 H   0  0  0  0  0  0  0  0  0  0  0  0
   -3.0788   -0.7670    0.7084 H   0  0  0  0  0  0  0  0  0  0  0  0
   -3.0736    0.9261    0.1636 H   0  0  0  0  0  0  0  0  0  0  0  0
   -1.3667    1.0478    2.0441 H   0  0  0  0  0  0  0  0  0  0  0  0
    0.6730   -1.8309    0.0456 H   0  0  0  0  0  0  0  0  0  0  0  0
    1.3358   -1.0269    1.5278 H   0  0  0  0  0  0  0  0  0  0  0  0
  1  2  1  0
  2  3  2  0
  3  4  1  0
  4  5  1  0
  5  6  1  0
  5  7  1  0
  7  8  1  0
  7  9  1  0
  9  2  1  0
  7  4  1  0
  1 10  1  0
  1 11  1  0
  1 12  1  0
  3 13  1  0
  4 14  1  0
  5 15  1  0
  6 16  1  0
  6 17  1  0
  6 18  1  0
  8 19  1  0
  9 20  1  0
  9 21  1  0
M  END
