
     RDKit          3D

 17 17  0  0  0  0  0  0  0  0999 V2000
    2.4909    0.1102    0.3918 C   0  0  0  0  0  0  0  0  0  0  0  0
    1.0402   -0.2008    0.1979 C   0  0  0  0  0  0  0  0  0  0  0  0
    0.4634   -1.3915    0.1618 C   0  0  0  0  0  0  0  0  0  0  0  0
   -0.9656   -1.2395   -0.0450 C   0  0  0  0  0  0  0  0  0  0  0  0
   -1.7379   -2.0882   -0.4994 O   0  0  0  0  0  0  0  0  0  0  0  0
   -1.2651    0.1402    0.4077 C   0  0  0  0  0  0  0  0  0  0  0  0
   -2.4557    0.6990   -0.2283 C   0  0  0  0  0  0  0  0  0  0  0  0
   -3.5270    0.1706   -0.0606 O   0  0  0  0  0  0  0  0  0  0  0  0
    0.0109    0.8361   -0.0026 C   0  0  0  0  0  0  0  0  0  0  0  0
    2.8437    0.5399   -0.5686 H   0  0  0  0  0  0  0  0  0  0  0  0
    3.0702   -0.7842    0.6958 H   0  0  0  0  0  0  0  0  0  0  0  0
    2.5538    0.9040    1.1653 H   0  0  0  0  0  0  0  0  0  0  0  0
    0.9878   -2.3363    0.2709 H   0  0  0  0  0  0  0  0  0  0  0  0
   -1.3029    0.1902    1.5252 H   0  0  0  0  0  0  0  0  0  0  0  0
   -2.3763    1.5742   -0.8407 H   0  0  0  0  0  0  0  0  0  0  0  0
   -0.0309    1.1293   -1.0725 H   0  0  0  0  0  0  0  0  0  0  0  0
    0.2004    1.7467    0.5970 H   0  0  0  0  0  0  0  0  0  0  0  0
  1  2  1  0
  2  3  2  0
  3  4  1  0
  4  5  2  0
  4  6  1  0
  6  7  1  0
  7  8  2  0
  6  9  1  0
  9  2  1  0
  1 10  1  0
  1 11  1  0
  1 12  1  0
  3 13  1  0
  6 14  1  0
  7 15  1  0
  9 16  1  0
  9 17  1  0
M  END
