
     RDKit          3D

 23 23  0  0  0  0  0  0  0  0999 V2000
    2.9761    0.1422    0.0913 C   0  0  0  0  0  0  0  0  0  0  0  0
    1.5414   -0.0511   -0.2751 C   0  0  0  0  0  0  0  0  0  0  0  0
    0.8503    1.0823   -0.2694 C   0  0  0  0  0  0  0  0  0  0  0  0
   -0.5826    1.2485   -0.5820 C   0  0  0  0  0  0  0  0  0  0  0  0
   -1.3672    0.3233    0.3015 C   0  0  0  0  0  0  0  0  0  0  0  0
   -2.7925    0.8009    0.3381 C   0  0  0  0  0  0  0  0  0  0  0  0
   -1.3150   -1.0775   -0.1781 C   0  0  0  0  0  0  0  0  0  0  0  0
   -0.2323   -1.7603   -0.5193 C   0  0  0  0  0  0  0  0  0  0  0  0
    1.2097   -1.4518   -0.5613 C   0  0  0  0  0  0  0  0  0  0  0  0
    3.6300   -0.5942   -0.4275 H   0  0  0  0  0  0  0  0  0  0  0  0
    3.3051    1.1850   -0.0315 H   0  0  0  0  0  0  0  0  0  0  0  0
    3.0265   -0.0578    1.2001 H   0  0  0  0  0  0  0  0  0  0  0  0
    1.3573    2.0061   -0.0127 H   0  0  0  0  0  0  0  0  0  0  0  0
   -0.9316    2.2831   -0.3623 H   0  0  0  0  0  0  0  0  0  0  0  0
   -0.7992    1.0768   -1.6614 H   0  0  0  0  0  0  0  0  0  0  0  0
   -0.9262    0.3857    1.3304 H   0  0  0  0  0  0  0  0  0  0  0  0
   -3.1147    0.9900    1.3895 H   0  0  0  0  0  0  0  0  0  0  0  0
   -2.9304    1.7411   -0.2255 H   0  0  0  0  0  0  0  0  0  0  0  0
   -3.4684   -0.0066   -0.0316 H   0  0  0  0  0  0  0  0  0  0  0  0
   -2.2646   -1.6029   -0.2594 H   0  0  0  0  0  0  0  0  0  0  0  0
   -0.4592   -2.7725   -0.8389 H   0  0  0  0  0  0  0  0  0  0  0  0
    1.5639   -1.7437   -1.5929 H   0  0  0  0  0  0  0  0  0  0  0  0
    1.7234   -2.1465    0.1375 H   0  0  0  0  0  0  0  0  0  0  0  0
  1  2  1  0
  2  3  2  0
  3  4  1  0
  4  5  1  0
  5  6  1  0
  5  7  1  0
  7  8  2  0
  8  9  1  0
  9  2  1  0
  1 10  1  0
  1 11  1  0
  1 12  1  0
  3 13  1  0
  4 14  1  0
  4 15  1  0
  5 16  1  0
  6 17  1  0
  6 18  1  0
  6 19  1  0
  7 20  1  0
  8 21  1  0
  9 22  1  0
  9 23  1  0
M  END
