
     RDKit          3D

 19 20  0  0  0  0  0  0  0  0999 V2000
    2.6501    0.8296    0.0756 C   0  0  0  0  0  0  0  0  0  0  0  0
    1.4505   -0.0106   -0.0405 C   0  0  0  0  0  0  0  0  0  0  0  0
    1.2133   -1.2924    0.2386 C   0  0  0  0  0  0  0  0  0  0  0  0
   -0.2359   -1.4005   -0.1215 C   0  0  0  0  0  0  0  0  0  0  0  0
   -0.2279   -0.6951   -1.3483 O   0  0  0  0  0  0  0  0  0  0  0  0
    0.1093    0.4176   -0.5405 C   0  0  0  0  0  0  0  0  0  0  0  0
   -0.8329   -0.1704    0.4726 C   0  0  0  0  0  0  0  0  0  0  0  0
   -2.2637    0.1156    0.0647 C   0  0  0  0  0  0  0  0  0  0  0  0
   -2.7274    1.2817    0.6711 O   0  0  0  0  0  0  0  0  0  0  0  0
    3.2079    0.6763    1.0202 H   0  0  0  0  0  0  0  0  0  0  0  0
    2.3351    1.8935    0.0676 H   0  0  0  0  0  0  0  0  0  0  0  0
    3.3504    0.6864   -0.7931 H   0  0  0  0  0  0  0  0  0  0  0  0
    1.8255   -2.0940    0.6173 H   0  0  0  0  0  0  0  0  0  0  0  0
   -0.7169   -2.3366   -0.0798 H   0  0  0  0  0  0  0  0  0  0  0  0
   -0.0316    1.3864   -0.9246 H   0  0  0  0  0  0  0  0  0  0  0  0
   -0.6139    0.0459    1.5290 H   0  0  0  0  0  0  0  0  0  0  0  0
   -2.3162    0.3078   -1.0384 H   0  0  0  0  0  0  0  0  0  0  0  0
   -2.9309   -0.7527    0.2506 H   0  0  0  0  0  0  0  0  0  0  0  0
   -3.2447    1.1117    1.4920 H   0  0  0  0  0  0  0  0  0  0  0  0
  1  2  1  0
  2  3  2  0
  3  4  1  0
  4  5  1  0
  5  6  1  0
  6  7  1  0
  7  8  1  0
  8  9  1  0
  6  2  1  0
  7  4  1  0
  1 10  1  0
  1 11  1  0
  1 12  1  0
  3 13  1  0
  4 14  1  0
  6 15  1  0
  7 16  1  0
  8 17  1  0
  8 18  1  0
  9 19  1  0
M  END
