
     RDKit          3D

 19 21  0  0  0  0  0  0  0  0999 V2000
    2.6782    0.2428   -0.0146 C   0  0  0  0  0  0  0  0  0  0  0  0
    1.2011    0.0997    0.0985 C   0  0  0  0  0  0  0  0  0  0  0  0
    0.5104   -0.3480    1.1668 C   0  0  0  0  0  0  0  0  0  0  0  0
   -0.8824   -0.2959    0.7201 C   0  0  0  0  0  0  0  0  0  0  0  0
   -1.8801   -0.6887    1.5109 O   0  0  0  0  0  0  0  0  0  0  0  0
   -1.0059    0.9652   -0.0807 C   0  0  0  0  0  0  0  0  0  0  0  0
   -1.9267    0.1935   -0.9787 C   0  0  0  0  0  0  0  0  0  0  0  0
   -0.8097   -0.7695   -0.6996 C   0  0  0  0  0  0  0  0  0  0  0  0
    0.1242    0.3924   -0.8777 C   0  0  0  0  0  0  0  0  0  0  0  0
    3.0527   -0.6945   -0.4712 H   0  0  0  0  0  0  0  0  0  0  0  0
    3.0745    0.3370    1.0164 H   0  0  0  0  0  0  0  0  0  0  0  0
    2.9206    1.1384   -0.5977 H   0  0  0  0  0  0  0  0  0  0  0  0
    0.8629   -0.6753    2.1355 H   0  0  0  0  0  0  0  0  0  0  0  0
   -1.5720   -1.3423    2.1739 H   0  0  0  0  0  0  0  0  0  0  0  0
   -1.1142    1.8999    0.2562 H   0  0  0  0  0  0  0  0  0  0  0  0
   -2.8849   -0.0232   -0.4624 H   0  0  0  0  0  0  0  0  0  0  0  0
   -2.0038    0.5143   -2.0159 H   0  0  0  0  0  0  0  0  0  0  0  0
   -0.7004   -1.7029   -1.0360 H   0  0  0  0  0  0  0  0  0  0  0  0
    0.3554    0.7572   -1.8439 H   0  0  0  0  0  0  0  0  0  0  0  0
  1  2  1  0
  2  3  2  0
  3  4  1  0
  4  5  1  0
  4  6  1  0
  6  7  1  0
  7  8  1  0
  8  9  1  0
  9  2  1  0
  8  4  1  0
  9  6  1  0
  1 10  1  0
  1 11  1  0
  1 12  1  0
  3 13  1  0
  5 14  1  0
  6 15  1  0
  7 16  1  0
  7 17  1  0
  8 18  1  0
  9 19  1  0
M  END
