
     RDKit          3D

 21 21  0  0  0  0  0  0  0  0999 V2000
    2.9075   -0.7410    0.4446 C   0  0  0  0  0  0  0  0  0  0  0  0
    1.5699   -0.2734   -0.0019 C   0  0  0  0  0  0  0  0  0  0  0  0
    1.2708    1.0175    0.1331 C   0  0  0  0  0  0  0  0  0  0  0  0
    0.0920    1.8338   -0.1806 C   0  0  0  0  0  0  0  0  0  0  0  0
   -1.2065    1.1474    0.0287 C   0  0  0  0  0  0  0  0  0  0  0  0
   -1.5698   -0.1126   -0.1489 C   0  0  0  0  0  0  0  0  0  0  0  0
   -2.9797   -0.4521    0.1679 C   0  0  0  0  0  0  0  0  0  0  0  0
   -0.6987   -1.1801   -0.6254 C   0  0  0  0  0  0  0  0  0  0  0  0
    0.6445   -1.2610   -0.5687 C   0  0  0  0  0  0  0  0  0  0  0  0
    2.8169   -1.6685    1.0595 H   0  0  0  0  0  0  0  0  0  0  0  0
    3.5967   -0.9473   -0.3830 H   0  0  0  0  0  0  0  0  0  0  0  0
    3.3161    0.0362    1.1455 H   0  0  0  0  0  0  0  0  0  0  0  0
    2.1182    1.5595    0.5820 H   0  0  0  0  0  0  0  0  0  0  0  0
    0.1314    2.1950   -1.2381 H   0  0  0  0  0  0  0  0  0  0  0  0
    0.1192    2.7479    0.4462 H   0  0  0  0  0  0  0  0  0  0  0  0
   -2.0133    1.8064    0.3988 H   0  0  0  0  0  0  0  0  0  0  0  0
   -3.0359   -1.0868    1.0918 H   0  0  0  0  0  0  0  0  0  0  0  0
   -3.5251    0.4900    0.3601 H   0  0  0  0  0  0  0  0  0  0  0  0
   -3.4829   -0.9818   -0.6643 H   0  0  0  0  0  0  0  0  0  0  0  0
   -1.1992   -2.0017   -1.0763 H   0  0  0  0  0  0  0  0  0  0  0  0
    1.1280   -2.1272   -0.9710 H   0  0  0  0  0  0  0  0  0  0  0  0
  1  2  1  0
  2  3  2  0
  3  4  1  0
  4  5  1  0
  5  6  2  0
  6  7  1  0
  6  8  1  0
  8  9  2  0
  9  2  1  0
  1 10  1  0
  1 11  1  0
  1 12  1  0
  3 13  1  0
  4 14  1  0
  4 15  1  0
  5 16  1  0
  7 17  1  0
  7 18  1  0
  7 19  1  0
  8 20  1  0
  9 21  1  0
M  END
