
     RDKit          3D

 19 20  0  0  0  0  0  0  0  0999 V2000
   -1.4464   -1.5984   -0.1109 C   0  0  0  0  0  0  0  0  0  0  0  0
   -1.0005   -0.1974    0.0177 C   0  0  0  0  0  0  0  0  0  0  0  0
    0.1921    0.2590   -0.2389 C   0  0  0  0  0  0  0  0  0  0  0  0
    1.3648   -0.4967   -0.7110 C   0  0  0  0  0  0  0  0  0  0  0  0
    2.5618   -0.4345    0.2385 C   0  0  0  0  0  0  0  0  0  0  0  0
    2.5304    0.1725   -1.0545 O   0  0  0  0  0  0  0  0  0  0  0  0
    0.1956    1.7263    0.0279 C   0  0  0  0  0  0  0  0  0  0  0  0
   -1.0267    2.0317    0.5839 O   0  0  0  0  0  0  0  0  0  0  0  0
   -1.8497    0.9395    0.4672 C   0  0  0  0  0  0  0  0  0  0  0  0
   -2.3859   -1.5923   -0.7018 H   0  0  0  0  0  0  0  0  0  0  0  0
   -0.6939   -2.2271   -0.6196 H   0  0  0  0  0  0  0  0  0  0  0  0
   -1.6440   -2.0179    0.9060 H   0  0  0  0  0  0  0  0  0  0  0  0
    1.1327   -1.4686   -1.1772 H   0  0  0  0  0  0  0  0  0  0  0  0
    2.5696    0.3067    1.0404 H   0  0  0  0  0  0  0  0  0  0  0  0
    3.1095   -1.3908    0.3311 H   0  0  0  0  0  0  0  0  0  0  0  0
    0.3136    2.2132   -0.9790 H   0  0  0  0  0  0  0  0  0  0  0  0
    1.0281    2.0042    0.6918 H   0  0  0  0  0  0  0  0  0  0  0  0
   -2.2280    0.6706    1.4835 H   0  0  0  0  0  0  0  0  0  0  0  0
   -2.7233    1.1000   -0.1952 H   0  0  0  0  0  0  0  0  0  0  0  0
  1  2  1  0
  2  3  2  0
  3  4  1  0
  4  5  1  0
  5  6  1  0
  3  7  1  0
  7  8  1  0
  8  9  1  0
  9  2  1  0
  6  4  1  0
  1 10  1  0
  1 11  1  0
  1 12  1  0
  4 13  1  0
  5 14  1  0
  5 15  1  0
  7 16  1  0
  7 17  1  0
  9 18  1  0
  9 19  1  0
M  END
