
     RDKit          3D

 17 18  0  0  0  0  0  0  0  0999 V2000
    2.4152   -0.1557   -0.0707 C   0  0  0  0  0  0  0  0  0  0  0  0
    0.9171   -0.0100   -0.0998 C   0  0  0  0  0  0  0  0  0  0  0  0
    0.2209   -1.1153   -0.1702 C   0  0  0  0  0  0  0  0  0  0  0  0
   -1.2516   -1.0995   -0.2048 C   0  0  0  0  0  0  0  0  0  0  0  0
   -1.8742    0.1345    0.3273 C   0  0  0  0  0  0  0  0  0  0  0  0
   -2.1311    1.1382   -0.6241 O   0  0  0  0  0  0  0  0  0  0  0  0
   -1.1453    1.3489    0.3360 C   0  0  0  0  0  0  0  0  0  0  0  0
    0.2718    1.2800   -0.0540 C   0  0  0  0  0  0  0  0  0  0  0  0
    0.9178    2.3040   -0.3422 O   0  0  0  0  0  0  0  0  0  0  0  0
    2.6539   -1.0938    0.4849 H   0  0  0  0  0  0  0  0  0  0  0  0
    2.7424   -0.1949   -1.1308 H   0  0  0  0  0  0  0  0  0  0  0  0
    2.8215    0.6993    0.4841 H   0  0  0  0  0  0  0  0  0  0  0  0
    0.7026   -2.1073   -0.2081 H   0  0  0  0  0  0  0  0  0  0  0  0
   -1.6006   -1.9943    0.3673 H   0  0  0  0  0  0  0  0  0  0  0  0
   -1.5391   -1.2562   -1.2867 H   0  0  0  0  0  0  0  0  0  0  0  0
   -2.6724   -0.0210    1.1114 H   0  0  0  0  0  0  0  0  0  0  0  0
   -1.4488    2.1432    1.0804 H   0  0  0  0  0  0  0  0  0  0  0  0
  1  2  1  0
  2  3  2  0
  3  4  1  0
  4  5  1  0
  5  6  1  0
  6  7  1  0
  7  8  1  0
  8  9  2  0
  8  2  1  0
  7  5  1  0
  1 10  1  0
  1 11  1  0
  1 12  1  0
  3 13  1  0
  4 14  1  0
  4 15  1  0
  5 16  1  0
  7 17  1  0
M  END
