
     RDKit          3D

 21 22  0  0  0  0  0  0  0  0999 V2000
    2.5296   -0.8960   -0.3381 C   0  0  0  0  0  0  0  0  0  0  0  0
    1.2574   -0.2895    0.1373 C   0  0  0  0  0  0  0  0  0  0  0  0
    0.0831   -0.5310   -0.4001 C   0  0  0  0  0  0  0  0  0  0  0  0
   -1.1411   -0.9255   -1.1337 C   0  0  0  0  0  0  0  0  0  0  0  0
   -1.8199   -0.7918    0.2482 C   0  0  0  0  0  0  0  0  0  0  0  0
   -0.8627    0.3331    0.4193 C   0  0  0  0  0  0  0  0  0  0  0  0
   -1.2961    1.5812   -0.2519 C   0  0  0  0  0  0  0  0  0  0  0  0
   -0.2176    0.5112    1.6244 O   0  0  0  0  0  0  0  0  0  0  0  0
    1.1502    0.6679    1.2990 C   0  0  0  0  0  0  0  0  0  0  0  0
    3.1842   -1.1003    0.5597 H   0  0  0  0  0  0  0  0  0  0  0  0
    3.0123   -0.1490   -1.0168 H   0  0  0  0  0  0  0  0  0  0  0  0
    2.3922   -1.8235   -0.8901 H   0  0  0  0  0  0  0  0  0  0  0  0
   -1.4500   -0.1478   -1.8322 H   0  0  0  0  0  0  0  0  0  0  0  0
   -1.1898   -1.9720   -1.4661 H   0  0  0  0  0  0  0  0  0  0  0  0
   -2.8818   -0.5809    0.2102 H   0  0  0  0  0  0  0  0  0  0  0  0
   -1.4992   -1.6655    0.8620 H   0  0  0  0  0  0  0  0  0  0  0  0
   -2.3825    1.4939   -0.5346 H   0  0  0  0  0  0  0  0  0  0  0  0
   -1.2508    2.4428    0.4555 H   0  0  0  0  0  0  0  0  0  0  0  0
   -0.7049    1.8673   -1.1392 H   0  0  0  0  0  0  0  0  0  0  0  0
    1.7048    0.2839    2.1733 H   0  0  0  0  0  0  0  0  0  0  0  0
    1.3827    1.6915    1.0139 H   0  0  0  0  0  0  0  0  0  0  0  0
  1  2  1  0
  2  3  2  0
  3  4  1  0
  4  5  1  0
  5  6  1  0
  6  7  1  0
  6  8  1  0
  8  9  1  0
  9  2  1  0
  6  3  1  0
  1 10  1  0
  1 11  1  0
  1 12  1  0
  4 13  1  0
  4 14  1  0
  5 15  1  0
  5 16  1  0
  7 17  1  0
  7 18  1  0
  7 19  1  0
  9 20  1  0
  9 21  1  0
M  END
