
     RDKit          3D

 17 17  0  0  0  0  0  0  0  0999 V2000
   -2.5336    0.6534   -0.2143 C   0  0  0  0  0  0  0  0  0  0  0  0
   -1.1954    0.0372   -0.0435 C   0  0  0  0  0  0  0  0  0  0  0  0
   -0.0581    0.6562   -0.2647 C   0  0  0  0  0  0  0  0  0  0  0  0
    1.0362   -0.3056    0.0218 C   0  0  0  0  0  0  0  0  0  0  0  0
    1.9743    0.2724    0.9091 O   0  0  0  0  0  0  0  0  0  0  0  0
    3.2786    0.4404    0.4919 C   0  0  0  0  0  0  0  0  0  0  0  0
    3.5781    0.0685   -0.6698 O   0  0  0  0  0  0  0  0  0  0  0  0
    0.4541   -1.3923    0.6545 O   0  0  0  0  0  0  0  0  0  0  0  0
   -0.9024   -1.3435    0.3933 C   0  0  0  0  0  0  0  0  0  0  0  0
   -3.2855    0.2572    0.4818 H   0  0  0  0  0  0  0  0  0  0  0  0
   -2.8132    0.5182   -1.2833 H   0  0  0  0  0  0  0  0  0  0  0  0
   -2.4842    1.7684   -0.0583 H   0  0  0  0  0  0  0  0  0  0  0  0
    0.1110    1.6735   -0.5941 H   0  0  0  0  0  0  0  0  0  0  0  0
    1.5085   -0.5547   -0.9340 H   0  0  0  0  0  0  0  0  0  0  0  0
    4.0592    0.8749    1.1093 H   0  0  0  0  0  0  0  0  0  0  0  0
   -1.2140   -2.1014   -0.3602 H   0  0  0  0  0  0  0  0  0  0  0  0
   -1.5136   -1.5230    1.3192 H   0  0  0  0  0  0  0  0  0  0  0  0
  1  2  1  0
  2  3  2  0
  3  4  1  0
  4  5  1  0
  5  6  1  0
  6  7  2  0
  4  8  1  0
  8  9  1  0
  9  2  1  0
  1 10  1  0
  1 11  1  0
  1 12  1  0
  3 13  1  0
  4 14  1  0
  6 15  1  0
  9 16  1  0
  9 17  1  0
M  END
