
     RDKit          3D

 19 19  0  0  0  0  0  0  0  0999 V2000
    2.7452   -0.4945    0.1235 C   0  0  0  0  0  0  0  0  0  0  0  0
    1.2962   -0.1733   -0.0711 C   0  0  0  0  0  0  0  0  0  0  0  0
    1.0170    1.0971   -0.3362 C   0  0  0  0  0  0  0  0  0  0  0  0
   -0.2754    1.7273   -0.5745 C   0  0  0  0  0  0  0  0  0  0  0  0
   -1.4539    1.2279   -0.2528 C   0  0  0  0  0  0  0  0  0  0  0  0
   -1.8653   -0.0079    0.3921 C   0  0  0  0  0  0  0  0  0  0  0  0
   -3.1250   -0.3734   -0.1384 O   0  0  0  0  0  0  0  0  0  0  0  0
   -0.9700   -1.1520    0.2335 C   0  0  0  0  0  0  0  0  0  0  0  0
    0.3361   -1.2415    0.0416 C   0  0  0  0  0  0  0  0  0  0  0  0
    2.9144   -1.1714    0.9652 H   0  0  0  0  0  0  0  0  0  0  0  0
    3.3082    0.4521    0.2307 H   0  0  0  0  0  0  0  0  0  0  0  0
    3.1660   -0.9969   -0.7811 H   0  0  0  0  0  0  0  0  0  0  0  0
    1.8490    1.7916   -0.3901 H   0  0  0  0  0  0  0  0  0  0  0  0
   -0.3011    2.6947   -1.0585 H   0  0  0  0  0  0  0  0  0  0  0  0
   -2.2803    1.8857   -0.5331 H   0  0  0  0  0  0  0  0  0  0  0  0
   -2.0441    0.1386    1.4762 H   0  0  0  0  0  0  0  0  0  0  0  0
   -3.5713   -1.0520    0.4296 H   0  0  0  0  0  0  0  0  0  0  0  0
   -1.4884   -2.1197    0.2856 H   0  0  0  0  0  0  0  0  0  0  0  0
    0.7427   -2.2324   -0.0423 H   0  0  0  0  0  0  0  0  0  0  0  0
  1  2  1  0
  2  3  2  0
  3  4  1  0
  4  5  2  0
  5  6  1  0
  6  7  1  0
  6  8  1  0
  8  9  2  0
  9  2  1  0
  1 10  1  0
  1 11  1  0
  1 12  1  0
  3 13  1  0
  4 14  1  0
  5 15  1  0
  6 16  1  0
  7 17  1  0
  8 18  1  0
  9 19  1  0
M  END
