
     RDKit          3D

 21 22  0  0  0  0  0  0  0  0999 V2000
    2.6258    0.0154   -0.1490 C   0  0  0  0  0  0  0  0  0  0  0  0
    1.1879    0.3401    0.0239 C   0  0  0  0  0  0  0  0  0  0  0  0
    0.6141    1.4542   -0.3772 C   0  0  0  0  0  0  0  0  0  0  0  0
   -0.8157    1.4563   -0.0522 C   0  0  0  0  0  0  0  0  0  0  0  0
   -1.1097    0.1383    0.5621 C   0  0  0  0  0  0  0  0  0  0  0  0
   -1.8621    0.2502    1.7197 O   0  0  0  0  0  0  0  0  0  0  0  0
   -1.6244   -0.9471   -0.3241 C   0  0  0  0  0  0  0  0  0  0  0  0
   -0.2748   -1.5945   -0.3185 C   0  0  0  0  0  0  0  0  0  0  0  0
    0.2060   -0.5395    0.6675 C   0  0  0  0  0  0  0  0  0  0  0  0
    3.1215    0.2042    0.8269 H   0  0  0  0  0  0  0  0  0  0  0  0
    2.7268   -1.0710   -0.4375 H   0  0  0  0  0  0  0  0  0  0  0  0
    3.0926    0.5762   -0.9853 H   0  0  0  0  0  0  0  0  0  0  0  0
    1.1119    2.2905   -0.8899 H   0  0  0  0  0  0  0  0  0  0  0  0
   -1.4371    1.7010   -0.9303 H   0  0  0  0  0  0  0  0  0  0  0  0
   -0.9744    2.2659    0.7179 H   0  0  0  0  0  0  0  0  0  0  0  0
   -2.6569    0.8212    1.4752 H   0  0  0  0  0  0  0  0  0  0  0  0
   -2.0081   -0.6496   -1.3058 H   0  0  0  0  0  0  0  0  0  0  0  0
   -2.3950   -1.5976    0.1746 H   0  0  0  0  0  0  0  0  0  0  0  0
   -0.1981   -2.6130    0.0574 H   0  0  0  0  0  0  0  0  0  0  0  0
    0.1920   -1.5300   -1.3262 H   0  0  0  0  0  0  0  0  0  0  0  0
    0.4778   -0.9710    1.6422 H   0  0  0  0  0  0  0  0  0  0  0  0
  1  2  1  0
  2  3  2  0
  3  4  1  0
  4  5  1  0
  5  6  1  0
  5  7  1  0
  7  8  1  0
  8  9  1  0
  9  2  1  0
  9  5  1  0
  1 10  1  0
  1 11  1  0
  1 12  1  0
  3 13  1  0
  4 14  1  0
  4 15  1  0
  6 16  1  0
  7 17  1  0
  7 18  1  0
  8 19  1  0
  8 20  1  0
  9 21  1  0
M  END
