
     RDKit          3D

 16 16  0  0  0  0  0  0  0  0999 V2000
    1.9753   -0.6572   -0.1527 C   0  0  0  0  0  0  0  0  0  0  0  0
    0.5621   -0.2219    0.0169 C   0  0  0  0  0  0  0  0  0  0  0  0
   -0.3783   -1.0677   -0.3860 C   0  0  0  0  0  0  0  0  0  0  0  0
   -1.8077   -0.7193   -0.2562 C   0  0  0  0  0  0  0  0  0  0  0  0
   -1.9109    0.6977   -0.4679 O   0  0  0  0  0  0  0  0  0  0  0  0
   -1.0233    1.5853    0.0851 C   0  0  0  0  0  0  0  0  0  0  0  0
   -1.3171    2.8039    0.1388 O   0  0  0  0  0  0  0  0  0  0  0  0
    0.2725    1.1072    0.6147 C   0  0  0  0  0  0  0  0  0  0  0  0
    2.2078   -0.5280   -1.2456 H   0  0  0  0  0  0  0  0  0  0  0  0
    2.0904   -1.7405    0.1346 H   0  0  0  0  0  0  0  0  0  0  0  0
    2.6651   -0.0053    0.3972 H   0  0  0  0  0  0  0  0  0  0  0  0
   -0.1350   -2.0435   -0.8244 H   0  0  0  0  0  0  0  0  0  0  0  0
   -2.4546   -1.2152   -0.9780 H   0  0  0  0  0  0  0  0  0  0  0  0
   -2.1009   -0.8753    0.8003 H   0  0  0  0  0  0  0  0  0  0  0  0
    1.0868    1.8452    0.3835 H   0  0  0  0  0  0  0  0  0  0  0  0
    0.2676    1.0346    1.7395 H   0  0  0  0  0  0  0  0  0  0  0  0
  1  2  1  0
  2  3  2  0
  3  4  1  0
  4  5  1  0
  5  6  1  0
  6  7  2  0
  6  8  1  0
  8  2  1  0
  1  9  1  0
  1 10  1  0
  1 11  1  0
  3 12  1  0
  4 13  1  0
  4 14  1  0
  8 15  1  0
  8 16  1  0
M  END
