
     RDKit          3D

 19 20  0  0  0  0  0  0  0  0999 V2000
   -2.5165    0.8668   -0.4895 C   0  0  0  0  0  0  0  0  0  0  0  0
   -1.2482    0.1712   -0.1298 C   0  0  0  0  0  0  0  0  0  0  0  0
   -0.0674    0.7798   -0.1523 C   0  0  0  0  0  0  0  0  0  0  0  0
    0.9651   -0.1824    0.2532 C   0  0  0  0  0  0  0  0  0  0  0  0
    2.3930    0.0848   -0.1989 C   0  0  0  0  0  0  0  0  0  0  0  0
    2.9373    0.9591    0.7562 O   0  0  0  0  0  0  0  0  0  0  0  0
    0.9001   -0.7656    1.5206 O   0  0  0  0  0  0  0  0  0  0  0  0
    0.3675   -1.4515    0.3739 C   0  0  0  0  0  0  0  0  0  0  0  0
   -1.1287   -1.2380    0.2864 C   0  0  0  0  0  0  0  0  0  0  0  0
   -2.3386    1.3639   -1.4621 H   0  0  0  0  0  0  0  0  0  0  0  0
   -3.3546    0.1677   -0.6263 H   0  0  0  0  0  0  0  0  0  0  0  0
   -2.7702    1.6723    0.2507 H   0  0  0  0  0  0  0  0  0  0  0  0
    0.1182    1.8223   -0.4252 H   0  0  0  0  0  0  0  0  0  0  0  0
    2.9793   -0.8624   -0.2299 H   0  0  0  0  0  0  0  0  0  0  0  0
    2.3799    0.5409   -1.2104 H   0  0  0  0  0  0  0  0  0  0  0  0
    2.7454    1.9014    0.4935 H   0  0  0  0  0  0  0  0  0  0  0  0
    0.7892   -2.4373    0.1458 H   0  0  0  0  0  0  0  0  0  0  0  0
   -1.5955   -1.9475   -0.4420 H   0  0  0  0  0  0  0  0  0  0  0  0
   -1.5553   -1.4454    1.2859 H   0  0  0  0  0  0  0  0  0  0  0  0
  1  2  1  0
  2  3  2  0
  3  4  1  0
  4  5  1  0
  5  6  1  0
  4  7  1  0
  7  8  1  0
  8  9  1  0
  9  2  1  0
  8  4  1  0
  1 10  1  0
  1 11  1  0
  1 12  1  0
  3 13  1  0
  5 14  1  0
  5 15  1  0
  6 16  1  0
  8 17  1  0
  9 18  1  0
  9 19  1  0
M  END
