
     RDKit          3D

 21 21  0  0  0  0  0  0  0  0999 V2000
   -2.1761   -0.8252    0.8107 C   0  0  0  0  0  0  0  0  0  0  0  0
   -0.9799   -0.2674    0.1323 C   0  0  0  0  0  0  0  0  0  0  0  0
   -0.1810   -1.2350   -0.2943 C   0  0  0  0  0  0  0  0  0  0  0  0
    1.1273   -1.3400   -1.0221 C   0  0  0  0  0  0  0  0  0  0  0  0
    1.6422   -0.0465   -1.1272 O   0  0  0  0  0  0  0  0  0  0  0  0
    2.1028    0.3156    0.1333 C   0  0  0  0  0  0  0  0  0  0  0  0
    1.3306    1.2510    0.7668 O   0  0  0  0  0  0  0  0  0  0  0  0
    0.3564    1.8288   -0.0349 C   0  0  0  0  0  0  0  0  0  0  0  0
   -0.9935    1.1962    0.1110 C   0  0  0  0  0  0  0  0  0  0  0  0
   -2.6479   -0.0423    1.4401 H   0  0  0  0  0  0  0  0  0  0  0  0
   -1.9871   -1.7671    1.3404 H   0  0  0  0  0  0  0  0  0  0  0  0
   -2.9188   -1.0643    0.0060 H   0  0  0  0  0  0  0  0  0  0  0  0
   -0.5978   -2.2020   -0.0427 H   0  0  0  0  0  0  0  0  0  0  0  0
    1.8126   -2.0033   -0.4516 H   0  0  0  0  0  0  0  0  0  0  0  0
    0.9891   -1.8085   -2.0103 H   0  0  0  0  0  0  0  0  0  0  0  0
    3.1708    0.6399   -0.0156 H   0  0  0  0  0  0  0  0  0  0  0  0
    2.1727   -0.5756    0.8225 H   0  0  0  0  0  0  0  0  0  0  0  0
    0.6761    1.9348   -1.0958 H   0  0  0  0  0  0  0  0  0  0  0  0
    0.2519    2.8917    0.3341 H   0  0  0  0  0  0  0  0  0  0  0  0
   -1.5976    1.5192   -0.7864 H   0  0  0  0  0  0  0  0  0  0  0  0
   -1.5527    1.5999    0.9838 H   0  0  0  0  0  0  0  0  0  0  0  0
  1  2  1  0
  2  3  2  3
  3  4  1  0
  4  5  1  0
  5  6  1  0
  6  7  1  0
  7  8  1  0
  8  9  1  0
  9  2  1  0
  1 10  1  0
  1 11  1  0
  1 12  1  0
  3 13  1  0
  4 14  1  0
  4 15  1  0
  6 16  1  0
  6 17  1  0
  8 18  1  0
  8 19  1  0
  9 20  1  0
  9 21  1  0
M  END
