
     RDKit          3D

 25 25  0  0  0  0  0  0  0  0999 V2000
    2.6050   -0.2720   -0.9092 C   0  0  0  0  0  0  0  0  0  0  0  0
    1.2997   -0.3537   -0.2153 C   0  0  0  0  0  0  0  0  0  0  0  0
    0.9014   -1.3996    0.4868 C   0  0  0  0  0  0  0  0  0  0  0  0
   -0.4433   -1.1116    1.0244 C   0  0  0  0  0  0  0  0  0  0  0  0
   -0.9879   -0.1275    0.0177 C   0  0  0  0  0  0  0  0  0  0  0  0
   -2.1629    0.6329    0.5467 C   0  0  0  0  0  0  0  0  0  0  0  0
   -1.2992   -0.8559   -1.2462 C   0  0  0  0  0  0  0  0  0  0  0  0
    0.2336    0.7168   -0.2085 C   0  0  0  0  0  0  0  0  0  0  0  0
    0.4687    1.7731    0.7937 C   0  0  0  0  0  0  0  0  0  0  0  0
    2.7272    0.7003   -1.3959 H   0  0  0  0  0  0  0  0  0  0  0  0
    2.6632   -1.1206   -1.6382 H   0  0  0  0  0  0  0  0  0  0  0  0
    3.3910   -0.3796   -0.1273 H   0  0  0  0  0  0  0  0  0  0  0  0
    1.4821   -2.3290    0.6410 H   0  0  0  0  0  0  0  0  0  0  0  0
   -0.2911   -0.6317    2.0214 H   0  0  0  0  0  0  0  0  0  0  0  0
   -1.0772   -2.0143    1.1139 H   0  0  0  0  0  0  0  0  0  0  0  0
   -2.0057    0.9983    1.5625 H   0  0  0  0  0  0  0  0  0  0  0  0
   -3.0247   -0.0650    0.5775 H   0  0  0  0  0  0  0  0  0  0  0  0
   -2.4211    1.4391   -0.1632 H   0  0  0  0  0  0  0  0  0  0  0  0
   -0.5891   -1.6950   -1.3724 H   0  0  0  0  0  0  0  0  0  0  0  0
   -2.3595   -1.1559   -1.3422 H   0  0  0  0  0  0  0  0  0  0  0  0
   -1.0725   -0.1483   -2.0960 H   0  0  0  0  0  0  0  0  0  0  0  0
    0.2333    1.1406   -1.2316 H   0  0  0  0  0  0  0  0  0  0  0  0
   -0.0720    1.6789    1.7389 H   0  0  0  0  0  0  0  0  0  0  0  0
    1.5598    1.7862    1.0513 H   0  0  0  0  0  0  0  0  0  0  0  0
    0.2413    2.7936    0.3705 H   0  0  0  0  0  0  0  0  0  0  0  0
  1  2  1  0
  2  3  2  0
  3  4  1  0
  4  5  1  0
  5  6  1  0
  5  7  1  0
  5  8  1  0
  8  9  1  0
  8  2  1  0
  1 10  1  0
  1 11  1  0
  1 12  1  0
  3 13  1  0
  4 14  1  0
  4 15  1  0
  6 16  1  0
  6 17  1  0
  6 18  1  0
  7 19  1  0
  7 20  1  0
  7 21  1  0
  8 22  1  0
  9 23  1  0
  9 24  1  0
  9 25  1  0
M  END
