
     RDKit          3D

 16 18  0  0  0  0  0  0  0  0999 V2000
    2.1834    0.1198    0.4824 C   0  0  0  0  0  0  0  0  0  0  0  0
    0.7195   -0.0436    0.2680 C   0  0  0  0  0  0  0  0  0  0  0  0
   -0.1508   -0.8080    0.9618 C   0  0  0  0  0  0  0  0  0  0  0  0
   -1.4360   -0.5496    0.2660 C   0  0  0  0  0  0  0  0  0  0  0  0
   -1.0768   -0.4428   -1.1778 C   0  0  0  0  0  0  0  0  0  0  0  0
   -2.0272    0.5634   -1.2700 O   0  0  0  0  0  0  0  0  0  0  0  0
   -1.4072    0.8901   -0.0793 C   0  0  0  0  0  0  0  0  0  0  0  0
   -0.1045    0.5985   -0.7563 C   0  0  0  0  0  0  0  0  0  0  0  0
    2.4188    0.9227    1.2090 H   0  0  0  0  0  0  0  0  0  0  0  0
    2.6242   -0.8160    0.9344 H   0  0  0  0  0  0  0  0  0  0  0  0
    2.7262    0.2726   -0.4607 H   0  0  0  0  0  0  0  0  0  0  0  0
    0.0919   -1.4359    1.8114 H   0  0  0  0  0  0  0  0  0  0  0  0
   -2.3214   -1.0402    0.5794 H   0  0  0  0  0  0  0  0  0  0  0  0
   -0.9353   -1.1987   -1.8319 H   0  0  0  0  0  0  0  0  0  0  0  0
   -1.6126    1.6815    0.5147 H   0  0  0  0  0  0  0  0  0  0  0  0
    0.3078    1.2862   -1.4510 H   0  0  0  0  0  0  0  0  0  0  0  0
  1  2  1  0
  2  3  2  0
  3  4  1  0
  4  5  1  0
  5  6  1  0
  6  7  1  0
  7  8  1  0
  8  2  1  0
  7  4  1  0
  8  5  1  0
  1  9  1  0
  1 10  1  0
  1 11  1  0
  3 12  1  0
  4 13  1  0
  5 14  1  0
  7 15  1  0
  8 16  1  0
M  END
