
     RDKit          3D

 21 22  0  0  0  0  0  0  0  0999 V2000
    2.7550   -0.1282    0.1089 C   0  0  0  0  0  0  0  0  0  0  0  0
    1.2500   -0.0409   -0.0397 C   0  0  0  0  0  0  0  0  0  0  0  0
    0.6185   -0.9177    0.7138 C   0  0  0  0  0  0  0  0  0  0  0  0
   -0.8542   -1.1477    0.8503 C   0  0  0  0  0  0  0  0  0  0  0  0
   -1.5886    0.1214    0.6969 C   0  0  0  0  0  0  0  0  0  0  0  0
   -2.6978    0.4440   -0.1615 C   0  0  0  0  0  0  0  0  0  0  0  0
   -1.4153    0.4794   -0.8167 C   0  0  0  0  0  0  0  0  0  0  0  0
   -0.4763    1.4664   -0.8264 O   0  0  0  0  0  0  0  0  0  0  0  0
    0.7904    0.9760   -0.9707 C   0  0  0  0  0  0  0  0  0  0  0  0
    2.9251   -0.0252    1.2195 H   0  0  0  0  0  0  0  0  0  0  0  0
    3.1376   -1.0787   -0.2889 H   0  0  0  0  0  0  0  0  0  0  0  0
    3.2393    0.7682   -0.3412 H   0  0  0  0  0  0  0  0  0  0  0  0
    1.2429   -1.5840    1.3377 H   0  0  0  0  0  0  0  0  0  0  0  0
   -1.0238   -1.5632    1.8656 H   0  0  0  0  0  0  0  0  0  0  0  0
   -1.1967   -1.9329    0.1281 H   0  0  0  0  0  0  0  0  0  0  0  0
   -1.2650    0.8974    1.4357 H   0  0  0  0  0  0  0  0  0  0  0  0
   -3.2311    1.4075    0.0303 H   0  0  0  0  0  0  0  0  0  0  0  0
   -3.4303   -0.3294   -0.5070 H   0  0  0  0  0  0  0  0  0  0  0  0
   -1.1754   -0.3519   -1.5129 H   0  0  0  0  0  0  0  0  0  0  0  0
    1.4908    1.8598   -0.8717 H   0  0  0  0  0  0  0  0  0  0  0  0
    0.9049    0.6799   -2.0503 H   0  0  0  0  0  0  0  0  0  0  0  0
  1  2  1  0
  2  3  2  0
  3  4  1  0
  4  5  1  0
  5  6  1  0
  6  7  1  0
  7  8  1  0
  8  9  1  0
  9  2  1  0
  7  5  1  0
  1 10  1  0
  1 11  1  0
  1 12  1  0
  3 13  1  0
  4 14  1  0
  4 15  1  0
  5 16  1  0
  6 17  1  0
  6 18  1  0
  7 19  1  0
  9 20  1  0
  9 21  1  0
M  END
