
     RDKit          3D

 23 24  0  0  0  0  0  0  0  0999 V2000
    2.7236   -0.1189    0.5213 C   0  0  0  0  0  0  0  0  0  0  0  0
    1.2633   -0.1058    0.2166 C   0  0  0  0  0  0  0  0  0  0  0  0
    0.5654   -1.1924   -0.0773 C   0  0  0  0  0  0  0  0  0  0  0  0
   -0.7213   -1.0231   -0.8050 C   0  0  0  0  0  0  0  0  0  0  0  0
   -0.4697    0.1411   -1.7802 C   0  0  0  0  0  0  0  0  0  0  0  0
   -0.7347    1.0334   -0.5612 C   0  0  0  0  0  0  0  0  0  0  0  0
    0.5091    1.1792    0.2327 C   0  0  0  0  0  0  0  0  0  0  0  0
   -1.6466   -0.0664   -0.0903 C   0  0  0  0  0  0  0  0  0  0  0  0
   -1.8064   -0.2527    1.3658 C   0  0  0  0  0  0  0  0  0  0  0  0
    2.9401    0.6855    1.2356 H   0  0  0  0  0  0  0  0  0  0  0  0
    3.0426   -1.0743    0.9727 H   0  0  0  0  0  0  0  0  0  0  0  0
    3.3400    0.0896   -0.3899 H   0  0  0  0  0  0  0  0  0  0  0  0
    0.9019   -2.1751    0.1933 H   0  0  0  0  0  0  0  0  0  0  0  0
   -1.1616   -1.9061   -1.2448 H   0  0  0  0  0  0  0  0  0  0  0  0
   -1.2467    0.2071   -2.5635 H   0  0  0  0  0  0  0  0  0  0  0  0
    0.5795    0.1848   -2.1439 H   0  0  0  0  0  0  0  0  0  0  0  0
   -1.2152    1.9828   -0.8193 H   0  0  0  0  0  0  0  0  0  0  0  0
    1.1043    2.0073   -0.2284 H   0  0  0  0  0  0  0  0  0  0  0  0
    0.3611    1.4723    1.2874 H   0  0  0  0  0  0  0  0  0  0  0  0
   -2.6148   -0.0172   -0.6110 H   0  0  0  0  0  0  0  0  0  0  0  0
   -1.2106    0.3929    2.0117 H   0  0  0  0  0  0  0  0  0  0  0  0
   -1.6232   -1.3446    1.5944 H   0  0  0  0  0  0  0  0  0  0  0  0
   -2.8802   -0.0994    1.6835 H   0  0  0  0  0  0  0  0  0  0  0  0
  1  2  1  0
  2  3  2  0
  3  4  1  0
  4  5  1  0
  5  6  1  0
  6  7  1  0
  6  8  1  0
  8  9  1  0
  7  2  1  0
  8  4  1  0
  1 10  1  0
  1 11  1  0
  1 12  1  0
  3 13  1  0
  4 14  1  0
  5 15  1  0
  5 16  1  0
  6 17  1  0
  7 18  1  0
  7 19  1  0
  8 20  1  0
  9 21  1  0
  9 22  1  0
  9 23  1  0
M  END
