
     RDKit          3D

 21 22  0  0  0  0  0  0  0  0999 V2000
    2.1032   -0.8533   -0.0342 C   0  0  0  0  0  0  0  0  0  0  0  0
    0.6514   -0.4132   -0.0818 C   0  0  0  0  0  0  0  0  0  0  0  0
    0.1927    0.8095   -0.0467 C   0  0  0  0  0  0  0  0  0  0  0  0
    0.9804    2.0531    0.0475 C   0  0  0  0  0  0  0  0  0  0  0  0
   -1.2749    0.7673   -0.1155 C   0  0  0  0  0  0  0  0  0  0  0  0
   -1.9352    0.1338    1.1310 C   0  0  0  0  0  0  0  0  0  0  0  0
   -1.6818   -0.6367   -0.1279 C   0  0  0  0  0  0  0  0  0  0  0  0
   -0.4227   -1.4202   -0.1805 C   0  0  0  0  0  0  0  0  0  0  0  0
   -0.2351   -2.0948   -1.3823 O   0  0  0  0  0  0  0  0  0  0  0  0
    2.7559   -0.0420   -0.4067 H   0  0  0  0  0  0  0  0  0  0  0  0
    2.2739   -1.7236   -0.6897 H   0  0  0  0  0  0  0  0  0  0  0  0
    2.3999   -1.1196    0.9976 H   0  0  0  0  0  0  0  0  0  0  0  0
    0.9192    2.3845    1.1212 H   0  0  0  0  0  0  0  0  0  0  0  0
    0.5340    2.8443   -0.5903 H   0  0  0  0  0  0  0  0  0  0  0  0
    2.0371    1.8553   -0.1839 H   0  0  0  0  0  0  0  0  0  0  0  0
   -1.8394    1.5657   -0.6280 H   0  0  0  0  0  0  0  0  0  0  0  0
   -1.3097   -0.0013    2.0246 H   0  0  0  0  0  0  0  0  0  0  0  0
   -3.0046    0.3728    1.3048 H   0  0  0  0  0  0  0  0  0  0  0  0
   -2.5373   -0.9744   -0.7505 H   0  0  0  0  0  0  0  0  0  0  0  0
   -0.4273   -2.1280    0.6801 H   0  0  0  0  0  0  0  0  0  0  0  0
   -0.1797   -1.3792   -2.0888 H   0  0  0  0  0  0  0  0  0  0  0  0
  1  2  1  0
  2  3  2  0
  3  4  1  0
  3  5  1  0
  5  6  1  0
  6  7  1  0
  7  8  1  0
  8  9  1  0
  8  2  1  0
  7  5  1  0
  1 10  1  0
  1 11  1  0
  1 12  1  0
  4 13  1  0
  4 14  1  0
  4 15  1  0
  5 16  1  0
  6 17  1  0
  6 18  1  0
  7 19  1  0
  8 20  1  0
  9 21  1  0
M  END
