
     RDKit          3D

 19 20  0  0  0  0  0  0  0  0999 V2000
    2.1261   -1.0454   -0.1499 C   0  0  0  0  0  0  0  0  0  0  0  0
    0.8036   -0.3317    0.0430 C   0  0  0  0  0  0  0  0  0  0  0  0
    0.6813    0.9575    0.3617 C   0  0  0  0  0  0  0  0  0  0  0  0
   -0.8243    1.2145    0.4362 C   0  0  0  0  0  0  0  0  0  0  0  0
   -0.9832    2.5666    0.1568 O   0  0  0  0  0  0  0  0  0  0  0  0
   -1.1656    0.3534   -0.7447 C   0  0  0  0  0  0  0  0  0  0  0  0
   -1.5499   -0.9712   -0.9609 C   0  0  0  0  0  0  0  0  0  0  0  0
   -0.5275   -0.8751   -0.0136 C   0  0  0  0  0  0  0  0  0  0  0  0
   -0.9906   -1.1013    1.3145 O   0  0  0  0  0  0  0  0  0  0  0  0
    2.8945   -0.4820    0.4024 H   0  0  0  0  0  0  0  0  0  0  0  0
    1.9831   -2.0356    0.3724 H   0  0  0  0  0  0  0  0  0  0  0  0
    2.3590   -1.1772   -1.2148 H   0  0  0  0  0  0  0  0  0  0  0  0
    1.4623    1.6904    0.5368 H   0  0  0  0  0  0  0  0  0  0  0  0
   -1.2518    0.9364    1.3846 H   0  0  0  0  0  0  0  0  0  0  0  0
   -0.1332    3.0808    0.2877 H   0  0  0  0  0  0  0  0  0  0  0  0
   -0.5761    0.7936   -1.6132 H   0  0  0  0  0  0  0  0  0  0  0  0
   -1.3174   -1.4919   -1.9356 H   0  0  0  0  0  0  0  0  0  0  0  0
   -2.5894   -1.2759   -0.6727 H   0  0  0  0  0  0  0  0  0  0  0  0
   -0.4010   -0.8060    2.0094 H   0  0  0  0  0  0  0  0  0  0  0  0
  1  2  1  0
  2  3  2  0
  3  4  1  0
  4  5  1  0
  4  6  1  0
  6  7  1  0
  7  8  1  0
  8  9  1  0
  8  2  1  0
  8  6  1  0
  1 10  1  0
  1 11  1  0
  1 12  1  0
  3 13  1  0
  4 14  1  0
  5 15  1  0
  6 16  1  0
  7 17  1  0
  7 18  1  0
  9 19  1  0
M  END
