
     RDKit          3D

 19 20  0  0  0  0  0  0  0  0999 V2000
   -2.7510    0.0351    0.7242 C   0  0  0  0  0  0  0  0  0  0  0  0
   -1.4253    0.1079    0.0629 C   0  0  0  0  0  0  0  0  0  0  0  0
   -0.5225   -0.8642   -0.0240 C   0  0  0  0  0  0  0  0  0  0  0  0
    0.6208   -0.2937   -0.7750 C   0  0  0  0  0  0  0  0  0  0  0  0
    1.9291   -0.9332   -0.4106 C   0  0  0  0  0  0  0  0  0  0  0  0
    2.9576    0.0311    0.1320 C   0  0  0  0  0  0  0  0  0  0  0  0
    2.3524   -0.9661    0.8925 O   0  0  0  0  0  0  0  0  0  0  0  0
    0.5549    1.0463   -0.4386 O   0  0  0  0  0  0  0  0  0  0  0  0
   -0.8218    1.2974   -0.6487 C   0  0  0  0  0  0  0  0  0  0  0  0
   -2.6945   -0.2324    1.7915 H   0  0  0  0  0  0  0  0  0  0  0  0
   -3.4188   -0.7184    0.2355 H   0  0  0  0  0  0  0  0  0  0  0  0
   -3.2691    1.0179    0.5964 H   0  0  0  0  0  0  0  0  0  0  0  0
   -0.6677   -1.8525    0.3974 H   0  0  0  0  0  0  0  0  0  0  0  0
    0.3848   -0.3787   -1.8444 H   0  0  0  0  0  0  0  0  0  0  0  0
    2.2744   -1.6939   -1.1361 H   0  0  0  0  0  0  0  0  0  0  0  0
    2.6751    1.0779    0.3448 H   0  0  0  0  0  0  0  0  0  0  0  0
    4.0062   -0.0803   -0.1905 H   0  0  0  0  0  0  0  0  0  0  0  0
   -1.1420    2.2431   -0.2164 H   0  0  0  0  0  0  0  0  0  0  0  0
   -1.0426    1.1568   -1.7107 H   0  0  0  0  0  0  0  0  0  0  0  0
  1  2  1  0
  2  3  2  0
  3  4  1  0
  4  5  1  0
  5  6  1  0
  6  7  1  0
  4  8  1  0
  8  9  1  0
  9  2  1  0
  7  5  1  0
  1 10  1  0
  1 11  1  0
  1 12  1  0
  3 13  1  0
  4 14  1  0
  5 15  1  0
  6 16  1  0
  6 17  1  0
  9 18  1  0
  9 19  1  0
M  END
