
     RDKit          3D

 21 22  0  0  0  0  0  0  0  0999 V2000
    2.8242    0.2120    0.2376 C   0  0  0  0  0  0  0  0  0  0  0  0
    1.3708   -0.1078    0.1746 C   0  0  0  0  0  0  0  0  0  0  0  0
    0.6274   -0.8310    1.0008 C   0  0  0  0  0  0  0  0  0  0  0  0
   -0.7674   -0.8907    0.5613 C   0  0  0  0  0  0  0  0  0  0  0  0
   -1.6356    0.2028    1.1501 C   0  0  0  0  0  0  0  0  0  0  0  0
   -2.6876    0.2251    0.2104 O   0  0  0  0  0  0  0  0  0  0  0  0
   -1.9934    0.3850   -0.9808 C   0  0  0  0  0  0  0  0  0  0  0  0
   -0.7541   -0.4561   -0.9032 C   0  0  0  0  0  0  0  0  0  0  0  0
    0.4933    0.4020   -0.9410 C   0  0  0  0  0  0  0  0  0  0  0  0
    3.0342    1.1872   -0.2022 H   0  0  0  0  0  0  0  0  0  0  0  0
    3.1527    0.2244    1.3068 H   0  0  0  0  0  0  0  0  0  0  0  0
    3.4044   -0.5794   -0.2896 H   0  0  0  0  0  0  0  0  0  0  0  0
    1.0191   -1.3119    1.8876 H   0  0  0  0  0  0  0  0  0  0  0  0
   -1.2681   -1.8521    0.7033 H   0  0  0  0  0  0  0  0  0  0  0  0
   -1.0931    1.1509    1.0160 H   0  0  0  0  0  0  0  0  0  0  0  0
   -1.9756   -0.0008    2.1618 H   0  0  0  0  0  0  0  0  0  0  0  0
   -2.5936    0.0689   -1.8626 H   0  0  0  0  0  0  0  0  0  0  0  0
   -1.7096    1.4637   -1.0413 H   0  0  0  0  0  0  0  0  0  0  0  0
   -0.7244   -1.2955   -1.5926 H   0  0  0  0  0  0  0  0  0  0  0  0
    1.0066    0.3424   -1.8980 H   0  0  0  0  0  0  0  0  0  0  0  0
    0.2696    1.4609   -0.6990 H   0  0  0  0  0  0  0  0  0  0  0  0
  1  2  1  0
  2  3  2  0
  3  4  1  0
  4  5  1  0
  5  6  1  0
  6  7  1  0
  7  8  1  0
  8  9  1  0
  9  2  1  0
  8  4  1  0
  1 10  1  0
  1 11  1  0
  1 12  1  0
  3 13  1  0
  4 14  1  0
  5 15  1  0
  5 16  1  0
  7 17  1  0
  7 18  1  0
  8 19  1  0
  9 20  1  0
  9 21  1  0
M  END
