
     RDKit          3D

 21 22  0  0  0  0  0  0  0  0999 V2000
    2.8741    0.3039    0.2481 C   0  0  0  0  0  0  0  0  0  0  0  0
    1.4148    0.0067    0.3020 C   0  0  0  0  0  0  0  0  0  0  0  0
    0.8370   -1.1816    0.3851 C   0  0  0  0  0  0  0  0  0  0  0  0
   -0.6315   -1.0818    0.4164 C   0  0  0  0  0  0  0  0  0  0  0  0
   -1.2557   -1.0661   -0.9599 C   0  0  0  0  0  0  0  0  0  0  0  0
   -1.7776    0.3194   -0.6534 C   0  0  0  0  0  0  0  0  0  0  0  0
   -3.1170    0.3164   -0.2874 O   0  0  0  0  0  0  0  0  0  0  0  0
   -0.8983    0.3900    0.5774 C   0  0  0  0  0  0  0  0  0  0  0  0
    0.3820    1.0904    0.2656 C   0  0  0  0  0  0  0  0  0  0  0  0
    3.4378   -0.5214   -0.2441 H   0  0  0  0  0  0  0  0  0  0  0  0
    3.0398    1.1994   -0.3919 H   0  0  0  0  0  0  0  0  0  0  0  0
    3.2003    0.4627    1.2972 H   0  0  0  0  0  0  0  0  0  0  0  0
    1.3804   -2.1188    0.4254 H   0  0  0  0  0  0  0  0  0  0  0  0
   -1.1658   -1.6626    1.1671 H   0  0  0  0  0  0  0  0  0  0  0  0
   -0.4961   -1.0543   -1.7938 H   0  0  0  0  0  0  0  0  0  0  0  0
   -2.0310   -1.8149   -1.1510 H   0  0  0  0  0  0  0  0  0  0  0  0
   -1.5148    1.0883   -1.4193 H   0  0  0  0  0  0  0  0  0  0  0  0
   -3.3330    1.2113    0.0749 H   0  0  0  0  0  0  0  0  0  0  0  0
   -1.4154    0.6943    1.5039 H   0  0  0  0  0  0  0  0  0  0  0  0
    0.4266    1.5273   -0.7522 H   0  0  0  0  0  0  0  0  0  0  0  0
    0.6432    1.8915    0.9898 H   0  0  0  0  0  0  0  0  0  0  0  0
  1  2  1  0
  2  3  2  0
  3  4  1  0
  4  5  1  0
  5  6  1  0
  6  7  1  0
  6  8  1  0
  8  9  1  0
  9  2  1  0
  8  4  1  0
  1 10  1  0
  1 11  1  0
  1 12  1  0
  3 13  1  0
  4 14  1  0
  5 15  1  0
  5 16  1  0
  6 17  1  0
  7 18  1  0
  8 19  1  0
  9 20  1  0
  9 21  1  0
M  END
