
     RDKit          3D

 20 20  0  0  0  0  0  0  0  0999 V2000
    2.4646   -0.8401    0.4740 C   0  0  0  0  0  0  0  0  0  0  0  0
    1.1810   -0.1299    0.2533 C   0  0  0  0  0  0  0  0  0  0  0  0
    1.1773    1.2086    0.0913 C   0  0  0  0  0  0  0  0  0  0  0  0
   -0.1514    1.8533   -0.1262 C   0  0  0  0  0  0  0  0  0  0  0  0
   -0.9543    1.1589   -0.9772 O   0  0  0  0  0  0  0  0  0  0  0  0
   -1.1093   -0.1703   -0.7384 C   0  0  0  0  0  0  0  0  0  0  0  0
   -2.5115   -0.5308   -0.2573 C   0  0  0  0  0  0  0  0  0  0  0  0
   -0.1370   -0.7947    0.1954 C   0  0  0  0  0  0  0  0  0  0  0  0
    2.3777   -1.8916    0.1225 H   0  0  0  0  0  0  0  0  0  0  0  0
    3.2987   -0.3825   -0.1196 H   0  0  0  0  0  0  0  0  0  0  0  0
    2.7873   -0.8302    1.5283 H   0  0  0  0  0  0  0  0  0  0  0  0
    2.0803    1.7674    0.1187 H   0  0  0  0  0  0  0  0  0  0  0  0
   -0.6437    2.0703    0.8589 H   0  0  0  0  0  0  0  0  0  0  0  0
    0.0521    2.8516   -0.5751 H   0  0  0  0  0  0  0  0  0  0  0  0
   -1.0049   -0.7036   -1.7299 H   0  0  0  0  0  0  0  0  0  0  0  0
   -3.2883    0.0430   -0.7810 H   0  0  0  0  0  0  0  0  0  0  0  0
   -2.5315   -0.3640    0.8542 H   0  0  0  0  0  0  0  0  0  0  0  0
   -2.6132   -1.6258   -0.3965 H   0  0  0  0  0  0  0  0  0  0  0  0
    0.0548   -1.8767   -0.0479 H   0  0  0  0  0  0  0  0  0  0  0  0
   -0.5288   -0.8131    1.2526 H   0  0  0  0  0  0  0  0  0  0  0  0
  1  2  1  0
  2  3  2  0
  3  4  1  0
  4  5  1  0
  5  6  1  0
  6  7  1  0
  6  8  1  0
  8  2  1  0
  1  9  1  0
  1 10  1  0
  1 11  1  0
  3 12  1  0
  4 13  1  0
  4 14  1  0
  6 15  1  0
  7 16  1  0
  7 17  1  0
  7 18  1  0
  8 19  1  0
  8 20  1  0
M  END
