
     RDKit          3D

 20 20  0  0  0  0  0  0  0  0999 V2000
    1.6914   -1.5058    0.4374 C   0  0  0  0  0  0  0  0  0  0  0  0
    0.8376   -0.2674    0.2649 C   0  0  0  0  0  0  0  0  0  0  0  0
    1.0465    0.9160    0.8163 C   0  0  0  0  0  0  0  0  0  0  0  0
    0.0030    1.9050    0.4241 C   0  0  0  0  0  0  0  0  0  0  0  0
   -0.5388    1.2713   -0.8557 C   0  0  0  0  0  0  0  0  0  0  0  0
   -0.3942   -0.1784   -0.5508 C   0  0  0  0  0  0  0  0  0  0  0  0
   -1.6113   -0.6802    0.1971 C   0  0  0  0  0  0  0  0  0  0  0  0
   -0.2812   -0.9567   -1.6993 O   0  0  0  0  0  0  0  0  0  0  0  0
    1.8449   -1.9291   -0.5734 H   0  0  0  0  0  0  0  0  0  0  0  0
    1.1956   -2.2417    1.0931 H   0  0  0  0  0  0  0  0  0  0  0  0
    2.6764   -1.2593    0.8440 H   0  0  0  0  0  0  0  0  0  0  0  0
    1.8988    1.1193    1.4827 H   0  0  0  0  0  0  0  0  0  0  0  0
    0.4975    2.8439    0.1344 H   0  0  0  0  0  0  0  0  0  0  0  0
   -0.7862    2.0051    1.1687 H   0  0  0  0  0  0  0  0  0  0  0  0
   -1.5608    1.6144   -1.0380 H   0  0  0  0  0  0  0  0  0  0  0  0
    0.1265    1.5200   -1.7164 H   0  0  0  0  0  0  0  0  0  0  0  0
   -2.4503    0.0504    0.0747 H   0  0  0  0  0  0  0  0  0  0  0  0
   -1.4398   -0.7708    1.2863 H   0  0  0  0  0  0  0  0  0  0  0  0
   -1.9763   -1.6509   -0.1805 H   0  0  0  0  0  0  0  0  0  0  0  0
   -0.7792   -1.8053   -1.6098 H   0  0  0  0  0  0  0  0  0  0  0  0
  1  2  1  0
  2  3  2  0
  3  4  1  0
  4  5  1  0
  5  6  1  0
  6  7  1  0
  6  8  1  0
  6  2  1  0
  1  9  1  0
  1 10  1  0
  1 11  1  0
  3 12  1  0
  4 13  1  0
  4 14  1  0
  5 15  1  0
  5 16  1  0
  7 17  1  0
  7 18  1  0
  7 19  1  0
  8 20  1  0
M  END
