
     RDKit          3D

 18 19  0  0  0  0  0  0  0  0999 V2000
    2.5643    0.5262    0.3855 C   0  0  0  0  0  0  0  0  0  0  0  0
    1.2384   -0.0983    0.1455 C   0  0  0  0  0  0  0  0  0  0  0  0
    0.8802   -1.0104   -0.7687 C   0  0  0  0  0  0  0  0  0  0  0  0
   -0.5742   -1.1944   -0.4084 C   0  0  0  0  0  0  0  0  0  0  0  0
   -0.5464   -1.2024    0.9703 O   0  0  0  0  0  0  0  0  0  0  0  0
   -0.0640    0.1152    0.8538 C   0  0  0  0  0  0  0  0  0  0  0  0
   -1.0000    0.2696   -0.3066 C   0  0  0  0  0  0  0  0  0  0  0  0
   -2.4323    0.4909   -0.0206 C   0  0  0  0  0  0  0  0  0  0  0  0
    3.1352    0.6651   -0.5785 H   0  0  0  0  0  0  0  0  0  0  0  0
    2.4446    1.5527    0.8153 H   0  0  0  0  0  0  0  0  0  0  0  0
    3.1876   -0.1003    1.0546 H   0  0  0  0  0  0  0  0  0  0  0  0
    1.4490   -1.4918   -1.5498 H   0  0  0  0  0  0  0  0  0  0  0  0
   -1.1584   -1.8627   -0.9650 H   0  0  0  0  0  0  0  0  0  0  0  0
   -0.1073    0.7576    1.6870 H   0  0  0  0  0  0  0  0  0  0  0  0
   -0.5318    0.9040   -1.0936 H   0  0  0  0  0  0  0  0  0  0  0  0
   -2.6611    0.9677    0.9424 H   0  0  0  0  0  0  0  0  0  0  0  0
   -2.8384    1.1788   -0.8187 H   0  0  0  0  0  0  0  0  0  0  0  0
   -2.9855   -0.4675   -0.1669 H   0  0  0  0  0  0  0  0  0  0  0  0
  1  2  1  0
  2  3  2  0
  3  4  1  0
  4  5  1  0
  5  6  1  0
  6  7  1  0
  7  8  1  0
  6  2  1  0
  7  4  1  0
  1  9  1  0
  1 10  1  0
  1 11  1  0
  3 12  1  0
  4 13  1  0
  6 14  1  0
  7 15  1  0
  8 16  1  0
  8 17  1  0
  8 18  1  0
M  END
