
     RDKit          3D

 21 22  0  0  0  0  0  0  0  0999 V2000
   -1.2837    1.8970    0.4870 C   0  0  0  0  0  0  0  0  0  0  0  0
   -0.9299    0.4421    0.3708 C   0  0  0  0  0  0  0  0  0  0  0  0
   -1.7122   -0.5959    0.6315 C   0  0  0  0  0  0  0  0  0  0  0  0
   -0.9964   -1.8752    0.3948 C   0  0  0  0  0  0  0  0  0  0  0  0
    0.0528   -1.4145   -0.6275 C   0  0  0  0  0  0  0  0  0  0  0  0
    0.3831   -0.0518   -0.0636 C   0  0  0  0  0  0  0  0  0  0  0  0
    1.2101    0.8383   -0.9031 C   0  0  0  0  0  0  0  0  0  0  0  0
    2.2970    0.2093   -0.0281 C   0  0  0  0  0  0  0  0  0  0  0  0
    1.3519   -0.1515    0.9306 O   0  0  0  0  0  0  0  0  0  0  0  0
   -2.2630    1.9568    1.0223 H   0  0  0  0  0  0  0  0  0  0  0  0
   -1.3871    2.3538   -0.5341 H   0  0  0  0  0  0  0  0  0  0  0  0
   -0.5333    2.4724    1.0188 H   0  0  0  0  0  0  0  0  0  0  0  0
   -2.7328   -0.5079    0.9704 H   0  0  0  0  0  0  0  0  0  0  0  0
   -0.4156   -2.1989    1.2995 H   0  0  0  0  0  0  0  0  0  0  0  0
   -1.6347   -2.6653   -0.0144 H   0  0  0  0  0  0  0  0  0  0  0  0
    0.9051   -2.0900   -0.6754 H   0  0  0  0  0  0  0  0  0  0  0  0
   -0.5049   -1.3381   -1.5975 H   0  0  0  0  0  0  0  0  0  0  0  0
    1.3645    0.6028   -1.9521 H   0  0  0  0  0  0  0  0  0  0  0  0
    1.0956    1.8988   -0.6283 H   0  0  0  0  0  0  0  0  0  0  0  0
    2.7223   -0.7131   -0.4780 H   0  0  0  0  0  0  0  0  0  0  0  0
    3.0111    0.9311    0.3762 H   0  0  0  0  0  0  0  0  0  0  0  0
  1  2  1  0
  2  3  2  0
  3  4  1  0
  4  5  1  0
  5  6  1  0
  6  7  1  0
  7  8  1  0
  8  9  1  0
  6  2  1  0
  9  6  1  0
  1 10  1  0
  1 11  1  0
  1 12  1  0
  3 13  1  0
  4 14  1  0
  4 15  1  0
  5 16  1  0
  5 17  1  0
  7 18  1  0
  7 19  1  0
  8 20  1  0
  8 21  1  0
M  END
