
     RDKit          3D

 21 22  0  0  0  0  0  0  0  0999 V2000
    2.3765   -1.1943    0.3050 C   0  0  0  0  0  0  0  0  0  0  0  0
    1.1239   -0.4492   -0.1098 C   0  0  0  0  0  0  0  0  0  0  0  0
    0.0115   -1.2035   -0.1641 C   0  0  0  0  0  0  0  0  0  0  0  0
   -1.2884   -0.6806   -0.5386 C   0  0  0  0  0  0  0  0  0  0  0  0
   -2.5420   -0.6524    0.1108 C   0  0  0  0  0  0  0  0  0  0  0  0
   -1.6280    0.2939    0.6501 C   0  0  0  0  0  0  0  0  0  0  0  0
   -1.1254    1.5612    0.1917 C   0  0  0  0  0  0  0  0  0  0  0  0
    0.1035    1.8181   -0.2337 C   0  0  0  0  0  0  0  0  0  0  0  0
    1.3243    0.9980   -0.3932 C   0  0  0  0  0  0  0  0  0  0  0  0
    3.0493   -1.3616   -0.5394 H   0  0  0  0  0  0  0  0  0  0  0  0
    2.8415   -0.5260    1.0856 H   0  0  0  0  0  0  0  0  0  0  0  0
    2.0510   -2.0926    0.8386 H   0  0  0  0  0  0  0  0  0  0  0  0
    0.1345   -2.2488    0.0921 H   0  0  0  0  0  0  0  0  0  0  0  0
   -1.2391   -0.2007   -1.5647 H   0  0  0  0  0  0  0  0  0  0  0  0
   -2.8649   -1.5146    0.7246 H   0  0  0  0  0  0  0  0  0  0  0  0
   -3.4301   -0.2524   -0.4587 H   0  0  0  0  0  0  0  0  0  0  0  0
   -1.1759    0.0119    1.6532 H   0  0  0  0  0  0  0  0  0  0  0  0
   -1.7874    2.4032    0.1810 H   0  0  0  0  0  0  0  0  0  0  0  0
    0.2747    2.8532   -0.5377 H   0  0  0  0  0  0  0  0  0  0  0  0
    1.6126    1.0670   -1.4817 H   0  0  0  0  0  0  0  0  0  0  0  0
    2.1779    1.3701    0.1888 H   0  0  0  0  0  0  0  0  0  0  0  0
  1  2  1  0
  2  3  2  0
  3  4  1  0
  4  5  1  0
  5  6  1  0
  6  7  1  0
  7  8  2  0
  8  9  1  0
  9  2  1  0
  6  4  1  0
  1 10  1  0
  1 11  1  0
  1 12  1  0
  3 13  1  0
  4 14  1  0
  5 15  1  0
  5 16  1  0
  6 17  1  0
  7 18  1  0
  8 19  1  0
  9 20  1  0
  9 21  1  0
M  END
