
     RDKit          3D

 21 22  0  0  0  0  0  0  0  0999 V2000
    3.1472   -0.0171    0.2376 C   0  0  0  0  0  0  0  0  0  0  0  0
    1.6934   -0.1954    0.1585 C   0  0  0  0  0  0  0  0  0  0  0  0
    0.8685   -0.5394    1.1381 C   0  0  0  0  0  0  0  0  0  0  0  0
   -0.4722   -0.5975    0.5973 C   0  0  0  0  0  0  0  0  0  0  0  0
   -1.5027    0.2930    0.2737 C   0  0  0  0  0  0  0  0  0  0  0  0
   -2.6458   -0.1192   -0.6570 C   0  0  0  0  0  0  0  0  0  0  0  0
   -3.4933    0.9781   -0.7753 O   0  0  0  0  0  0  0  0  0  0  0  0
   -0.3010    0.6799   -0.3131 C   0  0  0  0  0  0  0  0  0  0  0  0
    0.8235    0.0138   -1.0573 C   0  0  0  0  0  0  0  0  0  0  0  0
    3.5321    0.7205   -0.5236 H   0  0  0  0  0  0  0  0  0  0  0  0
    3.4764    0.4259    1.2239 H   0  0  0  0  0  0  0  0  0  0  0  0
    3.7168   -0.9795    0.1719 H   0  0  0  0  0  0  0  0  0  0  0  0
    1.1324   -0.7486    2.1834 H   0  0  0  0  0  0  0  0  0  0  0  0
   -0.5650   -1.5845    0.0293 H   0  0  0  0  0  0  0  0  0  0  0  0
   -1.9409    0.8643    1.1472 H   0  0  0  0  0  0  0  0  0  0  0  0
   -2.2277   -0.3477   -1.6643 H   0  0  0  0  0  0  0  0  0  0  0  0
   -3.1592   -0.9935   -0.2022 H   0  0  0  0  0  0  0  0  0  0  0  0
   -4.1098    0.8979   -1.5425 H   0  0  0  0  0  0  0  0  0  0  0  0
    0.1755    1.5814    0.1908 H   0  0  0  0  0  0  0  0  0  0  0  0
    0.5527   -0.9833   -1.4604 H   0  0  0  0  0  0  0  0  0  0  0  0
    1.2992    0.6508   -1.7992 H   0  0  0  0  0  0  0  0  0  0  0  0
  1  2  1  0
  2  3  2  0
  3  4  1  0
  4  5  1  0
  5  6  1  0
  6  7  1  0
  5  8  1  0
  8  9  1  0
  9  2  1  0
  8  4  1  0
  1 10  1  0
  1 11  1  0
  1 12  1  0
  3 13  1  0
  4 14  1  0
  5 15  1  0
  6 16  1  0
  6 17  1  0
  7 18  1  0
  8 19  1  0
  9 20  1  0
  9 21  1  0
M  END
