
     RDKit          3D

 18 19  0  0  0  0  0  0  0  0999 V2000
    2.2959   -0.2836    0.0240 C   0  0  0  0  0  0  0  0  0  0  0  0
    0.8079   -0.3194    0.0292 C   0  0  0  0  0  0  0  0  0  0  0  0
    0.1046   -1.2830   -0.5126 C   0  0  0  0  0  0  0  0  0  0  0  0
   -1.3192   -1.0302   -0.3432 C   0  0  0  0  0  0  0  0  0  0  0  0
   -1.4082    0.0313    0.6986 C   0  0  0  0  0  0  0  0  0  0  0  0
   -1.9694    1.2150    0.1916 O   0  0  0  0  0  0  0  0  0  0  0  0
   -0.7322    1.6770   -0.3120 C   0  0  0  0  0  0  0  0  0  0  0  0
   -0.0555    0.7113    0.6411 C   0  0  0  0  0  0  0  0  0  0  0  0
    2.6047   -0.5858   -1.0110 H   0  0  0  0  0  0  0  0  0  0  0  0
    2.6712   -1.0770    0.7260 H   0  0  0  0  0  0  0  0  0  0  0  0
    2.6923    0.7236    0.2961 H   0  0  0  0  0  0  0  0  0  0  0  0
    0.4845   -2.1814   -1.0353 H   0  0  0  0  0  0  0  0  0  0  0  0
   -1.7395   -0.7297   -1.3240 H   0  0  0  0  0  0  0  0  0  0  0  0
   -1.8058   -1.9569    0.0294 H   0  0  0  0  0  0  0  0  0  0  0  0
   -1.7553   -0.2778    1.6840 H   0  0  0  0  0  0  0  0  0  0  0  0
   -0.5898    1.4834   -1.3784 H   0  0  0  0  0  0  0  0  0  0  0  0
   -0.5894    2.7347    0.0168 H   0  0  0  0  0  0  0  0  0  0  0  0
    0.3034    1.1483    1.5796 H   0  0  0  0  0  0  0  0  0  0  0  0
  1  2  1  0
  2  3  2  0
  3  4  1  0
  4  5  1  0
  5  6  1  0
  6  7  1  0
  7  8  1  0
  8  2  1  0
  8  5  1  0
  1  9  1  0
  1 10  1  0
  1 11  1  0
  3 12  1  0
  4 13  1  0
  4 14  1  0
  5 15  1  0
  7 16  1  0
  7 17  1  0
  8 18  1  0
M  END
