
     RDKit          3D

 18 19  0  0  0  0  0  0  0  0999 V2000
    2.3479    0.6103    0.2528 C   0  0  0  0  0  0  0  0  0  0  0  0
    0.9871    0.0253    0.0762 C   0  0  0  0  0  0  0  0  0  0  0  0
    0.5302   -0.9556    0.8479 C   0  0  0  0  0  0  0  0  0  0  0  0
   -0.8353   -1.3347    0.4505 C   0  0  0  0  0  0  0  0  0  0  0  0
   -1.2447   -0.3689   -0.5936 C   0  0  0  0  0  0  0  0  0  0  0  0
   -1.7679    0.9552   -0.1742 C   0  0  0  0  0  0  0  0  0  0  0  0
   -0.6207    1.6338   -0.5651 O   0  0  0  0  0  0  0  0  0  0  0  0
   -0.0287    0.4149   -0.9308 C   0  0  0  0  0  0  0  0  0  0  0  0
    2.4258    1.5229   -0.3759 H   0  0  0  0  0  0  0  0  0  0  0  0
    3.0758   -0.1640    0.0110 H   0  0  0  0  0  0  0  0  0  0  0  0
    2.4708    0.8532    1.3358 H   0  0  0  0  0  0  0  0  0  0  0  0
    1.0727   -1.4378    1.6763 H   0  0  0  0  0  0  0  0  0  0  0  0
   -1.5076   -1.3972    1.3245 H   0  0  0  0  0  0  0  0  0  0  0  0
   -0.7864   -2.3504   -0.0120 H   0  0  0  0  0  0  0  0  0  0  0  0
   -1.7962   -0.8374   -1.4309 H   0  0  0  0  0  0  0  0  0  0  0  0
   -2.6289    1.2807   -0.8179 H   0  0  0  0  0  0  0  0  0  0  0  0
   -1.9942    1.1046    0.8966 H   0  0  0  0  0  0  0  0  0  0  0  0
    0.3004    0.4453   -1.9713 H   0  0  0  0  0  0  0  0  0  0  0  0
  1  2  1  0
  2  3  2  0
  3  4  1  0
  4  5  1  0
  5  6  1  0
  6  7  1  0
  7  8  1  0
  8  2  1  0
  8  5  1  0
  1  9  1  0
  1 10  1  0
  1 11  1  0
  3 12  1  0
  4 13  1  0
  4 14  1  0
  5 15  1  0
  6 16  1  0
  6 17  1  0
  8 18  1  0
M  END
