
     RDKit          3D

 15 15  0  0  0  0  0  0  0  0999 V2000
    2.0902    0.0262   -0.1157 C   0  0  0  0  0  0  0  0  0  0  0  0
    0.6106    0.0861   -0.1945 C   0  0  0  0  0  0  0  0  0  0  0  0
   -0.0288   -1.0364   -0.4345 C   0  0  0  0  0  0  0  0  0  0  0  0
   -1.5003   -1.0928   -0.5336 C   0  0  0  0  0  0  0  0  0  0  0  0
   -2.1788    0.0968   -0.3614 O   0  0  0  0  0  0  0  0  0  0  0  0
   -1.5348    1.2880   -0.1089 C   0  0  0  0  0  0  0  0  0  0  0  0
   -2.2232    2.3337    0.0369 O   0  0  0  0  0  0  0  0  0  0  0  0
   -0.0931    1.3489   -0.0107 C   0  0  0  0  0  0  0  0  0  0  0  0
    0.5448    2.4224    0.2203 O   0  0  0  0  0  0  0  0  0  0  0  0
    2.5375    0.8694    0.4263 H   0  0  0  0  0  0  0  0  0  0  0  0
    2.4746   -0.1013   -1.1494 H   0  0  0  0  0  0  0  0  0  0  0  0
    2.3462   -0.9118    0.4264 H   0  0  0  0  0  0  0  0  0  0  0  0
    0.5264   -1.9710   -0.5684 H   0  0  0  0  0  0  0  0  0  0  0  0
   -1.7272   -1.5148   -1.5399 H   0  0  0  0  0  0  0  0  0  0  0  0
   -1.8442   -1.8435    0.2433 H   0  0  0  0  0  0  0  0  0  0  0  0
  1  2  1  0
  2  3  2  0
  3  4  1  0
  4  5  1  0
  5  6  1  0
  6  7  2  0
  6  8  1  0
  8  9  2  0
  8  2  1  0
  1 10  1  0
  1 11  1  0
  1 12  1  0
  3 13  1  0
  4 14  1  0
  4 15  1  0
M  END
