
     RDKit          3D

 22 22  0  0  0  0  0  0  0  0999 V2000
    2.6727   -0.3522    0.4354 C   0  0  0  0  0  0  0  0  0  0  0  0
    1.2574   -0.5329    0.0477 C   0  0  0  0  0  0  0  0  0  0  0  0
    0.5653   -1.6486    0.2628 C   0  0  0  0  0  0  0  0  0  0  0  0
   -0.8515   -1.6746   -0.1870 C   0  0  0  0  0  0  0  0  0  0  0  0
   -1.6322   -0.4434    0.1908 C   0  0  0  0  0  0  0  0  0  0  0  0
   -0.7431    0.7392    0.2126 C   0  0  0  0  0  0  0  0  0  0  0  0
   -1.4108    2.0151   -0.2345 C   0  0  0  0  0  0  0  0  0  0  0  0
    0.5109    0.5660   -0.6209 C   0  0  0  0  0  0  0  0  0  0  0  0
    3.0285   -1.0837    1.1624 H   0  0  0  0  0  0  0  0  0  0  0  0
    2.8248    0.7023    0.8104 H   0  0  0  0  0  0  0  0  0  0  0  0
    3.2847   -0.3818   -0.5137 H   0  0  0  0  0  0  0  0  0  0  0  0
    1.0466   -2.5127    0.7595 H   0  0  0  0  0  0  0  0  0  0  0  0
   -1.3621   -2.5536    0.2903 H   0  0  0  0  0  0  0  0  0  0  0  0
   -0.9014   -1.8094   -1.2834 H   0  0  0  0  0  0  0  0  0  0  0  0
   -2.0902   -0.5694    1.2122 H   0  0  0  0  0  0  0  0  0  0  0  0
   -2.5197   -0.3241   -0.4792 H   0  0  0  0  0  0  0  0  0  0  0  0
   -0.4051    0.9062    1.2592 H   0  0  0  0  0  0  0  0  0  0  0  0
   -1.6810    1.9741   -1.3129 H   0  0  0  0  0  0  0  0  0  0  0  0
   -0.6602    2.8251   -0.1288 H   0  0  0  0  0  0  0  0  0  0  0  0
   -2.2917    2.2834    0.3586 H   0  0  0  0  0  0  0  0  0  0  0  0
    1.0736    1.5191   -0.5672 H   0  0  0  0  0  0  0  0  0  0  0  0
    0.2846    0.3559   -1.6746 H   0  0  0  0  0  0  0  0  0  0  0  0
  1  2  1  0
  2  3  2  0
  3  4  1  0
  4  5  1  0
  5  6  1  0
  6  7  1  0
  6  8  1  0
  8  2  1  0
  1  9  1  0
  1 10  1  0
  1 11  1  0
  3 12  1  0
  4 13  1  0
  4 14  1  0
  5 15  1  0
  5 16  1  0
  6 17  1  0
  7 18  1  0
  7 19  1  0
  7 20  1  0
  8 21  1  0
  8 22  1  0
M  END
