
     RDKit          3D

 17 18  0  0  0  0  0  0  0  0999 V2000
    2.4103    0.3476   -0.0245 C   0  0  0  0  0  0  0  0  0  0  0  0
    0.9871   -0.1431    0.0750 C   0  0  0  0  0  0  0  0  0  0  0  0
    0.3755   -0.9418   -0.8188 C   0  0  0  0  0  0  0  0  0  0  0  0
   -1.0214   -1.2048   -0.3726 C   0  0  0  0  0  0  0  0  0  0  0  0
   -1.2763   -0.0931    0.5563 C   0  0  0  0  0  0  0  0  0  0  0  0
   -1.9255    1.1587   -0.0429 C   0  0  0  0  0  0  0  0  0  0  0  0
   -2.4410    0.3670    0.9885 O   0  0  0  0  0  0  0  0  0  0  0  0
    0.0412    0.1623    1.1477 C   0  0  0  0  0  0  0  0  0  0  0  0
    0.3716    0.5530    2.2967 O   0  0  0  0  0  0  0  0  0  0  0  0
    2.8972   -0.1848   -0.8649 H   0  0  0  0  0  0  0  0  0  0  0  0
    2.9520    0.1736    0.9321 H   0  0  0  0  0  0  0  0  0  0  0  0
    2.4204    1.4303   -0.2945 H   0  0  0  0  0  0  0  0  0  0  0  0
    0.7878   -1.3435   -1.7144 H   0  0  0  0  0  0  0  0  0  0  0  0
   -1.0266   -2.1755    0.1924 H   0  0  0  0  0  0  0  0  0  0  0  0
   -1.7176   -1.3105   -1.2054 H   0  0  0  0  0  0  0  0  0  0  0  0
   -2.3505    1.0589   -1.0581 H   0  0  0  0  0  0  0  0  0  0  0  0
   -1.4842    2.1458    0.2074 H   0  0  0  0  0  0  0  0  0  0  0  0
  1  2  1  0
  2  3  2  0
  3  4  1  0
  4  5  1  0
  5  6  1  0
  6  7  1  0
  5  8  1  0
  8  9  2  0
  8  2  1  0
  7  5  1  0
  1 10  1  0
  1 11  1  0
  1 12  1  0
  3 13  1  0
  4 14  1  0
  4 15  1  0
  6 16  1  0
  6 17  1  0
M  END
