
     RDKit          3D

 19 20  0  0  0  0  0  0  0  0999 V2000
   -2.0104   -1.2238    0.3360 C   0  0  0  0  0  0  0  0  0  0  0  0
   -0.7119   -0.6084   -0.0266 C   0  0  0  0  0  0  0  0  0  0  0  0
    0.4486   -1.2377    0.0801 C   0  0  0  0  0  0  0  0  0  0  0  0
    1.5723   -0.3757   -0.3540 C   0  0  0  0  0  0  0  0  0  0  0  0
    2.4219   -0.1864    0.7356 O   0  0  0  0  0  0  0  0  0  0  0  0
    0.9496    0.9077   -0.8024 C   0  0  0  0  0  0  0  0  0  0  0  0
    1.0864    1.8993    0.1402 O   0  0  0  0  0  0  0  0  0  0  0  0
   -0.2673    1.8299    0.4581 C   0  0  0  0  0  0  0  0  0  0  0  0
   -0.5295    0.7553   -0.5440 C   0  0  0  0  0  0  0  0  0  0  0  0
   -2.8313   -0.4928    0.3651 H   0  0  0  0  0  0  0  0  0  0  0  0
   -2.2914   -1.9868   -0.4438 H   0  0  0  0  0  0  0  0  0  0  0  0
   -1.8853   -1.7964    1.2771 H   0  0  0  0  0  0  0  0  0  0  0  0
    0.6236   -2.2665    0.4373 H   0  0  0  0  0  0  0  0  0  0  0  0
    2.1398   -0.8046   -1.2015 H   0  0  0  0  0  0  0  0  0  0  0  0
    2.6160   -1.0740    1.1113 H   0  0  0  0  0  0  0  0  0  0  0  0
    1.1148    1.1952   -1.8568 H   0  0  0  0  0  0  0  0  0  0  0  0
   -0.7485    2.7998    0.1423 H   0  0  0  0  0  0  0  0  0  0  0  0
   -0.5002    1.6036    1.5141 H   0  0  0  0  0  0  0  0  0  0  0  0
   -1.1972    1.0624   -1.3680 H   0  0  0  0  0  0  0  0  0  0  0  0
  1  2  1  0
  2  3  2  0
  3  4  1  0
  4  5  1  0
  4  6  1  0
  6  7  1  0
  7  8  1  0
  8  9  1  0
  9  2  1  0
  9  6  1  0
  1 10  1  0
  1 11  1  0
  1 12  1  0
  3 13  1  0
  4 14  1  0
  5 15  1  0
  6 16  1  0
  8 17  1  0
  8 18  1  0
  9 19  1  0
M  END
