
     RDKit          3D

 18 19  0  0  0  0  0  0  0  0999 V2000
    2.3085    0.0206   -0.3783 C   0  0  0  0  0  0  0  0  0  0  0  0
    0.8587   -0.1687   -0.1094 C   0  0  0  0  0  0  0  0  0  0  0  0
    0.2729   -0.8995    0.8461 C   0  0  0  0  0  0  0  0  0  0  0  0
   -1.1603   -0.6637    0.6108 C   0  0  0  0  0  0  0  0  0  0  0  0
   -1.2308   -0.7915   -0.9165 C   0  0  0  0  0  0  0  0  0  0  0  0
   -0.2766    0.4107   -0.8405 C   0  0  0  0  0  0  0  0  0  0  0  0
   -1.1680    0.8446    0.3316 C   0  0  0  0  0  0  0  0  0  0  0  0
   -0.4070    1.5863    1.2249 O   0  0  0  0  0  0  0  0  0  0  0  0
    2.5375    1.1042   -0.5966 H   0  0  0  0  0  0  0  0  0  0  0  0
    2.6840   -0.6255   -1.1946 H   0  0  0  0  0  0  0  0  0  0  0  0
    2.9319   -0.2211    0.5181 H   0  0  0  0  0  0  0  0  0  0  0  0
    0.7699   -1.5049    1.5935 H   0  0  0  0  0  0  0  0  0  0  0  0
   -1.9144   -1.0818    1.1966 H   0  0  0  0  0  0  0  0  0  0  0  0
   -2.2236   -0.5546   -1.3250 H   0  0  0  0  0  0  0  0  0  0  0  0
   -0.7584   -1.7174   -1.2561 H   0  0  0  0  0  0  0  0  0  0  0  0
   -0.1741    1.0357   -1.6665 H   0  0  0  0  0  0  0  0  0  0  0  0
   -2.1201    1.2561    0.0183 H   0  0  0  0  0  0  0  0  0  0  0  0
   -0.9302    1.9705    1.9436 H   0  0  0  0  0  0  0  0  0  0  0  0
  1  2  1  0
  2  3  2  0
  3  4  1  0
  4  5  1  0
  5  6  1  0
  6  7  1  0
  7  8  1  0
  6  2  1  0
  7  4  1  0
  1  9  1  0
  1 10  1  0
  1 11  1  0
  3 12  1  0
  4 13  1  0
  5 14  1  0
  5 15  1  0
  6 16  1  0
  7 17  1  0
  8 18  1  0
M  END
