
     RDKit          3D

 19 20  0  0  0  0  0  0  0  0999 V2000
    2.2516    0.0662    0.2973 C   0  0  0  0  0  0  0  0  0  0  0  0
    0.7948    0.2147    0.0590 C   0  0  0  0  0  0  0  0  0  0  0  0
    0.1740    1.2783    0.5426 C   0  0  0  0  0  0  0  0  0  0  0  0
   -1.2973    1.4971    0.3422 C   0  0  0  0  0  0  0  0  0  0  0  0
   -2.1944    0.9463    1.2192 O   0  0  0  0  0  0  0  0  0  0  0  0
   -2.0293    0.3323   -0.0650 C   0  0  0  0  0  0  0  0  0  0  0  0
   -1.2860   -0.9736    0.0053 C   0  0  0  0  0  0  0  0  0  0  0  0
    0.0395   -0.8136   -0.7108 C   0  0  0  0  0  0  0  0  0  0  0  0
    0.7361   -2.0186   -0.7491 O   0  0  0  0  0  0  0  0  0  0  0  0
    2.8520    0.3242   -0.6061 H   0  0  0  0  0  0  0  0  0  0  0  0
    2.6274    0.6670    1.1242 H   0  0  0  0  0  0  0  0  0  0  0  0
    2.4097   -1.0249    0.5452 H   0  0  0  0  0  0  0  0  0  0  0  0
    0.7800    1.9861    1.0917 H   0  0  0  0  0  0  0  0  0  0  0  0
   -1.5645    2.5017   -0.0530 H   0  0  0  0  0  0  0  0  0  0  0  0
   -2.8780    0.4436   -0.7686 H   0  0  0  0  0  0  0  0  0  0  0  0
   -1.0243   -1.2615    1.0614 H   0  0  0  0  0  0  0  0  0  0  0  0
   -1.8139   -1.8048   -0.4717 H   0  0  0  0  0  0  0  0  0  0  0  0
   -0.2001   -0.4687   -1.7387 H   0  0  0  0  0  0  0  0  0  0  0  0
    1.6227   -1.8918   -1.1251 H   0  0  0  0  0  0  0  0  0  0  0  0
  1  2  1  0
  2  3  2  0
  3  4  1  0
  4  5  1  0
  5  6  1  0
  6  7  1  0
  7  8  1  0
  8  9  1  0
  8  2  1  0
  6  4  1  0
  1 10  1  0
  1 11  1  0
  1 12  1  0
  3 13  1  0
  4 14  1  0
  6 15  1  0
  7 16  1  0
  7 17  1  0
  8 18  1  0
  9 19  1  0
M  END
