
     RDKit          3D

 21 22  0  0  0  0  0  0  0  0999 V2000
    2.7551    0.3042   -0.4219 C   0  0  0  0  0  0  0  0  0  0  0  0
    1.3498   -0.1969   -0.2838 C   0  0  0  0  0  0  0  0  0  0  0  0
    0.9706   -1.4202   -0.5767 C   0  0  0  0  0  0  0  0  0  0  0  0
   -0.4725   -1.5506   -0.3213 C   0  0  0  0  0  0  0  0  0  0  0  0
   -0.8014   -0.4640    0.6378 C   0  0  0  0  0  0  0  0  0  0  0  0
   -1.9079    0.4454    0.1298 C   0  0  0  0  0  0  0  0  0  0  0  0
   -2.4316    1.3090    1.0562 O   0  0  0  0  0  0  0  0  0  0  0  0
   -0.8125    1.0614   -0.7642 C   0  0  0  0  0  0  0  0  0  0  0  0
    0.2225    0.6066    0.2158 C   0  0  0  0  0  0  0  0  0  0  0  0
    2.8384    1.0506   -1.2584 H   0  0  0  0  0  0  0  0  0  0  0  0
    3.4512   -0.5149   -0.6978 H   0  0  0  0  0  0  0  0  0  0  0  0
    3.1276    0.7597    0.5165 H   0  0  0  0  0  0  0  0  0  0  0  0
    1.6261   -2.2362   -0.9578 H   0  0  0  0  0  0  0  0  0  0  0  0
   -1.0134   -1.3470   -1.2842 H   0  0  0  0  0  0  0  0  0  0  0  0
   -0.7519   -2.5650    0.0531 H   0  0  0  0  0  0  0  0  0  0  0  0
   -0.7909   -0.6713    1.7011 H   0  0  0  0  0  0  0  0  0  0  0  0
   -2.6534   -0.1155   -0.4588 H   0  0  0  0  0  0  0  0  0  0  0  0
   -3.4080    1.4302    0.9022 H   0  0  0  0  0  0  0  0  0  0  0  0
   -0.7771    0.6145   -1.7663 H   0  0  0  0  0  0  0  0  0  0  0  0
   -0.9784    2.1720   -0.7437 H   0  0  0  0  0  0  0  0  0  0  0  0
    0.4576    1.3280    1.0203 H   0  0  0  0  0  0  0  0  0  0  0  0
  1  2  1  0
  2  3  2  0
  3  4  1  0
  4  5  1  0
  5  6  1  0
  6  7  1  0
  6  8  1  0
  8  9  1  0
  9  2  1  0
  9  5  1  0
  1 10  1  0
  1 11  1  0
  1 12  1  0
  3 13  1  0
  4 14  1  0
  4 15  1  0
  5 16  1  0
  6 17  1  0
  7 18  1  0
  8 19  1  0
  8 20  1  0
  9 21  1  0
M  END
