
     RDKit          3D

 19 20  0  0  0  0  0  0  0  0999 V2000
    2.6239   -0.0688   -0.1256 C   0  0  0  0  0  0  0  0  0  0  0  0
    1.1669    0.1642   -0.1163 C   0  0  0  0  0  0  0  0  0  0  0  0
    0.3043   -0.8298   -0.0403 C   0  0  0  0  0  0  0  0  0  0  0  0
   -1.1356   -0.4877   -0.0381 C   0  0  0  0  0  0  0  0  0  0  0  0
   -1.4277    0.7868    0.6892 C   0  0  0  0  0  0  0  0  0  0  0  0
   -0.3452    1.6134    0.8523 O   0  0  0  0  0  0  0  0  0  0  0  0
    0.5739    1.5512   -0.1930 C   0  0  0  0  0  0  0  0  0  0  0  0
   -2.0892   -1.5655   -0.1462 C   0  0  0  0  0  0  0  0  0  0  0  0
   -1.8764   -0.6628   -1.2059 O   0  0  0  0  0  0  0  0  0  0  0  0
    3.0877    0.1788    0.8696 H   0  0  0  0  0  0  0  0  0  0  0  0
    3.0626    0.5921   -0.8957 H   0  0  0  0  0  0  0  0  0  0  0  0
    2.8480   -1.0993   -0.3928 H   0  0  0  0  0  0  0  0  0  0  0  0
    0.6393   -1.8558    0.0181 H   0  0  0  0  0  0  0  0  0  0  0  0
   -1.8286    0.4979    1.7025 H   0  0  0  0  0  0  0  0  0  0  0  0
   -2.2676    1.3676    0.2169 H   0  0  0  0  0  0  0  0  0  0  0  0
    0.0786    1.5947   -1.1884 H   0  0  0  0  0  0  0  0  0  0  0  0
    1.3431    2.3027   -0.0351 H   0  0  0  0  0  0  0  0  0  0  0  0
   -3.0413   -1.4942    0.4126 H   0  0  0  0  0  0  0  0  0  0  0  0
   -1.7168   -2.5855   -0.3838 H   0  0  0  0  0  0  0  0  0  0  0  0
  1  2  1  0
  2  3  2  0
  3  4  1  0
  4  5  1  0
  5  6  1  0
  6  7  1  0
  4  8  1  0
  8  9  1  0
  7  2  1  0
  9  4  1  0
  1 10  1  0
  1 11  1  0
  1 12  1  0
  3 13  1  0
  5 14  1  0
  5 15  1  0
  7 16  1  0
  7 17  1  0
  8 18  1  0
  8 19  1  0
M  END
