
     RDKit          3D

 20 21  0  0  0  0  0  0  0  0999 V2000
    2.1715   -0.8007    0.0666 C   0  0  0  0  0  0  0  0  0  0  0  0
    0.9268    0.0360   -0.0073 C   0  0  0  0  0  0  0  0  0  0  0  0
    0.9461    1.3562    0.2024 C   0  0  0  0  0  0  0  0  0  0  0  0
   -0.4419    1.9096    0.0607 C   0  0  0  0  0  0  0  0  0  0  0  0
   -1.0346    0.8818   -0.9155 C   0  0  0  0  0  0  0  0  0  0  0  0
   -0.4392   -0.3553   -0.2931 C   0  0  0  0  0  0  0  0  0  0  0  0
   -1.1900   -0.9120    0.9430 C   0  0  0  0  0  0  0  0  0  0  0  0
   -1.0144   -1.6630   -0.3300 C   0  0  0  0  0  0  0  0  0  0  0  0
    2.8934   -0.3398    0.7582 H   0  0  0  0  0  0  0  0  0  0  0  0
    2.6008   -0.8909   -0.9646 H   0  0  0  0  0  0  0  0  0  0  0  0
    1.9001   -1.8055    0.4015 H   0  0  0  0  0  0  0  0  0  0  0  0
    1.7893    1.9927    0.4406 H   0  0  0  0  0  0  0  0  0  0  0  0
   -0.4566    2.9156   -0.3443 H   0  0  0  0  0  0  0  0  0  0  0  0
   -0.9840    1.7709    1.0086 H   0  0  0  0  0  0  0  0  0  0  0  0
   -0.5685    1.0352   -1.8972 H   0  0  0  0  0  0  0  0  0  0  0  0
   -2.1237    0.8936   -0.9172 H   0  0  0  0  0  0  0  0  0  0  0  0
   -2.1202   -0.3981    1.1932 H   0  0  0  0  0  0  0  0  0  0  0  0
   -0.5850   -1.2361    1.7972 H   0  0  0  0  0  0  0  0  0  0  0  0
   -0.3392   -2.5478   -0.3009 H   0  0  0  0  0  0  0  0  0  0  0  0
   -1.9306   -1.8425   -0.9020 H   0  0  0  0  0  0  0  0  0  0  0  0
  1  2  1  0
  2  3  2  0
  3  4  1  0
  4  5  1  0
  5  6  1  0
  6  7  1  0
  7  8  1  0
  6  2  1  0
  8  6  1  0
  1  9  1  0
  1 10  1  0
  1 11  1  0
  3 12  1  0
  4 13  1  0
  4 14  1  0
  5 15  1  0
  5 16  1  0
  7 17  1  0
  7 18  1  0
  8 19  1  0
  8 20  1  0
M  END
