
     RDKit          3D

 21 22  0  0  0  0  0  0  0  0999 V2000
    2.7401   -0.4401   -0.1286 C   0  0  0  0  0  0  0  0  0  0  0  0
    1.2740   -0.1878   -0.1135 C   0  0  0  0  0  0  0  0  0  0  0  0
    0.3224   -0.9985    0.3369 C   0  0  0  0  0  0  0  0  0  0  0  0
   -0.9798   -0.3696    0.1671 C   0  0  0  0  0  0  0  0  0  0  0  0
   -2.2298   -0.8336    0.7656 C   0  0  0  0  0  0  0  0  0  0  0  0
   -1.9897   -0.9615   -0.7412 C   0  0  0  0  0  0  0  0  0  0  0  0
   -0.6662    1.0937    0.1383 C   0  0  0  0  0  0  0  0  0  0  0  0
    0.6570    1.0856   -0.6335 C   0  0  0  0  0  0  0  0  0  0  0  0
    1.4144    2.1826   -0.2852 O   0  0  0  0  0  0  0  0  0  0  0  0
    3.3188    0.4788   -0.2157 H   0  0  0  0  0  0  0  0  0  0  0  0
    2.9874   -0.8850    0.8675 H   0  0  0  0  0  0  0  0  0  0  0  0
    3.0347   -1.1554   -0.9234 H   0  0  0  0  0  0  0  0  0  0  0  0
    0.5790   -1.9837    0.7598 H   0  0  0  0  0  0  0  0  0  0  0  0
   -2.9803   -0.0473    1.0230 H   0  0  0  0  0  0  0  0  0  0  0  0
   -2.3352   -1.7576    1.3558 H   0  0  0  0  0  0  0  0  0  0  0  0
   -1.8958   -2.0035   -1.0830 H   0  0  0  0  0  0  0  0  0  0  0  0
   -2.5126   -0.2733   -1.4197 H   0  0  0  0  0  0  0  0  0  0  0  0
   -1.4543    1.6291   -0.3846 H   0  0  0  0  0  0  0  0  0  0  0  0
   -0.5048    1.4375    1.1852 H   0  0  0  0  0  0  0  0  0  0  0  0
    0.4069    1.0199   -1.6982 H   0  0  0  0  0  0  0  0  0  0  0  0
    0.8140    2.9697   -0.2622 H   0  0  0  0  0  0  0  0  0  0  0  0
  1  2  1  0
  2  3  2  0
  3  4  1  0
  4  5  1  0
  5  6  1  0
  4  7  1  0
  7  8  1  0
  8  9  1  0
  8  2  1  0
  6  4  1  0
  1 10  1  0
  1 11  1  0
  1 12  1  0
  3 13  1  0
  5 14  1  0
  5 15  1  0
  6 16  1  0
  6 17  1  0
  7 18  1  0
  7 19  1  0
  8 20  1  0
  9 21  1  0
M  END
