
     RDKit          3D

 19 21  0  0  0  0  0  0  0  0999 V2000
    2.6235   -0.6758    0.0335 C   0  0  0  0  0  0  0  0  0  0  0  0
    1.2135   -0.2523   -0.0462 C   0  0  0  0  0  0  0  0  0  0  0  0
    0.1547   -1.0152    0.1756 C   0  0  0  0  0  0  0  0  0  0  0  0
   -1.0892   -0.2054   -0.0085 C   0  0  0  0  0  0  0  0  0  0  0  0
   -2.3027   -0.6569    0.6781 C   0  0  0  0  0  0  0  0  0  0  0  0
   -1.2987    0.0752   -1.3686 O   0  0  0  0  0  0  0  0  0  0  0  0
   -0.4994    1.2135   -1.2169 C   0  0  0  0  0  0  0  0  0  0  0  0
    0.7629    1.1202   -0.3928 C   0  0  0  0  0  0  0  0  0  0  0  0
   -0.5725    1.1647    0.2223 C   0  0  0  0  0  0  0  0  0  0  0  0
    3.2663    0.0570    0.5754 H   0  0  0  0  0  0  0  0  0  0  0  0
    3.0693   -0.8025   -0.9700 H   0  0  0  0  0  0  0  0  0  0  0  0
    2.7590   -1.6432    0.5631 H   0  0  0  0  0  0  0  0  0  0  0  0
    0.1715   -2.0708    0.4505 H   0  0  0  0  0  0  0  0  0  0  0  0
   -2.7682    0.2109    1.2117 H   0  0  0  0  0  0  0  0  0  0  0  0
   -2.1640   -1.4746    1.4201 H   0  0  0  0  0  0  0  0  0  0  0  0
   -3.0841   -1.0030   -0.0503 H   0  0  0  0  0  0  0  0  0  0  0  0
   -0.7496    2.1411   -1.7331 H   0  0  0  0  0  0  0  0  0  0  0  0
    1.4556    1.9421   -0.4585 H   0  0  0  0  0  0  0  0  0  0  0  0
   -0.9480    1.8749    0.9146 H   0  0  0  0  0  0  0  0  0  0  0  0
  1  2  1  0
  2  3  2  0
  3  4  1  0
  4  5  1  0
  4  6  1  0
  6  7  1  0
  7  8  1  0
  8  9  1  0
  8  2  1  0
  9  4  1  0
  9  7  1  0
  1 10  1  0
  1 11  1  0
  1 12  1  0
  3 13  1  0
  5 14  1  0
  5 15  1  0
  5 16  1  0
  7 17  1  0
  8 18  1  0
  9 19  1  0
M  END
