
     RDKit          3D

 19 20  0  0  0  0  0  0  0  0999 V2000
   -2.9238   -0.1185   -0.1738 C   0  0  0  0  0  0  0  0  0  0  0  0
   -1.4537   -0.0450   -0.0226 C   0  0  0  0  0  0  0  0  0  0  0  0
   -0.7363   -0.5140    1.0063 C   0  0  0  0  0  0  0  0  0  0  0  0
    0.6767   -0.2419    0.7716 C   0  0  0  0  0  0  0  0  0  0  0  0
    1.8936   -0.0508    1.2397 C   0  0  0  0  0  0  0  0  0  0  0  0
    2.8024    0.1918    0.0913 C   0  0  0  0  0  0  0  0  0  0  0  0
    1.9457    0.5522   -0.9693 O   0  0  0  0  0  0  0  0  0  0  0  0
    0.7768   -0.1468   -0.7332 C   0  0  0  0  0  0  0  0  0  0  0  0
   -0.4964    0.5747   -1.0167 C   0  0  0  0  0  0  0  0  0  0  0  0
   -3.4534    0.4450    0.6400 H   0  0  0  0  0  0  0  0  0  0  0  0
   -3.3128   -1.1631   -0.0931 H   0  0  0  0  0  0  0  0  0  0  0  0
   -3.2354    0.3350   -1.1158 H   0  0  0  0  0  0  0  0  0  0  0  0
   -1.0704   -1.0229    1.9071 H   0  0  0  0  0  0  0  0  0  0  0  0
    2.2088   -0.0620    2.2611 H   0  0  0  0  0  0  0  0  0  0  0  0
    3.4984    1.0482    0.2764 H   0  0  0  0  0  0  0  0  0  0  0  0
    3.3924   -0.6968   -0.1230 H   0  0  0  0  0  0  0  0  0  0  0  0
    0.8087   -1.1332   -1.2020 H   0  0  0  0  0  0  0  0  0  0  0  0
   -0.9101    0.4151   -2.0196 H   0  0  0  0  0  0  0  0  0  0  0  0
   -0.4114    1.6330   -0.7242 H   0  0  0  0  0  0  0  0  0  0  0  0
  1  2  1  0
  2  3  2  0
  3  4  1  0
  4  5  2  0
  5  6  1  0
  6  7  1  0
  7  8  1  0
  8  9  1  0
  9  2  1  0
  8  4  1  0
  1 10  1  0
  1 11  1  0
  1 12  1  0
  3 13  1  0
  5 14  1  0
  6 15  1  0
  6 16  1  0
  8 17  1  0
  9 18  1  0
  9 19  1  0
M  END
