
     RDKit          3D

 19 19  0  0  0  0  0  0  0  0999 V2000
   -2.7629    0.3683    0.3121 C   0  0  0  0  0  0  0  0  0  0  0  0
   -1.3439    0.1477   -0.0380 C   0  0  0  0  0  0  0  0  0  0  0  0
   -0.5462    1.1658   -0.2876 C   0  0  0  0  0  0  0  0  0  0  0  0
    0.8549    0.8773   -0.6301 C   0  0  0  0  0  0  0  0  0  0  0  0
    1.5178    1.7322   -1.2314 O   0  0  0  0  0  0  0  0  0  0  0  0
    1.4258   -0.4567   -0.2307 C   0  0  0  0  0  0  0  0  0  0  0  0
    2.6715   -0.1732    0.5847 C   0  0  0  0  0  0  0  0  0  0  0  0
    0.4826   -1.1549    0.5143 O   0  0  0  0  0  0  0  0  0  0  0  0
   -0.7328   -1.1958   -0.1311 C   0  0  0  0  0  0  0  0  0  0  0  0
   -3.4100   -0.3626   -0.2123 H   0  0  0  0  0  0  0  0  0  0  0  0
   -2.9372    0.2099    1.4057 H   0  0  0  0  0  0  0  0  0  0  0  0
   -3.0490    1.4094    0.0401 H   0  0  0  0  0  0  0  0  0  0  0  0
   -0.9003    2.1854   -0.2448 H   0  0  0  0  0  0  0  0  0  0  0  0
    1.6796   -1.0678   -1.1072 H   0  0  0  0  0  0  0  0  0  0  0  0
    2.4305    0.4624    1.4521 H   0  0  0  0  0  0  0  0  0  0  0  0
    3.1347   -1.1449    0.8891 H   0  0  0  0  0  0  0  0  0  0  0  0
    3.3847    0.3497   -0.0850 H   0  0  0  0  0  0  0  0  0  0  0  0
   -0.5037   -1.3526   -1.2264 H   0  0  0  0  0  0  0  0  0  0  0  0
   -1.3960   -1.9997    0.2266 H   0  0  0  0  0  0  0  0  0  0  0  0
  1  2  1  0
  2  3  2  0
  3  4  1  0
  4  5  2  0
  4  6  1  0
  6  7  1  0
  6  8  1  0
  8  9  1  0
  9  2  1  0
  1 10  1  0
  1 11  1  0
  1 12  1  0
  3 13  1  0
  6 14  1  0
  7 15  1  0
  7 16  1  0
  7 17  1  0
  9 18  1  0
  9 19  1  0
M  END
