
     RDKit          3D

 20 21  0  0  0  0  0  0  0  0999 V2000
    2.4012   -0.3065    0.1463 C   0  0  0  0  0  0  0  0  0  0  0  0
    0.9916    0.1070   -0.0915 C   0  0  0  0  0  0  0  0  0  0  0  0
    0.3403    0.0942   -1.2579 C   0  0  0  0  0  0  0  0  0  0  0  0
   -1.0004    0.5811   -0.8997 C   0  0  0  0  0  0  0  0  0  0  0  0
   -0.6346    1.7644    0.0096 C   0  0  0  0  0  0  0  0  0  0  0  0
   -0.0319    0.6215    0.8457 C   0  0  0  0  0  0  0  0  0  0  0  0
   -1.2773   -0.1379    0.4290 C   0  0  0  0  0  0  0  0  0  0  0  0
   -1.1296   -1.6266    0.3541 C   0  0  0  0  0  0  0  0  0  0  0  0
    3.0245    0.6110    0.2583 H   0  0  0  0  0  0  0  0  0  0  0  0
    2.7763   -0.8139   -0.7669 H   0  0  0  0  0  0  0  0  0  0  0  0
    2.5124   -0.9724    1.0069 H   0  0  0  0  0  0  0  0  0  0  0  0
    0.6695   -0.1930   -2.2468 H   0  0  0  0  0  0  0  0  0  0  0  0
   -1.7738    0.6917   -1.5912 H   0  0  0  0  0  0  0  0  0  0  0  0
    0.1328    2.3952   -0.4646 H   0  0  0  0  0  0  0  0  0  0  0  0
   -1.4939    2.2485    0.4659 H   0  0  0  0  0  0  0  0  0  0  0  0
    0.1753    0.7940    1.8575 H   0  0  0  0  0  0  0  0  0  0  0  0
   -2.2027    0.2329    0.9039 H   0  0  0  0  0  0  0  0  0  0  0  0
   -2.1744   -2.0513    0.3415 H   0  0  0  0  0  0  0  0  0  0  0  0
   -0.6660   -2.0578    1.2740 H   0  0  0  0  0  0  0  0  0  0  0  0
   -0.6395   -1.9821   -0.5742 H   0  0  0  0  0  0  0  0  0  0  0  0
  1  2  1  0
  2  3  2  0
  3  4  1  0
  4  5  1  0
  5  6  1  0
  6  7  1  0
  7  8  1  0
  6  2  1  0
  7  4  1  0
  1  9  1  0
  1 10  1  0
  1 11  1  0
  3 12  1  0
  4 13  1  0
  5 14  1  0
  5 15  1  0
  6 16  1  0
  7 17  1  0
  8 18  1  0
  8 19  1  0
  8 20  1  0
M  END
