
     RDKit          3D

 21 21  0  0  0  0  0  0  0  0999 V2000
    2.7544   -0.3291   -0.0200 C   0  0  0  0  0  0  0  0  0  0  0  0
    1.2864   -0.1665   -0.2057 C   0  0  0  0  0  0  0  0  0  0  0  0
    0.6404   -1.2782   -0.5260 C   0  0  0  0  0  0  0  0  0  0  0  0
   -0.8250   -1.3652   -0.7616 C   0  0  0  0  0  0  0  0  0  0  0  0
   -1.6059   -0.5977    0.2615 C   0  0  0  0  0  0  0  0  0  0  0  0
   -1.6665    0.8669    0.0694 C   0  0  0  0  0  0  0  0  0  0  0  0
   -2.5002    1.3823    1.0890 O   0  0  0  0  0  0  0  0  0  0  0  0
   -0.4169    1.5968    0.1121 C   0  0  0  0  0  0  0  0  0  0  0  0
    0.8312    1.2008    0.0013 C   0  0  0  0  0  0  0  0  0  0  0  0
    3.3507    0.1665   -0.7885 H   0  0  0  0  0  0  0  0  0  0  0  0
    3.0594   -1.3874    0.0730 H   0  0  0  0  0  0  0  0  0  0  0  0
    2.9910    0.1546    0.9645 H   0  0  0  0  0  0  0  0  0  0  0  0
    1.2293   -2.1872   -0.6217 H   0  0  0  0  0  0  0  0  0  0  0  0
   -1.1922   -2.4187   -0.7342 H   0  0  0  0  0  0  0  0  0  0  0  0
   -1.0376   -1.0184   -1.8084 H   0  0  0  0  0  0  0  0  0  0  0  0
   -1.1846   -0.8636    1.2530 H   0  0  0  0  0  0  0  0  0  0  0  0
   -2.6423   -0.9953    0.2549 H   0  0  0  0  0  0  0  0  0  0  0  0
   -2.1937    1.1222   -0.8798 H   0  0  0  0  0  0  0  0  0  0  0  0
   -1.9923    1.4856    1.9355 H   0  0  0  0  0  0  0  0  0  0  0  0
   -0.5073    2.6635    0.2616 H   0  0  0  0  0  0  0  0  0  0  0  0
    1.6216    1.9682    0.0700 H   0  0  0  0  0  0  0  0  0  0  0  0
  1  2  1  0
  2  3  2  0
  3  4  1  0
  4  5  1  0
  5  6  1  0
  6  7  1  0
  6  8  1  0
  8  9  2  0
  9  2  1  0
  1 10  1  0
  1 11  1  0
  1 12  1  0
  3 13  1  0
  4 14  1  0
  4 15  1  0
  5 16  1  0
  5 17  1  0
  6 18  1  0
  7 19  1  0
  8 20  1  0
  9 21  1  0
M  END
