
     RDKit          3D

 17 18  0  0  0  0  0  0  0  0999 V2000
    2.0636   -0.1821    0.1505 C   0  0  0  0  0  0  0  0  0  0  0  0
    0.6389   -0.4839   -0.1421 C   0  0  0  0  0  0  0  0  0  0  0  0
    0.0527   -1.6218   -0.5305 C   0  0  0  0  0  0  0  0  0  0  0  0
   -1.3831   -1.1703   -0.6321 C   0  0  0  0  0  0  0  0  0  0  0  0
   -1.1949    0.0700   -1.2770 O   0  0  0  0  0  0  0  0  0  0  0  0
   -0.5549    0.4346   -0.0773 C   0  0  0  0  0  0  0  0  0  0  0  0
   -0.3811    1.8128    0.2654 C   0  0  0  0  0  0  0  0  0  0  0  0
   -1.5733   -0.4085    0.6062 C   0  0  0  0  0  0  0  0  0  0  0  0
   -2.2291   -0.4872    1.6071 O   0  0  0  0  0  0  0  0  0  0  0  0
    2.7469   -0.6159   -0.6140 H   0  0  0  0  0  0  0  0  0  0  0  0
    2.3880   -0.5585    1.1348 H   0  0  0  0  0  0  0  0  0  0  0  0
    2.2066    0.9149    0.0985 H   0  0  0  0  0  0  0  0  0  0  0  0
    0.4689   -2.6027   -0.7242 H   0  0  0  0  0  0  0  0  0  0  0  0
   -2.1040   -1.8396   -1.0029 H   0  0  0  0  0  0  0  0  0  0  0  0
    0.6475    2.2008    0.3774 H   0  0  0  0  0  0  0  0  0  0  0  0
   -0.8955    2.0551    1.2416 H   0  0  0  0  0  0  0  0  0  0  0  0
   -0.8973    2.4824   -0.4815 H   0  0  0  0  0  0  0  0  0  0  0  0
  1  2  1  0
  2  3  2  0
  3  4  1  0
  4  5  1  0
  5  6  1  0
  6  7  1  0
  6  8  1  0
  8  9  2  0
  6  2  1  0
  8  4  1  0
  1 10  1  0
  1 11  1  0
  1 12  1  0
  3 13  1  0
  4 14  1  0
  7 15  1  0
  7 16  1  0
  7 17  1  0
M  END
