
     RDKit          3D

 23 23  0  0  0  0  0  0  0  0999 V2000
    2.7594   -0.4581   -0.8897 C   0  0  0  0  0  0  0  0  0  0  0  0
    1.4774   -0.0360   -0.3124 C   0  0  0  0  0  0  0  0  0  0  0  0
    0.3240   -0.6775   -0.5097 C   0  0  0  0  0  0  0  0  0  0  0  0
   -0.9383   -0.2187    0.0890 C   0  0  0  0  0  0  0  0  0  0  0  0
   -1.5798   -1.3002    0.9410 C   0  0  0  0  0  0  0  0  0  0  0  0
   -1.9672    0.1944   -0.9553 C   0  0  0  0  0  0  0  0  0  0  0  0
   -0.7517    0.9854    0.9894 C   0  0  0  0  0  0  0  0  0  0  0  0
    0.4981    0.8779    1.5752 O   0  0  0  0  0  0  0  0  0  0  0  0
    1.4241    1.1739    0.5484 C   0  0  0  0  0  0  0  0  0  0  0  0
    2.7038   -1.4379   -1.3945 H   0  0  0  0  0  0  0  0  0  0  0  0
    3.2157    0.3290   -1.5241 H   0  0  0  0  0  0  0  0  0  0  0  0
    3.4744   -0.6010   -0.0271 H   0  0  0  0  0  0  0  0  0  0  0  0
    0.3054   -1.5657   -1.1287 H   0  0  0  0  0  0  0  0  0  0  0  0
   -0.8134   -1.8137    1.5642 H   0  0  0  0  0  0  0  0  0  0  0  0
   -2.2584   -0.7903    1.6549 H   0  0  0  0  0  0  0  0  0  0  0  0
   -2.1100   -2.0319    0.2944 H   0  0  0  0  0  0  0  0  0  0  0  0
   -2.9033    0.4216   -0.3672 H   0  0  0  0  0  0  0  0  0  0  0  0
   -1.6842    1.1550   -1.4409 H   0  0  0  0  0  0  0  0  0  0  0  0
   -2.2175   -0.6054   -1.6498 H   0  0  0  0  0  0  0  0  0  0  0  0
   -1.5709    1.0329    1.7338 H   0  0  0  0  0  0  0  0  0  0  0  0
   -0.7929    1.8802    0.3359 H   0  0  0  0  0  0  0  0  0  0  0  0
    1.0141    1.9954   -0.1054 H   0  0  0  0  0  0  0  0  0  0  0  0
    2.3909    1.4907    0.9344 H   0  0  0  0  0  0  0  0  0  0  0  0
  1  2  1  0
  2  3  2  0
  3  4  1  0
  4  5  1  0
  4  6  1  0
  4  7  1  0
  7  8  1  0
  8  9  1  0
  9  2  1  0
  1 10  1  0
  1 11  1  0
  1 12  1  0
  3 13  1  0
  5 14  1  0
  5 15  1  0
  5 16  1  0
  6 17  1  0
  6 18  1  0
  6 19  1  0
  7 20  1  0
  7 21  1  0
  9 22  1  0
  9 23  1  0
M  END
