
     RDKit          3D

 21 22  0  0  0  0  0  0  0  0999 V2000
    2.1484    1.3332   -0.3322 C   0  0  0  0  0  0  0  0  0  0  0  0
    1.0658    0.3675    0.0107 C   0  0  0  0  0  0  0  0  0  0  0  0
   -0.1979    0.6148    0.1016 C   0  0  0  0  0  0  0  0  0  0  0  0
   -1.2876    1.5803    0.0099 C   0  0  0  0  0  0  0  0  0  0  0  0
   -2.4482    0.8696   -0.2958 O   0  0  0  0  0  0  0  0  0  0  0  0
   -2.0993   -0.4946   -0.4065 C   0  0  0  0  0  0  0  0  0  0  0  0
   -0.9017   -0.6410    0.4703 C   0  0  0  0  0  0  0  0  0  0  0  0
    0.0211   -1.7706    0.1542 C   0  0  0  0  0  0  0  0  0  0  0  0
    1.3676   -1.0819    0.2897 C   0  0  0  0  0  0  0  0  0  0  0  0
    2.9881    1.1726    0.4060 H   0  0  0  0  0  0  0  0  0  0  0  0
    1.7863    2.3735   -0.3120 H   0  0  0  0  0  0  0  0  0  0  0  0
    2.5879    1.1442   -1.3257 H   0  0  0  0  0  0  0  0  0  0  0  0
   -1.1104    2.4034   -0.7080 H   0  0  0  0  0  0  0  0  0  0  0  0
   -1.4534    2.0179    1.0349 H   0  0  0  0  0  0  0  0  0  0  0  0
   -2.9353   -1.1387   -0.0846 H   0  0  0  0  0  0  0  0  0  0  0  0
   -1.9266   -0.6806   -1.4702 H   0  0  0  0  0  0  0  0  0  0  0  0
   -1.2313   -0.6087    1.5220 H   0  0  0  0  0  0  0  0  0  0  0  0
   -0.0276   -2.5865    0.9042 H   0  0  0  0  0  0  0  0  0  0  0  0
   -0.1263   -2.2304   -0.8305 H   0  0  0  0  0  0  0  0  0  0  0  0
    1.7519   -1.1232    1.3246 H   0  0  0  0  0  0  0  0  0  0  0  0
    2.0285   -1.5208   -0.4626 H   0  0  0  0  0  0  0  0  0  0  0  0
  1  2  1  0
  2  3  2  0
  3  4  1  0
  4  5  1  0
  5  6  1  0
  6  7  1  0
  7  8  1  0
  8  9  1  0
  9  2  1  0
  7  3  1  0
  1 10  1  0
  1 11  1  0
  1 12  1  0
  4 13  1  0
  4 14  1  0
  6 15  1  0
  6 16  1  0
  7 17  1  0
  8 18  1  0
  8 19  1  0
  9 20  1  0
  9 21  1  0
M  END
