
     RDKit          3D

 21 22  0  0  0  0  0  0  0  0999 V2000
    1.9481    1.4932    0.2703 C   0  0  0  0  0  0  0  0  0  0  0  0
    0.8788    0.4710   -0.0382 C   0  0  0  0  0  0  0  0  0  0  0  0
   -0.3917    0.7650   -0.1037 C   0  0  0  0  0  0  0  0  0  0  0  0
   -1.7398    1.3518   -0.1182 C   0  0  0  0  0  0  0  0  0  0  0  0
   -2.1732   -0.0063    0.4788 C   0  0  0  0  0  0  0  0  0  0  0  0
   -1.1132   -0.5309   -0.4431 C   0  0  0  0  0  0  0  0  0  0  0  0
   -0.1880   -1.5991    0.0570 C   0  0  0  0  0  0  0  0  0  0  0  0
    1.1563   -0.9489   -0.2872 C   0  0  0  0  0  0  0  0  0  0  0  0
    2.1784   -1.4584    0.4732 O   0  0  0  0  0  0  0  0  0  0  0  0
    2.8652    0.9940    0.6115 H   0  0  0  0  0  0  0  0  0  0  0  0
    1.6130    2.1479    1.1134 H   0  0  0  0  0  0  0  0  0  0  0  0
    2.0694    2.0793   -0.6607 H   0  0  0  0  0  0  0  0  0  0  0  0
   -1.9329    2.2016    0.5365 H   0  0  0  0  0  0  0  0  0  0  0  0
   -2.1074    1.4431   -1.1634 H   0  0  0  0  0  0  0  0  0  0  0  0
   -1.9089   -0.0779    1.5294 H   0  0  0  0  0  0  0  0  0  0  0  0
   -3.2176   -0.2481    0.2135 H   0  0  0  0  0  0  0  0  0  0  0  0
   -1.4156   -0.6000   -1.5053 H   0  0  0  0  0  0  0  0  0  0  0  0
   -0.2901   -1.8321    1.1109 H   0  0  0  0  0  0  0  0  0  0  0  0
   -0.2588   -2.5060   -0.5790 H   0  0  0  0  0  0  0  0  0  0  0  0
    1.3163   -1.0690   -1.3885 H   0  0  0  0  0  0  0  0  0  0  0  0
    2.7118   -2.0704   -0.1071 H   0  0  0  0  0  0  0  0  0  0  0  0
  1  2  1  0
  2  3  2  0
  3  4  1  0
  4  5  1  0
  5  6  1  0
  6  7  1  0
  7  8  1  0
  8  9  1  0
  8  2  1  0
  6  3  1  0
  1 10  1  0
  1 11  1  0
  1 12  1  0
  4 13  1  0
  4 14  1  0
  5 15  1  0
  5 16  1  0
  6 17  1  0
  7 18  1  0
  7 19  1  0
  8 20  1  0
  9 21  1  0
M  END
