
     RDKit          3D

 23 23  0  0  0  0  0  0  0  0999 V2000
    2.3526   -0.8514   -0.0873 C   0  0  0  0  0  0  0  0  0  0  0  0
    0.9042   -0.5141   -0.0028 C   0  0  0  0  0  0  0  0  0  0  0  0
    0.1654   -1.5203    0.5059 C   0  0  0  0  0  0  0  0  0  0  0  0
   -1.3013   -1.5832    0.7513 C   0  0  0  0  0  0  0  0  0  0  0  0
   -2.0352   -1.0595   -0.3102 O   0  0  0  0  0  0  0  0  0  0  0  0
   -1.9985    0.3085   -0.3927 C   0  0  0  0  0  0  0  0  0  0  0  0
   -0.8367    0.7964   -1.2144 C   0  0  0  0  0  0  0  0  0  0  0  0
    0.4553    0.8162   -0.4606 C   0  0  0  0  0  0  0  0  0  0  0  0
    0.4664    1.8196    0.6684 C   0  0  0  0  0  0  0  0  0  0  0  0
    2.5423   -1.4345   -1.0349 H   0  0  0  0  0  0  0  0  0  0  0  0
    2.9352    0.0863   -0.1006 H   0  0  0  0  0  0  0  0  0  0  0  0
    2.6064   -1.5092    0.7710 H   0  0  0  0  0  0  0  0  0  0  0  0
    0.7336   -2.4049    0.7705 H   0  0  0  0  0  0  0  0  0  0  0  0
   -1.5705   -2.6572    0.8129 H   0  0  0  0  0  0  0  0  0  0  0  0
   -1.5422   -1.1063    1.7076 H   0  0  0  0  0  0  0  0  0  0  0  0
   -2.0116    0.8222    0.5707 H   0  0  0  0  0  0  0  0  0  0  0  0
   -2.9285    0.6311   -0.9467 H   0  0  0  0  0  0  0  0  0  0  0  0
   -0.6810    0.1726   -2.1240 H   0  0  0  0  0  0  0  0  0  0  0  0
   -1.0563    1.8138   -1.5538 H   0  0  0  0  0  0  0  0  0  0  0  0
    1.2312    1.1813   -1.1888 H   0  0  0  0  0  0  0  0  0  0  0  0
   -0.2388    1.5654    1.4782 H   0  0  0  0  0  0  0  0  0  0  0  0
    0.3259    2.8383    0.2664 H   0  0  0  0  0  0  0  0  0  0  0  0
    1.4818    1.7888    1.1137 H   0  0  0  0  0  0  0  0  0  0  0  0
  1  2  1  0
  2  3  2  0
  3  4  1  0
  4  5  1  0
  5  6  1  0
  6  7  1  0
  7  8  1  0
  8  9  1  0
  8  2  1  0
  1 10  1  0
  1 11  1  0
  1 12  1  0
  3 13  1  0
  4 14  1  0
  4 15  1  0
  6 16  1  0
  6 17  1  0
  7 18  1  0
  7 19  1  0
  8 20  1  0
  9 21  1  0
  9 22  1  0
  9 23  1  0
M  END
