
     RDKit          3D

 19 20  0  0  0  0  0  0  0  0999 V2000
    2.7719    0.2685   -0.3132 C   0  0  0  0  0  0  0  0  0  0  0  0
    1.3665   -0.1229   -0.0528 C   0  0  0  0  0  0  0  0  0  0  0  0
    0.9260   -1.3465    0.1982 C   0  0  0  0  0  0  0  0  0  0  0  0
   -0.5159   -1.3422    0.4030 C   0  0  0  0  0  0  0  0  0  0  0  0
   -1.1883   -2.3209    0.7778 O   0  0  0  0  0  0  0  0  0  0  0  0
   -0.9865    0.0084    0.0855 C   0  0  0  0  0  0  0  0  0  0  0  0
   -2.1237    0.1060   -0.8562 C   0  0  0  0  0  0  0  0  0  0  0  0
   -2.2819    0.5346    0.5445 C   0  0  0  0  0  0  0  0  0  0  0  0
    0.2356    0.8411   -0.0399 C   0  0  0  0  0  0  0  0  0  0  0  0
    3.0049    0.3725   -1.3725 H   0  0  0  0  0  0  0  0  0  0  0  0
    3.0013    1.2349    0.1809 H   0  0  0  0  0  0  0  0  0  0  0  0
    3.4962   -0.4833    0.0944 H   0  0  0  0  0  0  0  0  0  0  0  0
    1.6107   -2.2102    0.2335 H   0  0  0  0  0  0  0  0  0  0  0  0
   -2.6624   -0.8474   -1.1288 H   0  0  0  0  0  0  0  0  0  0  0  0
   -2.0767    0.8078   -1.6936 H   0  0  0  0  0  0  0  0  0  0  0  0
   -2.2853    1.6333    0.7959 H   0  0  0  0  0  0  0  0  0  0  0  0
   -2.8334   -0.0788    1.2682 H   0  0  0  0  0  0  0  0  0  0  0  0
    0.3267    1.4722    0.8831 H   0  0  0  0  0  0  0  0  0  0  0  0
    0.2143    1.4730   -0.9487 H   0  0  0  0  0  0  0  0  0  0  0  0
  1  2  1  0
  2  3  2  0
  3  4  1  0
  4  5  2  0
  4  6  1  0
  6  7  1  0
  7  8  1  0
  6  9  1  0
  9  2  1  0
  8  6  1  0
  1 10  1  0
  1 11  1  0
  1 12  1  0
  3 13  1  0
  7 14  1  0
  7 15  1  0
  8 16  1  0
  8 17  1  0
  9 18  1  0
  9 19  1  0
M  END
