
     RDKit          3D

 19 20  0  0  0  0  0  0  0  0999 V2000
    2.7210   -0.4687   -0.0704 C   0  0  0  0  0  0  0  0  0  0  0  0
    1.2571   -0.2624   -0.2280 C   0  0  0  0  0  0  0  0  0  0  0  0
    0.2720   -1.1269   -0.4729 C   0  0  0  0  0  0  0  0  0  0  0  0
   -0.9115   -0.1884   -0.4844 C   0  0  0  0  0  0  0  0  0  0  0  0
   -2.2097   -0.7025   -0.8245 C   0  0  0  0  0  0  0  0  0  0  0  0
   -0.3692    0.8773   -1.2428 O   0  0  0  0  0  0  0  0  0  0  0  0
    0.4967    1.0271   -0.1463 C   0  0  0  0  0  0  0  0  0  0  0  0
   -0.6945    0.6770    0.7128 C   0  0  0  0  0  0  0  0  0  0  0  0
   -1.6144    1.7188    0.7632 O   0  0  0  0  0  0  0  0  0  0  0  0
    2.9855   -1.5202   -0.2138 H   0  0  0  0  0  0  0  0  0  0  0  0
    3.1078   -0.0693    0.8861 H   0  0  0  0  0  0  0  0  0  0  0  0
    3.2816    0.1009   -0.8693 H   0  0  0  0  0  0  0  0  0  0  0  0
    0.2594   -2.1940   -0.6271 H   0  0  0  0  0  0  0  0  0  0  0  0
   -2.1966   -1.6911   -1.3172 H   0  0  0  0  0  0  0  0  0  0  0  0
   -2.9199   -0.7860    0.0286 H   0  0  0  0  0  0  0  0  0  0  0  0
   -2.7279   -0.0170   -1.5575 H   0  0  0  0  0  0  0  0  0  0  0  0
    1.0132    1.9317   -0.0082 H   0  0  0  0  0  0  0  0  0  0  0  0
   -0.4814    0.1778    1.6636 H   0  0  0  0  0  0  0  0  0  0  0  0
   -1.2692    2.5160    0.3100 H   0  0  0  0  0  0  0  0  0  0  0  0
  1  2  1  0
  2  3  2  0
  3  4  1  0
  4  5  1  0
  4  6  1  0
  6  7  1  0
  7  8  1  0
  8  9  1  0
  7  2  1  0
  8  4  1  0
  1 10  1  0
  1 11  1  0
  1 12  1  0
  3 13  1  0
  5 14  1  0
  5 15  1  0
  5 16  1  0
  7 17  1  0
  8 18  1  0
  9 19  1  0
M  END
