
     RDKit          3D

 18 18  0  0  0  0  0  0  0  0999 V2000
    2.1880   -0.3267   -0.1834 C   0  0  0  0  0  0  0  0  0  0  0  0
    0.6996   -0.3703   -0.1625 C   0  0  0  0  0  0  0  0  0  0  0  0
   -0.0929   -1.1090   -0.9186 C   0  0  0  0  0  0  0  0  0  0  0  0
   -1.5247   -0.8716   -0.5990 C   0  0  0  0  0  0  0  0  0  0  0  0
   -1.5303   -0.0137    0.6448 C   0  0  0  0  0  0  0  0  0  0  0  0
   -0.1133    0.4666    0.7717 C   0  0  0  0  0  0  0  0  0  0  0  0
    0.0414    1.8828    0.3769 C   0  0  0  0  0  0  0  0  0  0  0  0
    1.1206    2.3638    0.1228 O   0  0  0  0  0  0  0  0  0  0  0  0
    2.5864    0.5535    0.3182 H   0  0  0  0  0  0  0  0  0  0  0  0
    2.4748   -0.2840   -1.2688 H   0  0  0  0  0  0  0  0  0  0  0  0
    2.5764   -1.2590    0.2712 H   0  0  0  0  0  0  0  0  0  0  0  0
    0.2613   -1.7944   -1.6696 H   0  0  0  0  0  0  0  0  0  0  0  0
   -1.9710   -1.8615   -0.3752 H   0  0  0  0  0  0  0  0  0  0  0  0
   -1.9992   -0.4002   -1.4646 H   0  0  0  0  0  0  0  0  0  0  0  0
   -2.2366    0.8538    0.5088 H   0  0  0  0  0  0  0  0  0  0  0  0
   -1.8661   -0.6159    1.5033 H   0  0  0  0  0  0  0  0  0  0  0  0
    0.2115    0.2735    1.8133 H   0  0  0  0  0  0  0  0  0  0  0  0
   -0.8259    2.5125    0.3106 H   0  0  0  0  0  0  0  0  0  0  0  0
  1  2  1  0
  2  3  2  0
  3  4  1  0
  4  5  1  0
  5  6  1  0
  6  7  1  0
  7  8  2  0
  6  2  1  0
  1  9  1  0
  1 10  1  0
  1 11  1  0
  3 12  1  0
  4 13  1  0
  4 14  1  0
  5 15  1  0
  5 16  1  0
  6 17  1  0
  7 18  1  0
M  END
