
     RDKit          3D

 21 22  0  0  0  0  0  0  0  0999 V2000
    2.7883   -0.3119   -0.2942 C   0  0  0  0  0  0  0  0  0  0  0  0
    1.3398    0.1155   -0.2028 C   0  0  0  0  0  0  0  0  0  0  0  0
    0.8710    1.3402   -0.2786 C   0  0  0  0  0  0  0  0  0  0  0  0
   -0.6006    1.3113   -0.1399 C   0  0  0  0  0  0  0  0  0  0  0  0
   -1.0447    0.9941    1.2778 C   0  0  0  0  0  0  0  0  0  0  0  0
   -0.9716   -0.0531    0.2506 C   0  0  0  0  0  0  0  0  0  0  0  0
   -2.3291   -0.6000   -0.2082 C   0  0  0  0  0  0  0  0  0  0  0  0
    0.2486   -0.8550   -0.0165 C   0  0  0  0  0  0  0  0  0  0  0  0
    0.5276   -1.8019    0.9576 O   0  0  0  0  0  0  0  0  0  0  0  0
    3.3077    0.4181   -0.9230 H   0  0  0  0  0  0  0  0  0  0  0  0
    3.1713   -0.2913    0.7281 H   0  0  0  0  0  0  0  0  0  0  0  0
    2.8793   -1.2969   -0.7980 H   0  0  0  0  0  0  0  0  0  0  0  0
    1.4544    2.2336   -0.4193 H   0  0  0  0  0  0  0  0  0  0  0  0
   -1.2348    1.9663   -0.7635 H   0  0  0  0  0  0  0  0  0  0  0  0
   -2.0166    1.4161    1.5336 H   0  0  0  0  0  0  0  0  0  0  0  0
   -0.3035    1.0747    2.1014 H   0  0  0  0  0  0  0  0  0  0  0  0
   -2.8339   -0.9281    0.7467 H   0  0  0  0  0  0  0  0  0  0  0  0
   -2.9557    0.1968   -0.6550 H   0  0  0  0  0  0  0  0  0  0  0  0
   -2.2169   -1.4913   -0.8341 H   0  0  0  0  0  0  0  0  0  0  0  0
    0.1489   -1.4307   -0.9753 H   0  0  0  0  0  0  0  0  0  0  0  0
   -0.2293   -2.0066    1.5482 H   0  0  0  0  0  0  0  0  0  0  0  0
  1  2  1  0
  2  3  2  0
  3  4  1  0
  4  5  1  0
  5  6  1  0
  6  7  1  0
  6  8  1  0
  8  9  1  0
  8  2  1  0
  6  4  1  0
  1 10  1  0
  1 11  1  0
  1 12  1  0
  3 13  1  0
  4 14  1  0
  5 15  1  0
  5 16  1  0
  7 17  1  0
  7 18  1  0
  7 19  1  0
  8 20  1  0
  9 21  1  0
M  END
