
     RDKit          3D

 23 23  0  0  0  0  0  0  0  0999 V2000
    2.7507    0.1272   -0.3430 C   0  0  0  0  0  0  0  0  0  0  0  0
    1.3391   -0.3217   -0.2012 C   0  0  0  0  0  0  0  0  0  0  0  0
    0.9015   -1.5085   -0.6137 C   0  0  0  0  0  0  0  0  0  0  0  0
   -0.5541   -1.6103   -0.3100 C   0  0  0  0  0  0  0  0  0  0  0  0
   -0.9670   -0.1526   -0.3537 C   0  0  0  0  0  0  0  0  0  0  0  0
   -2.2158    0.1054    0.4557 C   0  0  0  0  0  0  0  0  0  0  0  0
   -3.2966   -0.6397   -0.0141 O   0  0  0  0  0  0  0  0  0  0  0  0
    0.2309    0.4482    0.3985 C   0  0  0  0  0  0  0  0  0  0  0  0
    0.3390    1.9254    0.1833 C   0  0  0  0  0  0  0  0  0  0  0  0
    3.3181   -0.5150   -1.0464 H   0  0  0  0  0  0  0  0  0  0  0  0
    2.8197    1.1827   -0.6955 H   0  0  0  0  0  0  0  0  0  0  0  0
    3.2804    0.0803    0.6268 H   0  0  0  0  0  0  0  0  0  0  0  0
    1.4498   -2.3133   -1.0954 H   0  0  0  0  0  0  0  0  0  0  0  0
   -1.0531   -2.2168   -1.0808 H   0  0  0  0  0  0  0  0  0  0  0  0
   -0.6896   -2.0057    0.7156 H   0  0  0  0  0  0  0  0  0  0  0  0
   -1.0324    0.2041   -1.3807 H   0  0  0  0  0  0  0  0  0  0  0  0
   -2.0108   -0.2300    1.5032 H   0  0  0  0  0  0  0  0  0  0  0  0
   -2.4396    1.1896    0.4033 H   0  0  0  0  0  0  0  0  0  0  0  0
   -3.2419   -0.7839   -0.9933 H   0  0  0  0  0  0  0  0  0  0  0  0
    0.0526    0.1837    1.4715 H   0  0  0  0  0  0  0  0  0  0  0  0
    0.6469    2.1036   -0.8558 H   0  0  0  0  0  0  0  0  0  0  0  0
   -0.6475    2.4074    0.3266 H   0  0  0  0  0  0  0  0  0  0  0  0
    1.0197    2.3399    0.9374 H   0  0  0  0  0  0  0  0  0  0  0  0
  1  2  1  0
  2  3  2  0
  3  4  1  0
  4  5  1  0
  5  6  1  0
  6  7  1  0
  5  8  1  0
  8  9  1  0
  8  2  1  0
  1 10  1  0
  1 11  1  0
  1 12  1  0
  3 13  1  0
  4 14  1  0
  4 15  1  0
  5 16  1  0
  6 17  1  0
  6 18  1  0
  7 19  1  0
  8 20  1  0
  9 21  1  0
  9 22  1  0
  9 23  1  0
M  END
