
     RDKit          3D

 19 19  0  0  0  0  0  0  0  0999 V2000
    2.2150    0.6701   -0.7772 C   0  0  0  0  0  0  0  0  0  0  0  0
    0.8689    0.1114   -0.4070 C   0  0  0  0  0  0  0  0  0  0  0  0
    0.7332   -1.1955   -0.4789 C   0  0  0  0  0  0  0  0  0  0  0  0
   -0.5791   -1.8173   -0.1248 C   0  0  0  0  0  0  0  0  0  0  0  0
   -1.1865   -0.9553    0.9002 C   0  0  0  0  0  0  0  0  0  0  0  0
   -1.4972   -1.4147    1.9621 O   0  0  0  0  0  0  0  0  0  0  0  0
   -1.3940    0.4631    0.5791 C   0  0  0  0  0  0  0  0  0  0  0  0
   -1.8598    1.1938    1.6946 O   0  0  0  0  0  0  0  0  0  0  0  0
   -0.1659    1.0697   -0.0013 C   0  0  0  0  0  0  0  0  0  0  0  0
    2.9488    0.5570    0.0364 H   0  0  0  0  0  0  0  0  0  0  0  0
    2.5991    0.1794   -1.7009 H   0  0  0  0  0  0  0  0  0  0  0  0
    2.1457    1.7513   -1.0181 H   0  0  0  0  0  0  0  0  0  0  0  0
    1.5469   -1.8419   -0.7886 H   0  0  0  0  0  0  0  0  0  0  0  0
   -0.4627   -2.8695    0.1989 H   0  0  0  0  0  0  0  0  0  0  0  0
   -1.1690   -1.8452   -1.0675 H   0  0  0  0  0  0  0  0  0  0  0  0
   -2.2218    0.4989   -0.1893 H   0  0  0  0  0  0  0  0  0  0  0  0
   -2.3558    1.9640    1.3203 H   0  0  0  0  0  0  0  0  0  0  0  0
   -0.4384    1.6906   -0.8800 H   0  0  0  0  0  0  0  0  0  0  0  0
    0.2725    1.7898    0.7422 H   0  0  0  0  0  0  0  0  0  0  0  0
  1  2  1  0
  2  3  2  0
  3  4  1  0
  4  5  1  0
  5  6  2  0
  5  7  1  0
  7  8  1  0
  7  9  1  0
  9  2  1  0
  1 10  1  0
  1 11  1  0
  1 12  1  0
  3 13  1  0
  4 14  1  0
  4 15  1  0
  7 16  1  0
  8 17  1  0
  9 18  1  0
  9 19  1  0
M  END
