
     RDKit          3D

 19 19  0  0  0  0  0  0  0  0999 V2000
   -1.6720    0.5207   -1.5059 C   0  0  0  0  0  0  0  0  0  0  0  0
   -0.8638   -0.1038   -0.4514 C   0  0  0  0  0  0  0  0  0  0  0  0
    0.3943    0.1482   -0.1128 C   0  0  0  0  0  0  0  0  0  0  0  0
    1.2200    1.1766   -0.8082 C   0  0  0  0  0  0  0  0  0  0  0  0
    0.7205   -0.7523    0.9955 C   0  0  0  0  0  0  0  0  0  0  0  0
    1.7587   -0.2320    1.9118 C   0  0  0  0  0  0  0  0  0  0  0  0
    1.4215   -0.0281    3.0746 O   0  0  0  0  0  0  0  0  0  0  0  0
   -0.5075   -0.9306    1.6233 O   0  0  0  0  0  0  0  0  0  0  0  0
   -1.3110   -1.1767    0.4822 C   0  0  0  0  0  0  0  0  0  0  0  0
   -1.0537    0.9774   -2.3131 H   0  0  0  0  0  0  0  0  0  0  0  0
   -2.3476   -0.2469   -1.9501 H   0  0  0  0  0  0  0  0  0  0  0  0
   -2.3220    1.2958   -1.0181 H   0  0  0  0  0  0  0  0  0  0  0  0
    1.1267    0.9851   -1.8920 H   0  0  0  0  0  0  0  0  0  0  0  0
    0.7555    2.1786   -0.6268 H   0  0  0  0  0  0  0  0  0  0  0  0
    2.2430    1.2326   -0.4385 H   0  0  0  0  0  0  0  0  0  0  0  0
    1.0499   -1.7730    0.6571 H   0  0  0  0  0  0  0  0  0  0  0  0
    2.7646   -0.0269    1.6290 H   0  0  0  0  0  0  0  0  0  0  0  0
   -2.3767   -1.1032    0.7034 H   0  0  0  0  0  0  0  0  0  0  0  0
   -1.0003   -2.1415    0.0399 H   0  0  0  0  0  0  0  0  0  0  0  0
  1  2  1  0
  2  3  2  0
  3  4  1  0
  3  5  1  0
  5  6  1  0
  6  7  2  0
  5  8  1  0
  8  9  1  0
  9  2  1  0
  1 10  1  0
  1 11  1  0
  1 12  1  0
  4 13  1  0
  4 14  1  0
  4 15  1  0
  5 16  1  0
  6 17  1  0
  9 18  1  0
  9 19  1  0
M  END
