
     RDKit          3D

 21 22  0  0  0  0  0  0  0  0999 V2000
    2.8867   -0.4911   -0.1262 C   0  0  0  0  0  0  0  0  0  0  0  0
    1.4219   -0.1586   -0.2058 C   0  0  0  0  0  0  0  0  0  0  0  0
    0.6600   -0.0322   -1.2803 C   0  0  0  0  0  0  0  0  0  0  0  0
   -0.7257    0.3006   -0.9504 C   0  0  0  0  0  0  0  0  0  0  0  0
   -1.5560   -0.5204   -0.0579 C   0  0  0  0  0  0  0  0  0  0  0  0
   -3.0160   -0.2074    0.0458 C   0  0  0  0  0  0  0  0  0  0  0  0
   -0.6664    0.5789    0.5278 C   0  0  0  0  0  0  0  0  0  0  0  0
    0.6332    0.0780    1.0322 C   0  0  0  0  0  0  0  0  0  0  0  0
    1.2644    0.8750    1.9487 O   0  0  0  0  0  0  0  0  0  0  0  0
    3.3601    0.0468    0.7266 H   0  0  0  0  0  0  0  0  0  0  0  0
    3.0432   -1.5623   -0.0055 H   0  0  0  0  0  0  0  0  0  0  0  0
    3.3464   -0.0888   -1.0414 H   0  0  0  0  0  0  0  0  0  0  0  0
    1.0466   -0.1661   -2.2857 H   0  0  0  0  0  0  0  0  0  0  0  0
   -1.2820    1.0056   -1.6124 H   0  0  0  0  0  0  0  0  0  0  0  0
   -1.3070   -1.5772    0.1830 H   0  0  0  0  0  0  0  0  0  0  0  0
   -3.6674   -1.0227   -0.3042 H   0  0  0  0  0  0  0  0  0  0  0  0
   -3.2439   -0.0957    1.1474 H   0  0  0  0  0  0  0  0  0  0  0  0
   -3.2823    0.7760   -0.3977 H   0  0  0  0  0  0  0  0  0  0  0  0
   -1.1112    1.5234    0.8328 H   0  0  0  0  0  0  0  0  0  0  0  0
    0.5022   -0.9366    1.5064 H   0  0  0  0  0  0  0  0  0  0  0  0
    1.6932    1.6749    1.5431 H   0  0  0  0  0  0  0  0  0  0  0  0
  1  2  1  0
  2  3  2  0
  3  4  1  0
  4  5  1  0
  5  6  1  0
  5  7  1  0
  7  8  1  0
  8  9  1  0
  8  2  1  0
  7  4  1  0
  1 10  1  0
  1 11  1  0
  1 12  1  0
  3 13  1  0
  4 14  1  0
  5 15  1  0
  6 16  1  0
  6 17  1  0
  6 18  1  0
  7 19  1  0
  8 20  1  0
  9 21  1  0
M  END
