
     RDKit          3D

 17 19  0  0  0  0  0  0  0  0999 V2000
    2.1451    0.7733   -0.0923 C   0  0  0  0  0  0  0  0  0  0  0  0
    0.8759    0.0056   -0.0512 C   0  0  0  0  0  0  0  0  0  0  0  0
   -0.3329    0.4376   -0.2863 C   0  0  0  0  0  0  0  0  0  0  0  0
   -1.1679   -0.8408   -0.0869 C   0  0  0  0  0  0  0  0  0  0  0  0
   -0.4537   -1.5582    0.8108 O   0  0  0  0  0  0  0  0  0  0  0  0
    0.8892   -1.4469    0.3744 C   0  0  0  0  0  0  0  0  0  0  0  0
   -2.2456    0.1038    0.2480 C   0  0  0  0  0  0  0  0  0  0  0  0
   -2.7687    0.6889   -0.8916 O   0  0  0  0  0  0  0  0  0  0  0  0
   -1.5607    1.2154   -0.5912 C   0  0  0  0  0  0  0  0  0  0  0  0
    2.3495    1.0855    0.9613 H   0  0  0  0  0  0  0  0  0  0  0  0
    2.0289    1.6857   -0.7092 H   0  0  0  0  0  0  0  0  0  0  0  0
    2.9840    0.1380   -0.4026 H   0  0  0  0  0  0  0  0  0  0  0  0
   -1.3149   -1.3449   -1.0908 H   0  0  0  0  0  0  0  0  0  0  0  0
    1.5873   -1.5134    1.2239 H   0  0  0  0  0  0  0  0  0  0  0  0
    1.1290   -2.0988   -0.4660 H   0  0  0  0  0  0  0  0  0  0  0  0
   -2.5250    0.4050    1.2442 H   0  0  0  0  0  0  0  0  0  0  0  0
   -1.6194    2.2641   -0.1944 H   0  0  0  0  0  0  0  0  0  0  0  0
  1  2  1  0
  2  3  2  0
  3  4  1  0
  4  5  1  0
  5  6  1  0
  4  7  1  0
  7  8  1  0
  8  9  1  0
  6  2  1  0
  9  7  1  0
  9  3  1  0
  1 10  1  0
  1 11  1  0
  1 12  1  0
  4 13  1  0
  6 14  1  0
  6 15  1  0
  7 16  1  0
  9 17  1  0
M  END
