
     RDKit          3D

 25 25  0  0  0  0  0  0  0  0999 V2000
   -2.7018    0.7396    0.3191 C   0  0  0  0  0  0  0  0  0  0  0  0
   -1.2520    0.4351    0.3975 C   0  0  0  0  0  0  0  0  0  0  0  0
   -0.4519    1.3806    0.8617 C   0  0  0  0  0  0  0  0  0  0  0  0
    1.0166    1.1576    0.9734 C   0  0  0  0  0  0  0  0  0  0  0  0
    1.4021    0.1942   -0.1279 C   0  0  0  0  0  0  0  0  0  0  0  0
    2.9075    0.0108   -0.1274 C   0  0  0  0  0  0  0  0  0  0  0  0
    0.6816   -1.1024    0.1218 C   0  0  0  0  0  0  0  0  0  0  0  0
   -0.7907   -0.9000   -0.0457 C   0  0  0  0  0  0  0  0  0  0  0  0
   -1.1818   -1.1915   -1.4865 C   0  0  0  0  0  0  0  0  0  0  0  0
   -3.3025   -0.1935    0.4780 H   0  0  0  0  0  0  0  0  0  0  0  0
   -2.9853    1.2443   -0.6295 H   0  0  0  0  0  0  0  0  0  0  0  0
   -3.0317    1.4243    1.1526 H   0  0  0  0  0  0  0  0  0  0  0  0
   -0.8524    2.3419    1.1717 H   0  0  0  0  0  0  0  0  0  0  0  0
    1.2287    0.6448    1.9406 H   0  0  0  0  0  0  0  0  0  0  0  0
    1.5868    2.0990    0.8673 H   0  0  0  0  0  0  0  0  0  0  0  0
    1.1223    0.6530   -1.0850 H   0  0  0  0  0  0  0  0  0  0  0  0
    3.2440   -0.2661    0.9084 H   0  0  0  0  0  0  0  0  0  0  0  0
    3.2066   -0.7769   -0.8177 H   0  0  0  0  0  0  0  0  0  0  0  0
    3.3472    1.0055   -0.3851 H   0  0  0  0  0  0  0  0  0  0  0  0
    0.8988   -1.4570    1.1404 H   0  0  0  0  0  0  0  0  0  0  0  0
    1.0648   -1.8698   -0.5969 H   0  0  0  0  0  0  0  0  0  0  0  0
   -1.3027   -1.6867    0.5662 H   0  0  0  0  0  0  0  0  0  0  0  0
   -2.1002   -0.6427   -1.7790 H   0  0  0  0  0  0  0  0  0  0  0  0
   -1.4036   -2.2845   -1.6335 H   0  0  0  0  0  0  0  0  0  0  0  0
   -0.3502   -0.9596   -2.1847 H   0  0  0  0  0  0  0  0  0  0  0  0
  1  2  1  0
  2  3  2  0
  3  4  1  0
  4  5  1  0
  5  6  1  0
  5  7  1  0
  7  8  1  0
  8  9  1  0
  8  2  1  0
  1 10  1  0
  1 11  1  0
  1 12  1  0
  3 13  1  0
  4 14  1  0
  4 15  1  0
  5 16  1  0
  6 17  1  0
  6 18  1  0
  6 19  1  0
  7 20  1  0
  7 21  1  0
  8 22  1  0
  9 23  1  0
  9 24  1  0
  9 25  1  0
M  END
