
     RDKit          3D

 19 21  0  0  0  0  0  0  0  0999 V2000
    2.2625   -0.4876    0.1420 C   0  0  0  0  0  0  0  0  0  0  0  0
    0.8947    0.1069    0.0213 C   0  0  0  0  0  0  0  0  0  0  0  0
    0.6854    1.3247   -0.4164 C   0  0  0  0  0  0  0  0  0  0  0  0
   -0.7257    1.6416   -0.4300 C   0  0  0  0  0  0  0  0  0  0  0  0
   -1.4244    0.3447   -0.1309 C   0  0  0  0  0  0  0  0  0  0  0  0
   -1.3623   -0.0970    1.2829 C   0  0  0  0  0  0  0  0  0  0  0  0
   -0.3277   -0.6150    0.3747 C   0  0  0  0  0  0  0  0  0  0  0  0
   -0.8691   -1.6280   -0.6469 C   0  0  0  0  0  0  0  0  0  0  0  0
   -1.6256   -0.5557   -1.1627 O   0  0  0  0  0  0  0  0  0  0  0  0
    2.3158   -1.3895   -0.5099 H   0  0  0  0  0  0  0  0  0  0  0  0
    2.4762   -0.7832    1.1781 H   0  0  0  0  0  0  0  0  0  0  0  0
    3.0614    0.2055   -0.1747 H   0  0  0  0  0  0  0  0  0  0  0  0
    1.4605    2.0451   -0.7417 H   0  0  0  0  0  0  0  0  0  0  0  0
   -1.0913    2.1045   -1.3739 H   0  0  0  0  0  0  0  0  0  0  0  0
   -0.9419    2.3771    0.3763 H   0  0  0  0  0  0  0  0  0  0  0  0
   -1.1356    0.6600    2.0292 H   0  0  0  0  0  0  0  0  0  0  0  0
   -2.0939   -0.8809    1.6411 H   0  0  0  0  0  0  0  0  0  0  0  0
   -0.0523   -1.9732   -1.2796 H   0  0  0  0  0  0  0  0  0  0  0  0
   -1.5069   -2.4001   -0.1790 H   0  0  0  0  0  0  0  0  0  0  0  0
  1  2  1  0
  2  3  2  0
  3  4  1  0
  4  5  1  0
  5  6  1  0
  6  7  1  0
  7  8  1  0
  8  9  1  0
  7  2  1  0
  7  5  1  0
  9  5  1  0
  1 10  1  0
  1 11  1  0
  1 12  1  0
  3 13  1  0
  4 14  1  0
  4 15  1  0
  6 16  1  0
  6 17  1  0
  8 18  1  0
  8 19  1  0
M  END
