
     RDKit          3D

 23 24  0  0  0  0  0  0  0  0999 V2000
    2.8312   -0.4670   -0.2364 C   0  0  0  0  0  0  0  0  0  0  0  0
    1.4427    0.0277   -0.0337 C   0  0  0  0  0  0  0  0  0  0  0  0
    1.1201    1.2948    0.1727 C   0  0  0  0  0  0  0  0  0  0  0  0
   -0.3139    1.6070    0.3474 C   0  0  0  0  0  0  0  0  0  0  0  0
   -1.0192    0.9406   -0.8443 C   0  0  0  0  0  0  0  0  0  0  0  0
   -0.9634   -0.3368   -0.0354 C   0  0  0  0  0  0  0  0  0  0  0  0
   -2.1650   -1.1913   -0.2406 C   0  0  0  0  0  0  0  0  0  0  0  0
    0.3623   -1.0264   -0.0748 C   0  0  0  0  0  0  0  0  0  0  0  0
   -0.9851    0.5408    1.2063 C   0  0  0  0  0  0  0  0  0  0  0  0
    2.9820   -1.4796    0.2020 H   0  0  0  0  0  0  0  0  0  0  0  0
    3.5771    0.1892    0.2591 H   0  0  0  0  0  0  0  0  0  0  0  0
    3.0465   -0.4531   -1.3382 H   0  0  0  0  0  0  0  0  0  0  0  0
    1.8384    2.0926    0.2184 H   0  0  0  0  0  0  0  0  0  0  0  0
   -0.5958    2.6321    0.5428 H   0  0  0  0  0  0  0  0  0  0  0  0
   -0.4161    0.9467   -1.7643 H   0  0  0  0  0  0  0  0  0  0  0  0
   -2.0385    1.3236   -0.8987 H   0  0  0  0  0  0  0  0  0  0  0  0
   -2.6969   -0.8554   -1.1552 H   0  0  0  0  0  0  0  0  0  0  0  0
   -1.8169   -2.2384   -0.4648 H   0  0  0  0  0  0  0  0  0  0  0  0
   -2.8592   -1.2273    0.6203 H   0  0  0  0  0  0  0  0  0  0  0  0
    0.4893   -1.7075   -0.9287 H   0  0  0  0  0  0  0  0  0  0  0  0
    0.4687   -1.6190    0.8588 H   0  0  0  0  0  0  0  0  0  0  0  0
   -0.3129    0.1825    2.0170 H   0  0  0  0  0  0  0  0  0  0  0  0
   -1.9752    0.8242    1.5704 H   0  0  0  0  0  0  0  0  0  0  0  0
  1  2  1  0
  2  3  2  0
  3  4  1  0
  4  5  1  0
  5  6  1  0
  6  7  1  0
  6  8  1  0
  6  9  1  0
  8  2  1  0
  9  4  1  0
  1 10  1  0
  1 11  1  0
  1 12  1  0
  3 13  1  0
  4 14  1  0
  5 15  1  0
  5 16  1  0
  7 17  1  0
  7 18  1  0
  7 19  1  0
  8 20  1  0
  8 21  1  0
  9 22  1  0
  9 23  1  0
M  END
