
     RDKit          3D

 19 20  0  0  0  0  0  0  0  0999 V2000
    2.4495   -0.0545    0.0298 C   0  0  0  0  0  0  0  0  0  0  0  0
    0.9694    0.1976   -0.0926 C   0  0  0  0  0  0  0  0  0  0  0  0
    0.4755    1.3802   -0.3724 C   0  0  0  0  0  0  0  0  0  0  0  0
   -0.9935    1.2797   -0.4182 C   0  0  0  0  0  0  0  0  0  0  0  0
   -1.3062   -0.0934    0.0819 C   0  0  0  0  0  0  0  0  0  0  0  0
   -2.2755   -0.2911    1.0526 O   0  0  0  0  0  0  0  0  0  0  0  0
   -1.0782   -1.1938   -0.8869 C   0  0  0  0  0  0  0  0  0  0  0  0
   -0.0378   -0.8554    0.0953 C   0  0  0  0  0  0  0  0  0  0  0  0
    0.1920   -1.7049    1.1777 O   0  0  0  0  0  0  0  0  0  0  0  0
    3.0060    0.5986   -0.6801 H   0  0  0  0  0  0  0  0  0  0  0  0
    2.7550    0.1004    1.0775 H   0  0  0  0  0  0  0  0  0  0  0  0
    2.6779   -1.1052   -0.2592 H   0  0  0  0  0  0  0  0  0  0  0  0
    1.0316    2.3280   -0.5527 H   0  0  0  0  0  0  0  0  0  0  0  0
   -1.2841    1.4050   -1.5071 H   0  0  0  0  0  0  0  0  0  0  0  0
   -1.4937    2.0810    0.1709 H   0  0  0  0  0  0  0  0  0  0  0  0
   -2.2640    0.4056    1.7559 H   0  0  0  0  0  0  0  0  0  0  0  0
   -0.9897   -0.9269   -1.9504 H   0  0  0  0  0  0  0  0  0  0  0  0
   -1.5929   -2.1611   -0.7258 H   0  0  0  0  0  0  0  0  0  0  0  0
   -0.2415   -1.3900    2.0039 H   0  0  0  0  0  0  0  0  0  0  0  0
  1  2  1  0
  2  3  2  0
  3  4  1  0
  4  5  1  0
  5  6  1  0
  5  7  1  0
  7  8  1  0
  8  9  1  0
  8  2  1  0
  8  5  1  0
  1 10  1  0
  1 11  1  0
  1 12  1  0
  3 13  1  0
  4 14  1  0
  4 15  1  0
  6 16  1  0
  7 17  1  0
  7 18  1  0
  9 19  1  0
M  END
