
     RDKit          3D

 19 20  0  0  0  0  0  0  0  0999 V2000
    2.5709   -0.3484    0.6712 C   0  0  0  0  0  0  0  0  0  0  0  0
    1.2352    0.1566    0.2688 C   0  0  0  0  0  0  0  0  0  0  0  0
    0.6574    1.3407    0.4923 C   0  0  0  0  0  0  0  0  0  0  0  0
   -0.6765    1.1735   -0.1694 C   0  0  0  0  0  0  0  0  0  0  0  0
   -0.2645    0.4973   -1.4101 C   0  0  0  0  0  0  0  0  0  0  0  0
   -0.3031    0.7382   -2.5624 O   0  0  0  0  0  0  0  0  0  0  0  0
    0.1912   -0.5695   -0.5071 C   0  0  0  0  0  0  0  0  0  0  0  0
   -1.0342   -0.2074    0.3485 C   0  0  0  0  0  0  0  0  0  0  0  0
   -2.3224   -0.7731   -0.1268 C   0  0  0  0  0  0  0  0  0  0  0  0
    2.5317   -1.4525    0.6822 H   0  0  0  0  0  0  0  0  0  0  0  0
    3.3357   -0.0887   -0.1171 H   0  0  0  0  0  0  0  0  0  0  0  0
    2.9098    0.0328    1.6487 H   0  0  0  0  0  0  0  0  0  0  0  0
    0.9953    2.2250    1.0019 H   0  0  0  0  0  0  0  0  0  0  0  0
   -1.3777    1.9471   -0.1534 H   0  0  0  0  0  0  0  0  0  0  0  0
    0.3243   -1.5569   -0.8115 H   0  0  0  0  0  0  0  0  0  0  0  0
   -0.8441   -0.2678    1.4181 H   0  0  0  0  0  0  0  0  0  0  0  0
   -2.8856   -1.1639    0.7461 H   0  0  0  0  0  0  0  0  0  0  0  0
   -2.9492   -0.0227   -0.6544 H   0  0  0  0  0  0  0  0  0  0  0  0
   -2.0944   -1.6603   -0.7657 H   0  0  0  0  0  0  0  0  0  0  0  0
  1  2  1  0
  2  3  2  0
  3  4  1  0
  4  5  1  0
  5  6  2  0
  5  7  1  0
  7  8  1  0
  8  9  1  0
  7  2  1  0
  8  4  1  0
  1 10  1  0
  1 11  1  0
  1 12  1  0
  3 13  1  0
  4 14  1  0
  7 15  1  0
  8 16  1  0
  9 17  1  0
  9 18  1  0
  9 19  1  0
M  END
