
     RDKit          3D

 21 23  0  0  0  0  0  0  0  0999 V2000
    2.3834   -0.0097    0.5480 C   0  0  0  0  0  0  0  0  0  0  0  0
    1.0019   -0.3419    0.1744 C   0  0  0  0  0  0  0  0  0  0  0  0
    0.4673   -1.5523    0.2162 C   0  0  0  0  0  0  0  0  0  0  0  0
   -0.9601   -1.5247   -0.2343 C   0  0  0  0  0  0  0  0  0  0  0  0
   -1.8410   -0.9014    0.7958 C   0  0  0  0  0  0  0  0  0  0  0  0
   -1.3715    0.4581    0.3338 C   0  0  0  0  0  0  0  0  0  0  0  0
   -0.9881   -0.2350   -0.9922 C   0  0  0  0  0  0  0  0  0  0  0  0
   -0.0507    0.6218   -0.3148 C   0  0  0  0  0  0  0  0  0  0  0  0
    0.3405    1.9927   -0.7206 C   0  0  0  0  0  0  0  0  0  0  0  0
    2.6706   -0.4995    1.4872 H   0  0  0  0  0  0  0  0  0  0  0  0
    3.1395   -0.3389   -0.2139 H   0  0  0  0  0  0  0  0  0  0  0  0
    2.4901    1.1049    0.5872 H   0  0  0  0  0  0  0  0  0  0  0  0
    1.0018   -2.4396    0.5360 H   0  0  0  0  0  0  0  0  0  0  0  0
   -1.3135   -2.4195   -0.7361 H   0  0  0  0  0  0  0  0  0  0  0  0
   -1.6299   -1.1546    1.8365 H   0  0  0  0  0  0  0  0  0  0  0  0
   -2.9188   -1.1201    0.5581 H   0  0  0  0  0  0  0  0  0  0  0  0
   -2.0986    1.2659    0.2908 H   0  0  0  0  0  0  0  0  0  0  0  0
   -1.5919   -0.0526   -1.8532 H   0  0  0  0  0  0  0  0  0  0  0  0
    1.3649    2.0852   -1.1264 H   0  0  0  0  0  0  0  0  0  0  0  0
   -0.4273    2.4244   -1.3801 H   0  0  0  0  0  0  0  0  0  0  0  0
    0.3314    2.6367    0.2077 H   0  0  0  0  0  0  0  0  0  0  0  0
  1  2  1  0
  2  3  2  0
  3  4  1  0
  4  5  1  0
  5  6  1  0
  6  7  1  0
  7  8  1  0
  8  9  1  0
  8  2  1  0
  7  4  1  0
  8  6  1  0
  1 10  1  0
  1 11  1  0
  1 12  1  0
  3 13  1  0
  4 14  1  0
  5 15  1  0
  5 16  1  0
  6 17  1  0
  7 18  1  0
  9 19  1  0
  9 20  1  0
  9 21  1  0
M  END
