
     RDKit          3D

 19 20  0  0  0  0  0  0  0  0999 V2000
   -2.3141   -0.7937   -0.0380 C   0  0  0  0  0  0  0  0  0  0  0  0
   -0.9161   -0.3007   -0.1466 C   0  0  0  0  0  0  0  0  0  0  0  0
   -0.0095   -0.8527   -0.9264 C   0  0  0  0  0  0  0  0  0  0  0  0
    1.2537   -0.1198   -0.7907 C   0  0  0  0  0  0  0  0  0  0  0  0
    2.1636   -0.7285    0.2256 C   0  0  0  0  0  0  0  0  0  0  0  0
    2.0137    0.4277    0.9979 O   0  0  0  0  0  0  0  0  0  0  0  0
    1.0587    0.9994    0.1674 C   0  0  0  0  0  0  0  0  0  0  0  0
   -0.3606    0.8598    0.5952 C   0  0  0  0  0  0  0  0  0  0  0  0
   -1.0743    1.9969    0.1909 O   0  0  0  0  0  0  0  0  0  0  0  0
   -3.0150    0.0179    0.2555 H   0  0  0  0  0  0  0  0  0  0  0  0
   -2.6199   -1.2424   -1.0036 H   0  0  0  0  0  0  0  0  0  0  0  0
   -2.2971   -1.6198    0.7042 H   0  0  0  0  0  0  0  0  0  0  0  0
   -0.1295   -1.7132   -1.5829 H   0  0  0  0  0  0  0  0  0  0  0  0
    1.7177    0.1988   -1.7430 H   0  0  0  0  0  0  0  0  0  0  0  0
    1.7295   -1.5872    0.7908 H   0  0  0  0  0  0  0  0  0  0  0  0
    3.1895   -0.8877   -0.1647 H   0  0  0  0  0  0  0  0  0  0  0  0
    1.3695    1.9993   -0.1699 H   0  0  0  0  0  0  0  0  0  0  0  0
   -0.4884    0.7451    1.6901 H   0  0  0  0  0  0  0  0  0  0  0  0
   -1.2715    2.6007    0.9483 H   0  0  0  0  0  0  0  0  0  0  0  0
  1  2  1  0
  2  3  2  0
  3  4  1  0
  4  5  1  0
  5  6  1  0
  6  7  1  0
  7  8  1  0
  8  9  1  0
  8  2  1  0
  7  4  1  0
  1 10  1  0
  1 11  1  0
  1 12  1  0
  3 13  1  0
  4 14  1  0
  5 15  1  0
  5 16  1  0
  7 17  1  0
  8 18  1  0
  9 19  1  0
M  END
