
     RDKit          3D

 21 22  0  0  0  0  0  0  0  0999 V2000
    2.5638    0.2911    0.2725 C   0  0  0  0  0  0  0  0  0  0  0  0
    1.1973   -0.2205    0.0562 C   0  0  0  0  0  0  0  0  0  0  0  0
    0.0816    0.4348   -0.2855 C   0  0  0  0  0  0  0  0  0  0  0  0
    0.0009    1.8831   -0.5256 C   0  0  0  0  0  0  0  0  0  0  0  0
   -0.9699   -0.5975   -0.3538 C   0  0  0  0  0  0  0  0  0  0  0  0
   -2.3138   -0.3302   -0.8922 C   0  0  0  0  0  0  0  0  0  0  0  0
   -2.1040   -0.4551    0.5906 C   0  0  0  0  0  0  0  0  0  0  0  0
   -0.3095   -1.7860   -0.5470 O   0  0  0  0  0  0  0  0  0  0  0  0
    0.8341   -1.6585    0.1990 C   0  0  0  0  0  0  0  0  0  0  0  0
    3.2679   -0.4555   -0.1714 H   0  0  0  0  0  0  0  0  0  0  0  0
    2.7301    1.3045   -0.1532 H   0  0  0  0  0  0  0  0  0  0  0  0
    2.7725    0.2902    1.3595 H   0  0  0  0  0  0  0  0  0  0  0  0
   -0.9307    2.1528   -1.0876 H   0  0  0  0  0  0  0  0  0  0  0  0
    0.0027    2.4736    0.4361 H   0  0  0  0  0  0  0  0  0  0  0  0
    0.8457    2.2803   -1.1260 H   0  0  0  0  0  0  0  0  0  0  0  0
   -2.8010   -1.2128   -1.3998 H   0  0  0  0  0  0  0  0  0  0  0  0
   -2.6231    0.6417   -1.2970 H   0  0  0  0  0  0  0  0  0  0  0  0
   -2.1529    0.4644    1.2235 H   0  0  0  0  0  0  0  0  0  0  0  0
   -2.3982   -1.3710    1.1289 H   0  0  0  0  0  0  0  0  0  0  0  0
    0.6378   -1.8267    1.2832 H   0  0  0  0  0  0  0  0  0  0  0  0
    1.6688   -2.3026   -0.1482 H   0  0  0  0  0  0  0  0  0  0  0  0
  1  2  1  0
  2  3  2  0
  3  4  1  0
  3  5  1  0
  5  6  1  0
  6  7  1  0
  5  8  1  0
  8  9  1  0
  9  2  1  0
  7  5  1  0
  1 10  1  0
  1 11  1  0
  1 12  1  0
  4 13  1  0
  4 14  1  0
  4 15  1  0
  6 16  1  0
  6 17  1  0
  7 18  1  0
  7 19  1  0
  9 20  1  0
  9 21  1  0
M  END
