
     RDKit          3D

 19 19  0  0  0  0  0  0  0  0999 V2000
   -2.2776    0.8185    0.4508 C   0  0  0  0  0  0  0  0  0  0  0  0
   -0.9791    0.3053   -0.0196 C   0  0  0  0  0  0  0  0  0  0  0  0
    0.1744    0.9463    0.1396 C   0  0  0  0  0  0  0  0  0  0  0  0
    1.4678    0.4475   -0.3224 C   0  0  0  0  0  0  0  0  0  0  0  0
    2.4894    0.6626    0.7452 C   0  0  0  0  0  0  0  0  0  0  0  0
    2.6206    1.7726    1.2599 O   0  0  0  0  0  0  0  0  0  0  0  0
    1.4913   -0.8452   -0.7507 O   0  0  0  0  0  0  0  0  0  0  0  0
    0.4267   -1.6251   -0.4313 C   0  0  0  0  0  0  0  0  0  0  0  0
   -0.9199   -1.0078   -0.7193 C   0  0  0  0  0  0  0  0  0  0  0  0
   -2.3509    1.9162    0.4550 H   0  0  0  0  0  0  0  0  0  0  0  0
   -2.4353    0.4097    1.4818 H   0  0  0  0  0  0  0  0  0  0  0  0
   -3.0623    0.4307   -0.2341 H   0  0  0  0  0  0  0  0  0  0  0  0
    0.1416    1.9040    0.6485 H   0  0  0  0  0  0  0  0  0  0  0  0
    1.7890    1.0969   -1.1842 H   0  0  0  0  0  0  0  0  0  0  0  0
    3.1359   -0.1259    1.0981 H   0  0  0  0  0  0  0  0  0  0  0  0
    0.4754   -2.0497    0.6150 H   0  0  0  0  0  0  0  0  0  0  0  0
    0.4746   -2.5465   -1.0865 H   0  0  0  0  0  0  0  0  0  0  0  0
   -0.9724   -0.8074   -1.7956 H   0  0  0  0  0  0  0  0  0  0  0  0
   -1.6891   -1.7026   -0.3503 H   0  0  0  0  0  0  0  0  0  0  0  0
  1  2  1  0
  2  3  2  0
  3  4  1  0
  4  5  1  0
  5  6  2  0
  4  7  1  0
  7  8  1  0
  8  9  1  0
  9  2  1  0
  1 10  1  0
  1 11  1  0
  1 12  1  0
  3 13  1  0
  4 14  1  0
  5 15  1  0
  8 16  1  0
  8 17  1  0
  9 18  1  0
  9 19  1  0
M  END
