
     RDKit          3D

 19 19  0  0  0  0  0  0  0  0999 V2000
    2.5879    0.2823   -0.4923 C   0  0  0  0  0  0  0  0  0  0  0  0
    1.1957    0.0810    0.0248 C   0  0  0  0  0  0  0  0  0  0  0  0
    0.7273    0.5305    1.1653 C   0  0  0  0  0  0  0  0  0  0  0  0
   -0.6945    0.1450    1.3570 C   0  0  0  0  0  0  0  0  0  0  0  0
   -1.1031   -0.4230    0.0233 C   0  0  0  0  0  0  0  0  0  0  0  0
   -1.9202    0.5318   -0.8013 C   0  0  0  0  0  0  0  0  0  0  0  0
   -1.8117   -1.6028    0.1421 O   0  0  0  0  0  0  0  0  0  0  0  0
    0.1740   -0.6566   -0.6982 C   0  0  0  0  0  0  0  0  0  0  0  0
    0.3242   -1.3524   -1.7230 O   0  0  0  0  0  0  0  0  0  0  0  0
    2.5414    0.3931   -1.6057 H   0  0  0  0  0  0  0  0  0  0  0  0
    3.2157   -0.5912   -0.2222 H   0  0  0  0  0  0  0  0  0  0  0  0
    2.9804    1.2249   -0.0942 H   0  0  0  0  0  0  0  0  0  0  0  0
    1.3321    1.1100    1.8602 H   0  0  0  0  0  0  0  0  0  0  0  0
   -0.7193   -0.5987    2.1775 H   0  0  0  0  0  0  0  0  0  0  0  0
   -1.2462    1.0437    1.6490 H   0  0  0  0  0  0  0  0  0  0  0  0
   -1.2384    1.2518   -1.3284 H   0  0  0  0  0  0  0  0  0  0  0  0
   -2.3867   -0.0644   -1.6263 H   0  0  0  0  0  0  0  0  0  0  0  0
   -2.6800    1.0742   -0.2123 H   0  0  0  0  0  0  0  0  0  0  0  0
   -1.2787   -2.3793    0.4047 H   0  0  0  0  0  0  0  0  0  0  0  0
  1  2  1  0
  2  3  2  0
  3  4  1  0
  4  5  1  0
  5  6  1  0
  5  7  1  0
  5  8  1  0
  8  9  2  0
  8  2  1  0
  1 10  1  0
  1 11  1  0
  1 12  1  0
  3 13  1  0
  4 14  1  0
  4 15  1  0
  6 16  1  0
  6 17  1  0
  6 18  1  0
  7 19  1  0
M  END
