
     RDKit          3D

 18 19  0  0  0  0  0  0  0  0999 V2000
   -2.4125    0.7795    0.3745 C   0  0  0  0  0  0  0  0  0  0  0  0
   -1.0082    0.3215    0.1129 C   0  0  0  0  0  0  0  0  0  0  0  0
    0.1263    0.9984    0.2506 C   0  0  0  0  0  0  0  0  0  0  0  0
    1.2878    0.1664   -0.1168 C   0  0  0  0  0  0  0  0  0  0  0  0
    0.6736   -0.9216   -0.9417 C   0  0  0  0  0  0  0  0  0  0  0  0
   -0.7127   -1.0630   -0.3716 C   0  0  0  0  0  0  0  0  0  0  0  0
    2.3868    0.0161    0.7238 C   0  0  0  0  0  0  0  0  0  0  0  0
    2.4516    0.7671   -0.5615 O   0  0  0  0  0  0  0  0  0  0  0  0
   -2.3395    1.7236    0.9534 H   0  0  0  0  0  0  0  0  0  0  0  0
   -2.9509   -0.0086    0.9743 H   0  0  0  0  0  0  0  0  0  0  0  0
   -2.8831    0.9182   -0.6207 H   0  0  0  0  0  0  0  0  0  0  0  0
    0.1575    2.0268    0.5911 H   0  0  0  0  0  0  0  0  0  0  0  0
    0.5483   -0.5171   -1.9858 H   0  0  0  0  0  0  0  0  0  0  0  0
    1.2166   -1.8675   -0.9381 H   0  0  0  0  0  0  0  0  0  0  0  0
   -0.7729   -1.8076    0.4433 H   0  0  0  0  0  0  0  0  0  0  0  0
   -1.4016   -1.3866   -1.1667 H   0  0  0  0  0  0  0  0  0  0  0  0
    3.0555   -0.8784    0.7121 H   0  0  0  0  0  0  0  0  0  0  0  0
    2.5773    0.7329    1.5668 H   0  0  0  0  0  0  0  0  0  0  0  0
  1  2  1  0
  2  3  2  0
  3  4  1  0
  4  5  1  0
  5  6  1  0
  4  7  1  0
  7  8  1  0
  6  2  1  0
  8  4  1  0
  1  9  1  0
  1 10  1  0
  1 11  1  0
  3 12  1  0
  5 13  1  0
  5 14  1  0
  6 15  1  0
  6 16  1  0
  7 17  1  0
  7 18  1  0
M  END
