
     RDKit          3D

 17 19  0  0  0  0  0  0  0  0999 V2000
    2.2630    0.1037   -0.0849 C   0  0  0  0  0  0  0  0  0  0  0  0
    0.8046   -0.1406    0.0792 C   0  0  0  0  0  0  0  0  0  0  0  0
    0.2458   -1.1102    0.8432 C   0  0  0  0  0  0  0  0  0  0  0  0
   -1.1954   -0.9372    0.6122 C   0  0  0  0  0  0  0  0  0  0  0  0
   -1.3956    0.5255    0.5746 C   0  0  0  0  0  0  0  0  0  0  0  0
   -2.3305    0.3130   -0.4279 O   0  0  0  0  0  0  0  0  0  0  0  0
   -1.3136   -0.5330   -0.8277 C   0  0  0  0  0  0  0  0  0  0  0  0
   -0.3554    0.5486   -0.4976 C   0  0  0  0  0  0  0  0  0  0  0  0
   -0.2077    1.6129   -1.2814 O   0  0  0  0  0  0  0  0  0  0  0  0
    2.5311   -0.0366   -1.1538 H   0  0  0  0  0  0  0  0  0  0  0  0
    2.8327   -0.5716    0.5706 H   0  0  0  0  0  0  0  0  0  0  0  0
    2.4945    1.1654    0.1516 H   0  0  0  0  0  0  0  0  0  0  0  0
    0.7328   -1.8404    1.4745 H   0  0  0  0  0  0  0  0  0  0  0  0
   -1.9024   -1.5967    1.0436 H   0  0  0  0  0  0  0  0  0  0  0  0
   -1.4837    1.1718    1.3471 H   0  0  0  0  0  0  0  0  0  0  0  0
   -1.3121   -1.1504   -1.6251 H   0  0  0  0  0  0  0  0  0  0  0  0
   -0.4081    2.4758   -0.7983 H   0  0  0  0  0  0  0  0  0  0  0  0
  1  2  1  0
  2  3  2  0
  3  4  1  0
  4  5  1  0
  5  6  1  0
  6  7  1  0
  7  8  1  0
  8  9  1  0
  8  2  1  0
  7  4  1  0
  8  5  1  0
  1 10  1  0
  1 11  1  0
  1 12  1  0
  3 13  1  0
  4 14  1  0
  5 15  1  0
  7 16  1  0
  9 17  1  0
M  END
