
     RDKit          3D

 23 23  0  0  0  0  0  0  0  0999 V2000
   -2.6463    0.8880    0.0479 C   0  0  0  0  0  0  0  0  0  0  0  0
   -1.3751    0.1773   -0.1128 C   0  0  0  0  0  0  0  0  0  0  0  0
   -0.2102    0.7826    0.0580 C   0  0  0  0  0  0  0  0  0  0  0  0
    1.1067    0.0993   -0.0951 C   0  0  0  0  0  0  0  0  0  0  0  0
    1.9174    0.2322    1.1858 C   0  0  0  0  0  0  0  0  0  0  0  0
    1.8939    0.8451   -1.1702 C   0  0  0  0  0  0  0  0  0  0  0  0
    0.9816   -1.2294   -0.3982 O   0  0  0  0  0  0  0  0  0  0  0  0
   -0.1057   -1.8174    0.2316 C   0  0  0  0  0  0  0  0  0  0  0  0
   -1.3515   -1.2681   -0.4783 C   0  0  0  0  0  0  0  0  0  0  0  0
   -2.7075    1.4719    1.0047 H   0  0  0  0  0  0  0  0  0  0  0  0
   -3.4945    0.1469    0.1293 H   0  0  0  0  0  0  0  0  0  0  0  0
   -2.8494    1.6215   -0.7583 H   0  0  0  0  0  0  0  0  0  0  0  0
   -0.2382    1.8280    0.3223 H   0  0  0  0  0  0  0  0  0  0  0  0
    1.3558   -0.1948    2.0381 H   0  0  0  0  0  0  0  0  0  0  0  0
    2.2014    1.2884    1.3758 H   0  0  0  0  0  0  0  0  0  0  0  0
    2.8342   -0.3909    1.0645 H   0  0  0  0  0  0  0  0  0  0  0  0
    1.2507    1.2702   -1.9407 H   0  0  0  0  0  0  0  0  0  0  0  0
    2.6495    0.1327   -1.5575 H   0  0  0  0  0  0  0  0  0  0  0  0
    2.4643    1.7034   -0.7154 H   0  0  0  0  0  0  0  0  0  0  0  0
   -0.2089   -1.4812    1.2947 H   0  0  0  0  0  0  0  0  0  0  0  0
   -0.0844   -2.9033    0.2301 H   0  0  0  0  0  0  0  0  0  0  0  0
   -1.1223   -1.3963   -1.5772 H   0  0  0  0  0  0  0  0  0  0  0  0
   -2.2613   -1.8060   -0.1789 H   0  0  0  0  0  0  0  0  0  0  0  0
  1  2  1  0
  2  3  2  0
  3  4  1  0
  4  5  1  0
  4  6  1  0
  4  7  1  0
  7  8  1  0
  8  9  1  0
  9  2  1  0
  1 10  1  0
  1 11  1  0
  1 12  1  0
  3 13  1  0
  5 14  1  0
  5 15  1  0
  5 16  1  0
  6 17  1  0
  6 18  1  0
  6 19  1  0
  8 20  1  0
  8 21  1  0
  9 22  1  0
  9 23  1  0
M  END
