
     RDKit          3D

 21 22  0  0  0  0  0  0  0  0999 V2000
   -2.5464   -1.4239    0.0228 C   0  0  0  0  0  0  0  0  0  0  0  0
   -1.2581   -0.7192   -0.1663 C   0  0  0  0  0  0  0  0  0  0  0  0
   -1.0739    0.3816   -0.8630 C   0  0  0  0  0  0  0  0  0  0  0  0
    0.3432    0.7965   -0.8283 C   0  0  0  0  0  0  0  0  0  0  0  0
    0.4430    1.9662    0.1483 C   0  0  0  0  0  0  0  0  0  0  0  0
    1.0925   -0.3293   -0.2511 C   0  0  0  0  0  0  0  0  0  0  0  0
    2.3826   -0.0964    0.5120 C   0  0  0  0  0  0  0  0  0  0  0  0
    0.8843   -1.6556   -0.5773 O   0  0  0  0  0  0  0  0  0  0  0  0
    0.0297   -1.1650    0.4040 C   0  0  0  0  0  0  0  0  0  0  0  0
   -3.3301   -1.0733   -0.7083 H   0  0  0  0  0  0  0  0  0  0  0  0
   -2.9230   -1.3008    1.0687 H   0  0  0  0  0  0  0  0  0  0  0  0
   -2.4524   -2.5225   -0.1860 H   0  0  0  0  0  0  0  0  0  0  0  0
   -1.8660    0.9502   -1.4187 H   0  0  0  0  0  0  0  0  0  0  0  0
    0.7099    1.1303   -1.8252 H   0  0  0  0  0  0  0  0  0  0  0  0
   -0.4221    2.6149   -0.0666 H   0  0  0  0  0  0  0  0  0  0  0  0
    0.4116    1.5374    1.1795 H   0  0  0  0  0  0  0  0  0  0  0  0
    1.3860    2.5079    0.0572 H   0  0  0  0  0  0  0  0  0  0  0  0
    3.2284   -0.2392   -0.2038 H   0  0  0  0  0  0  0  0  0  0  0  0
    2.5046   -0.7997    1.3429 H   0  0  0  0  0  0  0  0  0  0  0  0
    2.3398    0.9241    0.9196 H   0  0  0  0  0  0  0  0  0  0  0  0
    0.1165   -1.4841    1.4395 H   0  0  0  0  0  0  0  0  0  0  0  0
  1  2  1  0
  2  3  2  0
  3  4  1  0
  4  5  1  0
  4  6  1  0
  6  7  1  0
  6  8  1  0
  8  9  1  0
  9  2  1  0
  9  6  1  0
  1 10  1  0
  1 11  1  0
  1 12  1  0
  3 13  1  0
  4 14  1  0
  5 15  1  0
  5 16  1  0
  5 17  1  0
  7 18  1  0
  7 19  1  0
  7 20  1  0
  9 21  1  0
M  END
