
     RDKit          3D

 17 18  0  0  0  0  0  0  0  0999 V2000
    2.3790    0.5081   -0.0750 C   0  0  0  0  0  0  0  0  0  0  0  0
    0.9837   -0.0119   -0.0122 C   0  0  0  0  0  0  0  0  0  0  0  0
    0.5023   -0.5486    1.0896 C   0  0  0  0  0  0  0  0  0  0  0  0
   -0.8729   -0.9735    0.8840 C   0  0  0  0  0  0  0  0  0  0  0  0
   -1.2457   -0.3594   -0.4218 C   0  0  0  0  0  0  0  0  0  0  0  0
   -2.2903    0.6554   -0.4929 C   0  0  0  0  0  0  0  0  0  0  0  0
   -2.6753    1.1735    0.5416 O   0  0  0  0  0  0  0  0  0  0  0  0
   -0.7455   -0.9997   -1.5304 O   0  0  0  0  0  0  0  0  0  0  0  0
    0.0434    0.0273   -1.1295 C   0  0  0  0  0  0  0  0  0  0  0  0
    2.8132    0.4189   -1.0926 H   0  0  0  0  0  0  0  0  0  0  0  0
    3.0553   -0.0481    0.6127 H   0  0  0  0  0  0  0  0  0  0  0  0
    2.3456    1.5564    0.2829 H   0  0  0  0  0  0  0  0  0  0  0  0
    1.0213   -0.6842    2.0626 H   0  0  0  0  0  0  0  0  0  0  0  0
   -1.5841   -0.5444    1.6535 H   0  0  0  0  0  0  0  0  0  0  0  0
   -1.0202   -2.0713    0.8316 H   0  0  0  0  0  0  0  0  0  0  0  0
   -2.7450    0.9758   -1.4182 H   0  0  0  0  0  0  0  0  0  0  0  0
    0.0354    0.9256   -1.7861 H   0  0  0  0  0  0  0  0  0  0  0  0
  1  2  1  0
  2  3  2  0
  3  4  1  0
  4  5  1  0
  5  6  1  0
  6  7  2  0
  5  8  1  0
  8  9  1  0
  9  2  1  0
  9  5  1  0
  1 10  1  0
  1 11  1  0
  1 12  1  0
  3 13  1  0
  4 14  1  0
  4 15  1  0
  6 16  1  0
  9 17  1  0
M  END
