
     RDKit          3D

 17 18  0  0  0  0  0  0  0  0999 V2000
    2.1880    0.6078   -0.0712 C   0  0  0  0  0  0  0  0  0  0  0  0
    0.7866    0.1908   -0.2393 C   0  0  0  0  0  0  0  0  0  0  0  0
   -0.1847    0.7397   -0.9890 C   0  0  0  0  0  0  0  0  0  0  0  0
   -1.4248    0.0064   -0.5685 C   0  0  0  0  0  0  0  0  0  0  0  0
   -1.5249    0.2768    0.9247 C   0  0  0  0  0  0  0  0  0  0  0  0
   -0.5437   -0.5223    1.5390 O   0  0  0  0  0  0  0  0  0  0  0  0
    0.2236   -1.0211    0.4824 C   0  0  0  0  0  0  0  0  0  0  0  0
   -0.8478   -1.3503   -0.4774 C   0  0  0  0  0  0  0  0  0  0  0  0
   -1.1467   -2.3480   -0.9965 O   0  0  0  0  0  0  0  0  0  0  0  0
    2.4888    1.4289   -0.7183 H   0  0  0  0  0  0  0  0  0  0  0  0
    2.2947    0.9488    0.9999 H   0  0  0  0  0  0  0  0  0  0  0  0
    2.8371   -0.2805   -0.1690 H   0  0  0  0  0  0  0  0  0  0  0  0
   -0.0367    1.5172   -1.7021 H   0  0  0  0  0  0  0  0  0  0  0  0
   -2.2893    0.1544   -1.1445 H   0  0  0  0  0  0  0  0  0  0  0  0
   -2.5255    0.0900    1.3262 H   0  0  0  0  0  0  0  0  0  0  0  0
   -1.2257    1.3305    1.0835 H   0  0  0  0  0  0  0  0  0  0  0  0
    0.9312   -1.7690    0.7200 H   0  0  0  0  0  0  0  0  0  0  0  0
  1  2  1  0
  2  3  2  0
  3  4  1  0
  4  5  1  0
  5  6  1  0
  6  7  1  0
  7  8  1  0
  8  9  2  0
  7  2  1  0
  8  4  1  0
  1 10  1  0
  1 11  1  0
  1 12  1  0
  3 13  1  0
  4 14  1  0
  5 15  1  0
  5 16  1  0
  7 17  1  0
M  END
