
     RDKit          3D

 19 20  0  0  0  0  0  0  0  0999 V2000
    2.8059   -0.0209   -0.4135 C   0  0  0  0  0  0  0  0  0  0  0  0
    1.3474    0.0971   -0.2511 C   0  0  0  0  0  0  0  0  0  0  0  0
    0.6567    1.2132   -0.3650 C   0  0  0  0  0  0  0  0  0  0  0  0
   -0.7649    0.9726   -0.1435 C   0  0  0  0  0  0  0  0  0  0  0  0
   -1.3779    1.9287    0.6594 O   0  0  0  0  0  0  0  0  0  0  0  0
   -0.8742   -0.4077    0.3754 C   0  0  0  0  0  0  0  0  0  0  0  0
   -2.1761   -1.1317    0.1614 C   0  0  0  0  0  0  0  0  0  0  0  0
   -0.0819   -0.9261    1.3649 O   0  0  0  0  0  0  0  0  0  0  0  0
    0.4243   -1.0135    0.0704 C   0  0  0  0  0  0  0  0  0  0  0  0
    3.3013    0.8925   -0.7375 H   0  0  0  0  0  0  0  0  0  0  0  0
    3.0900   -0.8993   -1.0591 H   0  0  0  0  0  0  0  0  0  0  0  0
    3.2220   -0.2554    0.6095 H   0  0  0  0  0  0  0  0  0  0  0  0
    1.0559    2.2258   -0.5971 H   0  0  0  0  0  0  0  0  0  0  0  0
   -1.2649    0.9791   -1.1587 H   0  0  0  0  0  0  0  0  0  0  0  0
   -2.2396    2.1883    0.2507 H   0  0  0  0  0  0  0  0  0  0  0  0
   -3.0061   -0.4050    0.3694 H   0  0  0  0  0  0  0  0  0  0  0  0
   -2.2861   -1.5035   -0.8582 H   0  0  0  0  0  0  0  0  0  0  0  0
   -2.3235   -1.9624    0.9017 H   0  0  0  0  0  0  0  0  0  0  0  0
    0.4917   -1.9717   -0.4392 H   0  0  0  0  0  0  0  0  0  0  0  0
  1  2  1  0
  2  3  2  0
  3  4  1  0
  4  5  1  0
  4  6  1  0
  6  7  1  0
  6  8  1  0
  8  9  1  0
  9  2  1  0
  9  6  1  0
  1 10  1  0
  1 11  1  0
  1 12  1  0
  3 13  1  0
  4 14  1  0
  5 15  1  0
  7 16  1  0
  7 17  1  0
  7 18  1  0
  9 19  1  0
M  END
