
     RDKit          3D

 21 21  0  0  0  0  0  0  0  0999 V2000
    2.1146   -0.1206   -0.4574 C   0  0  0  0  0  0  0  0  0  0  0  0
    0.7551    0.2738   -0.0178 C   0  0  0  0  0  0  0  0  0  0  0  0
    0.5123    1.5670    0.1362 C   0  0  0  0  0  0  0  0  0  0  0  0
   -0.8045    2.1154    0.5723 C   0  0  0  0  0  0  0  0  0  0  0  0
   -1.6865    1.1543    0.9890 O   0  0  0  0  0  0  0  0  0  0  0  0
   -1.6419    0.0708    0.1251 C   0  0  0  0  0  0  0  0  0  0  0  0
   -0.3308   -0.6813    0.2549 C   0  0  0  0  0  0  0  0  0  0  0  0
   -0.3802   -1.8365   -0.7037 C   0  0  0  0  0  0  0  0  0  0  0  0
   -0.1745   -1.1169    1.5839 O   0  0  0  0  0  0  0  0  0  0  0  0
    2.2803   -1.2065   -0.3945 H   0  0  0  0  0  0  0  0  0  0  0  0
    2.3370    0.2554   -1.4880 H   0  0  0  0  0  0  0  0  0  0  0  0
    2.9018    0.3630    0.1889 H   0  0  0  0  0  0  0  0  0  0  0  0
    1.2894    2.3294   -0.0540 H   0  0  0  0  0  0  0  0  0  0  0  0
   -1.1848    2.7153   -0.2987 H   0  0  0  0  0  0  0  0  0  0  0  0
   -0.6459    2.8488    1.4143 H   0  0  0  0  0  0  0  0  0  0  0  0
   -2.4494   -0.6435    0.2762 H   0  0  0  0  0  0  0  0  0  0  0  0
   -1.6578    0.4754   -0.9219 H   0  0  0  0  0  0  0  0  0  0  0  0
   -0.5514   -2.7572   -0.0945 H   0  0  0  0  0  0  0  0  0  0  0  0
   -1.2707   -1.7789   -1.3907 H   0  0  0  0  0  0  0  0  0  0  0  0
    0.5035   -1.9601   -1.3212 H   0  0  0  0  0  0  0  0  0  0  0  0
    0.0846   -2.0671    1.6017 H   0  0  0  0  0  0  0  0  0  0  0  0
  1  2  1  0
  2  3  2  0
  3  4  1  0
  4  5  1  0
  5  6  1  0
  6  7  1  0
  7  8  1  0
  7  9  1  0
  7  2  1  0
  1 10  1  0
  1 11  1  0
  1 12  1  0
  3 13  1  0
  4 14  1  0
  4 15  1  0
  6 16  1  0
  6 17  1  0
  8 18  1  0
  8 19  1  0
  8 20  1  0
  9 21  1  0
M  END
