
     RDKit          3D

 25 25  0  0  0  0  0  0  0  0999 V2000
    1.8641    1.9023    0.8412 C   0  0  0  0  0  0  0  0  0  0  0  0
    0.8146    0.9738    0.3183 C   0  0  0  0  0  0  0  0  0  0  0  0
   -0.4719    0.9417    0.5467 C   0  0  0  0  0  0  0  0  0  0  0  0
   -1.1818   -0.1463   -0.1686 C   0  0  0  0  0  0  0  0  0  0  0  0
   -2.3113    0.4853   -0.9507 C   0  0  0  0  0  0  0  0  0  0  0  0
   -1.7138   -1.2001    0.7758 C   0  0  0  0  0  0  0  0  0  0  0  0
   -0.1285   -0.7426   -1.0448 C   0  0  0  0  0  0  0  0  0  0  0  0
    1.1549   -0.1297   -0.6164 C   0  0  0  0  0  0  0  0  0  0  0  0
    2.0031   -1.1252    0.1777 C   0  0  0  0  0  0  0  0  0  0  0  0
    1.5187    2.4309    1.7523 H   0  0  0  0  0  0  0  0  0  0  0  0
    2.2024    2.5966    0.0393 H   0  0  0  0  0  0  0  0  0  0  0  0
    2.7458    1.2826    1.1088 H   0  0  0  0  0  0  0  0  0  0  0  0
   -0.9950    1.6428    1.2011 H   0  0  0  0  0  0  0  0  0  0  0  0
   -2.2140    0.2848   -2.0572 H   0  0  0  0  0  0  0  0  0  0  0  0
   -3.2770    0.0218   -0.6347 H   0  0  0  0  0  0  0  0  0  0  0  0
   -2.4133    1.5693   -0.7384 H   0  0  0  0  0  0  0  0  0  0  0  0
   -1.2220   -1.1650    1.7622 H   0  0  0  0  0  0  0  0  0  0  0  0
   -2.8247   -1.0725    0.8596 H   0  0  0  0  0  0  0  0  0  0  0  0
   -1.5655   -2.2200    0.3620 H   0  0  0  0  0  0  0  0  0  0  0  0
   -0.3164   -0.5776   -2.1371 H   0  0  0  0  0  0  0  0  0  0  0  0
   -0.0580   -1.8523   -0.8877 H   0  0  0  0  0  0  0  0  0  0  0  0
    1.7513    0.2222   -1.4861 H   0  0  0  0  0  0  0  0  0  0  0  0
    1.4214   -1.5355    1.0156 H   0  0  0  0  0  0  0  0  0  0  0  0
    2.2908   -1.9192   -0.5722 H   0  0  0  0  0  0  0  0  0  0  0  0
    2.9262   -0.6680    0.5333 H   0  0  0  0  0  0  0  0  0  0  0  0
  1  2  1  0
  2  3  2  0
  3  4  1  0
  4  5  1  0
  4  6  1  0
  4  7  1  0
  7  8  1  0
  8  9  1  0
  8  2  1  0
  1 10  1  0
  1 11  1  0
  1 12  1  0
  3 13  1  0
  5 14  1  0
  5 15  1  0
  5 16  1  0
  6 17  1  0
  6 18  1  0
  6 19  1  0
  7 20  1  0
  7 21  1  0
  8 22  1  0
  9 23  1  0
  9 24  1  0
  9 25  1  0
M  END
