
     RDKit          3D

 21 22  0  0  0  0  0  0  0  0999 V2000
    2.8258    0.0339   -0.1033 C   0  0  0  0  0  0  0  0  0  0  0  0
    1.3864   -0.0883    0.2083 C   0  0  0  0  0  0  0  0  0  0  0  0
    0.8714   -0.9933    1.0226 C   0  0  0  0  0  0  0  0  0  0  0  0
   -0.5872   -0.8736    1.1397 C   0  0  0  0  0  0  0  0  0  0  0  0
   -0.9758    0.0892    0.0799 C   0  0  0  0  0  0  0  0  0  0  0  0
   -2.0509   -0.1901   -0.8960 C   0  0  0  0  0  0  0  0  0  0  0  0
   -2.2448    0.8105    0.1981 C   0  0  0  0  0  0  0  0  0  0  0  0
    0.3070    0.7672   -0.3322 C   0  0  0  0  0  0  0  0  0  0  0  0
    0.3982    0.9537   -1.7086 O   0  0  0  0  0  0  0  0  0  0  0  0
    3.4585   -0.5098    0.6553 H   0  0  0  0  0  0  0  0  0  0  0  0
    3.0114   -0.5204   -1.0689 H   0  0  0  0  0  0  0  0  0  0  0  0
    3.1522    1.0817   -0.2348 H   0  0  0  0  0  0  0  0  0  0  0  0
    1.4480   -1.7583    1.5618 H   0  0  0  0  0  0  0  0  0  0  0  0
   -1.0765   -1.8615    1.0638 H   0  0  0  0  0  0  0  0  0  0  0  0
   -0.7943   -0.3892    2.1382 H   0  0  0  0  0  0  0  0  0  0  0  0
   -2.5855   -1.1410   -0.8189 H   0  0  0  0  0  0  0  0  0  0  0  0
   -1.9032    0.2605   -1.9061 H   0  0  0  0  0  0  0  0  0  0  0  0
   -2.2489    1.8936   -0.0374 H   0  0  0  0  0  0  0  0  0  0  0  0
   -2.9235    0.5544    1.0587 H   0  0  0  0  0  0  0  0  0  0  0  0
    0.2969    1.7834    0.1579 H   0  0  0  0  0  0  0  0  0  0  0  0
    0.2349    0.0975   -2.1783 H   0  0  0  0  0  0  0  0  0  0  0  0
  1  2  1  0
  2  3  2  0
  3  4  1  0
  4  5  1  0
  5  6  1  0
  6  7  1  0
  5  8  1  0
  8  9  1  0
  8  2  1  0
  7  5  1  0
  1 10  1  0
  1 11  1  0
  1 12  1  0
  3 13  1  0
  4 14  1  0
  4 15  1  0
  6 16  1  0
  6 17  1  0
  7 18  1  0
  7 19  1  0
  8 20  1  0
  9 21  1  0
M  END
