
     RDKit          3D

 21 22  0  0  0  0  0  0  0  0999 V2000
    2.5830    0.6766    0.4691 C   0  0  0  0  0  0  0  0  0  0  0  0
    1.2870    0.1200   -0.0579 C   0  0  0  0  0  0  0  0  0  0  0  0
    0.1202    0.6903    0.1083 C   0  0  0  0  0  0  0  0  0  0  0  0
   -1.0246    1.5575    0.4556 C   0  0  0  0  0  0  0  0  0  0  0  0
   -1.8038    0.2315    0.5937 C   0  0  0  0  0  0  0  0  0  0  0  0
   -3.1505    0.3658    0.2676 O   0  0  0  0  0  0  0  0  0  0  0  0
   -0.9290   -0.1750   -0.5692 C   0  0  0  0  0  0  0  0  0  0  0  0
   -0.2921   -1.5363   -0.5149 C   0  0  0  0  0  0  0  0  0  0  0  0
    1.1587   -1.1374   -0.8240 C   0  0  0  0  0  0  0  0  0  0  0  0
    2.4508    1.2092    1.4122 H   0  0  0  0  0  0  0  0  0  0  0  0
    3.3234   -0.1335    0.6210 H   0  0  0  0  0  0  0  0  0  0  0  0
    3.0306    1.3713   -0.2695 H   0  0  0  0  0  0  0  0  0  0  0  0
   -1.3320    2.1400   -0.4431 H   0  0  0  0  0  0  0  0  0  0  0  0
   -0.9531    2.1246    1.3863 H   0  0  0  0  0  0  0  0  0  0  0  0
   -1.5733   -0.2448    1.5455 H   0  0  0  0  0  0  0  0  0  0  0  0
   -3.6020   -0.4563    0.5886 H   0  0  0  0  0  0  0  0  0  0  0  0
   -1.2688    0.1901   -1.5304 H   0  0  0  0  0  0  0  0  0  0  0  0
   -0.3917   -1.9373    0.4934 H   0  0  0  0  0  0  0  0  0  0  0  0
   -0.6846   -2.1566   -1.3180 H   0  0  0  0  0  0  0  0  0  0  0  0
    1.1937   -0.9701   -1.9171 H   0  0  0  0  0  0  0  0  0  0  0  0
    1.8581   -1.9294   -0.4972 H   0  0  0  0  0  0  0  0  0  0  0  0
  1  2  1  0
  2  3  2  0
  3  4  1  0
  4  5  1  0
  5  6  1  0
  5  7  1  0
  7  8  1  0
  8  9  1  0
  9  2  1  0
  7  3  1  0
  1 10  1  0
  1 11  1  0
  1 12  1  0
  4 13  1  0
  4 14  1  0
  5 15  1  0
  6 16  1  0
  7 17  1  0
  8 18  1  0
  8 19  1  0
  9 20  1  0
  9 21  1  0
M  END
