
     RDKit          3D

 19 19  0  0  0  0  0  0  0  0999 V2000
    2.7615    0.1145    0.3247 C   0  0  0  0  0  0  0  0  0  0  0  0
    1.3195    0.0496   -0.0761 C   0  0  0  0  0  0  0  0  0  0  0  0
    0.5260    1.0843    0.0574 C   0  0  0  0  0  0  0  0  0  0  0  0
   -0.8784    1.0820   -0.3130 C   0  0  0  0  0  0  0  0  0  0  0  0
   -1.4762   -0.2395   -0.6139 C   0  0  0  0  0  0  0  0  0  0  0  0
   -2.2571   -0.7016    0.5996 C   0  0  0  0  0  0  0  0  0  0  0  0
   -0.5427   -1.2261   -0.9867 O   0  0  0  0  0  0  0  0  0  0  0  0
    0.7722   -1.1819   -0.6269 C   0  0  0  0  0  0  0  0  0  0  0  0
    1.5635   -2.1816   -0.7495 O   0  0  0  0  0  0  0  0  0  0  0  0
    3.3777    0.6585   -0.3967 H   0  0  0  0  0  0  0  0  0  0  0  0
    3.1072   -0.9277    0.4990 H   0  0  0  0  0  0  0  0  0  0  0  0
    2.8690    0.6352    1.2996 H   0  0  0  0  0  0  0  0  0  0  0  0
    0.9280    2.0208    0.4733 H   0  0  0  0  0  0  0  0  0  0  0  0
   -1.0190    1.7341   -1.2224 H   0  0  0  0  0  0  0  0  0  0  0  0
   -1.4445    1.6238    0.5009 H   0  0  0  0  0  0  0  0  0  0  0  0
   -2.2299   -0.1836   -1.4508 H   0  0  0  0  0  0  0  0  0  0  0  0
   -3.0428    0.0641    0.8029 H   0  0  0  0  0  0  0  0  0  0  0  0
   -1.6280   -0.7322    1.5150 H   0  0  0  0  0  0  0  0  0  0  0  0
   -2.7059   -1.6926    0.3636 H   0  0  0  0  0  0  0  0  0  0  0  0
  1  2  1  0
  2  3  2  0
  3  4  1  0
  4  5  1  0
  5  6  1  0
  5  7  1  0
  7  8  1  0
  8  9  2  0
  8  2  1  0
  1 10  1  0
  1 11  1  0
  1 12  1  0
  3 13  1  0
  4 14  1  0
  4 15  1  0
  5 16  1  0
  6 17  1  0
  6 18  1  0
  6 19  1  0
M  END
