
     RDKit          3D

 21 22  0  0  0  0  0  0  0  0999 V2000
    2.3517   -0.5108    0.2273 C   0  0  0  0  0  0  0  0  0  0  0  0
    0.8922   -0.4571   -0.0828 C   0  0  0  0  0  0  0  0  0  0  0  0
    0.2038   -1.5776   -0.1130 C   0  0  0  0  0  0  0  0  0  0  0  0
   -1.2390   -1.4865   -0.4225 C   0  0  0  0  0  0  0  0  0  0  0  0
   -1.7261   -0.3065    0.4303 C   0  0  0  0  0  0  0  0  0  0  0  0
   -1.1478    0.9580   -0.1392 C   0  0  0  0  0  0  0  0  0  0  0  0
   -0.2418    1.7132    0.7872 C   0  0  0  0  0  0  0  0  0  0  0  0
    0.2860    0.8660   -0.3504 C   0  0  0  0  0  0  0  0  0  0  0  0
    0.9487    1.6165   -1.3268 O   0  0  0  0  0  0  0  0  0  0  0  0
    2.8785    0.0349   -0.5774 H   0  0  0  0  0  0  0  0  0  0  0  0
    2.4820    0.0753    1.1703 H   0  0  0  0  0  0  0  0  0  0  0  0
    2.7038   -1.5526    0.3400 H   0  0  0  0  0  0  0  0  0  0  0  0
    0.6709   -2.5094    0.0783 H   0  0  0  0  0  0  0  0  0  0  0  0
   -1.4147   -1.1931   -1.4796 H   0  0  0  0  0  0  0  0  0  0  0  0
   -1.8013   -2.4108   -0.1887 H   0  0  0  0  0  0  0  0  0  0  0  0
   -2.8268   -0.2927    0.5106 H   0  0  0  0  0  0  0  0  0  0  0  0
   -1.3326   -0.5147    1.4576 H   0  0  0  0  0  0  0  0  0  0  0  0
   -1.8452    1.5176   -0.7894 H   0  0  0  0  0  0  0  0  0  0  0  0
   -0.0014    1.3059    1.7915 H   0  0  0  0  0  0  0  0  0  0  0  0
   -0.1748    2.8183    0.7161 H   0  0  0  0  0  0  0  0  0  0  0  0
    0.3336    1.9064   -2.0394 H   0  0  0  0  0  0  0  0  0  0  0  0
  1  2  1  0
  2  3  2  0
  3  4  1  0
  4  5  1  0
  5  6  1  0
  6  7  1  0
  7  8  1  0
  8  9  1  0
  8  2  1  0
  8  6  1  0
  1 10  1  0
  1 11  1  0
  1 12  1  0
  3 13  1  0
  4 14  1  0
  4 15  1  0
  5 16  1  0
  5 17  1  0
  6 18  1  0
  7 19  1  0
  7 20  1  0
  9 21  1  0
M  END
