
     RDKit          3D

 23 23  0  0  0  0  0  0  0  0999 V2000
    2.8539    0.2147   -0.0561 C   0  0  0  0  0  0  0  0  0  0  0  0
    1.3926    0.1077    0.1760 C   0  0  0  0  0  0  0  0  0  0  0  0
    0.9165   -1.1303    0.0428 C   0  0  0  0  0  0  0  0  0  0  0  0
   -0.3131   -1.8890    0.1219 C   0  0  0  0  0  0  0  0  0  0  0  0
   -1.5924   -1.1981   -0.1087 C   0  0  0  0  0  0  0  0  0  0  0  0
   -1.5499    0.1001   -0.8049 C   0  0  0  0  0  0  0  0  0  0  0  0
   -1.7871    1.2855    0.1016 C   0  0  0  0  0  0  0  0  0  0  0  0
   -0.4715    1.8528    0.4810 C   0  0  0  0  0  0  0  0  0  0  0  0
    0.7645    1.3874    0.5074 C   0  0  0  0  0  0  0  0  0  0  0  0
    3.1546   -0.4471   -0.9078 H   0  0  0  0  0  0  0  0  0  0  0  0
    3.4565   -0.0799    0.8215 H   0  0  0  0  0  0  0  0  0  0  0  0
    3.1007    1.2752   -0.3257 H   0  0  0  0  0  0  0  0  0  0  0  0
    1.7379   -1.7889   -0.2097 H   0  0  0  0  0  0  0  0  0  0  0  0
   -0.2478   -2.7335   -0.6234 H   0  0  0  0  0  0  0  0  0  0  0  0
   -0.3166   -2.4233    1.1186 H   0  0  0  0  0  0  0  0  0  0  0  0
   -2.3222   -1.8647   -0.6178 H   0  0  0  0  0  0  0  0  0  0  0  0
   -2.0632   -1.0152    0.9057 H   0  0  0  0  0  0  0  0  0  0  0  0
   -2.3192    0.1365   -1.6005 H   0  0  0  0  0  0  0  0  0  0  0  0
   -0.5553    0.1850   -1.3307 H   0  0  0  0  0  0  0  0  0  0  0  0
   -2.3599    0.9597    1.0188 H   0  0  0  0  0  0  0  0  0  0  0  0
   -2.4393    2.0517   -0.3822 H   0  0  0  0  0  0  0  0  0  0  0  0
   -0.5385    2.8840    0.8127 H   0  0  0  0  0  0  0  0  0  0  0  0
    1.4987    2.1295    0.8598 H   0  0  0  0  0  0  0  0  0  0  0  0
  1  2  1  0
  2  3  2  3
  3  4  1  0
  4  5  1  0
  5  6  1  0
  6  7  1  0
  7  8  1  0
  8  9  2  3
  9  2  1  0
  1 10  1  0
  1 11  1  0
  1 12  1  0
  3 13  1  0
  4 14  1  0
  4 15  1  0
  5 16  1  0
  5 17  1  0
  6 18  1  0
  6 19  1  0
  7 20  1  0
  7 21  1  0
  8 22  1  0
  9 23  1  0
M  END
