
     RDKit          3D

 16 16  0  0  0  0  0  0  0  0999 V2000
   -1.4306   -1.2376   -0.1253 C   0  0  0  0  0  0  0  0  0  0  0  0
   -0.0812   -0.6231   -0.2395 C   0  0  0  0  0  0  0  0  0  0  0  0
    1.1168   -1.1986   -0.2130 C   0  0  0  0  0  0  0  0  0  0  0  0
    2.1577   -0.1988   -0.3610 C   0  0  0  0  0  0  0  0  0  0  0  0
    3.4099   -0.3079   -0.3895 O   0  0  0  0  0  0  0  0  0  0  0  0
    1.4979    1.0190   -0.4784 O   0  0  0  0  0  0  0  0  0  0  0  0
    0.0961    0.8415   -0.4122 C   0  0  0  0  0  0  0  0  0  0  0  0
   -0.5059    1.5546    0.7703 C   0  0  0  0  0  0  0  0  0  0  0  0
   -1.9774   -1.1097   -1.0999 H   0  0  0  0  0  0  0  0  0  0  0  0
   -2.0033   -0.6425    0.6149 H   0  0  0  0  0  0  0  0  0  0  0  0
   -1.3777   -2.3047    0.1680 H   0  0  0  0  0  0  0  0  0  0  0  0
    1.3042   -2.2553   -0.0985 H   0  0  0  0  0  0  0  0  0  0  0  0
   -0.3431    1.1938   -1.3768 H   0  0  0  0  0  0  0  0  0  0  0  0
   -0.9652    0.8685    1.5092 H   0  0  0  0  0  0  0  0  0  0  0  0
    0.3325    2.0582    1.3099 H   0  0  0  0  0  0  0  0  0  0  0  0
   -1.2308    2.3425    0.4217 H   0  0  0  0  0  0  0  0  0  0  0  0
  1  2  1  0
  2  3  2  0
  3  4  1  0
  4  5  2  0
  4  6  1  0
  6  7  1  0
  7  8  1  0
  7  2  1  0
  1  9  1  0
  1 10  1  0
  1 11  1  0
  3 12  1  0
  7 13  1  0
  8 14  1  0
  8 15  1  0
  8 16  1  0
M  END
