
     RDKit          3D

 19 20  0  0  0  0  0  0  0  0999 V2000
    2.2755    1.0421    0.3015 C   0  0  0  0  0  0  0  0  0  0  0  0
    1.1864    0.0821    0.0163 C   0  0  0  0  0  0  0  0  0  0  0  0
    1.2833   -1.2251    0.2433 C   0  0  0  0  0  0  0  0  0  0  0  0
   -0.0095   -1.8796   -0.1654 C   0  0  0  0  0  0  0  0  0  0  0  0
   -0.9300   -0.7514   -0.0504 C   0  0  0  0  0  0  0  0  0  0  0  0
   -2.0937   -0.2862    0.2742 C   0  0  0  0  0  0  0  0  0  0  0  0
   -2.1150    1.1733    0.0102 C   0  0  0  0  0  0  0  0  0  0  0  0
   -0.7602    1.5156    0.0521 O   0  0  0  0  0  0  0  0  0  0  0  0
   -0.1230    0.4302   -0.5457 C   0  0  0  0  0  0  0  0  0  0  0  0
    3.2813    0.6138    0.1798 H   0  0  0  0  0  0  0  0  0  0  0  0
    2.1580    1.3814    1.3726 H   0  0  0  0  0  0  0  0  0  0  0  0
    2.1691    1.9294   -0.3653 H   0  0  0  0  0  0  0  0  0  0  0  0
    2.1107   -1.7892    0.6472 H   0  0  0  0  0  0  0  0  0  0  0  0
   -0.2486   -2.7395    0.4856 H   0  0  0  0  0  0  0  0  0  0  0  0
    0.1265   -2.1655   -1.2261 H   0  0  0  0  0  0  0  0  0  0  0  0
   -2.9603   -0.8144    0.6788 H   0  0  0  0  0  0  0  0  0  0  0  0
   -2.4539    1.3127   -1.0284 H   0  0  0  0  0  0  0  0  0  0  0  0
   -2.7111    1.7345    0.7547 H   0  0  0  0  0  0  0  0  0  0  0  0
   -0.1854    0.4360   -1.6351 H   0  0  0  0  0  0  0  0  0  0  0  0
  1  2  1  0
  2  3  2  0
  3  4  1  0
  4  5  1  0
  5  6  2  0
  6  7  1  0
  7  8  1  0
  8  9  1  0
  9  2  1  0
  9  5  1  0
  1 10  1  0
  1 11  1  0
  1 12  1  0
  3 13  1  0
  4 14  1  0
  4 15  1  0
  6 16  1  0
  7 17  1  0
  7 18  1  0
  9 19  1  0
M  END
