
     RDKit          3D

 17 18  0  0  0  0  0  0  0  0999 V2000
   -2.3612    0.0024    0.4484 C   0  0  0  0  0  0  0  0  0  0  0  0
   -0.9679    0.0925   -0.0611 C   0  0  0  0  0  0  0  0  0  0  0  0
   -0.5069    1.0935   -0.8099 C   0  0  0  0  0  0  0  0  0  0  0  0
    0.8940    0.8672   -1.1329 C   0  0  0  0  0  0  0  0  0  0  0  0
    1.6544    1.5951   -1.8094 O   0  0  0  0  0  0  0  0  0  0  0  0
    1.2949   -0.4040   -0.5147 C   0  0  0  0  0  0  0  0  0  0  0  0
    1.9011   -0.2142    0.8291 C   0  0  0  0  0  0  0  0  0  0  0  0
    0.7587   -0.7604    1.3997 O   0  0  0  0  0  0  0  0  0  0  0  0
    0.0643   -0.9156    0.2034 C   0  0  0  0  0  0  0  0  0  0  0  0
   -2.9064   -0.8129   -0.1106 H   0  0  0  0  0  0  0  0  0  0  0  0
   -2.8950    0.9466    0.2901 H   0  0  0  0  0  0  0  0  0  0  0  0
   -2.3433   -0.2982    1.5199 H   0  0  0  0  0  0  0  0  0  0  0  0
   -1.0635    1.9584   -1.1445 H   0  0  0  0  0  0  0  0  0  0  0  0
    1.7600   -1.1482   -1.1831 H   0  0  0  0  0  0  0  0  0  0  0  0
    2.1024    0.8217    1.1110 H   0  0  0  0  0  0  0  0  0  0  0  0
    2.8090   -0.8563    0.9385 H   0  0  0  0  0  0  0  0  0  0  0  0
   -0.1944   -1.9676    0.0259 H   0  0  0  0  0  0  0  0  0  0  0  0
  1  2  1  0
  2  3  2  0
  3  4  1  0
  4  5  2  0
  4  6  1  0
  6  7  1  0
  7  8  1  0
  8  9  1  0
  9  2  1  0
  9  6  1  0
  1 10  1  0
  1 11  1  0
  1 12  1  0
  3 13  1  0
  6 14  1  0
  7 15  1  0
  7 16  1  0
  9 17  1  0
M  END
