
     RDKit          3D

 21 22  0  0  0  0  0  0  0  0999 V2000
    2.6791   -0.5477    0.1694 C   0  0  0  0  0  0  0  0  0  0  0  0
    1.2348   -0.2006    0.2670 C   0  0  0  0  0  0  0  0  0  0  0  0
    0.5486    0.1375    1.3898 C   0  0  0  0  0  0  0  0  0  0  0  0
   -0.8004    0.4336    0.8559 C   0  0  0  0  0  0  0  0  0  0  0  0
   -0.9811   -0.7759   -0.0761 C   0  0  0  0  0  0  0  0  0  0  0  0
   -2.2729   -0.7981   -0.8237 C   0  0  0  0  0  0  0  0  0  0  0  0
    0.1870   -0.1288   -0.7806 C   0  0  0  0  0  0  0  0  0  0  0  0
   -0.4764    1.2021   -0.3990 C   0  0  0  0  0  0  0  0  0  0  0  0
    0.4594    2.2039   -0.2595 O   0  0  0  0  0  0  0  0  0  0  0  0
    3.3126    0.3759    0.0876 H   0  0  0  0  0  0  0  0  0  0  0  0
    2.9443   -1.0795    1.1182 H   0  0  0  0  0  0  0  0  0  0  0  0
    2.8634   -1.1612   -0.7136 H   0  0  0  0  0  0  0  0  0  0  0  0
    0.9206    0.1729    2.4066 H   0  0  0  0  0  0  0  0  0  0  0  0
   -1.5927    0.7121    1.4782 H   0  0  0  0  0  0  0  0  0  0  0  0
   -0.7154   -1.7064    0.4408 H   0  0  0  0  0  0  0  0  0  0  0  0
   -2.9473   -1.5245   -0.2919 H   0  0  0  0  0  0  0  0  0  0  0  0
   -2.8110    0.1488   -0.8585 H   0  0  0  0  0  0  0  0  0  0  0  0
   -2.1626   -1.2265   -1.8522 H   0  0  0  0  0  0  0  0  0  0  0  0
    0.3948   -0.3245   -1.7857 H   0  0  0  0  0  0  0  0  0  0  0  0
   -1.3007    1.5094   -1.0286 H   0  0  0  0  0  0  0  0  0  0  0  0
    0.5161    2.5774    0.6559 H   0  0  0  0  0  0  0  0  0  0  0  0
  1  2  1  0
  2  3  2  0
  3  4  1  0
  4  5  1  0
  5  6  1  0
  5  7  1  0
  7  8  1  0
  8  9  1  0
  7  2  1  0
  8  4  1  0
  1 10  1  0
  1 11  1  0
  1 12  1  0
  3 13  1  0
  4 14  1  0
  5 15  1  0
  6 16  1  0
  6 17  1  0
  6 18  1  0
  7 19  1  0
  8 20  1  0
  9 21  1  0
M  END
