
     RDKit          3D

 18 19  0  0  0  0  0  0  0  0999 V2000
   -2.4288    0.0585    0.0281 C   0  0  0  0  0  0  0  0  0  0  0  0
   -0.9526   -0.0328   -0.1165 C   0  0  0  0  0  0  0  0  0  0  0  0
   -0.3505   -0.6780   -1.0980 C   0  0  0  0  0  0  0  0  0  0  0  0
    1.1114   -0.8901   -0.9855 C   0  0  0  0  0  0  0  0  0  0  0  0
    1.8493    0.3878   -0.6566 C   0  0  0  0  0  0  0  0  0  0  0  0
    1.3206    0.0619    0.7114 C   0  0  0  0  0  0  0  0  0  0  0  0
   -0.0567    0.6310    0.8873 C   0  0  0  0  0  0  0  0  0  0  0  0
    1.3351   -1.2788    0.3539 O   0  0  0  0  0  0  0  0  0  0  0  0
   -2.7464    1.1056    0.0774 H   0  0  0  0  0  0  0  0  0  0  0  0
   -2.8944   -0.4301   -0.8334 H   0  0  0  0  0  0  0  0  0  0  0  0
   -2.7812   -0.4473    0.9514 H   0  0  0  0  0  0  0  0  0  0  0  0
   -0.8900   -1.0408   -1.9522 H   0  0  0  0  0  0  0  0  0  0  0  0
    1.5765   -1.5422   -1.7301 H   0  0  0  0  0  0  0  0  0  0  0  0
    1.4112    1.3086   -1.1150 H   0  0  0  0  0  0  0  0  0  0  0  0
    2.9197    0.2624   -0.8149 H   0  0  0  0  0  0  0  0  0  0  0  0
    2.0194    0.2653    1.5504 H   0  0  0  0  0  0  0  0  0  0  0  0
    0.0019    1.7068    0.5488 H   0  0  0  0  0  0  0  0  0  0  0  0
   -0.4446    0.5523    1.9030 H   0  0  0  0  0  0  0  0  0  0  0  0
  1  2  1  0
  2  3  2  0
  3  4  1  0
  4  5  1  0
  5  6  1  0
  6  7  1  0
  6  8  1  0
  7  2  1  0
  8  4  1  0
  1  9  1  0
  1 10  1  0
  1 11  1  0
  3 12  1  0
  4 13  1  0
  5 14  1  0
  5 15  1  0
  6 16  1  0
  7 17  1  0
  7 18  1  0
M  END
