
     RDKit          3D

 19 19  0  0  0  0  0  0  0  0999 V2000
    2.4987    0.7687   -0.3036 C   0  0  0  0  0  0  0  0  0  0  0  0
    1.1245    0.1926   -0.1155 C   0  0  0  0  0  0  0  0  0  0  0  0
    0.0073    0.6852   -0.6266 C   0  0  0  0  0  0  0  0  0  0  0  0
   -1.1681   -0.1532   -0.2256 C   0  0  0  0  0  0  0  0  0  0  0  0
   -1.3959   -1.1783   -1.1359 O   0  0  0  0  0  0  0  0  0  0  0  0
   -2.3486    0.6868   -0.0198 C   0  0  0  0  0  0  0  0  0  0  0  0
   -2.3165    1.6200    0.7395 O   0  0  0  0  0  0  0  0  0  0  0  0
   -0.6405   -0.7466    1.0948 C   0  0  0  0  0  0  0  0  0  0  0  0
    0.7781   -1.0199    0.6583 C   0  0  0  0  0  0  0  0  0  0  0  0
    2.7840    1.4239    0.5307 H   0  0  0  0  0  0  0  0  0  0  0  0
    2.4812    1.3874   -1.2256 H   0  0  0  0  0  0  0  0  0  0  0  0
    3.1906   -0.0996   -0.4159 H   0  0  0  0  0  0  0  0  0  0  0  0
   -0.0924    1.5730   -1.2560 H   0  0  0  0  0  0  0  0  0  0  0  0
   -1.9903   -0.8375   -1.8574 H   0  0  0  0  0  0  0  0  0  0  0  0
   -3.2538    0.4562   -0.5619 H   0  0  0  0  0  0  0  0  0  0  0  0
   -0.6454    0.0182    1.8801 H   0  0  0  0  0  0  0  0  0  0  0  0
   -1.1989   -1.6615    1.3536 H   0  0  0  0  0  0  0  0  0  0  0  0
    1.4605   -1.2017    1.5073 H   0  0  0  0  0  0  0  0  0  0  0  0
    0.7254   -1.9138   -0.0208 H   0  0  0  0  0  0  0  0  0  0  0  0
  1  2  1  0
  2  3  2  0
  3  4  1  0
  4  5  1  0
  4  6  1  0
  6  7  2  0
  4  8  1  0
  8  9  1  0
  9  2  1  0
  1 10  1  0
  1 11  1  0
  1 12  1  0
  3 13  1  0
  5 14  1  0
  6 15  1  0
  8 16  1  0
  8 17  1  0
  9 18  1  0
  9 19  1  0
M  END
