
     RDKit          3D

 19 20  0  0  0  0  0  0  0  0999 V2000
    2.3240   -0.0814    0.0003 C   0  0  0  0  0  0  0  0  0  0  0  0
    0.8823    0.2924    0.0745 C   0  0  0  0  0  0  0  0  0  0  0  0
    0.3794    1.5153    0.0393 C   0  0  0  0  0  0  0  0  0  0  0  0
   -1.1028    1.5191    0.1369 C   0  0  0  0  0  0  0  0  0  0  0  0
   -1.4652    0.0663    0.2497 C   0  0  0  0  0  0  0  0  0  0  0  0
   -1.8916   -0.4081   -0.9978 O   0  0  0  0  0  0  0  0  0  0  0  0
   -0.7690   -1.2500   -1.0631 C   0  0  0  0  0  0  0  0  0  0  0  0
   -0.1947   -0.6994    0.2010 C   0  0  0  0  0  0  0  0  0  0  0  0
    0.0047   -1.6587    1.1794 O   0  0  0  0  0  0  0  0  0  0  0  0
    2.9638    0.8169   -0.0892 H   0  0  0  0  0  0  0  0  0  0  0  0
    2.5948   -0.6366    0.9265 H   0  0  0  0  0  0  0  0  0  0  0  0
    2.4525   -0.7335   -0.8884 H   0  0  0  0  0  0  0  0  0  0  0  0
    0.9619    2.4541   -0.0516 H   0  0  0  0  0  0  0  0  0  0  0  0
   -1.4704    2.1119    0.9982 H   0  0  0  0  0  0  0  0  0  0  0  0
   -1.5099    1.9908   -0.7838 H   0  0  0  0  0  0  0  0  0  0  0  0
   -2.1754   -0.1896    1.0583 H   0  0  0  0  0  0  0  0  0  0  0  0
   -1.1461   -2.3036   -0.9050 H   0  0  0  0  0  0  0  0  0  0  0  0
   -0.1728   -1.1625   -1.9761 H   0  0  0  0  0  0  0  0  0  0  0  0
   -0.6656   -1.6433    1.8910 H   0  0  0  0  0  0  0  0  0  0  0  0
  1  2  1  0
  2  3  2  0
  3  4  1  0
  4  5  1  0
  5  6  1  0
  6  7  1  0
  7  8  1  0
  8  9  1  0
  8  2  1  0
  8  5  1  0
  1 10  1  0
  1 11  1  0
  1 12  1  0
  3 13  1  0
  4 14  1  0
  4 15  1  0
  5 16  1  0
  7 17  1  0
  7 18  1  0
  9 19  1  0
M  END
