
     RDKit          3D

 23 23  0  0  0  0  0  0  0  0999 V2000
   -1.9032    1.9105    0.3845 C   0  0  0  0  0  0  0  0  0  0  0  0
   -1.3401    0.5478    0.1690 C   0  0  0  0  0  0  0  0  0  0  0  0
   -1.9933   -0.5591    0.4337 C   0  0  0  0  0  0  0  0  0  0  0  0
   -1.1348   -1.7176    0.1007 C   0  0  0  0  0  0  0  0  0  0  0  0
   -0.1790   -1.1606   -0.9184 C   0  0  0  0  0  0  0  0  0  0  0  0
    0.0351    0.2428   -0.3793 C   0  0  0  0  0  0  0  0  0  0  0  0
    1.0530    0.2230    0.7039 C   0  0  0  0  0  0  0  0  0  0  0  0
    2.4137   -0.0579    0.1317 C   0  0  0  0  0  0  0  0  0  0  0  0
    3.3668   -0.0557    1.1580 O   0  0  0  0  0  0  0  0  0  0  0  0
   -2.5961    2.2060   -0.4508 H   0  0  0  0  0  0  0  0  0  0  0  0
   -2.4845    1.9537    1.3319 H   0  0  0  0  0  0  0  0  0  0  0  0
   -1.1030    2.6703    0.4558 H   0  0  0  0  0  0  0  0  0  0  0  0
   -3.0373   -0.6136    0.8469 H   0  0  0  0  0  0  0  0  0  0  0  0
   -0.6263   -2.0240    1.0373 H   0  0  0  0  0  0  0  0  0  0  0  0
   -1.7462   -2.5580   -0.3076 H   0  0  0  0  0  0  0  0  0  0  0  0
   -0.7577   -1.0963   -1.8831 H   0  0  0  0  0  0  0  0  0  0  0  0
    0.7505   -1.7251   -1.0454 H   0  0  0  0  0  0  0  0  0  0  0  0
    0.2503    0.9640   -1.1849 H   0  0  0  0  0  0  0  0  0  0  0  0
    0.8532   -0.6003    1.4414 H   0  0  0  0  0  0  0  0  0  0  0  0
    1.0995    1.1698    1.2838 H   0  0  0  0  0  0  0  0  0  0  0  0
    2.6778    0.6556   -0.6812 H   0  0  0  0  0  0  0  0  0  0  0  0
    2.4135   -1.0812   -0.2871 H   0  0  0  0  0  0  0  0  0  0  0  0
    3.9882    0.7060    0.9632 H   0  0  0  0  0  0  0  0  0  0  0  0
  1  2  1  0
  2  3  2  0
  3  4  1  0
  4  5  1  0
  5  6  1  0
  6  7  1  0
  7  8  1  0
  8  9  1  0
  6  2  1  0
  1 10  1  0
  1 11  1  0
  1 12  1  0
  3 13  1  0
  4 14  1  0
  4 15  1  0
  5 16  1  0
  5 17  1  0
  6 18  1  0
  7 19  1  0
  7 20  1  0
  8 21  1  0
  8 22  1  0
  9 23  1  0
M  END
