
     RDKit          3D

 19 21  0  0  0  0  0  0  0  0999 V2000
    2.4666    0.3829    0.2637 C   0  0  0  0  0  0  0  0  0  0  0  0
    1.0056    0.3246    0.1099 C   0  0  0  0  0  0  0  0  0  0  0  0
    0.1621    1.2286    0.6232 C   0  0  0  0  0  0  0  0  0  0  0  0
   -1.2739    0.9844    0.4635 C   0  0  0  0  0  0  0  0  0  0  0  0
   -1.6988   -0.4180    0.4706 C   0  0  0  0  0  0  0  0  0  0  0  0
   -0.6013   -1.4366    0.3807 C   0  0  0  0  0  0  0  0  0  0  0  0
    0.3209   -0.7839   -0.6565 C   0  0  0  0  0  0  0  0  0  0  0  0
   -0.5461   -0.1691   -1.5335 O   0  0  0  0  0  0  0  0  0  0  0  0
   -1.5935    0.3265   -0.8026 C   0  0  0  0  0  0  0  0  0  0  0  0
    2.6970    1.0217    1.1369 H   0  0  0  0  0  0  0  0  0  0  0  0
    2.9117    0.7357   -0.6785 H   0  0  0  0  0  0  0  0  0  0  0  0
    2.8328   -0.6685    0.4262 H   0  0  0  0  0  0  0  0  0  0  0  0
    0.4842    2.1226    1.1454 H   0  0  0  0  0  0  0  0  0  0  0  0
   -1.9884    1.7228    0.8610 H   0  0  0  0  0  0  0  0  0  0  0  0
   -2.6958   -0.6668    0.8250 H   0  0  0  0  0  0  0  0  0  0  0  0
   -0.0859   -1.5035    1.3421 H   0  0  0  0  0  0  0  0  0  0  0  0
   -0.9474   -2.4043   -0.0251 H   0  0  0  0  0  0  0  0  0  0  0  0
    1.0189   -1.4821   -1.1008 H   0  0  0  0  0  0  0  0  0  0  0  0
   -2.4688    0.6831   -1.3642 H   0  0  0  0  0  0  0  0  0  0  0  0
  1  2  1  0
  2  3  2  0
  3  4  1  0
  4  5  1  0
  5  6  1  0
  6  7  1  0
  7  8  1  0
  8  9  1  0
  7  2  1  0
  9  4  1  0
  9  5  1  0
  1 10  1  0
  1 11  1  0
  1 12  1  0
  3 13  1  0
  4 14  1  0
  5 15  1  0
  6 16  1  0
  6 17  1  0
  7 18  1  0
  9 19  1  0
M  END
