
     RDKit          3D

 23 23  0  0  0  0  0  0  0  0999 V2000
    2.3633   -0.9854   -0.1110 C   0  0  0  0  0  0  0  0  0  0  0  0
    1.1136   -0.2128    0.2009 C   0  0  0  0  0  0  0  0  0  0  0  0
    0.0024   -0.9075    0.1725 C   0  0  0  0  0  0  0  0  0  0  0  0
   -1.3885   -0.4473    0.4312 C   0  0  0  0  0  0  0  0  0  0  0  0
   -2.3529   -1.6087    0.4477 C   0  0  0  0  0  0  0  0  0  0  0  0
   -1.7438    0.5583   -0.4297 O   0  0  0  0  0  0  0  0  0  0  0  0
   -0.6776    1.1393   -1.0925 C   0  0  0  0  0  0  0  0  0  0  0  0
    0.1962    1.9831   -0.2225 C   0  0  0  0  0  0  0  0  0  0  0  0
    1.2618    1.2341    0.5043 C   0  0  0  0  0  0  0  0  0  0  0  0
    3.1591   -0.3587   -0.5155 H   0  0  0  0  0  0  0  0  0  0  0  0
    2.6909   -1.5297    0.7882 H   0  0  0  0  0  0  0  0  0  0  0  0
    2.0879   -1.7193   -0.9071 H   0  0  0  0  0  0  0  0  0  0  0  0
    0.1524   -1.9588   -0.0770 H   0  0  0  0  0  0  0  0  0  0  0  0
   -1.3719    0.0019    1.4666 H   0  0  0  0  0  0  0  0  0  0  0  0
   -3.1860   -1.4054    1.1725 H   0  0  0  0  0  0  0  0  0  0  0  0
   -2.8504   -1.7634   -0.5332 H   0  0  0  0  0  0  0  0  0  0  0  0
   -1.8724   -2.5315    0.7910 H   0  0  0  0  0  0  0  0  0  0  0  0
   -0.0845    0.4146   -1.6892 H   0  0  0  0  0  0  0  0  0  0  0  0
   -1.1331    1.8327   -1.8604 H   0  0  0  0  0  0  0  0  0  0  0  0
   -0.4423    2.5663    0.4627 H   0  0  0  0  0  0  0  0  0  0  0  0
    0.7032    2.7298   -0.9017 H   0  0  0  0  0  0  0  0  0  0  0  0
    1.0986    1.3531    1.6092 H   0  0  0  0  0  0  0  0  0  0  0  0
    2.2739    1.6153    0.2931 H   0  0  0  0  0  0  0  0  0  0  0  0
  1  2  1  0
  2  3  2  0
  3  4  1  0
  4  5  1  0
  4  6  1  0
  6  7  1  0
  7  8  1  0
  8  9  1  0
  9  2  1  0
  1 10  1  0
  1 11  1  0
  1 12  1  0
  3 13  1  0
  4 14  1  0
  5 15  1  0
  5 16  1  0
  5 17  1  0
  7 18  1  0
  7 19  1  0
  8 20  1  0
  8 21  1  0
  9 22  1  0
  9 23  1  0
M  END
