
     RDKit          3D

 19 20  0  0  0  0  0  0  0  0999 V2000
    2.6213   -0.3075    0.2309 C   0  0  0  0  0  0  0  0  0  0  0  0
    1.1735   -0.0884    0.4523 C   0  0  0  0  0  0  0  0  0  0  0  0
    0.6288    1.1075    0.6209 C   0  0  0  0  0  0  0  0  0  0  0  0
   -0.8376    0.9776    0.8181 C   0  0  0  0  0  0  0  0  0  0  0  0
   -1.5385    1.1254   -0.4757 C   0  0  0  0  0  0  0  0  0  0  0  0
   -1.5839    2.0430   -1.2760 O   0  0  0  0  0  0  0  0  0  0  0  0
   -2.0816   -0.2436   -0.3073 C   0  0  0  0  0  0  0  0  0  0  0  0
   -1.1553   -0.4809    0.8554 C   0  0  0  0  0  0  0  0  0  0  0  0
    0.1560   -1.1497    0.5150 C   0  0  0  0  0  0  0  0  0  0  0  0
    3.1206   -0.3743    1.2402 H   0  0  0  0  0  0  0  0  0  0  0  0
    2.8349   -1.2430   -0.3023 H   0  0  0  0  0  0  0  0  0  0  0  0
    3.1028    0.5588   -0.2661 H   0  0  0  0  0  0  0  0  0  0  0  0
    1.1292    2.0682    0.6240 H   0  0  0  0  0  0  0  0  0  0  0  0
   -1.2653    1.5213    1.6663 H   0  0  0  0  0  0  0  0  0  0  0  0
   -3.1354   -0.1686    0.0847 H   0  0  0  0  0  0  0  0  0  0  0  0
   -1.9982   -0.9201   -1.1544 H   0  0  0  0  0  0  0  0  0  0  0  0
   -1.6412   -0.8170    1.7787 H   0  0  0  0  0  0  0  0  0  0  0  0
    0.3863   -1.8548    1.3401 H   0  0  0  0  0  0  0  0  0  0  0  0
    0.0834   -1.7539   -0.4048 H   0  0  0  0  0  0  0  0  0  0  0  0
  1  2  1  0
  2  3  2  0
  3  4  1  0
  4  5  1  0
  5  6  2  0
  5  7  1  0
  7  8  1  0
  8  9  1  0
  9  2  1  0
  8  4  1  0
  1 10  1  0
  1 11  1  0
  1 12  1  0
  3 13  1  0
  4 14  1  0
  7 15  1  0
  7 16  1  0
  8 17  1  0
  9 18  1  0
  9 19  1  0
M  END
