
     RDKit          3D

 23 24  0  0  0  0  0  0  0  0999 V2000
    2.8342    0.3278   -0.8705 C   0  0  0  0  0  0  0  0  0  0  0  0
    1.5020   -0.0400   -0.3289 C   0  0  0  0  0  0  0  0  0  0  0  0
    1.3112   -1.2997    0.0403 C   0  0  0  0  0  0  0  0  0  0  0  0
   -0.0119   -1.7805    0.6059 C   0  0  0  0  0  0  0  0  0  0  0  0
   -0.9976   -0.7816    0.1286 C   0  0  0  0  0  0  0  0  0  0  0  0
   -1.8317    0.1555    0.7787 C   0  0  0  0  0  0  0  0  0  0  0  0
   -2.7933    0.9798   -0.0869 C   0  0  0  0  0  0  0  0  0  0  0  0
   -0.4745    0.5354    0.7929 C   0  0  0  0  0  0  0  0  0  0  0  0
    0.4631    1.0325   -0.2333 C   0  0  0  0  0  0  0  0  0  0  0  0
    3.5573   -0.4855   -0.8508 H   0  0  0  0  0  0  0  0  0  0  0  0
    2.7836    0.6996   -1.9169 H   0  0  0  0  0  0  0  0  0  0  0  0
    3.2117    1.1637   -0.2220 H   0  0  0  0  0  0  0  0  0  0  0  0
    2.1264   -2.0190   -0.0627 H   0  0  0  0  0  0  0  0  0  0  0  0
   -0.2238   -2.7573    0.1127 H   0  0  0  0  0  0  0  0  0  0  0  0
    0.0417   -1.9150    1.6903 H   0  0  0  0  0  0  0  0  0  0  0  0
   -1.0387   -0.7989   -1.0004 H   0  0  0  0  0  0  0  0  0  0  0  0
   -2.3311   -0.1259    1.7301 H   0  0  0  0  0  0  0  0  0  0  0  0
   -2.9090    1.9968    0.3273 H   0  0  0  0  0  0  0  0  0  0  0  0
   -2.3366    1.0455   -1.0826 H   0  0  0  0  0  0  0  0  0  0  0  0
   -3.7873    0.4863   -0.0908 H   0  0  0  0  0  0  0  0  0  0  0  0
    0.0676    0.4207    1.7810 H   0  0  0  0  0  0  0  0  0  0  0  0
    0.9034    2.0208   -0.0184 H   0  0  0  0  0  0  0  0  0  0  0  0
   -0.0669    1.1391   -1.2236 H   0  0  0  0  0  0  0  0  0  0  0  0
  1  2  1  0
  2  3  2  0
  3  4  1  0
  4  5  1  0
  5  6  1  0
  6  7  1  0
  6  8  1  0
  8  9  1  0
  9  2  1  0
  8  5  1  0
  1 10  1  0
  1 11  1  0
  1 12  1  0
  3 13  1  0
  4 14  1  0
  4 15  1  0
  5 16  1  0
  6 17  1  0
  7 18  1  0
  7 19  1  0
  7 20  1  0
  8 21  1  0
  9 22  1  0
  9 23  1  0
M  END
