
     RDKit          3D

 21 21  0  0  0  0  0  0  0  0999 V2000
   -1.6268    1.6860    0.1462 C   0  0  0  0  0  0  0  0  0  0  0  0
   -0.5732    0.6689   -0.1489 C   0  0  0  0  0  0  0  0  0  0  0  0
   -0.6383   -0.6590    0.0126 C   0  0  0  0  0  0  0  0  0  0  0  0
   -1.8011   -1.4208    0.5324 C   0  0  0  0  0  0  0  0  0  0  0  0
    0.6352   -1.2967   -0.4052 C   0  0  0  0  0  0  0  0  0  0  0  0
    1.6366   -0.1778   -0.5485 C   0  0  0  0  0  0  0  0  0  0  0  0
    2.5091   -0.0368    0.6304 C   0  0  0  0  0  0  0  0  0  0  0  0
    2.1426   -0.4292    1.7080 O   0  0  0  0  0  0  0  0  0  0  0  0
    0.7624    1.0424   -0.6943 C   0  0  0  0  0  0  0  0  0  0  0  0
   -2.2373    1.9011   -0.7760 H   0  0  0  0  0  0  0  0  0  0  0  0
   -1.1966    2.6319    0.5241 H   0  0  0  0  0  0  0  0  0  0  0  0
   -2.3568    1.3253    0.8993 H   0  0  0  0  0  0  0  0  0  0  0  0
   -2.4096   -1.7998   -0.2976 H   0  0  0  0  0  0  0  0  0  0  0  0
   -2.4306   -0.7640    1.1504 H   0  0  0  0  0  0  0  0  0  0  0  0
   -1.4233   -2.2524    1.1882 H   0  0  0  0  0  0  0  0  0  0  0  0
    0.9565   -2.1076    0.2429 H   0  0  0  0  0  0  0  0  0  0  0  0
    0.4853   -1.7189   -1.4401 H   0  0  0  0  0  0  0  0  0  0  0  0
    2.2449   -0.3082   -1.4594 H   0  0  0  0  0  0  0  0  0  0  0  0
    3.4722    0.4177    0.5214 H   0  0  0  0  0  0  0  0  0  0  0  0
    1.1297    1.8906   -0.0535 H   0  0  0  0  0  0  0  0  0  0  0  0
    0.7189    1.4073   -1.7322 H   0  0  0  0  0  0  0  0  0  0  0  0
  1  2  1  0
  2  3  2  0
  3  4  1  0
  3  5  1  0
  5  6  1  0
  6  7  1  0
  7  8  2  0
  6  9  1  0
  9  2  1  0
  1 10  1  0
  1 11  1  0
  1 12  1  0
  4 13  1  0
  4 14  1  0
  4 15  1  0
  5 16  1  0
  5 17  1  0
  6 18  1  0
  7 19  1  0
  9 20  1  0
  9 21  1  0
M  END
