
     RDKit          3D

 21 22  0  0  0  0  0  0  0  0999 V2000
   -0.7596    2.1668   -0.4718 C   0  0  0  0  0  0  0  0  0  0  0  0
    0.0548    0.9095   -0.3862 C   0  0  0  0  0  0  0  0  0  0  0  0
    1.3431    0.7470   -0.6369 C   0  0  0  0  0  0  0  0  0  0  0  0
    1.7336   -0.6626   -0.4241 C   0  0  0  0  0  0  0  0  0  0  0  0
    2.1552   -0.8386    0.9094 O   0  0  0  0  0  0  0  0  0  0  0  0
    0.4357   -1.4182   -0.5539 C   0  0  0  0  0  0  0  0  0  0  0  0
   -0.5284   -0.3894    0.0067 C   0  0  0  0  0  0  0  0  0  0  0  0
   -1.0201   -0.6503    1.3856 C   0  0  0  0  0  0  0  0  0  0  0  0
   -1.9503   -0.6384    0.1856 C   0  0  0  0  0  0  0  0  0  0  0  0
   -0.1140    3.0297   -0.7505 H   0  0  0  0  0  0  0  0  0  0  0  0
   -1.1645    2.4042    0.5355 H   0  0  0  0  0  0  0  0  0  0  0  0
   -1.5560    2.1034   -1.2229 H   0  0  0  0  0  0  0  0  0  0  0  0
    1.9981    1.5855   -0.9598 H   0  0  0  0  0  0  0  0  0  0  0  0
    2.5046   -1.0074   -1.1379 H   0  0  0  0  0  0  0  0  0  0  0  0
    3.1002   -0.5706    1.0181 H   0  0  0  0  0  0  0  0  0  0  0  0
    0.4326   -2.3487    0.0869 H   0  0  0  0  0  0  0  0  0  0  0  0
    0.1966   -1.7140   -1.5810 H   0  0  0  0  0  0  0  0  0  0  0  0
   -0.8241   -1.6006    1.9050 H   0  0  0  0  0  0  0  0  0  0  0  0
   -1.0229    0.2354    2.0585 H   0  0  0  0  0  0  0  0  0  0  0  0
   -2.6206    0.2647    0.1411 H   0  0  0  0  0  0  0  0  0  0  0  0
   -2.3939   -1.6073   -0.1074 H   0  0  0  0  0  0  0  0  0  0  0  0
  1  2  1  0
  2  3  2  0
  3  4  1  0
  4  5  1  0
  4  6  1  0
  6  7  1  0
  7  8  1  0
  8  9  1  0
  7  2  1  0
  9  7  1  0
  1 10  1  0
  1 11  1  0
  1 12  1  0
  3 13  1  0
  4 14  1  0
  5 15  1  0
  6 16  1  0
  6 17  1  0
  8 18  1  0
  8 19  1  0
  9 20  1  0
  9 21  1  0
M  END
