
     RDKit          3D

 20 20  0  0  0  0  0  0  0  0999 V2000
    2.2573    1.2680    0.1707 C   0  0  0  0  0  0  0  0  0  0  0  0
    1.0559    0.4014    0.2476 C   0  0  0  0  0  0  0  0  0  0  0  0
   -0.1642    0.8936    0.4609 C   0  0  0  0  0  0  0  0  0  0  0  0
   -1.2707   -0.1040    0.5121 C   0  0  0  0  0  0  0  0  0  0  0  0
   -2.6204    0.6017    0.3197 C   0  0  0  0  0  0  0  0  0  0  0  0
   -1.1916   -1.0641   -0.4580 O   0  0  0  0  0  0  0  0  0  0  0  0
    0.0014   -1.6795   -0.6166 C   0  0  0  0  0  0  0  0  0  0  0  0
    1.1657   -1.0710    0.0878 C   0  0  0  0  0  0  0  0  0  0  0  0
    3.1552    0.6746    0.4181 H   0  0  0  0  0  0  0  0  0  0  0  0
    2.1304    2.1309    0.8776 H   0  0  0  0  0  0  0  0  0  0  0  0
    2.3132    1.6673   -0.8601 H   0  0  0  0  0  0  0  0  0  0  0  0
   -0.2804    1.9428    0.5800 H   0  0  0  0  0  0  0  0  0  0  0  0
   -1.2480   -0.5322    1.5509 H   0  0  0  0  0  0  0  0  0  0  0  0
   -3.3750   -0.2143    0.1867 H   0  0  0  0  0  0  0  0  0  0  0  0
   -2.5406    1.1901   -0.6202 H   0  0  0  0  0  0  0  0  0  0  0  0
   -2.9105    1.1865    1.1914 H   0  0  0  0  0  0  0  0  0  0  0  0
    0.2346   -1.7075   -1.7212 H   0  0  0  0  0  0  0  0  0  0  0  0
   -0.0922   -2.7584   -0.3304 H   0  0  0  0  0  0  0  0  0  0  0  0
    1.2930   -1.5161    1.0732 H   0  0  0  0  0  0  0  0  0  0  0  0
    2.0869   -1.3097   -0.4983 H   0  0  0  0  0  0  0  0  0  0  0  0
  1  2  1  0
  2  3  2  0
  3  4  1  0
  4  5  1  0
  4  6  1  0
  6  7  1  0
  7  8  1  0
  8  2  1  0
  1  9  1  0
  1 10  1  0
  1 11  1  0
  3 12  1  0
  4 13  1  0
  5 14  1  0
  5 15  1  0
  5 16  1  0
  7 17  1  0
  7 18  1  0
  8 19  1  0
  8 20  1  0
M  END
