
     RDKit          3D

 16 16  0  0  0  0  0  0  0  0999 V2000
   -2.2368   -0.0157    0.0314 C   0  0  0  0  0  0  0  0  0  0  0  0
   -0.7514    0.0645   -0.0057 C   0  0  0  0  0  0  0  0  0  0  0  0
   -0.0988    1.2036   -0.0491 C   0  0  0  0  0  0  0  0  0  0  0  0
    1.3463    1.1625   -0.0823 C   0  0  0  0  0  0  0  0  0  0  0  0
    2.0575    2.1717   -0.3082 O   0  0  0  0  0  0  0  0  0  0  0  0
    2.0236   -0.1271    0.1607 C   0  0  0  0  0  0  0  0  0  0  0  0
    1.2288   -1.1517    0.5698 O   0  0  0  0  0  0  0  0  0  0  0  0
   -0.0216   -1.2049    0.0090 C   0  0  0  0  0  0  0  0  0  0  0  0
   -2.4750   -0.7541    0.8527 H   0  0  0  0  0  0  0  0  0  0  0  0
   -2.7092    0.9659    0.2221 H   0  0  0  0  0  0  0  0  0  0  0  0
   -2.6163   -0.4926   -0.8973 H   0  0  0  0  0  0  0  0  0  0  0  0
   -0.6420    2.1554   -0.0597 H   0  0  0  0  0  0  0  0  0  0  0  0
    2.8452    0.0350    0.8997 H   0  0  0  0  0  0  0  0  0  0  0  0
    2.5645   -0.4792   -0.7677 H   0  0  0  0  0  0  0  0  0  0  0  0
   -0.6176   -2.0113    0.4840 H   0  0  0  0  0  0  0  0  0  0  0  0
    0.1030   -1.5221   -1.0593 H   0  0  0  0  0  0  0  0  0  0  0  0
  1  2  1  0
  2  3  2  0
  3  4  1  0
  4  5  2  0
  4  6  1  0
  6  7  1  0
  7  8  1  0
  8  2  1  0
  1  9  1  0
  1 10  1  0
  1 11  1  0
  3 12  1  0
  6 13  1  0
  6 14  1  0
  8 15  1  0
  8 16  1  0
M  END
