
     RDKit          3D

 21 22  0  0  0  0  0  0  0  0999 V2000
    2.5880   -0.4033   -0.3735 C   0  0  0  0  0  0  0  0  0  0  0  0
    1.1321   -0.1658   -0.1820 C   0  0  0  0  0  0  0  0  0  0  0  0
    0.2302   -1.1357   -0.0812 C   0  0  0  0  0  0  0  0  0  0  0  0
   -1.2125   -0.8995    0.1085 C   0  0  0  0  0  0  0  0  0  0  0  0
   -1.9423   -2.0112    0.5675 O   0  0  0  0  0  0  0  0  0  0  0  0
   -1.9590    0.1000   -0.6647 C   0  0  0  0  0  0  0  0  0  0  0  0
   -1.5454    0.3943    0.7467 C   0  0  0  0  0  0  0  0  0  0  0  0
   -0.3641    1.2766    1.0211 C   0  0  0  0  0  0  0  0  0  0  0  0
    0.6326    1.2352   -0.0952 C   0  0  0  0  0  0  0  0  0  0  0  0
    2.7280   -1.2152   -1.1167 H   0  0  0  0  0  0  0  0  0  0  0  0
    3.1032   -0.6644    0.5797 H   0  0  0  0  0  0  0  0  0  0  0  0
    3.0584    0.5098   -0.7488 H   0  0  0  0  0  0  0  0  0  0  0  0
    0.6170   -2.1528   -0.1473 H   0  0  0  0  0  0  0  0  0  0  0  0
   -1.3688   -2.8005    0.6564 H   0  0  0  0  0  0  0  0  0  0  0  0
   -1.5233    0.6718   -1.5064 H   0  0  0  0  0  0  0  0  0  0  0  0
   -3.0599   -0.0568   -0.7917 H   0  0  0  0  0  0  0  0  0  0  0  0
   -2.3254    0.4431    1.5415 H   0  0  0  0  0  0  0  0  0  0  0  0
   -0.6752    2.3261    1.1597 H   0  0  0  0  0  0  0  0  0  0  0  0
    0.1836    0.9966    1.9574 H   0  0  0  0  0  0  0  0  0  0  0  0
    1.4683    1.9465    0.1738 H   0  0  0  0  0  0  0  0  0  0  0  0
    0.2346    1.6051   -1.0572 H   0  0  0  0  0  0  0  0  0  0  0  0
  1  2  1  0
  2  3  2  0
  3  4  1  0
  4  5  1  0
  4  6  1  0
  6  7  1  0
  7  8  1  0
  8  9  1  0
  9  2  1  0
  7  4  1  0
  1 10  1  0
  1 11  1  0
  1 12  1  0
  3 13  1  0
  5 14  1  0
  6 15  1  0
  6 16  1  0
  7 17  1  0
  8 18  1  0
  8 19  1  0
  9 20  1  0
  9 21  1  0
M  END
