
     RDKit          3D

 17 18  0  0  0  0  0  0  0  0999 V2000
    1.8506    0.5861    0.7842 C   0  0  0  0  0  0  0  0  0  0  0  0
    0.6449   -0.0890    0.2592 C   0  0  0  0  0  0  0  0  0  0  0  0
   -0.3979    0.5845   -0.2344 C   0  0  0  0  0  0  0  0  0  0  0  0
   -0.5222    2.0397   -0.3363 C   0  0  0  0  0  0  0  0  0  0  0  0
   -1.5609    2.5288   -0.8223 O   0  0  0  0  0  0  0  0  0  0  0  0
   -1.4648   -0.3413   -0.6910 C   0  0  0  0  0  0  0  0  0  0  0  0
   -1.0111   -1.6774   -0.2323 C   0  0  0  0  0  0  0  0  0  0  0  0
    0.0712   -2.1940   -0.9362 O   0  0  0  0  0  0  0  0  0  0  0  0
    0.4220   -1.5273    0.2055 C   0  0  0  0  0  0  0  0  0  0  0  0
    2.3266    0.0288    1.6175 H   0  0  0  0  0  0  0  0  0  0  0  0
    2.5700    0.6788   -0.0801 H   0  0  0  0  0  0  0  0  0  0  0  0
    1.6117    1.6044    1.1979 H   0  0  0  0  0  0  0  0  0  0  0  0
    0.2940    2.6467    0.0146 H   0  0  0  0  0  0  0  0  0  0  0  0
   -1.5421   -0.3030   -1.8146 H   0  0  0  0  0  0  0  0  0  0  0  0
   -2.4593   -0.0412   -0.3007 H   0  0  0  0  0  0  0  0  0  0  0  0
   -1.6508   -2.3425    0.3592 H   0  0  0  0  0  0  0  0  0  0  0  0
    0.8179   -2.1821    1.0097 H   0  0  0  0  0  0  0  0  0  0  0  0
  1  2  1  0
  2  3  2  0
  3  4  1  0
  4  5  2  0
  3  6  1  0
  6  7  1  0
  7  8  1  0
  8  9  1  0
  9  2  1  0
  9  7  1  0
  1 10  1  0
  1 11  1  0
  1 12  1  0
  4 13  1  0
  6 14  1  0
  6 15  1  0
  7 16  1  0
  9 17  1  0
M  END
