
     RDKit          3D

 18 18  0  0  0  0  0  0  0  0999 V2000
    2.0818   -0.1383    0.2694 C   0  0  0  0  0  0  0  0  0  0  0  0
    0.6073   -0.2507    0.1900 C   0  0  0  0  0  0  0  0  0  0  0  0
   -0.1694    0.8074   -0.0635 C   0  0  0  0  0  0  0  0  0  0  0  0
    0.2473    2.1771   -0.2944 C   0  0  0  0  0  0  0  0  0  0  0  0
    1.4491    2.5430   -0.2815 O   0  0  0  0  0  0  0  0  0  0  0  0
   -1.5822    0.3552   -0.0762 C   0  0  0  0  0  0  0  0  0  0  0  0
   -1.4245   -1.1177   -0.4776 C   0  0  0  0  0  0  0  0  0  0  0  0
   -0.2166   -1.4735    0.3671 C   0  0  0  0  0  0  0  0  0  0  0  0
    2.2959    0.6363    1.0563 H   0  0  0  0  0  0  0  0  0  0  0  0
    2.4985   -1.1068    0.5630 H   0  0  0  0  0  0  0  0  0  0  0  0
    2.5287    0.2250   -0.6537 H   0  0  0  0  0  0  0  0  0  0  0  0
   -0.4972    2.9299   -0.4879 H   0  0  0  0  0  0  0  0  0  0  0  0
   -2.2136    0.9012   -0.7870 H   0  0  0  0  0  0  0  0  0  0  0  0
   -1.9394    0.3591    0.9619 H   0  0  0  0  0  0  0  0  0  0  0  0
   -2.3135   -1.7014   -0.1840 H   0  0  0  0  0  0  0  0  0  0  0  0
   -1.1310   -1.2276   -1.5286 H   0  0  0  0  0  0  0  0  0  0  0  0
    0.2904   -2.3822   -0.0033 H   0  0  0  0  0  0  0  0  0  0  0  0
   -0.5116   -1.5359    1.4300 H   0  0  0  0  0  0  0  0  0  0  0  0
  1  2  1  0
  2  3  2  0
  3  4  1  0
  4  5  2  0
  3  6  1  0
  6  7  1  0
  7  8  1  0
  8  2  1  0
  1  9  1  0
  1 10  1  0
  1 11  1  0
  4 12  1  0
  6 13  1  0
  6 14  1  0
  7 15  1  0
  7 16  1  0
  8 17  1  0
  8 18  1  0
M  END
