
     RDKit          3D

 17 17  0  0  0  0  0  0  0  0999 V2000
    2.3779    0.0178    0.0088 C   0  0  0  0  0  0  0  0  0  0  0  0
    0.8720    0.0490    0.0564 C   0  0  0  0  0  0  0  0  0  0  0  0
    0.2152    1.1918    0.1389 C   0  0  0  0  0  0  0  0  0  0  0  0
   -1.2544    1.2234    0.1854 C   0  0  0  0  0  0  0  0  0  0  0  0
   -1.8898   -0.0892    0.2059 C   0  0  0  0  0  0  0  0  0  0  0  0
   -2.9573   -0.2573    0.7472 O   0  0  0  0  0  0  0  0  0  0  0  0
   -1.2276   -1.2439   -0.4429 C   0  0  0  0  0  0  0  0  0  0  0  0
    0.1896   -1.2364    0.0071 C   0  0  0  0  0  0  0  0  0  0  0  0
    0.8297   -2.2634    0.3448 O   0  0  0  0  0  0  0  0  0  0  0  0
    2.7113    0.9856    0.4163 H   0  0  0  0  0  0  0  0  0  0  0  0
    2.7064   -0.0306   -1.0667 H   0  0  0  0  0  0  0  0  0  0  0  0
    2.7731   -0.8541    0.5871 H   0  0  0  0  0  0  0  0  0  0  0  0
    0.7586    2.1147    0.1728 H   0  0  0  0  0  0  0  0  0  0  0  0
   -1.5249    1.8552    1.0812 H   0  0  0  0  0  0  0  0  0  0  0  0
   -1.6375    1.8141   -0.6831 H   0  0  0  0  0  0  0  0  0  0  0  0
   -1.2054   -1.0707   -1.5524 H   0  0  0  0  0  0  0  0  0  0  0  0
   -1.7369   -2.2059   -0.2067 H   0  0  0  0  0  0  0  0  0  0  0  0
  1  2  1  0
  2  3  2  0
  3  4  1  0
  4  5  1  0
  5  6  2  0
  5  7  1  0
  7  8  1  0
  8  9  2  0
  8  2  1  0
  1 10  1  0
  1 11  1  0
  1 12  1  0
  3 13  1  0
  4 14  1  0
  4 15  1  0
  7 16  1  0
  7 17  1  0
M  END
