
     RDKit          3D

 19 19  0  0  0  0  0  0  0  0999 V2000
   -2.0715   -0.3176   -0.2106 C   0  0  0  0  0  0  0  0  0  0  0  0
   -0.6229   -0.4473    0.0917 C   0  0  0  0  0  0  0  0  0  0  0  0
    0.1890    0.6055    0.0408 C   0  0  0  0  0  0  0  0  0  0  0  0
   -0.4256    1.9180   -0.3337 C   0  0  0  0  0  0  0  0  0  0  0  0
    1.6614    0.4912    0.3446 C   0  0  0  0  0  0  0  0  0  0  0  0
    2.0825   -0.8157   -0.2763 C   0  0  0  0  0  0  0  0  0  0  0  0
    3.2409   -0.9947   -0.7214 O   0  0  0  0  0  0  0  0  0  0  0  0
    1.1666   -1.8769   -0.3690 O   0  0  0  0  0  0  0  0  0  0  0  0
    0.0128   -1.7440    0.4672 C   0  0  0  0  0  0  0  0  0  0  0  0
   -2.5716    0.4679    0.3479 H   0  0  0  0  0  0  0  0  0  0  0  0
   -2.2669   -0.1350   -1.2943 H   0  0  0  0  0  0  0  0  0  0  0  0
   -2.5318   -1.3183    0.0035 H   0  0  0  0  0  0  0  0  0  0  0  0
   -1.3246    1.7838   -0.9377 H   0  0  0  0  0  0  0  0  0  0  0  0
    0.3050    2.5573   -0.8730 H   0  0  0  0  0  0  0  0  0  0  0  0
   -0.6815    2.4305    0.6026 H   0  0  0  0  0  0  0  0  0  0  0  0
    1.8585    0.4213    1.4136 H   0  0  0  0  0  0  0  0  0  0  0  0
    2.2187    1.2869   -0.1821 H   0  0  0  0  0  0  0  0  0  0  0  0
    0.4290   -1.7133    1.5103 H   0  0  0  0  0  0  0  0  0  0  0  0
   -0.6683   -2.5997    0.3759 H   0  0  0  0  0  0  0  0  0  0  0  0
  1  2  1  0
  2  3  2  0
  3  4  1  0
  3  5  1  0
  5  6  1  0
  6  7  2  0
  6  8  1  0
  8  9  1  0
  9  2  1  0
  1 10  1  0
  1 11  1  0
  1 12  1  0
  4 13  1  0
  4 14  1  0
  4 15  1  0
  5 16  1  0
  5 17  1  0
  9 18  1  0
  9 19  1  0
M  END
