
     RDKit          3D

 21 22  0  0  0  0  0  0  0  0999 V2000
    2.7762    0.5602    0.2662 C   0  0  0  0  0  0  0  0  0  0  0  0
    1.4252    0.0880   -0.0690 C   0  0  0  0  0  0  0  0  0  0  0  0
    0.4282    0.9484   -0.2422 C   0  0  0  0  0  0  0  0  0  0  0  0
   -0.9336    0.4945   -0.5788 C   0  0  0  0  0  0  0  0  0  0  0  0
   -1.9503    0.9687    0.4453 C   0  0  0  0  0  0  0  0  0  0  0  0
   -2.2049   -0.4869    0.7729 C   0  0  0  0  0  0  0  0  0  0  0  0
   -1.1833   -0.9385   -0.2682 C   0  0  0  0  0  0  0  0  0  0  0  0
   -0.1546   -1.6085    0.3260 O   0  0  0  0  0  0  0  0  0  0  0  0
    1.0924   -1.3675   -0.2335 C   0  0  0  0  0  0  0  0  0  0  0  0
    2.8250    0.8145    1.3274 H   0  0  0  0  0  0  0  0  0  0  0  0
    3.5175   -0.2392   -0.0244 H   0  0  0  0  0  0  0  0  0  0  0  0
    3.0782    1.4544   -0.3129 H   0  0  0  0  0  0  0  0  0  0  0  0
    0.6647    2.0003   -0.1239 H   0  0  0  0  0  0  0  0  0  0  0  0
   -1.2395    0.8389   -1.5777 H   0  0  0  0  0  0  0  0  0  0  0  0
   -2.8340    1.4921    0.0139 H   0  0  0  0  0  0  0  0  0  0  0  0
   -1.5054    1.5627    1.2600 H   0  0  0  0  0  0  0  0  0  0  0  0
   -3.2145   -0.8529    0.5011 H   0  0  0  0  0  0  0  0  0  0  0  0
   -1.9112   -0.6953    1.8085 H   0  0  0  0  0  0  0  0  0  0  0  0
   -1.6522   -1.4544   -1.1410 H   0  0  0  0  0  0  0  0  0  0  0  0
    1.1481   -1.6317   -1.2936 H   0  0  0  0  0  0  0  0  0  0  0  0
    1.8280   -1.9478    0.3331 H   0  0  0  0  0  0  0  0  0  0  0  0
  1  2  1  0
  2  3  2  0
  3  4  1  0
  4  5  1  0
  5  6  1  0
  6  7  1  0
  7  8  1  0
  8  9  1  0
  9  2  1  0
  7  4  1  0
  1 10  1  0
  1 11  1  0
  1 12  1  0
  3 13  1  0
  4 14  1  0
  5 15  1  0
  5 16  1  0
  6 17  1  0
  6 18  1  0
  7 19  1  0
  9 20  1  0
  9 21  1  0
M  END
