
     RDKit          3D

 21 22  0  0  0  0  0  0  0  0999 V2000
    2.4874   -0.3063   -0.4451 C   0  0  0  0  0  0  0  0  0  0  0  0
    1.1253   -0.0372    0.1074 C   0  0  0  0  0  0  0  0  0  0  0  0
    0.6002    1.1741   -0.1076 C   0  0  0  0  0  0  0  0  0  0  0  0
   -0.7834    1.6867   -0.0751 C   0  0  0  0  0  0  0  0  0  0  0  0
   -1.8152    0.6073    0.0649 C   0  0  0  0  0  0  0  0  0  0  0  0
   -1.4474   -0.6171   -0.7068 C   0  0  0  0  0  0  0  0  0  0  0  0
   -1.0241   -1.1894    0.5991 C   0  0  0  0  0  0  0  0  0  0  0  0
    0.4575   -1.1277    0.8506 C   0  0  0  0  0  0  0  0  0  0  0  0
   -1.6229   -0.1039    1.2537 O   0  0  0  0  0  0  0  0  0  0  0  0
    2.7794    0.5799   -1.0579 H   0  0  0  0  0  0  0  0  0  0  0  0
    2.4017   -1.1878   -1.0977 H   0  0  0  0  0  0  0  0  0  0  0  0
    3.2448   -0.4093    0.3484 H   0  0  0  0  0  0  0  0  0  0  0  0
    1.3330    1.9365   -0.3560 H   0  0  0  0  0  0  0  0  0  0  0  0
   -0.9006    2.3790    0.7889 H   0  0  0  0  0  0  0  0  0  0  0  0
   -1.0242    2.2740   -0.9915 H   0  0  0  0  0  0  0  0  0  0  0  0
   -2.8308    1.0021   -0.0636 H   0  0  0  0  0  0  0  0  0  0  0  0
   -2.3681   -1.1059   -1.1387 H   0  0  0  0  0  0  0  0  0  0  0  0
   -0.6865   -0.4856   -1.4849 H   0  0  0  0  0  0  0  0  0  0  0  0
   -1.4844   -2.1262    0.9019 H   0  0  0  0  0  0  0  0  0  0  0  0
    0.5730   -0.8736    1.9453 H   0  0  0  0  0  0  0  0  0  0  0  0
    0.9855   -2.0697    0.6647 H   0  0  0  0  0  0  0  0  0  0  0  0
  1  2  1  0
  2  3  2  0
  3  4  1  0
  4  5  1  0
  5  6  1  0
  6  7  1  0
  7  8  1  0
  7  9  1  0
  8  2  1  0
  9  5  1  0
  1 10  1  0
  1 11  1  0
  1 12  1  0
  3 13  1  0
  4 14  1  0
  4 15  1  0
  5 16  1  0
  6 17  1  0
  6 18  1  0
  7 19  1  0
  8 20  1  0
  8 21  1  0
M  END
