
     RDKit          3D

 23 24  0  0  0  0  0  0  0  0999 V2000
    2.7970   -0.2720    0.2394 C   0  0  0  0  0  0  0  0  0  0  0  0
    1.3321   -0.2118   -0.1171 C   0  0  0  0  0  0  0  0  0  0  0  0
    0.7356   -1.3532   -0.4116 C   0  0  0  0  0  0  0  0  0  0  0  0
   -0.6382   -1.6410   -0.7902 C   0  0  0  0  0  0  0  0  0  0  0  0
   -1.6826   -0.6507   -0.4598 C   0  0  0  0  0  0  0  0  0  0  0  0
   -1.5282    0.2164    0.7048 C   0  0  0  0  0  0  0  0  0  0  0  0
   -1.6981    1.7242    0.4149 C   0  0  0  0  0  0  0  0  0  0  0  0
   -0.4117    1.0863    0.8989 C   0  0  0  0  0  0  0  0  0  0  0  0
    0.6856    1.1242   -0.1051 C   0  0  0  0  0  0  0  0  0  0  0  0
    3.3386   -0.8013   -0.5730 H   0  0  0  0  0  0  0  0  0  0  0  0
    3.1548    0.7569    0.3123 H   0  0  0  0  0  0  0  0  0  0  0  0
    2.9373   -0.8347    1.1654 H   0  0  0  0  0  0  0  0  0  0  0  0
    1.4047   -2.2044   -0.3538 H   0  0  0  0  0  0  0  0  0  0  0  0
   -0.6334   -1.8341   -1.9074 H   0  0  0  0  0  0  0  0  0  0  0  0
   -0.8768   -2.6707   -0.3777 H   0  0  0  0  0  0  0  0  0  0  0  0
   -1.8916   -0.0511   -1.3760 H   0  0  0  0  0  0  0  0  0  0  0  0
   -2.6431   -1.2481   -0.3521 H   0  0  0  0  0  0  0  0  0  0  0  0
   -2.0988   -0.0824    1.6132 H   0  0  0  0  0  0  0  0  0  0  0  0
   -2.2240    2.3484    1.1233 H   0  0  0  0  0  0  0  0  0  0  0  0
   -1.7870    2.0277   -0.6495 H   0  0  0  0  0  0  0  0  0  0  0  0
   -0.0758    1.2975    1.9367 H   0  0  0  0  0  0  0  0  0  0  0  0
    1.4498    1.8594    0.1935 H   0  0  0  0  0  0  0  0  0  0  0  0
    0.3537    1.4146   -1.1291 H   0  0  0  0  0  0  0  0  0  0  0  0
  1  2  1  0
  2  3  2  0
  3  4  1  0
  4  5  1  0
  5  6  1  0
  6  7  1  0
  7  8  1  0
  8  9  1  0
  9  2  1  0
  8  6  1  0
  1 10  1  0
  1 11  1  0
  1 12  1  0
  3 13  1  0
  4 14  1  0
  4 15  1  0
  5 16  1  0
  5 17  1  0
  6 18  1  0
  7 19  1  0
  7 20  1  0
  8 21  1  0
  9 22  1  0
  9 23  1  0
M  END
