
     RDKit          3D

 23 23  0  0  0  0  0  0  0  0999 V2000
    2.3185    0.9572    0.1807 C   0  0  0  0  0  0  0  0  0  0  0  0
    1.1526    0.1145   -0.1921 C   0  0  0  0  0  0  0  0  0  0  0  0
    1.3021   -0.9034   -0.9948 C   0  0  0  0  0  0  0  0  0  0  0  0
    0.1437   -1.7264   -1.3545 C   0  0  0  0  0  0  0  0  0  0  0  0
   -1.0705   -1.1022   -1.2610 O   0  0  0  0  0  0  0  0  0  0  0  0
   -1.2962   -0.3378   -0.1722 C   0  0  0  0  0  0  0  0  0  0  0  0
   -2.4347    0.6271   -0.5370 C   0  0  0  0  0  0  0  0  0  0  0  0
   -0.1746    0.4557    0.3660 C   0  0  0  0  0  0  0  0  0  0  0  0
   -0.1104    0.3013    1.8920 C   0  0  0  0  0  0  0  0  0  0  0  0
    2.1637    2.0266   -0.0426 H   0  0  0  0  0  0  0  0  0  0  0  0
    3.2175    0.6272   -0.3870 H   0  0  0  0  0  0  0  0  0  0  0  0
    2.5349    0.8484    1.2529 H   0  0  0  0  0  0  0  0  0  0  0  0
    2.2675   -1.1628   -1.4091 H   0  0  0  0  0  0  0  0  0  0  0  0
    0.2735   -2.0477   -2.4140 H   0  0  0  0  0  0  0  0  0  0  0  0
    0.1946   -2.6757   -0.7585 H   0  0  0  0  0  0  0  0  0  0  0  0
   -1.7348   -0.9911    0.6382 H   0  0  0  0  0  0  0  0  0  0  0  0
   -2.3907    1.4355    0.2225 H   0  0  0  0  0  0  0  0  0  0  0  0
   -3.4153    0.1509   -0.4598 H   0  0  0  0  0  0  0  0  0  0  0  0
   -2.2391    1.0847   -1.5366 H   0  0  0  0  0  0  0  0  0  0  0  0
   -0.3190    1.5525    0.1981 H   0  0  0  0  0  0  0  0  0  0  0  0
   -1.1392    0.0652    2.2749 H   0  0  0  0  0  0  0  0  0  0  0  0
    0.5613   -0.5439    2.1188 H   0  0  0  0  0  0  0  0  0  0  0  0
    0.1946    1.2442    2.3753 H   0  0  0  0  0  0  0  0  0  0  0  0
  1  2  1  0
  2  3  2  0
  3  4  1  0
  4  5  1  0
  5  6  1  0
  6  7  1  0
  6  8  1  0
  8  9  1  0
  8  2  1  0
  1 10  1  0
  1 11  1  0
  1 12  1  0
  3 13  1  0
  4 14  1  0
  4 15  1  0
  6 16  1  0
  7 17  1  0
  7 18  1  0
  7 19  1  0
  8 20  1  0
  9 21  1  0
  9 22  1  0
  9 23  1  0
M  END
