
     RDKit          3D

 21 22  0  0  0  0  0  0  0  0999 V2000
    1.9622   -0.8768   -0.1376 C   0  0  0  0  0  0  0  0  0  0  0  0
    0.5248   -0.6193    0.1278 C   0  0  0  0  0  0  0  0  0  0  0  0
   -0.2575   -1.6580    0.3509 C   0  0  0  0  0  0  0  0  0  0  0  0
   -1.6959   -1.4293    0.6185 C   0  0  0  0  0  0  0  0  0  0  0  0
   -2.0239   -0.0716   -0.0021 C   0  0  0  0  0  0  0  0  0  0  0  0
   -1.2455    0.8646    0.6761 O   0  0  0  0  0  0  0  0  0  0  0  0
    0.0399    0.7878    0.1294 C   0  0  0  0  0  0  0  0  0  0  0  0
    0.9428    1.9195    0.3656 C   0  0  0  0  0  0  0  0  0  0  0  0
    0.3021    1.6977   -0.9920 C   0  0  0  0  0  0  0  0  0  0  0  0
    2.2874   -1.8639    0.2841 H   0  0  0  0  0  0  0  0  0  0  0  0
    2.6301   -0.1255    0.3075 H   0  0  0  0  0  0  0  0  0  0  0  0
    2.1598   -0.9626   -1.2421 H   0  0  0  0  0  0  0  0  0  0  0  0
    0.1376   -2.6567    0.3397 H   0  0  0  0  0  0  0  0  0  0  0  0
   -1.7959   -1.3006    1.7295 H   0  0  0  0  0  0  0  0  0  0  0  0
   -2.3489   -2.2216    0.2329 H   0  0  0  0  0  0  0  0  0  0  0  0
   -3.0984    0.1458    0.0354 H   0  0  0  0  0  0  0  0  0  0  0  0
   -1.6625   -0.1395   -1.0624 H   0  0  0  0  0  0  0  0  0  0  0  0
    0.5684    2.7816    0.9850 H   0  0  0  0  0  0  0  0  0  0  0  0
    2.0298    1.8253    0.3829 H   0  0  0  0  0  0  0  0  0  0  0  0
   -0.4336    2.4745   -1.2875 H   0  0  0  0  0  0  0  0  0  0  0  0
    0.9773    1.4286   -1.8414 H   0  0  0  0  0  0  0  0  0  0  0  0
  1  2  1  0
  2  3  2  0
  3  4  1  0
  4  5  1  0
  5  6  1  0
  6  7  1  0
  7  8  1  0
  8  9  1  0
  7  2  1  0
  9  7  1  0
  1 10  1  0
  1 11  1  0
  1 12  1  0
  3 13  1  0
  4 14  1  0
  4 15  1  0
  5 16  1  0
  5 17  1  0
  8 18  1  0
  8 19  1  0
  9 20  1  0
  9 21  1  0
M  END
