
     RDKit          3D

 17 17  0  0  0  0  0  0  0  0999 V2000
    2.2402   -0.2852   -0.5362 C   0  0  0  0  0  0  0  0  0  0  0  0
    0.8025    0.0056   -0.1595 C   0  0  0  0  0  0  0  0  0  0  0  0
    0.2922    1.1820   -0.4731 C   0  0  0  0  0  0  0  0  0  0  0  0
   -1.0819    1.5535   -0.1551 C   0  0  0  0  0  0  0  0  0  0  0  0
   -1.6068    2.6624   -0.4312 O   0  0  0  0  0  0  0  0  0  0  0  0
   -1.8554    0.5195    0.5364 C   0  0  0  0  0  0  0  0  0  0  0  0
   -2.7866    0.8194    1.3263 O   0  0  0  0  0  0  0  0  0  0  0  0
   -1.4557   -0.8780    0.2318 C   0  0  0  0  0  0  0  0  0  0  0  0
    0.0090   -1.0080    0.5652 C   0  0  0  0  0  0  0  0  0  0  0  0
    2.5305   -1.2434   -0.1063 H   0  0  0  0  0  0  0  0  0  0  0  0
    2.3051   -0.2553   -1.6508 H   0  0  0  0  0  0  0  0  0  0  0  0
    2.9142    0.5067   -0.1592 H   0  0  0  0  0  0  0  0  0  0  0  0
    0.9099    1.9061   -0.9864 H   0  0  0  0  0  0  0  0  0  0  0  0
   -1.5960   -1.0289   -0.8603 H   0  0  0  0  0  0  0  0  0  0  0  0
   -2.0669   -1.5931    0.8271 H   0  0  0  0  0  0  0  0  0  0  0  0
    0.3759   -2.0464    0.3515 H   0  0  0  0  0  0  0  0  0  0  0  0
    0.0699   -0.8171    1.6798 H   0  0  0  0  0  0  0  0  0  0  0  0
  1  2  1  0
  2  3  2  0
  3  4  1  0
  4  5  2  0
  4  6  1  0
  6  7  2  0
  6  8  1  0
  8  9  1  0
  9  2  1  0
  1 10  1  0
  1 11  1  0
  1 12  1  0
  3 13  1  0
  8 14  1  0
  8 15  1  0
  9 16  1  0
  9 17  1  0
M  END
