
     RDKit          3D

 18 19  0  0  0  0  0  0  0  0999 V2000
    1.9988   -0.9304    0.4461 C   0  0  0  0  0  0  0  0  0  0  0  0
    0.8001   -0.2320   -0.0103 C   0  0  0  0  0  0  0  0  0  0  0  0
    0.7020    1.1063    0.1774 C   0  0  0  0  0  0  0  0  0  0  0  0
   -0.4875    1.8865   -0.2604 C   0  0  0  0  0  0  0  0  0  0  0  0
   -1.6455    1.1336   -0.4388 O   0  0  0  0  0  0  0  0  0  0  0  0
   -1.5039   -0.0465    0.1796 C   0  0  0  0  0  0  0  0  0  0  0  0
   -1.5515   -1.4010   -0.2299 C   0  0  0  0  0  0  0  0  0  0  0  0
   -0.3819   -0.7538   -0.6712 C   0  0  0  0  0  0  0  0  0  0  0  0
    2.2209   -1.8618   -0.1026 H   0  0  0  0  0  0  0  0  0  0  0  0
    1.9178   -1.1133    1.5581 H   0  0  0  0  0  0  0  0  0  0  0  0
    2.9326   -0.3017    0.3431 H   0  0  0  0  0  0  0  0  0  0  0  0
    1.4936    1.6788    0.6606 H   0  0  0  0  0  0  0  0  0  0  0  0
   -0.6975    2.6510    0.5047 H   0  0  0  0  0  0  0  0  0  0  0  0
   -0.3061    2.4209   -1.2237 H   0  0  0  0  0  0  0  0  0  0  0  0
   -1.2726    0.1195    1.2755 H   0  0  0  0  0  0  0  0  0  0  0  0
   -2.3254   -1.6903   -1.0010 H   0  0  0  0  0  0  0  0  0  0  0  0
   -1.5455   -2.2088    0.5586 H   0  0  0  0  0  0  0  0  0  0  0  0
   -0.3484   -0.4571   -1.7658 H   0  0  0  0  0  0  0  0  0  0  0  0
  1  2  1  0
  2  3  2  0
  3  4  1  0
  4  5  1  0
  5  6  1  0
  6  7  1  0
  7  8  1  0
  8  2  1  0
  8  6  1  0
  1  9  1  0
  1 10  1  0
  1 11  1  0
  3 12  1  0
  4 13  1  0
  4 14  1  0
  6 15  1  0
  7 16  1  0
  7 17  1  0
  8 18  1  0
M  END
