
     RDKit          3D

 23 23  0  0  0  0  0  0  0  0999 V2000
    1.4033    1.7895   -0.2880 C   0  0  0  0  0  0  0  0  0  0  0  0
    0.3619    0.7590    0.0678 C   0  0  0  0  0  0  0  0  0  0  0  0
    0.7623   -0.5036    0.0507 C   0  0  0  0  0  0  0  0  0  0  0  0
    2.1670   -0.7843   -0.3086 C   0  0  0  0  0  0  0  0  0  0  0  0
   -0.0271   -1.7278    0.3526 C   0  0  0  0  0  0  0  0  0  0  0  0
   -1.4910   -1.5652    0.1262 C   0  0  0  0  0  0  0  0  0  0  0  0
   -1.7581   -0.5749   -0.8133 O   0  0  0  0  0  0  0  0  0  0  0  0
   -2.1056    0.6292   -0.2639 C   0  0  0  0  0  0  0  0  0  0  0  0
   -0.9484    1.3414    0.3798 C   0  0  0  0  0  0  0  0  0  0  0  0
    2.4020    1.5081    0.0859 H   0  0  0  0  0  0  0  0  0  0  0  0
    1.1602    2.7642    0.2195 H   0  0  0  0  0  0  0  0  0  0  0  0
    1.3679    1.9440   -1.3873 H   0  0  0  0  0  0  0  0  0  0  0  0
    2.5465   -0.1308   -1.1196 H   0  0  0  0  0  0  0  0  0  0  0  0
    2.2839   -1.8194   -0.6527 H   0  0  0  0  0  0  0  0  0  0  0  0
    2.7706   -0.6716    0.6266 H   0  0  0  0  0  0  0  0  0  0  0  0
    0.1889   -1.9967    1.4153 H   0  0  0  0  0  0  0  0  0  0  0  0
    0.3962   -2.5806   -0.2551 H   0  0  0  0  0  0  0  0  0  0  0  0
   -1.8765   -2.5217   -0.3210 H   0  0  0  0  0  0  0  0  0  0  0  0
   -2.0381   -1.3892    1.0839 H   0  0  0  0  0  0  0  0  0  0  0  0
   -2.9293    0.5348    0.4998 H   0  0  0  0  0  0  0  0  0  0  0  0
   -2.5654    1.2473   -1.0836 H   0  0  0  0  0  0  0  0  0  0  0  0
   -1.0595    1.3433    1.5031 H   0  0  0  0  0  0  0  0  0  0  0  0
   -1.0117    2.4049    0.0819 H   0  0  0  0  0  0  0  0  0  0  0  0
  1  2  1  0
  2  3  2  0
  3  4  1  0
  3  5  1  0
  5  6  1  0
  6  7  1  0
  7  8  1  0
  8  9  1  0
  9  2  1  0
  1 10  1  0
  1 11  1  0
  1 12  1  0
  4 13  1  0
  4 14  1  0
  4 15  1  0
  5 16  1  0
  5 17  1  0
  6 18  1  0
  6 19  1  0
  8 20  1  0
  8 21  1  0
  9 22  1  0
  9 23  1  0
M  END
