
     RDKit          3D

 17 18  0  0  0  0  0  0  0  0999 V2000
    2.1655   -1.0409   -0.0281 C   0  0  0  0  0  0  0  0  0  0  0  0
    1.0007   -0.1064    0.0365 C   0  0  0  0  0  0  0  0  0  0  0  0
    1.0242    1.2116    0.2226 C   0  0  0  0  0  0  0  0  0  0  0  0
   -0.3351    1.7709    0.2234 C   0  0  0  0  0  0  0  0  0  0  0  0
   -1.2106    0.5659    0.0045 C   0  0  0  0  0  0  0  0  0  0  0  0
   -2.5125    0.1239   -0.1318 C   0  0  0  0  0  0  0  0  0  0  0  0
   -2.4589   -1.1546   -0.3080 O   0  0  0  0  0  0  0  0  0  0  0  0
   -1.2403   -1.6100   -0.3023 C   0  0  0  0  0  0  0  0  0  0  0  0
   -0.3805   -0.5329   -0.1022 C   0  0  0  0  0  0  0  0  0  0  0  0
    1.9314   -2.0172    0.4636 H   0  0  0  0  0  0  0  0  0  0  0  0
    2.4640   -1.2742   -1.0619 H   0  0  0  0  0  0  0  0  0  0  0  0
    3.0189   -0.5725    0.5344 H   0  0  0  0  0  0  0  0  0  0  0  0
    1.9344    1.7566    0.3510 H   0  0  0  0  0  0  0  0  0  0  0  0
   -0.5042    2.5060   -0.5809 H   0  0  0  0  0  0  0  0  0  0  0  0
   -0.6381    2.2161    1.1919 H   0  0  0  0  0  0  0  0  0  0  0  0
   -3.3830    0.7923   -0.0878 H   0  0  0  0  0  0  0  0  0  0  0  0
   -0.8759   -2.6345   -0.4252 H   0  0  0  0  0  0  0  0  0  0  0  0
  1  2  1  0
  2  3  2  0
  3  4  1  0
  4  5  1  0
  5  6  2  0
  6  7  1  0
  7  8  1  0
  8  9  2  0
  9  2  1  0
  9  5  1  0
  1 10  1  0
  1 11  1  0
  1 12  1  0
  3 13  1  0
  4 14  1  0
  4 15  1  0
  6 16  1  0
  8 17  1  0
M  END
