
     RDKit          3D

 19 21  0  0  0  0  0  0  0  0999 V2000
    2.4858    0.2980    0.4228 C   0  0  0  0  0  0  0  0  0  0  0  0
    1.0664    0.4111   -0.0058 C   0  0  0  0  0  0  0  0  0  0  0  0
    0.4519    1.3318   -0.7505 C   0  0  0  0  0  0  0  0  0  0  0  0
   -0.9367    0.8377   -0.8270 C   0  0  0  0  0  0  0  0  0  0  0  0
   -0.7635   -0.6490   -0.9633 C   0  0  0  0  0  0  0  0  0  0  0  0
   -2.0143   -0.7586   -0.1377 C   0  0  0  0  0  0  0  0  0  0  0  0
   -1.2346    0.3238    0.5466 C   0  0  0  0  0  0  0  0  0  0  0  0
   -0.0220   -0.5334    0.3269 C   0  0  0  0  0  0  0  0  0  0  0  0
    0.2062   -1.5947    1.0897 O   0  0  0  0  0  0  0  0  0  0  0  0
    3.1099    1.0709   -0.0632 H   0  0  0  0  0  0  0  0  0  0  0  0
    2.5927    0.2922    1.5344 H   0  0  0  0  0  0  0  0  0  0  0  0
    2.9291   -0.6863    0.0892 H   0  0  0  0  0  0  0  0  0  0  0  0
    0.8172    2.2383   -1.2147 H   0  0  0  0  0  0  0  0  0  0  0  0
   -1.6709    1.3484   -1.3933 H   0  0  0  0  0  0  0  0  0  0  0  0
   -0.5222   -1.1637   -1.7842 H   0  0  0  0  0  0  0  0  0  0  0  0
   -2.8908   -0.4265   -0.7386 H   0  0  0  0  0  0  0  0  0  0  0  0
   -2.1340   -1.6714    0.4495 H   0  0  0  0  0  0  0  0  0  0  0  0
   -1.4808    0.8425    1.3638 H   0  0  0  0  0  0  0  0  0  0  0  0
    0.0107   -1.5110    2.0556 H   0  0  0  0  0  0  0  0  0  0  0  0
  1  2  1  0
  2  3  2  0
  3  4  1  0
  4  5  1  0
  5  6  1  0
  6  7  1  0
  7  8  1  0
  8  9  1  0
  8  2  1  0
  7  4  1  0
  8  5  1  0
  1 10  1  0
  1 11  1  0
  1 12  1  0
  3 13  1  0
  4 14  1  0
  5 15  1  0
  6 16  1  0
  6 17  1  0
  7 18  1  0
  9 19  1  0
M  END
