
     RDKit          3D

 17 18  0  0  0  0  0  0  0  0999 V2000
    2.2516   -0.1434   -0.4374 C   0  0  0  0  0  0  0  0  0  0  0  0
    0.8315    0.1702   -0.1807 C   0  0  0  0  0  0  0  0  0  0  0  0
    0.3047    1.0807    0.6757 C   0  0  0  0  0  0  0  0  0  0  0  0
   -1.1553    0.8730    0.4824 C   0  0  0  0  0  0  0  0  0  0  0  0
   -1.2214    0.7711   -0.9843 C   0  0  0  0  0  0  0  0  0  0  0  0
   -1.7125    1.3652   -1.8745 O   0  0  0  0  0  0  0  0  0  0  0  0
   -0.3833   -0.4214   -0.7856 C   0  0  0  0  0  0  0  0  0  0  0  0
   -1.2841   -0.6419    0.4460 C   0  0  0  0  0  0  0  0  0  0  0  0
   -0.6057   -1.3258    1.4177 O   0  0  0  0  0  0  0  0  0  0  0  0
    2.4084   -0.2301   -1.5277 H   0  0  0  0  0  0  0  0  0  0  0  0
    2.8994    0.6660   -0.0377 H   0  0  0  0  0  0  0  0  0  0  0  0
    2.4644   -1.1160    0.0765 H   0  0  0  0  0  0  0  0  0  0  0  0
    0.8329    1.7699    1.3229 H   0  0  0  0  0  0  0  0  0  0  0  0
   -1.8535    1.4399    1.0297 H   0  0  0  0  0  0  0  0  0  0  0  0
   -0.3247   -1.1884   -1.4983 H   0  0  0  0  0  0  0  0  0  0  0  0
   -2.3070   -0.9321    0.2129 H   0  0  0  0  0  0  0  0  0  0  0  0
   -1.1456   -2.1370    1.6625 H   0  0  0  0  0  0  0  0  0  0  0  0
  1  2  1  0
  2  3  2  0
  3  4  1  0
  4  5  1  0
  5  6  2  0
  5  7  1  0
  7  8  1  0
  8  9  1  0
  7  2  1  0
  8  4  1  0
  1 10  1  0
  1 11  1  0
  1 12  1  0
  3 13  1  0
  4 14  1  0
  7 15  1  0
  8 16  1  0
  9 17  1  0
M  END
