
     RDKit          3D

 23 23  0  0  0  0  0  0  0  0999 V2000
    2.8249   -0.1443   -0.0722 C   0  0  0  0  0  0  0  0  0  0  0  0
    1.3603    0.0290   -0.2145 C   0  0  0  0  0  0  0  0  0  0  0  0
    1.0018    1.2724    0.0125 C   0  0  0  0  0  0  0  0  0  0  0  0
   -0.2939    1.9613    0.0034 C   0  0  0  0  0  0  0  0  0  0  0  0
   -1.5448    1.6062    0.1774 C   0  0  0  0  0  0  0  0  0  0  0  0
   -2.2439    0.3560    0.4633 C   0  0  0  0  0  0  0  0  0  0  0  0
   -1.6763   -0.8310   -0.2826 C   0  0  0  0  0  0  0  0  0  0  0  0
   -0.4755   -1.4168    0.3865 C   0  0  0  0  0  0  0  0  0  0  0  0
    0.7097   -1.2487   -0.5730 C   0  0  0  0  0  0  0  0  0  0  0  0
    3.3280    0.7505    0.3489 H   0  0  0  0  0  0  0  0  0  0  0  0
    2.9664   -0.9553    0.6979 H   0  0  0  0  0  0  0  0  0  0  0  0
    3.3185   -0.4593   -1.0120 H   0  0  0  0  0  0  0  0  0  0  0  0
    1.8141    1.9449    0.2591 H   0  0  0  0  0  0  0  0  0  0  0  0
   -0.1390    3.0294   -0.2018 H   0  0  0  0  0  0  0  0  0  0  0  0
   -2.2095    2.4427    0.0861 H   0  0  0  0  0  0  0  0  0  0  0  0
   -2.2922    0.1058    1.5440 H   0  0  0  0  0  0  0  0  0  0  0  0
   -3.3067    0.4526    0.1329 H   0  0  0  0  0  0  0  0  0  0  0  0
   -1.5289   -0.5871   -1.3498 H   0  0  0  0  0  0  0  0  0  0  0  0
   -2.4816   -1.6178   -0.2639 H   0  0  0  0  0  0  0  0  0  0  0  0
   -0.5748   -2.5041    0.5943 H   0  0  0  0  0  0  0  0  0  0  0  0
   -0.2690   -0.9374    1.3660 H   0  0  0  0  0  0  0  0  0  0  0  0
    0.3404   -1.1419   -1.6244 H   0  0  0  0  0  0  0  0  0  0  0  0
    1.3721   -2.1068   -0.4781 H   0  0  0  0  0  0  0  0  0  0  0  0
  1  2  1  0
  2  3  2  3
  3  4  1  0
  4  5  2  3
  5  6  1  0
  6  7  1  0
  7  8  1  0
  8  9  1  0
  9  2  1  0
  1 10  1  0
  1 11  1  0
  1 12  1  0
  3 13  1  0
  4 14  1  0
  5 15  1  0
  6 16  1  0
  6 17  1  0
  7 18  1  0
  7 19  1  0
  8 20  1  0
  8 21  1  0
  9 22  1  0
  9 23  1  0
M  END
