
     RDKit          3D

 21 22  0  0  0  0  0  0  0  0999 V2000
   -2.1696   -0.9791    0.0933 C   0  0  0  0  0  0  0  0  0  0  0  0
   -0.7431   -0.5228   -0.0767 C   0  0  0  0  0  0  0  0  0  0  0  0
   -0.2847    0.7218   -0.1106 C   0  0  0  0  0  0  0  0  0  0  0  0
   -1.1055    1.9510    0.0154 C   0  0  0  0  0  0  0  0  0  0  0  0
    1.1665    0.7015   -0.2943 C   0  0  0  0  0  0  0  0  0  0  0  0
    1.9980    0.2374    0.8583 C   0  0  0  0  0  0  0  0  0  0  0  0
    2.6406   -0.6520   -0.0333 O   0  0  0  0  0  0  0  0  0  0  0  0
    1.4806   -0.6935   -0.7757 C   0  0  0  0  0  0  0  0  0  0  0  0
    0.3597   -1.5082   -0.2318 C   0  0  0  0  0  0  0  0  0  0  0  0
   -2.8721   -0.1464    0.1170 H   0  0  0  0  0  0  0  0  0  0  0  0
   -2.4026   -1.6901   -0.7298 H   0  0  0  0  0  0  0  0  0  0  0  0
   -2.2164   -1.5124    1.0468 H   0  0  0  0  0  0  0  0  0  0  0  0
   -0.7243    2.7718   -0.6524 H   0  0  0  0  0  0  0  0  0  0  0  0
   -2.1620    1.7961   -0.2731 H   0  0  0  0  0  0  0  0  0  0  0  0
   -1.1180    2.3427    1.0641 H   0  0  0  0  0  0  0  0  0  0  0  0
    1.6312    1.5259   -0.8465 H   0  0  0  0  0  0  0  0  0  0  0  0
    1.4662   -0.2969    1.6634 H   0  0  0  0  0  0  0  0  0  0  0  0
    2.7413    0.9997    1.2218 H   0  0  0  0  0  0  0  0  0  0  0  0
    1.5920   -0.7565   -1.8731 H   0  0  0  0  0  0  0  0  0  0  0  0
    0.6461   -1.9637    0.7516 H   0  0  0  0  0  0  0  0  0  0  0  0
    0.0763   -2.3262   -0.9344 H   0  0  0  0  0  0  0  0  0  0  0  0
  1  2  1  0
  2  3  2  0
  3  4  1  0
  3  5  1  0
  5  6  1  0
  6  7  1  0
  7  8  1  0
  8  9  1  0
  9  2  1  0
  8  5  1  0
  1 10  1  0
  1 11  1  0
  1 12  1  0
  4 13  1  0
  4 14  1  0
  4 15  1  0
  5 16  1  0
  6 17  1  0
  6 18  1  0
  8 19  1  0
  9 20  1  0
  9 21  1  0
M  END
