
     RDKit          3D

 20 20  0  0  0  0  0  0  0  0999 V2000
    2.2812    0.6588   -0.3950 C   0  0  0  0  0  0  0  0  0  0  0  0
    0.8556    0.2581   -0.1525 C   0  0  0  0  0  0  0  0  0  0  0  0
    0.0439    1.3104   -0.1564 C   0  0  0  0  0  0  0  0  0  0  0  0
   -1.4043    1.3263    0.0432 C   0  0  0  0  0  0  0  0  0  0  0  0
   -1.9314   -0.0763   -0.1704 C   0  0  0  0  0  0  0  0  0  0  0  0
   -1.5605   -0.8069    0.9237 O   0  0  0  0  0  0  0  0  0  0  0  0
   -0.4948   -1.6338    0.7878 C   0  0  0  0  0  0  0  0  0  0  0  0
    0.6690   -1.1739    0.0309 C   0  0  0  0  0  0  0  0  0  0  0  0
    2.6774    1.1107    0.5369 H   0  0  0  0  0  0  0  0  0  0  0  0
    2.3328    1.4321   -1.2155 H   0  0  0  0  0  0  0  0  0  0  0  0
    2.9069   -0.1915   -0.6837 H   0  0  0  0  0  0  0  0  0  0  0  0
    0.4757    2.2931   -0.3255 H   0  0  0  0  0  0  0  0  0  0  0  0
   -1.5996    1.6378    1.1068 H   0  0  0  0  0  0  0  0  0  0  0  0
   -1.9364    2.0694   -0.5829 H   0  0  0  0  0  0  0  0  0  0  0  0
   -3.0282    0.0118   -0.3062 H   0  0  0  0  0  0  0  0  0  0  0  0
   -1.5116   -0.4325   -1.1285 H   0  0  0  0  0  0  0  0  0  0  0  0
   -0.2021   -1.9657    1.8297 H   0  0  0  0  0  0  0  0  0  0  0  0
   -0.8726   -2.5921    0.3193 H   0  0  0  0  0  0  0  0  0  0  0  0
    0.6999   -1.6549   -0.9917 H   0  0  0  0  0  0  0  0  0  0  0  0
    1.5989   -1.5810    0.5302 H   0  0  0  0  0  0  0  0  0  0  0  0
  1  2  1  0
  2  3  2  0
  3  4  1  0
  4  5  1  0
  5  6  1  0
  6  7  1  0
  7  8  1  0
  8  2  1  0
  1  9  1  0
  1 10  1  0
  1 11  1  0
  3 12  1  0
  4 13  1  0
  4 14  1  0
  5 15  1  0
  5 16  1  0
  7 17  1  0
  7 18  1  0
  8 19  1  0
  8 20  1  0
M  END
