
     RDKit          3D

 21 22  0  0  0  0  0  0  0  0999 V2000
   -2.6675    0.4694   -0.2776 C   0  0  0  0  0  0  0  0  0  0  0  0
   -1.2922   -0.0068    0.0253 C   0  0  0  0  0  0  0  0  0  0  0  0
   -0.5826    0.1248    1.1446 C   0  0  0  0  0  0  0  0  0  0  0  0
    0.7505   -0.5537    0.9339 C   0  0  0  0  0  0  0  0  0  0  0  0
    0.2336   -1.7325    0.0768 C   0  0  0  0  0  0  0  0  0  0  0  0
   -0.4195   -0.7550   -0.9213 C   0  0  0  0  0  0  0  0  0  0  0  0
    0.6426    0.0799   -1.2341 O   0  0  0  0  0  0  0  0  0  0  0  0
    1.5064    0.1249   -0.1501 C   0  0  0  0  0  0  0  0  0  0  0  0
    2.0123    1.4863    0.1737 C   0  0  0  0  0  0  0  0  0  0  0  0
   -2.8531    1.4972    0.1334 H   0  0  0  0  0  0  0  0  0  0  0  0
   -3.4484   -0.2465    0.0856 H   0  0  0  0  0  0  0  0  0  0  0  0
   -2.7612    0.5885   -1.3850 H   0  0  0  0  0  0  0  0  0  0  0  0
   -0.9423    0.6345    2.0176 H   0  0  0  0  0  0  0  0  0  0  0  0
    1.2557   -0.8461    1.8165 H   0  0  0  0  0  0  0  0  0  0  0  0
    1.0648   -2.2734   -0.3697 H   0  0  0  0  0  0  0  0  0  0  0  0
   -0.5031   -2.3207    0.6136 H   0  0  0  0  0  0  0  0  0  0  0  0
   -0.9095   -1.2349   -1.7358 H   0  0  0  0  0  0  0  0  0  0  0  0
    2.3853   -0.5095   -0.4186 H   0  0  0  0  0  0  0  0  0  0  0  0
    1.2335    2.1742    0.5442 H   0  0  0  0  0  0  0  0  0  0  0  0
    2.8720    1.3760    0.8716 H   0  0  0  0  0  0  0  0  0  0  0  0
    2.4226    1.9234   -0.7615 H   0  0  0  0  0  0  0  0  0  0  0  0
  1  2  1  0
  2  3  2  0
  3  4  1  0
  4  5  1  0
  5  6  1  0
  6  7  1  0
  7  8  1  0
  8  9  1  0
  6  2  1  0
  8  4  1  0
  1 10  1  0
  1 11  1  0
  1 12  1  0
  3 13  1  0
  4 14  1  0
  5 15  1  0
  5 16  1  0
  6 17  1  0
  8 18  1  0
  9 19  1  0
  9 20  1  0
  9 21  1  0
M  END
