
     RDKit          3D

 19 21  0  0  0  0  0  0  0  0999 V2000
    2.5191    0.2710    0.2033 C   0  0  0  0  0  0  0  0  0  0  0  0
    1.0436    0.0849    0.1539 C   0  0  0  0  0  0  0  0  0  0  0  0
    0.3415    0.4150    1.2270 C   0  0  0  0  0  0  0  0  0  0  0  0
   -1.1342    0.2458    1.2219 C   0  0  0  0  0  0  0  0  0  0  0  0
   -1.4412   -1.1026    1.0643 O   0  0  0  0  0  0  0  0  0  0  0  0
   -1.9299   -0.8469   -0.1917 C   0  0  0  0  0  0  0  0  0  0  0  0
   -1.0190   -0.2713   -1.1881 C   0  0  0  0  0  0  0  0  0  0  0  0
    0.4555   -0.4548   -1.0856 C   0  0  0  0  0  0  0  0  0  0  0  0
   -1.6184    0.5856   -0.1619 C   0  0  0  0  0  0  0  0  0  0  0  0
    3.0166   -0.0675   -0.7230 H   0  0  0  0  0  0  0  0  0  0  0  0
    2.7986    1.3132    0.4369 H   0  0  0  0  0  0  0  0  0  0  0  0
    2.9123   -0.4010    1.0164 H   0  0  0  0  0  0  0  0  0  0  0  0
    0.7926    0.8096    2.1270 H   0  0  0  0  0  0  0  0  0  0  0  0
   -1.6753    0.7118    2.0431 H   0  0  0  0  0  0  0  0  0  0  0  0
   -2.9759   -1.1243   -0.4337 H   0  0  0  0  0  0  0  0  0  0  0  0
   -1.4385   -0.1453   -2.2266 H   0  0  0  0  0  0  0  0  0  0  0  0
    0.7955   -1.4964   -1.2064 H   0  0  0  0  0  0  0  0  0  0  0  0
    0.9218    0.1187   -1.9388 H   0  0  0  0  0  0  0  0  0  0  0  0
   -2.3645    1.3546   -0.3381 H   0  0  0  0  0  0  0  0  0  0  0  0
  1  2  1  0
  2  3  2  0
  3  4  1  0
  4  5  1  0
  5  6  1  0
  6  7  1  0
  7  8  1  0
  7  9  1  0
  8  2  1  0
  9  4  1  0
  9  6  1  0
  1 10  1  0
  1 11  1  0
  1 12  1  0
  3 13  1  0
  4 14  1  0
  6 15  1  0
  7 16  1  0
  8 17  1  0
  8 18  1  0
  9 19  1  0
M  END
