
     RDKit          3D

 23 23  0  0  0  0  0  0  0  0999 V2000
    2.8712    0.6673    0.1066 C   0  0  0  0  0  0  0  0  0  0  0  0
    1.4187    0.4794   -0.1483 C   0  0  0  0  0  0  0  0  0  0  0  0
    0.5748    1.4831   -0.0047 C   0  0  0  0  0  0  0  0  0  0  0  0
   -0.8587    1.2469   -0.2696 C   0  0  0  0  0  0  0  0  0  0  0  0
   -1.2498   -0.0345    0.4248 C   0  0  0  0  0  0  0  0  0  0  0  0
   -2.7464   -0.2290    0.1490 C   0  0  0  0  0  0  0  0  0  0  0  0
   -0.4481   -1.1736   -0.0986 C   0  0  0  0  0  0  0  0  0  0  0  0
   -0.4030   -2.1875    0.8849 O   0  0  0  0  0  0  0  0  0  0  0  0
    0.9221   -0.8298   -0.5619 C   0  0  0  0  0  0  0  0  0  0  0  0
    3.4874    0.1129   -0.6348 H   0  0  0  0  0  0  0  0  0  0  0  0
    3.1528    0.4069    1.1393 H   0  0  0  0  0  0  0  0  0  0  0  0
    3.1674    1.7500   -0.0188 H   0  0  0  0  0  0  0  0  0  0  0  0
    0.9816    2.4456    0.3052 H   0  0  0  0  0  0  0  0  0  0  0  0
   -1.5097    2.0528    0.1245 H   0  0  0  0  0  0  0  0  0  0  0  0
   -1.0648    1.0957   -1.3555 H   0  0  0  0  0  0  0  0  0  0  0  0
   -1.0839    0.0431    1.5290 H   0  0  0  0  0  0  0  0  0  0  0  0
   -3.2718   -0.6294    1.0310 H   0  0  0  0  0  0  0  0  0  0  0  0
   -2.8475   -0.8817   -0.7517 H   0  0  0  0  0  0  0  0  0  0  0  0
   -3.2323    0.7335   -0.1163 H   0  0  0  0  0  0  0  0  0  0  0  0
   -1.0100   -1.6419   -0.9528 H   0  0  0  0  0  0  0  0  0  0  0  0
    0.5480   -2.4345    1.0881 H   0  0  0  0  0  0  0  0  0  0  0  0
    0.9730   -0.8628   -1.6905 H   0  0  0  0  0  0  0  0  0  0  0  0
    1.6289   -1.6124   -0.1791 H   0  0  0  0  0  0  0  0  0  0  0  0
  1  2  1  0
  2  3  2  0
  3  4  1  0
  4  5  1  0
  5  6  1  0
  5  7  1  0
  7  8  1  0
  7  9  1  0
  9  2  1  0
  1 10  1  0
  1 11  1  0
  1 12  1  0
  3 13  1  0
  4 14  1  0
  4 15  1  0
  5 16  1  0
  6 17  1  0
  6 18  1  0
  6 19  1  0
  7 20  1  0
  8 21  1  0
  9 22  1  0
  9 23  1  0
M  END
