
     RDKit          3D

 21 21  0  0  0  0  0  0  0  0999 V2000
   -1.4962    1.6064   -0.0903 C   0  0  0  0  0  0  0  0  0  0  0  0
   -0.3045    0.7590    0.0222 C   0  0  0  0  0  0  0  0  0  0  0  0
   -0.5471   -0.5465   -0.0054 C   0  0  0  0  0  0  0  0  0  0  0  0
   -1.9696   -0.9022   -0.1440 C   0  0  0  0  0  0  0  0  0  0  0  0
    0.4482   -1.6764    0.0871 C   0  0  0  0  0  0  0  0  0  0  0  0
    1.5375   -1.1874    0.8059 O   0  0  0  0  0  0  0  0  0  0  0  0
    2.4232   -0.4765    0.0437 C   0  0  0  0  0  0  0  0  0  0  0  0
    1.9225    0.6275   -0.5884 O   0  0  0  0  0  0  0  0  0  0  0  0
    1.0467    1.3879    0.1548 C   0  0  0  0  0  0  0  0  0  0  0  0
   -1.9848    1.8263    0.8945 H   0  0  0  0  0  0  0  0  0  0  0  0
   -2.2292    1.2563   -0.8487 H   0  0  0  0  0  0  0  0  0  0  0  0
   -1.1493    2.6133   -0.4567 H   0  0  0  0  0  0  0  0  0  0  0  0
   -2.3028   -0.9884   -1.2030 H   0  0  0  0  0  0  0  0  0  0  0  0
   -2.0814   -1.9416    0.2844 H   0  0  0  0  0  0  0  0  0  0  0  0
   -2.6488   -0.2702    0.4599 H   0  0  0  0  0  0  0  0  0  0  0  0
    0.8503   -1.9102   -0.9415 H   0  0  0  0  0  0  0  0  0  0  0  0
   -0.0159   -2.5602    0.5415 H   0  0  0  0  0  0  0  0  0  0  0  0
    2.7947   -1.1752   -0.7630 H   0  0  0  0  0  0  0  0  0  0  0  0
    3.3198   -0.2716    0.6672 H   0  0  0  0  0  0  0  0  0  0  0  0
    1.3776    1.3900    1.2295 H   0  0  0  0  0  0  0  0  0  0  0  0
    1.0093    2.4397   -0.1497 H   0  0  0  0  0  0  0  0  0  0  0  0
  1  2  1  0
  2  3  2  0
  3  4  1  0
  3  5  1  0
  5  6  1  0
  6  7  1  0
  7  8  1  0
  8  9  1  0
  9  2  1  0
  1 10  1  0
  1 11  1  0
  1 12  1  0
  4 13  1  0
  4 14  1  0
  4 15  1  0
  5 16  1  0
  5 17  1  0
  7 18  1  0
  7 19  1  0
  9 20  1  0
  9 21  1  0
M  END
