
     RDKit          3D

 21 22  0  0  0  0  0  0  0  0999 V2000
   -0.5589    1.7467    0.9361 C   0  0  0  0  0  0  0  0  0  0  0  0
   -0.6770    0.3550    0.4103 C   0  0  0  0  0  0  0  0  0  0  0  0
   -1.8516   -0.2632    0.3391 C   0  0  0  0  0  0  0  0  0  0  0  0
   -1.6684   -1.6522   -0.2305 C   0  0  0  0  0  0  0  0  0  0  0  0
   -0.4458   -1.3448   -1.1160 C   0  0  0  0  0  0  0  0  0  0  0  0
    0.3493   -0.5655   -0.0866 C   0  0  0  0  0  0  0  0  0  0  0  0
    1.5663    0.0260   -0.6902 C   0  0  0  0  0  0  0  0  0  0  0  0
    2.3856    0.9138    0.2234 C   0  0  0  0  0  0  0  0  0  0  0  0
    1.7410    1.3624   -0.9146 O   0  0  0  0  0  0  0  0  0  0  0  0
   -0.2265    1.7039    1.9962 H   0  0  0  0  0  0  0  0  0  0  0  0
    0.0534    2.3999    0.2979 H   0  0  0  0  0  0  0  0  0  0  0  0
   -1.5650    2.2544    0.9845 H   0  0  0  0  0  0  0  0  0  0  0  0
   -2.8179    0.1423    0.6379 H   0  0  0  0  0  0  0  0  0  0  0  0
   -2.5202   -1.9733   -0.8238 H   0  0  0  0  0  0  0  0  0  0  0  0
   -1.3187   -2.3613    0.5308 H   0  0  0  0  0  0  0  0  0  0  0  0
    0.0445   -2.2415   -1.4700 H   0  0  0  0  0  0  0  0  0  0  0  0
   -0.7563   -0.6386   -1.9061 H   0  0  0  0  0  0  0  0  0  0  0  0
    0.6024   -1.2387    0.7857 H   0  0  0  0  0  0  0  0  0  0  0  0
    2.1897   -0.7163   -1.2629 H   0  0  0  0  0  0  0  0  0  0  0  0
    1.9782    1.2708    1.1684 H   0  0  0  0  0  0  0  0  0  0  0  0
    3.4959    0.8201    0.1907 H   0  0  0  0  0  0  0  0  0  0  0  0
  1  2  1  0
  2  3  2  0
  3  4  1  0
  4  5  1  0
  5  6  1  0
  6  7  1  0
  7  8  1  0
  8  9  1  0
  6  2  1  0
  9  7  1  0
  1 10  1  0
  1 11  1  0
  1 12  1  0
  3 13  1  0
  4 14  1  0
  4 15  1  0
  5 16  1  0
  5 17  1  0
  6 18  1  0
  7 19  1  0
  8 20  1  0
  8 21  1  0
M  END
