
     RDKit          3D

 23 24  0  0  0  0  0  0  0  0999 V2000
    2.4261   -0.6849    0.2327 C   0  0  0  0  0  0  0  0  0  0  0  0
    0.9770   -0.4635   -0.0353 C   0  0  0  0  0  0  0  0  0  0  0  0
    0.1955   -1.3795   -0.6005 C   0  0  0  0  0  0  0  0  0  0  0  0
   -1.2593   -1.3094   -0.2564 C   0  0  0  0  0  0  0  0  0  0  0  0
   -1.8373    0.0017   -0.7145 C   0  0  0  0  0  0  0  0  0  0  0  0
   -1.1883    0.6185    0.5019 C   0  0  0  0  0  0  0  0  0  0  0  0
   -1.3432   -0.7506    1.1734 C   0  0  0  0  0  0  0  0  0  0  0  0
    0.2943    0.8347    0.3234 C   0  0  0  0  0  0  0  0  0  0  0  0
    0.6250    1.9268   -0.6452 C   0  0  0  0  0  0  0  0  0  0  0  0
    2.8124    0.1547    0.8112 H   0  0  0  0  0  0  0  0  0  0  0  0
    2.5910   -1.6228    0.8243 H   0  0  0  0  0  0  0  0  0  0  0  0
    3.0221   -0.7603   -0.6953 H   0  0  0  0  0  0  0  0  0  0  0  0
    0.5939   -2.1276   -1.2681 H   0  0  0  0  0  0  0  0  0  0  0  0
   -1.8410   -2.2073   -0.4354 H   0  0  0  0  0  0  0  0  0  0  0  0
   -2.9387   -0.0095   -0.5696 H   0  0  0  0  0  0  0  0  0  0  0  0
   -1.5053    0.3743   -1.6884 H   0  0  0  0  0  0  0  0  0  0  0  0
   -1.7004    1.4374    0.9772 H   0  0  0  0  0  0  0  0  0  0  0  0
   -0.4756   -1.0108    1.7943 H   0  0  0  0  0  0  0  0  0  0  0  0
   -2.3359   -0.8168    1.6293 H   0  0  0  0  0  0  0  0  0  0  0  0
    0.6944    1.0928    1.3374 H   0  0  0  0  0  0  0  0  0  0  0  0
    0.7694    2.9035   -0.0978 H   0  0  0  0  0  0  0  0  0  0  0  0
    1.5893    1.7379   -1.1616 H   0  0  0  0  0  0  0  0  0  0  0  0
   -0.1655    2.0607   -1.4368 H   0  0  0  0  0  0  0  0  0  0  0  0
  1  2  1  0
  2  3  2  0
  3  4  1  0
  4  5  1  0
  5  6  1  0
  6  7  1  0
  6  8  1  0
  8  9  1  0
  8  2  1  0
  7  4  1  0
  1 10  1  0
  1 11  1  0
  1 12  1  0
  3 13  1  0
  4 14  1  0
  5 15  1  0
  5 16  1  0
  6 17  1  0
  7 18  1  0
  7 19  1  0
  8 20  1  0
  9 21  1  0
  9 22  1  0
  9 23  1  0
M  END
