
     RDKit          3D

 17 19  0  0  0  0  0  0  0  0999 V2000
    2.4074   -0.2423   -0.0845 C   0  0  0  0  0  0  0  0  0  0  0  0
    0.9341   -0.0522   -0.0452 C   0  0  0  0  0  0  0  0  0  0  0  0
    0.2183    0.9111   -0.6016 C   0  0  0  0  0  0  0  0  0  0  0  0
   -1.2262    0.6842   -0.2904 C   0  0  0  0  0  0  0  0  0  0  0  0
   -2.1532    1.6415   -0.5359 O   0  0  0  0  0  0  0  0  0  0  0  0
   -1.6257   -0.7433   -0.3861 C   0  0  0  0  0  0  0  0  0  0  0  0
   -0.6748   -1.7480   -0.2312 O   0  0  0  0  0  0  0  0  0  0  0  0
    0.0256   -1.0079    0.6916 C   0  0  0  0  0  0  0  0  0  0  0  0
   -1.1675   -0.1536    0.9102 C   0  0  0  0  0  0  0  0  0  0  0  0
    2.7622   -0.8956    0.7151 H   0  0  0  0  0  0  0  0  0  0  0  0
    2.9465    0.7241   -0.0132 H   0  0  0  0  0  0  0  0  0  0  0  0
    2.7400   -0.6997   -1.0522 H   0  0  0  0  0  0  0  0  0  0  0  0
    0.5963    1.7323   -1.1863 H   0  0  0  0  0  0  0  0  0  0  0  0
   -1.7379    2.5217   -0.5562 H   0  0  0  0  0  0  0  0  0  0  0  0
   -2.6687   -0.9572   -0.5997 H   0  0  0  0  0  0  0  0  0  0  0  0
    0.4736   -1.5144    1.5372 H   0  0  0  0  0  0  0  0  0  0  0  0
   -1.8500   -0.2009    1.7282 H   0  0  0  0  0  0  0  0  0  0  0  0
  1  2  1  0
  2  3  2  0
  3  4  1  0
  4  5  1  0
  4  6  1  0
  6  7  1  0
  7  8  1  0
  8  9  1  0
  8  2  1  0
  9  4  1  0
  9  6  1  0
  1 10  1  0
  1 11  1  0
  1 12  1  0
  3 13  1  0
  5 14  1  0
  6 15  1  0
  8 16  1  0
  9 17  1  0
M  END
