
     RDKit          3D

 18 19  0  0  0  0  0  0  0  0999 V2000
    2.1987    0.6510    0.2326 C   0  0  0  0  0  0  0  0  0  0  0  0
    0.8453    0.1045   -0.0145 C   0  0  0  0  0  0  0  0  0  0  0  0
   -0.2936    0.7582    0.0050 C   0  0  0  0  0  0  0  0  0  0  0  0
   -1.4710    1.6759    0.0753 C   0  0  0  0  0  0  0  0  0  0  0  0
   -2.3192    0.5443    0.2828 O   0  0  0  0  0  0  0  0  0  0  0  0
   -1.3912   -0.2347   -0.3963 C   0  0  0  0  0  0  0  0  0  0  0  0
   -0.8277   -1.4419    0.3023 C   0  0  0  0  0  0  0  0  0  0  0  0
    0.6001   -1.3571   -0.2958 C   0  0  0  0  0  0  0  0  0  0  0  0
    2.8751    0.3534   -0.6138 H   0  0  0  0  0  0  0  0  0  0  0  0
    2.1875    1.7383    0.3916 H   0  0  0  0  0  0  0  0  0  0  0  0
    2.6335    0.1807    1.1626 H   0  0  0  0  0  0  0  0  0  0  0  0
   -1.7023    2.1629   -0.8917 H   0  0  0  0  0  0  0  0  0  0  0  0
   -1.5335    2.3018    0.9750 H   0  0  0  0  0  0  0  0  0  0  0  0
   -1.5212   -0.3136   -1.4781 H   0  0  0  0  0  0  0  0  0  0  0  0
   -1.3105   -2.3782    0.0475 H   0  0  0  0  0  0  0  0  0  0  0  0
   -0.7498   -1.2286    1.3773 H   0  0  0  0  0  0  0  0  0  0  0  0
    1.2941   -2.0138    0.2155 H   0  0  0  0  0  0  0  0  0  0  0  0
    0.4857   -1.5030   -1.3773 H   0  0  0  0  0  0  0  0  0  0  0  0
  1  2  1  0
  2  3  2  0
  3  4  1  0
  4  5  1  0
  5  6  1  0
  6  7  1  0
  7  8  1  0
  8  2  1  0
  6  3  1  0
  1  9  1  0
  1 10  1  0
  1 11  1  0
  4 12  1  0
  4 13  1  0
  6 14  1  0
  7 15  1  0
  7 16  1  0
  8 17  1  0
  8 18  1  0
M  END
