
     RDKit          3D

 20 20  0  0  0  0  0  0  0  0999 V2000
    1.7395   -1.2246    0.0340 C   0  0  0  0  0  0  0  0  0  0  0  0
    0.8857   -0.0124    0.0903 C   0  0  0  0  0  0  0  0  0  0  0  0
    1.2380    1.2625    0.1038 C   0  0  0  0  0  0  0  0  0  0  0  0
   -0.0074    2.0542    0.1637 C   0  0  0  0  0  0  0  0  0  0  0  0
   -0.8765    1.2050    0.8330 O   0  0  0  0  0  0  0  0  0  0  0  0
   -0.6207    0.0039    0.1635 C   0  0  0  0  0  0  0  0  0  0  0  0
   -1.0385   -1.2004    0.9680 C   0  0  0  0  0  0  0  0  0  0  0  0
   -1.2628    0.0288   -1.1812 C   0  0  0  0  0  0  0  0  0  0  0  0
    2.7042   -1.0375   -0.4743 H   0  0  0  0  0  0  0  0  0  0  0  0
    1.8350   -1.6550    1.0400 H   0  0  0  0  0  0  0  0  0  0  0  0
    1.1940   -1.9573   -0.6281 H   0  0  0  0  0  0  0  0  0  0  0  0
    2.2699    1.6476    0.0752 H   0  0  0  0  0  0  0  0  0  0  0  0
   -0.3455    2.1890   -0.8872 H   0  0  0  0  0  0  0  0  0  0  0  0
    0.1246    3.0258    0.6807 H   0  0  0  0  0  0  0  0  0  0  0  0
   -0.9650   -0.9394    2.0545 H   0  0  0  0  0  0  0  0  0  0  0  0
   -0.3966   -2.0525    0.7348 H   0  0  0  0  0  0  0  0  0  0  0  0
   -2.1033   -1.4807    0.7896 H   0  0  0  0  0  0  0  0  0  0  0  0
   -0.5751    0.4149   -1.9586 H   0  0  0  0  0  0  0  0  0  0  0  0
   -2.1401    0.7070   -1.1543 H   0  0  0  0  0  0  0  0  0  0  0  0
   -1.6593   -0.9788   -1.4472 H   0  0  0  0  0  0  0  0  0  0  0  0
  1  2  1  0
  2  3  2  0
  3  4  1  0
  4  5  1  0
  5  6  1  0
  6  7  1  0
  6  8  1  0
  6  2  1  0
  1  9  1  0
  1 10  1  0
  1 11  1  0
  3 12  1  0
  4 13  1  0
  4 14  1  0
  7 15  1  0
  7 16  1  0
  7 17  1  0
  8 18  1  0
  8 19  1  0
  8 20  1  0
M  END
