
     RDKit          3D

 19 20  0  0  0  0  0  0  0  0999 V2000
    2.2715   -1.0020   -0.1736 C   0  0  0  0  0  0  0  0  0  0  0  0
    1.0173   -0.2053   -0.2456 C   0  0  0  0  0  0  0  0  0  0  0  0
   -0.2235   -0.6146   -0.1406 C   0  0  0  0  0  0  0  0  0  0  0  0
   -1.5029   -1.3259    0.0109 C   0  0  0  0  0  0  0  0  0  0  0  0
   -1.9015   -0.0509    0.7994 C   0  0  0  0  0  0  0  0  0  0  0  0
   -1.1513    0.5898   -0.3387 C   0  0  0  0  0  0  0  0  0  0  0  0
   -0.3089    1.7463   -0.0819 C   0  0  0  0  0  0  0  0  0  0  0  0
   -0.5739    2.8397    0.3192 O   0  0  0  0  0  0  0  0  0  0  0  0
    1.0745    1.2919   -0.4386 C   0  0  0  0  0  0  0  0  0  0  0  0
    2.6621   -1.0674    0.8765 H   0  0  0  0  0  0  0  0  0  0  0  0
    2.0040   -2.0269   -0.5526 H   0  0  0  0  0  0  0  0  0  0  0  0
    3.0644   -0.5584   -0.7882 H   0  0  0  0  0  0  0  0  0  0  0  0
   -1.5170   -2.2316    0.6188 H   0  0  0  0  0  0  0  0  0  0  0  0
   -2.0685   -1.3210   -0.9229 H   0  0  0  0  0  0  0  0  0  0  0  0
   -1.3189   -0.0149    1.7247 H   0  0  0  0  0  0  0  0  0  0  0  0
   -2.9718    0.1207    0.8508 H   0  0  0  0  0  0  0  0  0  0  0  0
   -1.6613    0.5444   -1.3227 H   0  0  0  0  0  0  0  0  0  0  0  0
    1.7510    1.7559    0.3004 H   0  0  0  0  0  0  0  0  0  0  0  0
    1.3546    1.5301   -1.4718 H   0  0  0  0  0  0  0  0  0  0  0  0
  1  2  1  0
  2  3  2  0
  3  4  1  0
  4  5  1  0
  5  6  1  0
  6  7  1  0
  7  8  2  0
  7  9  1  0
  9  2  1  0
  6  3  1  0
  1 10  1  0
  1 11  1  0
  1 12  1  0
  4 13  1  0
  4 14  1  0
  5 15  1  0
  5 16  1  0
  6 17  1  0
  9 18  1  0
  9 19  1  0
M  END
