
     RDKit          3D

 23 24  0  0  0  0  0  0  0  0999 V2000
    3.0610   -0.3600   -0.5064 C   0  0  0  0  0  0  0  0  0  0  0  0
    1.6577   -0.1775   -0.0605 C   0  0  0  0  0  0  0  0  0  0  0  0
    0.6405   -0.0028   -0.8848 C   0  0  0  0  0  0  0  0  0  0  0  0
   -0.5929    0.1434   -0.1188 C   0  0  0  0  0  0  0  0  0  0  0  0
   -1.5759   -0.9892   -0.2453 C   0  0  0  0  0  0  0  0  0  0  0  0
   -2.6751    0.0380   -0.3527 C   0  0  0  0  0  0  0  0  0  0  0  0
   -1.6311    1.0803   -0.6813 C   0  0  0  0  0  0  0  0  0  0  0  0
   -0.1689    0.5040    1.2576 C   0  0  0  0  0  0  0  0  0  0  0  0
    1.1996   -0.1617    1.3549 C   0  0  0  0  0  0  0  0  0  0  0  0
    3.5194    0.6125   -0.7529 H   0  0  0  0  0  0  0  0  0  0  0  0
    3.6747   -0.8616    0.2693 H   0  0  0  0  0  0  0  0  0  0  0  0
    3.0402   -0.9782   -1.4515 H   0  0  0  0  0  0  0  0  0  0  0  0
    0.6702    0.0339   -1.9887 H   0  0  0  0  0  0  0  0  0  0  0  0
   -1.6345   -1.6697    0.6254 H   0  0  0  0  0  0  0  0  0  0  0  0
   -1.4876   -1.5471   -1.2069 H   0  0  0  0  0  0  0  0  0  0  0  0
   -3.3838   -0.1489   -1.2036 H   0  0  0  0  0  0  0  0  0  0  0  0
   -3.2304    0.2271    0.5746 H   0  0  0  0  0  0  0  0  0  0  0  0
   -1.4605    1.2746   -1.7481 H   0  0  0  0  0  0  0  0  0  0  0  0
   -1.7713    1.9776   -0.0342 H   0  0  0  0  0  0  0  0  0  0  0  0
   -0.8508    0.1993    2.0502 H   0  0  0  0  0  0  0  0  0  0  0  0
    0.0203    1.6098    1.3485 H   0  0  0  0  0  0  0  0  0  0  0  0
    1.8879    0.3856    2.0005 H   0  0  0  0  0  0  0  0  0  0  0  0
    1.0914   -1.1893    1.7549 H   0  0  0  0  0  0  0  0  0  0  0  0
  1  2  1  0
  2  3  2  0
  3  4  1  0
  4  5  1  0
  5  6  1  0
  6  7  1  0
  4  8  1  0
  8  9  1  0
  9  2  1  0
  7  4  1  0
  1 10  1  0
  1 11  1  0
  1 12  1  0
  3 13  1  0
  5 14  1  0
  5 15  1  0
  6 16  1  0
  6 17  1  0
  7 18  1  0
  7 19  1  0
  8 20  1  0
  8 21  1  0
  9 22  1  0
  9 23  1  0
M  END
