
     RDKit          3D

 17 19  0  0  0  0  0  0  0  0999 V2000
    2.4668    0.1182    0.1806 C   0  0  0  0  0  0  0  0  0  0  0  0
    0.9880    0.2232    0.1207 C   0  0  0  0  0  0  0  0  0  0  0  0
    0.2555    1.2572    0.4956 C   0  0  0  0  0  0  0  0  0  0  0  0
   -1.1819    0.9404    0.2647 C   0  0  0  0  0  0  0  0  0  0  0  0
   -1.5277   -0.4767    0.7066 C   0  0  0  0  0  0  0  0  0  0  0  0
   -0.5496   -1.4561    0.6822 O   0  0  0  0  0  0  0  0  0  0  0  0
    0.1151   -0.8752   -0.3928 C   0  0  0  0  0  0  0  0  0  0  0  0
   -1.1385   -0.1317   -0.7113 C   0  0  0  0  0  0  0  0  0  0  0  0
   -2.0188   -0.4492   -1.6691 O   0  0  0  0  0  0  0  0  0  0  0  0
    2.8819    0.7439   -0.6444 H   0  0  0  0  0  0  0  0  0  0  0  0
    2.8420   -0.9022    0.1556 H   0  0  0  0  0  0  0  0  0  0  0  0
    2.8726    0.5774    1.1299 H   0  0  0  0  0  0  0  0  0  0  0  0
    0.5846    2.1964    0.9055 H   0  0  0  0  0  0  0  0  0  0  0  0
   -1.9447    1.6835    0.3987 H   0  0  0  0  0  0  0  0  0  0  0  0
   -2.5589   -0.6931    0.9698 H   0  0  0  0  0  0  0  0  0  0  0  0
    0.5405   -1.5328   -1.1379 H   0  0  0  0  0  0  0  0  0  0  0  0
   -2.6269   -1.2232   -1.4541 H   0  0  0  0  0  0  0  0  0  0  0  0
  1  2  1  0
  2  3  2  0
  3  4  1  0
  4  5  1  0
  5  6  1  0
  6  7  1  0
  7  8  1  0
  8  9  1  0
  7  2  1  0
  8  4  1  0
  8  5  1  0
  1 10  1  0
  1 11  1  0
  1 12  1  0
  3 13  1  0
  4 14  1  0
  5 15  1  0
  7 16  1  0
  9 17  1  0
M  END
