
     RDKit          3D

 19 21  0  0  0  0  0  0  0  0999 V2000
    2.3464   -0.1142    0.5410 C   0  0  0  0  0  0  0  0  0  0  0  0
    0.9426    0.2586    0.2288 C   0  0  0  0  0  0  0  0  0  0  0  0
    0.3858    1.4449    0.4325 C   0  0  0  0  0  0  0  0  0  0  0  0
   -1.0400    1.4141   -0.0138 C   0  0  0  0  0  0  0  0  0  0  0  0
   -1.8554    0.2007    0.2628 C   0  0  0  0  0  0  0  0  0  0  0  0
   -1.1523   -1.0923    0.6190 C   0  0  0  0  0  0  0  0  0  0  0  0
   -0.0527   -0.6745   -0.3696 C   0  0  0  0  0  0  0  0  0  0  0  0
    0.4279   -1.6777   -1.1420 O   0  0  0  0  0  0  0  0  0  0  0  0
   -1.0480    0.2708   -0.9509 C   0  0  0  0  0  0  0  0  0  0  0  0
    2.5542    0.1289    1.5999 H   0  0  0  0  0  0  0  0  0  0  0  0
    3.0768    0.5125   -0.0493 H   0  0  0  0  0  0  0  0  0  0  0  0
    2.5771   -1.1552    0.2830 H   0  0  0  0  0  0  0  0  0  0  0  0
    0.8459    2.3293    0.8524 H   0  0  0  0  0  0  0  0  0  0  0  0
   -1.5517    2.3181   -0.3231 H   0  0  0  0  0  0  0  0  0  0  0  0
   -2.9386    0.2743    0.2747 H   0  0  0  0  0  0  0  0  0  0  0  0
   -1.7024   -1.9522    0.1709 H   0  0  0  0  0  0  0  0  0  0  0  0
   -0.8230   -1.2016    1.6506 H   0  0  0  0  0  0  0  0  0  0  0  0
    0.3879   -1.5633   -2.1020 H   0  0  0  0  0  0  0  0  0  0  0  0
   -1.3806    0.2788   -1.9648 H   0  0  0  0  0  0  0  0  0  0  0  0
  1  2  1  0
  2  3  2  0
  3  4  1  0
  4  5  1  0
  5  6  1  0
  6  7  1  0
  7  8  1  0
  7  9  1  0
  7  2  1  0
  9  4  1  0
  9  5  1  0
  1 10  1  0
  1 11  1  0
  1 12  1  0
  3 13  1  0
  4 14  1  0
  5 15  1  0
  6 16  1  0
  6 17  1  0
  8 18  1  0
  9 19  1  0
M  END
