
     RDKit          3D

 14 15  0  0  0  0  0  0  0  0999 V2000
    2.0216   -0.1538   -0.1138 C   0  0  0  0  0  0  0  0  0  0  0  0
    0.5502    0.0681   -0.1048 C   0  0  0  0  0  0  0  0  0  0  0  0
   -0.1558    1.1518    0.2180 C   0  0  0  0  0  0  0  0  0  0  0  0
   -1.5513    0.6573   -0.0561 C   0  0  0  0  0  0  0  0  0  0  0  0
   -1.3665   -0.0651   -1.2370 O   0  0  0  0  0  0  0  0  0  0  0  0
   -0.5512   -0.8907   -0.4648 C   0  0  0  0  0  0  0  0  0  0  0  0
   -1.5095   -0.6465    0.6227 C   0  0  0  0  0  0  0  0  0  0  0  0
   -1.9934   -1.2009    1.5526 O   0  0  0  0  0  0  0  0  0  0  0  0
    2.2856   -0.6403    0.8463 H   0  0  0  0  0  0  0  0  0  0  0  0
    2.4852    0.8665   -0.0958 H   0  0  0  0  0  0  0  0  0  0  0  0
    2.3419   -0.7325   -1.0023 H   0  0  0  0  0  0  0  0  0  0  0  0
    0.1097    2.1286    0.5756 H   0  0  0  0  0  0  0  0  0  0  0  0
   -2.3605    1.3168    0.0471 H   0  0  0  0  0  0  0  0  0  0  0  0
   -0.3059   -1.8592   -0.7876 H   0  0  0  0  0  0  0  0  0  0  0  0
  1  2  1  0
  2  3  2  0
  3  4  1  0
  4  5  1  0
  5  6  1  0
  6  7  1  0
  7  8  2  0
  6  2  1  0
  7  4  1  0
  1  9  1  0
  1 10  1  0
  1 11  1  0
  3 12  1  0
  4 13  1  0
  6 14  1  0
M  END
