
     RDKit          3D

 23 24  0  0  0  0  0  0  0  0999 V2000
    2.7037    0.4149    0.0640 C   0  0  0  0  0  0  0  0  0  0  0  0
    1.2340    0.2060    0.0641 C   0  0  0  0  0  0  0  0  0  0  0  0
    0.5000    1.2769    0.3102 C   0  0  0  0  0  0  0  0  0  0  0  0
   -0.8917    1.6020   -0.1526 C   0  0  0  0  0  0  0  0  0  0  0  0
   -1.7672    0.3774    0.0069 C   0  0  0  0  0  0  0  0  0  0  0  0
   -1.4698   -0.6868   -1.0133 C   0  0  0  0  0  0  0  0  0  0  0  0
   -0.6493   -1.4124    0.0293 C   0  0  0  0  0  0  0  0  0  0  0  0
    0.8085   -1.1921   -0.2157 C   0  0  0  0  0  0  0  0  0  0  0  0
   -1.2376   -0.5400    1.0888 C   0  0  0  0  0  0  0  0  0  0  0  0
    3.1559   -0.0777   -0.8179 H   0  0  0  0  0  0  0  0  0  0  0  0
    3.1523    0.0812    1.0255 H   0  0  0  0  0  0  0  0  0  0  0  0
    2.9646    1.5045   -0.0304 H   0  0  0  0  0  0  0  0  0  0  0  0
    0.9955    2.0103    0.9376 H   0  0  0  0  0  0  0  0  0  0  0  0
   -0.8844    1.9075   -1.2294 H   0  0  0  0  0  0  0  0  0  0  0  0
   -1.3089    2.4200    0.4455 H   0  0  0  0  0  0  0  0  0  0  0  0
   -2.8233    0.6400    0.0642 H   0  0  0  0  0  0  0  0  0  0  0  0
   -2.3903   -1.3049   -1.2220 H   0  0  0  0  0  0  0  0  0  0  0  0
   -0.9300   -0.3728   -1.9095 H   0  0  0  0  0  0  0  0  0  0  0  0
   -0.9093   -2.4757    0.1794 H   0  0  0  0  0  0  0  0  0  0  0  0
    0.9773   -1.3416   -1.3219 H   0  0  0  0  0  0  0  0  0  0  0  0
    1.4484   -1.9425    0.2771 H   0  0  0  0  0  0  0  0  0  0  0  0
   -0.5676   -0.0817    1.8125 H   0  0  0  0  0  0  0  0  0  0  0  0
   -2.1107   -1.0123    1.6076 H   0  0  0  0  0  0  0  0  0  0  0  0
  1  2  1  0
  2  3  2  0
  3  4  1  0
  4  5  1  0
  5  6  1  0
  6  7  1  0
  7  8  1  0
  7  9  1  0
  8  2  1  0
  9  5  1  0
  1 10  1  0
  1 11  1  0
  1 12  1  0
  3 13  1  0
  4 14  1  0
  4 15  1  0
  5 16  1  0
  6 17  1  0
  6 18  1  0
  7 19  1  0
  8 20  1  0
  8 21  1  0
  9 22  1  0
  9 23  1  0
M  END
