
     RDKit          3D

 17 18  0  0  0  0  0  0  0  0999 V2000
    2.2582   -0.7818   -0.2933 C   0  0  0  0  0  0  0  0  0  0  0  0
    1.0803    0.0258    0.1114 C   0  0  0  0  0  0  0  0  0  0  0  0
   -0.1656   -0.3440   -0.0481 C   0  0  0  0  0  0  0  0  0  0  0  0
   -1.5032   -0.9816   -0.3374 C   0  0  0  0  0  0  0  0  0  0  0  0
   -2.0145    0.4888   -0.3485 C   0  0  0  0  0  0  0  0  0  0  0  0
   -1.0133    0.6621    0.7371 C   0  0  0  0  0  0  0  0  0  0  0  0
   -0.2036    1.7745    0.7780 O   0  0  0  0  0  0  0  0  0  0  0  0
    1.1454    1.3839    0.6471 C   0  0  0  0  0  0  0  0  0  0  0  0
    2.1900    1.9959    0.9057 O   0  0  0  0  0  0  0  0  0  0  0  0
    2.3489   -1.6648    0.3642 H   0  0  0  0  0  0  0  0  0  0  0  0
    3.1940   -0.1848   -0.2897 H   0  0  0  0  0  0  0  0  0  0  0  0
    2.0930   -1.1004   -1.3606 H   0  0  0  0  0  0  0  0  0  0  0  0
   -1.5612   -1.4728   -1.3090 H   0  0  0  0  0  0  0  0  0  0  0  0
   -1.8252   -1.5470    0.5429 H   0  0  0  0  0  0  0  0  0  0  0  0
   -3.0714    0.5750   -0.1044 H   0  0  0  0  0  0  0  0  0  0  0  0
   -1.6643    0.9587   -1.2848 H   0  0  0  0  0  0  0  0  0  0  0  0
   -1.2873    0.2125    1.7235 H   0  0  0  0  0  0  0  0  0  0  0  0
  1  2  1  0
  2  3  2  0
  3  4  1  0
  4  5  1  0
  5  6  1  0
  6  7  1  0
  7  8  1  0
  8  9  2  0
  8  2  1  0
  6  3  1  0
  1 10  1  0
  1 11  1  0
  1 12  1  0
  4 13  1  0
  4 14  1  0
  5 15  1  0
  5 16  1  0
  6 17  1  0
M  END
