
     RDKit          3D

 23 23  0  0  0  0  0  0  0  0999 V2000
    3.0113   -0.3475   -0.0773 C   0  0  0  0  0  0  0  0  0  0  0  0
    1.5524   -0.1273    0.0963 C   0  0  0  0  0  0  0  0  0  0  0  0
    0.9273    1.0376    0.2406 C   0  0  0  0  0  0  0  0  0  0  0  0
   -0.5475    0.7842    0.3849 C   0  0  0  0  0  0  0  0  0  0  0  0
   -1.3471    1.8885   -0.2393 C   0  0  0  0  0  0  0  0  0  0  0  0
   -0.8804    0.5516    1.7006 O   0  0  0  0  0  0  0  0  0  0  0  0
   -0.6582   -0.5147   -0.4091 C   0  0  0  0  0  0  0  0  0  0  0  0
   -1.8686   -1.3022   -0.0776 C   0  0  0  0  0  0  0  0  0  0  0  0
    0.5595   -1.2378    0.1333 C   0  0  0  0  0  0  0  0  0  0  0  0
    3.5172    0.4598    0.5146 H   0  0  0  0  0  0  0  0  0  0  0  0
    3.3167   -0.2612   -1.1333 H   0  0  0  0  0  0  0  0  0  0  0  0
    3.2888   -1.3162    0.3398 H   0  0  0  0  0  0  0  0  0  0  0  0
    1.4319    1.9934    0.2481 H   0  0  0  0  0  0  0  0  0  0  0  0
   -0.8980    2.1781   -1.1922 H   0  0  0  0  0  0  0  0  0  0  0  0
   -1.3158    2.7529    0.4368 H   0  0  0  0  0  0  0  0  0  0  0  0
   -2.3944    1.5037   -0.3540 H   0  0  0  0  0  0  0  0  0  0  0  0
   -1.8500    0.5698    1.8070 H   0  0  0  0  0  0  0  0  0  0  0  0
   -0.5457   -0.3185   -1.4852 H   0  0  0  0  0  0  0  0  0  0  0  0
   -2.7883   -0.9939   -0.6024 H   0  0  0  0  0  0  0  0  0  0  0  0
   -1.9899   -1.3246    1.0217 H   0  0  0  0  0  0  0  0  0  0  0  0
   -1.6820   -2.3693   -0.3808 H   0  0  0  0  0  0  0  0  0  0  0  0
    0.3069   -1.5081    1.1929 H   0  0  0  0  0  0  0  0  0  0  0  0
    0.8540   -2.0983   -0.4667 H   0  0  0  0  0  0  0  0  0  0  0  0
  1  2  1  0
  2  3  2  0
  3  4  1  0
  4  5  1  0
  4  6  1  0
  4  7  1  0
  7  8  1  0
  7  9  1  0
  9  2  1  0
  1 10  1  0
  1 11  1  0
  1 12  1  0
  3 13  1  0
  5 14  1  0
  5 15  1  0
  5 16  1  0
  6 17  1  0
  7 18  1  0
  8 19  1  0
  8 20  1  0
  8 21  1  0
  9 22  1  0
  9 23  1  0
M  END
