
     RDKit          3D

 19 20  0  0  0  0  0  0  0  0999 V2000
    0.4814    2.1072    0.2208 C   0  0  0  0  0  0  0  0  0  0  0  0
   -0.2211    0.8105    0.0738 C   0  0  0  0  0  0  0  0  0  0  0  0
    0.3440   -0.3352   -0.2517 C   0  0  0  0  0  0  0  0  0  0  0  0
    1.8000   -0.5907   -0.5430 C   0  0  0  0  0  0  0  0  0  0  0  0
    2.2485   -1.5340    0.3889 O   0  0  0  0  0  0  0  0  0  0  0  0
   -0.6595   -1.3982   -0.3086 C   0  0  0  0  0  0  0  0  0  0  0  0
   -1.9086   -0.8274    0.2456 C   0  0  0  0  0  0  0  0  0  0  0  0
   -1.9523   -0.1082    1.4303 O   0  0  0  0  0  0  0  0  0  0  0  0
   -1.6730    0.6194    0.2806 C   0  0  0  0  0  0  0  0  0  0  0  0
   -0.2181    2.9222   -0.0075 H   0  0  0  0  0  0  0  0  0  0  0  0
    1.2696    2.1459   -0.5769 H   0  0  0  0  0  0  0  0  0  0  0  0
    0.9449    2.2095    1.2348 H   0  0  0  0  0  0  0  0  0  0  0  0
    1.8986   -1.0505   -1.5350 H   0  0  0  0  0  0  0  0  0  0  0  0
    2.3954    0.3236   -0.4743 H   0  0  0  0  0  0  0  0  0  0  0  0
    1.7163   -1.4132    1.2013 H   0  0  0  0  0  0  0  0  0  0  0  0
   -0.8595   -1.6184   -1.3969 H   0  0  0  0  0  0  0  0  0  0  0  0
   -0.3234   -2.3289    0.1968 H   0  0  0  0  0  0  0  0  0  0  0  0
   -2.8818   -1.2667   -0.0613 H   0  0  0  0  0  0  0  0  0  0  0  0
   -2.4013    1.3333   -0.1177 H   0  0  0  0  0  0  0  0  0  0  0  0
  1  2  1  0
  2  3  2  0
  3  4  1  0
  4  5  1  0
  3  6  1  0
  6  7  1  0
  7  8  1  0
  8  9  1  0
  9  2  1  0
  9  7  1  0
  1 10  1  0
  1 11  1  0
  1 12  1  0
  4 13  1  0
  4 14  1  0
  5 15  1  0
  6 16  1  0
  6 17  1  0
  7 18  1  0
  9 19  1  0
M  END
