
     RDKit          3D

 21 21  0  0  0  0  0  0  0  0999 V2000
    2.4399    0.6005    0.5840 C   0  0  0  0  0  0  0  0  0  0  0  0
    1.1090    0.0192    0.2940 C   0  0  0  0  0  0  0  0  0  0  0  0
    0.4267   -0.7479    1.1228 C   0  0  0  0  0  0  0  0  0  0  0  0
   -0.8443   -1.1391    0.5027 C   0  0  0  0  0  0  0  0  0  0  0  0
   -1.0847   -0.1390   -0.5720 C   0  0  0  0  0  0  0  0  0  0  0  0
   -1.7983    1.0934   -0.1455 C   0  0  0  0  0  0  0  0  0  0  0  0
   -1.7545   -0.7443   -1.6338 O   0  0  0  0  0  0  0  0  0  0  0  0
    0.3564    0.2238   -0.9695 C   0  0  0  0  0  0  0  0  0  0  0  0
    0.7013   -0.6542   -1.9677 O   0  0  0  0  0  0  0  0  0  0  0  0
    3.0661   -0.1384    1.1524 H   0  0  0  0  0  0  0  0  0  0  0  0
    2.9736    0.9088   -0.3405 H   0  0  0  0  0  0  0  0  0  0  0  0
    2.3004    1.4783    1.2603 H   0  0  0  0  0  0  0  0  0  0  0  0
    0.7562   -1.0429    2.1101 H   0  0  0  0  0  0  0  0  0  0  0  0
   -1.6769   -1.2231    1.2316 H   0  0  0  0  0  0  0  0  0  0  0  0
   -0.6627   -2.1305   -0.0061 H   0  0  0  0  0  0  0  0  0  0  0  0
   -1.4634    1.4753    0.8312 H   0  0  0  0  0  0  0  0  0  0  0  0
   -2.9018    0.9748   -0.2111 H   0  0  0  0  0  0  0  0  0  0  0  0
   -1.5549    1.8968   -0.9013 H   0  0  0  0  0  0  0  0  0  0  0  0
   -2.4376   -1.3538   -1.2110 H   0  0  0  0  0  0  0  0  0  0  0  0
    0.3954    1.2984   -1.3007 H   0  0  0  0  0  0  0  0  0  0  0  0
    1.6542   -0.6562   -2.2125 H   0  0  0  0  0  0  0  0  0  0  0  0
  1  2  1  0
  2  3  2  0
  3  4  1  0
  4  5  1  0
  5  6  1  0
  5  7  1  0
  5  8  1  0
  8  9  1  0
  8  2  1  0
  1 10  1  0
  1 11  1  0
  1 12  1  0
  3 13  1  0
  4 14  1  0
  4 15  1  0
  6 16  1  0
  6 17  1  0
  6 18  1  0
  7 19  1  0
  8 20  1  0
  9 21  1  0
M  END
