
     RDKit          3D

 21 21  0  0  0  0  0  0  0  0999 V2000
    2.7427    0.3601   -0.1027 C   0  0  0  0  0  0  0  0  0  0  0  0
    1.2676    0.2266    0.1158 C   0  0  0  0  0  0  0  0  0  0  0  0
    0.5856    1.2917   -0.2751 C   0  0  0  0  0  0  0  0  0  0  0  0
   -0.8269    1.6650   -0.2847 C   0  0  0  0  0  0  0  0  0  0  0  0
   -2.0033    1.0923   -0.0888 C   0  0  0  0  0  0  0  0  0  0  0  0
   -2.4189   -0.2918    0.2530 C   0  0  0  0  0  0  0  0  0  0  0  0
   -1.4800   -1.3118   -0.2578 C   0  0  0  0  0  0  0  0  0  0  0  0
   -0.2070   -1.6410   -0.1011 C   0  0  0  0  0  0  0  0  0  0  0  0
    0.9010   -1.0737    0.7233 C   0  0  0  0  0  0  0  0  0  0  0  0
    2.9492    0.9212   -1.0518 H   0  0  0  0  0  0  0  0  0  0  0  0
    3.2274    0.9354    0.7104 H   0  0  0  0  0  0  0  0  0  0  0  0
    3.2168   -0.6262   -0.2304 H   0  0  0  0  0  0  0  0  0  0  0  0
    1.2677    2.0325   -0.6727 H   0  0  0  0  0  0  0  0  0  0  0  0
   -0.9608    2.7195   -0.5207 H   0  0  0  0  0  0  0  0  0  0  0  0
   -2.8569    1.7726   -0.1995 H   0  0  0  0  0  0  0  0  0  0  0  0
   -3.4308   -0.4698   -0.2103 H   0  0  0  0  0  0  0  0  0  0  0  0
   -2.5169   -0.3674    1.3636 H   0  0  0  0  0  0  0  0  0  0  0  0
   -1.9375   -2.0080   -0.9705 H   0  0  0  0  0  0  0  0  0  0  0  0
    0.1067   -2.4923   -0.6832 H   0  0  0  0  0  0  0  0  0  0  0  0
    0.6027   -0.9739    1.7869 H   0  0  0  0  0  0  0  0  0  0  0  0
    1.7715   -1.7609    0.6964 H   0  0  0  0  0  0  0  0  0  0  0  0
  1  2  1  0
  2  3  2  3
  3  4  1  0
  4  5  2  3
  5  6  1  0
  6  7  1  0
  7  8  2  3
  8  9  1  0
  9  2  1  0
  1 10  1  0
  1 11  1  0
  1 12  1  0
  3 13  1  0
  4 14  1  0
  5 15  1  0
  6 16  1  0
  6 17  1  0
  7 18  1  0
  8 19  1  0
  9 20  1  0
  9 21  1  0
M  END
