
     RDKit          3D

 16 16  0  0  0  0  0  0  0  0999 V2000
    2.1407   -0.5672   -0.0815 C   0  0  0  0  0  0  0  0  0  0  0  0
    0.7167   -0.1161   -0.0990 C   0  0  0  0  0  0  0  0  0  0  0  0
   -0.2880   -0.9153   -0.4447 C   0  0  0  0  0  0  0  0  0  0  0  0
   -1.7139   -0.4183   -0.4487 C   0  0  0  0  0  0  0  0  0  0  0  0
   -1.8390    0.4414    0.7632 C   0  0  0  0  0  0  0  0  0  0  0  0
   -2.9138    0.5377    1.4015 O   0  0  0  0  0  0  0  0  0  0  0  0
   -0.7407    1.1642    1.2121 O   0  0  0  0  0  0  0  0  0  0  0  0
    0.3427    1.2767    0.2761 C   0  0  0  0  0  0  0  0  0  0  0  0
    2.7502    0.2253    0.3645 H   0  0  0  0  0  0  0  0  0  0  0  0
    2.2816   -1.4767    0.5322 H   0  0  0  0  0  0  0  0  0  0  0  0
    2.5189   -0.8060   -1.0914 H   0  0  0  0  0  0  0  0  0  0  0  0
   -0.0790   -1.9335   -0.7261 H   0  0  0  0  0  0  0  0  0  0  0  0
   -2.4273   -1.2385   -0.3947 H   0  0  0  0  0  0  0  0  0  0  0  0
   -1.8297    0.2246   -1.3556 H   0  0  0  0  0  0  0  0  0  0  0  0
   -0.1043    1.7598   -0.6165 H   0  0  0  0  0  0  0  0  0  0  0  0
    1.1849    1.8418    0.7085 H   0  0  0  0  0  0  0  0  0  0  0  0
  1  2  1  0
  2  3  2  0
  3  4  1  0
  4  5  1  0
  5  6  2  0
  5  7  1  0
  7  8  1  0
  8  2  1  0
  1  9  1  0
  1 10  1  0
  1 11  1  0
  3 12  1  0
  4 13  1  0
  4 14  1  0
  8 15  1  0
  8 16  1  0
M  END
