
     RDKit          3D

 17 18  0  0  0  0  0  0  0  0999 V2000
    2.4821   -0.1461    0.1865 C   0  0  0  0  0  0  0  0  0  0  0  0
    1.0018    0.0861    0.1877 C   0  0  0  0  0  0  0  0  0  0  0  0
    0.2255   -0.9786    0.1142 C   0  0  0  0  0  0  0  0  0  0  0  0
   -1.2306   -0.8370    0.1102 C   0  0  0  0  0  0  0  0  0  0  0  0
   -1.9804   -0.2044   -0.9909 C   0  0  0  0  0  0  0  0  0  0  0  0
   -1.7502    0.5030    0.3587 C   0  0  0  0  0  0  0  0  0  0  0  0
   -0.8824    1.5835    0.2620 O   0  0  0  0  0  0  0  0  0  0  0  0
    0.4884    1.4501    0.2672 C   0  0  0  0  0  0  0  0  0  0  0  0
    1.2859    2.4350    0.3361 O   0  0  0  0  0  0  0  0  0  0  0  0
    2.8916   -0.1293    1.2034 H   0  0  0  0  0  0  0  0  0  0  0  0
    2.9842    0.6536   -0.4022 H   0  0  0  0  0  0  0  0  0  0  0  0
    2.7105   -1.0998   -0.2855 H   0  0  0  0  0  0  0  0  0  0  0  0
    0.6792   -1.9566    0.0571 H   0  0  0  0  0  0  0  0  0  0  0  0
   -1.7839   -1.6803    0.6170 H   0  0  0  0  0  0  0  0  0  0  0  0
   -1.4662    0.1815   -1.8823 H   0  0  0  0  0  0  0  0  0  0  0  0
   -3.0277   -0.4759   -1.1664 H   0  0  0  0  0  0  0  0  0  0  0  0
   -2.6277    0.6154    1.0272 H   0  0  0  0  0  0  0  0  0  0  0  0
  1  2  1  0
  2  3  2  0
  3  4  1  0
  4  5  1  0
  5  6  1  0
  6  7  1  0
  7  8  1  0
  8  9  2  0
  8  2  1  0
  6  4  1  0
  1 10  1  0
  1 11  1  0
  1 12  1  0
  3 13  1  0
  4 14  1  0
  5 15  1  0
  5 16  1  0
  6 17  1  0
M  END
