
     RDKit          3D

 23 24  0  0  0  0  0  0  0  0999 V2000
    2.1459   -1.4962    0.4131 C   0  0  0  0  0  0  0  0  0  0  0  0
    0.9734   -0.6363    0.0526 C   0  0  0  0  0  0  0  0  0  0  0  0
    0.9539    0.6800   -0.0517 C   0  0  0  0  0  0  0  0  0  0  0  0
    2.0946    1.6146    0.1653 C   0  0  0  0  0  0  0  0  0  0  0  0
   -0.4056    1.1570   -0.4303 C   0  0  0  0  0  0  0  0  0  0  0  0
   -1.2902   -0.0296   -0.1932 C   0  0  0  0  0  0  0  0  0  0  0  0
   -2.4160   -0.0184    0.7374 C   0  0  0  0  0  0  0  0  0  0  0  0
   -2.6569   -0.0613   -0.7637 C   0  0  0  0  0  0  0  0  0  0  0  0
   -0.3768   -1.2097   -0.2445 C   0  0  0  0  0  0  0  0  0  0  0  0
    2.4697   -2.1303   -0.4332 H   0  0  0  0  0  0  0  0  0  0  0  0
    2.9815   -0.8771    0.7829 H   0  0  0  0  0  0  0  0  0  0  0  0
    1.7787   -2.1473    1.2565 H   0  0  0  0  0  0  0  0  0  0  0  0
    2.6349    1.8171   -0.7910 H   0  0  0  0  0  0  0  0  0  0  0  0
    2.8537    1.1894    0.8517 H   0  0  0  0  0  0  0  0  0  0  0  0
    1.7163    2.5855    0.5476 H   0  0  0  0  0  0  0  0  0  0  0  0
   -0.3649    1.4020   -1.5106 H   0  0  0  0  0  0  0  0  0  0  0  0
   -0.6683    2.0305    0.1983 H   0  0  0  0  0  0  0  0  0  0  0  0
   -2.7534    0.8437    1.3109 H   0  0  0  0  0  0  0  0  0  0  0  0
   -2.6655   -0.9973    1.2301 H   0  0  0  0  0  0  0  0  0  0  0  0
   -2.9924   -0.9924   -1.2349 H   0  0  0  0  0  0  0  0  0  0  0  0
   -2.9959    0.9166   -1.2030 H   0  0  0  0  0  0  0  0  0  0  0  0
   -0.3956   -1.7073   -1.2491 H   0  0  0  0  0  0  0  0  0  0  0  0
   -0.6212   -1.9332    0.5589 H   0  0  0  0  0  0  0  0  0  0  0  0
  1  2  1  0
  2  3  2  0
  3  4  1  0
  3  5  1  0
  5  6  1  0
  6  7  1  0
  7  8  1  0
  6  9  1  0
  9  2  1  0
  8  6  1  0
  1 10  1  0
  1 11  1  0
  1 12  1  0
  4 13  1  0
  4 14  1  0
  4 15  1  0
  5 16  1  0
  5 17  1  0
  7 18  1  0
  7 19  1  0
  8 20  1  0
  8 21  1  0
  9 22  1  0
  9 23  1  0
M  END
