
     RDKit          3D

 23 23  0  0  0  0  0  0  0  0999 V2000
    2.9021    0.0130    0.1594 C   0  0  0  0  0  0  0  0  0  0  0  0
    1.4293    0.1040    0.3567 C   0  0  0  0  0  0  0  0  0  0  0  0
    0.8583    0.6709    1.3938 C   0  0  0  0  0  0  0  0  0  0  0  0
   -0.6296    0.5965    1.2926 C   0  0  0  0  0  0  0  0  0  0  0  0
   -0.9143   -0.0421   -0.0443 C   0  0  0  0  0  0  0  0  0  0  0  0
   -1.7284   -1.3262    0.1219 C   0  0  0  0  0  0  0  0  0  0  0  0
   -1.6404    0.9535   -0.9259 C   0  0  0  0  0  0  0  0  0  0  0  0
    0.4254   -0.4349   -0.5948 C   0  0  0  0  0  0  0  0  0  0  0  0
    0.6435    0.0114   -1.8782 O   0  0  0  0  0  0  0  0  0  0  0  0
    3.1721   -0.4491   -0.7964 H   0  0  0  0  0  0  0  0  0  0  0  0
    3.3759   -0.5604    0.9891 H   0  0  0  0  0  0  0  0  0  0  0  0
    3.2876    1.0741    0.2007 H   0  0  0  0  0  0  0  0  0  0  0  0
    1.3506    1.1433    2.2363 H   0  0  0  0  0  0  0  0  0  0  0  0
   -1.0034   -0.0661    2.0780 H   0  0  0  0  0  0  0  0  0  0  0  0
   -1.0230    1.6204    1.3819 H   0  0  0  0  0  0  0  0  0  0  0  0
   -2.6709   -1.1482    0.6436 H   0  0  0  0  0  0  0  0  0  0  0  0
   -1.8573   -1.7229   -0.9167 H   0  0  0  0  0  0  0  0  0  0  0  0
   -1.0445   -2.0299    0.6668 H   0  0  0  0  0  0  0  0  0  0  0  0
   -0.9516    1.6287   -1.4560 H   0  0  0  0  0  0  0  0  0  0  0  0
   -2.2454    1.5950   -0.2359 H   0  0  0  0  0  0  0  0  0  0  0  0
   -2.3588    0.4325   -1.5852 H   0  0  0  0  0  0  0  0  0  0  0  0
    0.5684   -1.5503   -0.6100 H   0  0  0  0  0  0  0  0  0  0  0  0
    0.0543   -0.5130   -2.4776 H   0  0  0  0  0  0  0  0  0  0  0  0
  1  2  1  0
  2  3  2  0
  3  4  1  0
  4  5  1  0
  5  6  1  0
  5  7  1  0
  5  8  1  0
  8  9  1  0
  8  2  1  0
  1 10  1  0
  1 11  1  0
  1 12  1  0
  3 13  1  0
  4 14  1  0
  4 15  1  0
  6 16  1  0
  6 17  1  0
  6 18  1  0
  7 19  1  0
  7 20  1  0
  7 21  1  0
  8 22  1  0
  9 23  1  0
M  END
