
     RDKit          3D

 19 19  0  0  0  0  0  0  0  0999 V2000
    2.5110   -0.4111    0.4185 C   0  0  0  0  0  0  0  0  0  0  0  0
    1.0719   -0.1703    0.1377 C   0  0  0  0  0  0  0  0  0  0  0  0
    0.3226   -1.2492    0.0724 C   0  0  0  0  0  0  0  0  0  0  0  0
   -1.0956   -1.4270   -0.1764 C   0  0  0  0  0  0  0  0  0  0  0  0
   -1.9812   -0.3759    0.2754 C   0  0  0  0  0  0  0  0  0  0  0  0
   -1.8418    0.9392    0.1959 C   0  0  0  0  0  0  0  0  0  0  0  0
   -0.7240    1.6656   -0.3860 C   0  0  0  0  0  0  0  0  0  0  0  0
    0.6043    1.1877   -0.0404 C   0  0  0  0  0  0  0  0  0  0  0  0
    1.4696    2.0811    0.1273 O   0  0  0  0  0  0  0  0  0  0  0  0
    2.6184   -0.9064    1.3910 H   0  0  0  0  0  0  0  0  0  0  0  0
    3.0555    0.5608    0.3526 H   0  0  0  0  0  0  0  0  0  0  0  0
    2.8900   -1.0747   -0.3862 H   0  0  0  0  0  0  0  0  0  0  0  0
    0.8707   -2.1664    0.2335 H   0  0  0  0  0  0  0  0  0  0  0  0
   -1.2272   -1.5270   -1.2953 H   0  0  0  0  0  0  0  0  0  0  0  0
   -1.4141   -2.4359    0.2085 H   0  0  0  0  0  0  0  0  0  0  0  0
   -2.8962   -0.7352    0.7502 H   0  0  0  0  0  0  0  0  0  0  0  0
   -2.6370    1.5501    0.6024 H   0  0  0  0  0  0  0  0  0  0  0  0
   -0.7970    2.7481   -0.0678 H   0  0  0  0  0  0  0  0  0  0  0  0
   -0.8000    1.7464   -1.5118 H   0  0  0  0  0  0  0  0  0  0  0  0
  1  2  1  0
  2  3  2  0
  3  4  1  0
  4  5  1  0
  5  6  2  0
  6  7  1  0
  7  8  1  0
  8  9  2  0
  8  2  1  0
  1 10  1  0
  1 11  1  0
  1 12  1  0
  3 13  1  0
  4 14  1  0
  4 15  1  0
  5 16  1  0
  6 17  1  0
  7 18  1  0
  7 19  1  0
M  END
