
     RDKit          3D

 21 21  0  0  0  0  0  0  0  0999 V2000
    2.6522   -0.7646    0.1247 C   0  0  0  0  0  0  0  0  0  0  0  0
    1.3434   -0.0599    0.1243 C   0  0  0  0  0  0  0  0  0  0  0  0
    1.3061    1.2436    0.3360 C   0  0  0  0  0  0  0  0  0  0  0  0
    0.0286    1.9378    0.3366 C   0  0  0  0  0  0  0  0  0  0  0  0
   -0.0380    3.1613    0.6319 O   0  0  0  0  0  0  0  0  0  0  0  0
   -1.2203    1.2487   -0.0029 C   0  0  0  0  0  0  0  0  0  0  0  0
   -1.0607   -0.1256   -0.5237 C   0  0  0  0  0  0  0  0  0  0  0  0
   -2.2797   -0.9791   -0.1410 C   0  0  0  0  0  0  0  0  0  0  0  0
    0.1479   -0.8612   -0.1146 C   0  0  0  0  0  0  0  0  0  0  0  0
    3.4902   -0.1058   -0.1855 H   0  0  0  0  0  0  0  0  0  0  0  0
    2.6068   -1.6256   -0.5780 H   0  0  0  0  0  0  0  0  0  0  0  0
    2.8502   -1.2171    1.1392 H   0  0  0  0  0  0  0  0  0  0  0  0
    2.2149    1.7999    0.5088 H   0  0  0  0  0  0  0  0  0  0  0  0
   -1.8906    1.2260    0.9055 H   0  0  0  0  0  0  0  0  0  0  0  0
   -1.7681    1.9113   -0.7336 H   0  0  0  0  0  0  0  0  0  0  0  0
   -1.0851   -0.0720   -1.6495 H   0  0  0  0  0  0  0  0  0  0  0  0
   -1.9915   -2.0444   -0.0048 H   0  0  0  0  0  0  0  0  0  0  0  0
   -2.5989   -0.6220    0.8614 H   0  0  0  0  0  0  0  0  0  0  0  0
   -3.0621   -0.9401   -0.8992 H   0  0  0  0  0  0  0  0  0  0  0  0
   -0.0539   -1.5054    0.7899 H   0  0  0  0  0  0  0  0  0  0  0  0
    0.4086   -1.6059   -0.9255 H   0  0  0  0  0  0  0  0  0  0  0  0
  1  2  1  0
  2  3  2  0
  3  4  1  0
  4  5  2  0
  4  6  1  0
  6  7  1  0
  7  8  1  0
  7  9  1  0
  9  2  1  0
  1 10  1  0
  1 11  1  0
  1 12  1  0
  3 13  1  0
  6 14  1  0
  6 15  1  0
  7 16  1  0
  8 17  1  0
  8 18  1  0
  8 19  1  0
  9 20  1  0
  9 21  1  0
M  END
