
     RDKit          3D

 19 20  0  0  0  0  0  0  0  0999 V2000
    2.2344    1.0238    0.2794 C   0  0  0  0  0  0  0  0  0  0  0  0
    1.1418    0.0506    0.0742 C   0  0  0  0  0  0  0  0  0  0  0  0
   -0.1292    0.3777    0.1583 C   0  0  0  0  0  0  0  0  0  0  0  0
   -1.2517    1.3273    0.3772 C   0  0  0  0  0  0  0  0  0  0  0  0
   -2.1169    0.9348   -0.6649 O   0  0  0  0  0  0  0  0  0  0  0  0
   -2.1616   -0.4401   -0.5916 C   0  0  0  0  0  0  0  0  0  0  0  0
   -0.8669   -0.9229   -0.0938 C   0  0  0  0  0  0  0  0  0  0  0  0
   -0.0110   -1.5330   -0.9729 O   0  0  0  0  0  0  0  0  0  0  0  0
    1.2326   -1.4203   -0.2786 C   0  0  0  0  0  0  0  0  0  0  0  0
    2.1775    1.4326    1.3211 H   0  0  0  0  0  0  0  0  0  0  0  0
    2.1915    1.8747   -0.4283 H   0  0  0  0  0  0  0  0  0  0  0  0
    3.2283    0.5451    0.1672 H   0  0  0  0  0  0  0  0  0  0  0  0
   -0.9392    2.3813    0.2434 H   0  0  0  0  0  0  0  0  0  0  0  0
   -1.7122    1.1031    1.3460 H   0  0  0  0  0  0  0  0  0  0  0  0
   -2.9518   -0.7608    0.1480 H   0  0  0  0  0  0  0  0  0  0  0  0
   -2.4602   -0.8971   -1.5714 H   0  0  0  0  0  0  0  0  0  0  0  0
   -0.9171   -1.5040    0.8543 H   0  0  0  0  0  0  0  0  0  0  0  0
    1.2478   -2.0556    0.6038 H   0  0  0  0  0  0  0  0  0  0  0  0
    2.0638   -1.5174   -0.9714 H   0  0  0  0  0  0  0  0  0  0  0  0
  1  2  1  0
  2  3  2  0
  3  4  1  0
  4  5  1  0
  5  6  1  0
  6  7  1  0
  7  8  1  0
  8  9  1  0
  9  2  1  0
  7  3  1  0
  1 10  1  0
  1 11  1  0
  1 12  1  0
  4 13  1  0
  4 14  1  0
  6 15  1  0
  6 16  1  0
  7 17  1  0
  9 18  1  0
  9 19  1  0
M  END
