
     RDKit          3D

 20 21  0  0  0  0  0  0  0  0999 V2000
    2.2577    1.0234    0.5558 C   0  0  0  0  0  0  0  0  0  0  0  0
    1.0930    0.2160    0.1234 C   0  0  0  0  0  0  0  0  0  0  0  0
   -0.1130    0.6763   -0.1137 C   0  0  0  0  0  0  0  0  0  0  0  0
   -1.3713    1.4800   -0.3072 C   0  0  0  0  0  0  0  0  0  0  0  0
   -2.1899    0.1614   -0.1652 C   0  0  0  0  0  0  0  0  0  0  0  0
   -0.9265   -0.5040   -0.6188 C   0  0  0  0  0  0  0  0  0  0  0  0
   -0.3451   -1.6059    0.2139 C   0  0  0  0  0  0  0  0  0  0  0  0
    1.1541   -1.2895   -0.0551 C   0  0  0  0  0  0  0  0  0  0  0  0
    1.9842    1.9977    0.9683 H   0  0  0  0  0  0  0  0  0  0  0  0
    2.7731    0.4275    1.3653 H   0  0  0  0  0  0  0  0  0  0  0  0
    3.0247    1.1133   -0.2461 H   0  0  0  0  0  0  0  0  0  0  0  0
   -1.6432    2.1394    0.5248 H   0  0  0  0  0  0  0  0  0  0  0  0
   -1.5073    1.9288   -1.2902 H   0  0  0  0  0  0  0  0  0  0  0  0
   -2.4716   -0.0517    0.8782 H   0  0  0  0  0  0  0  0  0  0  0  0
   -2.9970    0.0870   -0.9227 H   0  0  0  0  0  0  0  0  0  0  0  0
   -0.8252   -0.6112   -1.7122 H   0  0  0  0  0  0  0  0  0  0  0  0
   -0.5324   -1.3922    1.2685 H   0  0  0  0  0  0  0  0  0  0  0  0
   -0.5961   -2.6075   -0.1226 H   0  0  0  0  0  0  0  0  0  0  0  0
    1.7972   -1.6690    0.7337 H   0  0  0  0  0  0  0  0  0  0  0  0
    1.4348   -1.5197   -1.0782 H   0  0  0  0  0  0  0  0  0  0  0  0
  1  2  1  0
  2  3  2  0
  3  4  1  0
  4  5  1  0
  5  6  1  0
  6  7  1  0
  7  8  1  0
  8  2  1  0
  6  3  1  0
  1  9  1  0
  1 10  1  0
  1 11  1  0
  4 12  1  0
  4 13  1  0
  5 14  1  0
  5 15  1  0
  6 16  1  0
  7 17  1  0
  7 18  1  0
  8 19  1  0
  8 20  1  0
M  END
