
     RDKit          3D

 23 23  0  0  0  0  0  0  0  0999 V2000
   -2.2561   -1.2494    0.5857 C   0  0  0  0  0  0  0  0  0  0  0  0
   -1.2349   -0.3640   -0.0348 C   0  0  0  0  0  0  0  0  0  0  0  0
   -1.5926    0.9054   -0.1650 C   0  0  0  0  0  0  0  0  0  0  0  0
   -0.7515    1.9845   -0.7532 C   0  0  0  0  0  0  0  0  0  0  0  0
    0.5074    2.0426   -0.0116 C   0  0  0  0  0  0  0  0  0  0  0  0
    1.2300    1.0246    0.4208 C   0  0  0  0  0  0  0  0  0  0  0  0
    1.1373   -0.4309    0.3755 C   0  0  0  0  0  0  0  0  0  0  0  0
    2.4468   -1.0787   -0.0890 C   0  0  0  0  0  0  0  0  0  0  0  0
    0.0383   -1.0094   -0.4234 C   0  0  0  0  0  0  0  0  0  0  0  0
   -1.9793   -2.3240    0.4569 H   0  0  0  0  0  0  0  0  0  0  0  0
   -3.2254   -1.0794    0.0844 H   0  0  0  0  0  0  0  0  0  0  0  0
   -2.3247   -1.0853    1.6765 H   0  0  0  0  0  0  0  0  0  0  0  0
   -2.5803    1.1394    0.1954 H   0  0  0  0  0  0  0  0  0  0  0  0
   -0.5190    1.6876   -1.8116 H   0  0  0  0  0  0  0  0  0  0  0  0
   -1.2895    2.9523   -0.7724 H   0  0  0  0  0  0  0  0  0  0  0  0
    0.8858    3.0518    0.2050 H   0  0  0  0  0  0  0  0  0  0  0  0
    2.1336    1.3711    0.9509 H   0  0  0  0  0  0  0  0  0  0  0  0
    1.0144   -0.7907    1.4397 H   0  0  0  0  0  0  0  0  0  0  0  0
    2.4890   -1.1525   -1.1945 H   0  0  0  0  0  0  0  0  0  0  0  0
    3.3148   -0.5612    0.3543 H   0  0  0  0  0  0  0  0  0  0  0  0
    2.3890   -2.1462    0.2745 H   0  0  0  0  0  0  0  0  0  0  0  0
   -0.0123   -2.0899   -0.2485 H   0  0  0  0  0  0  0  0  0  0  0  0
    0.1793   -0.7976   -1.5157 H   0  0  0  0  0  0  0  0  0  0  0  0
  1  2  1  0
  2  3  2  0
  3  4  1  0
  4  5  1  0
  5  6  2  0
  6  7  1  0
  7  8  1  0
  7  9  1  0
  9  2  1  0
  1 10  1  0
  1 11  1  0
  1 12  1  0
  3 13  1  0
  4 14  1  0
  4 15  1  0
  5 16  1  0
  6 17  1  0
  7 18  1  0
  8 19  1  0
  8 20  1  0
  8 21  1  0
  9 22  1  0
  9 23  1  0
M  END
