
     RDKit          3D

 21 22  0  0  0  0  0  0  0  0999 V2000
    2.3954   -0.7176   -0.0646 C   0  0  0  0  0  0  0  0  0  0  0  0
    0.9608   -0.3025    0.1286 C   0  0  0  0  0  0  0  0  0  0  0  0
    0.1551   -1.3671    0.1859 C   0  0  0  0  0  0  0  0  0  0  0  0
   -1.3329   -1.3545    0.3696 C   0  0  0  0  0  0  0  0  0  0  0  0
   -1.8739   -0.3041   -0.5207 C   0  0  0  0  0  0  0  0  0  0  0  0
   -2.8119    0.6176   -0.2455 O   0  0  0  0  0  0  0  0  0  0  0  0
   -1.6326    1.0122    0.2462 C   0  0  0  0  0  0  0  0  0  0  0  0
   -0.5034    1.6516   -0.4548 C   0  0  0  0  0  0  0  0  0  0  0  0
    0.7600    1.1420    0.2113 C   0  0  0  0  0  0  0  0  0  0  0  0
    2.6378   -1.5881    0.6020 H   0  0  0  0  0  0  0  0  0  0  0  0
    3.0935    0.1122    0.1065 H   0  0  0  0  0  0  0  0  0  0  0  0
    2.4937   -1.0386   -1.1147 H   0  0  0  0  0  0  0  0  0  0  0  0
    0.5873   -2.3437    0.0943 H   0  0  0  0  0  0  0  0  0  0  0  0
   -1.5318   -1.1101    1.4461 H   0  0  0  0  0  0  0  0  0  0  0  0
   -1.7328   -2.3665    0.1590 H   0  0  0  0  0  0  0  0  0  0  0  0
   -1.5544   -0.3522   -1.5804 H   0  0  0  0  0  0  0  0  0  0  0  0
   -1.5317    0.9667    1.3452 H   0  0  0  0  0  0  0  0  0  0  0  0
   -0.5019    2.7494   -0.3379 H   0  0  0  0  0  0  0  0  0  0  0  0
   -0.4446    1.4024   -1.5441 H   0  0  0  0  0  0  0  0  0  0  0  0
    1.6032    1.6660   -0.2987 H   0  0  0  0  0  0  0  0  0  0  0  0
    0.7649    1.5250    1.2668 H   0  0  0  0  0  0  0  0  0  0  0  0
  1  2  1  0
  2  3  2  0
  3  4  1  0
  4  5  1  0
  5  6  1  0
  6  7  1  0
  7  8  1  0
  8  9  1  0
  9  2  1  0
  7  5  1  0
  1 10  1  0
  1 11  1  0
  1 12  1  0
  3 13  1  0
  4 14  1  0
  4 15  1  0
  5 16  1  0
  7 17  1  0
  8 18  1  0
  8 19  1  0
  9 20  1  0
  9 21  1  0
M  END
