
     RDKit          3D

 17 17  0  0  0  0  0  0  0  0999 V2000
    2.3855   -0.3891   -0.0529 C   0  0  0  0  0  0  0  0  0  0  0  0
    0.9166   -0.0881   -0.0716 C   0  0  0  0  0  0  0  0  0  0  0  0
    0.1400   -1.1576   -0.1791 C   0  0  0  0  0  0  0  0  0  0  0  0
   -1.3545   -1.0817   -0.2164 C   0  0  0  0  0  0  0  0  0  0  0  0
   -1.7483   -0.2229    0.7732 O   0  0  0  0  0  0  0  0  0  0  0  0
   -1.9449    1.0744    0.3877 C   0  0  0  0  0  0  0  0  0  0  0  0
   -0.7473    1.7960    0.1638 O   0  0  0  0  0  0  0  0  0  0  0  0
    0.5761    1.3301    0.0312 C   0  0  0  0  0  0  0  0  0  0  0  0
    1.4928    2.1695    0.0008 O   0  0  0  0  0  0  0  0  0  0  0  0
    2.6377   -0.6684    1.0019 H   0  0  0  0  0  0  0  0  0  0  0  0
    2.9298    0.5244   -0.2791 H   0  0  0  0  0  0  0  0  0  0  0  0
    2.6189   -1.2441   -0.7073 H   0  0  0  0  0  0  0  0  0  0  0  0
    0.6171   -2.1126   -0.2411 H   0  0  0  0  0  0  0  0  0  0  0  0
   -1.8166   -2.0758   -0.1860 H   0  0  0  0  0  0  0  0  0  0  0  0
   -1.6012   -0.6364   -1.2096 H   0  0  0  0  0  0  0  0  0  0  0  0
   -2.4515    1.5996    1.2490 H   0  0  0  0  0  0  0  0  0  0  0  0
   -2.6500    1.1827   -0.4646 H   0  0  0  0  0  0  0  0  0  0  0  0
  1  2  1  0
  2  3  2  0
  3  4  1  0
  4  5  1  0
  5  6  1  0
  6  7  1  0
  7  8  1  0
  8  9  2  0
  8  2  1  0
  1 10  1  0
  1 11  1  0
  1 12  1  0
  3 13  1  0
  4 14  1  0
  4 15  1  0
  6 16  1  0
  6 17  1  0
M  END
