
     RDKit          3D

 21 22  0  0  0  0  0  0  0  0999 V2000
   -2.3359   -1.2925   -0.3893 C   0  0  0  0  0  0  0  0  0  0  0  0
   -1.2501   -0.2905   -0.2983 C   0  0  0  0  0  0  0  0  0  0  0  0
   -1.5352    0.9738   -0.0303 C   0  0  0  0  0  0  0  0  0  0  0  0
   -0.3345    1.8836    0.0644 C   0  0  0  0  0  0  0  0  0  0  0  0
    0.8916    1.0742   -0.2466 C   0  0  0  0  0  0  0  0  0  0  0  0
    0.7221    0.2477   -1.3617 O   0  0  0  0  0  0  0  0  0  0  0  0
    0.1602   -0.7094   -0.5089 C   0  0  0  0  0  0  0  0  0  0  0  0
    1.0582   -0.1517    0.5819 C   0  0  0  0  0  0  0  0  0  0  0  0
    2.4554   -0.7216    0.4320 C   0  0  0  0  0  0  0  0  0  0  0  0
   -1.9520   -2.2547    0.0173 H   0  0  0  0  0  0  0  0  0  0  0  0
   -2.5941   -1.4143   -1.4569 H   0  0  0  0  0  0  0  0  0  0  0  0
   -3.2173   -0.9327    0.2191 H   0  0  0  0  0  0  0  0  0  0  0  0
   -2.5267    1.3829    0.1193 H   0  0  0  0  0  0  0  0  0  0  0  0
   -0.2301    2.3075    1.0760 H   0  0  0  0  0  0  0  0  0  0  0  0
   -0.4189    2.6840   -0.6844 H   0  0  0  0  0  0  0  0  0  0  0  0
    1.8090    1.6993   -0.3704 H   0  0  0  0  0  0  0  0  0  0  0  0
    0.3105   -1.7520   -0.7778 H   0  0  0  0  0  0  0  0  0  0  0  0
    0.6482   -0.1621    1.5886 H   0  0  0  0  0  0  0  0  0  0  0  0
    2.3879   -1.8060    0.5744 H   0  0  0  0  0  0  0  0  0  0  0  0
    2.7681   -0.5320   -0.6163 H   0  0  0  0  0  0  0  0  0  0  0  0
    3.1836   -0.2334    1.0930 H   0  0  0  0  0  0  0  0  0  0  0  0
  1  2  1  0
  2  3  2  0
  3  4  1  0
  4  5  1  0
  5  6  1  0
  6  7  1  0
  7  8  1  0
  8  9  1  0
  7  2  1  0
  8  5  1  0
  1 10  1  0
  1 11  1  0
  1 12  1  0
  3 13  1  0
  4 14  1  0
  4 15  1  0
  5 16  1  0
  7 17  1  0
  8 18  1  0
  9 19  1  0
  9 20  1  0
  9 21  1  0
M  END
