
     RDKit          3D

 21 22  0  0  0  0  0  0  0  0999 V2000
   -2.2268   -0.5505    0.3485 C   0  0  0  0  0  0  0  0  0  0  0  0
   -0.7928   -0.3776   -0.0145 C   0  0  0  0  0  0  0  0  0  0  0  0
   -0.0605    0.7310   -0.0874 C   0  0  0  0  0  0  0  0  0  0  0  0
   -0.6214    2.1021    0.2087 C   0  0  0  0  0  0  0  0  0  0  0  0
    1.2867    0.3543   -0.4461 C   0  0  0  0  0  0  0  0  0  0  0  0
    2.0463   -0.2087    0.7656 C   0  0  0  0  0  0  0  0  0  0  0  0
    1.9015    0.0606   -1.5575 O   0  0  0  0  0  0  0  0  0  0  0  0
    0.8575   -0.7127   -1.5006 C   0  0  0  0  0  0  0  0  0  0  0  0
    0.1537   -1.4959   -0.4351 C   0  0  0  0  0  0  0  0  0  0  0  0
   -2.4421   -0.0870    1.3569 H   0  0  0  0  0  0  0  0  0  0  0  0
   -2.8716   -0.0955   -0.4326 H   0  0  0  0  0  0  0  0  0  0  0  0
   -2.4177   -1.6315    0.4962 H   0  0  0  0  0  0  0  0  0  0  0  0
   -0.8191    2.6135   -0.7425 H   0  0  0  0  0  0  0  0  0  0  0  0
   -1.4750    2.0174    0.8827 H   0  0  0  0  0  0  0  0  0  0  0  0
    0.2061    2.6481    0.7384 H   0  0  0  0  0  0  0  0  0  0  0  0
    2.6356   -1.0969    0.5258 H   0  0  0  0  0  0  0  0  0  0  0  0
    1.4401   -0.3285    1.6566 H   0  0  0  0  0  0  0  0  0  0  0  0
    2.8016    0.5985    1.0077 H   0  0  0  0  0  0  0  0  0  0  0  0
    0.0674   -0.3616   -2.2444 H   0  0  0  0  0  0  0  0  0  0  0  0
    0.7541   -1.8686    0.3792 H   0  0  0  0  0  0  0  0  0  0  0  0
   -0.4236   -2.3107   -0.9056 H   0  0  0  0  0  0  0  0  0  0  0  0
  1  2  1  0
  2  3  2  0
  3  4  1  0
  3  5  1  0
  5  6  1  0
  5  7  1  0
  7  8  1  0
  8  9  1  0
  9  2  1  0
  8  5  1  0
  1 10  1  0
  1 11  1  0
  1 12  1  0
  4 13  1  0
  4 14  1  0
  4 15  1  0
  6 16  1  0
  6 17  1  0
  6 18  1  0
  8 19  1  0
  9 20  1  0
  9 21  1  0
M  END
