
     RDKit          3D

 21 21  0  0  0  0  0  0  0  0999 V2000
   -2.7608    0.1747    0.0913 C   0  0  0  0  0  0  0  0  0  0  0  0
   -1.3186    0.1392   -0.2135 C   0  0  0  0  0  0  0  0  0  0  0  0
   -0.7544   -0.7026   -1.0651 C   0  0  0  0  0  0  0  0  0  0  0  0
    0.7170   -0.5761   -1.2322 C   0  0  0  0  0  0  0  0  0  0  0  0
    1.3504   -0.5642    0.1387 C   0  0  0  0  0  0  0  0  0  0  0  0
    2.7669   -0.1146    0.0898 C   0  0  0  0  0  0  0  0  0  0  0  0
    3.1354    0.5686   -0.8436 O   0  0  0  0  0  0  0  0  0  0  0  0
    0.6277    0.2400    1.1598 C   0  0  0  0  0  0  0  0  0  0  0  0
   -0.4084    1.0933    0.4601 C   0  0  0  0  0  0  0  0  0  0  0  0
   -2.9555    0.3633    1.1874 H   0  0  0  0  0  0  0  0  0  0  0  0
   -3.2398    0.9820   -0.4707 H   0  0  0  0  0  0  0  0  0  0  0  0
   -3.2552   -0.8234   -0.0936 H   0  0  0  0  0  0  0  0  0  0  0  0
   -1.3169   -1.4440   -1.6142 H   0  0  0  0  0  0  0  0  0  0  0  0
    1.1419   -1.4731   -1.7679 H   0  0  0  0  0  0  0  0  0  0  0  0
    0.9987    0.3143   -1.8311 H   0  0  0  0  0  0  0  0  0  0  0  0
    1.3836   -1.6454    0.4651 H   0  0  0  0  0  0  0  0  0  0  0  0
    3.4239   -0.4230    0.9076 H   0  0  0  0  0  0  0  0  0  0  0  0
    1.2890    0.8608    1.7945 H   0  0  0  0  0  0  0  0  0  0  0  0
    0.0469   -0.4512    1.8326 H   0  0  0  0  0  0  0  0  0  0  0  0
   -0.9248    1.6709    1.2516 H   0  0  0  0  0  0  0  0  0  0  0  0
    0.0530    1.8105   -0.2466 H   0  0  0  0  0  0  0  0  0  0  0  0
  1  2  1  0
  2  3  2  0
  3  4  1  0
  4  5  1  0
  5  6  1  0
  6  7  2  0
  5  8  1  0
  8  9  1  0
  9  2  1  0
  1 10  1  0
  1 11  1  0
  1 12  1  0
  3 13  1  0
  4 14  1  0
  4 15  1  0
  5 16  1  0
  6 17  1  0
  8 18  1  0
  8 19  1  0
  9 20  1  0
  9 21  1  0
M  END
