
     RDKit          3D

 21 22  0  0  0  0  0  0  0  0999 V2000
    2.9963    0.0625   -0.0530 C   0  0  0  0  0  0  0  0  0  0  0  0
    1.5088    0.0542   -0.0564 C   0  0  0  0  0  0  0  0  0  0  0  0
    0.7817   -0.1646   -1.1374 C   0  0  0  0  0  0  0  0  0  0  0  0
   -0.6714    0.1186   -1.0652 C   0  0  0  0  0  0  0  0  0  0  0  0
   -0.7925    1.3292   -0.3638 O   0  0  0  0  0  0  0  0  0  0  0  0
   -0.6717    0.6199    0.8213 C   0  0  0  0  0  0  0  0  0  0  0  0
    0.7372    0.3026    1.2114 C   0  0  0  0  0  0  0  0  0  0  0  0
   -1.3148   -0.5526    0.1332 C   0  0  0  0  0  0  0  0  0  0  0  0
   -2.8049   -0.3824    0.0812 C   0  0  0  0  0  0  0  0  0  0  0  0
    3.3372   -0.3366   -1.0295 H   0  0  0  0  0  0  0  0  0  0  0  0
    3.4076    1.0904    0.0632 H   0  0  0  0  0  0  0  0  0  0  0  0
    3.4096   -0.5822    0.7666 H   0  0  0  0  0  0  0  0  0  0  0  0
    1.2215   -0.5357   -2.0437 H   0  0  0  0  0  0  0  0  0  0  0  0
   -1.2341    0.0445   -1.9929 H   0  0  0  0  0  0  0  0  0  0  0  0
   -1.2994    1.0825    1.6105 H   0  0  0  0  0  0  0  0  0  0  0  0
    0.7932   -0.6792    1.7683 H   0  0  0  0  0  0  0  0  0  0  0  0
    1.2019    1.0567    1.8473 H   0  0  0  0  0  0  0  0  0  0  0  0
   -0.9302   -1.5379    0.3999 H   0  0  0  0  0  0  0  0  0  0  0  0
   -3.1455    0.5786    0.5423 H   0  0  0  0  0  0  0  0  0  0  0  0
   -3.3433   -1.2085    0.6118 H   0  0  0  0  0  0  0  0  0  0  0  0
   -3.1871   -0.3598   -0.9671 H   0  0  0  0  0  0  0  0  0  0  0  0
  1  2  1  0
  2  3  2  0
  3  4  1  0
  4  5  1  0
  5  6  1  0
  6  7  1  0
  6  8  1  0
  8  9  1  0
  7  2  1  0
  8  4  1  0
  1 10  1  0
  1 11  1  0
  1 12  1  0
  3 13  1  0
  4 14  1  0
  6 15  1  0
  7 16  1  0
  7 17  1  0
  8 18  1  0
  9 19  1  0
  9 20  1  0
  9 21  1  0
M  END
