
     RDKit          3D

 23 23  0  0  0  0  0  0  0  0999 V2000
    2.4086   -0.3564   -0.2860 C   0  0  0  0  0  0  0  0  0  0  0  0
    0.9317   -0.4975   -0.2776 C   0  0  0  0  0  0  0  0  0  0  0  0
    0.3944   -1.6743   -0.1076 C   0  0  0  0  0  0  0  0  0  0  0  0
   -1.0842   -1.8131   -0.0996 C   0  0  0  0  0  0  0  0  0  0  0  0
   -1.8038   -0.6606    0.5138 C   0  0  0  0  0  0  0  0  0  0  0  0
   -1.0487    0.6228    0.5605 C   0  0  0  0  0  0  0  0  0  0  0  0
   -1.9529    1.6497    0.2017 O   0  0  0  0  0  0  0  0  0  0  0  0
    0.0651    0.6775   -0.4594 C   0  0  0  0  0  0  0  0  0  0  0  0
    0.7971    1.9735   -0.4051 C   0  0  0  0  0  0  0  0  0  0  0  0
    2.6828    0.2203   -1.1846 H   0  0  0  0  0  0  0  0  0  0  0  0
    2.9039   -1.3422   -0.3065 H   0  0  0  0  0  0  0  0  0  0  0  0
    2.6967    0.1462    0.6587 H   0  0  0  0  0  0  0  0  0  0  0  0
    1.0152   -2.5504    0.0268 H   0  0  0  0  0  0  0  0  0  0  0  0
   -1.4189   -2.0041   -1.1551 H   0  0  0  0  0  0  0  0  0  0  0  0
   -1.3193   -2.7613    0.4555 H   0  0  0  0  0  0  0  0  0  0  0  0
   -2.7928   -0.5576   -0.0203 H   0  0  0  0  0  0  0  0  0  0  0  0
   -2.0611   -0.9475    1.5708 H   0  0  0  0  0  0  0  0  0  0  0  0
   -0.6878    0.8887    1.5709 H   0  0  0  0  0  0  0  0  0  0  0  0
   -2.3695    1.3290   -0.6431 H   0  0  0  0  0  0  0  0  0  0  0  0
   -0.4410    0.6246   -1.4675 H   0  0  0  0  0  0  0  0  0  0  0  0
    1.1437    2.2996   -1.4068 H   0  0  0  0  0  0  0  0  0  0  0  0
    1.7290    1.9208    0.2244 H   0  0  0  0  0  0  0  0  0  0  0  0
    0.2120    2.8122    0.0123 H   0  0  0  0  0  0  0  0  0  0  0  0
  1  2  1  0
  2  3  2  0
  3  4  1  0
  4  5  1  0
  5  6  1  0
  6  7  1  0
  6  8  1  0
  8  9  1  0
  8  2  1  0
  1 10  1  0
  1 11  1  0
  1 12  1  0
  3 13  1  0
  4 14  1  0
  4 15  1  0
  5 16  1  0
  5 17  1  0
  6 18  1  0
  7 19  1  0
  8 20  1  0
  9 21  1  0
  9 22  1  0
  9 23  1  0
M  END
