
     RDKit          3D

 19 19  0  0  0  0  0  0  0  0999 V2000
    2.2797    0.0060   -0.0092 C   0  0  0  0  0  0  0  0  0  0  0  0
    0.8106   -0.1229   -0.1602 C   0  0  0  0  0  0  0  0  0  0  0  0
    0.2335   -0.9404   -1.0241 C   0  0  0  0  0  0  0  0  0  0  0  0
   -1.2315   -0.7962   -0.8903 C   0  0  0  0  0  0  0  0  0  0  0  0
   -1.3532   -0.4402    0.5713 C   0  0  0  0  0  0  0  0  0  0  0  0
   -0.9479   -1.4939    1.3545 O   0  0  0  0  0  0  0  0  0  0  0  0
   -0.2424    0.6238    0.6264 C   0  0  0  0  0  0  0  0  0  0  0  0
   -0.6488    1.8659   -0.0526 C   0  0  0  0  0  0  0  0  0  0  0  0
   -0.9283    2.8843    0.5946 O   0  0  0  0  0  0  0  0  0  0  0  0
    2.6880   -0.9380    0.3887 H   0  0  0  0  0  0  0  0  0  0  0  0
    2.7169    0.2461   -1.0185 H   0  0  0  0  0  0  0  0  0  0  0  0
    2.4930    0.8464    0.6567 H   0  0  0  0  0  0  0  0  0  0  0  0
    0.6917   -1.6281   -1.7398 H   0  0  0  0  0  0  0  0  0  0  0  0
   -1.7883   -1.7118   -1.1591 H   0  0  0  0  0  0  0  0  0  0  0  0
   -1.5292    0.0703   -1.5252 H   0  0  0  0  0  0  0  0  0  0  0  0
   -2.3295   -0.0141    0.8349 H   0  0  0  0  0  0  0  0  0  0  0  0
   -0.2758   -1.2271    2.0340 H   0  0  0  0  0  0  0  0  0  0  0  0
    0.0836    0.8212    1.6498 H   0  0  0  0  0  0  0  0  0  0  0  0
   -0.7222    1.9488   -1.1320 H   0  0  0  0  0  0  0  0  0  0  0  0
  1  2  1  0
  2  3  2  0
  3  4  1  0
  4  5  1  0
  5  6  1  0
  5  7  1  0
  7  8  1  0
  8  9  2  0
  7  2  1  0
  1 10  1  0
  1 11  1  0
  1 12  1  0
  3 13  1  0
  4 14  1  0
  4 15  1  0
  5 16  1  0
  6 17  1  0
  7 18  1  0
  8 19  1  0
M  END
