
     RDKit          3D

 21 22  0  0  0  0  0  0  0  0999 V2000
    2.1645    0.8382    0.6675 C   0  0  0  0  0  0  0  0  0  0  0  0
    0.9949   -0.0225    0.2841 C   0  0  0  0  0  0  0  0  0  0  0  0
    0.3370   -0.7559    1.1647 C   0  0  0  0  0  0  0  0  0  0  0  0
   -0.7677   -1.5399    0.6752 C   0  0  0  0  0  0  0  0  0  0  0  0
   -2.0638   -1.3802    0.6092 O   0  0  0  0  0  0  0  0  0  0  0  0
   -1.5122   -0.4615   -0.1572 C   0  0  0  0  0  0  0  0  0  0  0  0
   -1.5911    0.9268    0.4397 C   0  0  0  0  0  0  0  0  0  0  0  0
   -0.7643   -0.5133   -1.4327 C   0  0  0  0  0  0  0  0  0  0  0  0
    0.6336    0.0151   -1.1687 C   0  0  0  0  0  0  0  0  0  0  0  0
    3.0193    0.4864    0.0213 H   0  0  0  0  0  0  0  0  0  0  0  0
    1.9044    1.8884    0.4583 H   0  0  0  0  0  0  0  0  0  0  0  0
    2.4292    0.6842    1.7370 H   0  0  0  0  0  0  0  0  0  0  0  0
    0.6367   -0.7453    2.1871 H   0  0  0  0  0  0  0  0  0  0  0  0
   -0.4195   -2.4614    0.1144 H   0  0  0  0  0  0  0  0  0  0  0  0
   -1.4256    1.6991   -0.3397 H   0  0  0  0  0  0  0  0  0  0  0  0
   -2.6768    1.0585    0.7321 H   0  0  0  0  0  0  0  0  0  0  0  0
   -0.9542    1.0641    1.3230 H   0  0  0  0  0  0  0  0  0  0  0  0
   -0.7404   -1.5253   -1.8976 H   0  0  0  0  0  0  0  0  0  0  0  0
   -1.2573    0.1569   -2.1692 H   0  0  0  0  0  0  0  0  0  0  0  0
    1.3854   -0.5044   -1.7915 H   0  0  0  0  0  0  0  0  0  0  0  0
    0.6678    1.0921   -1.4570 H   0  0  0  0  0  0  0  0  0  0  0  0
  1  2  1  0
  2  3  2  0
  3  4  1  0
  4  5  1  0
  5  6  1  0
  6  7  1  0
  6  8  1  0
  8  9  1  0
  9  2  1  0
  6  4  1  0
  1 10  1  0
  1 11  1  0
  1 12  1  0
  3 13  1  0
  4 14  1  0
  7 15  1  0
  7 16  1  0
  7 17  1  0
  8 18  1  0
  8 19  1  0
  9 20  1  0
  9 21  1  0
M  END
