
     RDKit          3D

 17 18  0  0  0  0  0  0  0  0999 V2000
   -2.2637   -0.1874    0.5178 C   0  0  0  0  0  0  0  0  0  0  0  0
   -0.8320   -0.1659    0.1179 C   0  0  0  0  0  0  0  0  0  0  0  0
    0.0129   -1.1701    0.3151 C   0  0  0  0  0  0  0  0  0  0  0  0
    1.4447   -1.1698   -0.0760 C   0  0  0  0  0  0  0  0  0  0  0  0
    2.3163   -0.6359    0.8591 O   0  0  0  0  0  0  0  0  0  0  0  0
    2.0517    0.1581   -0.2657 C   0  0  0  0  0  0  0  0  0  0  0  0
    1.1063    1.2764   -0.1445 C   0  0  0  0  0  0  0  0  0  0  0  0
    1.4516    2.3596    0.2705 O   0  0  0  0  0  0  0  0  0  0  0  0
   -0.3055    1.0565   -0.5452 C   0  0  0  0  0  0  0  0  0  0  0  0
   -2.5296   -1.0687    1.1164 H   0  0  0  0  0  0  0  0  0  0  0  0
   -2.9143   -0.2150   -0.3963 H   0  0  0  0  0  0  0  0  0  0  0  0
   -2.5042    0.7729    1.0207 H   0  0  0  0  0  0  0  0  0  0  0  0
   -0.4250   -2.0504    0.8105 H   0  0  0  0  0  0  0  0  0  0  0  0
    1.7962   -1.9664   -0.7634 H   0  0  0  0  0  0  0  0  0  0  0  0
    2.9320    0.2385   -0.9365 H   0  0  0  0  0  0  0  0  0  0  0  0
   -0.9494    1.9090   -0.2518 H   0  0  0  0  0  0  0  0  0  0  0  0
   -0.3880    0.8587   -1.6486 H   0  0  0  0  0  0  0  0  0  0  0  0
  1  2  1  0
  2  3  2  0
  3  4  1  0
  4  5  1  0
  5  6  1  0
  6  7  1  0
  7  8  2  0
  7  9  1  0
  9  2  1  0
  6  4  1  0
  1 10  1  0
  1 11  1  0
  1 12  1  0
  3 13  1  0
  4 14  1  0
  6 15  1  0
  9 16  1  0
  9 17  1  0
M  END
