
     RDKit          3D

 21 22  0  0  0  0  0  0  0  0999 V2000
    1.9645    1.3823   -0.3693 C   0  0  0  0  0  0  0  0  0  0  0  0
    1.0672    0.2780    0.0369 C   0  0  0  0  0  0  0  0  0  0  0  0
    1.4721   -0.8880    0.5971 C   0  0  0  0  0  0  0  0  0  0  0  0
    0.2197   -1.6166    0.7987 C   0  0  0  0  0  0  0  0  0  0  0  0
   -0.6881   -0.5128    1.3372 C   0  0  0  0  0  0  0  0  0  0  0  0
   -0.3890    0.1046   -0.0270 C   0  0  0  0  0  0  0  0  0  0  0  0
   -1.2653    1.0955   -0.5673 C   0  0  0  0  0  0  0  0  0  0  0  0
   -2.6006    0.6648   -0.5010 O   0  0  0  0  0  0  0  0  0  0  0  0
   -0.4951   -1.3403   -0.5346 C   0  0  0  0  0  0  0  0  0  0  0  0
    2.3297    1.9720    0.5060 H   0  0  0  0  0  0  0  0  0  0  0  0
    2.8711    0.9110   -0.8204 H   0  0  0  0  0  0  0  0  0  0  0  0
    1.4628    2.0721   -1.0485 H   0  0  0  0  0  0  0  0  0  0  0  0
    2.4667   -1.2263    0.8461 H   0  0  0  0  0  0  0  0  0  0  0  0
    0.1674   -2.5771    1.2087 H   0  0  0  0  0  0  0  0  0  0  0  0
   -1.7234   -0.8485    1.3688 H   0  0  0  0  0  0  0  0  0  0  0  0
   -0.2867    0.0304    2.1908 H   0  0  0  0  0  0  0  0  0  0  0  0
   -1.1552    2.0547   -0.0657 H   0  0  0  0  0  0  0  0  0  0  0  0
   -1.0628    1.2630   -1.6460 H   0  0  0  0  0  0  0  0  0  0  0  0
   -2.9617    0.4143   -1.3731 H   0  0  0  0  0  0  0  0  0  0  0  0
   -1.5388   -1.6546   -0.5577 H   0  0  0  0  0  0  0  0  0  0  0  0
    0.1454   -1.5785   -1.3798 H   0  0  0  0  0  0  0  0  0  0  0  0
  1  2  1  0
  2  3  2  0
  3  4  1  0
  4  5  1  0
  5  6  1  0
  6  7  1  0
  7  8  1  0
  6  9  1  0
  6  2  1  0
  9  4  1  0
  1 10  1  0
  1 11  1  0
  1 12  1  0
  3 13  1  0
  4 14  1  0
  5 15  1  0
  5 16  1  0
  7 17  1  0
  7 18  1  0
  8 19  1  0
  9 20  1  0
  9 21  1  0
M  END
