
     RDKit          3D

 17 17  0  0  0  0  0  0  0  0999 V2000
   -2.3371    0.2467    0.4559 C   0  0  0  0  0  0  0  0  0  0  0  0
   -0.9071    0.1073    0.0615 C   0  0  0  0  0  0  0  0  0  0  0  0
   -0.1212    1.1637    0.1998 C   0  0  0  0  0  0  0  0  0  0  0  0
    1.3156    1.3069   -0.1076 C   0  0  0  0  0  0  0  0  0  0  0  0
    2.2427    0.3370   -0.1887 C   0  0  0  0  0  0  0  0  0  0  0  0
    1.9708   -1.0879    0.0238 C   0  0  0  0  0  0  0  0  0  0  0  0
    2.9875   -1.8374    0.1453 O   0  0  0  0  0  0  0  0  0  0  0  0
    0.7085   -1.6991    0.1053 O   0  0  0  0  0  0  0  0  0  0  0  0
   -0.4998   -1.2204   -0.4558 C   0  0  0  0  0  0  0  0  0  0  0  0
   -2.9315   -0.4871   -0.1295 H   0  0  0  0  0  0  0  0  0  0  0  0
   -2.3616    0.0048    1.5595 H   0  0  0  0  0  0  0  0  0  0  0  0
   -2.6913    1.2933    0.3078 H   0  0  0  0  0  0  0  0  0  0  0  0
   -0.6287    2.0518    0.6021 H   0  0  0  0  0  0  0  0  0  0  0  0
    1.6508    2.3123   -0.2863 H   0  0  0  0  0  0  0  0  0  0  0  0
    3.2395    0.6239   -0.4227 H   0  0  0  0  0  0  0  0  0  0  0  0
   -0.3375   -1.1401   -1.5633 H   0  0  0  0  0  0  0  0  0  0  0  0
   -1.2996   -1.9758   -0.3071 H   0  0  0  0  0  0  0  0  0  0  0  0
  1  2  1  0
  2  3  2  0
  3  4  1  0
  4  5  2  0
  5  6  1  0
  6  7  2  0
  6  8  1  0
  8  9  1  0
  9  2  1  0
  1 10  1  0
  1 11  1  0
  1 12  1  0
  3 13  1  0
  4 14  1  0
  5 15  1  0
  9 16  1  0
  9 17  1  0
M  END
