
     RDKit          3D

 23 23  0  0  0  0  0  0  0  0999 V2000
    2.6432   -0.4458    0.1248 C   0  0  0  0  0  0  0  0  0  0  0  0
    1.2878    0.1195    0.3605 C   0  0  0  0  0  0  0  0  0  0  0  0
    1.1049    1.4244    0.2180 C   0  0  0  0  0  0  0  0  0  0  0  0
   -0.2530    2.0058    0.4520 C   0  0  0  0  0  0  0  0  0  0  0  0
   -1.2466    1.0328   -0.0864 C   0  0  0  0  0  0  0  0  0  0  0  0
   -1.1616   -0.3115    0.5412 C   0  0  0  0  0  0  0  0  0  0  0  0
   -2.0297   -1.2603   -0.2953 C   0  0  0  0  0  0  0  0  0  0  0  0
    0.2166   -0.8336    0.7455 C   0  0  0  0  0  0  0  0  0  0  0  0
    0.3810   -2.0727    0.0846 O   0  0  0  0  0  0  0  0  0  0  0  0
    3.3898    0.3661   -0.1035 H   0  0  0  0  0  0  0  0  0  0  0  0
    2.6832   -1.1469   -0.7128 H   0  0  0  0  0  0  0  0  0  0  0  0
    3.0316   -0.9044    1.0787 H   0  0  0  0  0  0  0  0  0  0  0  0
    1.9006    2.1110   -0.0648 H   0  0  0  0  0  0  0  0  0  0  0  0
   -0.3447    2.9698   -0.0888 H   0  0  0  0  0  0  0  0  0  0  0  0
   -0.4533    2.1509    1.5245 H   0  0  0  0  0  0  0  0  0  0  0  0
   -1.2139    0.9803   -1.2122 H   0  0  0  0  0  0  0  0  0  0  0  0
   -2.2748    1.4417    0.1403 H   0  0  0  0  0  0  0  0  0  0  0  0
   -1.6752   -0.2592    1.5350 H   0  0  0  0  0  0  0  0  0  0  0  0
   -2.4516   -2.0741    0.3303 H   0  0  0  0  0  0  0  0  0  0  0  0
   -1.5032   -1.6180   -1.1884 H   0  0  0  0  0  0  0  0  0  0  0  0
   -2.9233   -0.6471   -0.6126 H   0  0  0  0  0  0  0  0  0  0  0  0
    0.4042   -1.0789    1.8325 H   0  0  0  0  0  0  0  0  0  0  0  0
    0.4881   -1.9496   -0.8928 H   0  0  0  0  0  0  0  0  0  0  0  0
  1  2  1  0
  2  3  2  0
  3  4  1  0
  4  5  1  0
  5  6  1  0
  6  7  1  0
  6  8  1  0
  8  9  1  0
  8  2  1  0
  1 10  1  0
  1 11  1  0
  1 12  1  0
  3 13  1  0
  4 14  1  0
  4 15  1  0
  5 16  1  0
  5 17  1  0
  6 18  1  0
  7 19  1  0
  7 20  1  0
  7 21  1  0
  8 22  1  0
  9 23  1  0
M  END
