
     RDKit          3D

 16 16  0  0  0  0  0  0  0  0999 V2000
    2.2639   -0.1691    0.5196 C   0  0  0  0  0  0  0  0  0  0  0  0
    0.8314    0.0324    0.0675 C   0  0  0  0  0  0  0  0  0  0  0  0
   -0.0387   -0.9415    0.1691 C   0  0  0  0  0  0  0  0  0  0  0  0
   -1.4446   -0.8316   -0.2463 C   0  0  0  0  0  0  0  0  0  0  0  0
   -1.9034    0.5980   -0.1501 C   0  0  0  0  0  0  0  0  0  0  0  0
   -0.9514    1.3990   -0.8430 O   0  0  0  0  0  0  0  0  0  0  0  0
    0.4064    1.3126   -0.4682 C   0  0  0  0  0  0  0  0  0  0  0  0
    1.1974    2.2567   -0.5820 O   0  0  0  0  0  0  0  0  0  0  0  0
    2.4948   -1.2537    0.5603 H   0  0  0  0  0  0  0  0  0  0  0  0
    2.8884    0.2326   -0.3289 H   0  0  0  0  0  0  0  0  0  0  0  0
    2.4600    0.3325    1.4692 H   0  0  0  0  0  0  0  0  0  0  0  0
    0.3671   -1.8705    0.5980 H   0  0  0  0  0  0  0  0  0  0  0  0
   -2.1043   -1.5321    0.2984 H   0  0  0  0  0  0  0  0  0  0  0  0
   -1.5825   -1.1187   -1.3332 H   0  0  0  0  0  0  0  0  0  0  0  0
   -1.9914    0.8841    0.9144 H   0  0  0  0  0  0  0  0  0  0  0  0
   -2.8930    0.6693   -0.6449 H   0  0  0  0  0  0  0  0  0  0  0  0
  1  2  1  0
  2  3  2  0
  3  4  1  0
  4  5  1  0
  5  6  1  0
  6  7  1  0
  7  8  2  0
  7  2  1  0
  1  9  1  0
  1 10  1  0
  1 11  1  0
  3 12  1  0
  4 13  1  0
  4 14  1  0
  5 15  1  0
  5 16  1  0
M  END
