
     RDKit          3D

 21 22  0  0  0  0  0  0  0  0999 V2000
    2.5823    0.1171    0.7546 C   0  0  0  0  0  0  0  0  0  0  0  0
    1.2292   -0.1732    0.1935 C   0  0  0  0  0  0  0  0  0  0  0  0
    0.2420   -0.6072    0.9347 C   0  0  0  0  0  0  0  0  0  0  0  0
   -1.1025   -0.9044    0.4223 C   0  0  0  0  0  0  0  0  0  0  0  0
   -2.0513   -0.1265    1.1233 O   0  0  0  0  0  0  0  0  0  0  0  0
   -2.3698    0.5952   -0.0230 C   0  0  0  0  0  0  0  0  0  0  0  0
   -1.4563   -0.2869   -0.8739 C   0  0  0  0  0  0  0  0  0  0  0  0
   -0.3901    0.4340   -1.5918 C   0  0  0  0  0  0  0  0  0  0  0  0
    1.0121    0.0402   -1.2421 C   0  0  0  0  0  0  0  0  0  0  0  0
    3.0034    1.0736    0.3405 H   0  0  0  0  0  0  0  0  0  0  0  0
    3.2613   -0.6894    0.4353 H   0  0  0  0  0  0  0  0  0  0  0  0
    2.5239    0.2472    1.8397 H   0  0  0  0  0  0  0  0  0  0  0  0
    0.4281   -0.7567    1.9932 H   0  0  0  0  0  0  0  0  0  0  0  0
   -1.3893   -1.9938    0.4855 H   0  0  0  0  0  0  0  0  0  0  0  0
   -2.0096    1.6463   -0.0325 H   0  0  0  0  0  0  0  0  0  0  0  0
   -3.4349    0.5178   -0.2439 H   0  0  0  0  0  0  0  0  0  0  0  0
   -2.1107   -0.9104   -1.5500 H   0  0  0  0  0  0  0  0  0  0  0  0
   -0.5016    1.5321   -1.3927 H   0  0  0  0  0  0  0  0  0  0  0  0
   -0.4976    0.2848   -2.6936 H   0  0  0  0  0  0  0  0  0  0  0  0
    1.6919    0.8457   -1.5907 H   0  0  0  0  0  0  0  0  0  0  0  0
    1.3394   -0.8854   -1.7762 H   0  0  0  0  0  0  0  0  0  0  0  0
  1  2  1  0
  2  3  2  0
  3  4  1  0
  4  5  1  0
  5  6  1  0
  6  7  1  0
  7  8  1  0
  8  9  1  0
  9  2  1  0
  7  4  1  0
  1 10  1  0
  1 11  1  0
  1 12  1  0
  3 13  1  0
  4 14  1  0
  6 15  1  0
  6 16  1  0
  7 17  1  0
  8 18  1  0
  8 19  1  0
  9 20  1  0
  9 21  1  0
M  END
