
     RDKit          3D

 17 18  0  0  0  0  0  0  0  0999 V2000
    2.4977   -0.6669    0.0309 C   0  0  0  0  0  0  0  0  0  0  0  0
    1.1618   -0.0538   -0.0381 C   0  0  0  0  0  0  0  0  0  0  0  0
    0.8928    1.2279    0.1302 C   0  0  0  0  0  0  0  0  0  0  0  0
   -0.5403    1.4646   -0.0101 C   0  0  0  0  0  0  0  0  0  0  0  0
   -1.1321    2.5652    0.1367 O   0  0  0  0  0  0  0  0  0  0  0  0
   -1.1259    0.1428   -0.3571 C   0  0  0  0  0  0  0  0  0  0  0  0
   -2.5234   -0.1860    0.0630 C   0  0  0  0  0  0  0  0  0  0  0  0
   -0.7073   -0.3990   -1.5926 O   0  0  0  0  0  0  0  0  0  0  0  0
   -0.0957   -0.7916   -0.3101 C   0  0  0  0  0  0  0  0  0  0  0  0
    2.5595   -1.6333   -0.5317 H   0  0  0  0  0  0  0  0  0  0  0  0
    3.2849   -0.0123   -0.4343 H   0  0  0  0  0  0  0  0  0  0  0  0
    2.8351   -0.8850    1.0671 H   0  0  0  0  0  0  0  0  0  0  0  0
    1.6313    2.0166    0.3457 H   0  0  0  0  0  0  0  0  0  0  0  0
   -2.8233    0.4451    0.9056 H   0  0  0  0  0  0  0  0  0  0  0  0
   -3.2293   -0.1196   -0.8053 H   0  0  0  0  0  0  0  0  0  0  0  0
   -2.5751   -1.2464    0.3978 H   0  0  0  0  0  0  0  0  0  0  0  0
   -0.1106   -1.8683   -0.1353 H   0  0  0  0  0  0  0  0  0  0  0  0
  1  2  1  0
  2  3  2  0
  3  4  1  0
  4  5  2  0
  4  6  1  0
  6  7  1  0
  6  8  1  0
  8  9  1  0
  9  2  1  0
  9  6  1  0
  1 10  1  0
  1 11  1  0
  1 12  1  0
  3 13  1  0
  7 14  1  0
  7 15  1  0
  7 16  1  0
  9 17  1  0
M  END
