
     RDKit          3D

 21 22  0  0  0  0  0  0  0  0999 V2000
    2.7001    0.0173   -0.3407 C   0  0  0  0  0  0  0  0  0  0  0  0
    1.2309    0.1128   -0.1484 C   0  0  0  0  0  0  0  0  0  0  0  0
    0.4352    1.1715    0.0218 C   0  0  0  0  0  0  0  0  0  0  0  0
   -0.9044    0.5558    0.1827 C   0  0  0  0  0  0  0  0  0  0  0  0
   -2.0714    1.3377    0.4408 C   0  0  0  0  0  0  0  0  0  0  0  0
   -0.9051   -0.4992   -0.9158 C   0  0  0  0  0  0  0  0  0  0  0  0
    0.2896   -1.0223   -0.1037 C   0  0  0  0  0  0  0  0  0  0  0  0
    0.6722   -2.2675   -0.2410 O   0  0  0  0  0  0  0  0  0  0  0  0
   -0.5601   -0.6202    1.1133 C   0  0  0  0  0  0  0  0  0  0  0  0
    3.1317   -0.8627    0.1920 H   0  0  0  0  0  0  0  0  0  0  0  0
    3.2410    0.9047    0.0406 H   0  0  0  0  0  0  0  0  0  0  0  0
    2.9714   -0.0727   -1.4180 H   0  0  0  0  0  0  0  0  0  0  0  0
    0.6524    2.2313    0.0460 H   0  0  0  0  0  0  0  0  0  0  0  0
   -1.8235    2.3226    0.8754 H   0  0  0  0  0  0  0  0  0  0  0  0
   -2.7524    0.8284    1.1784 H   0  0  0  0  0  0  0  0  0  0  0  0
   -2.6986    1.4632   -0.4759 H   0  0  0  0  0  0  0  0  0  0  0  0
   -0.6571   -0.1468   -1.9152 H   0  0  0  0  0  0  0  0  0  0  0  0
   -1.7825   -1.1484   -0.7972 H   0  0  0  0  0  0  0  0  0  0  0  0
    0.1947   -2.7267   -0.9901 H   0  0  0  0  0  0  0  0  0  0  0  0
    0.0647   -0.3308    1.9619 H   0  0  0  0  0  0  0  0  0  0  0  0
   -1.4289   -1.2480    1.2931 H   0  0  0  0  0  0  0  0  0  0  0  0
  1  2  1  0
  2  3  2  0
  3  4  1  0
  4  5  1  0
  4  6  1  0
  6  7  1  0
  7  8  1  0
  7  9  1  0
  7  2  1  0
  9  4  1  0
  1 10  1  0
  1 11  1  0
  1 12  1  0
  3 13  1  0
  5 14  1  0
  5 15  1  0
  5 16  1  0
  6 17  1  0
  6 18  1  0
  8 19  1  0
  9 20  1  0
  9 21  1  0
M  END
