
     RDKit          3D

 18 18  0  0  0  0  0  0  0  0999 V2000
    2.3610   -0.7903    0.3598 C   0  0  0  0  0  0  0  0  0  0  0  0
    1.0324   -0.1608    0.1962 C   0  0  0  0  0  0  0  0  0  0  0  0
   -0.0541   -0.5519    0.8074 C   0  0  0  0  0  0  0  0  0  0  0  0
   -1.2016    0.2819    0.4274 C   0  0  0  0  0  0  0  0  0  0  0  0
   -2.2290   -0.4793   -0.3726 C   0  0  0  0  0  0  0  0  0  0  0  0
   -0.6280    1.4198   -0.2924 C   0  0  0  0  0  0  0  0  0  0  0  0
   -1.1330    2.4954   -0.5356 O   0  0  0  0  0  0  0  0  0  0  0  0
    0.7408    1.0200   -0.6951 C   0  0  0  0  0  0  0  0  0  0  0  0
    2.5211   -1.5694   -0.4005 H   0  0  0  0  0  0  0  0  0  0  0  0
    2.4982   -1.2580    1.3464 H   0  0  0  0  0  0  0  0  0  0  0  0
    3.1191    0.0069    0.2234 H   0  0  0  0  0  0  0  0  0  0  0  0
   -0.1134   -1.3982    1.5195 H   0  0  0  0  0  0  0  0  0  0  0  0
   -1.7104    0.5931    1.3729 H   0  0  0  0  0  0  0  0  0  0  0  0
   -3.2539   -0.0338   -0.2286 H   0  0  0  0  0  0  0  0  0  0  0  0
   -2.0125   -0.5118   -1.4512 H   0  0  0  0  0  0  0  0  0  0  0  0
   -2.2265   -1.5228    0.0088 H   0  0  0  0  0  0  0  0  0  0  0  0
    1.5005    1.7811   -0.5385 H   0  0  0  0  0  0  0  0  0  0  0  0
    0.7892    0.6781   -1.7472 H   0  0  0  0  0  0  0  0  0  0  0  0
  1  2  1  0
  2  3  2  0
  3  4  1  0
  4  5  1  0
  4  6  1  0
  6  7  2  0
  6  8  1  0
  8  2  1  0
  1  9  1  0
  1 10  1  0
  1 11  1  0
  3 12  1  0
  4 13  1  0
  5 14  1  0
  5 15  1  0
  5 16  1  0
  8 17  1  0
  8 18  1  0
M  END
