
     RDKit          3D

 23 24  0  0  0  0  0  0  0  0999 V2000
   -3.2011   -0.2534    0.4593 C   0  0  0  0  0  0  0  0  0  0  0  0
   -1.7765   -0.2489   -0.0093 C   0  0  0  0  0  0  0  0  0  0  0  0
   -1.2778    0.1636   -1.1651 C   0  0  0  0  0  0  0  0  0  0  0  0
    0.1736    0.0062   -1.2516 C   0  0  0  0  0  0  0  0  0  0  0  0
    0.9843    1.2127   -0.8019 C   0  0  0  0  0  0  0  0  0  0  0  0
    1.4503    0.4339    0.4075 C   0  0  0  0  0  0  0  0  0  0  0  0
    2.9005    0.0310    0.3908 C   0  0  0  0  0  0  0  0  0  0  0  0
    0.5644   -0.7082    0.0213 C   0  0  0  0  0  0  0  0  0  0  0  0
   -0.6708   -0.7602    0.8696 C   0  0  0  0  0  0  0  0  0  0  0  0
   -3.3751   -1.1905    1.0251 H   0  0  0  0  0  0  0  0  0  0  0  0
   -3.9220   -0.2206   -0.3533 H   0  0  0  0  0  0  0  0  0  0  0  0
   -3.3038    0.5767    1.1896 H   0  0  0  0  0  0  0  0  0  0  0  0
   -1.9001    0.5720   -1.9506 H   0  0  0  0  0  0  0  0  0  0  0  0
    0.5986   -0.3883   -2.1793 H   0  0  0  0  0  0  0  0  0  0  0  0
    0.2997    2.0525   -0.5839 H   0  0  0  0  0  0  0  0  0  0  0  0
    1.8530    1.4549   -1.4487 H   0  0  0  0  0  0  0  0  0  0  0  0
    1.1479    0.9356    1.3457 H   0  0  0  0  0  0  0  0  0  0  0  0
    3.4770    0.6236   -0.3594 H   0  0  0  0  0  0  0  0  0  0  0  0
    3.3570    0.2542    1.3900 H   0  0  0  0  0  0  0  0  0  0  0  0
    3.0507   -1.0463    0.2255 H   0  0  0  0  0  0  0  0  0  0  0  0
    1.0724   -1.6608   -0.1641 H   0  0  0  0  0  0  0  0  0  0  0  0
   -0.6105   -0.0490    1.7176 H   0  0  0  0  0  0  0  0  0  0  0  0
   -0.8918   -1.7907    1.2251 H   0  0  0  0  0  0  0  0  0  0  0  0
  1  2  1  0
  2  3  2  0
  3  4  1  0
  4  5  1  0
  5  6  1  0
  6  7  1  0
  6  8  1  0
  8  9  1  0
  9  2  1  0
  8  4  1  0
  1 10  1  0
  1 11  1  0
  1 12  1  0
  3 13  1  0
  4 14  1  0
  5 15  1  0
  5 16  1  0
  6 17  1  0
  7 18  1  0
  7 19  1  0
  7 20  1  0
  8 21  1  0
  9 22  1  0
  9 23  1  0
M  END
