
     RDKit          3D

 17 17  0  0  0  0  0  0  0  0999 V2000
    2.4736   -0.4578    0.0539 C   0  0  0  0  0  0  0  0  0  0  0  0
    1.0529    0.0322   -0.0048 C   0  0  0  0  0  0  0  0  0  0  0  0
   -0.0087   -0.7358   -0.2299 C   0  0  0  0  0  0  0  0  0  0  0  0
   -1.1834    0.1701   -0.1984 C   0  0  0  0  0  0  0  0  0  0  0  0
   -2.4495   -0.4905    0.2120 C   0  0  0  0  0  0  0  0  0  0  0  0
   -0.7468    1.1491    0.7116 O   0  0  0  0  0  0  0  0  0  0  0  0
    0.5327    1.4058    0.1647 C   0  0  0  0  0  0  0  0  0  0  0  0
    3.1924    0.3369   -0.2262 H   0  0  0  0  0  0  0  0  0  0  0  0
    2.5760   -1.3363   -0.6314 H   0  0  0  0  0  0  0  0  0  0  0  0
    2.6642   -0.8597    1.0832 H   0  0  0  0  0  0  0  0  0  0  0  0
   -0.0638   -1.7987   -0.4052 H   0  0  0  0  0  0  0  0  0  0  0  0
   -1.2513    0.6718   -1.1901 H   0  0  0  0  0  0  0  0  0  0  0  0
   -2.4070   -1.5688   -0.1122 H   0  0  0  0  0  0  0  0  0  0  0  0
   -2.5374   -0.4115    1.3188 H   0  0  0  0  0  0  0  0  0  0  0  0
   -3.3066    0.0212   -0.2732 H   0  0  0  0  0  0  0  0  0  0  0  0
    1.1376    2.0508    0.7943 H   0  0  0  0  0  0  0  0  0  0  0  0
    0.3253    1.8211   -0.8511 H   0  0  0  0  0  0  0  0  0  0  0  0
  1  2  1  0
  2  3  2  0
  3  4  1  0
  4  5  1  0
  4  6  1  0
  6  7  1  0
  7  2  1  0
  1  8  1  0
  1  9  1  0
  1 10  1  0
  3 11  1  0
  4 12  1  0
  5 13  1  0
  5 14  1  0
  5 15  1  0
  7 16  1  0
  7 17  1  0
M  END
