
     RDKit          3D

 21 22  0  0  0  0  0  0  0  0999 V2000
    2.3289    0.5128    0.1515 C   0  0  0  0  0  0  0  0  0  0  0  0
    0.9693   -0.0242   -0.0546 C   0  0  0  0  0  0  0  0  0  0  0  0
    0.4714   -0.4668   -1.2084 C   0  0  0  0  0  0  0  0  0  0  0  0
   -0.9470   -0.8497   -0.9741 C   0  0  0  0  0  0  0  0  0  0  0  0
   -0.9921   -1.9930   -0.1728 O   0  0  0  0  0  0  0  0  0  0  0  0
   -0.4080   -1.6577    1.0474 C   0  0  0  0  0  0  0  0  0  0  0  0
   -0.1064   -0.1802    0.9613 C   0  0  0  0  0  0  0  0  0  0  0  0
   -1.3101    0.2154    0.0824 C   0  0  0  0  0  0  0  0  0  0  0  0
   -1.1524    1.5985   -0.4510 C   0  0  0  0  0  0  0  0  0  0  0  0
    3.0534    0.1710   -0.5991 H   0  0  0  0  0  0  0  0  0  0  0  0
    2.2919    1.6327    0.1975 H   0  0  0  0  0  0  0  0  0  0  0  0
    2.7469    0.2119    1.1568 H   0  0  0  0  0  0  0  0  0  0  0  0
    1.0160   -0.5294   -2.1392 H   0  0  0  0  0  0  0  0  0  0  0  0
   -1.5883   -0.8525   -1.8204 H   0  0  0  0  0  0  0  0  0  0  0  0
    0.5235   -2.1953    1.2398 H   0  0  0  0  0  0  0  0  0  0  0  0
   -1.1460   -1.8096    1.8775 H   0  0  0  0  0  0  0  0  0  0  0  0
   -0.0136    0.3595    1.8646 H   0  0  0  0  0  0  0  0  0  0  0  0
   -2.2571    0.0012    0.5671 H   0  0  0  0  0  0  0  0  0  0  0  0
   -0.8934    2.2859    0.3815 H   0  0  0  0  0  0  0  0  0  0  0  0
   -0.4335    1.6398   -1.2835 H   0  0  0  0  0  0  0  0  0  0  0  0
   -2.1533    1.9295   -0.8243 H   0  0  0  0  0  0  0  0  0  0  0  0
  1  2  1  0
  2  3  2  0
  3  4  1  0
  4  5  1  0
  5  6  1  0
  6  7  1  0
  7  8  1  0
  8  9  1  0
  7  2  1  0
  8  4  1  0
  1 10  1  0
  1 11  1  0
  1 12  1  0
  3 13  1  0
  4 14  1  0
  6 15  1  0
  6 16  1  0
  7 17  1  0
  8 18  1  0
  9 19  1  0
  9 20  1  0
  9 21  1  0
M  END
