
     RDKit          3D

 21 22  0  0  0  0  0  0  0  0999 V2000
    2.7797    0.2413    0.0584 C   0  0  0  0  0  0  0  0  0  0  0  0
    1.3121    0.2633   -0.0358 C   0  0  0  0  0  0  0  0  0  0  0  0
    0.4424    1.2612   -0.0219 C   0  0  0  0  0  0  0  0  0  0  0  0
   -0.8726    0.8740   -0.5585 C   0  0  0  0  0  0  0  0  0  0  0  0
   -1.8564    0.4886    0.5408 C   0  0  0  0  0  0  0  0  0  0  0  0
   -1.5049   -0.8851    1.0385 C   0  0  0  0  0  0  0  0  0  0  0  0
   -0.1586   -1.1576    1.0387 O   0  0  0  0  0  0  0  0  0  0  0  0
    0.4640   -0.9805   -0.1790 C   0  0  0  0  0  0  0  0  0  0  0  0
   -0.5244   -0.4625   -1.2330 C   0  0  0  0  0  0  0  0  0  0  0  0
    3.2260    0.2982   -0.9580 H   0  0  0  0  0  0  0  0  0  0  0  0
    3.1693    1.0662    0.7103 H   0  0  0  0  0  0  0  0  0  0  0  0
    3.1387   -0.7013    0.5658 H   0  0  0  0  0  0  0  0  0  0  0  0
    0.6849    2.2484    0.3463 H   0  0  0  0  0  0  0  0  0  0  0  0
   -1.3154    1.5848   -1.2532 H   0  0  0  0  0  0  0  0  0  0  0  0
   -1.9146    1.2442    1.3379 H   0  0  0  0  0  0  0  0  0  0  0  0
   -2.8505    0.4102    0.0527 H   0  0  0  0  0  0  0  0  0  0  0  0
   -2.0427   -1.6936    0.4882 H   0  0  0  0  0  0  0  0  0  0  0  0
   -1.8603   -0.9560    2.0887 H   0  0  0  0  0  0  0  0  0  0  0  0
    1.0447   -1.8284   -0.5345 H   0  0  0  0  0  0  0  0  0  0  0  0
   -1.3871   -1.1073   -1.3523 H   0  0  0  0  0  0  0  0  0  0  0  0
    0.0258   -0.2082   -2.1403 H   0  0  0  0  0  0  0  0  0  0  0  0
  1  2  1  0
  2  3  2  0
  3  4  1  0
  4  5  1  0
  5  6  1  0
  6  7  1  0
  7  8  1  0
  8  9  1  0
  8  2  1  0
  9  4  1  0
  1 10  1  0
  1 11  1  0
  1 12  1  0
  3 13  1  0
  4 14  1  0
  5 15  1  0
  5 16  1  0
  6 17  1  0
  6 18  1  0
  8 19  1  0
  9 20  1  0
  9 21  1  0
M  END
