
     RDKit          3D

 19 20  0  0  0  0  0  0  0  0999 V2000
    2.4667   -0.4413   -0.1549 C   0  0  0  0  0  0  0  0  0  0  0  0
    1.1249    0.1947   -0.1114 C   0  0  0  0  0  0  0  0  0  0  0  0
    0.7616    1.3233   -0.6969 C   0  0  0  0  0  0  0  0  0  0  0  0
   -0.6318    1.6130   -0.4202 C   0  0  0  0  0  0  0  0  0  0  0  0
   -1.2953    2.4941   -1.0015 O   0  0  0  0  0  0  0  0  0  0  0  0
   -1.0753    0.6991    0.6335 C   0  0  0  0  0  0  0  0  0  0  0  0
   -2.0841   -0.3403    0.2406 C   0  0  0  0  0  0  0  0  0  0  0  0
   -0.9365   -1.2573   -0.2017 C   0  0  0  0  0  0  0  0  0  0  0  0
   -0.0186   -0.3867    0.6275 C   0  0  0  0  0  0  0  0  0  0  0  0
    3.1292    0.0141   -0.9119 H   0  0  0  0  0  0  0  0  0  0  0  0
    2.8810   -0.3832    0.8699 H   0  0  0  0  0  0  0  0  0  0  0  0
    2.2884   -1.5301   -0.3438 H   0  0  0  0  0  0  0  0  0  0  0  0
    1.4608    1.9070   -1.2910 H   0  0  0  0  0  0  0  0  0  0  0  0
   -1.2206    1.1612    1.6323 H   0  0  0  0  0  0  0  0  0  0  0  0
   -2.5610   -0.7698    1.1268 H   0  0  0  0  0  0  0  0  0  0  0  0
   -2.7364   -0.0220   -0.5880 H   0  0  0  0  0  0  0  0  0  0  0  0
   -1.0106   -2.2874    0.2262 H   0  0  0  0  0  0  0  0  0  0  0  0
   -0.7389   -1.2470   -1.2773 H   0  0  0  0  0  0  0  0  0  0  0  0
    0.1966   -0.7414    1.6418 H   0  0  0  0  0  0  0  0  0  0  0  0
  1  2  1  0
  2  3  2  0
  3  4  1  0
  4  5  2  0
  4  6  1  0
  6  7  1  0
  7  8  1  0
  8  9  1  0
  9  2  1  0
  9  6  1  0
  1 10  1  0
  1 11  1  0
  1 12  1  0
  3 13  1  0
  6 14  1  0
  7 15  1  0
  7 16  1  0
  8 17  1  0
  8 18  1  0
  9 19  1  0
M  END
