
     RDKit          3D

 19 19  0  0  0  0  0  0  0  0999 V2000
    2.2251   -0.8968    0.3031 C   0  0  0  0  0  0  0  0  0  0  0  0
    0.8620   -0.4652   -0.1084 C   0  0  0  0  0  0  0  0  0  0  0  0
   -0.1550   -1.2251    0.2537 C   0  0  0  0  0  0  0  0  0  0  0  0
   -1.6083   -1.0388   -0.0157 C   0  0  0  0  0  0  0  0  0  0  0  0
   -2.0459    0.2644    0.4934 C   0  0  0  0  0  0  0  0  0  0  0  0
   -1.4197    1.4159    0.3711 C   0  0  0  0  0  0  0  0  0  0  0  0
   -0.1473    1.7563   -0.2793 C   0  0  0  0  0  0  0  0  0  0  0  0
    0.1494    2.9779   -0.3177 O   0  0  0  0  0  0  0  0  0  0  0  0
    0.8184    0.7976   -0.8937 C   0  0  0  0  0  0  0  0  0  0  0  0
    2.2991   -2.0095    0.4006 H   0  0  0  0  0  0  0  0  0  0  0  0
    2.9583   -0.5180   -0.4471 H   0  0  0  0  0  0  0  0  0  0  0  0
    2.5113   -0.4361    1.2934 H   0  0  0  0  0  0  0  0  0  0  0  0
    0.0696   -2.1297    0.8367 H   0  0  0  0  0  0  0  0  0  0  0  0
   -1.7037   -1.0004   -1.1345 H   0  0  0  0  0  0  0  0  0  0  0  0
   -2.2053   -1.8864    0.3443 H   0  0  0  0  0  0  0  0  0  0  0  0
   -2.9660    0.2756    1.0155 H   0  0  0  0  0  0  0  0  0  0  0  0
   -1.8817    2.3085    0.8115 H   0  0  0  0  0  0  0  0  0  0  0  0
    1.8207    1.2406   -1.0048 H   0  0  0  0  0  0  0  0  0  0  0  0
    0.4189    0.5692   -1.9222 H   0  0  0  0  0  0  0  0  0  0  0  0
  1  2  1  0
  2  3  2  0
  3  4  1  0
  4  5  1  0
  5  6  2  0
  6  7  1  0
  7  8  2  0
  7  9  1  0
  9  2  1  0
  1 10  1  0
  1 11  1  0
  1 12  1  0
  3 13  1  0
  4 14  1  0
  4 15  1  0
  5 16  1  0
  6 17  1  0
  9 18  1  0
  9 19  1  0
M  END
