
     RDKit          3D

 23 23  0  0  0  0  0  0  0  0999 V2000
    0.9211    2.0554    0.3002 C   0  0  0  0  0  0  0  0  0  0  0  0
    0.4820    0.6776   -0.1228 C   0  0  0  0  0  0  0  0  0  0  0  0
   -0.7858    0.3046   -0.1236 C   0  0  0  0  0  0  0  0  0  0  0  0
   -1.9858    1.0727    0.2543 C   0  0  0  0  0  0  0  0  0  0  0  0
   -0.7726   -1.1284   -0.5981 C   0  0  0  0  0  0  0  0  0  0  0  0
   -1.8052   -1.8551    0.2233 C   0  0  0  0  0  0  0  0  0  0  0  0
    0.5346   -1.5597   -0.2951 O   0  0  0  0  0  0  0  0  0  0  0  0
    1.2811   -0.4459   -0.5912 C   0  0  0  0  0  0  0  0  0  0  0  0
    2.6304   -0.5536    0.0832 C   0  0  0  0  0  0  0  0  0  0  0  0
    0.2208    2.4481    1.0441 H   0  0  0  0  0  0  0  0  0  0  0  0
    0.9620    2.7463   -0.5478 H   0  0  0  0  0  0  0  0  0  0  0  0
    1.9214    2.0207    0.7814 H   0  0  0  0  0  0  0  0  0  0  0  0
   -2.0097    1.9899   -0.3645 H   0  0  0  0  0  0  0  0  0  0  0  0
   -2.8946    0.4898    0.0564 H   0  0  0  0  0  0  0  0  0  0  0  0
   -1.9111    1.3424    1.3308 H   0  0  0  0  0  0  0  0  0  0  0  0
   -0.9771   -1.1125   -1.6708 H   0  0  0  0  0  0  0  0  0  0  0  0
   -2.7051   -2.0600   -0.3949 H   0  0  0  0  0  0  0  0  0  0  0  0
   -2.1193   -1.2770    1.1247 H   0  0  0  0  0  0  0  0  0  0  0  0
   -1.3958   -2.8153    0.5462 H   0  0  0  0  0  0  0  0  0  0  0  0
    1.4573   -0.4537   -1.6878 H   0  0  0  0  0  0  0  0  0  0  0  0
    2.5395   -0.8442    1.1424 H   0  0  0  0  0  0  0  0  0  0  0  0
    3.1695   -1.3866   -0.4311 H   0  0  0  0  0  0  0  0  0  0  0  0
    3.2426    0.3444   -0.0595 H   0  0  0  0  0  0  0  0  0  0  0  0
  1  2  1  0
  2  3  2  0
  3  4  1  0
  3  5  1  0
  5  6  1  0
  5  7  1  0
  7  8  1  0
  8  9  1  0
  8  2  1  0
  1 10  1  0
  1 11  1  0
  1 12  1  0
  4 13  1  0
  4 14  1  0
  4 15  1  0
  5 16  1  0
  6 17  1  0
  6 18  1  0
  6 19  1  0
  8 20  1  0
  9 21  1  0
  9 22  1  0
  9 23  1  0
M  END
