
     RDKit          3D

 25 25  0  0  0  0  0  0  0  0999 V2000
    2.7559   -0.3072   -0.1450 C   0  0  0  0  0  0  0  0  0  0  0  0
    1.3249    0.1702   -0.1750 C   0  0  0  0  0  0  0  0  0  0  0  0
    1.1271    1.4718   -0.2738 C   0  0  0  0  0  0  0  0  0  0  0  0
   -0.2181    2.1167   -0.3171 C   0  0  0  0  0  0  0  0  0  0  0  0
   -1.2908    1.1531    0.0837 C   0  0  0  0  0  0  0  0  0  0  0  0
   -1.0380   -0.1854   -0.5804 C   0  0  0  0  0  0  0  0  0  0  0  0
   -2.2594   -1.0466   -0.3649 C   0  0  0  0  0  0  0  0  0  0  0  0
    0.2185   -0.8328   -0.0929 C   0  0  0  0  0  0  0  0  0  0  0  0
    0.0918   -1.3915    1.3021 C   0  0  0  0  0  0  0  0  0  0  0  0
    2.8325   -1.3425   -0.5448 H   0  0  0  0  0  0  0  0  0  0  0  0
    3.1315   -0.2343    0.8960 H   0  0  0  0  0  0  0  0  0  0  0  0
    3.3921    0.3215   -0.7983 H   0  0  0  0  0  0  0  0  0  0  0  0
    1.9998    2.1439   -0.3293 H   0  0  0  0  0  0  0  0  0  0  0  0
   -0.2212    3.0158    0.3339 H   0  0  0  0  0  0  0  0  0  0  0  0
   -0.3967    2.4329   -1.3701 H   0  0  0  0  0  0  0  0  0  0  0  0
   -2.2626    1.5265   -0.3277 H   0  0  0  0  0  0  0  0  0  0  0  0
   -1.3962    1.0721    1.1759 H   0  0  0  0  0  0  0  0  0  0  0  0
   -0.8855    0.0366   -1.6718 H   0  0  0  0  0  0  0  0  0  0  0  0
   -2.9605   -0.9161   -1.2280 H   0  0  0  0  0  0  0  0  0  0  0  0
   -2.7835   -0.7809    0.5691 H   0  0  0  0  0  0  0  0  0  0  0  0
   -1.9021   -2.1060   -0.3061 H   0  0  0  0  0  0  0  0  0  0  0  0
    0.4869   -1.6573   -0.7839 H   0  0  0  0  0  0  0  0  0  0  0  0
    1.0776   -1.3007    1.8092 H   0  0  0  0  0  0  0  0  0  0  0  0
   -0.6886   -0.8825    1.8967 H   0  0  0  0  0  0  0  0  0  0  0  0
   -0.1354   -2.4772    1.2424 H   0  0  0  0  0  0  0  0  0  0  0  0
  1  2  1  0
  2  3  2  0
  3  4  1  0
  4  5  1  0
  5  6  1  0
  6  7  1  0
  6  8  1  0
  8  9  1  0
  8  2  1  0
  1 10  1  0
  1 11  1  0
  1 12  1  0
  3 13  1  0
  4 14  1  0
  4 15  1  0
  5 16  1  0
  5 17  1  0
  6 18  1  0
  7 19  1  0
  7 20  1  0
  7 21  1  0
  8 22  1  0
  9 23  1  0
  9 24  1  0
  9 25  1  0
M  END
