
     RDKit          3D

 21 21  0  0  0  0  0  0  0  0999 V2000
   -2.0155   -1.4354    0.7345 C   0  0  0  0  0  0  0  0  0  0  0  0
   -1.2774   -0.3295    0.0662 C   0  0  0  0  0  0  0  0  0  0  0  0
   -1.7108    0.9212   -0.0480 C   0  0  0  0  0  0  0  0  0  0  0  0
   -0.6859    1.7189   -0.7794 C   0  0  0  0  0  0  0  0  0  0  0  0
    0.1655    0.7787   -1.3589 O   0  0  0  0  0  0  0  0  0  0  0  0
    0.0395   -0.3743   -0.5871 C   0  0  0  0  0  0  0  0  0  0  0  0
    1.1899   -0.3417    0.4199 C   0  0  0  0  0  0  0  0  0  0  0  0
    2.4640   -0.3048   -0.4012 C   0  0  0  0  0  0  0  0  0  0  0  0
    1.0522    0.8134    1.1877 O   0  0  0  0  0  0  0  0  0  0  0  0
   -1.3858   -1.9123    1.5080 H   0  0  0  0  0  0  0  0  0  0  0  0
   -2.9227   -1.0455    1.2329 H   0  0  0  0  0  0  0  0  0  0  0  0
   -2.3614   -2.1992    0.0053 H   0  0  0  0  0  0  0  0  0  0  0  0
   -2.6412    1.3179    0.3169 H   0  0  0  0  0  0  0  0  0  0  0  0
   -1.1986    2.2325   -1.6351 H   0  0  0  0  0  0  0  0  0  0  0  0
   -0.1911    2.4028   -0.0922 H   0  0  0  0  0  0  0  0  0  0  0  0
    0.1487   -1.2304   -1.2840 H   0  0  0  0  0  0  0  0  0  0  0  0
    1.1605   -1.2036    1.1033 H   0  0  0  0  0  0  0  0  0  0  0  0
    2.5680   -1.3193   -0.8557 H   0  0  0  0  0  0  0  0  0  0  0  0
    2.3081    0.3958   -1.2357 H   0  0  0  0  0  0  0  0  0  0  0  0
    3.3433   -0.0309    0.2160 H   0  0  0  0  0  0  0  0  0  0  0  0
    1.9507    1.1456    1.4865 H   0  0  0  0  0  0  0  0  0  0  0  0
  1  2  1  0
  2  3  2  0
  3  4  1  0
  4  5  1  0
  5  6  1  0
  6  7  1  0
  7  8  1  0
  7  9  1  0
  6  2  1  0
  1 10  1  0
  1 11  1  0
  1 12  1  0
  3 13  1  0
  4 14  1  0
  4 15  1  0
  6 16  1  0
  7 17  1  0
  8 18  1  0
  8 19  1  0
  8 20  1  0
  9 21  1  0
M  END
