
     RDKit          3D

 16 18  0  0  0  0  0  0  0  0999 V2000
    2.2961    0.1007   -0.2500 C   0  0  0  0  0  0  0  0  0  0  0  0
    0.8277    0.1708   -0.0468 C   0  0  0  0  0  0  0  0  0  0  0  0
    0.0880    1.2156    0.3107 C   0  0  0  0  0  0  0  0  0  0  0  0
   -1.3518    0.8237    0.3947 C   0  0  0  0  0  0  0  0  0  0  0  0
   -1.8701   -0.1106   -0.5954 C   0  0  0  0  0  0  0  0  0  0  0  0
   -0.9487   -0.8188   -1.3521 O   0  0  0  0  0  0  0  0  0  0  0  0
   -0.0887   -1.0045   -0.2393 C   0  0  0  0  0  0  0  0  0  0  0  0
   -1.2261   -0.6384    0.6138 C   0  0  0  0  0  0  0  0  0  0  0  0
    2.8550    0.8010    0.4032 H   0  0  0  0  0  0  0  0  0  0  0  0
    2.7002   -0.9151   -0.0196 H   0  0  0  0  0  0  0  0  0  0  0  0
    2.4980    0.2730   -1.3355 H   0  0  0  0  0  0  0  0  0  0  0  0
    0.4521    2.2170    0.5172 H   0  0  0  0  0  0  0  0  0  0  0  0
   -1.9782    1.3422    1.1457 H   0  0  0  0  0  0  0  0  0  0  0  0
   -2.9504   -0.2720   -0.7776 H   0  0  0  0  0  0  0  0  0  0  0  0
    0.3675   -1.9825   -0.1628 H   0  0  0  0  0  0  0  0  0  0  0  0
   -1.6705   -1.2019    1.3938 H   0  0  0  0  0  0  0  0  0  0  0  0
  1  2  1  0
  2  3  2  0
  3  4  1  0
  4  5  1  0
  5  6  1  0
  6  7  1  0
  7  8  1  0
  7  2  1  0
  8  4  1  0
  8  5  1  0
  1  9  1  0
  1 10  1  0
  1 11  1  0
  3 12  1  0
  4 13  1  0
  5 14  1  0
  7 15  1  0
  8 16  1  0
M  END
