
     RDKit          3D

 21 21  0  0  0  0  0  0  0  0999 V2000
    2.3722    0.3261   -0.0913 C   0  0  0  0  0  0  0  0  0  0  0  0
    0.8757    0.2782   -0.3018 C   0  0  0  0  0  0  0  0  0  0  0  0
    0.3433    1.4927   -0.1871 C   0  0  0  0  0  0  0  0  0  0  0  0
   -1.0656    1.8527   -0.3230 C   0  0  0  0  0  0  0  0  0  0  0  0
   -1.8027    0.8349   -0.8821 O   0  0  0  0  0  0  0  0  0  0  0  0
   -1.9157   -0.1931    0.0315 C   0  0  0  0  0  0  0  0  0  0  0  0
   -1.0356   -1.3437   -0.2806 C   0  0  0  0  0  0  0  0  0  0  0  0
    0.3714   -1.0581   -0.5768 C   0  0  0  0  0  0  0  0  0  0  0  0
    1.1991   -1.9691    0.1242 O   0  0  0  0  0  0  0  0  0  0  0  0
    2.5028    0.6275    0.9804 H   0  0  0  0  0  0  0  0  0  0  0  0
    2.7849    1.1137   -0.7206 H   0  0  0  0  0  0  0  0  0  0  0  0
    2.8429   -0.6344   -0.2904 H   0  0  0  0  0  0  0  0  0  0  0  0
    1.0284    2.3287    0.0348 H   0  0  0  0  0  0  0  0  0  0  0  0
   -1.1496    2.7453   -0.9784 H   0  0  0  0  0  0  0  0  0  0  0  0
   -1.4791    2.1825    0.6699 H   0  0  0  0  0  0  0  0  0  0  0  0
   -2.9842   -0.5558   -0.0364 H   0  0  0  0  0  0  0  0  0  0  0  0
   -1.7531    0.1128    1.0797 H   0  0  0  0  0  0  0  0  0  0  0  0
   -1.5232   -1.9162   -1.1244 H   0  0  0  0  0  0  0  0  0  0  0  0
   -1.1103   -2.0614    0.5887 H   0  0  0  0  0  0  0  0  0  0  0  0
    0.5639   -1.2702   -1.6701 H   0  0  0  0  0  0  0  0  0  0  0  0
    0.9345   -2.8927   -0.0272 H   0  0  0  0  0  0  0  0  0  0  0  0
  1  2  1  0
  2  3  2  0
  3  4  1  0
  4  5  1  0
  5  6  1  0
  6  7  1  0
  7  8  1  0
  8  9  1  0
  8  2  1  0
  1 10  1  0
  1 11  1  0
  1 12  1  0
  3 13  1  0
  4 14  1  0
  4 15  1  0
  6 16  1  0
  6 17  1  0
  7 18  1  0
  7 19  1  0
  8 20  1  0
  9 21  1  0
M  END
