
     RDKit          3D

 21 21  0  0  0  0  0  0  0  0999 V2000
    2.7790   -0.3087   -0.2126 C   0  0  0  0  0  0  0  0  0  0  0  0
    1.3293   -0.0486   -0.0364 C   0  0  0  0  0  0  0  0  0  0  0  0
    0.5998   -1.1594    0.0073 C   0  0  0  0  0  0  0  0  0  0  0  0
   -0.7825   -1.5990    0.1503 C   0  0  0  0  0  0  0  0  0  0  0  0
   -1.8092   -0.7786   -0.5329 C   0  0  0  0  0  0  0  0  0  0  0  0
   -2.2238    0.4509    0.1544 C   0  0  0  0  0  0  0  0  0  0  0  0
   -1.5554    1.5573    0.4538 C   0  0  0  0  0  0  0  0  0  0  0  0
   -0.1850    2.0387    0.2534 C   0  0  0  0  0  0  0  0  0  0  0  0
    0.9349    1.3525    0.0614 C   0  0  0  0  0  0  0  0  0  0  0  0
    3.1909   -0.4514    0.8254 H   0  0  0  0  0  0  0  0  0  0  0  0
    2.9778   -1.1951   -0.8396 H   0  0  0  0  0  0  0  0  0  0  0  0
    3.3019    0.5640   -0.6259 H   0  0  0  0  0  0  0  0  0  0  0  0
    1.2536   -2.0205   -0.0968 H   0  0  0  0  0  0  0  0  0  0  0  0
   -1.0428   -1.6365    1.2489 H   0  0  0  0  0  0  0  0  0  0  0  0
   -0.8774   -2.6407   -0.1997 H   0  0  0  0  0  0  0  0  0  0  0  0
   -1.4327   -0.5626   -1.5752 H   0  0  0  0  0  0  0  0  0  0  0  0
   -2.7062   -1.4405   -0.7084 H   0  0  0  0  0  0  0  0  0  0  0  0
   -3.2749    0.4697    0.4850 H   0  0  0  0  0  0  0  0  0  0  0  0
   -2.1890    2.2783    0.9752 H   0  0  0  0  0  0  0  0  0  0  0  0
   -0.0890    3.1126    0.2683 H   0  0  0  0  0  0  0  0  0  0  0  0
    1.8009    2.0173   -0.0559 H   0  0  0  0  0  0  0  0  0  0  0  0
  1  2  1  0
  2  3  2  3
  3  4  1  0
  4  5  1  0
  5  6  1  0
  6  7  2  3
  7  8  1  0
  8  9  2  3
  9  2  1  0
  1 10  1  0
  1 11  1  0
  1 12  1  0
  3 13  1  0
  4 14  1  0
  4 15  1  0
  5 16  1  0
  5 17  1  0
  6 18  1  0
  7 19  1  0
  8 20  1  0
  9 21  1  0
M  END
