
     RDKit          3D

 20 20  0  0  0  0  0  0  0  0999 V2000
    2.5797    0.0015   -0.2879 C   0  0  0  0  0  0  0  0  0  0  0  0
    1.1445    0.0940    0.0000 C   0  0  0  0  0  0  0  0  0  0  0  0
    0.5880   -0.6268    0.9701 C   0  0  0  0  0  0  0  0  0  0  0  0
   -0.8769   -0.4372    1.1559 C   0  0  0  0  0  0  0  0  0  0  0  0
   -1.5730   -0.5627   -0.1633 C   0  0  0  0  0  0  0  0  0  0  0  0
   -2.9064   -0.1661   -0.0822 O   0  0  0  0  0  0  0  0  0  0  0  0
   -0.8914    0.1322   -1.2926 C   0  0  0  0  0  0  0  0  0  0  0  0
    0.2568    1.0127   -0.7992 C   0  0  0  0  0  0  0  0  0  0  0  0
    2.6982   -0.2596   -1.3597 H   0  0  0  0  0  0  0  0  0  0  0  0
    3.0446    1.0153   -0.1703 H   0  0  0  0  0  0  0  0  0  0  0  0
    3.0524   -0.7380    0.3658 H   0  0  0  0  0  0  0  0  0  0  0  0
    1.1862   -1.3026    1.5729 H   0  0  0  0  0  0  0  0  0  0  0  0
   -1.3065   -1.1758    1.8539 H   0  0  0  0  0  0  0  0  0  0  0  0
   -1.0053    0.5760    1.6158 H   0  0  0  0  0  0  0  0  0  0  0  0
   -1.6035   -1.6624   -0.4074 H   0  0  0  0  0  0  0  0  0  0  0  0
   -2.9899    0.7928    0.1711 H   0  0  0  0  0  0  0  0  0  0  0  0
   -1.5950    0.7170   -1.9278 H   0  0  0  0  0  0  0  0  0  0  0  0
   -0.4060   -0.5973   -2.0011 H   0  0  0  0  0  0  0  0  0  0  0  0
   -0.2035    1.7667   -0.1395 H   0  0  0  0  0  0  0  0  0  0  0  0
    0.8069    1.4204   -1.6462 H   0  0  0  0  0  0  0  0  0  0  0  0
  1  2  1  0
  2  3  2  0
  3  4  1  0
  4  5  1  0
  5  6  1  0
  5  7  1  0
  7  8  1  0
  8  2  1  0
  1  9  1  0
  1 10  1  0
  1 11  1  0
  3 12  1  0
  4 13  1  0
  4 14  1  0
  5 15  1  0
  6 16  1  0
  7 17  1  0
  7 18  1  0
  8 19  1  0
  8 20  1  0
M  END
