
     RDKit          3D

 19 20  0  0  0  0  0  0  0  0999 V2000
   -2.1731    1.2892    0.0247 C   0  0  0  0  0  0  0  0  0  0  0  0
   -1.2270    0.1658    0.1344 C   0  0  0  0  0  0  0  0  0  0  0  0
   -1.3716   -1.1291   -0.1550 C   0  0  0  0  0  0  0  0  0  0  0  0
   -0.0831   -1.7700    0.2465 C   0  0  0  0  0  0  0  0  0  0  0  0
    0.9325   -1.4364   -0.6387 O   0  0  0  0  0  0  0  0  0  0  0  0
    1.0725   -0.0479   -0.5354 C   0  0  0  0  0  0  0  0  0  0  0  0
    2.4855    0.3650   -0.2448 C   0  0  0  0  0  0  0  0  0  0  0  0
    0.1744    0.2696    0.6255 C   0  0  0  0  0  0  0  0  0  0  0  0
    0.2650   -0.9446    1.3474 O   0  0  0  0  0  0  0  0  0  0  0  0
   -1.8368    2.1286    0.6463 H   0  0  0  0  0  0  0  0  0  0  0  0
   -3.1472    0.9411    0.4419 H   0  0  0  0  0  0  0  0  0  0  0  0
   -2.3166    1.5955   -1.0372 H   0  0  0  0  0  0  0  0  0  0  0  0
   -2.2497   -1.5748   -0.5863 H   0  0  0  0  0  0  0  0  0  0  0  0
   -0.1533   -2.8110    0.4984 H   0  0  0  0  0  0  0  0  0  0  0  0
    0.6783    0.3833   -1.4854 H   0  0  0  0  0  0  0  0  0  0  0  0
    2.7579    1.2835   -0.8221 H   0  0  0  0  0  0  0  0  0  0  0  0
    3.1476   -0.4734   -0.4899 H   0  0  0  0  0  0  0  0  0  0  0  0
    2.6363    0.6246    0.8361 H   0  0  0  0  0  0  0  0  0  0  0  0
    0.4085    1.1408    1.1937 H   0  0  0  0  0  0  0  0  0  0  0  0
  1  2  1  0
  2  3  2  0
  3  4  1  0
  4  5  1  0
  5  6  1  0
  6  7  1  0
  6  8  1  0
  8  9  1  0
  8  2  1  0
  9  4  1  0
  1 10  1  0
  1 11  1  0
  1 12  1  0
  3 13  1  0
  4 14  1  0
  6 15  1  0
  7 16  1  0
  7 17  1  0
  7 18  1  0
  8 19  1  0
M  END
