
     RDKit          3D

 21 22  0  0  0  0  0  0  0  0999 V2000
    2.6696   -0.4991   -0.4363 C   0  0  0  0  0  0  0  0  0  0  0  0
    1.2350   -0.1989   -0.1815 C   0  0  0  0  0  0  0  0  0  0  0  0
    0.2523   -0.0616   -1.0683 C   0  0  0  0  0  0  0  0  0  0  0  0
   -0.9409    0.2287   -0.3237 C   0  0  0  0  0  0  0  0  0  0  0  0
   -0.9382    1.7128    0.1017 C   0  0  0  0  0  0  0  0  0  0  0  0
   -1.9406   -0.5217    0.3064 C   0  0  0  0  0  0  0  0  0  0  0  0
   -2.6282   -1.4447   -0.5252 O   0  0  0  0  0  0  0  0  0  0  0  0
   -0.6759   -0.7995    0.8281 C   0  0  0  0  0  0  0  0  0  0  0  0
    0.5664   -0.0334    1.1849 C   0  0  0  0  0  0  0  0  0  0  0  0
    3.2041   -0.5544    0.5173 H   0  0  0  0  0  0  0  0  0  0  0  0
    3.1111    0.2287   -1.1488 H   0  0  0  0  0  0  0  0  0  0  0  0
    2.7058   -1.5124   -0.9191 H   0  0  0  0  0  0  0  0  0  0  0  0
    0.4182   -0.1675   -2.1376 H   0  0  0  0  0  0  0  0  0  0  0  0
   -0.0098    2.2305   -0.0847 H   0  0  0  0  0  0  0  0  0  0  0  0
   -1.3745    1.8468    1.1076 H   0  0  0  0  0  0  0  0  0  0  0  0
   -1.6957    2.1781   -0.5982 H   0  0  0  0  0  0  0  0  0  0  0  0
   -2.7010   -0.0366    0.9641 H   0  0  0  0  0  0  0  0  0  0  0  0
   -2.5710   -1.1881   -1.4663 H   0  0  0  0  0  0  0  0  0  0  0  0
   -0.3077   -1.8311    0.5160 H   0  0  0  0  0  0  0  0  0  0  0  0
    0.4380    1.0000    1.4646 H   0  0  0  0  0  0  0  0  0  0  0  0
    1.1829   -0.5764    1.8994 H   0  0  0  0  0  0  0  0  0  0  0  0
  1  2  1  0
  2  3  2  0
  3  4  1  0
  4  5  1  0
  4  6  1  0
  6  7  1  0
  6  8  1  0
  8  9  1  0
  9  2  1  0
  8  4  1  0
  1 10  1  0
  1 11  1  0
  1 12  1  0
  3 13  1  0
  5 14  1  0
  5 15  1  0
  5 16  1  0
  6 17  1  0
  7 18  1  0
  8 19  1  0
  9 20  1  0
  9 21  1  0
M  END
