
     RDKit          3D

 21 22  0  0  0  0  0  0  0  0999 V2000
   -1.9884    1.4290    0.7260 C   0  0  0  0  0  0  0  0  0  0  0  0
   -1.2872    0.1609    0.2919 C   0  0  0  0  0  0  0  0  0  0  0  0
    0.0209   -0.0228    0.2494 C   0  0  0  0  0  0  0  0  0  0  0  0
    1.4990   -0.0349    0.2699 C   0  0  0  0  0  0  0  0  0  0  0  0
    2.1721    1.2721   -0.0560 C   0  0  0  0  0  0  0  0  0  0  0  0
    1.3888   -0.9718   -0.9557 C   0  0  0  0  0  0  0  0  0  0  0  0
    0.1571   -1.4589   -0.2304 C   0  0  0  0  0  0  0  0  0  0  0  0
   -0.9882   -1.6616   -0.9882 O   0  0  0  0  0  0  0  0  0  0  0  0
   -1.9782   -1.0669   -0.1629 C   0  0  0  0  0  0  0  0  0  0  0  0
   -2.9583    1.4715    0.1740 H   0  0  0  0  0  0  0  0  0  0  0  0
   -2.1903    1.3594    1.8163 H   0  0  0  0  0  0  0  0  0  0  0  0
   -1.3999    2.3214    0.4554 H   0  0  0  0  0  0  0  0  0  0  0  0
    1.8923   -0.6058    1.1071 H   0  0  0  0  0  0  0  0  0  0  0  0
    1.6303    1.7227   -0.8982 H   0  0  0  0  0  0  0  0  0  0  0  0
    2.1010    1.9279    0.8099 H   0  0  0  0  0  0  0  0  0  0  0  0
    3.2346    1.0515   -0.2824 H   0  0  0  0  0  0  0  0  0  0  0  0
    2.2428   -1.6542   -0.9847 H   0  0  0  0  0  0  0  0  0  0  0  0
    1.1509   -0.4489   -1.8870 H   0  0  0  0  0  0  0  0  0  0  0  0
    0.3395   -2.1791    0.5789 H   0  0  0  0  0  0  0  0  0  0  0  0
   -2.8784   -0.8835   -0.7529 H   0  0  0  0  0  0  0  0  0  0  0  0
   -2.1606   -1.7282    0.7198 H   0  0  0  0  0  0  0  0  0  0  0  0
  1  2  1  0
  2  3  2  0
  3  4  1  0
  4  5  1  0
  4  6  1  0
  6  7  1  0
  7  8  1  0
  8  9  1  0
  9  2  1  0
  7  3  1  0
  1 10  1  0
  1 11  1  0
  1 12  1  0
  4 13  1  0
  5 14  1  0
  5 15  1  0
  5 16  1  0
  6 17  1  0
  6 18  1  0
  7 19  1  0
  9 20  1  0
  9 21  1  0
M  END
