
     RDKit          3D

 20 21  0  0  0  0  0  0  0  0999 V2000
    2.3947   -1.0043    0.5474 C   0  0  0  0  0  0  0  0  0  0  0  0
    1.2427   -0.1301    0.2273 C   0  0  0  0  0  0  0  0  0  0  0  0
    1.1065    0.6209   -0.8643 C   0  0  0  0  0  0  0  0  0  0  0  0
   -0.2112    1.3580   -0.8029 C   0  0  0  0  0  0  0  0  0  0  0  0
   -0.9758    0.4402    0.0799 C   0  0  0  0  0  0  0  0  0  0  0  0
   -1.6073   -0.7642   -0.6541 C   0  0  0  0  0  0  0  0  0  0  0  0
   -2.3940    0.2366    0.1138 C   0  0  0  0  0  0  0  0  0  0  0  0
    0.0230    0.0478    1.1047 C   0  0  0  0  0  0  0  0  0  0  0  0
    2.6025   -1.7399   -0.2591 H   0  0  0  0  0  0  0  0  0  0  0  0
    2.2227   -1.5402    1.4911 H   0  0  0  0  0  0  0  0  0  0  0  0
    3.2786   -0.3500    0.7102 H   0  0  0  0  0  0  0  0  0  0  0  0
    1.7924    0.7164   -1.6757 H   0  0  0  0  0  0  0  0  0  0  0  0
   -0.6358    1.5084   -1.7946 H   0  0  0  0  0  0  0  0  0  0  0  0
   -0.0045    2.3159   -0.2695 H   0  0  0  0  0  0  0  0  0  0  0  0
   -1.5632   -0.7688   -1.7504 H   0  0  0  0  0  0  0  0  0  0  0  0
   -1.4802   -1.7607   -0.2004 H   0  0  0  0  0  0  0  0  0  0  0  0
   -2.8509   -0.1000    1.0849 H   0  0  0  0  0  0  0  0  0  0  0  0
   -3.0239    0.9098   -0.5171 H   0  0  0  0  0  0  0  0  0  0  0  0
   -0.2033   -0.8829    1.6401 H   0  0  0  0  0  0  0  0  0  0  0  0
    0.2869    0.8871    1.7888 H   0  0  0  0  0  0  0  0  0  0  0  0
  1  2  1  0
  2  3  2  0
  3  4  1  0
  4  5  1  0
  5  6  1  0
  6  7  1  0
  5  8  1  0
  8  2  1  0
  7  5  1  0
  1  9  1  0
  1 10  1  0
  1 11  1  0
  3 12  1  0
  4 13  1  0
  4 14  1  0
  6 15  1  0
  6 16  1  0
  7 17  1  0
  7 18  1  0
  8 19  1  0
  8 20  1  0
M  END
