
     RDKit          3D

 23 23  0  0  0  0  0  0  0  0999 V2000
    2.8374   -0.3988   -0.4300 C   0  0  0  0  0  0  0  0  0  0  0  0
    1.4497    0.0152   -0.1606 C   0  0  0  0  0  0  0  0  0  0  0  0
    0.9139    1.2030   -0.4066 C   0  0  0  0  0  0  0  0  0  0  0  0
   -0.5226    1.2538    0.0011 C   0  0  0  0  0  0  0  0  0  0  0  0
   -0.5825    1.9056    1.2190 O   0  0  0  0  0  0  0  0  0  0  0  0
   -0.9097   -0.1840    0.0879 C   0  0  0  0  0  0  0  0  0  0  0  0
   -1.8924   -0.4713    1.1953 C   0  0  0  0  0  0  0  0  0  0  0  0
   -1.4810   -0.6411   -1.2124 C   0  0  0  0  0  0  0  0  0  0  0  0
    0.3950   -0.8533    0.4458 C   0  0  0  0  0  0  0  0  0  0  0  0
    3.0613   -1.3770    0.0582 H   0  0  0  0  0  0  0  0  0  0  0  0
    3.5961    0.3112   -0.0469 H   0  0  0  0  0  0  0  0  0  0  0  0
    3.0623   -0.5436   -1.5060 H   0  0  0  0  0  0  0  0  0  0  0  0
    1.5036    2.0140   -0.8573 H   0  0  0  0  0  0  0  0  0  0  0  0
   -1.0490    1.8066   -0.8096 H   0  0  0  0  0  0  0  0  0  0  0  0
   -0.0074    2.7223    1.1278 H   0  0  0  0  0  0  0  0  0  0  0  0
   -2.0008   -1.5765    1.2557 H   0  0  0  0  0  0  0  0  0  0  0  0
   -2.9111   -0.0840    0.9575 H   0  0  0  0  0  0  0  0  0  0  0  0
   -1.5320   -0.1376    2.1828 H   0  0  0  0  0  0  0  0  0  0  0  0
   -0.7050   -1.1585   -1.8289 H   0  0  0  0  0  0  0  0  0  0  0  0
   -2.3885   -1.2984   -1.0860 H   0  0  0  0  0  0  0  0  0  0  0  0
   -1.8289    0.2278   -1.8428 H   0  0  0  0  0  0  0  0  0  0  0  0
    0.4576   -1.8996    0.1104 H   0  0  0  0  0  0  0  0  0  0  0  0
    0.5341   -0.8360    1.5456 H   0  0  0  0  0  0  0  0  0  0  0  0
  1  2  1  0
  2  3  2  0
  3  4  1  0
  4  5  1  0
  4  6  1  0
  6  7  1  0
  6  8  1  0
  6  9  1  0
  9  2  1  0
  1 10  1  0
  1 11  1  0
  1 12  1  0
  3 13  1  0
  4 14  1  0
  5 15  1  0
  7 16  1  0
  7 17  1  0
  7 18  1  0
  8 19  1  0
  8 20  1  0
  8 21  1  0
  9 22  1  0
  9 23  1  0
M  END
