
     RDKit          3D

 19 19  0  0  0  0  0  0  0  0999 V2000
    2.1892   -0.2251   -0.4741 C   0  0  0  0  0  0  0  0  0  0  0  0
    0.7382   -0.4295   -0.2360 C   0  0  0  0  0  0  0  0  0  0  0  0
    0.0210   -1.4503   -0.6591 C   0  0  0  0  0  0  0  0  0  0  0  0
   -1.3824   -1.2884   -0.2183 C   0  0  0  0  0  0  0  0  0  0  0  0
   -1.2597   -0.3320    0.9011 C   0  0  0  0  0  0  0  0  0  0  0  0
   -1.9672   -0.2924    1.8764 O   0  0  0  0  0  0  0  0  0  0  0  0
   -0.1037    0.5254    0.5412 C   0  0  0  0  0  0  0  0  0  0  0  0
   -0.6337    1.6312   -0.3562 C   0  0  0  0  0  0  0  0  0  0  0  0
    0.5521    1.0555    1.6224 O   0  0  0  0  0  0  0  0  0  0  0  0
    2.3906    0.7963   -0.9053 H   0  0  0  0  0  0  0  0  0  0  0  0
    2.6351   -1.0254   -1.0749 H   0  0  0  0  0  0  0  0  0  0  0  0
    2.6773   -0.2776    0.5380 H   0  0  0  0  0  0  0  0  0  0  0  0
    0.3577   -2.3111   -1.2478 H   0  0  0  0  0  0  0  0  0  0  0  0
   -1.9417   -0.8217   -1.0653 H   0  0  0  0  0  0  0  0  0  0  0  0
   -1.8487   -2.2484    0.0876 H   0  0  0  0  0  0  0  0  0  0  0  0
   -0.6336    1.2636   -1.4069 H   0  0  0  0  0  0  0  0  0  0  0  0
   -1.7022    1.8494   -0.0956 H   0  0  0  0  0  0  0  0  0  0  0  0
   -0.0418    2.5637   -0.2288 H   0  0  0  0  0  0  0  0  0  0  0  0
   -0.0466    1.0168    2.4017 H   0  0  0  0  0  0  0  0  0  0  0  0
  1  2  1  0
  2  3  2  0
  3  4  1  0
  4  5  1  0
  5  6  2  0
  5  7  1  0
  7  8  1  0
  7  9  1  0
  7  2  1  0
  1 10  1  0
  1 11  1  0
  1 12  1  0
  3 13  1  0
  4 14  1  0
  4 15  1  0
  8 16  1  0
  8 17  1  0
  8 18  1  0
  9 19  1  0
M  END
