
     RDKit          3D

 21 22  0  0  0  0  0  0  0  0999 V2000
    2.5903   -0.8796   -0.0516 C   0  0  0  0  0  0  0  0  0  0  0  0
    1.2360   -0.2873    0.1210 C   0  0  0  0  0  0  0  0  0  0  0  0
    0.2384   -1.1100    0.4722 C   0  0  0  0  0  0  0  0  0  0  0  0
   -1.1470   -0.7279    0.6894 C   0  0  0  0  0  0  0  0  0  0  0  0
   -2.3147   -0.8642   -0.1031 C   0  0  0  0  0  0  0  0  0  0  0  0
   -1.4528    0.1804   -0.5566 C   0  0  0  0  0  0  0  0  0  0  0  0
   -1.2379    1.5538   -0.0770 C   0  0  0  0  0  0  0  0  0  0  0  0
   -0.0208    1.6593    0.5753 O   0  0  0  0  0  0  0  0  0  0  0  0
    1.0789    1.2033   -0.1160 C   0  0  0  0  0  0  0  0  0  0  0  0
    3.2080   -0.2607   -0.7053 H   0  0  0  0  0  0  0  0  0  0  0  0
    3.0171   -1.0376    0.9639 H   0  0  0  0  0  0  0  0  0  0  0  0
    2.4606   -1.8674   -0.5186 H   0  0  0  0  0  0  0  0  0  0  0  0
    0.5655   -2.1367    0.5870 H   0  0  0  0  0  0  0  0  0  0  0  0
   -1.2771   -0.2259    1.6973 H   0  0  0  0  0  0  0  0  0  0  0  0
   -3.2999   -0.5602    0.3419 H   0  0  0  0  0  0  0  0  0  0  0  0
   -2.4507   -1.7655   -0.7271 H   0  0  0  0  0  0  0  0  0  0  0  0
   -0.8750   -0.0351   -1.4873 H   0  0  0  0  0  0  0  0  0  0  0  0
   -1.2788    2.3122   -0.8932 H   0  0  0  0  0  0  0  0  0  0  0  0
   -2.0174    1.7856    0.6971 H   0  0  0  0  0  0  0  0  0  0  0  0
    1.9804    1.6665    0.3031 H   0  0  0  0  0  0  0  0  0  0  0  0
    0.9968    1.3972   -1.2125 H   0  0  0  0  0  0  0  0  0  0  0  0
  1  2  1  0
  2  3  2  0
  3  4  1  0
  4  5  1  0
  5  6  1  0
  6  7  1  0
  7  8  1  0
  8  9  1  0
  9  2  1  0
  6  4  1  0
  1 10  1  0
  1 11  1  0
  1 12  1  0
  3 13  1  0
  4 14  1  0
  5 15  1  0
  5 16  1  0
  6 17  1  0
  7 18  1  0
  7 19  1  0
  9 20  1  0
  9 21  1  0
M  END
