
     RDKit          3D

 19 19  0  0  0  0  0  0  0  0999 V2000
    2.2777    0.5353   -0.3336 C   0  0  0  0  0  0  0  0  0  0  0  0
    0.9988   -0.1917   -0.1083 C   0  0  0  0  0  0  0  0  0  0  0  0
    0.7674   -1.4615   -0.4069 C   0  0  0  0  0  0  0  0  0  0  0  0
   -0.5946   -1.8402   -0.0491 C   0  0  0  0  0  0  0  0  0  0  0  0
   -1.2752   -2.7936   -0.5116 O   0  0  0  0  0  0  0  0  0  0  0  0
   -1.0141   -0.8407    0.9979 C   0  0  0  0  0  0  0  0  0  0  0  0
   -0.2365    0.3817    0.4896 C   0  0  0  0  0  0  0  0  0  0  0  0
   -1.1255    1.0127   -0.5682 C   0  0  0  0  0  0  0  0  0  0  0  0
   -2.2471    1.5125    0.1166 O   0  0  0  0  0  0  0  0  0  0  0  0
    2.6793    0.8447    0.6700 H   0  0  0  0  0  0  0  0  0  0  0  0
    2.9956   -0.1190   -0.8554 H   0  0  0  0  0  0  0  0  0  0  0  0
    2.1407    1.4277   -0.9874 H   0  0  0  0  0  0  0  0  0  0  0  0
    1.4717   -2.1758   -0.8633 H   0  0  0  0  0  0  0  0  0  0  0  0
   -2.0893   -0.6747    1.0084 H   0  0  0  0  0  0  0  0  0  0  0  0
   -0.5700   -1.0886    1.9753 H   0  0  0  0  0  0  0  0  0  0  0  0
   -0.0500    1.1120    1.2748 H   0  0  0  0  0  0  0  0  0  0  0  0
   -1.5420    0.2062   -1.2408 H   0  0  0  0  0  0  0  0  0  0  0  0
   -0.5915    1.7880   -1.1170 H   0  0  0  0  0  0  0  0  0  0  0  0
   -1.9954    2.3650    0.5090 H   0  0  0  0  0  0  0  0  0  0  0  0
  1  2  1  0
  2  3  2  0
  3  4  1  0
  4  5  2  0
  4  6  1  0
  6  7  1  0
  7  8  1  0
  8  9  1  0
  7  2  1  0
  1 10  1  0
  1 11  1  0
  1 12  1  0
  3 13  1  0
  6 14  1  0
  6 15  1  0
  7 16  1  0
  8 17  1  0
  8 18  1  0
  9 19  1  0
M  END
