
     RDKit          3D

 19 20  0  0  0  0  0  0  0  0999 V2000
    2.4154    0.3651   -0.5502 C   0  0  0  0  0  0  0  0  0  0  0  0
    0.9412    0.2272   -0.5014 C   0  0  0  0  0  0  0  0  0  0  0  0
    0.0826    1.2344   -0.5167 C   0  0  0  0  0  0  0  0  0  0  0  0
   -1.3210    0.9553   -0.0975 C   0  0  0  0  0  0  0  0  0  0  0  0
   -1.1582    0.0555    1.1398 C   0  0  0  0  0  0  0  0  0  0  0  0
   -1.0640   -1.0682    0.0992 C   0  0  0  0  0  0  0  0  0  0  0  0
    0.3360   -1.1357   -0.4287 C   0  0  0  0  0  0  0  0  0  0  0  0
   -1.9034   -0.2067   -0.7684 C   0  0  0  0  0  0  0  0  0  0  0  0
   -2.7131   -0.3875   -1.6449 O   0  0  0  0  0  0  0  0  0  0  0  0
    2.7924    1.2654   -0.0336 H   0  0  0  0  0  0  0  0  0  0  0  0
    2.8198    0.3875   -1.5804 H   0  0  0  0  0  0  0  0  0  0  0  0
    2.8922   -0.5083   -0.0205 H   0  0  0  0  0  0  0  0  0  0  0  0
    0.4017    2.2103   -0.8224 H   0  0  0  0  0  0  0  0  0  0  0  0
   -1.9579    1.8321    0.0617 H   0  0  0  0  0  0  0  0  0  0  0  0
   -0.2094    0.1458    1.6605 H   0  0  0  0  0  0  0  0  0  0  0  0
   -2.0326    0.0157    1.7857 H   0  0  0  0  0  0  0  0  0  0  0  0
   -1.5196   -2.0115    0.4218 H   0  0  0  0  0  0  0  0  0  0  0  0
    0.9157   -1.8083    0.2449 H   0  0  0  0  0  0  0  0  0  0  0  0
    0.2821   -1.5681   -1.4690 H   0  0  0  0  0  0  0  0  0  0  0  0
  1  2  1  0
  2  3  2  0
  3  4  1  0
  4  5  1  0
  5  6  1  0
  6  7  1  0
  6  8  1  0
  8  9  2  0
  7  2  1  0
  8  4  1  0
  1 10  1  0
  1 11  1  0
  1 12  1  0
  3 13  1  0
  4 14  1  0
  5 15  1  0
  5 16  1  0
  6 17  1  0
  7 18  1  0
  7 19  1  0
M  END
