
     RDKit          3D

 21 21  0  0  0  0  0  0  0  0999 V2000
   -1.5054   -1.6267   -0.0559 C   0  0  0  0  0  0  0  0  0  0  0  0
   -1.1441   -0.2027   -0.0565 C   0  0  0  0  0  0  0  0  0  0  0  0
    0.0367    0.3530   -0.1994 C   0  0  0  0  0  0  0  0  0  0  0  0
    1.3324   -0.3291   -0.4008 C   0  0  0  0  0  0  0  0  0  0  0  0
    2.2524    0.0390    0.7339 C   0  0  0  0  0  0  0  0  0  0  0  0
    1.2219   -1.6762   -0.6180 O   0  0  0  0  0  0  0  0  0  0  0  0
   -0.0996    1.8404   -0.1295 C   0  0  0  0  0  0  0  0  0  0  0  0
   -1.4477    2.0878   -0.1537 O   0  0  0  0  0  0  0  0  0  0  0  0
   -2.1150    0.9167    0.1154 C   0  0  0  0  0  0  0  0  0  0  0  0
   -0.7693   -2.2844    0.4442 H   0  0  0  0  0  0  0  0  0  0  0  0
   -2.4627   -1.7692    0.5273 H   0  0  0  0  0  0  0  0  0  0  0  0
   -1.7700   -2.0038   -1.0880 H   0  0  0  0  0  0  0  0  0  0  0  0
    1.7822    0.1253   -1.3321 H   0  0  0  0  0  0  0  0  0  0  0  0
    2.4406    1.1366    0.6768 H   0  0  0  0  0  0  0  0  0  0  0  0
    1.6873   -0.1011    1.6987 H   0  0  0  0  0  0  0  0  0  0  0  0
    3.1820   -0.5532    0.7345 H   0  0  0  0  0  0  0  0  0  0  0  0
    2.0363   -1.9662   -1.1183 H   0  0  0  0  0  0  0  0  0  0  0  0
    0.3749    2.2237   -1.0798 H   0  0  0  0  0  0  0  0  0  0  0  0
    0.4252    2.2191    0.7547 H   0  0  0  0  0  0  0  0  0  0  0  0
   -2.9515    0.7104   -0.6030 H   0  0  0  0  0  0  0  0  0  0  0  0
   -2.5066    0.8604    1.1497 H   0  0  0  0  0  0  0  0  0  0  0  0
  1  2  1  0
  2  3  2  0
  3  4  1  0
  4  5  1  0
  4  6  1  0
  3  7  1  0
  7  8  1  0
  8  9  1  0
  9  2  1  0
  1 10  1  0
  1 11  1  0
  1 12  1  0
  4 13  1  0
  5 14  1  0
  5 15  1  0
  5 16  1  0
  6 17  1  0
  7 18  1  0
  7 19  1  0
  9 20  1  0
  9 21  1  0
M  END
