
     RDKit          3D

 18 19  0  0  0  0  0  0  0  0999 V2000
    2.1488   -0.2689    0.2293 C   0  0  0  0  0  0  0  0  0  0  0  0
    0.6676   -0.3988    0.2025 C   0  0  0  0  0  0  0  0  0  0  0  0
   -0.0611   -1.4129    0.6138 C   0  0  0  0  0  0  0  0  0  0  0  0
   -1.5152   -1.1639    0.4190 C   0  0  0  0  0  0  0  0  0  0  0  0
   -1.4586   -0.1015   -0.6903 C   0  0  0  0  0  0  0  0  0  0  0  0
   -0.2409    0.6465   -0.3142 C   0  0  0  0  0  0  0  0  0  0  0  0
    0.0908    1.9604   -0.4848 C   0  0  0  0  0  0  0  0  0  0  0  0
   -0.5598    1.6360    0.7534 O   0  0  0  0  0  0  0  0  0  0  0  0
    2.6634   -1.2176    0.4661 H   0  0  0  0  0  0  0  0  0  0  0  0
    2.5401    0.0628   -0.7699 H   0  0  0  0  0  0  0  0  0  0  0  0
    2.4613    0.5065    0.9687 H   0  0  0  0  0  0  0  0  0  0  0  0
    0.3760   -2.3204    1.0444 H   0  0  0  0  0  0  0  0  0  0  0  0
   -1.9836   -2.0842    0.0736 H   0  0  0  0  0  0  0  0  0  0  0  0
   -1.9999   -0.7038    1.2856 H   0  0  0  0  0  0  0  0  0  0  0  0
   -1.3375   -0.6407   -1.6378 H   0  0  0  0  0  0  0  0  0  0  0  0
   -2.3841    0.4874   -0.7323 H   0  0  0  0  0  0  0  0  0  0  0  0
   -0.5102    2.6620   -1.1277 H   0  0  0  0  0  0  0  0  0  0  0  0
    1.1028    2.3510   -0.2993 H   0  0  0  0  0  0  0  0  0  0  0  0
  1  2  1  0
  2  3  2  0
  3  4  1  0
  4  5  1  0
  5  6  1  0
  6  7  1  0
  7  8  1  0
  6  2  1  0
  8  6  1  0
  1  9  1  0
  1 10  1  0
  1 11  1  0
  3 12  1  0
  4 13  1  0
  4 14  1  0
  5 15  1  0
  5 16  1  0
  7 17  1  0
  7 18  1  0
M  END
