
     RDKit          3D

 21 21  0  0  0  0  0  0  0  0999 V2000
    2.2385   -0.9311    0.6476 C   0  0  0  0  0  0  0  0  0  0  0  0
    0.8396   -0.5894    0.2544 C   0  0  0  0  0  0  0  0  0  0  0  0
   -0.1165   -1.3708   -0.2152 C   0  0  0  0  0  0  0  0  0  0  0  0
   -1.3693   -0.5882   -0.4724 C   0  0  0  0  0  0  0  0  0  0  0  0
   -2.4521   -1.3170   -0.0385 O   0  0  0  0  0  0  0  0  0  0  0  0
   -1.1637    0.5583    0.4891 C   0  0  0  0  0  0  0  0  0  0  0  0
   -1.9490    1.6525    0.2070 O   0  0  0  0  0  0  0  0  0  0  0  0
    0.3030    0.7925    0.3457 C   0  0  0  0  0  0  0  0  0  0  0  0
    0.6706    1.4830   -0.9436 C   0  0  0  0  0  0  0  0  0  0  0  0
    2.2127   -1.2926    1.6975 H   0  0  0  0  0  0  0  0  0  0  0  0
    2.5724   -1.7228   -0.0609 H   0  0  0  0  0  0  0  0  0  0  0  0
    2.9287   -0.0949    0.5409 H   0  0  0  0  0  0  0  0  0  0  0  0
   -0.0390   -2.4207   -0.3979 H   0  0  0  0  0  0  0  0  0  0  0  0
   -1.4728   -0.2776   -1.5145 H   0  0  0  0  0  0  0  0  0  0  0  0
   -2.6249   -2.1376   -0.5487 H   0  0  0  0  0  0  0  0  0  0  0  0
   -1.3476    0.1637    1.5091 H   0  0  0  0  0  0  0  0  0  0  0  0
   -2.3999    1.9367    1.0629 H   0  0  0  0  0  0  0  0  0  0  0  0
    0.7379    1.2858    1.2346 H   0  0  0  0  0  0  0  0  0  0  0  0
    1.7359    1.7607   -0.8719 H   0  0  0  0  0  0  0  0  0  0  0  0
    0.0870    2.3813   -1.1453 H   0  0  0  0  0  0  0  0  0  0  0  0
    0.6087    0.7282   -1.7801 H   0  0  0  0  0  0  0  0  0  0  0  0
  1  2  1  0
  2  3  2  0
  3  4  1  0
  4  5  1  0
  4  6  1  0
  6  7  1  0
  6  8  1  0
  8  9  1  0
  8  2  1  0
  1 10  1  0
  1 11  1  0
  1 12  1  0
  3 13  1  0
  4 14  1  0
  5 15  1  0
  6 16  1  0
  7 17  1  0
  8 18  1  0
  9 19  1  0
  9 20  1  0
  9 21  1  0
M  END
