
     RDKit          3D

 19 21  0  0  0  0  0  0  0  0999 V2000
    2.5318   -0.9837   -0.2687 C   0  0  0  0  0  0  0  0  0  0  0  0
    1.3168   -0.1302   -0.1828 C   0  0  0  0  0  0  0  0  0  0  0  0
    1.1497    1.0649   -0.7344 C   0  0  0  0  0  0  0  0  0  0  0  0
   -0.2169    1.5959   -0.4134 C   0  0  0  0  0  0  0  0  0  0  0  0
   -1.1689    0.8602   -1.1090 O   0  0  0  0  0  0  0  0  0  0  0  0
   -1.1918   -0.1137   -0.1252 C   0  0  0  0  0  0  0  0  0  0  0  0
   -2.5196   -0.6842    0.2239 C   0  0  0  0  0  0  0  0  0  0  0  0
    0.0664   -0.4990    0.5565 C   0  0  0  0  0  0  0  0  0  0  0  0
   -0.5562    0.7968    0.8073 C   0  0  0  0  0  0  0  0  0  0  0  0
    3.4704   -0.4086   -0.1422 H   0  0  0  0  0  0  0  0  0  0  0  0
    2.5329   -1.7567    0.5295 H   0  0  0  0  0  0  0  0  0  0  0  0
    2.6184   -1.4752   -1.2750 H   0  0  0  0  0  0  0  0  0  0  0  0
    1.8578    1.6207   -1.3351 H   0  0  0  0  0  0  0  0  0  0  0  0
   -0.3259    2.6696   -0.3804 H   0  0  0  0  0  0  0  0  0  0  0  0
   -2.5126   -1.7583    0.4487 H   0  0  0  0  0  0  0  0  0  0  0  0
   -3.2287   -0.5366   -0.6238 H   0  0  0  0  0  0  0  0  0  0  0  0
   -2.9749   -0.1103    1.0775 H   0  0  0  0  0  0  0  0  0  0  0  0
    0.0792   -1.3478    1.2268 H   0  0  0  0  0  0  0  0  0  0  0  0
   -0.9277    1.1962    1.7198 H   0  0  0  0  0  0  0  0  0  0  0  0
  1  2  1  0
  2  3  2  0
  3  4  1  0
  4  5  1  0
  5  6  1  0
  6  7  1  0
  6  8  1  0
  8  9  1  0
  8  2  1  0
  9  4  1  0
  9  6  1  0
  1 10  1  0
  1 11  1  0
  1 12  1  0
  3 13  1  0
  4 14  1  0
  7 15  1  0
  7 16  1  0
  7 17  1  0
  8 18  1  0
  9 19  1  0
M  END
