
     RDKit          3D

 15 15  0  0  0  0  0  0  0  0999 V2000
   -2.0862    0.1186   -0.0820 C   0  0  0  0  0  0  0  0  0  0  0  0
   -0.5841    0.1788   -0.0387 C   0  0  0  0  0  0  0  0  0  0  0  0
    0.1935    1.0131   -0.7075 C   0  0  0  0  0  0  0  0  0  0  0  0
    1.5932    0.7417   -0.3870 C   0  0  0  0  0  0  0  0  0  0  0  0
    2.5191    1.5682   -0.5102 O   0  0  0  0  0  0  0  0  0  0  0  0
    1.5732   -0.6685    0.0796 C   0  0  0  0  0  0  0  0  0  0  0  0
    0.2463   -0.7118    0.7959 C   0  0  0  0  0  0  0  0  0  0  0  0
   -2.4846    0.6522   -0.9706 H   0  0  0  0  0  0  0  0  0  0  0  0
   -2.3677   -0.9635   -0.1885 H   0  0  0  0  0  0  0  0  0  0  0  0
   -2.5425    0.5928    0.8003 H   0  0  0  0  0  0  0  0  0  0  0  0
   -0.2155    1.7620   -1.3761 H   0  0  0  0  0  0  0  0  0  0  0  0
    2.4291   -0.9216    0.7280 H   0  0  0  0  0  0  0  0  0  0  0  0
    1.4810   -1.3329   -0.8089 H   0  0  0  0  0  0  0  0  0  0  0  0
   -0.1481   -1.7466    0.8445 H   0  0  0  0  0  0  0  0  0  0  0  0
    0.3933   -0.2823    1.8211 H   0  0  0  0  0  0  0  0  0  0  0  0
  1  2  1  0
  2  3  2  0
  3  4  1  0
  4  5  2  0
  4  6  1  0
  6  7  1  0
  7  2  1  0
  1  8  1  0
  1  9  1  0
  1 10  1  0
  3 11  1  0
  6 12  1  0
  6 13  1  0
  7 14  1  0
  7 15  1  0
M  END
