
     RDKit          3D

 17 17  0  0  0  0  0  0  0  0999 V2000
   -0.5869   -1.9022   -0.0285 C   0  0  0  0  0  0  0  0  0  0  0  0
   -0.4236   -0.4029   -0.0001 C   0  0  0  0  0  0  0  0  0  0  0  0
    0.7143    0.2532   -0.0053 C   0  0  0  0  0  0  0  0  0  0  0  0
    2.0977   -0.2943   -0.0393 C   0  0  0  0  0  0  0  0  0  0  0  0
    0.3925    1.6732    0.0294 C   0  0  0  0  0  0  0  0  0  0  0  0
    1.2241    2.6338    0.0356 O   0  0  0  0  0  0  0  0  0  0  0  0
   -1.0520    1.8566    0.0570 C   0  0  0  0  0  0  0  0  0  0  0  0
   -1.7215    2.9199    0.0899 O   0  0  0  0  0  0  0  0  0  0  0  0
   -1.6015    0.4820    0.0376 C   0  0  0  0  0  0  0  0  0  0  0  0
   -1.2642   -2.1161   -0.8822 H   0  0  0  0  0  0  0  0  0  0  0  0
    0.3746   -2.4148   -0.0867 H   0  0  0  0  0  0  0  0  0  0  0  0
   -1.1721   -2.1662    0.8949 H   0  0  0  0  0  0  0  0  0  0  0  0
    2.6043    0.0781   -0.9647 H   0  0  0  0  0  0  0  0  0  0  0  0
    2.6904    0.1516    0.8092 H   0  0  0  0  0  0  0  0  0  0  0  0
    2.1289   -1.3777    0.0391 H   0  0  0  0  0  0  0  0  0  0  0  0
   -2.1671    0.3063   -0.9136 H   0  0  0  0  0  0  0  0  0  0  0  0
   -2.2379    0.3198    0.9278 H   0  0  0  0  0  0  0  0  0  0  0  0
  1  2  1  0
  2  3  2  0
  3  4  1  0
  3  5  1  0
  5  6  2  0
  5  7  1  0
  7  8  2  0
  7  9  1  0
  9  2  1  0
  1 10  1  0
  1 11  1  0
  1 12  1  0
  4 13  1  0
  4 14  1  0
  4 15  1  0
  9 16  1  0
  9 17  1  0
M  END
