
     RDKit          3D

 19 19  0  0  0  0  0  0  0  0999 V2000
   -0.0142    1.8530   -0.0660 C   0  0  0  0  0  0  0  0  0  0  0  0
   -0.0174    0.3880   -0.1915 C   0  0  0  0  0  0  0  0  0  0  0  0
    1.1146   -0.3303   -0.1705 C   0  0  0  0  0  0  0  0  0  0  0  0
    2.4609    0.1864   -0.0284 C   0  0  0  0  0  0  0  0  0  0  0  0
    2.7185    1.4127    0.0953 O   0  0  0  0  0  0  0  0  0  0  0  0
    0.7376   -1.7371   -0.3183 C   0  0  0  0  0  0  0  0  0  0  0  0
   -0.6222   -1.8062   -0.1209 O   0  0  0  0  0  0  0  0  0  0  0  0
   -1.1515   -0.5577   -0.3549 C   0  0  0  0  0  0  0  0  0  0  0  0
   -2.1958   -0.2286    0.6944 C   0  0  0  0  0  0  0  0  0  0  0  0
    0.5646    2.2541   -0.9447 H   0  0  0  0  0  0  0  0  0  0  0  0
    0.6100    2.0947    0.8385 H   0  0  0  0  0  0  0  0  0  0  0  0
   -1.0071    2.2982   -0.0016 H   0  0  0  0  0  0  0  0  0  0  0  0
    3.2852   -0.4893   -0.0262 H   0  0  0  0  0  0  0  0  0  0  0  0
    1.2945   -2.3696    0.4194 H   0  0  0  0  0  0  0  0  0  0  0  0
    1.0059   -2.0663   -1.3317 H   0  0  0  0  0  0  0  0  0  0  0  0
   -1.5531   -0.4173   -1.3759 H   0  0  0  0  0  0  0  0  0  0  0  0
   -1.7075    0.3202    1.5209 H   0  0  0  0  0  0  0  0  0  0  0  0
   -2.9789    0.3835    0.2463 H   0  0  0  0  0  0  0  0  0  0  0  0
   -2.5442   -1.1884    1.1159 H   0  0  0  0  0  0  0  0  0  0  0  0
  1  2  1  0
  2  3  2  0
  3  4  1  0
  4  5  2  0
  3  6  1  0
  6  7  1  0
  7  8  1  0
  8  9  1  0
  8  2  1  0
  1 10  1  0
  1 11  1  0
  1 12  1  0
  4 13  1  0
  6 14  1  0
  6 15  1  0
  8 16  1  0
  9 17  1  0
  9 18  1  0
  9 19  1  0
M  END
