
     RDKit          3D

 18 18  0  0  0  0  0  0  0  0999 V2000
   -2.5985    0.1740   -0.7525 C   0  0  0  0  0  0  0  0  0  0  0  0
   -1.2289   -0.0240   -0.2190 C   0  0  0  0  0  0  0  0  0  0  0  0
   -0.2919    0.8483    0.1036 C   0  0  0  0  0  0  0  0  0  0  0  0
    0.8798    0.0892    0.5861 C   0  0  0  0  0  0  0  0  0  0  0  0
    2.1865    0.7812    0.2656 C   0  0  0  0  0  0  0  0  0  0  0  0
    3.2077   -0.0638    0.7056 O   0  0  0  0  0  0  0  0  0  0  0  0
    0.7623   -1.1274   -0.0350 O   0  0  0  0  0  0  0  0  0  0  0  0
   -0.6101   -1.3738    0.0635 C   0  0  0  0  0  0  0  0  0  0  0  0
   -3.2137   -0.7107   -0.4706 H   0  0  0  0  0  0  0  0  0  0  0  0
   -2.5332    0.3137   -1.8423 H   0  0  0  0  0  0  0  0  0  0  0  0
   -3.1157    1.0465   -0.2579 H   0  0  0  0  0  0  0  0  0  0  0  0
   -0.4383    1.9325    0.0010 H   0  0  0  0  0  0  0  0  0  0  0  0
    0.7681    0.0027    1.6909 H   0  0  0  0  0  0  0  0  0  0  0  0
    2.2342    1.7151    0.8336 H   0  0  0  0  0  0  0  0  0  0  0  0
    2.3000    0.8912   -0.8238 H   0  0  0  0  0  0  0  0  0  0  0  0
    3.4629   -0.7362    0.0258 H   0  0  0  0  0  0  0  0  0  0  0  0
   -0.9610   -2.0491   -0.7150 H   0  0  0  0  0  0  0  0  0  0  0  0
   -0.8102   -1.7095    1.0860 H   0  0  0  0  0  0  0  0  0  0  0  0
  1  2  1  0
  2  3  2  0
  3  4  1  0
  4  5  1  0
  5  6  1  0
  4  7  1  0
  7  8  1  0
  8  2  1  0
  1  9  1  0
  1 10  1  0
  1 11  1  0
  3 12  1  0
  4 13  1  0
  5 14  1  0
  5 15  1  0
  6 16  1  0
  8 17  1  0
  8 18  1  0
M  END
