
     RDKit          3D

 17 17  0  0  0  0  0  0  0  0999 V2000
    1.9981    0.7380   -0.2417 C   0  0  0  0  0  0  0  0  0  0  0  0
    0.5731    0.3427   -0.0708 C   0  0  0  0  0  0  0  0  0  0  0  0
   -0.3330    1.2881   -0.2235 C   0  0  0  0  0  0  0  0  0  0  0  0
   -1.7475    0.9755   -0.0718 C   0  0  0  0  0  0  0  0  0  0  0  0
   -2.6578    1.8286   -0.2036 O   0  0  0  0  0  0  0  0  0  0  0  0
   -2.0444   -0.3641    0.2374 O   0  0  0  0  0  0  0  0  0  0  0  0
   -1.1503   -1.3313   -0.3281 C   0  0  0  0  0  0  0  0  0  0  0  0
    0.2152   -1.0512    0.2587 C   0  0  0  0  0  0  0  0  0  0  0  0
    0.1393   -1.2774    1.6325 O   0  0  0  0  0  0  0  0  0  0  0  0
    2.1993    1.0951   -1.2917 H   0  0  0  0  0  0  0  0  0  0  0  0
    2.2149    1.5859    0.4293 H   0  0  0  0  0  0  0  0  0  0  0  0
    2.6698   -0.1250   -0.0909 H   0  0  0  0  0  0  0  0  0  0  0  0
   -0.0134    2.2842   -0.4597 H   0  0  0  0  0  0  0  0  0  0  0  0
   -1.4784   -2.3574   -0.0592 H   0  0  0  0  0  0  0  0  0  0  0  0
   -1.1063   -1.2518   -1.4308 H   0  0  0  0  0  0  0  0  0  0  0  0
    0.9129   -1.7922   -0.1776 H   0  0  0  0  0  0  0  0  0  0  0  0
   -0.3916   -0.5874    2.0916 H   0  0  0  0  0  0  0  0  0  0  0  0
  1  2  1  0
  2  3  2  0
  3  4  1  0
  4  5  2  0
  4  6  1  0
  6  7  1  0
  7  8  1  0
  8  9  1  0
  8  2  1  0
  1 10  1  0
  1 11  1  0
  1 12  1  0
  3 13  1  0
  7 14  1  0
  7 15  1  0
  8 16  1  0
  9 17  1  0
M  END
