
     RDKit          3D

 19 21  0  0  0  0  0  0  0  0999 V2000
    2.7135    0.3223   -0.2475 C   0  0  0  0  0  0  0  0  0  0  0  0
    1.2464    0.0864   -0.1355 C   0  0  0  0  0  0  0  0  0  0  0  0
    0.3651    0.7581    0.6430 C   0  0  0  0  0  0  0  0  0  0  0  0
   -0.9218    0.1524    0.3165 C   0  0  0  0  0  0  0  0  0  0  0  0
   -2.1616    0.6246    0.8948 C   0  0  0  0  0  0  0  0  0  0  0  0
   -0.8504   -0.1818   -1.1440 C   0  0  0  0  0  0  0  0  0  0  0  0
   -1.5557   -1.3356   -0.8323 O   0  0  0  0  0  0  0  0  0  0  0  0
   -0.6316   -1.2977    0.1973 C   0  0  0  0  0  0  0  0  0  0  0  0
    0.3893   -0.9109   -0.8218 C   0  0  0  0  0  0  0  0  0  0  0  0
    2.8972    1.4172   -0.4425 H   0  0  0  0  0  0  0  0  0  0  0  0
    3.1883   -0.0014    0.7003 H   0  0  0  0  0  0  0  0  0  0  0  0
    3.0837   -0.2398   -1.1128 H   0  0  0  0  0  0  0  0  0  0  0  0
    0.6042    1.5553    1.3352 H   0  0  0  0  0  0  0  0  0  0  0  0
   -3.0246    0.3550    0.2167 H   0  0  0  0  0  0  0  0  0  0  0  0
   -2.4169    0.1520    1.8739 H   0  0  0  0  0  0  0  0  0  0  0  0
   -2.1793    1.7049    0.9977 H   0  0  0  0  0  0  0  0  0  0  0  0
   -1.0411    0.4466   -1.9103 H   0  0  0  0  0  0  0  0  0  0  0  0
   -0.5244   -1.9766    0.9398 H   0  0  0  0  0  0  0  0  0  0  0  0
    0.8196   -1.6310   -1.4686 H   0  0  0  0  0  0  0  0  0  0  0  0
  1  2  1  0
  2  3  2  0
  3  4  1  0
  4  5  1  0
  4  6  1  0
  6  7  1  0
  7  8  1  0
  8  9  1  0
  9  2  1  0
  8  4  1  0
  9  6  1  0
  1 10  1  0
  1 11  1  0
  1 12  1  0
  3 13  1  0
  5 14  1  0
  5 15  1  0
  5 16  1  0
  6 17  1  0
  8 18  1  0
  9 19  1  0
M  END
