
     RDKit          3D

 19 20  0  0  0  0  0  0  0  0999 V2000
    2.4125    0.3051   -0.1038 C   0  0  0  0  0  0  0  0  0  0  0  0
    0.9533    0.2845   -0.0083 C   0  0  0  0  0  0  0  0  0  0  0  0
    0.1399    1.3309   -0.2120 C   0  0  0  0  0  0  0  0  0  0  0  0
   -1.3139    0.9071   -0.2154 C   0  0  0  0  0  0  0  0  0  0  0  0
   -1.6431    0.1765    1.0693 C   0  0  0  0  0  0  0  0  0  0  0  0
   -0.5712   -0.6025    1.4628 O   0  0  0  0  0  0  0  0  0  0  0  0
    0.2124   -0.9658    0.3414 C   0  0  0  0  0  0  0  0  0  0  0  0
   -0.7112   -1.2357   -0.8550 C   0  0  0  0  0  0  0  0  0  0  0  0
   -1.3778   -0.0787   -1.2284 O   0  0  0  0  0  0  0  0  0  0  0  0
    2.8247    0.7047    0.8516 H   0  0  0  0  0  0  0  0  0  0  0  0
    2.7723   -0.7350   -0.1893 H   0  0  0  0  0  0  0  0  0  0  0  0
    2.7994    0.8594   -0.9785 H   0  0  0  0  0  0  0  0  0  0  0  0
    0.4600    2.3352   -0.3546 H   0  0  0  0  0  0  0  0  0  0  0  0
   -1.9845    1.7249   -0.4482 H   0  0  0  0  0  0  0  0  0  0  0  0
   -2.4953   -0.5285    0.8692 H   0  0  0  0  0  0  0  0  0  0  0  0
   -1.9617    0.9017    1.8481 H   0  0  0  0  0  0  0  0  0  0  0  0
    0.8516   -1.8187    0.5303 H   0  0  0  0  0  0  0  0  0  0  0  0
   -0.0021   -1.4764   -1.6997 H   0  0  0  0  0  0  0  0  0  0  0  0
   -1.3653   -2.0887   -0.6794 H   0  0  0  0  0  0  0  0  0  0  0  0
  1  2  1  0
  2  3  2  0
  3  4  1  0
  4  5  1  0
  5  6  1  0
  6  7  1  0
  7  8  1  0
  8  9  1  0
  7  2  1  0
  9  4  1  0
  1 10  1  0
  1 11  1  0
  1 12  1  0
  3 13  1  0
  4 14  1  0
  5 15  1  0
  5 16  1  0
  7 17  1  0
  8 18  1  0
  8 19  1  0
M  END
