
     RDKit          3D

 23 24  0  0  0  0  0  0  0  0999 V2000
    2.8511    0.0463    0.2267 C   0  0  0  0  0  0  0  0  0  0  0  0
    1.3821   -0.1133    0.1334 C   0  0  0  0  0  0  0  0  0  0  0  0
    0.5806    0.9196   -0.0546 C   0  0  0  0  0  0  0  0  0  0  0  0
   -0.8667    0.6529   -0.1492 C   0  0  0  0  0  0  0  0  0  0  0  0
   -1.7754    1.8171   -0.2948 C   0  0  0  0  0  0  0  0  0  0  0  0
   -1.2828   -0.3742    0.9181 C   0  0  0  0  0  0  0  0  0  0  0  0
   -0.6844   -1.4216   -0.0053 C   0  0  0  0  0  0  0  0  0  0  0  0
    0.7902   -1.5006    0.2577 C   0  0  0  0  0  0  0  0  0  0  0  0
   -1.0449   -0.4754   -1.1463 C   0  0  0  0  0  0  0  0  0  0  0  0
    3.1123    1.1034    0.4723 H   0  0  0  0  0  0  0  0  0  0  0  0
    3.2746   -0.5717    1.0635 H   0  0  0  0  0  0  0  0  0  0  0  0
    3.3752   -0.2493   -0.7142 H   0  0  0  0  0  0  0  0  0  0  0  0
    0.9542    1.9117   -0.1363 H   0  0  0  0  0  0  0  0  0  0  0  0
   -2.3803    1.8955    0.6517 H   0  0  0  0  0  0  0  0  0  0  0  0
   -1.2092    2.7837   -0.3911 H   0  0  0  0  0  0  0  0  0  0  0  0
   -2.5102    1.7124   -1.1241 H   0  0  0  0  0  0  0  0  0  0  0  0
   -2.3838   -0.4132    0.9709 H   0  0  0  0  0  0  0  0  0  0  0  0
   -0.7508   -0.2552    1.8808 H   0  0  0  0  0  0  0  0  0  0  0  0
   -1.2173   -2.3674   -0.0530 H   0  0  0  0  0  0  0  0  0  0  0  0
    0.9719   -1.8346    1.2829 H   0  0  0  0  0  0  0  0  0  0  0  0
    1.3121   -2.1839   -0.4295 H   0  0  0  0  0  0  0  0  0  0  0  0
   -0.3679   -0.4821   -1.9976 H   0  0  0  0  0  0  0  0  0  0  0  0
   -2.1304   -0.6002   -1.3619 H   0  0  0  0  0  0  0  0  0  0  0  0
  1  2  1  0
  2  3  2  0
  3  4  1  0
  4  5  1  0
  4  6  1  0
  6  7  1  0
  7  8  1  0
  7  9  1  0
  8  2  1  0
  9  4  1  0
  1 10  1  0
  1 11  1  0
  1 12  1  0
  3 13  1  0
  5 14  1  0
  5 15  1  0
  5 16  1  0
  6 17  1  0
  6 18  1  0
  7 19  1  0
  8 20  1  0
  8 21  1  0
  9 22  1  0
  9 23  1  0
M  END
