
     RDKit          3D

 21 21  0  0  0  0  0  0  0  0999 V2000
    2.7026   -0.4425    0.1196 C   0  0  0  0  0  0  0  0  0  0  0  0
    1.3201    0.0556   -0.1233 C   0  0  0  0  0  0  0  0  0  0  0  0
    0.3566   -0.8476   -0.1406 C   0  0  0  0  0  0  0  0  0  0  0  0
   -1.0762   -0.6217   -0.3591 C   0  0  0  0  0  0  0  0  0  0  0  0
   -1.9113   -1.8598   -0.1785 C   0  0  0  0  0  0  0  0  0  0  0  0
   -1.6303    0.5214    0.3974 C   0  0  0  0  0  0  0  0  0  0  0  0
   -1.1457    1.7397    0.5633 C   0  0  0  0  0  0  0  0  0  0  0  0
    0.1092    2.2358    0.0033 C   0  0  0  0  0  0  0  0  0  0  0  0
    1.2053    1.5152   -0.3063 C   0  0  0  0  0  0  0  0  0  0  0  0
    3.3231   -0.2890   -0.7850 H   0  0  0  0  0  0  0  0  0  0  0  0
    3.1632    0.1934    0.9309 H   0  0  0  0  0  0  0  0  0  0  0  0
    2.6907   -1.4759    0.4822 H   0  0  0  0  0  0  0  0  0  0  0  0
    0.6762   -1.8999    0.0314 H   0  0  0  0  0  0  0  0  0  0  0  0
   -1.1740   -0.3594   -1.4578 H   0  0  0  0  0  0  0  0  0  0  0  0
   -1.2975   -2.7863   -0.0690 H   0  0  0  0  0  0  0  0  0  0  0  0
   -2.5362   -1.6954    0.7324 H   0  0  0  0  0  0  0  0  0  0  0  0
   -2.6289   -2.0255   -1.0144 H   0  0  0  0  0  0  0  0  0  0  0  0
   -2.5927    0.3022    0.8887 H   0  0  0  0  0  0  0  0  0  0  0  0
   -1.7526    2.4061    1.1669 H   0  0  0  0  0  0  0  0  0  0  0  0
    0.1421    3.2957   -0.1705 H   0  0  0  0  0  0  0  0  0  0  0  0
    2.0562    2.0378   -0.7117 H   0  0  0  0  0  0  0  0  0  0  0  0
  1  2  1  0
  2  3  2  0
  3  4  1  0
  4  5  1  0
  4  6  1  0
  6  7  2  0
  7  8  1  0
  8  9  2  0
  9  2  1  0
  1 10  1  0
  1 11  1  0
  1 12  1  0
  3 13  1  0
  4 14  1  0
  5 15  1  0
  5 16  1  0
  5 17  1  0
  6 18  1  0
  7 19  1  0
  8 20  1  0
  9 21  1  0
M  END
