
     RDKit          3D

 21 22  0  0  0  0  0  0  0  0999 V2000
   -2.1092   -1.0912   -0.2930 C   0  0  0  0  0  0  0  0  0  0  0  0
   -0.7060   -0.5782   -0.1512 C   0  0  0  0  0  0  0  0  0  0  0  0
   -0.3806    0.6902    0.0078 C   0  0  0  0  0  0  0  0  0  0  0  0
   -1.3703    1.8248    0.0720 C   0  0  0  0  0  0  0  0  0  0  0  0
    1.0637    0.8971    0.1185 C   0  0  0  0  0  0  0  0  0  0  0  0
    1.7917    0.2574    1.2450 C   0  0  0  0  0  0  0  0  0  0  0  0
    1.6247   -0.4624   -0.0624 C   0  0  0  0  0  0  0  0  0  0  0  0
    2.7068   -0.6390   -0.9066 O   0  0  0  0  0  0  0  0  0  0  0  0
    0.4921   -1.4240   -0.1709 C   0  0  0  0  0  0  0  0  0  0  0  0
   -2.3753   -1.1363   -1.3518 H   0  0  0  0  0  0  0  0  0  0  0  0
   -2.1663   -2.1293    0.1050 H   0  0  0  0  0  0  0  0  0  0  0  0
   -2.8309   -0.4519    0.2555 H   0  0  0  0  0  0  0  0  0  0  0  0
   -2.2410    1.5070    0.6843 H   0  0  0  0  0  0  0  0  0  0  0  0
   -0.9321    2.7329    0.5035 H   0  0  0  0  0  0  0  0  0  0  0  0
   -1.7441    1.9676   -0.9742 H   0  0  0  0  0  0  0  0  0  0  0  0
    1.5064    1.7712   -0.4190 H   0  0  0  0  0  0  0  0  0  0  0  0
    2.8364    0.5520    1.4620 H   0  0  0  0  0  0  0  0  0  0  0  0
    1.1393   -0.0623    2.0913 H   0  0  0  0  0  0  0  0  0  0  0  0
    2.6460   -0.0659   -1.7098 H   0  0  0  0  0  0  0  0  0  0  0  0
    0.5049   -2.1927    0.6298 H   0  0  0  0  0  0  0  0  0  0  0  0
    0.5440   -1.9669   -1.1357 H   0  0  0  0  0  0  0  0  0  0  0  0
  1  2  1  0
  2  3  2  0
  3  4  1  0
  3  5  1  0
  5  6  1  0
  6  7  1  0
  7  8  1  0
  7  9  1  0
  9  2  1  0
  7  5  1  0
  1 10  1  0
  1 11  1  0
  1 12  1  0
  4 13  1  0
  4 14  1  0
  4 15  1  0
  5 16  1  0
  6 17  1  0
  6 18  1  0
  8 19  1  0
  9 20  1  0
  9 21  1  0
M  END
