
     RDKit          3D

 21 22  0  0  0  0  0  0  0  0999 V2000
    2.6027   -0.0993    0.2490 C   0  0  0  0  0  0  0  0  0  0  0  0
    1.1507   -0.1083   -0.0783 C   0  0  0  0  0  0  0  0  0  0  0  0
    0.4147   -1.1974   -0.2909 C   0  0  0  0  0  0  0  0  0  0  0  0
   -0.9906   -0.7499   -0.4904 C   0  0  0  0  0  0  0  0  0  0  0  0
   -1.8051   -1.6111   -1.1173 O   0  0  0  0  0  0  0  0  0  0  0  0
   -1.4975   -0.1532    0.7961 C   0  0  0  0  0  0  0  0  0  0  0  0
   -0.6430    1.1021    0.9733 C   0  0  0  0  0  0  0  0  0  0  0  0
    0.2761    1.0804   -0.2240 C   0  0  0  0  0  0  0  0  0  0  0  0
   -0.7091    0.5434   -1.2815 C   0  0  0  0  0  0  0  0  0  0  0  0
    3.1781    0.5124   -0.5007 H   0  0  0  0  0  0  0  0  0  0  0  0
    2.7775    0.3893    1.2440 H   0  0  0  0  0  0  0  0  0  0  0  0
    3.0092   -1.1217    0.3409 H   0  0  0  0  0  0  0  0  0  0  0  0
    0.8337   -2.1946   -0.3020 H   0  0  0  0  0  0  0  0  0  0  0  0
   -2.2168   -2.2190   -0.4798 H   0  0  0  0  0  0  0  0  0  0  0  0
   -2.5616    0.1103    0.6573 H   0  0  0  0  0  0  0  0  0  0  0  0
   -1.3448   -0.8306    1.6664 H   0  0  0  0  0  0  0  0  0  0  0  0
   -0.0904    1.0766    1.9212 H   0  0  0  0  0  0  0  0  0  0  0  0
   -1.3133    1.9841    0.9757 H   0  0  0  0  0  0  0  0  0  0  0  0
    0.7437    1.9967   -0.4884 H   0  0  0  0  0  0  0  0  0  0  0  0
   -0.2085    0.3237   -2.2210 H   0  0  0  0  0  0  0  0  0  0  0  0
   -1.6058    1.1662   -1.3497 H   0  0  0  0  0  0  0  0  0  0  0  0
  1  2  1  0
  2  3  2  0
  3  4  1  0
  4  5  1  0
  4  6  1  0
  6  7  1  0
  7  8  1  0
  8  9  1  0
  8  2  1  0
  9  4  1  0
  1 10  1  0
  1 11  1  0
  1 12  1  0
  3 13  1  0
  5 14  1  0
  6 15  1  0
  6 16  1  0
  7 17  1  0
  7 18  1  0
  8 19  1  0
  9 20  1  0
  9 21  1  0
M  END
