
     RDKit          3D

 21 22  0  0  0  0  0  0  0  0999 V2000
    2.7739    0.1367   -1.0798 C   0  0  0  0  0  0  0  0  0  0  0  0
    1.4588   -0.0308   -0.3881 C   0  0  0  0  0  0  0  0  0  0  0  0
    0.6942    0.9867   -0.0404 C   0  0  0  0  0  0  0  0  0  0  0  0
   -0.5250    0.4768    0.6192 C   0  0  0  0  0  0  0  0  0  0  0  0
   -1.7862    1.0794    0.0461 C   0  0  0  0  0  0  0  0  0  0  0  0
   -2.4412   -0.1194   -0.6081 C   0  0  0  0  0  0  0  0  0  0  0  0
   -1.3056   -0.8547   -1.0188 O   0  0  0  0  0  0  0  0  0  0  0  0
   -0.6164   -0.9500    0.1864 C   0  0  0  0  0  0  0  0  0  0  0  0
    0.8391   -1.3273   -0.0104 C   0  0  0  0  0  0  0  0  0  0  0  0
    3.3046    1.0624   -0.7204 H   0  0  0  0  0  0  0  0  0  0  0  0
    3.4641   -0.6988   -0.8329 H   0  0  0  0  0  0  0  0  0  0  0  0
    2.5821    0.2471   -2.1478 H   0  0  0  0  0  0  0  0  0  0  0  0
    0.9215    2.0698   -0.2121 H   0  0  0  0  0  0  0  0  0  0  0  0
   -0.4744    0.5693    1.7218 H   0  0  0  0  0  0  0  0  0  0  0  0
   -2.3944    1.4905    0.8778 H   0  0  0  0  0  0  0  0  0  0  0  0
   -1.5509    1.8612   -0.7045 H   0  0  0  0  0  0  0  0  0  0  0  0
   -2.9271   -0.7311    0.1792 H   0  0  0  0  0  0  0  0  0  0  0  0
   -3.0933    0.1402   -1.4403 H   0  0  0  0  0  0  0  0  0  0  0  0
   -1.1429   -1.6083    0.8830 H   0  0  0  0  0  0  0  0  0  0  0  0
    0.9617   -2.0561   -0.8584 H   0  0  0  0  0  0  0  0  0  0  0  0
    1.2575   -1.7434    0.9121 H   0  0  0  0  0  0  0  0  0  0  0  0
  1  2  1  0
  2  3  2  0
  3  4  1  0
  4  5  1  0
  5  6  1  0
  6  7  1  0
  7  8  1  0
  8  9  1  0
  9  2  1  0
  8  4  1  0
  1 10  1  0
  1 11  1  0
  1 12  1  0
  3 13  1  0
  4 14  1  0
  5 15  1  0
  5 16  1  0
  6 17  1  0
  6 18  1  0
  8 19  1  0
  9 20  1  0
  9 21  1  0
M  END
