
     RDKit          3D

 19 21  0  0  0  0  0  0  0  0999 V2000
    2.2802   -0.6667   -0.2035 C   0  0  0  0  0  0  0  0  0  0  0  0
    0.9918    0.0857    0.0170 C   0  0  0  0  0  0  0  0  0  0  0  0
    0.7461    1.2586   -0.5272 C   0  0  0  0  0  0  0  0  0  0  0  0
   -0.5829    1.6990   -0.1077 C   0  0  0  0  0  0  0  0  0  0  0  0
   -1.2793    0.4844    0.3595 C   0  0  0  0  0  0  0  0  0  0  0  0
   -1.7027   -0.5467   -0.6177 C   0  0  0  0  0  0  0  0  0  0  0  0
   -0.8414   -1.4386   -1.2125 O   0  0  0  0  0  0  0  0  0  0  0  0
   -0.8313   -1.5400    0.1638 C   0  0  0  0  0  0  0  0  0  0  0  0
   -0.1225   -0.3956    0.8448 C   0  0  0  0  0  0  0  0  0  0  0  0
    2.0578   -1.6986   -0.5494 H   0  0  0  0  0  0  0  0  0  0  0  0
    2.7171   -0.7813    0.8315 H   0  0  0  0  0  0  0  0  0  0  0  0
    2.9602   -0.1397   -0.8756 H   0  0  0  0  0  0  0  0  0  0  0  0
    1.3806    1.8559   -1.1875 H   0  0  0  0  0  0  0  0  0  0  0  0
   -0.4476    2.3716    0.7880 H   0  0  0  0  0  0  0  0  0  0  0  0
   -1.1158    2.2730   -0.8885 H   0  0  0  0  0  0  0  0  0  0  0  0
   -2.0034    0.6178    1.1874 H   0  0  0  0  0  0  0  0  0  0  0  0
   -2.7959   -0.7263   -0.6548 H   0  0  0  0  0  0  0  0  0  0  0  0
   -1.4082   -2.2722    0.7115 H   0  0  0  0  0  0  0  0  0  0  0  0
   -0.0025   -0.4404    1.9208 H   0  0  0  0  0  0  0  0  0  0  0  0
  1  2  1  0
  2  3  2  0
  3  4  1  0
  4  5  1  0
  5  6  1  0
  6  7  1  0
  7  8  1  0
  8  9  1  0
  9  2  1  0
  9  5  1  0
  8  6  1  0
  1 10  1  0
  1 11  1  0
  1 12  1  0
  3 13  1  0
  4 14  1  0
  4 15  1  0
  5 16  1  0
  6 17  1  0
  8 18  1  0
  9 19  1  0
M  END
