
     RDKit          3D

 20 21  0  0  0  0  0  0  0  0999 V2000
    2.5570    0.2808    0.2505 C   0  0  0  0  0  0  0  0  0  0  0  0
    1.1120    0.0726   -0.0730 C   0  0  0  0  0  0  0  0  0  0  0  0
    0.4061    1.1015   -0.4358 C   0  0  0  0  0  0  0  0  0  0  0  0
   -1.0114    0.9554   -0.7638 C   0  0  0  0  0  0  0  0  0  0  0  0
   -1.9409    1.0126    0.4132 C   0  0  0  0  0  0  0  0  0  0  0  0
   -1.7009   -0.2552   -0.3807 C   0  0  0  0  0  0  0  0  0  0  0  0
   -0.9128   -1.3392    0.2622 C   0  0  0  0  0  0  0  0  0  0  0  0
    0.5612   -1.2733    0.0335 C   0  0  0  0  0  0  0  0  0  0  0  0
    3.0971   -0.6757    0.3691 H   0  0  0  0  0  0  0  0  0  0  0  0
    3.0688    0.8143   -0.5909 H   0  0  0  0  0  0  0  0  0  0  0  0
    2.5991    0.9330    1.1315 H   0  0  0  0  0  0  0  0  0  0  0  0
    0.8420    2.1045   -0.5083 H   0  0  0  0  0  0  0  0  0  0  0  0
   -1.3122    1.4407   -1.7147 H   0  0  0  0  0  0  0  0  0  0  0  0
   -1.5089    1.1058    1.4313 H   0  0  0  0  0  0  0  0  0  0  0  0
   -2.8511    1.6030    0.2479 H   0  0  0  0  0  0  0  0  0  0  0  0
   -2.5685   -0.5859   -0.9830 H   0  0  0  0  0  0  0  0  0  0  0  0
   -1.1422   -1.3231    1.3486 H   0  0  0  0  0  0  0  0  0  0  0  0
   -1.2528   -2.3477   -0.0946 H   0  0  0  0  0  0  0  0  0  0  0  0
    1.0662   -1.7613    0.9185 H   0  0  0  0  0  0  0  0  0  0  0  0
    0.8921   -1.8629   -0.8613 H   0  0  0  0  0  0  0  0  0  0  0  0
  1  2  1  0
  2  3  2  0
  3  4  1  0
  4  5  1  0
  5  6  1  0
  6  7  1  0
  7  8  1  0
  8  2  1  0
  6  4  1  0
  1  9  1  0
  1 10  1  0
  1 11  1  0
  3 12  1  0
  4 13  1  0
  5 14  1  0
  5 15  1  0
  6 16  1  0
  7 17  1  0
  7 18  1  0
  8 19  1  0
  8 20  1  0
M  END
