
     RDKit          3D

 19 20  0  0  0  0  0  0  0  0999 V2000
   -1.5673   -1.5356    0.0724 C   0  0  0  0  0  0  0  0  0  0  0  0
   -0.3730   -0.6831   -0.1641 C   0  0  0  0  0  0  0  0  0  0  0  0
   -0.3504    0.6453   -0.2136 C   0  0  0  0  0  0  0  0  0  0  0  0
   -1.4890    1.5834   -0.0200 C   0  0  0  0  0  0  0  0  0  0  0  0
    1.0651    0.9969   -0.5058 C   0  0  0  0  0  0  0  0  0  0  0  0
    1.9458    0.6698    0.6629 C   0  0  0  0  0  0  0  0  0  0  0  0
    1.9182   -0.6613    0.7289 C   0  0  0  0  0  0  0  0  0  0  0  0
    1.0536   -1.0883   -0.3976 C   0  0  0  0  0  0  0  0  0  0  0  0
    1.4054   -0.0937   -1.3501 O   0  0  0  0  0  0  0  0  0  0  0  0
   -2.1753   -1.1433    0.9075 H   0  0  0  0  0  0  0  0  0  0  0  0
   -2.2015   -1.6527   -0.8218 H   0  0  0  0  0  0  0  0  0  0  0  0
   -1.2357   -2.5644    0.3715 H   0  0  0  0  0  0  0  0  0  0  0  0
   -1.1487    2.6124   -0.2849 H   0  0  0  0  0  0  0  0  0  0  0  0
   -2.3359    1.3543   -0.6957 H   0  0  0  0  0  0  0  0  0  0  0  0
   -1.8251    1.5970    1.0335 H   0  0  0  0  0  0  0  0  0  0  0  0
    1.2312    1.9574   -0.9465 H   0  0  0  0  0  0  0  0  0  0  0  0
    2.4708    1.3776    1.2906 H   0  0  0  0  0  0  0  0  0  0  0  0
    2.4249   -1.2828    1.4565 H   0  0  0  0  0  0  0  0  0  0  0  0
    1.1870   -2.0890   -0.7469 H   0  0  0  0  0  0  0  0  0  0  0  0
  1  2  1  0
  2  3  2  0
  3  4  1  0
  3  5  1  0
  5  6  1  0
  6  7  2  0
  7  8  1  0
  8  9  1  0
  8  2  1  0
  9  5  1  0
  1 10  1  0
  1 11  1  0
  1 12  1  0
  4 13  1  0
  4 14  1  0
  4 15  1  0
  5 16  1  0
  6 17  1  0
  7 18  1  0
  8 19  1  0
M  END
