
     RDKit          3D

 21 22  0  0  0  0  0  0  0  0999 V2000
    2.3690    1.2529   -0.3990 C   0  0  0  0  0  0  0  0  0  0  0  0
    1.1990    0.4295   -0.0633 C   0  0  0  0  0  0  0  0  0  0  0  0
    0.0185    1.0208    0.0396 C   0  0  0  0  0  0  0  0  0  0  0  0
   -1.1503    0.1827    0.3775 C   0  0  0  0  0  0  0  0  0  0  0  0
   -2.0394   -0.3528   -0.6822 C   0  0  0  0  0  0  0  0  0  0  0  0
   -2.4832    0.7345    0.2522 C   0  0  0  0  0  0  0  0  0  0  0  0
   -0.7615   -0.7178    1.3538 O   0  0  0  0  0  0  0  0  0  0  0  0
    0.0915   -1.6385    0.7562 C   0  0  0  0  0  0  0  0  0  0  0  0
    1.3148   -1.0285    0.1589 C   0  0  0  0  0  0  0  0  0  0  0  0
    3.3327    0.7282   -0.3076 H   0  0  0  0  0  0  0  0  0  0  0  0
    2.3724    2.1913    0.1953 H   0  0  0  0  0  0  0  0  0  0  0  0
    2.3125    1.5974   -1.4736 H   0  0  0  0  0  0  0  0  0  0  0  0
   -0.0661    2.0884   -0.1232 H   0  0  0  0  0  0  0  0  0  0  0  0
   -1.7319   -0.1154   -1.7196 H   0  0  0  0  0  0  0  0  0  0  0  0
   -2.5309   -1.3252   -0.5220 H   0  0  0  0  0  0  0  0  0  0  0  0
   -2.5658    1.7365   -0.2600 H   0  0  0  0  0  0  0  0  0  0  0  0
   -3.3211    0.5589    0.9397 H   0  0  0  0  0  0  0  0  0  0  0  0
   -0.4462   -2.2071   -0.0397 H   0  0  0  0  0  0  0  0  0  0  0  0
    0.3493   -2.3875    1.5402 H   0  0  0  0  0  0  0  0  0  0  0  0
    2.1921   -1.2574    0.8050 H   0  0  0  0  0  0  0  0  0  0  0  0
    1.5444   -1.4910   -0.8284 H   0  0  0  0  0  0  0  0  0  0  0  0
  1  2  1  0
  2  3  2  0
  3  4  1  0
  4  5  1  0
  5  6  1  0
  4  7  1  0
  7  8  1  0
  8  9  1  0
  9  2  1  0
  6  4  1  0
  1 10  1  0
  1 11  1  0
  1 12  1  0
  3 13  1  0
  5 14  1  0
  5 15  1  0
  6 16  1  0
  6 17  1  0
  8 18  1  0
  8 19  1  0
  9 20  1  0
  9 21  1  0
M  END
