
     RDKit          3D

 17 18  0  0  0  0  0  0  0  0999 V2000
    1.9148   -0.7367    0.0035 C   0  0  0  0  0  0  0  0  0  0  0  0
    0.4159   -0.5422   -0.0761 C   0  0  0  0  0  0  0  0  0  0  0  0
   -0.2743    0.5778   -0.1243 C   0  0  0  0  0  0  0  0  0  0  0  0
    0.3050    1.9601   -0.1006 C   0  0  0  0  0  0  0  0  0  0  0  0
   -1.6671    0.2781   -0.2884 C   0  0  0  0  0  0  0  0  0  0  0  0
   -2.6906   -0.1224    0.3976 O   0  0  0  0  0  0  0  0  0  0  0  0
   -1.7042   -0.9194    0.6763 C   0  0  0  0  0  0  0  0  0  0  0  0
   -0.6256   -1.5985   -0.0615 C   0  0  0  0  0  0  0  0  0  0  0  0
   -0.5071   -2.7227   -0.5697 O   0  0  0  0  0  0  0  0  0  0  0  0
    2.1760   -1.7986   -0.0914 H   0  0  0  0  0  0  0  0  0  0  0  0
    2.3690   -0.1671   -0.8423 H   0  0  0  0  0  0  0  0  0  0  0  0
    2.2959   -0.3815    0.9708 H   0  0  0  0  0  0  0  0  0  0  0  0
    0.2837    2.4286   -1.1028 H   0  0  0  0  0  0  0  0  0  0  0  0
    1.3265    1.9105    0.3273 H   0  0  0  0  0  0  0  0  0  0  0  0
   -0.3908    2.5735    0.5302 H   0  0  0  0  0  0  0  0  0  0  0  0
   -1.8510    0.0086   -1.3969 H   0  0  0  0  0  0  0  0  0  0  0  0
   -1.3762   -0.7482    1.7483 H   0  0  0  0  0  0  0  0  0  0  0  0
  1  2  1  0
  2  3  2  0
  3  4  1  0
  3  5  1  0
  5  6  1  0
  6  7  1  0
  7  8  1  0
  8  9  2  0
  8  2  1  0
  7  5  1  0
  1 10  1  0
  1 11  1  0
  1 12  1  0
  4 13  1  0
  4 14  1  0
  4 15  1  0
  5 16  1  0
  7 17  1  0
M  END
