
     RDKit          3D

 19 20  0  0  0  0  0  0  0  0999 V2000
    2.3252   -0.1213    0.3076 C   0  0  0  0  0  0  0  0  0  0  0  0
    0.8846   -0.0788   -0.0390 C   0  0  0  0  0  0  0  0  0  0  0  0
    0.2973   -0.6803   -1.1051 C   0  0  0  0  0  0  0  0  0  0  0  0
   -1.1292   -0.3028   -0.9351 C   0  0  0  0  0  0  0  0  0  0  0  0
   -1.3029   -0.5467    0.5724 C   0  0  0  0  0  0  0  0  0  0  0  0
   -0.8425   -1.7760    0.9612 O   0  0  0  0  0  0  0  0  0  0  0  0
   -0.2588    0.5800    0.6197 C   0  0  0  0  0  0  0  0  0  0  0  0
   -1.0895    1.1600   -0.5346 C   0  0  0  0  0  0  0  0  0  0  0  0
   -0.4095    1.9962   -1.3708 O   0  0  0  0  0  0  0  0  0  0  0  0
    2.6080    0.7351    0.9328 H   0  0  0  0  0  0  0  0  0  0  0  0
    2.5978   -1.0544    0.8044 H   0  0  0  0  0  0  0  0  0  0  0  0
    2.8846   -0.0922   -0.6551 H   0  0  0  0  0  0  0  0  0  0  0  0
    0.7829   -1.2791   -1.8687 H   0  0  0  0  0  0  0  0  0  0  0  0
   -1.8677   -0.6545   -1.5886 H   0  0  0  0  0  0  0  0  0  0  0  0
   -2.2398   -0.1822    0.9864 H   0  0  0  0  0  0  0  0  0  0  0  0
   -1.5488   -2.3482    1.3097 H   0  0  0  0  0  0  0  0  0  0  0  0
   -0.1570    1.1361    1.5003 H   0  0  0  0  0  0  0  0  0  0  0  0
   -2.0871    1.4752   -0.1988 H   0  0  0  0  0  0  0  0  0  0  0  0
    0.5525    2.0339   -1.2505 H   0  0  0  0  0  0  0  0  0  0  0  0
  1  2  1  0
  2  3  2  0
  3  4  1  0
  4  5  1  0
  5  6  1  0
  5  7  1  0
  7  8  1  0
  8  9  1  0
  7  2  1  0
  8  4  1  0
  1 10  1  0
  1 11  1  0
  1 12  1  0
  3 13  1  0
  4 14  1  0
  5 15  1  0
  6 16  1  0
  7 17  1  0
  8 18  1  0
  9 19  1  0
M  END
