
     RDKit          3D

 19 21  0  0  0  0  0  0  0  0999 V2000
   -2.4132    0.3495   -0.0132 C   0  0  0  0  0  0  0  0  0  0  0  0
   -1.0047   -0.1069    0.0803 C   0  0  0  0  0  0  0  0  0  0  0  0
   -0.0021    0.7178    0.0943 C   0  0  0  0  0  0  0  0  0  0  0  0
    1.0541    1.7600    0.0990 C   0  0  0  0  0  0  0  0  0  0  0  0
    2.1289    1.0735   -0.5651 O   0  0  0  0  0  0  0  0  0  0  0  0
    1.9733   -0.3085   -0.3349 C   0  0  0  0  0  0  0  0  0  0  0  0
    0.8761   -1.1866   -0.6536 C   0  0  0  0  0  0  0  0  0  0  0  0
   -0.4881   -1.5410   -0.0040 C   0  0  0  0  0  0  0  0  0  0  0  0
    1.0462   -0.3503    0.6293 C   0  0  0  0  0  0  0  0  0  0  0  0
   -2.9655   -0.2195   -0.8025 H   0  0  0  0  0  0  0  0  0  0  0  0
   -2.4955    1.4306   -0.2379 H   0  0  0  0  0  0  0  0  0  0  0  0
   -2.9045    0.2038    0.9855 H   0  0  0  0  0  0  0  0  0  0  0  0
    0.7885    2.6807   -0.3930 H   0  0  0  0  0  0  0  0  0  0  0  0
    1.3628    1.9680    1.1301 H   0  0  0  0  0  0  0  0  0  0  0  0
    2.9900   -0.8000   -0.2699 H   0  0  0  0  0  0  0  0  0  0  0  0
    0.5335   -0.7794   -1.6262 H   0  0  0  0  0  0  0  0  0  0  0  0
   -1.0496   -2.1630   -0.6732 H   0  0  0  0  0  0  0  0  0  0  0  0
   -0.3925   -2.0191    0.9588 H   0  0  0  0  0  0  0  0  0  0  0  0
    0.9623   -0.7098    1.5963 H   0  0  0  0  0  0  0  0  0  0  0  0
  1  2  1  0
  2  3  2  0
  3  4  1  0
  4  5  1  0
  5  6  1  0
  6  7  1  0
  7  8  1  0
  7  9  1  0
  8  2  1  0
  9  3  1  0
  9  6  1  0
  1 10  1  0
  1 11  1  0
  1 12  1  0
  4 13  1  0
  4 14  1  0
  6 15  1  0
  7 16  1  0
  8 17  1  0
  8 18  1  0
  9 19  1  0
M  END
