
     RDKit          3D

 19 20  0  0  0  0  0  0  0  0999 V2000
    2.3782   -0.7139   -0.0967 C   0  0  0  0  0  0  0  0  0  0  0  0
    1.0422   -0.1100    0.1413 C   0  0  0  0  0  0  0  0  0  0  0  0
    0.8523    1.2254    0.1647 C   0  0  0  0  0  0  0  0  0  0  0  0
   -0.5542    1.6656   -0.0985 C   0  0  0  0  0  0  0  0  0  0  0  0
   -1.4745    0.5571    0.3393 C   0  0  0  0  0  0  0  0  0  0  0  0
   -0.9286   -0.2334    1.3469 O   0  0  0  0  0  0  0  0  0  0  0  0
   -0.1859   -0.9300    0.3716 C   0  0  0  0  0  0  0  0  0  0  0  0
   -1.2722   -0.6085   -0.6170 C   0  0  0  0  0  0  0  0  0  0  0  0
   -2.2997   -1.5408   -0.5129 O   0  0  0  0  0  0  0  0  0  0  0  0
    2.4504   -1.1495   -1.1114 H   0  0  0  0  0  0  0  0  0  0  0  0
    2.6037   -1.4413    0.7110 H   0  0  0  0  0  0  0  0  0  0  0  0
    3.1281    0.1055   -0.0527 H   0  0  0  0  0  0  0  0  0  0  0  0
    1.6626    1.9198    0.3601 H   0  0  0  0  0  0  0  0  0  0  0  0
   -0.7858    2.6375    0.3417 H   0  0  0  0  0  0  0  0  0  0  0  0
   -0.6534    1.7357   -1.2130 H   0  0  0  0  0  0  0  0  0  0  0  0
   -2.5249    0.8538    0.4951 H   0  0  0  0  0  0  0  0  0  0  0  0
   -0.0189   -1.9847    0.5794 H   0  0  0  0  0  0  0  0  0  0  0  0
   -0.9636   -0.3355   -1.6269 H   0  0  0  0  0  0  0  0  0  0  0  0
   -2.4556   -1.6528    0.4781 H   0  0  0  0  0  0  0  0  0  0  0  0
  1  2  1  0
  2  3  2  0
  3  4  1  0
  4  5  1  0
  5  6  1  0
  6  7  1  0
  7  8  1  0
  8  9  1  0
  7  2  1  0
  8  5  1  0
  1 10  1  0
  1 11  1  0
  1 12  1  0
  3 13  1  0
  4 14  1  0
  4 15  1  0
  5 16  1  0
  7 17  1  0
  8 18  1  0
  9 19  1  0
M  END
