
     RDKit          3D

 21 23  0  0  0  0  0  0  0  0999 V2000
    2.3932   -0.4611    0.0413 C   0  0  0  0  0  0  0  0  0  0  0  0
    0.9216   -0.2382    0.0818 C   0  0  0  0  0  0  0  0  0  0  0  0
    0.2369    0.8542   -0.3372 C   0  0  0  0  0  0  0  0  0  0  0  0
    0.7849    2.1318   -0.8734 C   0  0  0  0  0  0  0  0  0  0  0  0
   -1.1774    0.4499   -0.1248 C   0  0  0  0  0  0  0  0  0  0  0  0
   -1.2080   -1.0003   -0.4749 C   0  0  0  0  0  0  0  0  0  0  0  0
   -2.1884   -1.1732    0.6534 C   0  0  0  0  0  0  0  0  0  0  0  0
   -1.1641   -0.2190    1.2047 C   0  0  0  0  0  0  0  0  0  0  0  0
   -0.1422   -1.1287    0.5767 C   0  0  0  0  0  0  0  0  0  0  0  0
    2.8545    0.5429   -0.1257 H   0  0  0  0  0  0  0  0  0  0  0  0
    2.7157   -0.8510    1.0158 H   0  0  0  0  0  0  0  0  0  0  0  0
    2.6794   -1.1943   -0.7361 H   0  0  0  0  0  0  0  0  0  0  0  0
    1.7742    2.3773   -0.4082 H   0  0  0  0  0  0  0  0  0  0  0  0
    0.1057    2.9741   -0.6169 H   0  0  0  0  0  0  0  0  0  0  0  0
    0.9852    2.0720   -1.9743 H   0  0  0  0  0  0  0  0  0  0  0  0
   -1.9603    1.1005   -0.4100 H   0  0  0  0  0  0  0  0  0  0  0  0
   -1.2323   -1.4299   -1.3756 H   0  0  0  0  0  0  0  0  0  0  0  0
   -2.1260   -2.1448    1.1835 H   0  0  0  0  0  0  0  0  0  0  0  0
   -3.1951   -0.7801    0.4922 H   0  0  0  0  0  0  0  0  0  0  0  0
   -1.1363    0.1847    2.1184 H   0  0  0  0  0  0  0  0  0  0  0  0
    0.0786   -2.0667    1.0087 H   0  0  0  0  0  0  0  0  0  0  0  0
  1  2  1  0
  2  3  2  0
  3  4  1  0
  3  5  1  0
  5  6  1  0
  6  7  1  0
  7  8  1  0
  8  9  1  0
  9  2  1  0
  8  5  1  0
  9  6  1  0
  1 10  1  0
  1 11  1  0
  1 12  1  0
  4 13  1  0
  4 14  1  0
  4 15  1  0
  5 16  1  0
  6 17  1  0
  7 18  1  0
  7 19  1  0
  8 20  1  0
  9 21  1  0
M  END
