
     RDKit          3D

 21 22  0  0  0  0  0  0  0  0999 V2000
    2.6112   -0.3306    0.4950 C   0  0  0  0  0  0  0  0  0  0  0  0
    1.1599   -0.0306    0.3460 C   0  0  0  0  0  0  0  0  0  0  0  0
    0.7772    1.2103    0.5860 C   0  0  0  0  0  0  0  0  0  0  0  0
   -0.6286    1.5948    0.4643 C   0  0  0  0  0  0  0  0  0  0  0  0
   -1.2892    0.8239   -0.6078 C   0  0  0  0  0  0  0  0  0  0  0  0
   -1.0602   -0.6498   -0.5820 C   0  0  0  0  0  0  0  0  0  0  0  0
   -1.6589   -1.2532    0.6773 C   0  0  0  0  0  0  0  0  0  0  0  0
   -0.4143   -1.7568    0.9928 O   0  0  0  0  0  0  0  0  0  0  0  0
    0.2430   -1.0979   -0.0498 C   0  0  0  0  0  0  0  0  0  0  0  0
    3.0622    0.3479    1.2570 H   0  0  0  0  0  0  0  0  0  0  0  0
    3.1528   -0.2391   -0.4851 H   0  0  0  0  0  0  0  0  0  0  0  0
    2.7025   -1.4043    0.7856 H   0  0  0  0  0  0  0  0  0  0  0  0
    1.5081    1.9474    0.8752 H   0  0  0  0  0  0  0  0  0  0  0  0
   -0.6530    2.6816    0.1644 H   0  0  0  0  0  0  0  0  0  0  0  0
   -1.0982    1.5162    1.4602 H   0  0  0  0  0  0  0  0  0  0  0  0
   -2.3889    0.9961   -0.5476 H   0  0  0  0  0  0  0  0  0  0  0  0
   -0.9536    1.2091   -1.5919 H   0  0  0  0  0  0  0  0  0  0  0  0
   -1.3549   -1.1534   -1.5206 H   0  0  0  0  0  0  0  0  0  0  0  0
   -1.9824   -0.5168    1.4390 H   0  0  0  0  0  0  0  0  0  0  0  0
   -2.4456   -2.0005    0.4321 H   0  0  0  0  0  0  0  0  0  0  0  0
    0.7110   -1.8943   -0.6972 H   0  0  0  0  0  0  0  0  0  0  0  0
  1  2  1  0
  2  3  2  0
  3  4  1  0
  4  5  1  0
  5  6  1  0
  6  7  1  0
  7  8  1  0
  8  9  1  0
  9  2  1  0
  9  6  1  0
  1 10  1  0
  1 11  1  0
  1 12  1  0
  3 13  1  0
  4 14  1  0
  4 15  1  0
  5 16  1  0
  5 17  1  0
  6 18  1  0
  7 19  1  0
  7 20  1  0
  9 21  1  0
M  END
