
     RDKit          3D

 19 19  0  0  0  0  0  0  0  0999 V2000
    1.9354   -0.4048    0.6942 C   0  0  0  0  0  0  0  0  0  0  0  0
    0.7593    0.2479    0.0032 C   0  0  0  0  0  0  0  0  0  0  0  0
    0.7613    1.3967   -0.6510 C   0  0  0  0  0  0  0  0  0  0  0  0
   -0.6371    1.5891   -1.1417 C   0  0  0  0  0  0  0  0  0  0  0  0
   -1.1649    0.3000   -1.1864 O   0  0  0  0  0  0  0  0  0  0  0  0
   -0.6224   -0.2817   -0.0560 C   0  0  0  0  0  0  0  0  0  0  0  0
   -0.6201   -1.8003   -0.1957 C   0  0  0  0  0  0  0  0  0  0  0  0
   -1.4388    0.1254    1.1113 C   0  0  0  0  0  0  0  0  0  0  0  0
   -2.4099    0.8401    0.9729 O   0  0  0  0  0  0  0  0  0  0  0  0
    1.6936   -1.4842    0.7765 H   0  0  0  0  0  0  0  0  0  0  0  0
    2.1298    0.0585    1.6788 H   0  0  0  0  0  0  0  0  0  0  0  0
    2.8506   -0.3331    0.0720 H   0  0  0  0  0  0  0  0  0  0  0  0
    1.6133    2.0487   -0.7906 H   0  0  0  0  0  0  0  0  0  0  0  0
   -0.5208    2.0180   -2.1679 H   0  0  0  0  0  0  0  0  0  0  0  0
   -1.2491    2.2078   -0.4883 H   0  0  0  0  0  0  0  0  0  0  0  0
   -0.4556   -2.2321    0.7895 H   0  0  0  0  0  0  0  0  0  0  0  0
   -1.6094   -2.0572   -0.6309 H   0  0  0  0  0  0  0  0  0  0  0  0
    0.1971   -2.0488   -0.9186 H   0  0  0  0  0  0  0  0  0  0  0  0
   -1.2122   -0.1900    2.1287 H   0  0  0  0  0  0  0  0  0  0  0  0
  1  2  1  0
  2  3  2  0
  3  4  1  0
  4  5  1  0
  5  6  1  0
  6  7  1  0
  6  8  1  0
  8  9  2  0
  6  2  1  0
  1 10  1  0
  1 11  1  0
  1 12  1  0
  3 13  1  0
  4 14  1  0
  4 15  1  0
  7 16  1  0
  7 17  1  0
  7 18  1  0
  8 19  1  0
M  END
