
     RDKit          3D

 17 18  0  0  0  0  0  0  0  0999 V2000
    2.2831   -0.2777   -0.0014 C   0  0  0  0  0  0  0  0  0  0  0  0
    0.8234   -0.1748    0.0610 C   0  0  0  0  0  0  0  0  0  0  0  0
    0.0218   -1.2407   -0.0804 C   0  0  0  0  0  0  0  0  0  0  0  0
   -1.4406   -0.9831   -0.1103 C   0  0  0  0  0  0  0  0  0  0  0  0
   -1.7080    0.5152   -0.0071 C   0  0  0  0  0  0  0  0  0  0  0  0
   -0.9928    0.9560    1.1130 O   0  0  0  0  0  0  0  0  0  0  0  0
    0.1169    1.1250    0.2869 C   0  0  0  0  0  0  0  0  0  0  0  0
   -0.8114    1.3032   -0.8514 C   0  0  0  0  0  0  0  0  0  0  0  0
   -0.8615    1.8195   -1.9385 O   0  0  0  0  0  0  0  0  0  0  0  0
    2.6756   -1.0561    0.6779 H   0  0  0  0  0  0  0  0  0  0  0  0
    2.6750   -0.3939   -1.0393 H   0  0  0  0  0  0  0  0  0  0  0  0
    2.7044    0.6972    0.3784 H   0  0  0  0  0  0  0  0  0  0  0  0
    0.3905   -2.2403   -0.1697 H   0  0  0  0  0  0  0  0  0  0  0  0
   -1.9262   -1.3470   -1.0172 H   0  0  0  0  0  0  0  0  0  0  0  0
   -1.9229   -1.4301    0.8062 H   0  0  0  0  0  0  0  0  0  0  0  0
   -2.7730    0.7574   -0.0234 H   0  0  0  0  0  0  0  0  0  0  0  0
    0.7455    1.9701    0.5600 H   0  0  0  0  0  0  0  0  0  0  0  0
  1  2  1  0
  2  3  2  0
  3  4  1  0
  4  5  1  0
  5  6  1  0
  6  7  1  0
  7  8  1  0
  8  9  2  0
  7  2  1  0
  8  5  1  0
  1 10  1  0
  1 11  1  0
  1 12  1  0
  3 13  1  0
  4 14  1  0
  4 15  1  0
  5 16  1  0
  7 17  1  0
M  END
