
     RDKit          3D

 21 21  0  0  0  0  0  0  0  0999 V2000
   -2.2452   -0.7464    0.1846 C   0  0  0  0  0  0  0  0  0  0  0  0
   -0.7787   -0.5004    0.1086 C   0  0  0  0  0  0  0  0  0  0  0  0
    0.0534   -1.4366   -0.2989 C   0  0  0  0  0  0  0  0  0  0  0  0
    1.5107   -1.3216   -0.4182 C   0  0  0  0  0  0  0  0  0  0  0  0
    2.0227    0.0474   -0.0450 C   0  0  0  0  0  0  0  0  0  0  0  0
    0.9566    1.0519   -0.4810 C   0  0  0  0  0  0  0  0  0  0  0  0
   -0.2073    0.8180    0.4930 C   0  0  0  0  0  0  0  0  0  0  0  0
   -1.1847    1.9127    0.4596 C   0  0  0  0  0  0  0  0  0  0  0  0
   -1.1301    2.8414    1.2444 O   0  0  0  0  0  0  0  0  0  0  0  0
   -2.7182   -0.3418   -0.7219 H   0  0  0  0  0  0  0  0  0  0  0  0
   -2.6113   -0.2180    1.0921 H   0  0  0  0  0  0  0  0  0  0  0  0
   -2.4564   -1.8145    0.3223 H   0  0  0  0  0  0  0  0  0  0  0  0
   -0.3757   -2.4143   -0.5834 H   0  0  0  0  0  0  0  0  0  0  0  0
    2.0513   -2.0695    0.2257 H   0  0  0  0  0  0  0  0  0  0  0  0
    1.8385   -1.5333   -1.4583 H   0  0  0  0  0  0  0  0  0  0  0  0
    2.9970    0.2570   -0.4892 H   0  0  0  0  0  0  0  0  0  0  0  0
    2.0964    0.0724    1.0676 H   0  0  0  0  0  0  0  0  0  0  0  0
    1.3099    2.0800   -0.4659 H   0  0  0  0  0  0  0  0  0  0  0  0
    0.6142    0.7022   -1.4837 H   0  0  0  0  0  0  0  0  0  0  0  0
    0.2317    0.7101    1.5220 H   0  0  0  0  0  0  0  0  0  0  0  0
   -1.9747    1.9035   -0.2744 H   0  0  0  0  0  0  0  0  0  0  0  0
  1  2  1  0
  2  3  2  0
  3  4  1  0
  4  5  1  0
  5  6  1  0
  6  7  1  0
  7  8  1  0
  8  9  2  0
  7  2  1  0
  1 10  1  0
  1 11  1  0
  1 12  1  0
  3 13  1  0
  4 14  1  0
  4 15  1  0
  5 16  1  0
  5 17  1  0
  6 18  1  0
  6 19  1  0
  7 20  1  0
  8 21  1  0
M  END
