
     RDKit          3D

 23 23  0  0  0  0  0  0  0  0999 V2000
   -2.7524   -0.9448   -0.0558 C   0  0  0  0  0  0  0  0  0  0  0  0
   -1.3053   -0.5367   -0.1697 C   0  0  0  0  0  0  0  0  0  0  0  0
   -0.2829   -1.3668   -0.2703 C   0  0  0  0  0  0  0  0  0  0  0  0
    0.9516   -0.5696   -0.3603 C   0  0  0  0  0  0  0  0  0  0  0  0
    2.1322   -1.2400    0.2945 C   0  0  0  0  0  0  0  0  0  0  0  0
    0.5939    0.7366    0.2808 C   0  0  0  0  0  0  0  0  0  0  0  0
    1.3804    1.8892   -0.3075 C   0  0  0  0  0  0  0  0  0  0  0  0
   -0.8558    0.8883   -0.1751 C   0  0  0  0  0  0  0  0  0  0  0  0
   -1.5236    1.6705    0.7360 O   0  0  0  0  0  0  0  0  0  0  0  0
   -3.1696   -1.1842   -1.0725 H   0  0  0  0  0  0  0  0  0  0  0  0
   -3.3561   -0.1044    0.3423 H   0  0  0  0  0  0  0  0  0  0  0  0
   -2.8297   -1.8296    0.5758 H   0  0  0  0  0  0  0  0  0  0  0  0
   -0.4003   -2.4667   -0.2797 H   0  0  0  0  0  0  0  0  0  0  0  0
    1.1642   -0.3425   -1.4463 H   0  0  0  0  0  0  0  0  0  0  0  0
    1.8220   -2.2861    0.5623 H   0  0  0  0  0  0  0  0  0  0  0  0
    2.4746   -0.7297    1.2118 H   0  0  0  0  0  0  0  0  0  0  0  0
    2.9988   -1.3564   -0.3835 H   0  0  0  0  0  0  0  0  0  0  0  0
    0.6446    0.7185    1.3871 H   0  0  0  0  0  0  0  0  0  0  0  0
    0.9738    2.8290    0.0949 H   0  0  0  0  0  0  0  0  0  0  0  0
    2.4389    1.8103   -0.0124 H   0  0  0  0  0  0  0  0  0  0  0  0
    1.2486    1.8059   -1.4229 H   0  0  0  0  0  0  0  0  0  0  0  0
   -0.9418    1.3039   -1.1821 H   0  0  0  0  0  0  0  0  0  0  0  0
   -1.4059    1.3055    1.6527 H   0  0  0  0  0  0  0  0  0  0  0  0
  1  2  1  0
  2  3  2  0
  3  4  1  0
  4  5  1  0
  4  6  1  0
  6  7  1  0
  6  8  1  0
  8  9  1  0
  8  2  1  0
  1 10  1  0
  1 11  1  0
  1 12  1  0
  3 13  1  0
  4 14  1  0
  5 15  1  0
  5 16  1  0
  5 17  1  0
  6 18  1  0
  7 19  1  0
  7 20  1  0
  7 21  1  0
  8 22  1  0
  9 23  1  0
M  END
