
     RDKit          3D

 21 21  0  0  0  0  0  0  0  0999 V2000
    2.6362   -0.3888   -0.1978 C   0  0  0  0  0  0  0  0  0  0  0  0
    1.2286    0.0385   -0.3448 C   0  0  0  0  0  0  0  0  0  0  0  0
    0.8375    1.2935   -0.5038 C   0  0  0  0  0  0  0  0  0  0  0  0
   -0.6167    1.5862   -0.6402 C   0  0  0  0  0  0  0  0  0  0  0  0
   -1.3265    0.8837    0.4891 C   0  0  0  0  0  0  0  0  0  0  0  0
   -0.8886   -0.5165    0.7128 C   0  0  0  0  0  0  0  0  0  0  0  0
   -2.0609   -1.4519    0.6601 C   0  0  0  0  0  0  0  0  0  0  0  0
   -2.5350   -1.6714   -0.4424 O   0  0  0  0  0  0  0  0  0  0  0  0
    0.1285   -0.9918   -0.3180 C   0  0  0  0  0  0  0  0  0  0  0  0
    3.0380   -0.8194   -1.1412 H   0  0  0  0  0  0  0  0  0  0  0  0
    2.6385   -1.1925    0.5958 H   0  0  0  0  0  0  0  0  0  0  0  0
    3.3095    0.3899    0.1458 H   0  0  0  0  0  0  0  0  0  0  0  0
    1.6068    2.0573   -0.5270 H   0  0  0  0  0  0  0  0  0  0  0  0
   -1.0110    1.2970   -1.6302 H   0  0  0  0  0  0  0  0  0  0  0  0
   -0.7537    2.6784   -0.4987 H   0  0  0  0  0  0  0  0  0  0  0  0
   -2.4250    0.8988    0.2975 H   0  0  0  0  0  0  0  0  0  0  0  0
   -1.1643    1.4740    1.4042 H   0  0  0  0  0  0  0  0  0  0  0  0
   -0.3737   -0.6079    1.6973 H   0  0  0  0  0  0  0  0  0  0  0  0
   -2.4654   -1.9087    1.5561 H   0  0  0  0  0  0  0  0  0  0  0  0
    0.5594   -1.9662   -0.0140 H   0  0  0  0  0  0  0  0  0  0  0  0
   -0.3622   -1.0822   -1.3007 H   0  0  0  0  0  0  0  0  0  0  0  0
  1  2  1  0
  2  3  2  0
  3  4  1  0
  4  5  1  0
  5  6  1  0
  6  7  1  0
  7  8  2  0
  6  9  1  0
  9  2  1  0
  1 10  1  0
  1 11  1  0
  1 12  1  0
  3 13  1  0
  4 14  1  0
  4 15  1  0
  5 16  1  0
  5 17  1  0
  6 18  1  0
  7 19  1  0
  9 20  1  0
  9 21  1  0
M  END
