
     RDKit          3D

 19 19  0  0  0  0  0  0  0  0999 V2000
   -0.8730    1.8675    0.0771 C   0  0  0  0  0  0  0  0  0  0  0  0
   -0.7761    0.3830   -0.0406 C   0  0  0  0  0  0  0  0  0  0  0  0
   -1.6261   -0.4707    0.5224 C   0  0  0  0  0  0  0  0  0  0  0  0
   -1.2210   -1.8817    0.1923 C   0  0  0  0  0  0  0  0  0  0  0  0
   -0.3112   -1.7260   -0.8503 O   0  0  0  0  0  0  0  0  0  0  0  0
    0.2025   -0.4478   -0.7488 C   0  0  0  0  0  0  0  0  0  0  0  0
    1.5472   -0.5128   -0.1162 C   0  0  0  0  0  0  0  0  0  0  0  0
    2.2260    0.7766    0.0175 C   0  0  0  0  0  0  0  0  0  0  0  0
    3.3269    0.8934    0.5114 O   0  0  0  0  0  0  0  0  0  0  0  0
   -1.9390    2.1973    0.2292 H   0  0  0  0  0  0  0  0  0  0  0  0
   -0.5353    2.3777   -0.8481 H   0  0  0  0  0  0  0  0  0  0  0  0
   -0.2799    2.1867    0.9590 H   0  0  0  0  0  0  0  0  0  0  0  0
   -2.5041   -0.2656    1.1408 H   0  0  0  0  0  0  0  0  0  0  0  0
   -2.1179   -2.3877   -0.1844 H   0  0  0  0  0  0  0  0  0  0  0  0
   -0.7844   -2.3699    1.0796 H   0  0  0  0  0  0  0  0  0  0  0  0
    0.2996   -0.0503   -1.7883 H   0  0  0  0  0  0  0  0  0  0  0  0
    1.4683   -1.0021    0.8976 H   0  0  0  0  0  0  0  0  0  0  0  0
    2.1592   -1.2394   -0.7161 H   0  0  0  0  0  0  0  0  0  0  0  0
    1.7382    1.6717   -0.3341 H   0  0  0  0  0  0  0  0  0  0  0  0
  1  2  1  0
  2  3  2  0
  3  4  1  0
  4  5  1  0
  5  6  1  0
  6  7  1  0
  7  8  1  0
  8  9  2  0
  6  2  1  0
  1 10  1  0
  1 11  1  0
  1 12  1  0
  3 13  1  0
  4 14  1  0
  4 15  1  0
  6 16  1  0
  7 17  1  0
  7 18  1  0
  8 19  1  0
M  END
