
     RDKit          3D

 19 20  0  0  0  0  0  0  0  0999 V2000
    2.2105    0.2900   -0.5579 C   0  0  0  0  0  0  0  0  0  0  0  0
    1.0117   -0.2229    0.1286 C   0  0  0  0  0  0  0  0  0  0  0  0
    0.6966    0.0140    1.3907 C   0  0  0  0  0  0  0  0  0  0  0  0
   -0.7590   -0.2739    1.4851 C   0  0  0  0  0  0  0  0  0  0  0  0
   -1.4590    0.8321    0.7884 C   0  0  0  0  0  0  0  0  0  0  0  0
   -1.5344    0.8338   -0.5352 C   0  0  0  0  0  0  0  0  0  0  0  0
   -1.0322   -0.3645   -1.3060 C   0  0  0  0  0  0  0  0  0  0  0  0
   -0.0817   -1.0879   -0.3923 C   0  0  0  0  0  0  0  0  0  0  0  0
   -0.8141   -1.4663    0.7318 O   0  0  0  0  0  0  0  0  0  0  0  0
    3.0055   -0.4820   -0.6154 H   0  0  0  0  0  0  0  0  0  0  0  0
    1.9470    0.6311   -1.5835 H   0  0  0  0  0  0  0  0  0  0  0  0
    2.6358    1.1657   -0.0329 H   0  0  0  0  0  0  0  0  0  0  0  0
    1.3225    0.3422    2.1978 H   0  0  0  0  0  0  0  0  0  0  0  0
   -1.1073   -0.4291    2.5164 H   0  0  0  0  0  0  0  0  0  0  0  0
   -1.8951    1.6181    1.3843 H   0  0  0  0  0  0  0  0  0  0  0  0
   -1.9562    1.6975   -1.0414 H   0  0  0  0  0  0  0  0  0  0  0  0
   -0.5801   -0.0675   -2.2675 H   0  0  0  0  0  0  0  0  0  0  0  0
   -1.9196   -1.0100   -1.4473 H   0  0  0  0  0  0  0  0  0  0  0  0
    0.3092   -2.0202   -0.8438 H   0  0  0  0  0  0  0  0  0  0  0  0
  1  2  1  0
  2  3  2  0
  3  4  1  0
  4  5  1  0
  5  6  2  0
  6  7  1  0
  7  8  1  0
  8  9  1  0
  8  2  1  0
  9  4  1  0
  1 10  1  0
  1 11  1  0
  1 12  1  0
  3 13  1  0
  4 14  1  0
  5 15  1  0
  6 16  1  0
  7 17  1  0
  7 18  1  0
  8 19  1  0
M  END
