
     RDKit          3D

 21 21  0  0  0  0  0  0  0  0999 V2000
    2.8258   -0.1015   -0.6815 C   0  0  0  0  0  0  0  0  0  0  0  0
    1.4400    0.0408   -0.1710 C   0  0  0  0  0  0  0  0  0  0  0  0
    0.3027   -0.2092   -0.7909 C   0  0  0  0  0  0  0  0  0  0  0  0
   -0.7877    0.0925    0.1480 C   0  0  0  0  0  0  0  0  0  0  0  0
   -1.2191   -1.2007    0.7997 C   0  0  0  0  0  0  0  0  0  0  0  0
   -1.9324    0.8389   -0.4672 C   0  0  0  0  0  0  0  0  0  0  0  0
   -2.5692    0.1572   -1.4753 O   0  0  0  0  0  0  0  0  0  0  0  0
   -0.2409    0.8960    1.1461 O   0  0  0  0  0  0  0  0  0  0  0  0
    1.0927    0.5206    1.2150 C   0  0  0  0  0  0  0  0  0  0  0  0
    3.5365   -0.1462    0.1626 H   0  0  0  0  0  0  0  0  0  0  0  0
    2.8894   -1.0772   -1.2038 H   0  0  0  0  0  0  0  0  0  0  0  0
    3.0645    0.7626   -1.3202 H   0  0  0  0  0  0  0  0  0  0  0  0
    0.2071   -0.5665   -1.7955 H   0  0  0  0  0  0  0  0  0  0  0  0
   -1.9639   -1.7579    0.2167 H   0  0  0  0  0  0  0  0  0  0  0  0
   -0.2743   -1.8034    0.9331 H   0  0  0  0  0  0  0  0  0  0  0  0
   -1.6124   -0.9352    1.8055 H   0  0  0  0  0  0  0  0  0  0  0  0
   -1.5464    1.8291   -0.7928 H   0  0  0  0  0  0  0  0  0  0  0  0
   -2.6658    1.0450    0.3432 H   0  0  0  0  0  0  0  0  0  0  0  0
   -3.5321    0.4551   -1.4739 H   0  0  0  0  0  0  0  0  0  0  0  0
    1.3046   -0.2611    1.9463 H   0  0  0  0  0  0  0  0  0  0  0  0
    1.6806    1.4210    1.4561 H   0  0  0  0  0  0  0  0  0  0  0  0
  1  2  1  0
  2  3  2  0
  3  4  1  0
  4  5  1  0
  4  6  1  0
  6  7  1  0
  4  8  1  0
  8  9  1  0
  9  2  1  0
  1 10  1  0
  1 11  1  0
  1 12  1  0
  3 13  1  0
  5 14  1  0
  5 15  1  0
  5 16  1  0
  6 17  1  0
  6 18  1  0
  7 19  1  0
  9 20  1  0
  9 21  1  0
M  END
