
     RDKit          3D

 23 23  0  0  0  0  0  0  0  0999 V2000
    2.5834    0.9891    0.1462 C   0  0  0  0  0  0  0  0  0  0  0  0
    1.2573    0.4404   -0.2147 C   0  0  0  0  0  0  0  0  0  0  0  0
    0.2556    1.3091   -0.2127 C   0  0  0  0  0  0  0  0  0  0  0  0
   -1.2202    1.2653   -0.4931 C   0  0  0  0  0  0  0  0  0  0  0  0
   -1.9299    0.3756    0.4729 C   0  0  0  0  0  0  0  0  0  0  0  0
   -2.0757   -1.0341    0.0437 C   0  0  0  0  0  0  0  0  0  0  0  0
   -0.9617   -1.5984   -0.5296 O   0  0  0  0  0  0  0  0  0  0  0  0
    0.1448   -1.6723    0.2558 C   0  0  0  0  0  0  0  0  0  0  0  0
    1.2955   -1.0140   -0.5189 C   0  0  0  0  0  0  0  0  0  0  0  0
    3.2966    0.9905   -0.6965 H   0  0  0  0  0  0  0  0  0  0  0  0
    3.0072    0.2930    0.9282 H   0  0  0  0  0  0  0  0  0  0  0  0
    2.5133    1.9723    0.6540 H   0  0  0  0  0  0  0  0  0  0  0  0
    0.6350    2.2893    0.0667 H   0  0  0  0  0  0  0  0  0  0  0  0
   -1.5900    2.3083   -0.4044 H   0  0  0  0  0  0  0  0  0  0  0  0
   -1.4075    0.9672   -1.5550 H   0  0  0  0  0  0  0  0  0  0  0  0
   -2.9701    0.8040    0.5887 H   0  0  0  0  0  0  0  0  0  0  0  0
   -1.4574    0.5072    1.4787 H   0  0  0  0  0  0  0  0  0  0  0  0
   -2.3957   -1.6431    0.9139 H   0  0  0  0  0  0  0  0  0  0  0  0
   -2.9026   -1.0939   -0.6974 H   0  0  0  0  0  0  0  0  0  0  0  0
    0.0846   -1.1726    1.2299 H   0  0  0  0  0  0  0  0  0  0  0  0
    0.4905   -2.7261    0.4596 H   0  0  0  0  0  0  0  0  0  0  0  0
    1.0850   -1.0831   -1.6276 H   0  0  0  0  0  0  0  0  0  0  0  0
    2.2621   -1.4738   -0.2884 H   0  0  0  0  0  0  0  0  0  0  0  0
  1  2  1  0
  2  3  2  3
  3  4  1  0
  4  5  1  0
  5  6  1  0
  6  7  1  0
  7  8  1  0
  8  9  1  0
  9  2  1  0
  1 10  1  0
  1 11  1  0
  1 12  1  0
  3 13  1  0
  4 14  1  0
  4 15  1  0
  5 16  1  0
  5 17  1  0
  6 18  1  0
  6 19  1  0
  8 20  1  0
  8 21  1  0
  9 22  1  0
  9 23  1  0
M  END
