
     RDKit          3D

 23 23  0  0  0  0  0  0  0  0999 V2000
   -1.4671   -1.8964   -0.6914 C   0  0  0  0  0  0  0  0  0  0  0  0
   -0.5103   -0.7940   -0.3581 C   0  0  0  0  0  0  0  0  0  0  0  0
   -0.7416    0.2909    0.3685 C   0  0  0  0  0  0  0  0  0  0  0  0
   -2.0624    0.5825    0.9908 C   0  0  0  0  0  0  0  0  0  0  0  0
   -2.5917    1.7806    0.5295 O   0  0  0  0  0  0  0  0  0  0  0  0
    0.5090    1.1231    0.4459 C   0  0  0  0  0  0  0  0  0  0  0  0
    1.5743    0.0796    0.2101 C   0  0  0  0  0  0  0  0  0  0  0  0
    2.8450    0.6318   -0.3399 C   0  0  0  0  0  0  0  0  0  0  0  0
    0.8892   -0.7814   -0.8312 C   0  0  0  0  0  0  0  0  0  0  0  0
   -1.3341   -2.7260    0.0226 H   0  0  0  0  0  0  0  0  0  0  0  0
   -2.4951   -1.5247   -0.7579 H   0  0  0  0  0  0  0  0  0  0  0  0
   -1.2143   -2.3019   -1.7072 H   0  0  0  0  0  0  0  0  0  0  0  0
   -2.7888   -0.2290    0.7961 H   0  0  0  0  0  0  0  0  0  0  0  0
   -1.9257    0.6044    2.1102 H   0  0  0  0  0  0  0  0  0  0  0  0
   -3.3115    2.0899    1.1226 H   0  0  0  0  0  0  0  0  0  0  0  0
    0.5092    1.9260   -0.2890 H   0  0  0  0  0  0  0  0  0  0  0  0
    0.6339    1.5291    1.4613 H   0  0  0  0  0  0  0  0  0  0  0  0
    1.6971   -0.4977    1.1304 H   0  0  0  0  0  0  0  0  0  0  0  0
    3.0835    0.1480   -1.3253 H   0  0  0  0  0  0  0  0  0  0  0  0
    3.6800    0.3389    0.3346 H   0  0  0  0  0  0  0  0  0  0  0  0
    2.8240    1.7141   -0.5366 H   0  0  0  0  0  0  0  0  0  0  0  0
    0.8987   -0.2821   -1.8243 H   0  0  0  0  0  0  0  0  0  0  0  0
    1.2987   -1.8056   -0.8617 H   0  0  0  0  0  0  0  0  0  0  0  0
  1  2  1  0
  2  3  2  0
  3  4  1  0
  4  5  1  0
  3  6  1  0
  6  7  1  0
  7  8  1  0
  7  9  1  0
  9  2  1  0
  1 10  1  0
  1 11  1  0
  1 12  1  0
  4 13  1  0
  4 14  1  0
  5 15  1  0
  6 16  1  0
  6 17  1  0
  7 18  1  0
  8 19  1  0
  8 20  1  0
  8 21  1  0
  9 22  1  0
  9 23  1  0
M  END
