
     RDKit          3D

 21 22  0  0  0  0  0  0  0  0999 V2000
   -2.0044   -1.1003    0.0589 C   0  0  0  0  0  0  0  0  0  0  0  0
   -0.7210   -0.4121    0.2778 C   0  0  0  0  0  0  0  0  0  0  0  0
   -0.3788    0.8555    0.0673 C   0  0  0  0  0  0  0  0  0  0  0  0
   -1.2812    1.9186   -0.4475 C   0  0  0  0  0  0  0  0  0  0  0  0
    1.0551    0.9342    0.4561 C   0  0  0  0  0  0  0  0  0  0  0  0
    1.9399    0.2001   -0.5361 C   0  0  0  0  0  0  0  0  0  0  0  0
    1.4740   -1.2419   -0.3056 C   0  0  0  0  0  0  0  0  0  0  0  0
    0.5054   -1.0799    0.8156 C   0  0  0  0  0  0  0  0  0  0  0  0
    1.0722    0.0053    1.5266 O   0  0  0  0  0  0  0  0  0  0  0  0
   -2.3438   -1.5008    1.0574 H   0  0  0  0  0  0  0  0  0  0  0  0
   -2.7604   -0.4631   -0.4110 H   0  0  0  0  0  0  0  0  0  0  0  0
   -1.7933   -1.9525   -0.6469 H   0  0  0  0  0  0  0  0  0  0  0  0
   -2.3353    1.7610   -0.1481 H   0  0  0  0  0  0  0  0  0  0  0  0
   -0.9746    2.8958    0.0213 H   0  0  0  0  0  0  0  0  0  0  0  0
   -1.2683    1.9765   -1.5586 H   0  0  0  0  0  0  0  0  0  0  0  0
    1.4031    1.9136    0.7318 H   0  0  0  0  0  0  0  0  0  0  0  0
    1.7811    0.5212   -1.5663 H   0  0  0  0  0  0  0  0  0  0  0  0
    2.9647    0.2677   -0.1658 H   0  0  0  0  0  0  0  0  0  0  0  0
    2.3265   -1.8890    0.0045 H   0  0  0  0  0  0  0  0  0  0  0  0
    1.0238   -1.6684   -1.2064 H   0  0  0  0  0  0  0  0  0  0  0  0
    0.3154   -1.9415    1.4229 H   0  0  0  0  0  0  0  0  0  0  0  0
  1  2  1  0
  2  3  2  0
  3  4  1  0
  3  5  1  0
  5  6  1  0
  6  7  1  0
  7  8  1  0
  8  9  1  0
  8  2  1  0
  9  5  1  0
  1 10  1  0
  1 11  1  0
  1 12  1  0
  4 13  1  0
  4 14  1  0
  4 15  1  0
  5 16  1  0
  6 17  1  0
  6 18  1  0
  7 19  1  0
  7 20  1  0
  8 21  1  0
M  END
