
     RDKit          3D

 19 20  0  0  0  0  0  0  0  0999 V2000
   -2.3526    0.7771   -0.6205 C   0  0  0  0  0  0  0  0  0  0  0  0
   -1.2103   -0.0527   -0.1988 C   0  0  0  0  0  0  0  0  0  0  0  0
   -0.0127    0.4068    0.0793 C   0  0  0  0  0  0  0  0  0  0  0  0
    0.9002    1.5316    0.1950 C   0  0  0  0  0  0  0  0  0  0  0  0
    2.1670    1.0854    0.1867 C   0  0  0  0  0  0  0  0  0  0  0  0
    2.2087   -0.3985    0.0629 C   0  0  0  0  0  0  0  0  0  0  0  0
    0.8118   -0.8057    0.4672 C   0  0  0  0  0  0  0  0  0  0  0  0
    0.2288   -1.7646   -0.3154 O   0  0  0  0  0  0  0  0  0  0  0  0
   -1.1392   -1.5494   -0.0047 C   0  0  0  0  0  0  0  0  0  0  0  0
   -2.4527    0.8437   -1.7366 H   0  0  0  0  0  0  0  0  0  0  0  0
   -2.4061    1.7501   -0.1223 H   0  0  0  0  0  0  0  0  0  0  0  0
   -3.2809    0.2177   -0.2997 H   0  0  0  0  0  0  0  0  0  0  0  0
    0.5664    2.5506    0.2729 H   0  0  0  0  0  0  0  0  0  0  0  0
    2.9937    1.7872    0.2649 H   0  0  0  0  0  0  0  0  0  0  0  0
    2.4277   -0.7227   -0.9731 H   0  0  0  0  0  0  0  0  0  0  0  0
    2.9199   -0.8362    0.8061 H   0  0  0  0  0  0  0  0  0  0  0  0
    0.6782   -0.9195    1.5439 H   0  0  0  0  0  0  0  0  0  0  0  0
   -1.2421   -1.8155    1.0680 H   0  0  0  0  0  0  0  0  0  0  0  0
   -1.8058   -2.0855   -0.6760 H   0  0  0  0  0  0  0  0  0  0  0  0
  1  2  1  0
  2  3  2  0
  3  4  1  0
  4  5  2  0
  5  6  1  0
  6  7  1  0
  7  8  1  0
  8  9  1  0
  9  2  1  0
  7  3  1  0
  1 10  1  0
  1 11  1  0
  1 12  1  0
  4 13  1  0
  5 14  1  0
  6 15  1  0
  6 16  1  0
  7 17  1  0
  9 18  1  0
  9 19  1  0
M  END
