
     RDKit          3D

 23 24  0  0  0  0  0  0  0  0999 V2000
    1.8229    1.5984    0.3152 C   0  0  0  0  0  0  0  0  0  0  0  0
    0.6377    0.8493   -0.0918 C   0  0  0  0  0  0  0  0  0  0  0  0
    0.6293   -0.4730   -0.2753 C   0  0  0  0  0  0  0  0  0  0  0  0
    1.9500   -1.1348   -0.0266 C   0  0  0  0  0  0  0  0  0  0  0  0
   -0.5725   -1.2199   -0.6895 C   0  0  0  0  0  0  0  0  0  0  0  0
   -1.4755   -1.8498    0.3003 C   0  0  0  0  0  0  0  0  0  0  0  0
   -1.8520   -0.5394   -0.3427 C   0  0  0  0  0  0  0  0  0  0  0  0
   -1.6702    0.7288    0.4584 C   0  0  0  0  0  0  0  0  0  0  0  0
   -0.6662    1.5738   -0.3237 C   0  0  0  0  0  0  0  0  0  0  0  0
    2.2602    2.0847   -0.5973 H   0  0  0  0  0  0  0  0  0  0  0  0
    2.5990    1.0204    0.8025 H   0  0  0  0  0  0  0  0  0  0  0  0
    1.5022    2.4026    1.0406 H   0  0  0  0  0  0  0  0  0  0  0  0
    1.8113   -2.2056   -0.2854 H   0  0  0  0  0  0  0  0  0  0  0  0
    2.7399   -0.7494   -0.6898 H   0  0  0  0  0  0  0  0  0  0  0  0
    2.2244   -1.1101    1.0521 H   0  0  0  0  0  0  0  0  0  0  0  0
   -0.5394   -1.7037   -1.6886 H   0  0  0  0  0  0  0  0  0  0  0  0
   -2.0080   -2.7696    0.0179 H   0  0  0  0  0  0  0  0  0  0  0  0
   -1.2764   -1.7698    1.3870 H   0  0  0  0  0  0  0  0  0  0  0  0
   -2.6861   -0.5227   -1.0786 H   0  0  0  0  0  0  0  0  0  0  0  0
   -1.2308    0.4598    1.4436 H   0  0  0  0  0  0  0  0  0  0  0  0
   -2.6185    1.2334    0.6020 H   0  0  0  0  0  0  0  0  0  0  0  0
   -0.6366    2.5988    0.0558 H   0  0  0  0  0  0  0  0  0  0  0  0
   -0.9447    1.4977   -1.3862 H   0  0  0  0  0  0  0  0  0  0  0  0
  1  2  1  0
  2  3  2  0
  3  4  1  0
  3  5  1  0
  5  6  1  0
  6  7  1  0
  7  8  1  0
  8  9  1  0
  9  2  1  0
  7  5  1  0
  1 10  1  0
  1 11  1  0
  1 12  1  0
  4 13  1  0
  4 14  1  0
  4 15  1  0
  5 16  1  0
  6 17  1  0
  6 18  1  0
  7 19  1  0
  8 20  1  0
  8 21  1  0
  9 22  1  0
  9 23  1  0
M  END
