
     RDKit          3D

 23 23  0  0  0  0  0  0  0  0999 V2000
    2.4233   -0.0043    0.8825 C   0  0  0  0  0  0  0  0  0  0  0  0
    1.1198    0.3239    0.2453 C   0  0  0  0  0  0  0  0  0  0  0  0
    0.8231    1.5399   -0.2004 C   0  0  0  0  0  0  0  0  0  0  0  0
   -0.5575    1.5408   -0.7840 C   0  0  0  0  0  0  0  0  0  0  0  0
   -1.1533    0.2008   -0.4754 C   0  0  0  0  0  0  0  0  0  0  0  0
   -2.1534    0.3626    0.6362 C   0  0  0  0  0  0  0  0  0  0  0  0
    0.0148   -0.6211    0.0275 C   0  0  0  0  0  0  0  0  0  0  0  0
    0.3038   -1.6790   -0.9934 C   0  0  0  0  0  0  0  0  0  0  0  0
   -0.3135   -1.2624    1.2304 O   0  0  0  0  0  0  0  0  0  0  0  0
    2.4607    0.4298    1.9245 H   0  0  0  0  0  0  0  0  0  0  0  0
    3.2198    0.5375    0.3194 H   0  0  0  0  0  0  0  0  0  0  0  0
    2.5982   -1.0851    0.9599 H   0  0  0  0  0  0  0  0  0  0  0  0
    1.4238    2.4426   -0.1843 H   0  0  0  0  0  0  0  0  0  0  0  0
   -1.1295    2.3797   -0.3335 H   0  0  0  0  0  0  0  0  0  0  0  0
   -0.4874    1.7618   -1.8676 H   0  0  0  0  0  0  0  0  0  0  0  0
   -1.6151   -0.2131   -1.3786 H   0  0  0  0  0  0  0  0  0  0  0  0
   -2.4422   -0.6528    0.9711 H   0  0  0  0  0  0  0  0  0  0  0  0
   -1.6589    0.9362    1.4534 H   0  0  0  0  0  0  0  0  0  0  0  0
   -3.0166    0.9119    0.2374 H   0  0  0  0  0  0  0  0  0  0  0  0
    1.0692   -2.4019   -0.6240 H   0  0  0  0  0  0  0  0  0  0  0  0
   -0.6697   -2.2006   -1.2012 H   0  0  0  0  0  0  0  0  0  0  0  0
    0.6151   -1.1858   -1.9228 H   0  0  0  0  0  0  0  0  0  0  0  0
   -0.8746   -2.0615    1.0775 H   0  0  0  0  0  0  0  0  0  0  0  0
  1  2  1  0
  2  3  2  0
  3  4  1  0
  4  5  1  0
  5  6  1  0
  5  7  1  0
  7  8  1  0
  7  9  1  0
  7  2  1  0
  1 10  1  0
  1 11  1  0
  1 12  1  0
  3 13  1  0
  4 14  1  0
  4 15  1  0
  5 16  1  0
  6 17  1  0
  6 18  1  0
  6 19  1  0
  8 20  1  0
  8 21  1  0
  8 22  1  0
  9 23  1  0
M  END
