
     RDKit          3D

 20 20  0  0  0  0  0  0  0  0999 V2000
    2.1010   -0.6658    0.2733 C   0  0  0  0  0  0  0  0  0  0  0  0
    0.6463   -0.4261    0.0436 C   0  0  0  0  0  0  0  0  0  0  0  0
   -0.0115   -1.3119   -0.6885 C   0  0  0  0  0  0  0  0  0  0  0  0
   -1.4558   -1.0727   -0.9157 C   0  0  0  0  0  0  0  0  0  0  0  0
   -1.9820   -0.3492    0.3144 C   0  0  0  0  0  0  0  0  0  0  0  0
   -1.3304    0.8173    0.5760 O   0  0  0  0  0  0  0  0  0  0  0  0
    0.0223    0.7739    0.6385 C   0  0  0  0  0  0  0  0  0  0  0  0
    0.5573    2.0627   -0.0014 C   0  0  0  0  0  0  0  0  0  0  0  0
    2.4627   -1.5731   -0.2240 H   0  0  0  0  0  0  0  0  0  0  0  0
    2.2000   -0.8426    1.3837 H   0  0  0  0  0  0  0  0  0  0  0  0
    2.7072    0.1982   -0.0547 H   0  0  0  0  0  0  0  0  0  0  0  0
    0.4464   -2.1842   -1.1199 H   0  0  0  0  0  0  0  0  0  0  0  0
   -2.0431   -2.0043   -1.0286 H   0  0  0  0  0  0  0  0  0  0  0  0
   -1.5460   -0.3935   -1.7885 H   0  0  0  0  0  0  0  0  0  0  0  0
   -1.9893   -1.0132    1.1868 H   0  0  0  0  0  0  0  0  0  0  0  0
   -3.0469   -0.0757    0.0502 H   0  0  0  0  0  0  0  0  0  0  0  0
    0.3289    0.8439    1.7167 H   0  0  0  0  0  0  0  0  0  0  0  0
    0.0039    2.8888    0.4949 H   0  0  0  0  0  0  0  0  0  0  0  0
    1.6205    2.2176    0.2225 H   0  0  0  0  0  0  0  0  0  0  0  0
    0.3085    2.1100   -1.0792 H   0  0  0  0  0  0  0  0  0  0  0  0
  1  2  1  0
  2  3  2  0
  3  4  1  0
  4  5  1  0
  5  6  1  0
  6  7  1  0
  7  8  1  0
  7  2  1  0
  1  9  1  0
  1 10  1  0
  1 11  1  0
  3 12  1  0
  4 13  1  0
  4 14  1  0
  5 15  1  0
  5 16  1  0
  7 17  1  0
  8 18  1  0
  8 19  1  0
  8 20  1  0
M  END
