
     RDKit          3D

 23 24  0  0  0  0  0  0  0  0999 V2000
    2.5730   -0.2100   -0.3832 C   0  0  0  0  0  0  0  0  0  0  0  0
    1.1100   -0.3385   -0.2915 C   0  0  0  0  0  0  0  0  0  0  0  0
    0.5505   -1.4457    0.1423 C   0  0  0  0  0  0  0  0  0  0  0  0
   -0.9254   -1.6283    0.2698 C   0  0  0  0  0  0  0  0  0  0  0  0
   -1.6168   -0.2892    0.1344 C   0  0  0  0  0  0  0  0  0  0  0  0
   -1.1909    0.7072    1.1588 C   0  0  0  0  0  0  0  0  0  0  0  0
   -0.0959    1.5509    0.5844 C   0  0  0  0  0  0  0  0  0  0  0  0
    0.2703    0.8149   -0.7014 C   0  0  0  0  0  0  0  0  0  0  0  0
   -1.1026    0.3383   -1.1654 C   0  0  0  0  0  0  0  0  0  0  0  0
    2.8853    0.7053   -0.9259 H   0  0  0  0  0  0  0  0  0  0  0  0
    2.9417   -1.0678   -1.0042 H   0  0  0  0  0  0  0  0  0  0  0  0
    3.0771   -0.1837    0.6080 H   0  0  0  0  0  0  0  0  0  0  0  0
    1.2135   -2.2614    0.4185 H   0  0  0  0  0  0  0  0  0  0  0  0
   -1.1163   -2.0249    1.2889 H   0  0  0  0  0  0  0  0  0  0  0  0
   -1.3445   -2.2946   -0.4994 H   0  0  0  0  0  0  0  0  0  0  0  0
   -2.7037   -0.4451    0.0913 H   0  0  0  0  0  0  0  0  0  0  0  0
   -0.8904    0.1956    2.0919 H   0  0  0  0  0  0  0  0  0  0  0  0
   -2.0388    1.3795    1.4039 H   0  0  0  0  0  0  0  0  0  0  0  0
    0.7889    1.6151    1.2486 H   0  0  0  0  0  0  0  0  0  0  0  0
   -0.4029    2.5846    0.3575 H   0  0  0  0  0  0  0  0  0  0  0  0
    0.7301    1.4646   -1.4436 H   0  0  0  0  0  0  0  0  0  0  0  0
   -1.6712    1.2431   -1.4271 H   0  0  0  0  0  0  0  0  0  0  0  0
   -1.0407   -0.4100   -1.9567 H   0  0  0  0  0  0  0  0  0  0  0  0
  1  2  1  0
  2  3  2  0
  3  4  1  0
  4  5  1  0
  5  6  1  0
  6  7  1  0
  7  8  1  0
  8  9  1  0
  8  2  1  0
  9  5  1  0
  1 10  1  0
  1 11  1  0
  1 12  1  0
  3 13  1  0
  4 14  1  0
  4 15  1  0
  5 16  1  0
  6 17  1  0
  6 18  1  0
  7 19  1  0
  7 20  1  0
  8 21  1  0
  9 22  1  0
  9 23  1  0
M  END
