
     RDKit          3D

 19 20  0  0  0  0  0  0  0  0999 V2000
   -1.8820   -1.1322   -0.1981 C   0  0  0  0  0  0  0  0  0  0  0  0
   -0.5176   -0.5455   -0.1003 C   0  0  0  0  0  0  0  0  0  0  0  0
   -0.1506    0.7369    0.0281 C   0  0  0  0  0  0  0  0  0  0  0  0
   -1.0127    1.9443    0.1487 C   0  0  0  0  0  0  0  0  0  0  0  0
    1.3239    0.6520    0.0198 C   0  0  0  0  0  0  0  0  0  0  0  0
    1.6209   -0.5262    0.9329 C   0  0  0  0  0  0  0  0  0  0  0  0
    0.8013   -1.2416   -0.1205 C   0  0  0  0  0  0  0  0  0  0  0  0
    1.5356   -0.3487   -1.0958 C   0  0  0  0  0  0  0  0  0  0  0  0
    2.0278   -0.4068   -2.1850 O   0  0  0  0  0  0  0  0  0  0  0  0
   -2.3487   -0.9693   -1.1856 H   0  0  0  0  0  0  0  0  0  0  0  0
   -2.5532   -0.6616    0.5601 H   0  0  0  0  0  0  0  0  0  0  0  0
   -1.7954   -2.2156    0.0172 H   0  0  0  0  0  0  0  0  0  0  0  0
   -0.5373    2.8363   -0.3001 H   0  0  0  0  0  0  0  0  0  0  0  0
   -2.0095    1.7807   -0.3357 H   0  0  0  0  0  0  0  0  0  0  0  0
   -1.1697    2.1747    1.2266 H   0  0  0  0  0  0  0  0  0  0  0  0
    1.9314    1.5063    0.0483 H   0  0  0  0  0  0  0  0  0  0  0  0
    2.6823   -0.8271    0.8501 H   0  0  0  0  0  0  0  0  0  0  0  0
    1.1894   -0.4760    1.9288 H   0  0  0  0  0  0  0  0  0  0  0  0
    0.8641   -2.2804   -0.2397 H   0  0  0  0  0  0  0  0  0  0  0  0
  1  2  1  0
  2  3  2  0
  3  4  1  0
  3  5  1  0
  5  6  1  0
  6  7  1  0
  7  8  1  0
  8  9  2  0
  7  2  1  0
  8  5  1  0
  1 10  1  0
  1 11  1  0
  1 12  1  0
  4 13  1  0
  4 14  1  0
  4 15  1  0
  5 16  1  0
  6 17  1  0
  6 18  1  0
  7 19  1  0
M  END
