
     RDKit          3D

 21 21  0  0  0  0  0  0  0  0999 V2000
    2.7535   -0.3132   -0.1022 C   0  0  0  0  0  0  0  0  0  0  0  0
    1.2555   -0.1440   -0.1435 C   0  0  0  0  0  0  0  0  0  0  0  0
    0.6544   -0.0074   -1.2955 C   0  0  0  0  0  0  0  0  0  0  0  0
   -0.7977    0.1644   -1.4633 C   0  0  0  0  0  0  0  0  0  0  0  0
   -1.5850    0.0741   -0.2140 C   0  0  0  0  0  0  0  0  0  0  0  0
   -2.2374   -1.1826   -0.1864 O   0  0  0  0  0  0  0  0  0  0  0  0
   -0.8687    0.3582    1.0462 C   0  0  0  0  0  0  0  0  0  0  0  0
   -1.5798   -0.2532    2.0982 O   0  0  0  0  0  0  0  0  0  0  0  0
    0.5384   -0.1409    1.1252 C   0  0  0  0  0  0  0  0  0  0  0  0
    3.0491   -0.8176    0.8282 H   0  0  0  0  0  0  0  0  0  0  0  0
    3.2489    0.6655   -0.1899 H   0  0  0  0  0  0  0  0  0  0  0  0
    3.0097   -0.9274   -0.9780 H   0  0  0  0  0  0  0  0  0  0  0  0
    1.2652   -0.0212   -2.1927 H   0  0  0  0  0  0  0  0  0  0  0  0
   -0.9428    1.1339   -2.0257 H   0  0  0  0  0  0  0  0  0  0  0  0
   -1.1316   -0.6177   -2.2064 H   0  0  0  0  0  0  0  0  0  0  0  0
   -2.4364    0.8151   -0.2963 H   0  0  0  0  0  0  0  0  0  0  0  0
   -2.8098   -1.1689   -1.0183 H   0  0  0  0  0  0  0  0  0  0  0  0
   -0.8635    1.4548    1.2438 H   0  0  0  0  0  0  0  0  0  0  0  0
   -2.1962    0.3681    2.5336 H   0  0  0  0  0  0  0  0  0  0  0  0
    1.0989    0.5106    1.8426 H   0  0  0  0  0  0  0  0  0  0  0  0
    0.5752   -1.1636    1.5945 H   0  0  0  0  0  0  0  0  0  0  0  0
  1  2  1  0
  2  3  2  0
  3  4  1  0
  4  5  1  0
  5  6  1  0
  5  7  1  0
  7  8  1  0
  7  9  1  0
  9  2  1  0
  1 10  1  0
  1 11  1  0
  1 12  1  0
  3 13  1  0
  4 14  1  0
  4 15  1  0
  5 16  1  0
  6 17  1  0
  7 18  1  0
  8 19  1  0
  9 20  1  0
  9 21  1  0
M  END
