
     RDKit          3D

 21 21  0  0  0  0  0  0  0  0999 V2000
    2.4352   -0.8671    0.2265 C   0  0  0  0  0  0  0  0  0  0  0  0
    1.0470   -0.3216    0.0155 C   0  0  0  0  0  0  0  0  0  0  0  0
    0.0947   -1.2397    0.0453 C   0  0  0  0  0  0  0  0  0  0  0  0
   -1.3572   -1.0748   -0.1207 C   0  0  0  0  0  0  0  0  0  0  0  0
   -1.7313   -1.5632   -1.3931 O   0  0  0  0  0  0  0  0  0  0  0  0
   -1.8255    0.3328    0.0456 C   0  0  0  0  0  0  0  0  0  0  0  0
   -1.1009    0.9062    1.0799 O   0  0  0  0  0  0  0  0  0  0  0  0
   -0.1819    1.7844    0.5364 C   0  0  0  0  0  0  0  0  0  0  0  0
    0.9434    1.1217   -0.1896 C   0  0  0  0  0  0  0  0  0  0  0  0
    2.4147   -1.8605    0.6773 H   0  0  0  0  0  0  0  0  0  0  0  0
    2.9260   -0.1714    0.9426 H   0  0  0  0  0  0  0  0  0  0  0  0
    3.0081   -0.8762   -0.7203 H   0  0  0  0  0  0  0  0  0  0  0  0
    0.4062   -2.2837    0.2170 H   0  0  0  0  0  0  0  0  0  0  0  0
   -1.9247   -1.7103    0.6094 H   0  0  0  0  0  0  0  0  0  0  0  0
   -2.6842   -1.3430   -1.5808 H   0  0  0  0  0  0  0  0  0  0  0  0
   -2.8893    0.3114    0.3603 H   0  0  0  0  0  0  0  0  0  0  0  0
   -1.7902    0.9288   -0.8855 H   0  0  0  0  0  0  0  0  0  0  0  0
   -0.7607    2.4612   -0.1583 H   0  0  0  0  0  0  0  0  0  0  0  0
    0.1673    2.4463    1.3743 H   0  0  0  0  0  0  0  0  0  0  0  0
    0.9077    1.4227   -1.2713 H   0  0  0  0  0  0  0  0  0  0  0  0
    1.8956    1.5960    0.1893 H   0  0  0  0  0  0  0  0  0  0  0  0
  1  2  1  0
  2  3  2  0
  3  4  1  0
  4  5  1  0
  4  6  1  0
  6  7  1  0
  7  8  1  0
  8  9  1  0
  9  2  1  0
  1 10  1  0
  1 11  1  0
  1 12  1  0
  3 13  1  0
  4 14  1  0
  5 15  1  0
  6 16  1  0
  6 17  1  0
  8 18  1  0
  8 19  1  0
  9 20  1  0
  9 21  1  0
M  END
