
     RDKit          3D

 19 20  0  0  0  0  0  0  0  0999 V2000
    1.8043   -1.2137    0.6007 C   0  0  0  0  0  0  0  0  0  0  0  0
    0.5433   -0.5357    0.2030 C   0  0  0  0  0  0  0  0  0  0  0  0
    0.4145    0.7928   -0.0198 C   0  0  0  0  0  0  0  0  0  0  0  0
    1.4508    1.8132    0.1136 C   0  0  0  0  0  0  0  0  0  0  0  0
    1.0925    3.0008   -0.1508 O   0  0  0  0  0  0  0  0  0  0  0  0
   -0.9900    0.9187   -0.4143 C   0  0  0  0  0  0  0  0  0  0  0  0
   -1.6650    0.0351    0.6470 C   0  0  0  0  0  0  0  0  0  0  0  0
   -0.8102   -1.0388   -0.0458 C   0  0  0  0  0  0  0  0  0  0  0  0
   -1.2358   -0.3027   -1.3106 C   0  0  0  0  0  0  0  0  0  0  0  0
    1.9537   -1.2132    1.7067 H   0  0  0  0  0  0  0  0  0  0  0  0
    1.7118   -2.2696    0.2243 H   0  0  0  0  0  0  0  0  0  0  0  0
    2.6972   -0.7308    0.1707 H   0  0  0  0  0  0  0  0  0  0  0  0
    2.4583    1.5818    0.4166 H   0  0  0  0  0  0  0  0  0  0  0  0
   -1.4343    1.8305   -0.6663 H   0  0  0  0  0  0  0  0  0  0  0  0
   -2.7274   -0.0746    0.4496 H   0  0  0  0  0  0  0  0  0  0  0  0
   -1.3266    0.3260    1.6356 H   0  0  0  0  0  0  0  0  0  0  0  0
   -1.0740   -2.0468    0.0822 H   0  0  0  0  0  0  0  0  0  0  0  0
   -2.3033   -0.4798   -1.4836 H   0  0  0  0  0  0  0  0  0  0  0  0
   -0.5598   -0.3933   -2.1590 H   0  0  0  0  0  0  0  0  0  0  0  0
  1  2  1  0
  2  3  2  0
  3  4  1  0
  4  5  2  0
  3  6  1  0
  6  7  1  0
  7  8  1  0
  8  9  1  0
  8  2  1  0
  9  6  1  0
  1 10  1  0
  1 11  1  0
  1 12  1  0
  4 13  1  0
  6 14  1  0
  7 15  1  0
  7 16  1  0
  8 17  1  0
  9 18  1  0
  9 19  1  0
M  END
