
     RDKit          3D

 23 23  0  0  0  0  0  0  0  0999 V2000
    3.2257   -0.4463   -0.1527 C   0  0  0  0  0  0  0  0  0  0  0  0
    1.8477    0.0896    0.1008 C   0  0  0  0  0  0  0  0  0  0  0  0
    1.5902    1.2807    0.6092 C   0  0  0  0  0  0  0  0  0  0  0  0
    0.1304    1.4889    0.7260 C   0  0  0  0  0  0  0  0  0  0  0  0
   -0.4366    0.5197   -0.2704 C   0  0  0  0  0  0  0  0  0  0  0  0
   -1.8096    0.1055    0.1985 C   0  0  0  0  0  0  0  0  0  0  0  0
   -2.3982   -0.8739   -0.7966 C   0  0  0  0  0  0  0  0  0  0  0  0
   -3.6653   -1.2471   -0.3503 O   0  0  0  0  0  0  0  0  0  0  0  0
    0.5501   -0.6306   -0.1793 C   0  0  0  0  0  0  0  0  0  0  0  0
    3.2203   -1.2215   -0.9477 H   0  0  0  0  0  0  0  0  0  0  0  0
    3.8857    0.3888   -0.5286 H   0  0  0  0  0  0  0  0  0  0  0  0
    3.7036   -0.8054    0.7765 H   0  0  0  0  0  0  0  0  0  0  0  0
    2.3171    2.0159    0.9056 H   0  0  0  0  0  0  0  0  0  0  0  0
   -0.1651    2.5362    0.5323 H   0  0  0  0  0  0  0  0  0  0  0  0
   -0.2192    1.1570    1.7382 H   0  0  0  0  0  0  0  0  0  0  0  0
   -0.4859    0.9138   -1.2988 H   0  0  0  0  0  0  0  0  0  0  0  0
   -1.8130   -0.3760    1.1726 H   0  0  0  0  0  0  0  0  0  0  0  0
   -2.4924    0.9776    0.2346 H   0  0  0  0  0  0  0  0  0  0  0  0
   -1.7672   -1.7939   -0.7441 H   0  0  0  0  0  0  0  0  0  0  0  0
   -2.4294   -0.4777   -1.8238 H   0  0  0  0  0  0  0  0  0  0  0  0
   -3.6661   -1.1525    0.6299 H   0  0  0  0  0  0  0  0  0  0  0  0
    0.5912   -1.1704   -1.1458 H   0  0  0  0  0  0  0  0  0  0  0  0
    0.2861   -1.2784    0.6665 H   0  0  0  0  0  0  0  0  0  0  0  0
  1  2  1  0
  2  3  2  0
  3  4  1  0
  4  5  1  0
  5  6  1  0
  6  7  1  0
  7  8  1  0
  5  9  1  0
  9  2  1  0
  1 10  1  0
  1 11  1  0
  1 12  1  0
  3 13  1  0
  4 14  1  0
  4 15  1  0
  5 16  1  0
  6 17  1  0
  6 18  1  0
  7 19  1  0
  7 20  1  0
  8 21  1  0
  9 22  1  0
  9 23  1  0
M  END
