
     RDKit          3D

 19 20  0  0  0  0  0  0  0  0999 V2000
    2.4151   -0.0394   -0.3772 C   0  0  0  0  0  0  0  0  0  0  0  0
    0.9616   -0.0118   -0.0450 C   0  0  0  0  0  0  0  0  0  0  0  0
    0.5056   -0.1901    1.1933 C   0  0  0  0  0  0  0  0  0  0  0  0
   -0.9760   -0.2771    1.0606 C   0  0  0  0  0  0  0  0  0  0  0  0
   -1.3663   -1.3898    0.1485 C   0  0  0  0  0  0  0  0  0  0  0  0
   -0.8993   -1.1050   -1.0577 C   0  0  0  0  0  0  0  0  0  0  0  0
   -0.1973    0.2038   -0.9546 C   0  0  0  0  0  0  0  0  0  0  0  0
   -1.1594    0.8784    0.0453 C   0  0  0  0  0  0  0  0  0  0  0  0
   -0.6782    2.0586    0.5179 O   0  0  0  0  0  0  0  0  0  0  0  0
    2.8901    0.7834    0.1917 H   0  0  0  0  0  0  0  0  0  0  0  0
    2.5508    0.0589   -1.4734 H   0  0  0  0  0  0  0  0  0  0  0  0
    2.8776   -1.0190   -0.0892 H   0  0  0  0  0  0  0  0  0  0  0  0
    1.0837   -0.2573    2.0986 H   0  0  0  0  0  0  0  0  0  0  0  0
   -1.5439   -0.1642    1.9473 H   0  0  0  0  0  0  0  0  0  0  0  0
   -1.9266   -2.2531    0.4504 H   0  0  0  0  0  0  0  0  0  0  0  0
   -0.9781   -1.6669   -1.9722 H   0  0  0  0  0  0  0  0  0  0  0  0
   -0.0287    0.7402   -1.8438 H   0  0  0  0  0  0  0  0  0  0  0  0
   -2.1872    0.8632   -0.3009 H   0  0  0  0  0  0  0  0  0  0  0  0
   -1.3433    2.7872    0.4604 H   0  0  0  0  0  0  0  0  0  0  0  0
  1  2  1  0
  2  3  2  0
  3  4  1  0
  4  5  1  0
  5  6  2  0
  6  7  1  0
  7  8  1  0
  8  9  1  0
  7  2  1  0
  8  4  1  0
  1 10  1  0
  1 11  1  0
  1 12  1  0
  3 13  1  0
  4 14  1  0
  5 15  1  0
  6 16  1  0
  7 17  1  0
  8 18  1  0
  9 19  1  0
M  END
