
     RDKit          3D

 19 19  0  0  0  0  0  0  0  0999 V2000
    2.7470   -0.0807    0.3432 C   0  0  0  0  0  0  0  0  0  0  0  0
    1.3166   -0.1314   -0.0981 C   0  0  0  0  0  0  0  0  0  0  0  0
    0.3099    0.2793    0.6164 C   0  0  0  0  0  0  0  0  0  0  0  0
   -0.9363    0.0660   -0.1562 C   0  0  0  0  0  0  0  0  0  0  0  0
   -1.7431   -0.9832    0.6004 C   0  0  0  0  0  0  0  0  0  0  0  0
   -1.7217    1.3414   -0.3337 C   0  0  0  0  0  0  0  0  0  0  0  0
   -0.5387   -0.5030   -1.3725 O   0  0  0  0  0  0  0  0  0  0  0  0
    0.8341   -0.6344   -1.3625 C   0  0  0  0  0  0  0  0  0  0  0  0
    1.5509   -1.1194   -2.3133 O   0  0  0  0  0  0  0  0  0  0  0  0
    2.8393    0.3112    1.3547 H   0  0  0  0  0  0  0  0  0  0  0  0
    3.2659    0.5785   -0.3824 H   0  0  0  0  0  0  0  0  0  0  0  0
    3.1239   -1.1224    0.3188 H   0  0  0  0  0  0  0  0  0  0  0  0
    0.3024    0.7152    1.6154 H   0  0  0  0  0  0  0  0  0  0  0  0
   -2.7454   -0.9997    0.1777 H   0  0  0  0  0  0  0  0  0  0  0  0
   -1.1818   -1.9493    0.4593 H   0  0  0  0  0  0  0  0  0  0  0  0
   -1.7016   -0.7852    1.6917 H   0  0  0  0  0  0  0  0  0  0  0  0
   -2.6945    1.3195    0.1977 H   0  0  0  0  0  0  0  0  0  0  0  0
   -1.9075    1.5153   -1.4137 H   0  0  0  0  0  0  0  0  0  0  0  0
   -1.1193    2.1825    0.0570 H   0  0  0  0  0  0  0  0  0  0  0  0
  1  2  1  0
  2  3  2  0
  3  4  1  0
  4  5  1  0
  4  6  1  0
  4  7  1  0
  7  8  1  0
  8  9  2  0
  8  2  1  0
  1 10  1  0
  1 11  1  0
  1 12  1  0
  3 13  1  0
  5 14  1  0
  5 15  1  0
  5 16  1  0
  6 17  1  0
  6 18  1  0
  6 19  1  0
M  END
