
     RDKit          3D

 17 17  0  0  0  0  0  0  0  0999 V2000
   -2.5521    0.1234    0.1955 C   0  0  0  0  0  0  0  0  0  0  0  0
   -1.0800   -0.0929    0.0344 C   0  0  0  0  0  0  0  0  0  0  0  0
   -0.5354   -1.0753   -0.6736 C   0  0  0  0  0  0  0  0  0  0  0  0
    0.9623   -0.9577   -0.5949 C   0  0  0  0  0  0  0  0  0  0  0  0
    1.1694    0.5112   -0.2216 C   0  0  0  0  0  0  0  0  0  0  0  0
    2.4214    0.7434    0.4921 C   0  0  0  0  0  0  0  0  0  0  0  0
    2.8415   -0.0974    1.2669 O   0  0  0  0  0  0  0  0  0  0  0  0
   -0.0421    0.7421    0.6302 C   0  0  0  0  0  0  0  0  0  0  0  0
   -0.1633    1.4849    1.6392 O   0  0  0  0  0  0  0  0  0  0  0  0
   -2.7974    1.1954    0.3522 H   0  0  0  0  0  0  0  0  0  0  0  0
   -2.9648   -0.4711    1.0242 H   0  0  0  0  0  0  0  0  0  0  0  0
   -3.0354   -0.2367   -0.7348 H   0  0  0  0  0  0  0  0  0  0  0  0
   -1.0289   -1.8587   -1.2345 H   0  0  0  0  0  0  0  0  0  0  0  0
    1.3788   -1.6014    0.2010 H   0  0  0  0  0  0  0  0  0  0  0  0
    1.4433   -1.1830   -1.5530 H   0  0  0  0  0  0  0  0  0  0  0  0
    1.0245    1.0954   -1.1349 H   0  0  0  0  0  0  0  0  0  0  0  0
    2.9582    1.6783    0.3114 H   0  0  0  0  0  0  0  0  0  0  0  0
  1  2  1  0
  2  3  2  0
  3  4  1  0
  4  5  1  0
  5  6  1  0
  6  7  2  0
  5  8  1  0
  8  9  2  0
  8  2  1  0
  1 10  1  0
  1 11  1  0
  1 12  1  0
  3 13  1  0
  4 14  1  0
  4 15  1  0
  5 16  1  0
  6 17  1  0
M  END
