
     RDKit          3D

 20 21  0  0  0  0  0  0  0  0999 V2000
    2.5035    0.1813    0.2555 C   0  0  0  0  0  0  0  0  0  0  0  0
    1.0349    0.1270    0.1669 C   0  0  0  0  0  0  0  0  0  0  0  0
    0.2550    0.9746    0.8163 C   0  0  0  0  0  0  0  0  0  0  0  0
   -1.2002    0.8085    0.6240 C   0  0  0  0  0  0  0  0  0  0  0  0
   -1.3698    0.6956   -0.9025 C   0  0  0  0  0  0  0  0  0  0  0  0
   -1.0548   -0.7558   -0.7266 C   0  0  0  0  0  0  0  0  0  0  0  0
    0.4279   -0.9515   -0.7090 C   0  0  0  0  0  0  0  0  0  0  0  0
   -1.4986   -0.6707    0.7304 C   0  0  0  0  0  0  0  0  0  0  0  0
    2.8033    1.2470    0.1701 H   0  0  0  0  0  0  0  0  0  0  0  0
    2.8248   -0.3085    1.1746 H   0  0  0  0  0  0  0  0  0  0  0  0
    2.9770   -0.3539   -0.6040 H   0  0  0  0  0  0  0  0  0  0  0  0
    0.6493    1.7342    1.4424 H   0  0  0  0  0  0  0  0  0  0  0  0
   -1.8712    1.4947    1.1112 H   0  0  0  0  0  0  0  0  0  0  0  0
   -0.5882    1.2373   -1.4743 H   0  0  0  0  0  0  0  0  0  0  0  0
   -2.3917    0.9595   -1.2030 H   0  0  0  0  0  0  0  0  0  0  0  0
   -1.6435   -1.4670   -1.3171 H   0  0  0  0  0  0  0  0  0  0  0  0
    0.8822   -0.9012   -1.7082 H   0  0  0  0  0  0  0  0  0  0  0  0
    0.6262   -1.9338   -0.1992 H   0  0  0  0  0  0  0  0  0  0  0  0
   -2.5415   -0.9444    0.9041 H   0  0  0  0  0  0  0  0  0  0  0  0
   -0.8245   -1.1729    1.4485 H   0  0  0  0  0  0  0  0  0  0  0  0
  1  2  1  0
  2  3  2  0
  3  4  1  0
  4  5  1  0
  5  6  1  0
  6  7  1  0
  6  8  1  0
  7  2  1  0
  8  4  1  0
  1  9  1  0
  1 10  1  0
  1 11  1  0
  3 12  1  0
  4 13  1  0
  5 14  1  0
  5 15  1  0
  6 16  1  0
  7 17  1  0
  7 18  1  0
  8 19  1  0
  8 20  1  0
M  END
