
     RDKit          3D

 17 17  0  0  0  0  0  0  0  0999 V2000
    0.1425   -2.0690    0.2730 C   0  0  0  0  0  0  0  0  0  0  0  0
    0.4339   -0.5994    0.1669 C   0  0  0  0  0  0  0  0  0  0  0  0
    1.6187   -0.1458   -0.1779 C   0  0  0  0  0  0  0  0  0  0  0  0
    1.6344    1.3032   -0.2052 C   0  0  0  0  0  0  0  0  0  0  0  0
    2.5825    2.0826   -0.4876 O   0  0  0  0  0  0  0  0  0  0  0  0
    0.2950    1.7235    0.1699 C   0  0  0  0  0  0  0  0  0  0  0  0
   -0.1259    2.9298    0.2709 O   0  0  0  0  0  0  0  0  0  0  0  0
   -0.4845    0.4950    0.4114 C   0  0  0  0  0  0  0  0  0  0  0  0
   -1.7299    0.4404   -0.4485 C   0  0  0  0  0  0  0  0  0  0  0  0
   -0.6854   -2.2543   -0.4494 H   0  0  0  0  0  0  0  0  0  0  0  0
    0.9781   -2.6943   -0.0261 H   0  0  0  0  0  0  0  0  0  0  0  0
   -0.1720   -2.3448    1.2914 H   0  0  0  0  0  0  0  0  0  0  0  0
    2.4970   -0.7695   -0.4184 H   0  0  0  0  0  0  0  0  0  0  0  0
   -0.8470    0.5442    1.4746 H   0  0  0  0  0  0  0  0  0  0  0  0
   -2.4549   -0.2106    0.0860 H   0  0  0  0  0  0  0  0  0  0  0  0
   -2.1591    1.4631   -0.4507 H   0  0  0  0  0  0  0  0  0  0  0  0
   -1.5233    0.1059   -1.4803 H   0  0  0  0  0  0  0  0  0  0  0  0
  1  2  1  0
  2  3  2  0
  3  4  1  0
  4  5  2  0
  4  6  1  0
  6  7  2  0
  6  8  1  0
  8  9  1  0
  8  2  1  0
  1 10  1  0
  1 11  1  0
  1 12  1  0
  3 13  1  0
  8 14  1  0
  9 15  1  0
  9 16  1  0
  9 17  1  0
M  END
