
     RDKit          3D

 21 22  0  0  0  0  0  0  0  0999 V2000
   -2.5629    0.0619   -0.3269 C   0  0  0  0  0  0  0  0  0  0  0  0
   -1.0853    0.1852   -0.2824 C   0  0  0  0  0  0  0  0  0  0  0  0
   -0.5618    1.3989   -0.2182 C   0  0  0  0  0  0  0  0  0  0  0  0
    0.9130    1.5065   -0.1754 C   0  0  0  0  0  0  0  0  0  0  0  0
    1.4949    0.4599    0.6863 C   0  0  0  0  0  0  0  0  0  0  0  0
    2.3109   -0.6136   -0.0922 C   0  0  0  0  0  0  0  0  0  0  0  0
    0.9798   -0.9028    0.5495 C   0  0  0  0  0  0  0  0  0  0  0  0
   -0.2541   -1.0359   -0.3037 C   0  0  0  0  0  0  0  0  0  0  0  0
   -1.0255   -2.0751    0.2127 O   0  0  0  0  0  0  0  0  0  0  0  0
   -3.0007    0.4801   -1.2565 H   0  0  0  0  0  0  0  0  0  0  0  0
   -3.0061    0.6391    0.5286 H   0  0  0  0  0  0  0  0  0  0  0  0
   -2.9134   -0.9771   -0.2431 H   0  0  0  0  0  0  0  0  0  0  0  0
   -1.1868    2.3018   -0.1968 H   0  0  0  0  0  0  0  0  0  0  0  0
    1.2612    1.4594   -1.2409 H   0  0  0  0  0  0  0  0  0  0  0  0
    1.1706    2.5322    0.1874 H   0  0  0  0  0  0  0  0  0  0  0  0
    1.9576    0.7591    1.6467 H   0  0  0  0  0  0  0  0  0  0  0  0
    2.3850   -0.4970   -1.1848 H   0  0  0  0  0  0  0  0  0  0  0  0
    3.2384   -0.9783    0.4123 H   0  0  0  0  0  0  0  0  0  0  0  0
    1.0451   -1.5458    1.4499 H   0  0  0  0  0  0  0  0  0  0  0  0
    0.0538   -1.3455   -1.3199 H   0  0  0  0  0  0  0  0  0  0  0  0
   -1.2137   -1.8133    1.1676 H   0  0  0  0  0  0  0  0  0  0  0  0
  1  2  1  0
  2  3  2  0
  3  4  1  0
  4  5  1  0
  5  6  1  0
  6  7  1  0
  7  8  1  0
  8  9  1  0
  8  2  1  0
  7  5  1  0
  1 10  1  0
  1 11  1  0
  1 12  1  0
  3 13  1  0
  4 14  1  0
  4 15  1  0
  5 16  1  0
  6 17  1  0
  6 18  1  0
  7 19  1  0
  8 20  1  0
  9 21  1  0
M  END
