
     RDKit          3D

 23 24  0  0  0  0  0  0  0  0999 V2000
    3.0189   -0.2739   -0.3616 C   0  0  0  0  0  0  0  0  0  0  0  0
    1.5545   -0.2492   -0.1568 C   0  0  0  0  0  0  0  0  0  0  0  0
    0.7549   -0.6695   -1.1226 C   0  0  0  0  0  0  0  0  0  0  0  0
   -0.7282   -0.6779   -0.9977 C   0  0  0  0  0  0  0  0  0  0  0  0
   -1.3454   -1.3056    0.1987 C   0  0  0  0  0  0  0  0  0  0  0  0
   -1.3050    0.1680    0.0336 C   0  0  0  0  0  0  0  0  0  0  0  0
   -2.6312    0.8852   -0.1554 C   0  0  0  0  0  0  0  0  0  0  0  0
   -0.2748    1.0206    0.7070 C   0  0  0  0  0  0  0  0  0  0  0  0
    0.9643    0.2366    1.1039 C   0  0  0  0  0  0  0  0  0  0  0  0
    3.4118    0.7443   -0.6387 H   0  0  0  0  0  0  0  0  0  0  0  0
    3.5231   -0.5268    0.5924 H   0  0  0  0  0  0  0  0  0  0  0  0
    3.2573   -1.0146   -1.1627 H   0  0  0  0  0  0  0  0  0  0  0  0
    1.2218   -1.0207   -2.0407 H   0  0  0  0  0  0  0  0  0  0  0  0
   -1.2668   -0.7451   -1.9607 H   0  0  0  0  0  0  0  0  0  0  0  0
   -2.3262   -1.7814    0.0373 H   0  0  0  0  0  0  0  0  0  0  0  0
   -0.7477   -1.7780    0.9919 H   0  0  0  0  0  0  0  0  0  0  0  0
   -2.8717    1.3502    0.8272 H   0  0  0  0  0  0  0  0  0  0  0  0
   -3.4534    0.2100   -0.4031 H   0  0  0  0  0  0  0  0  0  0  0  0
   -2.4759    1.7106   -0.8730 H   0  0  0  0  0  0  0  0  0  0  0  0
   -0.6872    1.5932    1.5594 H   0  0  0  0  0  0  0  0  0  0  0  0
    0.0721    1.7741   -0.0478 H   0  0  0  0  0  0  0  0  0  0  0  0
    0.7171   -0.5866    1.8082 H   0  0  0  0  0  0  0  0  0  0  0  0
    1.6176    0.9368    1.6548 H   0  0  0  0  0  0  0  0  0  0  0  0
  1  2  1  0
  2  3  2  0
  3  4  1  0
  4  5  1  0
  5  6  1  0
  6  7  1  0
  6  8  1  0
  8  9  1  0
  9  2  1  0
  6  4  1  0
  1 10  1  0
  1 11  1  0
  1 12  1  0
  3 13  1  0
  4 14  1  0
  5 15  1  0
  5 16  1  0
  7 17  1  0
  7 18  1  0
  7 19  1  0
  8 20  1  0
  8 21  1  0
  9 22  1  0
  9 23  1  0
M  END
