
     RDKit          3D

 17 17  0  0  0  0  0  0  0  0999 V2000
    1.4772   -1.2157    0.6436 C   0  0  0  0  0  0  0  0  0  0  0  0
    0.2677   -0.4262    0.3143 C   0  0  0  0  0  0  0  0  0  0  0  0
    0.3010    0.7176   -0.3446 C   0  0  0  0  0  0  0  0  0  0  0  0
    1.5246    1.3798   -0.8475 C   0  0  0  0  0  0  0  0  0  0  0  0
    2.6437    0.8492   -0.6572 O   0  0  0  0  0  0  0  0  0  0  0  0
   -1.0489    1.2557   -0.5259 C   0  0  0  0  0  0  0  0  0  0  0  0
   -1.3627    2.4257   -0.7848 O   0  0  0  0  0  0  0  0  0  0  0  0
   -1.9313    0.0611   -0.3237 C   0  0  0  0  0  0  0  0  0  0  0  0
   -1.1232   -0.7490    0.6511 C   0  0  0  0  0  0  0  0  0  0  0  0
    2.1395   -0.6354    1.3131 H   0  0  0  0  0  0  0  0  0  0  0  0
    1.2123   -2.1426    1.1838 H   0  0  0  0  0  0  0  0  0  0  0  0
    2.0322   -1.4036   -0.2902 H   0  0  0  0  0  0  0  0  0  0  0  0
    1.4121    2.3112   -1.3692 H   0  0  0  0  0  0  0  0  0  0  0  0
   -2.9194    0.3622    0.0688 H   0  0  0  0  0  0  0  0  0  0  0  0
   -1.9885   -0.5163   -1.2698 H   0  0  0  0  0  0  0  0  0  0  0  0
   -1.3516   -1.8340    0.5348 H   0  0  0  0  0  0  0  0  0  0  0  0
   -1.2848   -0.4397    1.7036 H   0  0  0  0  0  0  0  0  0  0  0  0
  1  2  1  0
  2  3  2  0
  3  4  1  0
  4  5  2  0
  3  6  1  0
  6  7  2  0
  6  8  1  0
  8  9  1  0
  9  2  1  0
  1 10  1  0
  1 11  1  0
  1 12  1  0
  4 13  1  0
  8 14  1  0
  8 15  1  0
  9 16  1  0
  9 17  1  0
M  END
