
     RDKit          3D

 19 20  0  0  0  0  0  0  0  0999 V2000
    2.3837   -0.6432    0.5085 C   0  0  0  0  0  0  0  0  0  0  0  0
    0.9874   -0.1882    0.2288 C   0  0  0  0  0  0  0  0  0  0  0  0
    0.6064    1.0750    0.2844 C   0  0  0  0  0  0  0  0  0  0  0  0
   -0.8214    1.2333   -0.0371 C   0  0  0  0  0  0  0  0  0  0  0  0
   -1.1199    2.2634   -0.8662 O   0  0  0  0  0  0  0  0  0  0  0  0
   -1.2277   -0.1237   -0.4988 C   0  0  0  0  0  0  0  0  0  0  0  0
   -1.7568   -0.3281   -1.7537 O   0  0  0  0  0  0  0  0  0  0  0  0
   -1.3862   -1.1330    0.5911 C   0  0  0  0  0  0  0  0  0  0  0  0
   -0.1139   -1.0849   -0.1370 C   0  0  0  0  0  0  0  0  0  0  0  0
    3.1021    0.1981    0.4919 H   0  0  0  0  0  0  0  0  0  0  0  0
    2.4349   -1.1223    1.5043 H   0  0  0  0  0  0  0  0  0  0  0  0
    2.7377   -1.3427   -0.3038 H   0  0  0  0  0  0  0  0  0  0  0  0
    1.2328    1.9365    0.5332 H   0  0  0  0  0  0  0  0  0  0  0  0
   -1.3473    1.4189    0.9447 H   0  0  0  0  0  0  0  0  0  0  0  0
   -1.2845    3.1128   -0.3469 H   0  0  0  0  0  0  0  0  0  0  0  0
   -1.0129   -0.5911   -2.3820 H   0  0  0  0  0  0  0  0  0  0  0  0
   -2.0472   -1.9905    0.4155 H   0  0  0  0  0  0  0  0  0  0  0  0
   -1.4716   -0.7540    1.6531 H   0  0  0  0  0  0  0  0  0  0  0  0
    0.1043   -1.9363   -0.8300 H   0  0  0  0  0  0  0  0  0  0  0  0
  1  2  1  0
  2  3  2  0
  3  4  1  0
  4  5  1  0
  4  6  1  0
  6  7  1  0
  6  8  1  0
  8  9  1  0
  9  2  1  0
  9  6  1  0
  1 10  1  0
  1 11  1  0
  1 12  1  0
  3 13  1  0
  4 14  1  0
  5 15  1  0
  7 16  1  0
  8 17  1  0
  8 18  1  0
  9 19  1  0
M  END
