
     RDKit          3D

 23 23  0  0  0  0  0  0  0  0999 V2000
   -2.1796    1.2177    0.5892 C   0  0  0  0  0  0  0  0  0  0  0  0
   -0.8980    0.6822    0.0278 C   0  0  0  0  0  0  0  0  0  0  0  0
    0.2600    1.3128    0.1501 C   0  0  0  0  0  0  0  0  0  0  0  0
    1.2921    0.5036   -0.5166 C   0  0  0  0  0  0  0  0  0  0  0  0
    2.6614    0.6600    0.0814 C   0  0  0  0  0  0  0  0  0  0  0  0
    0.7549   -0.8987   -0.3904 C   0  0  0  0  0  0  0  0  0  0  0  0
    0.8548   -1.4078    0.8876 O   0  0  0  0  0  0  0  0  0  0  0  0
   -0.7187   -0.6002   -0.7236 C   0  0  0  0  0  0  0  0  0  0  0  0
   -1.5833   -1.7034   -0.2168 C   0  0  0  0  0  0  0  0  0  0  0  0
   -2.2090    1.1219    1.7018 H   0  0  0  0  0  0  0  0  0  0  0  0
   -2.3544    2.2663    0.2821 H   0  0  0  0  0  0  0  0  0  0  0  0
   -3.0049    0.5925    0.2002 H   0  0  0  0  0  0  0  0  0  0  0  0
    0.4534    2.2766    0.6562 H   0  0  0  0  0  0  0  0  0  0  0  0
    1.2674    0.7594   -1.5987 H   0  0  0  0  0  0  0  0  0  0  0  0
    2.6631    1.4828    0.8293 H   0  0  0  0  0  0  0  0  0  0  0  0
    3.3442    0.9726   -0.7397 H   0  0  0  0  0  0  0  0  0  0  0  0
    3.0689   -0.2890    0.4747 H   0  0  0  0  0  0  0  0  0  0  0  0
    1.1884   -1.5907   -1.1355 H   0  0  0  0  0  0  0  0  0  0  0  0
    1.3791   -0.8452    1.5026 H   0  0  0  0  0  0  0  0  0  0  0  0
   -0.8782   -0.4630   -1.7941 H   0  0  0  0  0  0  0  0  0  0  0  0
   -1.1654   -2.6648   -0.6003 H   0  0  0  0  0  0  0  0  0  0  0  0
   -1.5846   -1.7921    0.8880 H   0  0  0  0  0  0  0  0  0  0  0  0
   -2.6115   -1.5932   -0.5555 H   0  0  0  0  0  0  0  0  0  0  0  0
  1  2  1  0
  2  3  2  0
  3  4  1  0
  4  5  1  0
  4  6  1  0
  6  7  1  0
  6  8  1  0
  8  9  1  0
  8  2  1  0
  1 10  1  0
  1 11  1  0
  1 12  1  0
  3 13  1  0
  4 14  1  0
  5 15  1  0
  5 16  1  0
  5 17  1  0
  6 18  1  0
  7 19  1  0
  8 20  1  0
  9 21  1  0
  9 22  1  0
  9 23  1  0
M  END
