
     RDKit          3D

 21 21  0  0  0  0  0  0  0  0999 V2000
   -2.2383   -1.3979    0.0891 C   0  0  0  0  0  0  0  0  0  0  0  0
   -1.2191   -0.3191   -0.1463 C   0  0  0  0  0  0  0  0  0  0  0  0
   -1.6570    0.8919    0.1349 C   0  0  0  0  0  0  0  0  0  0  0  0
   -0.8699    2.1395   -0.0023 C   0  0  0  0  0  0  0  0  0  0  0  0
    0.4592    2.2071    0.0412 C   0  0  0  0  0  0  0  0  0  0  0  0
    1.4456    1.1456    0.2233 C   0  0  0  0  0  0  0  0  0  0  0  0
    1.2550   -0.1307   -0.0765 C   0  0  0  0  0  0  0  0  0  0  0  0
    2.4639   -0.9825    0.2270 C   0  0  0  0  0  0  0  0  0  0  0  0
    0.0755   -0.8426   -0.6494 C   0  0  0  0  0  0  0  0  0  0  0  0
   -3.2393   -0.9936    0.2591 H   0  0  0  0  0  0  0  0  0  0  0  0
   -1.8594   -1.9653    0.9811 H   0  0  0  0  0  0  0  0  0  0  0  0
   -2.1795   -2.0750   -0.7914 H   0  0  0  0  0  0  0  0  0  0  0  0
   -2.6820    1.0045    0.5003 H   0  0  0  0  0  0  0  0  0  0  0  0
   -1.4471    3.0272   -0.1448 H   0  0  0  0  0  0  0  0  0  0  0  0
    0.8487    3.2071   -0.0777 H   0  0  0  0  0  0  0  0  0  0  0  0
    2.4051    1.4273    0.6346 H   0  0  0  0  0  0  0  0  0  0  0  0
    3.1703   -0.8576   -0.6064 H   0  0  0  0  0  0  0  0  0  0  0  0
    2.0802   -2.0349    0.3073 H   0  0  0  0  0  0  0  0  0  0  0  0
    2.8810   -0.6851    1.2065 H   0  0  0  0  0  0  0  0  0  0  0  0
    0.1135   -0.8474   -1.7686 H   0  0  0  0  0  0  0  0  0  0  0  0
    0.1937   -1.9184   -0.3409 H   0  0  0  0  0  0  0  0  0  0  0  0
  1  2  1  0
  2  3  2  0
  3  4  1  0
  4  5  2  0
  5  6  1  0
  6  7  2  0
  7  8  1  0
  7  9  1  0
  9  2  1  0
  1 10  1  0
  1 11  1  0
  1 12  1  0
  3 13  1  0
  4 14  1  0
  5 15  1  0
  6 16  1  0
  8 17  1  0
  8 18  1  0
  8 19  1  0
  9 20  1  0
  9 21  1  0
M  END
