
     RDKit          3D

 15 16  0  0  0  0  0  0  0  0999 V2000
    2.1010    0.3853   -0.1488 C   0  0  0  0  0  0  0  0  0  0  0  0
    0.6922    0.0404    0.0949 C   0  0  0  0  0  0  0  0  0  0  0  0
   -0.1767    0.7682    0.7921 C   0  0  0  0  0  0  0  0  0  0  0  0
   -1.4417    0.0204    0.7614 C   0  0  0  0  0  0  0  0  0  0  0  0
   -0.9339   -1.3059    0.7707 O   0  0  0  0  0  0  0  0  0  0  0  0
   -0.0830   -1.1496   -0.3526 C   0  0  0  0  0  0  0  0  0  0  0  0
   -1.0628   -0.7611   -1.3318 O   0  0  0  0  0  0  0  0  0  0  0  0
   -1.9436    0.0525   -0.6316 C   0  0  0  0  0  0  0  0  0  0  0  0
   -2.9471    0.7004   -0.9928 O   0  0  0  0  0  0  0  0  0  0  0  0
    2.7187   -0.5538   -0.0654 H   0  0  0  0  0  0  0  0  0  0  0  0
    2.4972    1.0846    0.5931 H   0  0  0  0  0  0  0  0  0  0  0  0
    2.2211    0.8028   -1.1867 H   0  0  0  0  0  0  0  0  0  0  0  0
    0.0281    1.7135    1.2740 H   0  0  0  0  0  0  0  0  0  0  0  0
   -2.1524    0.2201    1.5258 H   0  0  0  0  0  0  0  0  0  0  0  0
    0.4830   -2.0178   -0.6058 H   0  0  0  0  0  0  0  0  0  0  0  0
  1  2  1  0
  2  3  2  0
  3  4  1  0
  4  5  1  0
  5  6  1  0
  6  7  1  0
  7  8  1  0
  8  9  2  0
  6  2  1  0
  8  4  1  0
  1 10  1  0
  1 11  1  0
  1 12  1  0
  3 13  1  0
  4 14  1  0
  6 15  1  0
M  END
