
     RDKit          3D

 17 18  0  0  0  0  0  0  0  0999 V2000
    2.5665    0.2856   -0.1765 C   0  0  0  0  0  0  0  0  0  0  0  0
    1.1288   -0.0599   -0.0171 C   0  0  0  0  0  0  0  0  0  0  0  0
    0.3925    0.2163    1.0429 C   0  0  0  0  0  0  0  0  0  0  0  0
   -0.9801   -0.2750    0.8464 C   0  0  0  0  0  0  0  0  0  0  0  0
   -1.7647    0.4204   -0.2754 C   0  0  0  0  0  0  0  0  0  0  0  0
   -3.1272    0.4758   -0.0596 O   0  0  0  0  0  0  0  0  0  0  0  0
   -1.0587   -0.8606   -0.5274 C   0  0  0  0  0  0  0  0  0  0  0  0
    0.3186   -0.7575   -1.0137 C   0  0  0  0  0  0  0  0  0  0  0  0
    0.7699   -1.1834   -2.0986 O   0  0  0  0  0  0  0  0  0  0  0  0
    3.1949   -0.5491    0.1512 H   0  0  0  0  0  0  0  0  0  0  0  0
    2.8300    1.2007    0.3890 H   0  0  0  0  0  0  0  0  0  0  0  0
    2.7810    0.4344   -1.2672 H   0  0  0  0  0  0  0  0  0  0  0  0
    0.7379    0.7226    1.9183 H   0  0  0  0  0  0  0  0  0  0  0  0
   -1.5488   -0.7096    1.6823 H   0  0  0  0  0  0  0  0  0  0  0  0
   -1.3419    1.3662   -0.6763 H   0  0  0  0  0  0  0  0  0  0  0  0
   -3.2593    1.0680    0.7455 H   0  0  0  0  0  0  0  0  0  0  0  0
   -1.6394   -1.7947   -0.6638 H   0  0  0  0  0  0  0  0  0  0  0  0
  1  2  1  0
  2  3  2  0
  3  4  1  0
  4  5  1  0
  5  6  1  0
  5  7  1  0
  7  8  1  0
  8  9  2  0
  8  2  1  0
  7  4  1  0
  1 10  1  0
  1 11  1  0
  1 12  1  0
  3 13  1  0
  4 14  1  0
  5 15  1  0
  6 16  1  0
  7 17  1  0
M  END
