
     RDKit          3D

 18 18  0  0  0  0  0  0  0  0999 V2000
   -2.1755    0.0899    0.4877 C   0  0  0  0  0  0  0  0  0  0  0  0
   -0.7918   -0.0416   -0.0385 C   0  0  0  0  0  0  0  0  0  0  0  0
   -0.1364    1.1056   -0.1644 C   0  0  0  0  0  0  0  0  0  0  0  0
    1.2550    1.3547   -0.6546 C   0  0  0  0  0  0  0  0  0  0  0  0
    2.1968    0.5780   -0.0396 O   0  0  0  0  0  0  0  0  0  0  0  0
    1.7623   -0.6436    0.4041 C   0  0  0  0  0  0  0  0  0  0  0  0
    1.0767   -1.3877   -0.5386 O   0  0  0  0  0  0  0  0  0  0  0  0
   -0.2824   -1.4006   -0.3658 C   0  0  0  0  0  0  0  0  0  0  0  0
   -2.1446    0.8525    1.2936 H   0  0  0  0  0  0  0  0  0  0  0  0
   -2.8557    0.5359   -0.2973 H   0  0  0  0  0  0  0  0  0  0  0  0
   -2.5964   -0.8710    0.8190 H   0  0  0  0  0  0  0  0  0  0  0  0
   -0.7181    1.9665    0.1388 H   0  0  0  0  0  0  0  0  0  0  0  0
    1.3311    1.1784   -1.7546 H   0  0  0  0  0  0  0  0  0  0  0  0
    1.4835    2.4234   -0.4638 H   0  0  0  0  0  0  0  0  0  0  0  0
    1.2064   -0.5765    1.3842 H   0  0  0  0  0  0  0  0  0  0  0  0
    2.6852   -1.2443    0.6599 H   0  0  0  0  0  0  0  0  0  0  0  0
   -0.5553   -2.1311    0.4404 H   0  0  0  0  0  0  0  0  0  0  0  0
   -0.7409   -1.7882   -1.3104 H   0  0  0  0  0  0  0  0  0  0  0  0
  1  2  1  0
  2  3  2  0
  3  4  1  0
  4  5  1  0
  5  6  1  0
  6  7  1  0
  7  8  1  0
  8  2  1  0
  1  9  1  0
  1 10  1  0
  1 11  1  0
  3 12  1  0
  4 13  1  0
  4 14  1  0
  6 15  1  0
  6 16  1  0
  8 17  1  0
  8 18  1  0
M  END
