
     RDKit          3D

 19 20  0  0  0  0  0  0  0  0999 V2000
    2.3229   -0.0782    0.1757 C   0  0  0  0  0  0  0  0  0  0  0  0
    0.8662   -0.1395    0.3372 C   0  0  0  0  0  0  0  0  0  0  0  0
    0.1905   -1.1408    0.8905 C   0  0  0  0  0  0  0  0  0  0  0  0
   -1.2223   -0.8322    0.8698 C   0  0  0  0  0  0  0  0  0  0  0  0
   -2.2744   -0.8708   -0.0509 C   0  0  0  0  0  0  0  0  0  0  0  0
   -1.1734   -0.1791   -0.5704 C   0  0  0  0  0  0  0  0  0  0  0  0
   -0.1982    0.8396   -0.0775 C   0  0  0  0  0  0  0  0  0  0  0  0
    0.2469    1.8054   -1.0596 C   0  0  0  0  0  0  0  0  0  0  0  0
   -0.6114    2.4164   -1.6820 O   0  0  0  0  0  0  0  0  0  0  0  0
    2.7923   -1.0558   -0.0793 H   0  0  0  0  0  0  0  0  0  0  0  0
    2.6355    0.6107   -0.6594 H   0  0  0  0  0  0  0  0  0  0  0  0
    2.8602    0.2905    1.0685 H   0  0  0  0  0  0  0  0  0  0  0  0
    0.6741   -2.0255    1.2795 H   0  0  0  0  0  0  0  0  0  0  0  0
   -1.4106   -0.1007    1.7245 H   0  0  0  0  0  0  0  0  0  0  0  0
   -3.2235   -0.2968    0.1240 H   0  0  0  0  0  0  0  0  0  0  0  0
   -2.5736   -1.8899   -0.4403 H   0  0  0  0  0  0  0  0  0  0  0  0
   -0.6135   -0.7835   -1.3573 H   0  0  0  0  0  0  0  0  0  0  0  0
   -0.5534    1.3666    0.8280 H   0  0  0  0  0  0  0  0  0  0  0  0
    1.2656    2.0636   -1.3212 H   0  0  0  0  0  0  0  0  0  0  0  0
  1  2  1  0
  2  3  2  0
  3  4  1  0
  4  5  1  0
  5  6  1  0
  6  7  1  0
  7  8  1  0
  8  9  2  0
  7  2  1  0
  6  4  1  0
  1 10  1  0
  1 11  1  0
  1 12  1  0
  3 13  1  0
  4 14  1  0
  5 15  1  0
  5 16  1  0
  6 17  1  0
  7 18  1  0
  8 19  1  0
M  END
