
     RDKit          3D

 18 18  0  0  0  0  0  0  0  0999 V2000
    2.6597   -0.1222    0.3112 C   0  0  0  0  0  0  0  0  0  0  0  0
    1.1748   -0.2047    0.1507 C   0  0  0  0  0  0  0  0  0  0  0  0
    0.5636   -1.1999   -0.4601 C   0  0  0  0  0  0  0  0  0  0  0  0
   -0.8862   -1.0376   -0.4797 C   0  0  0  0  0  0  0  0  0  0  0  0
   -1.7958   -1.8683   -0.7023 O   0  0  0  0  0  0  0  0  0  0  0  0
   -1.0652    0.4241   -0.1572 C   0  0  0  0  0  0  0  0  0  0  0  0
   -2.3462    0.5574    0.6032 C   0  0  0  0  0  0  0  0  0  0  0  0
    0.1568    0.7583    0.6234 C   0  0  0  0  0  0  0  0  0  0  0  0
    3.0132   -1.1532    0.5073 H   0  0  0  0  0  0  0  0  0  0  0  0
    3.1603    0.3002   -0.5635 H   0  0  0  0  0  0  0  0  0  0  0  0
    2.9117    0.4774    1.1936 H   0  0  0  0  0  0  0  0  0  0  0  0
    1.0903   -2.0650   -0.9095 H   0  0  0  0  0  0  0  0  0  0  0  0
   -1.1034    1.0335   -1.0610 H   0  0  0  0  0  0  0  0  0  0  0  0
   -2.6558    1.6185    0.5927 H   0  0  0  0  0  0  0  0  0  0  0  0
   -2.2977    0.1239    1.6226 H   0  0  0  0  0  0  0  0  0  0  0  0
   -3.1212   -0.0416    0.0546 H   0  0  0  0  0  0  0  0  0  0  0  0
    0.0203    0.6230    1.7157 H   0  0  0  0  0  0  0  0  0  0  0  0
    0.5206    1.7760    0.3832 H   0  0  0  0  0  0  0  0  0  0  0  0
  1  2  1  0
  2  3  2  0
  3  4  1  0
  4  5  2  0
  4  6  1  0
  6  7  1  0
  6  8  1  0
  8  2  1  0
  1  9  1  0
  1 10  1  0
  1 11  1  0
  3 12  1  0
  6 13  1  0
  7 14  1  0
  7 15  1  0
  7 16  1  0
  8 17  1  0
  8 18  1  0
M  END
