
     RDKit          3D

 19 20  0  0  0  0  0  0  0  0999 V2000
    2.1710   -0.2661    0.1011 C   0  0  0  0  0  0  0  0  0  0  0  0
    0.7251   -0.4002   -0.1655 C   0  0  0  0  0  0  0  0  0  0  0  0
    0.1510   -1.5628   -0.5145 C   0  0  0  0  0  0  0  0  0  0  0  0
   -1.3144   -1.2270   -0.5813 C   0  0  0  0  0  0  0  0  0  0  0  0
   -1.7511   -0.9180    0.7803 C   0  0  0  0  0  0  0  0  0  0  0  0
   -1.2243    0.2721    1.0554 C   0  0  0  0  0  0  0  0  0  0  0  0
   -0.3728    0.5890   -0.1287 C   0  0  0  0  0  0  0  0  0  0  0  0
   -0.0048    1.9865   -0.2928 C   0  0  0  0  0  0  0  0  0  0  0  0
   -1.2153    0.0706   -1.1456 O   0  0  0  0  0  0  0  0  0  0  0  0
    2.3800    0.7310    0.5158 H   0  0  0  0  0  0  0  0  0  0  0  0
    2.5349   -1.0744    0.7963 H   0  0  0  0  0  0  0  0  0  0  0  0
    2.7117   -0.3516   -0.8725 H   0  0  0  0  0  0  0  0  0  0  0  0
    0.6292   -2.5146   -0.7028 H   0  0  0  0  0  0  0  0  0  0  0  0
   -1.9022   -1.9088   -1.1544 H   0  0  0  0  0  0  0  0  0  0  0  0
   -2.3669   -1.5059    1.4441 H   0  0  0  0  0  0  0  0  0  0  0  0
   -1.3374    0.9191    1.9115 H   0  0  0  0  0  0  0  0  0  0  0  0
   -0.2237    2.3284   -1.3439 H   0  0  0  0  0  0  0  0  0  0  0  0
   -0.6524    2.6384    0.3553 H   0  0  0  0  0  0  0  0  0  0  0  0
    1.0624    2.1942   -0.0575 H   0  0  0  0  0  0  0  0  0  0  0  0
  1  2  1  0
  2  3  2  0
  3  4  1  0
  4  5  1  0
  5  6  2  0
  6  7  1  0
  7  8  1  0
  7  9  1  0
  7  2  1  0
  9  4  1  0
  1 10  1  0
  1 11  1  0
  1 12  1  0
  3 13  1  0
  4 14  1  0
  5 15  1  0
  6 16  1  0
  8 17  1  0
  8 18  1  0
  8 19  1  0
M  END
