
     RDKit          3D

 21 22  0  0  0  0  0  0  0  0999 V2000
    2.5501   -0.6681    0.4685 C   0  0  0  0  0  0  0  0  0  0  0  0
    1.1793   -0.1292    0.2669 C   0  0  0  0  0  0  0  0  0  0  0  0
    0.8616    1.1574    0.3289 C   0  0  0  0  0  0  0  0  0  0  0  0
   -0.5378    1.6006   -0.0129 C   0  0  0  0  0  0  0  0  0  0  0  0
   -1.3510    0.3896   -0.3371 C   0  0  0  0  0  0  0  0  0  0  0  0
   -2.6464    0.6502   -0.7003 O   0  0  0  0  0  0  0  0  0  0  0  0
   -0.6129   -0.5654   -1.2853 C   0  0  0  0  0  0  0  0  0  0  0  0
    0.0893   -1.0881   -0.0233 C   0  0  0  0  0  0  0  0  0  0  0  0
   -1.1910   -0.7172    0.7077 C   0  0  0  0  0  0  0  0  0  0  0  0
    2.7952   -1.2356   -0.4739 H   0  0  0  0  0  0  0  0  0  0  0  0
    3.2842    0.1557    0.5998 H   0  0  0  0  0  0  0  0  0  0  0  0
    2.5273   -1.3643    1.3191 H   0  0  0  0  0  0  0  0  0  0  0  0
    1.5990    1.9169    0.6258 H   0  0  0  0  0  0  0  0  0  0  0  0
   -1.0086    2.1314    0.8122 H   0  0  0  0  0  0  0  0  0  0  0  0
   -0.4548    2.2081   -0.9443 H   0  0  0  0  0  0  0  0  0  0  0  0
   -3.1563    0.9532    0.0917 H   0  0  0  0  0  0  0  0  0  0  0  0
   -1.3150   -1.3105   -1.6794 H   0  0  0  0  0  0  0  0  0  0  0  0
    0.0635   -0.0788   -1.9912 H   0  0  0  0  0  0  0  0  0  0  0  0
    0.3426   -2.1435   -0.0383 H   0  0  0  0  0  0  0  0  0  0  0  0
   -1.9522   -1.4952    0.5282 H   0  0  0  0  0  0  0  0  0  0  0  0
   -1.0660   -0.3672    1.7373 H   0  0  0  0  0  0  0  0  0  0  0  0
  1  2  1  0
  2  3  2  0
  3  4  1  0
  4  5  1  0
  5  6  1  0
  5  7  1  0
  7  8  1  0
  8  9  1  0
  8  2  1  0
  9  5  1  0
  1 10  1  0
  1 11  1  0
  1 12  1  0
  3 13  1  0
  4 14  1  0
  4 15  1  0
  6 16  1  0
  7 17  1  0
  7 18  1  0
  8 19  1  0
  9 20  1  0
  9 21  1  0
M  END
