
     RDKit          3D

 22 22  0  0  0  0  0  0  0  0999 V2000
    2.4849   -1.0223    0.2333 C   0  0  0  0  0  0  0  0  0  0  0  0
    1.1928   -0.3176   -0.0750 C   0  0  0  0  0  0  0  0  0  0  0  0
    0.0846   -1.0355    0.0092 C   0  0  0  0  0  0  0  0  0  0  0  0
   -1.2055   -0.3519   -0.2934 C   0  0  0  0  0  0  0  0  0  0  0  0
   -2.3202   -1.1745    0.2601 C   0  0  0  0  0  0  0  0  0  0  0  0
   -1.1348    1.0308    0.2957 C   0  0  0  0  0  0  0  0  0  0  0  0
   -0.0476    1.8187   -0.3721 C   0  0  0  0  0  0  0  0  0  0  0  0
    1.2665    1.1000   -0.4417 C   0  0  0  0  0  0  0  0  0  0  0  0
    2.7891   -1.4957   -0.7425 H   0  0  0  0  0  0  0  0  0  0  0  0
    2.3003   -1.8749    0.9247 H   0  0  0  0  0  0  0  0  0  0  0  0
    3.2597   -0.3305    0.5717 H   0  0  0  0  0  0  0  0  0  0  0  0
    0.1356   -2.0847    0.2906 H   0  0  0  0  0  0  0  0  0  0  0  0
   -1.3656   -0.2451   -1.3885 H   0  0  0  0  0  0  0  0  0  0  0  0
   -3.2960   -0.9896   -0.2021 H   0  0  0  0  0  0  0  0  0  0  0  0
   -2.3640   -1.0728    1.3657 H   0  0  0  0  0  0  0  0  0  0  0  0
   -2.0710   -2.2538    0.0603 H   0  0  0  0  0  0  0  0  0  0  0  0
   -2.1077    1.5346    0.0538 H   0  0  0  0  0  0  0  0  0  0  0  0
   -1.0165    1.0491    1.3765 H   0  0  0  0  0  0  0  0  0  0  0  0
   -0.3852    2.1598   -1.3844 H   0  0  0  0  0  0  0  0  0  0  0  0
    0.0987    2.7468    0.2197 H   0  0  0  0  0  0  0  0  0  0  0  0
    2.0300    1.5832    0.2361 H   0  0  0  0  0  0  0  0  0  0  0  0
    1.6718    1.2259   -1.4680 H   0  0  0  0  0  0  0  0  0  0  0  0
  1  2  1  0
  2  3  2  0
  3  4  1  0
  4  5  1  0
  4  6  1  0
  6  7  1  0
  7  8  1  0
  8  2  1  0
  1  9  1  0
  1 10  1  0
  1 11  1  0
  3 12  1  0
  4 13  1  0
  5 14  1  0
  5 15  1  0
  5 16  1  0
  6 17  1  0
  6 18  1  0
  7 19  1  0
  7 20  1  0
  8 21  1  0
  8 22  1  0
M  END
