
     RDKit          3D

 21 22  0  0  0  0  0  0  0  0999 V2000
    2.2248    0.0125    0.3273 C   0  0  0  0  0  0  0  0  0  0  0  0
    0.7977   -0.3909    0.1682 C   0  0  0  0  0  0  0  0  0  0  0  0
    0.3290   -1.3807    0.9634 C   0  0  0  0  0  0  0  0  0  0  0  0
   -1.0624   -1.7481    0.7829 C   0  0  0  0  0  0  0  0  0  0  0  0
   -2.1831   -1.3867    1.3570 O   0  0  0  0  0  0  0  0  0  0  0  0
   -1.7293   -0.3489    0.6994 C   0  0  0  0  0  0  0  0  0  0  0  0
   -1.5148   -0.0352   -0.7173 C   0  0  0  0  0  0  0  0  0  0  0  0
   -0.0407    0.3059   -0.8484 C   0  0  0  0  0  0  0  0  0  0  0  0
    0.0711    1.8109   -0.6550 C   0  0  0  0  0  0  0  0  0  0  0  0
    2.4009    1.0376   -0.0602 H   0  0  0  0  0  0  0  0  0  0  0  0
    2.8602   -0.7164   -0.2270 H   0  0  0  0  0  0  0  0  0  0  0  0
    2.5372   -0.0862    1.4020 H   0  0  0  0  0  0  0  0  0  0  0  0
    1.0124   -1.8248    1.6694 H   0  0  0  0  0  0  0  0  0  0  0  0
   -1.2089   -2.4382   -0.0913 H   0  0  0  0  0  0  0  0  0  0  0  0
   -1.3071    0.4507    1.3792 H   0  0  0  0  0  0  0  0  0  0  0  0
   -2.1025    0.8403   -1.0169 H   0  0  0  0  0  0  0  0  0  0  0  0
   -1.6936   -0.8706   -1.4247 H   0  0  0  0  0  0  0  0  0  0  0  0
    0.3217    0.1054   -1.8819 H   0  0  0  0  0  0  0  0  0  0  0  0
   -0.9103    2.3154   -0.7291 H   0  0  0  0  0  0  0  0  0  0  0  0
    0.4816    2.0676    0.3438 H   0  0  0  0  0  0  0  0  0  0  0  0
    0.7162    2.2804   -1.4406 H   0  0  0  0  0  0  0  0  0  0  0  0
  1  2  1  0
  2  3  2  0
  3  4  1  0
  4  5  1  0
  5  6  1  0
  6  7  1  0
  7  8  1  0
  8  9  1  0
  8  2  1  0
  6  4  1  0
  1 10  1  0
  1 11  1  0
  1 12  1  0
  3 13  1  0
  4 14  1  0
  6 15  1  0
  7 16  1  0
  7 17  1  0
  8 18  1  0
  9 19  1  0
  9 20  1  0
  9 21  1  0
M  END
