
     RDKit          3D

 19 19  0  0  0  0  0  0  0  0999 V2000
   -1.3364   -1.4460   -0.2000 C   0  0  0  0  0  0  0  0  0  0  0  0
   -0.8091   -0.1112    0.1476 C   0  0  0  0  0  0  0  0  0  0  0  0
   -1.5148    0.8780    0.6587 C   0  0  0  0  0  0  0  0  0  0  0  0
   -0.6561    2.0371    0.8679 C   0  0  0  0  0  0  0  0  0  0  0  0
   -1.0040    3.1707    1.3471 O   0  0  0  0  0  0  0  0  0  0  0  0
    0.6056    1.6629    0.4446 O   0  0  0  0  0  0  0  0  0  0  0  0
    0.5869    0.3438   -0.0152 C   0  0  0  0  0  0  0  0  0  0  0  0
    1.0195    0.2433   -1.4654 C   0  0  0  0  0  0  0  0  0  0  0  0
    1.5288   -0.5381    0.7797 C   0  0  0  0  0  0  0  0  0  0  0  0
   -0.5621   -2.1029   -0.6451 H   0  0  0  0  0  0  0  0  0  0  0  0
   -2.1769   -1.3855   -0.9385 H   0  0  0  0  0  0  0  0  0  0  0  0
   -1.7169   -1.9955    0.6953 H   0  0  0  0  0  0  0  0  0  0  0  0
   -2.5726    0.8919    0.9082 H   0  0  0  0  0  0  0  0  0  0  0  0
    0.5392   -0.6721   -1.8876 H   0  0  0  0  0  0  0  0  0  0  0  0
    2.1152    0.1051   -1.5106 H   0  0  0  0  0  0  0  0  0  0  0  0
    0.7415    1.1575   -2.0431 H   0  0  0  0  0  0  0  0  0  0  0  0
    0.9926   -0.8493    1.7068 H   0  0  0  0  0  0  0  0  0  0  0  0
    2.4436    0.0437    0.9925 H   0  0  0  0  0  0  0  0  0  0  0  0
    1.7762   -1.4332    0.1571 H   0  0  0  0  0  0  0  0  0  0  0  0
  1  2  1  0
  2  3  2  0
  3  4  1  0
  4  5  2  0
  4  6  1  0
  6  7  1  0
  7  8  1  0
  7  9  1  0
  7  2  1  0
  1 10  1  0
  1 11  1  0
  1 12  1  0
  3 13  1  0
  8 14  1  0
  8 15  1  0
  8 16  1  0
  9 17  1  0
  9 18  1  0
  9 19  1  0
M  END
