
     RDKit          3D

 18 19  0  0  0  0  0  0  0  0999 V2000
    2.3245    0.2306    0.4970 C   0  0  0  0  0  0  0  0  0  0  0  0
    0.9389    0.0559   -0.0112 C   0  0  0  0  0  0  0  0  0  0  0  0
    0.1135    1.1036   -0.0410 C   0  0  0  0  0  0  0  0  0  0  0  0
   -1.2061    0.7967   -0.5581 C   0  0  0  0  0  0  0  0  0  0  0  0
   -2.4342    0.4262    0.0189 C   0  0  0  0  0  0  0  0  0  0  0  0
   -1.4635   -0.5865    0.1515 C   0  0  0  0  0  0  0  0  0  0  0  0
   -0.8420   -1.4367   -0.6800 O   0  0  0  0  0  0  0  0  0  0  0  0
    0.5479   -1.3034   -0.4659 C   0  0  0  0  0  0  0  0  0  0  0  0
    2.9070   -0.6836    0.4656 H   0  0  0  0  0  0  0  0  0  0  0  0
    2.7938    1.0316   -0.1065 H   0  0  0  0  0  0  0  0  0  0  0  0
    2.3019    0.6285    1.5498 H   0  0  0  0  0  0  0  0  0  0  0  0
    0.4100    2.0836    0.2910 H   0  0  0  0  0  0  0  0  0  0  0  0
   -1.1559    0.7587   -1.6908 H   0  0  0  0  0  0  0  0  0  0  0  0
   -3.3261    0.2963   -0.6567 H   0  0  0  0  0  0  0  0  0  0  0  0
   -2.7847    0.9755    0.9394 H   0  0  0  0  0  0  0  0  0  0  0  0
   -1.0270   -0.7049    1.1914 H   0  0  0  0  0  0  0  0  0  0  0  0
    1.1401   -1.6835   -1.2984 H   0  0  0  0  0  0  0  0  0  0  0  0
    0.7617   -1.9886    0.4042 H   0  0  0  0  0  0  0  0  0  0  0  0
  1  2  1  0
  2  3  2  0
  3  4  1  0
  4  5  1  0
  5  6  1  0
  6  7  1  0
  7  8  1  0
  8  2  1  0
  6  4  1  0
  1  9  1  0
  1 10  1  0
  1 11  1  0
  3 12  1  0
  4 13  1  0
  5 14  1  0
  5 15  1  0
  6 16  1  0
  8 17  1  0
  8 18  1  0
M  END
