
     RDKit          3D

 19 20  0  0  0  0  0  0  0  0999 V2000
    2.7699   -0.0726    0.4438 C   0  0  0  0  0  0  0  0  0  0  0  0
    1.3972   -0.0282   -0.1229 C   0  0  0  0  0  0  0  0  0  0  0  0
    0.7516   -0.9274   -0.8636 C   0  0  0  0  0  0  0  0  0  0  0  0
   -0.6136   -0.3396   -1.0217 C   0  0  0  0  0  0  0  0  0  0  0  0
   -0.2601    1.0261   -1.1662 O   0  0  0  0  0  0  0  0  0  0  0  0
    0.4550    1.1070    0.0573 C   0  0  0  0  0  0  0  0  0  0  0  0
   -0.5423    0.7573    0.9592 O   0  0  0  0  0  0  0  0  0  0  0  0
   -1.2301   -0.3019    0.3430 C   0  0  0  0  0  0  0  0  0  0  0  0
   -2.6876    0.0787    0.3297 C   0  0  0  0  0  0  0  0  0  0  0  0
    2.7139    0.3779    1.4696 H   0  0  0  0  0  0  0  0  0  0  0  0
    3.4972    0.5314   -0.1518 H   0  0  0  0  0  0  0  0  0  0  0  0
    3.1556   -1.1084    0.5022 H   0  0  0  0  0  0  0  0  0  0  0  0
    1.1436   -1.8484   -1.2436 H   0  0  0  0  0  0  0  0  0  0  0  0
   -1.2004   -0.7327   -1.8175 H   0  0  0  0  0  0  0  0  0  0  0  0
    0.9108    2.0650    0.2224 H   0  0  0  0  0  0  0  0  0  0  0  0
   -1.0927   -1.2063    0.9347 H   0  0  0  0  0  0  0  0  0  0  0  0
   -2.8588    0.9970   -0.2840 H   0  0  0  0  0  0  0  0  0  0  0  0
   -3.3557   -0.7436    0.0394 H   0  0  0  0  0  0  0  0  0  0  0  0
   -2.9538    0.3686    1.3700 H   0  0  0  0  0  0  0  0  0  0  0  0
  1  2  1  0
  2  3  2  0
  3  4  1  0
  4  5  1  0
  5  6  1  0
  6  7  1  0
  7  8  1  0
  8  9  1  0
  6  2  1  0
  8  4  1  0
  1 10  1  0
  1 11  1  0
  1 12  1  0
  3 13  1  0
  4 14  1  0
  6 15  1  0
  8 16  1  0
  9 17  1  0
  9 18  1  0
  9 19  1  0
M  END
