
     RDKit          3D

 17 18  0  0  0  0  0  0  0  0999 V2000
    2.3926    0.2739   -0.0944 C   0  0  0  0  0  0  0  0  0  0  0  0
    0.8982    0.0732   -0.1857 C   0  0  0  0  0  0  0  0  0  0  0  0
    0.0440    0.8725   -0.7930 C   0  0  0  0  0  0  0  0  0  0  0  0
   -1.3479    0.3788   -0.6906 C   0  0  0  0  0  0  0  0  0  0  0  0
   -1.9356    0.5015    0.6672 C   0  0  0  0  0  0  0  0  0  0  0  0
   -1.2843   -0.7720    0.3106 C   0  0  0  0  0  0  0  0  0  0  0  0
    0.1529   -1.0629    0.3877 C   0  0  0  0  0  0  0  0  0  0  0  0
    2.9252   -0.1861   -0.9259 H   0  0  0  0  0  0  0  0  0  0  0  0
    2.6442    1.3583   -0.0562 H   0  0  0  0  0  0  0  0  0  0  0  0
    2.7136   -0.2057    0.8435 H   0  0  0  0  0  0  0  0  0  0  0  0
    0.3126    1.7844   -1.3091 H   0  0  0  0  0  0  0  0  0  0  0  0
   -1.9511    0.2051   -1.5885 H   0  0  0  0  0  0  0  0  0  0  0  0
   -1.4645    1.2252    1.3804 H   0  0  0  0  0  0  0  0  0  0  0  0
   -3.0244    0.5119    0.7185 H   0  0  0  0  0  0  0  0  0  0  0  0
   -1.9605   -1.6473    0.1169 H   0  0  0  0  0  0  0  0  0  0  0  0
    0.5348   -1.2935    1.4079 H   0  0  0  0  0  0  0  0  0  0  0  0
    0.3501   -2.0173   -0.1894 H   0  0  0  0  0  0  0  0  0  0  0  0
  1  2  1  0
  2  3  2  0
  3  4  1  0
  4  5  1  0
  5  6  1  0
  6  7  1  0
  7  2  1  0
  6  4  1  0
  1  8  1  0
  1  9  1  0
  1 10  1  0
  3 11  1  0
  4 12  1  0
  5 13  1  0
  5 14  1  0
  6 15  1  0
  7 16  1  0
  7 17  1  0
M  END
