
     RDKit          3D

 21 22  0  0  0  0  0  0  0  0999 V2000
    2.5540    1.0358    0.4418 C   0  0  0  0  0  0  0  0  0  0  0  0
    1.3485    0.2338    0.0901 C   0  0  0  0  0  0  0  0  0  0  0  0
    0.3498    0.5442   -0.7259 C   0  0  0  0  0  0  0  0  0  0  0  0
   -0.6616   -0.5049   -0.8185 C   0  0  0  0  0  0  0  0  0  0  0  0
   -1.8441   -0.4320    0.0745 C   0  0  0  0  0  0  0  0  0  0  0  0
   -2.2499    1.0014    0.3325 C   0  0  0  0  0  0  0  0  0  0  0  0
   -1.2124   -1.0761    1.1184 O   0  0  0  0  0  0  0  0  0  0  0  0
   -0.2609   -1.5318    0.2079 C   0  0  0  0  0  0  0  0  0  0  0  0
    1.1176   -1.1263    0.6723 C   0  0  0  0  0  0  0  0  0  0  0  0
    2.4324    2.1139    0.1895 H   0  0  0  0  0  0  0  0  0  0  0  0
    2.8193    0.8617    1.4860 H   0  0  0  0  0  0  0  0  0  0  0  0
    3.3966    0.6786   -0.2192 H   0  0  0  0  0  0  0  0  0  0  0  0
    0.2968    1.4813   -1.2648 H   0  0  0  0  0  0  0  0  0  0  0  0
   -0.8812   -0.8956   -1.8296 H   0  0  0  0  0  0  0  0  0  0  0  0
   -2.7143   -0.9972   -0.3473 H   0  0  0  0  0  0  0  0  0  0  0  0
   -3.0193    1.0336    1.1485 H   0  0  0  0  0  0  0  0  0  0  0  0
   -2.7394    1.3615   -0.6091 H   0  0  0  0  0  0  0  0  0  0  0  0
   -1.3839    1.6497    0.5566 H   0  0  0  0  0  0  0  0  0  0  0  0
   -0.3782   -2.5534   -0.1529 H   0  0  0  0  0  0  0  0  0  0  0  0
    1.8552   -1.8595    0.2986 H   0  0  0  0  0  0  0  0  0  0  0  0
    1.1748   -1.0187    1.7785 H   0  0  0  0  0  0  0  0  0  0  0  0
  1  2  1  0
  2  3  2  0
  3  4  1  0
  4  5  1  0
  5  6  1  0
  5  7  1  0
  7  8  1  0
  8  9  1  0
  9  2  1  0
  8  4  1  0
  1 10  1  0
  1 11  1  0
  1 12  1  0
  3 13  1  0
  4 14  1  0
  5 15  1  0
  6 16  1  0
  6 17  1  0
  6 18  1  0
  8 19  1  0
  9 20  1  0
  9 21  1  0
M  END
