
     RDKit          3D

 23 24  0  0  0  0  0  0  0  0999 V2000
    2.7129    0.8586    0.6444 C   0  0  0  0  0  0  0  0  0  0  0  0
    1.4863    0.2603   -0.0047 C   0  0  0  0  0  0  0  0  0  0  0  0
    0.5305    1.0421   -0.5192 C   0  0  0  0  0  0  0  0  0  0  0  0
   -0.5623    0.2565   -1.0945 C   0  0  0  0  0  0  0  0  0  0  0  0
   -1.8988    0.0122   -0.7137 C   0  0  0  0  0  0  0  0  0  0  0  0
   -2.8117    1.1240   -0.1726 C   0  0  0  0  0  0  0  0  0  0  0  0
   -0.9774   -0.5894    0.1662 C   0  0  0  0  0  0  0  0  0  0  0  0
   -0.0708   -1.7304    0.0973 C   0  0  0  0  0  0  0  0  0  0  0  0
    1.3389   -1.2138   -0.0836 C   0  0  0  0  0  0  0  0  0  0  0  0
    3.5974    0.2785    0.3426 H   0  0  0  0  0  0  0  0  0  0  0  0
    2.6424    0.8046    1.7447 H   0  0  0  0  0  0  0  0  0  0  0  0
    2.8412    1.8835    0.2686 H   0  0  0  0  0  0  0  0  0  0  0  0
    0.6406    2.0980   -0.4687 H   0  0  0  0  0  0  0  0  0  0  0  0
   -0.1642   -0.3347   -1.9736 H   0  0  0  0  0  0  0  0  0  0  0  0
   -2.5180   -0.6547   -1.3830 H   0  0  0  0  0  0  0  0  0  0  0  0
   -2.2238    1.7454    0.5214 H   0  0  0  0  0  0  0  0  0  0  0  0
   -3.2817    1.6702   -0.9963 H   0  0  0  0  0  0  0  0  0  0  0  0
   -3.6018    0.5885    0.4028 H   0  0  0  0  0  0  0  0  0  0  0  0
   -0.8670   -0.0776    1.1706 H   0  0  0  0  0  0  0  0  0  0  0  0
   -0.3876   -2.4106   -0.7296 H   0  0  0  0  0  0  0  0  0  0  0  0
   -0.1383   -2.3561    1.0187 H   0  0  0  0  0  0  0  0  0  0  0  0
    2.0389   -1.6713    0.6460 H   0  0  0  0  0  0  0  0  0  0  0  0
    1.6741   -1.5837   -1.0853 H   0  0  0  0  0  0  0  0  0  0  0  0
  1  2  1  0
  2  3  2  0
  3  4  1  0
  4  5  1  0
  5  6  1  0
  5  7  1  0
  7  8  1  0
  8  9  1  0
  9  2  1  0
  7  4  1  0
  1 10  1  0
  1 11  1  0
  1 12  1  0
  3 13  1  0
  4 14  1  0
  5 15  1  0
  6 16  1  0
  6 17  1  0
  6 18  1  0
  7 19  1  0
  8 20  1  0
  8 21  1  0
  9 22  1  0
  9 23  1  0
M  END
