
     RDKit          3D

 18 19  0  0  0  0  0  0  0  0999 V2000
    1.9771   -0.7450   -0.1013 C   0  0  0  0  0  0  0  0  0  0  0  0
    0.7765    0.1120   -0.2006 C   0  0  0  0  0  0  0  0  0  0  0  0
    0.8570    1.4427   -0.3858 C   0  0  0  0  0  0  0  0  0  0  0  0
   -0.5382    1.9421   -0.4327 C   0  0  0  0  0  0  0  0  0  0  0  0
   -1.2505    0.8355   -0.8649 O   0  0  0  0  0  0  0  0  0  0  0  0
   -0.6566   -0.1908   -0.1360 C   0  0  0  0  0  0  0  0  0  0  0  0
   -1.3357   -0.6513    1.0760 C   0  0  0  0  0  0  0  0  0  0  0  0
   -1.2109   -1.5426   -0.1318 C   0  0  0  0  0  0  0  0  0  0  0  0
    1.7962   -1.7523   -0.5673 H   0  0  0  0  0  0  0  0  0  0  0  0
    2.8404   -0.3253   -0.6822 H   0  0  0  0  0  0  0  0  0  0  0  0
    2.3419   -0.8450    0.9425 H   0  0  0  0  0  0  0  0  0  0  0  0
    1.7419    2.0390   -0.4823 H   0  0  0  0  0  0  0  0  0  0  0  0
   -0.6344    2.8189   -1.1060 H   0  0  0  0  0  0  0  0  0  0  0  0
   -0.8027    2.2142    0.6277 H   0  0  0  0  0  0  0  0  0  0  0  0
   -2.3876   -0.2941    1.2514 H   0  0  0  0  0  0  0  0  0  0  0  0
   -0.8124   -0.9071    2.0139 H   0  0  0  0  0  0  0  0  0  0  0  0
   -2.1109   -1.7056   -0.7833 H   0  0  0  0  0  0  0  0  0  0  0  0
   -0.5913   -2.4453   -0.0374 H   0  0  0  0  0  0  0  0  0  0  0  0
  1  2  1  0
  2  3  2  0
  3  4  1  0
  4  5  1  0
  5  6  1  0
  6  7  1  0
  7  8  1  0
  6  2  1  0
  8  6  1  0
  1  9  1  0
  1 10  1  0
  1 11  1  0
  3 12  1  0
  4 13  1  0
  4 14  1  0
  7 15  1  0
  7 16  1  0
  8 17  1  0
  8 18  1  0
M  END
