
     RDKit          3D

 21 23  0  0  0  0  0  0  0  0999 V2000
   -1.5823    1.6441    0.1664 C   0  0  0  0  0  0  0  0  0  0  0  0
   -0.5369    0.5835    0.2141 C   0  0  0  0  0  0  0  0  0  0  0  0
   -0.6422   -0.6947   -0.0964 C   0  0  0  0  0  0  0  0  0  0  0  0
   -1.8932   -1.3541   -0.5811 C   0  0  0  0  0  0  0  0  0  0  0  0
    0.6460   -1.4008    0.1161 C   0  0  0  0  0  0  0  0  0  0  0  0
    1.8686   -0.7135   -0.3117 C   0  0  0  0  0  0  0  0  0  0  0  0
    1.7683    0.7542   -0.5936 C   0  0  0  0  0  0  0  0  0  0  0  0
    0.8637    0.8554    0.6316 C   0  0  0  0  0  0  0  0  0  0  0  0
    1.3484   -0.4778    1.0383 C   0  0  0  0  0  0  0  0  0  0  0  0
   -2.5558    1.2919   -0.1687 H   0  0  0  0  0  0  0  0  0  0  0  0
   -1.1957    2.4248   -0.5304 H   0  0  0  0  0  0  0  0  0  0  0  0
   -1.6322    2.1479    1.1684 H   0  0  0  0  0  0  0  0  0  0  0  0
   -1.7037   -2.0056   -1.4613 H   0  0  0  0  0  0  0  0  0  0  0  0
   -2.6455   -0.6232   -0.8655 H   0  0  0  0  0  0  0  0  0  0  0  0
   -2.2873   -1.9278    0.2889 H   0  0  0  0  0  0  0  0  0  0  0  0
    0.6119   -2.4920    0.3108 H   0  0  0  0  0  0  0  0  0  0  0  0
    2.8199   -1.2478   -0.5039 H   0  0  0  0  0  0  0  0  0  0  0  0
    1.2185    0.9258   -1.5413 H   0  0  0  0  0  0  0  0  0  0  0  0
    2.6975    1.3410   -0.5218 H   0  0  0  0  0  0  0  0  0  0  0  0
    1.0268    1.7076    1.2759 H   0  0  0  0  0  0  0  0  0  0  0  0
    1.8051   -0.7390    1.9652 H   0  0  0  0  0  0  0  0  0  0  0  0
  1  2  1  0
  2  3  2  0
  3  4  1  0
  3  5  1  0
  5  6  1  0
  6  7  1  0
  7  8  1  0
  8  9  1  0
  8  2  1  0
  9  5  1  0
  9  6  1  0
  1 10  1  0
  1 11  1  0
  1 12  1  0
  4 13  1  0
  4 14  1  0
  4 15  1  0
  5 16  1  0
  6 17  1  0
  7 18  1  0
  7 19  1  0
  8 20  1  0
  9 21  1  0
M  END
