
     RDKit          3D

 21 22  0  0  0  0  0  0  0  0999 V2000
   -1.1115    1.8264    0.5819 C   0  0  0  0  0  0  0  0  0  0  0  0
   -0.2822    0.6706    0.1485 C   0  0  0  0  0  0  0  0  0  0  0  0
   -0.7010   -0.5686   -0.1023 C   0  0  0  0  0  0  0  0  0  0  0  0
   -2.1159   -1.0261   -0.0042 C   0  0  0  0  0  0  0  0  0  0  0  0
    0.5089   -1.3708   -0.4888 C   0  0  0  0  0  0  0  0  0  0  0  0
    1.2517   -0.2778   -1.2821 C   0  0  0  0  0  0  0  0  0  0  0  0
    1.1828    0.6943   -0.0848 C   0  0  0  0  0  0  0  0  0  0  0  0
    1.8411   -0.2263    0.9091 C   0  0  0  0  0  0  0  0  0  0  0  0
    1.3160   -1.4850    0.6190 O   0  0  0  0  0  0  0  0  0  0  0  0
   -0.4535    2.6454    0.9370 H   0  0  0  0  0  0  0  0  0  0  0  0
   -1.8343    1.5435    1.3689 H   0  0  0  0  0  0  0  0  0  0  0  0
   -1.7035    2.2594   -0.2669 H   0  0  0  0  0  0  0  0  0  0  0  0
   -2.4634   -0.9239    1.0514 H   0  0  0  0  0  0  0  0  0  0  0  0
   -2.7795   -0.4232   -0.6902 H   0  0  0  0  0  0  0  0  0  0  0  0
   -2.1766   -2.0659   -0.3553 H   0  0  0  0  0  0  0  0  0  0  0  0
    0.3151   -2.2539   -1.0481 H   0  0  0  0  0  0  0  0  0  0  0  0
    2.2717   -0.5684   -1.5112 H   0  0  0  0  0  0  0  0  0  0  0  0
    0.6589    0.1006   -2.1103 H   0  0  0  0  0  0  0  0  0  0  0  0
    1.6359    1.6353   -0.2576 H   0  0  0  0  0  0  0  0  0  0  0  0
    1.7118    0.0731    1.9499 H   0  0  0  0  0  0  0  0  0  0  0  0
    2.9274   -0.2589    0.6361 H   0  0  0  0  0  0  0  0  0  0  0  0
  1  2  1  0
  2  3  2  0
  3  4  1  0
  3  5  1  0
  5  6  1  0
  6  7  1  0
  7  8  1  0
  8  9  1  0
  7  2  1  0
  9  5  1  0
  1 10  1  0
  1 11  1  0
  1 12  1  0
  4 13  1  0
  4 14  1  0
  4 15  1  0
  5 16  1  0
  6 17  1  0
  6 18  1  0
  7 19  1  0
  8 20  1  0
  8 21  1  0
M  END
