
     RDKit          3D

 17 17  0  0  0  0  0  0  0  0999 V2000
    2.5277   -0.2886    0.0686 C   0  0  0  0  0  0  0  0  0  0  0  0
    1.0709   -0.0184   -0.1866 C   0  0  0  0  0  0  0  0  0  0  0  0
    0.0917   -0.8938   -0.1385 C   0  0  0  0  0  0  0  0  0  0  0  0
   -1.2251   -0.2845   -0.4451 C   0  0  0  0  0  0  0  0  0  0  0  0
   -2.0394   -0.3428    0.8424 C   0  0  0  0  0  0  0  0  0  0  0  0
   -0.9207    1.1371   -0.6990 C   0  0  0  0  0  0  0  0  0  0  0  0
   -1.7771    1.9942   -0.9941 O   0  0  0  0  0  0  0  0  0  0  0  0
    0.5174    1.2992   -0.5361 C   0  0  0  0  0  0  0  0  0  0  0  0
    1.1691    2.3668   -0.6689 O   0  0  0  0  0  0  0  0  0  0  0  0
    2.6660   -0.8149    1.0418 H   0  0  0  0  0  0  0  0  0  0  0  0
    2.9586   -0.9529   -0.7103 H   0  0  0  0  0  0  0  0  0  0  0  0
    3.0833    0.6604    0.0924 H   0  0  0  0  0  0  0  0  0  0  0  0
    0.2311   -1.9368    0.0972 H   0  0  0  0  0  0  0  0  0  0  0  0
   -1.7465   -0.7801   -1.2852 H   0  0  0  0  0  0  0  0  0  0  0  0
   -1.3364   -0.2648    1.7170 H   0  0  0  0  0  0  0  0  0  0  0  0
   -2.4964   -1.3499    0.8894 H   0  0  0  0  0  0  0  0  0  0  0  0
   -2.7743    0.4697    0.9150 H   0  0  0  0  0  0  0  0  0  0  0  0
  1  2  1  0
  2  3  2  0
  3  4  1  0
  4  5  1  0
  4  6  1  0
  6  7  2  0
  6  8  1  0
  8  9  2  0
  8  2  1  0
  1 10  1  0
  1 11  1  0
  1 12  1  0
  3 13  1  0
  4 14  1  0
  5 15  1  0
  5 16  1  0
  5 17  1  0
M  END
