
     RDKit          3D

 17 19  0  0  0  0  0  0  0  0999 V2000
   -2.4002    0.0211   -0.4001 C   0  0  0  0  0  0  0  0  0  0  0  0
   -0.9528    0.1536   -0.1171 C   0  0  0  0  0  0  0  0  0  0  0  0
   -0.2669    1.2919   -0.0837 C   0  0  0  0  0  0  0  0  0  0  0  0
    1.1754    0.9916    0.2388 C   0  0  0  0  0  0  0  0  0  0  0  0
    1.2493    0.5611    1.5845 O   0  0  0  0  0  0  0  0  0  0  0  0
    0.9850   -0.7320    1.2144 C   0  0  0  0  0  0  0  0  0  0  0  0
   -0.0323   -0.9955    0.1773 C   0  0  0  0  0  0  0  0  0  0  0  0
    1.2854   -0.4272   -0.1645 C   0  0  0  0  0  0  0  0  0  0  0  0
    2.2048   -0.9655   -0.9661 O   0  0  0  0  0  0  0  0  0  0  0  0
   -2.6803    0.4738   -1.3850 H   0  0  0  0  0  0  0  0  0  0  0  0
   -3.0129    0.5188    0.4080 H   0  0  0  0  0  0  0  0  0  0  0  0
   -2.7107   -1.0314   -0.4200 H   0  0  0  0  0  0  0  0  0  0  0  0
   -0.6379    2.2903   -0.2529 H   0  0  0  0  0  0  0  0  0  0  0  0
    1.9027    1.7157   -0.0775 H   0  0  0  0  0  0  0  0  0  0  0  0
    1.3386   -1.5878    1.7912 H   0  0  0  0  0  0  0  0  0  0  0  0
   -0.2588   -1.9905   -0.1862 H   0  0  0  0  0  0  0  0  0  0  0  0
    2.8117   -0.2880   -1.3611 H   0  0  0  0  0  0  0  0  0  0  0  0
  1  2  1  0
  2  3  2  0
  3  4  1  0
  4  5  1  0
  5  6  1  0
  6  7  1  0
  7  8  1  0
  8  9  1  0
  7  2  1  0
  8  4  1  0
  8  6  1  0
  1 10  1  0
  1 11  1  0
  1 12  1  0
  3 13  1  0
  4 14  1  0
  6 15  1  0
  7 16  1  0
  9 17  1  0
M  END
