
     RDKit          3D

 18 19  0  0  0  0  0  0  0  0999 V2000
    0.0429    2.1212   -0.1176 C   0  0  0  0  0  0  0  0  0  0  0  0
   -0.1362    0.6596   -0.2341 C   0  0  0  0  0  0  0  0  0  0  0  0
    0.6482   -0.3775    0.0583 C   0  0  0  0  0  0  0  0  0  0  0  0
    2.0284   -0.4315    0.6078 C   0  0  0  0  0  0  0  0  0  0  0  0
   -0.2562   -1.5241   -0.3253 C   0  0  0  0  0  0  0  0  0  0  0  0
   -1.5707   -1.0868    0.3105 C   0  0  0  0  0  0  0  0  0  0  0  0
   -1.3519   -0.0441   -0.7546 C   0  0  0  0  0  0  0  0  0  0  0  0
   -0.7860   -1.0895   -1.5223 O   0  0  0  0  0  0  0  0  0  0  0  0
    0.7894    2.4146    0.6370 H   0  0  0  0  0  0  0  0  0  0  0  0
    0.2580    2.5484   -1.1238 H   0  0  0  0  0  0  0  0  0  0  0  0
   -0.9155    2.6260    0.2073 H   0  0  0  0  0  0  0  0  0  0  0  0
    2.6580   -1.1871    0.0577 H   0  0  0  0  0  0  0  0  0  0  0  0
    2.5138    0.5434    0.4491 H   0  0  0  0  0  0  0  0  0  0  0  0
    2.0590   -0.7362    1.6720 H   0  0  0  0  0  0  0  0  0  0  0  0
    0.0838   -2.5095   -0.1867 H   0  0  0  0  0  0  0  0  0  0  0  0
   -1.4736   -0.7327    1.3496 H   0  0  0  0  0  0  0  0  0  0  0  0
   -2.4399   -1.7015    0.0662 H   0  0  0  0  0  0  0  0  0  0  0  0
   -2.1513    0.5072   -1.1512 H   0  0  0  0  0  0  0  0  0  0  0  0
  1  2  1  0
  2  3  2  0
  3  4  1  0
  3  5  1  0
  5  6  1  0
  6  7  1  0
  7  8  1  0
  7  2  1  0
  8  5  1  0
  1  9  1  0
  1 10  1  0
  1 11  1  0
  4 12  1  0
  4 13  1  0
  4 14  1  0
  5 15  1  0
  6 16  1  0
  6 17  1  0
  7 18  1  0
M  END
