
     RDKit          3D

 19 21  0  0  0  0  0  0  0  0999 V2000
    2.5874   -0.4024   -0.6240 C   0  0  0  0  0  0  0  0  0  0  0  0
    1.2214   -0.0146   -0.0823 C   0  0  0  0  0  0  0  0  0  0  0  0
    0.4973    1.0223   -0.4391 C   0  0  0  0  0  0  0  0  0  0  0  0
   -0.7762    1.1369    0.2571 C   0  0  0  0  0  0  0  0  0  0  0  0
   -2.0764    0.8303   -0.4606 C   0  0  0  0  0  0  0  0  0  0  0  0
   -1.9545   -0.5897    0.1061 C   0  0  0  0  0  0  0  0  0  0  0  0
   -0.8603   -0.1655    1.0240 C   0  0  0  0  0  0  0  0  0  0  0  0
    0.5070   -0.7769    0.9486 C   0  0  0  0  0  0  0  0  0  0  0  0
   -0.8819    1.0819    1.6315 O   0  0  0  0  0  0  0  0  0  0  0  0
    2.7526    0.0722   -1.5900 H   0  0  0  0  0  0  0  0  0  0  0  0
    2.6730   -1.5053   -0.7024 H   0  0  0  0  0  0  0  0  0  0  0  0
    3.3732   -0.0768    0.1095 H   0  0  0  0  0  0  0  0  0  0  0  0
    0.8569    1.7374   -1.2145 H   0  0  0  0  0  0  0  0  0  0  0  0
   -2.0293    0.8880   -1.5557 H   0  0  0  0  0  0  0  0  0  0  0  0
   -2.8927    1.4206    0.0045 H   0  0  0  0  0  0  0  0  0  0  0  0
   -2.9116   -0.9077    0.5961 H   0  0  0  0  0  0  0  0  0  0  0  0
   -1.5932   -1.2877   -0.6880 H   0  0  0  0  0  0  0  0  0  0  0  0
    1.0304   -0.5936    1.9288 H   0  0  0  0  0  0  0  0  0  0  0  0
    0.4768   -1.8692    0.7504 H   0  0  0  0  0  0  0  0  0  0  0  0
  1  2  1  0
  2  3  2  0
  3  4  1  0
  4  5  1  0
  5  6  1  0
  6  7  1  0
  7  8  1  0
  7  9  1  0
  8  2  1  0
  7  4  1  0
  9  4  1  0
  1 10  1  0
  1 11  1  0
  1 12  1  0
  3 13  1  0
  5 14  1  0
  5 15  1  0
  6 16  1  0
  6 17  1  0
  8 18  1  0
  8 19  1  0
M  END
