
     RDKit          3D

 23 24  0  0  0  0  0  0  0  0999 V2000
    2.7887   -0.3877   -0.4513 C   0  0  0  0  0  0  0  0  0  0  0  0
    1.3376   -0.2054   -0.2171 C   0  0  0  0  0  0  0  0  0  0  0  0
    0.3038   -0.9567   -0.5792 C   0  0  0  0  0  0  0  0  0  0  0  0
   -0.9449   -0.4618    0.0633 C   0  0  0  0  0  0  0  0  0  0  0  0
   -1.9710   -1.4539    0.3307 C   0  0  0  0  0  0  0  0  0  0  0  0
   -1.3709    0.7915   -0.6452 C   0  0  0  0  0  0  0  0  0  0  0  0
   -0.1707    1.7008   -0.4079 C   0  0  0  0  0  0  0  0  0  0  0  0
    0.7438    0.9412    0.5218 C   0  0  0  0  0  0  0  0  0  0  0  0
   -0.3149    0.1618    1.3269 C   0  0  0  0  0  0  0  0  0  0  0  0
    3.0742   -1.4380   -0.6434 H   0  0  0  0  0  0  0  0  0  0  0  0
    3.0769    0.2032   -1.3398 H   0  0  0  0  0  0  0  0  0  0  0  0
    3.4103   -0.0423    0.3986 H   0  0  0  0  0  0  0  0  0  0  0  0
    0.3443   -1.8049   -1.2406 H   0  0  0  0  0  0  0  0  0  0  0  0
   -1.7887   -2.0422    1.2577 H   0  0  0  0  0  0  0  0  0  0  0  0
   -2.9799   -0.9537    0.3636 H   0  0  0  0  0  0  0  0  0  0  0  0
   -2.0129   -2.2059   -0.4987 H   0  0  0  0  0  0  0  0  0  0  0  0
   -1.6039    0.6613   -1.6980 H   0  0  0  0  0  0  0  0  0  0  0  0
   -2.2730    1.1810   -0.1307 H   0  0  0  0  0  0  0  0  0  0  0  0
   -0.5197    2.6242    0.0782 H   0  0  0  0  0  0  0  0  0  0  0  0
    0.3403    1.9576   -1.3721 H   0  0  0  0  0  0  0  0  0  0  0  0
    1.4078    1.5182    1.1197 H   0  0  0  0  0  0  0  0  0  0  0  0
   -1.0105    0.8316    1.8244 H   0  0  0  0  0  0  0  0  0  0  0  0
    0.1333   -0.6200    1.9391 H   0  0  0  0  0  0  0  0  0  0  0  0
  1  2  1  0
  2  3  2  0
  3  4  1  0
  4  5  1  0
  4  6  1  0
  6  7  1  0
  7  8  1  0
  8  9  1  0
  8  2  1  0
  9  4  1  0
  1 10  1  0
  1 11  1  0
  1 12  1  0
  3 13  1  0
  5 14  1  0
  5 15  1  0
  5 16  1  0
  6 17  1  0
  6 18  1  0
  7 19  1  0
  7 20  1  0
  8 21  1  0
  9 22  1  0
  9 23  1  0
M  END
