
     RDKit          3D

 17 18  0  0  0  0  0  0  0  0999 V2000
    2.1308   -0.6231   -0.1315 C   0  0  0  0  0  0  0  0  0  0  0  0
    0.7371   -0.1451   -0.3174 C   0  0  0  0  0  0  0  0  0  0  0  0
    0.0239    0.0813   -1.4231 C   0  0  0  0  0  0  0  0  0  0  0  0
   -1.2741    0.5263   -0.8846 C   0  0  0  0  0  0  0  0  0  0  0  0
   -1.4932   -0.4714    0.2446 C   0  0  0  0  0  0  0  0  0  0  0  0
   -0.2128    0.2024    0.7607 C   0  0  0  0  0  0  0  0  0  0  0  0
    0.0994    0.1170    2.0318 O   0  0  0  0  0  0  0  0  0  0  0  0
   -0.8212    1.4645    0.2120 C   0  0  0  0  0  0  0  0  0  0  0  0
   -0.9024    2.6250    0.5025 O   0  0  0  0  0  0  0  0  0  0  0  0
    2.7830   -0.3287   -1.0033 H   0  0  0  0  0  0  0  0  0  0  0  0
    2.2128   -1.7167   -0.0558 H   0  0  0  0  0  0  0  0  0  0  0  0
    2.6020   -0.1309    0.7629 H   0  0  0  0  0  0  0  0  0  0  0  0
    0.3250   -0.0336   -2.4553 H   0  0  0  0  0  0  0  0  0  0  0  0
   -2.0727    0.8112   -1.4972 H   0  0  0  0  0  0  0  0  0  0  0  0
   -1.3677   -1.5198   -0.0460 H   0  0  0  0  0  0  0  0  0  0  0  0
   -2.3947   -0.2073    0.8219 H   0  0  0  0  0  0  0  0  0  0  0  0
   -0.3750   -0.6512    2.4781 H   0  0  0  0  0  0  0  0  0  0  0  0
  1  2  1  0
  2  3  2  0
  3  4  1  0
  4  5  1  0
  5  6  1  0
  6  7  1  0
  6  8  1  0
  8  9  2  0
  6  2  1  0
  8  4  1  0
  1 10  1  0
  1 11  1  0
  1 12  1  0
  3 13  1  0
  4 14  1  0
  5 15  1  0
  5 16  1  0
  7 17  1  0
M  END
