
     RDKit          3D

 19 19  0  0  0  0  0  0  0  0999 V2000
    2.5053   -0.3976    0.3242 C   0  0  0  0  0  0  0  0  0  0  0  0
    1.1480    0.0998    0.0527 C   0  0  0  0  0  0  0  0  0  0  0  0
    0.6665    1.2481    0.4817 C   0  0  0  0  0  0  0  0  0  0  0  0
   -0.6884    1.7087    0.1911 C   0  0  0  0  0  0  0  0  0  0  0  0
   -1.3318    1.0481   -0.8172 O   0  0  0  0  0  0  0  0  0  0  0  0
   -1.1575   -0.3039   -0.8615 C   0  0  0  0  0  0  0  0  0  0  0  0
   -1.9434   -1.0678    0.1742 C   0  0  0  0  0  0  0  0  0  0  0  0
    0.2625   -0.7348   -0.7511 C   0  0  0  0  0  0  0  0  0  0  0  0
    0.6948   -1.7758   -1.3237 O   0  0  0  0  0  0  0  0  0  0  0  0
    3.0017    0.2024    1.1170 H   0  0  0  0  0  0  0  0  0  0  0  0
    2.3943   -1.4717    0.6464 H   0  0  0  0  0  0  0  0  0  0  0  0
    3.0606   -0.3960   -0.6342 H   0  0  0  0  0  0  0  0  0  0  0  0
    1.3115    1.8670    1.0731 H   0  0  0  0  0  0  0  0  0  0  0  0
   -1.3248    1.7165    1.0993 H   0  0  0  0  0  0  0  0  0  0  0  0
   -0.6081    2.7910   -0.1226 H   0  0  0  0  0  0  0  0  0  0  0  0
   -1.5373   -0.6552   -1.8661 H   0  0  0  0  0  0  0  0  0  0  0  0
   -3.0262   -0.8228    0.1088 H   0  0  0  0  0  0  0  0  0  0  0  0
   -1.5799   -0.8999    1.1933 H   0  0  0  0  0  0  0  0  0  0  0  0
   -1.8479   -2.1563   -0.0853 H   0  0  0  0  0  0  0  0  0  0  0  0
  1  2  1  0
  2  3  2  0
  3  4  1  0
  4  5  1  0
  5  6  1  0
  6  7  1  0
  6  8  1  0
  8  9  2  0
  8  2  1  0
  1 10  1  0
  1 11  1  0
  1 12  1  0
  3 13  1  0
  4 14  1  0
  4 15  1  0
  6 16  1  0
  7 17  1  0
  7 18  1  0
  7 19  1  0
M  END
