
     RDKit          3D

 21 23  0  0  0  0  0  0  0  0999 V2000
    2.0951   -1.2128   -0.4279 C   0  0  0  0  0  0  0  0  0  0  0  0
    1.1332   -0.1395   -0.0827 C   0  0  0  0  0  0  0  0  0  0  0  0
    1.0183    1.0566   -0.6491 C   0  0  0  0  0  0  0  0  0  0  0  0
   -0.0791    1.8307    0.0023 C   0  0  0  0  0  0  0  0  0  0  0  0
   -1.3285    1.1261    0.3806 C   0  0  0  0  0  0  0  0  0  0  0  0
   -1.3130   -0.3623    0.4668 C   0  0  0  0  0  0  0  0  0  0  0  0
   -1.4535   -1.0117   -0.8695 C   0  0  0  0  0  0  0  0  0  0  0  0
    0.1037   -0.2682    1.0028 C   0  0  0  0  0  0  0  0  0  0  0  0
   -0.1849    1.1596    1.3093 C   0  0  0  0  0  0  0  0  0  0  0  0
    2.9169   -0.8836   -1.0599 H   0  0  0  0  0  0  0  0  0  0  0  0
    1.5561   -2.0278   -0.9660 H   0  0  0  0  0  0  0  0  0  0  0  0
    2.5571   -1.6386    0.5029 H   0  0  0  0  0  0  0  0  0  0  0  0
    1.6325    1.4048   -1.4584 H   0  0  0  0  0  0  0  0  0  0  0  0
   -0.0085    2.9326    0.0302 H   0  0  0  0  0  0  0  0  0  0  0  0
   -2.2667    1.6910    0.5486 H   0  0  0  0  0  0  0  0  0  0  0  0
   -1.9687   -0.8306    1.2083 H   0  0  0  0  0  0  0  0  0  0  0  0
   -1.3978   -2.1057   -0.8445 H   0  0  0  0  0  0  0  0  0  0  0  0
   -2.4737   -0.7606   -1.2610 H   0  0  0  0  0  0  0  0  0  0  0  0
   -0.7392   -0.6337   -1.6244 H   0  0  0  0  0  0  0  0  0  0  0  0
    0.3583   -0.9386    1.8206 H   0  0  0  0  0  0  0  0  0  0  0  0
   -0.1577    1.6122    2.2739 H   0  0  0  0  0  0  0  0  0  0  0  0
  1  2  1  0
  2  3  2  0
  3  4  1  0
  4  5  1  0
  5  6  1  0
  6  7  1  0
  6  8  1  0
  8  9  1  0
  8  2  1  0
  9  4  1  0
  9  5  1  0
  1 10  1  0
  1 11  1  0
  1 12  1  0
  3 13  1  0
  4 14  1  0
  5 15  1  0
  6 16  1  0
  7 17  1  0
  7 18  1  0
  7 19  1  0
  8 20  1  0
  9 21  1  0
M  END
