
     RDKit          3D

 19 20  0  0  0  0  0  0  0  0999 V2000
    2.4879    0.5358    0.3427 C   0  0  0  0  0  0  0  0  0  0  0  0
    1.0274    0.1351    0.1437 C   0  0  0  0  0  0  0  0  0  0  0  0
    0.0155    0.8597    0.5545 C   0  0  0  0  0  0  0  0  0  0  0  0
   -1.2607    0.2032    0.2127 C   0  0  0  0  0  0  0  0  0  0  0  0
   -2.3708    1.1865   -0.0950 C   0  0  0  0  0  0  0  0  0  0  0  0
   -1.5942   -1.0272    0.7684 O   0  0  0  0  0  0  0  0  0  0  0  0
   -0.9565   -0.9587   -0.4713 C   0  0  0  0  0  0  0  0  0  0  0  0
    0.5393   -1.0798   -0.5132 C   0  0  0  0  0  0  0  0  0  0  0  0
    0.9642   -2.1606    0.2949 O   0  0  0  0  0  0  0  0  0  0  0  0
    3.0157    0.1176   -0.5508 H   0  0  0  0  0  0  0  0  0  0  0  0
    2.8405    0.0437    1.2691 H   0  0  0  0  0  0  0  0  0  0  0  0
    2.5745    1.6390    0.3747 H   0  0  0  0  0  0  0  0  0  0  0  0
    0.1297    1.8270    1.0826 H   0  0  0  0  0  0  0  0  0  0  0  0
   -3.2071    0.7328   -0.6436 H   0  0  0  0  0  0  0  0  0  0  0  0
   -1.9166    2.0556   -0.6114 H   0  0  0  0  0  0  0  0  0  0  0  0
   -2.7168    1.5697    0.9045 H   0  0  0  0  0  0  0  0  0  0  0  0
   -1.4868   -1.4673   -1.3024 H   0  0  0  0  0  0  0  0  0  0  0  0
    0.9196   -1.2111   -1.5490 H   0  0  0  0  0  0  0  0  0  0  0  0
    0.9951   -3.0010   -0.2112 H   0  0  0  0  0  0  0  0  0  0  0  0
  1  2  1  0
  2  3  2  0
  3  4  1  0
  4  5  1  0
  4  6  1  0
  6  7  1  0
  7  8  1  0
  8  9  1  0
  8  2  1  0
  7  4  1  0
  1 10  1  0
  1 11  1  0
  1 12  1  0
  3 13  1  0
  5 14  1  0
  5 15  1  0
  5 16  1  0
  7 17  1  0
  8 18  1  0
  9 19  1  0
M  END
