
     RDKit          3D

 21 21  0  0  0  0  0  0  0  0999 V2000
   -0.4619    2.2724    0.2642 C   0  0  0  0  0  0  0  0  0  0  0  0
   -0.5596    0.7886    0.0838 C   0  0  0  0  0  0  0  0  0  0  0  0
    0.4079    0.0256   -0.3917 C   0  0  0  0  0  0  0  0  0  0  0  0
    1.7539    0.5673   -0.8168 C   0  0  0  0  0  0  0  0  0  0  0  0
    2.7848    0.0117   -0.0940 O   0  0  0  0  0  0  0  0  0  0  0  0
   -0.0314   -1.3851   -0.4486 C   0  0  0  0  0  0  0  0  0  0  0  0
    0.9943   -2.2907   -0.3133 O   0  0  0  0  0  0  0  0  0  0  0  0
   -1.0888   -1.4632    0.5848 C   0  0  0  0  0  0  0  0  0  0  0  0
   -1.7378   -0.0748    0.4146 C   0  0  0  0  0  0  0  0  0  0  0  0
    0.5499    2.5650    0.5371 H   0  0  0  0  0  0  0  0  0  0  0  0
   -0.7729    2.8213   -0.6487 H   0  0  0  0  0  0  0  0  0  0  0  0
   -1.1811    2.6148    1.0639 H   0  0  0  0  0  0  0  0  0  0  0  0
    1.7564    1.6554   -0.8332 H   0  0  0  0  0  0  0  0  0  0  0  0
    1.8717    0.2245   -1.8795 H   0  0  0  0  0  0  0  0  0  0  0  0
    2.6315    0.0022    0.8893 H   0  0  0  0  0  0  0  0  0  0  0  0
   -0.4899   -1.5893   -1.4597 H   0  0  0  0  0  0  0  0  0  0  0  0
    0.7002   -3.0387    0.2423 H   0  0  0  0  0  0  0  0  0  0  0  0
   -1.8364   -2.2457    0.3702 H   0  0  0  0  0  0  0  0  0  0  0  0
   -0.6742   -1.5692    1.6075 H   0  0  0  0  0  0  0  0  0  0  0  0
   -2.3528   -0.1348   -0.4835 H   0  0  0  0  0  0  0  0  0  0  0  0
   -2.2639    0.2426    1.3114 H   0  0  0  0  0  0  0  0  0  0  0  0
  1  2  1  0
  2  3  2  0
  3  4  1  0
  4  5  1  0
  3  6  1  0
  6  7  1  0
  6  8  1  0
  8  9  1  0
  9  2  1  0
  1 10  1  0
  1 11  1  0
  1 12  1  0
  4 13  1  0
  4 14  1  0
  5 15  1  0
  6 16  1  0
  7 17  1  0
  8 18  1  0
  8 19  1  0
  9 20  1  0
  9 21  1  0
M  END
