
     RDKit          3D

 23 23  0  0  0  0  0  0  0  0999 V2000
    2.7840   -0.3393   -0.2639 C   0  0  0  0  0  0  0  0  0  0  0  0
    1.2975   -0.2815   -0.0086 C   0  0  0  0  0  0  0  0  0  0  0  0
    0.7251   -1.4836    0.1191 C   0  0  0  0  0  0  0  0  0  0  0  0
   -0.6939   -1.8074    0.3720 C   0  0  0  0  0  0  0  0  0  0  0  0
   -1.6506   -1.0867   -0.5196 C   0  0  0  0  0  0  0  0  0  0  0  0
   -1.2161    0.1629   -0.8902 O   0  0  0  0  0  0  0  0  0  0  0  0
   -0.7878    0.9297    0.1877 C   0  0  0  0  0  0  0  0  0  0  0  0
   -1.5195    2.2326    0.1592 C   0  0  0  0  0  0  0  0  0  0  0  0
    0.7081    1.0835    0.0605 C   0  0  0  0  0  0  0  0  0  0  0  0
    3.2503   -0.8024    0.6315 H   0  0  0  0  0  0  0  0  0  0  0  0
    3.1527    0.6784   -0.4324 H   0  0  0  0  0  0  0  0  0  0  0  0
    2.9645   -1.0340   -1.1071 H   0  0  0  0  0  0  0  0  0  0  0  0
    1.4207   -2.3200    0.0191 H   0  0  0  0  0  0  0  0  0  0  0  0
   -0.8406   -2.9108    0.1819 H   0  0  0  0  0  0  0  0  0  0  0  0
   -0.9811   -1.6757    1.4505 H   0  0  0  0  0  0  0  0  0  0  0  0
   -2.6493   -0.9728   -0.0055 H   0  0  0  0  0  0  0  0  0  0  0  0
   -1.8015   -1.6701   -1.4729 H   0  0  0  0  0  0  0  0  0  0  0  0
   -0.9660    0.4089    1.1638 H   0  0  0  0  0  0  0  0  0  0  0  0
   -0.9406    3.0660    0.6119 H   0  0  0  0  0  0  0  0  0  0  0  0
   -1.8182    2.4673   -0.8825 H   0  0  0  0  0  0  0  0  0  0  0  0
   -2.4829    2.0772    0.7216 H   0  0  0  0  0  0  0  0  0  0  0  0
    1.1544    1.7095    0.8455 H   0  0  0  0  0  0  0  0  0  0  0  0
    0.8908    1.5683   -0.9418 H   0  0  0  0  0  0  0  0  0  0  0  0
  1  2  1  0
  2  3  2  0
  3  4  1  0
  4  5  1  0
  5  6  1  0
  6  7  1  0
  7  8  1  0
  7  9  1  0
  9  2  1  0
  1 10  1  0
  1 11  1  0
  1 12  1  0
  3 13  1  0
  4 14  1  0
  4 15  1  0
  5 16  1  0
  5 17  1  0
  7 18  1  0
  8 19  1  0
  8 20  1  0
  8 21  1  0
  9 22  1  0
  9 23  1  0
M  END
