
     RDKit          3D

 18 20  0  0  0  0  0  0  0  0999 V2000
   -2.4952    0.2612    0.3949 C   0  0  0  0  0  0  0  0  0  0  0  0
   -1.1211   -0.0798    0.0062 C   0  0  0  0  0  0  0  0  0  0  0  0
   -0.6586   -1.0347   -0.8338 C   0  0  0  0  0  0  0  0  0  0  0  0
    0.7962   -0.8231   -0.7903 C   0  0  0  0  0  0  0  0  0  0  0  0
    0.9664    0.6670   -0.7320 C   0  0  0  0  0  0  0  0  0  0  0  0
    2.1269    0.4001    0.1908 C   0  0  0  0  0  0  0  0  0  0  0  0
    1.0685   -0.5554    0.6561 C   0  0  0  0  0  0  0  0  0  0  0  0
    0.1030    0.5850    0.4774 C   0  0  0  0  0  0  0  0  0  0  0  0
   -2.6472   -0.1317    1.4414 H   0  0  0  0  0  0  0  0  0  0  0  0
   -2.5753    1.3781    0.4571 H   0  0  0  0  0  0  0  0  0  0  0  0
   -3.2362   -0.1414   -0.3041 H   0  0  0  0  0  0  0  0  0  0  0  0
   -1.1898   -1.7714   -1.4005 H   0  0  0  0  0  0  0  0  0  0  0  0
    1.4557   -1.4175   -1.3674 H   0  0  0  0  0  0  0  0  0  0  0  0
    0.9333    1.3173   -1.4904 H   0  0  0  0  0  0  0  0  0  0  0  0
    2.2713    1.2052    0.9496 H   0  0  0  0  0  0  0  0  0  0  0  0
    3.0259   -0.0222   -0.2567 H   0  0  0  0  0  0  0  0  0  0  0  0
    1.1102   -1.2043    1.4128 H   0  0  0  0  0  0  0  0  0  0  0  0
    0.0660    1.3675    1.1890 H   0  0  0  0  0  0  0  0  0  0  0  0
  1  2  1  0
  2  3  2  0
  3  4  1  0
  4  5  1  0
  5  6  1  0
  6  7  1  0
  7  8  1  0
  8  2  1  0
  7  4  1  0
  8  5  1  0
  1  9  1  0
  1 10  1  0
  1 11  1  0
  3 12  1  0
  4 13  1  0
  5 14  1  0
  6 15  1  0
  6 16  1  0
  7 17  1  0
  8 18  1  0
M  END
