
     RDKit          3D

 19 20  0  0  0  0  0  0  0  0999 V2000
    2.4598    0.1124    0.4826 C   0  0  0  0  0  0  0  0  0  0  0  0
    1.0167    0.2637    0.1381 C   0  0  0  0  0  0  0  0  0  0  0  0
    0.3764    1.4027    0.3662 C   0  0  0  0  0  0  0  0  0  0  0  0
   -1.0545    1.5478    0.0229 C   0  0  0  0  0  0  0  0  0  0  0  0
   -1.3551    1.2736   -1.3528 O   0  0  0  0  0  0  0  0  0  0  0  0
   -1.7622    0.3918   -0.2746 C   0  0  0  0  0  0  0  0  0  0  0  0
   -1.1136   -0.9361   -0.3218 C   0  0  0  0  0  0  0  0  0  0  0  0
   -1.5238   -1.6647    0.8035 O   0  0  0  0  0  0  0  0  0  0  0  0
    0.3622   -0.9267   -0.4653 C   0  0  0  0  0  0  0  0  0  0  0  0
    2.9426    1.0991    0.6619 H   0  0  0  0  0  0  0  0  0  0  0  0
    2.9872   -0.4016   -0.3722 H   0  0  0  0  0  0  0  0  0  0  0  0
    2.5189   -0.5694    1.3438 H   0  0  0  0  0  0  0  0  0  0  0  0
    0.8987    2.2425    0.8087 H   0  0  0  0  0  0  0  0  0  0  0  0
   -1.5681    2.4612    0.3807 H   0  0  0  0  0  0  0  0  0  0  0  0
   -2.8790    0.3474   -0.1740 H   0  0  0  0  0  0  0  0  0  0  0  0
   -1.5343   -1.4897   -1.2127 H   0  0  0  0  0  0  0  0  0  0  0  0
   -2.2601   -2.2946    0.5873 H   0  0  0  0  0  0  0  0  0  0  0  0
    0.7285   -1.0271   -1.5004 H   0  0  0  0  0  0  0  0  0  0  0  0
    0.7597   -1.8325    0.0781 H   0  0  0  0  0  0  0  0  0  0  0  0
  1  2  1  0
  2  3  2  0
  3  4  1  0
  4  5  1  0
  5  6  1  0
  6  7  1  0
  7  8  1  0
  7  9  1  0
  9  2  1  0
  6  4  1  0
  1 10  1  0
  1 11  1  0
  1 12  1  0
  3 13  1  0
  4 14  1  0
  6 15  1  0
  7 16  1  0
  8 17  1  0
  9 18  1  0
  9 19  1  0
M  END
