
     RDKit          3D

 16 16  0  0  0  0  0  0  0  0999 V2000
    2.1769   -0.3338    0.2250 C   0  0  0  0  0  0  0  0  0  0  0  0
    0.7445   -0.0146    0.0155 C   0  0  0  0  0  0  0  0  0  0  0  0
    0.2333    1.1807    0.2625 C   0  0  0  0  0  0  0  0  0  0  0  0
   -1.2172    1.3431    0.0022 C   0  0  0  0  0  0  0  0  0  0  0  0
   -1.9024    0.2740    0.5166 O   0  0  0  0  0  0  0  0  0  0  0  0
   -1.5832   -0.9342   -0.0487 C   0  0  0  0  0  0  0  0  0  0  0  0
   -0.1702   -1.0313   -0.4820 C   0  0  0  0  0  0  0  0  0  0  0  0
    0.2537   -1.9388   -1.2448 O   0  0  0  0  0  0  0  0  0  0  0  0
    2.2998   -1.2329    0.8513 H   0  0  0  0  0  0  0  0  0  0  0  0
    2.6812   -0.5153   -0.7500 H   0  0  0  0  0  0  0  0  0  0  0  0
    2.6472    0.5398    0.7627 H   0  0  0  0  0  0  0  0  0  0  0  0
    0.8787    1.9534    0.6297 H   0  0  0  0  0  0  0  0  0  0  0  0
   -1.4234    1.3803   -1.0878 H   0  0  0  0  0  0  0  0  0  0  0  0
   -1.6177    2.2757    0.4365 H   0  0  0  0  0  0  0  0  0  0  0  0
   -1.7102   -1.7114    0.7585 H   0  0  0  0  0  0  0  0  0  0  0  0
   -2.2911   -1.2346   -0.8470 H   0  0  0  0  0  0  0  0  0  0  0  0
  1  2  1  0
  2  3  2  0
  3  4  1  0
  4  5  1  0
  5  6  1  0
  6  7  1  0
  7  8  2  0
  7  2  1  0
  1  9  1  0
  1 10  1  0
  1 11  1  0
  3 12  1  0
  4 13  1  0
  4 14  1  0
  6 15  1  0
  6 16  1  0
M  END
