
     RDKit          3D

 19 20  0  0  0  0  0  0  0  0999 V2000
    2.3925   -0.3592    0.1815 C   0  0  0  0  0  0  0  0  0  0  0  0
    0.9969    0.1038    0.2096 C   0  0  0  0  0  0  0  0  0  0  0  0
    0.6796    1.3108   -0.2825 C   0  0  0  0  0  0  0  0  0  0  0  0
   -0.7492    1.7040   -0.2179 C   0  0  0  0  0  0  0  0  0  0  0  0
   -1.0068    2.9158   -0.0658 O   0  0  0  0  0  0  0  0  0  0  0  0
   -1.8380    0.6546   -0.3347 C   0  0  0  0  0  0  0  0  0  0  0  0
   -1.1170   -0.6202   -0.5107 C   0  0  0  0  0  0  0  0  0  0  0  0
   -0.8763   -1.7387    0.3143 C   0  0  0  0  0  0  0  0  0  0  0  0
   -0.1539   -0.6024    0.7307 C   0  0  0  0  0  0  0  0  0  0  0  0
    2.9299   -0.0759   -0.7479 H   0  0  0  0  0  0  0  0  0  0  0  0
    2.9587    0.0123    1.0459 H   0  0  0  0  0  0  0  0  0  0  0  0
    2.4201   -1.4773    0.2098 H   0  0  0  0  0  0  0  0  0  0  0  0
    1.4355    1.9793   -0.7118 H   0  0  0  0  0  0  0  0  0  0  0  0
   -2.5440    0.7123    0.4926 H   0  0  0  0  0  0  0  0  0  0  0  0
   -2.3815    0.9365   -1.2826 H   0  0  0  0  0  0  0  0  0  0  0  0
   -0.6164   -0.6277   -1.5279 H   0  0  0  0  0  0  0  0  0  0  0  0
   -0.2924   -2.6054   -0.1130 H   0  0  0  0  0  0  0  0  0  0  0  0
   -1.6915   -2.1380    0.9519 H   0  0  0  0  0  0  0  0  0  0  0  0
   -0.5461   -0.0845    1.6586 H   0  0  0  0  0  0  0  0  0  0  0  0
  1  2  1  0
  2  3  2  0
  3  4  1  0
  4  5  2  0
  4  6  1  0
  6  7  1  0
  7  8  1  0
  8  9  1  0
  9  2  1  0
  9  7  1  0
  1 10  1  0
  1 11  1  0
  1 12  1  0
  3 13  1  0
  6 14  1  0
  6 15  1  0
  7 16  1  0
  8 17  1  0
  8 18  1  0
  9 19  1  0
M  END
