
     RDKit          3D

 19 20  0  0  0  0  0  0  0  0999 V2000
    2.5017    0.4912   -0.1933 C   0  0  0  0  0  0  0  0  0  0  0  0
    1.0713    0.1048   -0.2337 C   0  0  0  0  0  0  0  0  0  0  0  0
    0.3520   -0.5112   -1.1733 C   0  0  0  0  0  0  0  0  0  0  0  0
   -1.0037   -0.5477   -0.5863 C   0  0  0  0  0  0  0  0  0  0  0  0
   -2.0195   -1.1065   -1.2017 O   0  0  0  0  0  0  0  0  0  0  0  0
   -0.6698   -0.9788    0.8536 C   0  0  0  0  0  0  0  0  0  0  0  0
    0.0698    0.3403    0.8412 C   0  0  0  0  0  0  0  0  0  0  0  0
   -1.1140    0.8434    0.0005 C   0  0  0  0  0  0  0  0  0  0  0  0
   -2.2645    1.0815    0.7264 O   0  0  0  0  0  0  0  0  0  0  0  0
    3.1669   -0.3679    0.0451 H   0  0  0  0  0  0  0  0  0  0  0  0
    2.6421    1.2482    0.5925 H   0  0  0  0  0  0  0  0  0  0  0  0
    2.8600    0.9303   -1.1423 H   0  0  0  0  0  0  0  0  0  0  0  0
    0.6073   -0.9127   -2.1400 H   0  0  0  0  0  0  0  0  0  0  0  0
   -2.0753   -2.0824   -1.0786 H   0  0  0  0  0  0  0  0  0  0  0  0
   -0.0160   -1.8846    0.8161 H   0  0  0  0  0  0  0  0  0  0  0  0
   -1.5282   -1.0474    1.5191 H   0  0  0  0  0  0  0  0  0  0  0  0
    0.3162    0.8371    1.7268 H   0  0  0  0  0  0  0  0  0  0  0  0
   -0.7600    1.6649   -0.6443 H   0  0  0  0  0  0  0  0  0  0  0  0
   -2.1362    1.8976    1.2722 H   0  0  0  0  0  0  0  0  0  0  0  0
  1  2  1  0
  2  3  2  0
  3  4  1  0
  4  5  1  0
  4  6  1  0
  6  7  1  0
  7  8  1  0
  8  9  1  0
  7  2  1  0
  8  4  1  0
  1 10  1  0
  1 11  1  0
  1 12  1  0
  3 13  1  0
  5 14  1  0
  6 15  1  0
  6 16  1  0
  7 17  1  0
  8 18  1  0
  9 19  1  0
M  END
