
     RDKit          3D

 21 22  0  0  0  0  0  0  0  0999 V2000
    2.6565    0.3101    0.9930 C   0  0  0  0  0  0  0  0  0  0  0  0
    1.2815    0.1623    0.3526 C   0  0  0  0  0  0  0  0  0  0  0  0
    0.1471   -0.0252    0.9935 C   0  0  0  0  0  0  0  0  0  0  0  0
   -1.0007   -0.1289    0.1002 C   0  0  0  0  0  0  0  0  0  0  0  0
   -2.0401   -1.1461    0.5087 C   0  0  0  0  0  0  0  0  0  0  0  0
   -1.5230    1.1120   -0.5559 C   0  0  0  0  0  0  0  0  0  0  0  0
   -1.2691    0.4901   -1.8020 O   0  0  0  0  0  0  0  0  0  0  0  0
   -0.3512   -0.4093   -1.2388 C   0  0  0  0  0  0  0  0  0  0  0  0
    1.0120    0.2121   -1.0993 C   0  0  0  0  0  0  0  0  0  0  0  0
    3.2651    0.9127    0.2920 H   0  0  0  0  0  0  0  0  0  0  0  0
    3.1427   -0.6724    1.0931 H   0  0  0  0  0  0  0  0  0  0  0  0
    2.5646    0.7464    1.9983 H   0  0  0  0  0  0  0  0  0  0  0  0
    0.1036   -0.0933    2.1111 H   0  0  0  0  0  0  0  0  0  0  0  0
   -2.6908   -1.4194   -0.3408 H   0  0  0  0  0  0  0  0  0  0  0  0
   -2.6294   -0.7012    1.3363 H   0  0  0  0  0  0  0  0  0  0  0  0
   -1.5460   -2.0440    0.8786 H   0  0  0  0  0  0  0  0  0  0  0  0
   -0.8829    1.9897   -0.4494 H   0  0  0  0  0  0  0  0  0  0  0  0
   -2.5993    1.2254   -0.3997 H   0  0  0  0  0  0  0  0  0  0  0  0
   -0.4062   -1.4304   -1.6079 H   0  0  0  0  0  0  0  0  0  0  0  0
    0.9938    1.2748   -1.4777 H   0  0  0  0  0  0  0  0  0  0  0  0
    1.7719   -0.3655   -1.6860 H   0  0  0  0  0  0  0  0  0  0  0  0
  1  2  1  0
  2  3  2  0
  3  4  1  0
  4  5  1  0
  4  6  1  0
  6  7  1  0
  7  8  1  0
  8  9  1  0
  9  2  1  0
  8  4  1  0
  1 10  1  0
  1 11  1  0
  1 12  1  0
  3 13  1  0
  5 14  1  0
  5 15  1  0
  5 16  1  0
  6 17  1  0
  6 18  1  0
  8 19  1  0
  9 20  1  0
  9 21  1  0
M  END
