
     RDKit          3D

 21 22  0  0  0  0  0  0  0  0999 V2000
    2.5631    0.5954   -0.0929 C   0  0  0  0  0  0  0  0  0  0  0  0
    1.1265    0.2077    0.1627 C   0  0  0  0  0  0  0  0  0  0  0  0
    0.3255    1.2619    0.2021 C   0  0  0  0  0  0  0  0  0  0  0  0
   -1.1159    1.3953    0.4163 C   0  0  0  0  0  0  0  0  0  0  0  0
   -1.8838    0.1222    0.2664 C   0  0  0  0  0  0  0  0  0  0  0  0
   -1.3673   -0.7732   -0.8274 C   0  0  0  0  0  0  0  0  0  0  0  0
   -0.3358   -1.7435   -0.3240 C   0  0  0  0  0  0  0  0  0  0  0  0
   -0.1856   -1.6680    1.1535 O   0  0  0  0  0  0  0  0  0  0  0  0
    0.8080   -1.2119    0.3262 C   0  0  0  0  0  0  0  0  0  0  0  0
    2.8285    1.5412    0.3726 H   0  0  0  0  0  0  0  0  0  0  0  0
    2.6611    0.6527   -1.1938 H   0  0  0  0  0  0  0  0  0  0  0  0
    3.1637   -0.2742    0.2419 H   0  0  0  0  0  0  0  0  0  0  0  0
    0.8186    2.2411    0.0455 H   0  0  0  0  0  0  0  0  0  0  0  0
   -1.5177    2.1727   -0.2908 H   0  0  0  0  0  0  0  0  0  0  0  0
   -1.2925    1.8367    1.4341 H   0  0  0  0  0  0  0  0  0  0  0  0
   -1.7477   -0.4526    1.2284 H   0  0  0  0  0  0  0  0  0  0  0  0
   -2.9640    0.3431    0.1256 H   0  0  0  0  0  0  0  0  0  0  0  0
   -1.0282   -0.2188   -1.7232 H   0  0  0  0  0  0  0  0  0  0  0  0
   -2.2444   -1.3880   -1.1796 H   0  0  0  0  0  0  0  0  0  0  0  0
   -0.3420   -2.7739   -0.7068 H   0  0  0  0  0  0  0  0  0  0  0  0
    1.7301   -1.8661    0.3631 H   0  0  0  0  0  0  0  0  0  0  0  0
  1  2  1  0
  2  3  2  0
  3  4  1  0
  4  5  1  0
  5  6  1  0
  6  7  1  0
  7  8  1  0
  8  9  1  0
  9  2  1  0
  9  7  1  0
  1 10  1  0
  1 11  1  0
  1 12  1  0
  3 13  1  0
  4 14  1  0
  4 15  1  0
  5 16  1  0
  5 17  1  0
  6 18  1  0
  6 19  1  0
  7 20  1  0
  9 21  1  0
M  END
