
     RDKit          3D

 19 19  0  0  0  0  0  0  0  0999 V2000
   -1.8921    1.4741   -0.3226 C   0  0  0  0  0  0  0  0  0  0  0  0
   -0.7281    0.5837   -0.0467 C   0  0  0  0  0  0  0  0  0  0  0  0
    0.1959    0.5098   -0.9944 C   0  0  0  0  0  0  0  0  0  0  0  0
    1.4067   -0.3607   -0.8101 C   0  0  0  0  0  0  0  0  0  0  0  0
    1.9181   -0.7872   -2.0223 O   0  0  0  0  0  0  0  0  0  0  0  0
    0.9981   -1.4418    0.0894 C   0  0  0  0  0  0  0  0  0  0  0  0
    1.1115   -2.5855   -0.2247 O   0  0  0  0  0  0  0  0  0  0  0  0
    0.4425   -1.0794    1.3944 C   0  0  0  0  0  0  0  0  0  0  0  0
   -0.7041   -0.1263    1.2342 C   0  0  0  0  0  0  0  0  0  0  0  0
   -2.8151    0.8904   -0.5348 H   0  0  0  0  0  0  0  0  0  0  0  0
   -2.0754    2.0492    0.6209 H   0  0  0  0  0  0  0  0  0  0  0  0
   -1.6871    2.1922   -1.1384 H   0  0  0  0  0  0  0  0  0  0  0  0
    0.0998    1.0768   -1.9270 H   0  0  0  0  0  0  0  0  0  0  0  0
    2.2178    0.2507   -0.3200 H   0  0  0  0  0  0  0  0  0  0  0  0
    2.4552   -0.0259   -2.4146 H   0  0  0  0  0  0  0  0  0  0  0  0
    1.2469   -0.5155    1.9478 H   0  0  0  0  0  0  0  0  0  0  0  0
    0.2065   -1.9450    2.0414 H   0  0  0  0  0  0  0  0  0  0  0  0
   -0.7300    0.5547    2.1231 H   0  0  0  0  0  0  0  0  0  0  0  0
   -1.6671   -0.7143    1.3045 H   0  0  0  0  0  0  0  0  0  0  0  0
  1  2  1  0
  2  3  2  0
  3  4  1  0
  4  5  1  0
  4  6  1  0
  6  7  2  0
  6  8  1  0
  8  9  1  0
  9  2  1  0
  1 10  1  0
  1 11  1  0
  1 12  1  0
  3 13  1  0
  4 14  1  0
  5 15  1  0
  8 16  1  0
  8 17  1  0
  9 18  1  0
  9 19  1  0
M  END
