
     RDKit          3D

 21 21  0  0  0  0  0  0  0  0999 V2000
   -2.0030   -1.5266    0.2329 C   0  0  0  0  0  0  0  0  0  0  0  0
   -1.1008   -0.3659    0.0049 C   0  0  0  0  0  0  0  0  0  0  0  0
   -1.2249    0.7535    0.7047 C   0  0  0  0  0  0  0  0  0  0  0  0
   -0.3443    1.9430    0.5117 C   0  0  0  0  0  0  0  0  0  0  0  0
    0.9611    1.4945   -0.0240 C   0  0  0  0  0  0  0  0  0  0  0  0
    1.9128    2.2485    0.1178 O   0  0  0  0  0  0  0  0  0  0  0  0
    1.2038    0.2198   -0.7104 C   0  0  0  0  0  0  0  0  0  0  0  0
    2.0482   -0.6530    0.1926 C   0  0  0  0  0  0  0  0  0  0  0  0
   -0.0521   -0.5303   -1.0510 C   0  0  0  0  0  0  0  0  0  0  0  0
   -1.3980   -2.2970    0.7570 H   0  0  0  0  0  0  0  0  0  0  0  0
   -2.3294   -1.9537   -0.7441 H   0  0  0  0  0  0  0  0  0  0  0  0
   -2.8531   -1.2822    0.8862 H   0  0  0  0  0  0  0  0  0  0  0  0
   -2.0340    0.7524    1.4524 H   0  0  0  0  0  0  0  0  0  0  0  0
   -0.8281    2.7112   -0.1201 H   0  0  0  0  0  0  0  0  0  0  0  0
   -0.1789    2.4293    1.5168 H   0  0  0  0  0  0  0  0  0  0  0  0
    1.7533    0.4526   -1.6686 H   0  0  0  0  0  0  0  0  0  0  0  0
    1.3504   -1.1759    0.8978 H   0  0  0  0  0  0  0  0  0  0  0  0
    2.5434   -1.4036   -0.4652 H   0  0  0  0  0  0  0  0  0  0  0  0
    2.7802   -0.0139    0.7234 H   0  0  0  0  0  0  0  0  0  0  0  0
   -0.4339   -0.1991   -2.0412 H   0  0  0  0  0  0  0  0  0  0  0  0
    0.2272   -1.6037   -1.1736 H   0  0  0  0  0  0  0  0  0  0  0  0
  1  2  1  0
  2  3  2  0
  3  4  1  0
  4  5  1  0
  5  6  2  0
  5  7  1  0
  7  8  1  0
  7  9  1  0
  9  2  1  0
  1 10  1  0
  1 11  1  0
  1 12  1  0
  3 13  1  0
  4 14  1  0
  4 15  1  0
  7 16  1  0
  8 17  1  0
  8 18  1  0
  8 19  1  0
  9 20  1  0
  9 21  1  0
M  END
