
     RDKit          3D

 23 24  0  0  0  0  0  0  0  0999 V2000
    2.7084   -0.4216   -0.1831 C   0  0  0  0  0  0  0  0  0  0  0  0
    1.2778   -0.2313    0.1653 C   0  0  0  0  0  0  0  0  0  0  0  0
    0.5746   -1.3494    0.2924 C   0  0  0  0  0  0  0  0  0  0  0  0
   -0.8822   -1.5475    0.6330 C   0  0  0  0  0  0  0  0  0  0  0  0
   -1.5281   -0.2110    0.6194 C   0  0  0  0  0  0  0  0  0  0  0  0
   -2.5635    0.2298   -0.2882 C   0  0  0  0  0  0  0  0  0  0  0  0
   -1.2083    0.3929   -0.7686 C   0  0  0  0  0  0  0  0  0  0  0  0
   -0.3225    1.5577   -0.5198 C   0  0  0  0  0  0  0  0  0  0  0  0
    0.8833    1.1868    0.3118 C   0  0  0  0  0  0  0  0  0  0  0  0
    3.0674   -1.4438    0.0229 H   0  0  0  0  0  0  0  0  0  0  0  0
    2.9319   -0.1939   -1.2336 H   0  0  0  0  0  0  0  0  0  0  0  0
    3.3674    0.2641    0.4257 H   0  0  0  0  0  0  0  0  0  0  0  0
    1.0944   -2.2861    0.1341 H   0  0  0  0  0  0  0  0  0  0  0  0
   -1.3644   -2.1692   -0.1684 H   0  0  0  0  0  0  0  0  0  0  0  0
   -1.0006   -2.1109    1.5779 H   0  0  0  0  0  0  0  0  0  0  0  0
   -1.3132    0.4077    1.5118 H   0  0  0  0  0  0  0  0  0  0  0  0
   -3.1696    1.1207    0.0291 H   0  0  0  0  0  0  0  0  0  0  0  0
   -3.2200   -0.4937   -0.8464 H   0  0  0  0  0  0  0  0  0  0  0  0
   -0.8546   -0.2890   -1.5653 H   0  0  0  0  0  0  0  0  0  0  0  0
   -0.8375    2.3870    0.0078 H   0  0  0  0  0  0  0  0  0  0  0  0
   -0.0171    1.9730   -1.5180 H   0  0  0  0  0  0  0  0  0  0  0  0
    0.6679    1.3897    1.3931 H   0  0  0  0  0  0  0  0  0  0  0  0
    1.7088    1.8382   -0.0328 H   0  0  0  0  0  0  0  0  0  0  0  0
  1  2  1  0
  2  3  2  0
  3  4  1  0
  4  5  1  0
  5  6  1  0
  6  7  1  0
  7  8  1  0
  8  9  1  0
  9  2  1  0
  7  5  1  0
  1 10  1  0
  1 11  1  0
  1 12  1  0
  3 13  1  0
  4 14  1  0
  4 15  1  0
  5 16  1  0
  6 17  1  0
  6 18  1  0
  7 19  1  0
  8 20  1  0
  8 21  1  0
  9 22  1  0
  9 23  1  0
M  END
