
     RDKit          3D

 21 21  0  0  0  0  0  0  0  0999 V2000
    2.7130   -0.3290    0.2086 C   0  0  0  0  0  0  0  0  0  0  0  0
    1.2418   -0.1185    0.1453 C   0  0  0  0  0  0  0  0  0  0  0  0
    0.5272   -1.2338    0.3057 C   0  0  0  0  0  0  0  0  0  0  0  0
   -0.9171   -1.6140    0.3357 C   0  0  0  0  0  0  0  0  0  0  0  0
   -1.6509   -1.0026   -0.6606 O   0  0  0  0  0  0  0  0  0  0  0  0
   -2.2883    0.1559   -0.2194 C   0  0  0  0  0  0  0  0  0  0  0  0
   -1.4601    1.3804   -0.4597 C   0  0  0  0  0  0  0  0  0  0  0  0
   -0.4433    1.5400    0.4695 O   0  0  0  0  0  0  0  0  0  0  0  0
    0.8234    1.2937   -0.0850 C   0  0  0  0  0  0  0  0  0  0  0  0
    2.9312   -1.2661    0.7924 H   0  0  0  0  0  0  0  0  0  0  0  0
    3.1913   -0.3839   -0.7743 H   0  0  0  0  0  0  0  0  0  0  0  0
    3.1292    0.5006    0.8476 H   0  0  0  0  0  0  0  0  0  0  0  0
    1.2133   -2.0667    0.4506 H   0  0  0  0  0  0  0  0  0  0  0  0
   -0.9698   -2.7102    0.1716 H   0  0  0  0  0  0  0  0  0  0  0  0
   -1.3645   -1.4377    1.3448 H   0  0  0  0  0  0  0  0  0  0  0  0
   -2.6338    0.0649    0.8362 H   0  0  0  0  0  0  0  0  0  0  0  0
   -3.2136    0.2531   -0.8275 H   0  0  0  0  0  0  0  0  0  0  0  0
   -2.1525    2.2479   -0.5013 H   0  0  0  0  0  0  0  0  0  0  0  0
   -0.9677    1.2533   -1.4545 H   0  0  0  0  0  0  0  0  0  0  0  0
    0.7096    1.4755   -1.1904 H   0  0  0  0  0  0  0  0  0  0  0  0
    1.5816    1.9971    0.2648 H   0  0  0  0  0  0  0  0  0  0  0  0
  1  2  1  0
  2  3  2  3
  3  4  1  0
  4  5  1  0
  5  6  1  0
  6  7  1  0
  7  8  1  0
  8  9  1  0
  9  2  1  0
  1 10  1  0
  1 11  1  0
  1 12  1  0
  3 13  1  0
  4 14  1  0
  4 15  1  0
  6 16  1  0
  6 17  1  0
  7 18  1  0
  7 19  1  0
  9 20  1  0
  9 21  1  0
M  END
