
     RDKit          3D

 19 20  0  0  0  0  0  0  0  0999 V2000
   -2.2682   -0.1031    0.6376 C   0  0  0  0  0  0  0  0  0  0  0  0
   -1.0444    0.3232   -0.0713 C   0  0  0  0  0  0  0  0  0  0  0  0
   -0.5565    1.5514   -0.0481 C   0  0  0  0  0  0  0  0  0  0  0  0
    0.8743    1.3851   -0.4894 C   0  0  0  0  0  0  0  0  0  0  0  0
    1.5467    0.8552    0.5834 O   0  0  0  0  0  0  0  0  0  0  0  0
    1.8476   -0.4782    0.5025 C   0  0  0  0  0  0  0  0  0  0  0  0
    0.8109   -1.3308   -0.1357 C   0  0  0  0  0  0  0  0  0  0  0  0
   -0.1277   -0.4656   -0.9252 C   0  0  0  0  0  0  0  0  0  0  0  0
    0.7060    0.5030   -1.5434 O   0  0  0  0  0  0  0  0  0  0  0  0
   -3.1532   -0.1116   -0.0665 H   0  0  0  0  0  0  0  0  0  0  0  0
   -2.5485    0.6359    1.4173 H   0  0  0  0  0  0  0  0  0  0  0  0
   -2.1581   -1.0961    1.1183 H   0  0  0  0  0  0  0  0  0  0  0  0
   -1.0441    2.4907    0.2216 H   0  0  0  0  0  0  0  0  0  0  0  0
    1.3067    2.3563   -0.8107 H   0  0  0  0  0  0  0  0  0  0  0  0
    2.8583   -0.5729    0.0385 H   0  0  0  0  0  0  0  0  0  0  0  0
    1.9690   -0.8434    1.5652 H   0  0  0  0  0  0  0  0  0  0  0  0
    1.3324   -1.9946   -0.8792 H   0  0  0  0  0  0  0  0  0  0  0  0
    0.2938   -2.0201    0.5563 H   0  0  0  0  0  0  0  0  0  0  0  0
   -0.6450   -1.0846   -1.6711 H   0  0  0  0  0  0  0  0  0  0  0  0
  1  2  1  0
  2  3  2  0
  3  4  1  0
  4  5  1  0
  5  6  1  0
  6  7  1  0
  7  8  1  0
  8  9  1  0
  8  2  1  0
  9  4  1  0
  1 10  1  0
  1 11  1  0
  1 12  1  0
  3 13  1  0
  4 14  1  0
  6 15  1  0
  6 16  1  0
  7 17  1  0
  7 18  1  0
  8 19  1  0
M  END
