
     RDKit          3D

 21 22  0  0  0  0  0  0  0  0999 V2000
   -1.6180    1.5374   -0.2201 C   0  0  0  0  0  0  0  0  0  0  0  0
   -0.4783    0.6060   -0.2533 C   0  0  0  0  0  0  0  0  0  0  0  0
   -0.5075   -0.6601    0.0876 C   0  0  0  0  0  0  0  0  0  0  0  0
   -1.8091   -1.2340    0.5577 C   0  0  0  0  0  0  0  0  0  0  0  0
    0.6737   -1.5457    0.0267 C   0  0  0  0  0  0  0  0  0  0  0  0
    1.4329   -1.4039   -1.1403 O   0  0  0  0  0  0  0  0  0  0  0  0
    1.9073   -0.9011    0.0786 C   0  0  0  0  0  0  0  0  0  0  0  0
    1.8429    0.5874    0.3163 C   0  0  0  0  0  0  0  0  0  0  0  0
    0.8550    1.1395   -0.7144 C   0  0  0  0  0  0  0  0  0  0  0  0
   -1.7249    1.9879    0.7857 H   0  0  0  0  0  0  0  0  0  0  0  0
   -2.5787    1.0422   -0.5440 H   0  0  0  0  0  0  0  0  0  0  0  0
   -1.4524    2.3441   -0.9635 H   0  0  0  0  0  0  0  0  0  0  0  0
   -2.5310   -0.4657    0.8289 H   0  0  0  0  0  0  0  0  0  0  0  0
   -2.1643   -1.9091   -0.2338 H   0  0  0  0  0  0  0  0  0  0  0  0
   -1.5475   -1.8486    1.4621 H   0  0  0  0  0  0  0  0  0  0  0  0
    0.5605   -2.5767    0.4484 H   0  0  0  0  0  0  0  0  0  0  0  0
    2.9042   -1.3517    0.3363 H   0  0  0  0  0  0  0  0  0  0  0  0
    1.4336    0.7334    1.3495 H   0  0  0  0  0  0  0  0  0  0  0  0
    2.8307    1.0740    0.2297 H   0  0  0  0  0  0  0  0  0  0  0  0
    1.0988    0.6199   -1.6672 H   0  0  0  0  0  0  0  0  0  0  0  0
    0.8719    2.2250   -0.7708 H   0  0  0  0  0  0  0  0  0  0  0  0
  1  2  1  0
  2  3  2  0
  3  4  1  0
  3  5  1  0
  5  6  1  0
  6  7  1  0
  7  8  1  0
  8  9  1  0
  9  2  1  0
  7  5  1  0
  1 10  1  0
  1 11  1  0
  1 12  1  0
  4 13  1  0
  4 14  1  0
  4 15  1  0
  5 16  1  0
  7 17  1  0
  8 18  1  0
  8 19  1  0
  9 20  1  0
  9 21  1  0
M  END
