
     RDKit          3D

 23 23  0  0  0  0  0  0  0  0999 V2000
    2.8374   -0.2804    0.0594 C   0  0  0  0  0  0  0  0  0  0  0  0
    1.3693   -0.1313   -0.1630 C   0  0  0  0  0  0  0  0  0  0  0  0
    0.7482   -1.2851   -0.2331 C   0  0  0  0  0  0  0  0  0  0  0  0
   -0.6958   -1.6466   -0.4418 C   0  0  0  0  0  0  0  0  0  0  0  0
   -1.4677   -0.8535    0.6217 C   0  0  0  0  0  0  0  0  0  0  0  0
   -2.0909    0.3801    0.0677 C   0  0  0  0  0  0  0  0  0  0  0  0
   -1.3067    1.6240    0.2450 C   0  0  0  0  0  0  0  0  0  0  0  0
   -0.0408    1.4669    0.7398 O   0  0  0  0  0  0  0  0  0  0  0  0
    0.9268    1.3063   -0.2575 C   0  0  0  0  0  0  0  0  0  0  0  0
    3.4249   -0.2313   -0.8599 H   0  0  0  0  0  0  0  0  0  0  0  0
    3.0400   -1.2059    0.6662 H   0  0  0  0  0  0  0  0  0  0  0  0
    3.1829    0.5723    0.7094 H   0  0  0  0  0  0  0  0  0  0  0  0
    1.3911   -2.1670   -0.1196 H   0  0  0  0  0  0  0  0  0  0  0  0
   -0.8690   -2.7166   -0.3703 H   0  0  0  0  0  0  0  0  0  0  0  0
   -0.9735   -1.1967   -1.4186 H   0  0  0  0  0  0  0  0  0  0  0  0
   -0.8406   -0.6772    1.4938 H   0  0  0  0  0  0  0  0  0  0  0  0
   -2.2824   -1.5581    0.9559 H   0  0  0  0  0  0  0  0  0  0  0  0
   -2.3739    0.1802   -0.9957 H   0  0  0  0  0  0  0  0  0  0  0  0
   -3.0769    0.5209    0.5951 H   0  0  0  0  0  0  0  0  0  0  0  0
   -1.2151    2.1165   -0.7657 H   0  0  0  0  0  0  0  0  0  0  0  0
   -1.8219    2.3988    0.8770 H   0  0  0  0  0  0  0  0  0  0  0  0
    1.7648    1.9922   -0.1742 H   0  0  0  0  0  0  0  0  0  0  0  0
    0.3699    1.3912   -1.2315 H   0  0  0  0  0  0  0  0  0  0  0  0
  1  2  1  0
  2  3  2  3
  3  4  1  0
  4  5  1  0
  5  6  1  0
  6  7  1  0
  7  8  1  0
  8  9  1  0
  9  2  1  0
  1 10  1  0
  1 11  1  0
  1 12  1  0
  3 13  1  0
  4 14  1  0
  4 15  1  0
  5 16  1  0
  5 17  1  0
  6 18  1  0
  6 19  1  0
  7 20  1  0
  7 21  1  0
  9 22  1  0
  9 23  1  0
M  END
