
     RDKit          3D

 21 22  0  0  0  0  0  0  0  0999 V2000
   -2.8246   -0.2995    0.2816 C   0  0  0  0  0  0  0  0  0  0  0  0
   -1.3560   -0.1145    0.1593 C   0  0  0  0  0  0  0  0  0  0  0  0
   -0.5636    0.1603    1.1966 C   0  0  0  0  0  0  0  0  0  0  0  0
    0.7405    0.7708    0.8057 C   0  0  0  0  0  0  0  0  0  0  0  0
    1.0631    0.3184   -0.5834 C   0  0  0  0  0  0  0  0  0  0  0  0
    2.5002    0.4989   -0.9466 C   0  0  0  0  0  0  0  0  0  0  0  0
    0.5694   -1.0554   -0.9037 C   0  0  0  0  0  0  0  0  0  0  0  0
   -0.6980   -0.2346   -1.1757 C   0  0  0  0  0  0  0  0  0  0  0  0
    0.1282    0.8366   -1.4563 O   0  0  0  0  0  0  0  0  0  0  0  0
   -3.3955    0.4245   -0.3289 H   0  0  0  0  0  0  0  0  0  0  0  0
   -3.0809   -0.1288    1.3605 H   0  0  0  0  0  0  0  0  0  0  0  0
   -3.0472   -1.3450    0.0019 H   0  0  0  0  0  0  0  0  0  0  0  0
   -0.8365   -0.0392    2.2292 H   0  0  0  0  0  0  0  0  0  0  0  0
    1.5394    0.5836    1.5384 H   0  0  0  0  0  0  0  0  0  0  0  0
    0.5502    1.8825    0.7367 H   0  0  0  0  0  0  0  0  0  0  0  0
    2.7032    1.5604   -1.2121 H   0  0  0  0  0  0  0  0  0  0  0  0
    3.1138    0.1650   -0.0805 H   0  0  0  0  0  0  0  0  0  0  0  0
    2.7618   -0.1724   -1.7929 H   0  0  0  0  0  0  0  0  0  0  0  0
    0.9676   -1.4335   -1.8418 H   0  0  0  0  0  0  0  0  0  0  0  0
    0.4811   -1.7520   -0.0626 H   0  0  0  0  0  0  0  0  0  0  0  0
   -1.3164   -0.6261   -1.9796 H   0  0  0  0  0  0  0  0  0  0  0  0
  1  2  1  0
  2  3  2  0
  3  4  1  0
  4  5  1  0
  5  6  1  0
  5  7  1  0
  7  8  1  0
  8  9  1  0
  8  2  1  0
  9  5  1  0
  1 10  1  0
  1 11  1  0
  1 12  1  0
  3 13  1  0
  4 14  1  0
  4 15  1  0
  6 16  1  0
  6 17  1  0
  6 18  1  0
  7 19  1  0
  7 20  1  0
  8 21  1  0
M  END
