
     RDKit          3D

 18 19  0  0  0  0  0  0  0  0999 V2000
   -2.4102   -0.4547   -0.2117 C   0  0  0  0  0  0  0  0  0  0  0  0
   -0.9973    0.0726   -0.2115 C   0  0  0  0  0  0  0  0  0  0  0  0
   -0.7152    1.3338    0.0023 C   0  0  0  0  0  0  0  0  0  0  0  0
    0.7483    1.5444   -0.0595 C   0  0  0  0  0  0  0  0  0  0  0  0
    1.3097    0.2088   -0.4779 C   0  0  0  0  0  0  0  0  0  0  0  0
    1.2779   -0.8416    0.5825 C   0  0  0  0  0  0  0  0  0  0  0  0
    2.2167   -1.8361    0.4649 O   0  0  0  0  0  0  0  0  0  0  0  0
    0.1877   -0.7519   -0.4454 C   0  0  0  0  0  0  0  0  0  0  0  0
   -2.6984   -0.5399    0.8548 H   0  0  0  0  0  0  0  0  0  0  0  0
   -2.4840   -1.4252   -0.7051 H   0  0  0  0  0  0  0  0  0  0  0  0
   -3.0823    0.3197   -0.6514 H   0  0  0  0  0  0  0  0  0  0  0  0
   -1.4180    2.1617    0.2038 H   0  0  0  0  0  0  0  0  0  0  0  0
    0.9798    2.3636   -0.7364 H   0  0  0  0  0  0  0  0  0  0  0  0
    1.0906    1.7261    0.9891 H   0  0  0  0  0  0  0  0  0  0  0  0
    2.0432    0.1479   -1.2922 H   0  0  0  0  0  0  0  0  0  0  0  0
    0.9748   -0.6022    1.6106 H   0  0  0  0  0  0  0  0  0  0  0  0
    2.8345   -1.8004    1.2137 H   0  0  0  0  0  0  0  0  0  0  0  0
    0.1422   -1.6265   -1.1305 H   0  0  0  0  0  0  0  0  0  0  0  0
  1  2  1  0
  2  3  2  0
  3  4  1  0
  4  5  1  0
  5  6  1  0
  6  7  1  0
  6  8  1  0
  8  2  1  0
  8  5  1  0
  1  9  1  0
  1 10  1  0
  1 11  1  0
  3 12  1  0
  4 13  1  0
  4 14  1  0
  5 15  1  0
  6 16  1  0
  7 17  1  0
  8 18  1  0
M  END
