
     RDKit          3D

 18 19  0  0  0  0  0  0  0  0999 V2000
    2.4568   -0.4629    0.1914 C   0  0  0  0  0  0  0  0  0  0  0  0
    0.9852   -0.2155    0.1670 C   0  0  0  0  0  0  0  0  0  0  0  0
    0.1325   -0.5565    1.1245 C   0  0  0  0  0  0  0  0  0  0  0  0
   -1.2450   -0.1741    0.7992 C   0  0  0  0  0  0  0  0  0  0  0  0
   -1.9330   -0.6266   -0.4217 C   0  0  0  0  0  0  0  0  0  0  0  0
   -1.1171    0.6200   -0.4772 C   0  0  0  0  0  0  0  0  0  0  0  0
   -1.7104    1.8703   -0.4391 O   0  0  0  0  0  0  0  0  0  0  0  0
    0.2867    0.4571   -0.9584 C   0  0  0  0  0  0  0  0  0  0  0  0
    2.8525   -0.5019    1.2354 H   0  0  0  0  0  0  0  0  0  0  0  0
    2.6482   -1.3894   -0.3594 H   0  0  0  0  0  0  0  0  0  0  0  0
    2.9536    0.3678   -0.3366 H   0  0  0  0  0  0  0  0  0  0  0  0
    0.4358   -1.0589    2.0352 H   0  0  0  0  0  0  0  0  0  0  0  0
   -1.8912    0.2469    1.6140 H   0  0  0  0  0  0  0  0  0  0  0  0
   -1.5591   -1.4970   -1.0215 H   0  0  0  0  0  0  0  0  0  0  0  0
   -3.0324   -0.5531   -0.4466 H   0  0  0  0  0  0  0  0  0  0  0  0
   -1.3394    2.3275    0.3817 H   0  0  0  0  0  0  0  0  0  0  0  0
    0.7307    1.4042   -1.2562 H   0  0  0  0  0  0  0  0  0  0  0  0
    0.3456   -0.2577   -1.8317 H   0  0  0  0  0  0  0  0  0  0  0  0
  1  2  1  0
  2  3  2  0
  3  4  1  0
  4  5  1  0
  5  6  1  0
  6  7  1  0
  6  8  1  0
  8  2  1  0
  6  4  1  0
  1  9  1  0
  1 10  1  0
  1 11  1  0
  3 12  1  0
  4 13  1  0
  5 14  1  0
  5 15  1  0
  7 16  1  0
  8 17  1  0
  8 18  1  0
M  END
