
     RDKit          3D

 21 21  0  0  0  0  0  0  0  0999 V2000
   -1.3382    2.0145    0.3222 C   0  0  0  0  0  0  0  0  0  0  0  0
   -0.3960    0.8737    0.1650 C   0  0  0  0  0  0  0  0  0  0  0  0
    0.6523    0.6214    0.8936 C   0  0  0  0  0  0  0  0  0  0  0  0
    1.2735   -0.6098    0.3630 C   0  0  0  0  0  0  0  0  0  0  0  0
    2.7750   -0.3341    0.2686 C   0  0  0  0  0  0  0  0  0  0  0  0
    0.7356   -0.7261   -0.9395 O   0  0  0  0  0  0  0  0  0  0  0  0
   -0.5173   -0.1683   -0.8611 C   0  0  0  0  0  0  0  0  0  0  0  0
   -1.5404   -1.1791   -0.3099 C   0  0  0  0  0  0  0  0  0  0  0  0
   -1.6280   -2.2946   -1.1166 O   0  0  0  0  0  0  0  0  0  0  0  0
   -1.1998    2.6717   -0.5579 H   0  0  0  0  0  0  0  0  0  0  0  0
   -1.1335    2.5343    1.2726 H   0  0  0  0  0  0  0  0  0  0  0  0
   -2.3719    1.5831    0.3475 H   0  0  0  0  0  0  0  0  0  0  0  0
    1.0696    1.1617    1.7538 H   0  0  0  0  0  0  0  0  0  0  0  0
    1.0924   -1.5039    0.9603 H   0  0  0  0  0  0  0  0  0  0  0  0
    3.1473   -0.2846    1.2986 H   0  0  0  0  0  0  0  0  0  0  0  0
    2.8990    0.6751   -0.1718 H   0  0  0  0  0  0  0  0  0  0  0  0
    3.2561   -1.0693   -0.3753 H   0  0  0  0  0  0  0  0  0  0  0  0
   -0.8801    0.2228   -1.8354 H   0  0  0  0  0  0  0  0  0  0  0  0
   -1.2569   -1.4482    0.7283 H   0  0  0  0  0  0  0  0  0  0  0  0
   -2.5122   -0.6472   -0.2714 H   0  0  0  0  0  0  0  0  0  0  0  0
   -2.1266   -2.0933   -1.9347 H   0  0  0  0  0  0  0  0  0  0  0  0
  1  2  1  0
  2  3  2  0
  3  4  1  0
  4  5  1  0
  4  6  1  0
  6  7  1  0
  7  8  1  0
  8  9  1  0
  7  2  1  0
  1 10  1  0
  1 11  1  0
  1 12  1  0
  3 13  1  0
  4 14  1  0
  5 15  1  0
  5 16  1  0
  5 17  1  0
  7 18  1  0
  8 19  1  0
  8 20  1  0
  9 21  1  0
M  END
