
     RDKit          3D

 21 22  0  0  0  0  0  0  0  0999 V2000
   -1.2850    2.0790   -0.2336 C   0  0  0  0  0  0  0  0  0  0  0  0
   -0.4000    0.8797   -0.1063 C   0  0  0  0  0  0  0  0  0  0  0  0
    0.8369    0.9486    0.3767 C   0  0  0  0  0  0  0  0  0  0  0  0
    1.3580   -0.4680    0.3271 C   0  0  0  0  0  0  0  0  0  0  0  0
    2.8146   -0.4402   -0.0221 C   0  0  0  0  0  0  0  0  0  0  0  0
    0.5902   -1.0299   -0.7224 O   0  0  0  0  0  0  0  0  0  0  0  0
   -0.6438   -0.5155   -0.4406 C   0  0  0  0  0  0  0  0  0  0  0  0
   -1.3790   -1.2882    0.6770 C   0  0  0  0  0  0  0  0  0  0  0  0
   -1.9176   -1.1314   -0.7230 C   0  0  0  0  0  0  0  0  0  0  0  0
   -1.2360    2.4758   -1.2771 H   0  0  0  0  0  0  0  0  0  0  0  0
   -1.0061    2.8622    0.5020 H   0  0  0  0  0  0  0  0  0  0  0  0
   -2.3032    1.7410    0.0292 H   0  0  0  0  0  0  0  0  0  0  0  0
    1.4150    1.7729    0.7409 H   0  0  0  0  0  0  0  0  0  0  0  0
    1.1705   -1.0116    1.2507 H   0  0  0  0  0  0  0  0  0  0  0  0
    3.0118    0.2608   -0.8489 H   0  0  0  0  0  0  0  0  0  0  0  0
    3.3820   -0.1792    0.8757 H   0  0  0  0  0  0  0  0  0  0  0  0
    3.1592   -1.4514   -0.3385 H   0  0  0  0  0  0  0  0  0  0  0  0
   -1.8495   -0.7098    1.4812 H   0  0  0  0  0  0  0  0  0  0  0  0
   -0.9695   -2.2523    0.9953 H   0  0  0  0  0  0  0  0  0  0  0  0
   -1.9351   -2.0269   -1.3911 H   0  0  0  0  0  0  0  0  0  0  0  0
   -2.8135   -0.5154   -0.8025 H   0  0  0  0  0  0  0  0  0  0  0  0
  1  2  1  0
  2  3  2  0
  3  4  1  0
  4  5  1  0
  4  6  1  0
  6  7  1  0
  7  8  1  0
  8  9  1  0
  7  2  1  0
  9  7  1  0
  1 10  1  0
  1 11  1  0
  1 12  1  0
  3 13  1  0
  4 14  1  0
  5 15  1  0
  5 16  1  0
  5 17  1  0
  8 18  1  0
  8 19  1  0
  9 20  1  0
  9 21  1  0
M  END
