
     RDKit          3D

 21 22  0  0  0  0  0  0  0  0999 V2000
    2.7596   -0.5346   -0.3960 C   0  0  0  0  0  0  0  0  0  0  0  0
    1.4807    0.1663   -0.0452 C   0  0  0  0  0  0  0  0  0  0  0  0
    1.3513    1.4103    0.3607 C   0  0  0  0  0  0  0  0  0  0  0  0
   -0.1105    1.6805    0.5924 C   0  0  0  0  0  0  0  0  0  0  0  0
   -0.7865    0.6525   -0.2913 C   0  0  0  0  0  0  0  0  0  0  0  0
   -2.0745    0.1154    0.2298 C   0  0  0  0  0  0  0  0  0  0  0  0
   -1.9984   -1.3689   -0.2130 C   0  0  0  0  0  0  0  0  0  0  0  0
   -0.5425   -1.5951   -0.0736 C   0  0  0  0  0  0  0  0  0  0  0  0
    0.1630   -0.4919   -0.1037 C   0  0  0  0  0  0  0  0  0  0  0  0
    3.6154   -0.0025    0.0802 H   0  0  0  0  0  0  0  0  0  0  0  0
    2.9167   -0.4947   -1.4943 H   0  0  0  0  0  0  0  0  0  0  0  0
    2.6832   -1.5860   -0.0547 H   0  0  0  0  0  0  0  0  0  0  0  0
    2.1328    2.1638    0.5205 H   0  0  0  0  0  0  0  0  0  0  0  0
   -0.4064    1.5586    1.6296 H   0  0  0  0  0  0  0  0  0  0  0  0
   -0.3468    2.6886    0.2022 H   0  0  0  0  0  0  0  0  0  0  0  0
   -0.8203    0.9402   -1.3507 H   0  0  0  0  0  0  0  0  0  0  0  0
   -2.1332    0.1734    1.3231 H   0  0  0  0  0  0  0  0  0  0  0  0
   -2.9575    0.5260   -0.2969 H   0  0  0  0  0  0  0  0  0  0  0  0
   -2.5096   -1.9398    0.5586 H   0  0  0  0  0  0  0  0  0  0  0  0
   -2.3794   -1.4872   -1.2249 H   0  0  0  0  0  0  0  0  0  0  0  0
   -0.0372   -2.5747    0.0472 H   0  0  0  0  0  0  0  0  0  0  0  0
  1  2  1  0
  2  3  2  0
  3  4  1  0
  4  5  1  0
  5  6  1  0
  6  7  1  0
  7  8  1  0
  8  9  2  0
  9  2  1  0
  9  5  1  0
  1 10  1  0
  1 11  1  0
  1 12  1  0
  3 13  1  0
  4 14  1  0
  4 15  1  0
  5 16  1  0
  6 17  1  0
  6 18  1  0
  7 19  1  0
  7 20  1  0
  8 21  1  0
M  END
