
     RDKit          3D

 21 22  0  0  0  0  0  0  0  0999 V2000
    2.6505    0.4814    0.7473 C   0  0  0  0  0  0  0  0  0  0  0  0
    1.3183    0.0078    0.2497 C   0  0  0  0  0  0  0  0  0  0  0  0
    0.2169    0.7211    0.3929 C   0  0  0  0  0  0  0  0  0  0  0  0
   -1.0762    0.2203   -0.1105 C   0  0  0  0  0  0  0  0  0  0  0  0
   -2.2249   -0.0484    0.7707 C   0  0  0  0  0  0  0  0  0  0  0  0
   -2.2267    1.1470   -0.1182 C   0  0  0  0  0  0  0  0  0  0  0  0
   -0.8107   -0.7282   -1.2364 C   0  0  0  0  0  0  0  0  0  0  0  0
   -0.0132   -1.7662   -0.7009 O   0  0  0  0  0  0  0  0  0  0  0  0
    1.2617   -1.3043   -0.4211 C   0  0  0  0  0  0  0  0  0  0  0  0
    3.3972    0.2889   -0.0503 H   0  0  0  0  0  0  0  0  0  0  0  0
    2.8673   -0.0608    1.6896 H   0  0  0  0  0  0  0  0  0  0  0  0
    2.6563    1.5707    0.9235 H   0  0  0  0  0  0  0  0  0  0  0  0
    0.3081    1.6895    0.8966 H   0  0  0  0  0  0  0  0  0  0  0  0
   -2.8968   -0.8796    0.4562 H   0  0  0  0  0  0  0  0  0  0  0  0
   -2.1563    0.0697    1.8733 H   0  0  0  0  0  0  0  0  0  0  0  0
   -2.8694    1.1769   -1.0291 H   0  0  0  0  0  0  0  0  0  0  0  0
   -2.1461    2.1126    0.3944 H   0  0  0  0  0  0  0  0  0  0  0  0
   -0.1606   -0.2463   -2.0125 H   0  0  0  0  0  0  0  0  0  0  0  0
   -1.7202   -1.1685   -1.6373 H   0  0  0  0  0  0  0  0  0  0  0  0
    1.7458   -2.0371    0.2858 H   0  0  0  0  0  0  0  0  0  0  0  0
    1.8791   -1.2466   -1.3636 H   0  0  0  0  0  0  0  0  0  0  0  0
  1  2  1  0
  2  3  2  0
  3  4  1  0
  4  5  1  0
  5  6  1  0
  4  7  1  0
  7  8  1  0
  8  9  1  0
  9  2  1  0
  6  4  1  0
  1 10  1  0
  1 11  1  0
  1 12  1  0
  3 13  1  0
  5 14  1  0
  5 15  1  0
  6 16  1  0
  6 17  1  0
  7 18  1  0
  7 19  1  0
  9 20  1  0
  9 21  1  0
M  END
