
     RDKit          3D

 21 22  0  0  0  0  0  0  0  0999 V2000
    2.6207    0.5697    0.1874 C   0  0  0  0  0  0  0  0  0  0  0  0
    1.2643    0.0364    0.3674 C   0  0  0  0  0  0  0  0  0  0  0  0
    0.7181   -0.6608    1.3910 C   0  0  0  0  0  0  0  0  0  0  0  0
   -0.6896   -0.8583    0.9216 C   0  0  0  0  0  0  0  0  0  0  0  0
   -0.4316   -1.2602   -0.5249 C   0  0  0  0  0  0  0  0  0  0  0  0
    0.1273    0.1490   -0.5845 C   0  0  0  0  0  0  0  0  0  0  0  0
    0.2442    0.7822   -1.7271 O   0  0  0  0  0  0  0  0  0  0  0  0
   -0.9999    0.5156    0.3828 C   0  0  0  0  0  0  0  0  0  0  0  0
   -2.3309    0.7108   -0.2345 C   0  0  0  0  0  0  0  0  0  0  0  0
    3.3312    0.0854    0.8960 H   0  0  0  0  0  0  0  0  0  0  0  0
    2.6141    1.6597    0.2404 H   0  0  0  0  0  0  0  0  0  0  0  0
    2.9761    0.2831   -0.8358 H   0  0  0  0  0  0  0  0  0  0  0  0
    1.1846   -0.9888    2.3109 H   0  0  0  0  0  0  0  0  0  0  0  0
   -1.3760   -1.3880    1.5006 H   0  0  0  0  0  0  0  0  0  0  0  0
   -1.3059   -1.4655   -1.1298 H   0  0  0  0  0  0  0  0  0  0  0  0
    0.3329   -2.0661   -0.5227 H   0  0  0  0  0  0  0  0  0  0  0  0
    0.5009    0.1800   -2.4643 H   0  0  0  0  0  0  0  0  0  0  0  0
   -0.7370    1.3423    1.0689 H   0  0  0  0  0  0  0  0  0  0  0  0
   -2.8232   -0.2053   -0.6032 H   0  0  0  0  0  0  0  0  0  0  0  0
   -3.0024    1.1888    0.4804 H   0  0  0  0  0  0  0  0  0  0  0  0
   -2.2180    1.3900   -1.1205 H   0  0  0  0  0  0  0  0  0  0  0  0
  1  2  1  0
  2  3  2  0
  3  4  1  0
  4  5  1  0
  5  6  1  0
  6  7  1  0
  6  8  1  0
  8  9  1  0
  6  2  1  0
  8  4  1  0
  1 10  1  0
  1 11  1  0
  1 12  1  0
  3 13  1  0
  4 14  1  0
  5 15  1  0
  5 16  1  0
  7 17  1  0
  8 18  1  0
  9 19  1  0
  9 20  1  0
  9 21  1  0
M  END
