
     RDKit          3D

 19 19  0  0  0  0  0  0  0  0999 V2000
    2.5695   -0.4747    0.3253 C   0  0  0  0  0  0  0  0  0  0  0  0
    1.1250   -0.2083    0.0021 C   0  0  0  0  0  0  0  0  0  0  0  0
    0.2861   -1.2181    0.0197 C   0  0  0  0  0  0  0  0  0  0  0  0
   -1.1397   -1.2200   -0.2528 C   0  0  0  0  0  0  0  0  0  0  0  0
   -1.9628   -0.1345    0.3054 C   0  0  0  0  0  0  0  0  0  0  0  0
   -1.6495    1.2298   -0.0775 C   0  0  0  0  0  0  0  0  0  0  0  0
   -0.5146    1.8607   -0.3540 C   0  0  0  0  0  0  0  0  0  0  0  0
    0.7803    1.1728   -0.3065 C   0  0  0  0  0  0  0  0  0  0  0  0
    1.7467    1.9362   -0.5864 O   0  0  0  0  0  0  0  0  0  0  0  0
    3.0626    0.4396    0.6985 H   0  0  0  0  0  0  0  0  0  0  0  0
    2.6406   -1.2749    1.0955 H   0  0  0  0  0  0  0  0  0  0  0  0
    3.1338   -0.7856   -0.5787 H   0  0  0  0  0  0  0  0  0  0  0  0
    0.7625   -2.1779    0.2802 H   0  0  0  0  0  0  0  0  0  0  0  0
   -1.5635   -2.1907    0.0811 H   0  0  0  0  0  0  0  0  0  0  0  0
   -1.2871   -1.2319   -1.3740 H   0  0  0  0  0  0  0  0  0  0  0  0
   -3.0290   -0.3275    0.0665 H   0  0  0  0  0  0  0  0  0  0  0  0
   -1.9143   -0.1864    1.4349 H   0  0  0  0  0  0  0  0  0  0  0  0
   -2.5064    1.8831   -0.1578 H   0  0  0  0  0  0  0  0  0  0  0  0
   -0.5404    2.9083   -0.6214 H   0  0  0  0  0  0  0  0  0  0  0  0
  1  2  1  0
  2  3  2  0
  3  4  1  0
  4  5  1  0
  5  6  1  0
  6  7  2  0
  7  8  1  0
  8  9  2  0
  8  2  1  0
  1 10  1  0
  1 11  1  0
  1 12  1  0
  3 13  1  0
  4 14  1  0
  4 15  1  0
  5 16  1  0
  5 17  1  0
  6 18  1  0
  7 19  1  0
M  END
