
     RDKit          3D

 20 20  0  0  0  0  0  0  0  0999 V2000
   -0.3227    2.0664    0.0596 C   0  0  0  0  0  0  0  0  0  0  0  0
    0.1373    0.6913   -0.1030 C   0  0  0  0  0  0  0  0  0  0  0  0
   -0.6464   -0.3800   -0.0825 C   0  0  0  0  0  0  0  0  0  0  0  0
   -2.0951   -0.1682    0.1199 C   0  0  0  0  0  0  0  0  0  0  0  0
   -0.1555   -1.7643   -0.2498 C   0  0  0  0  0  0  0  0  0  0  0  0
    1.1987   -1.8424   -0.4897 O   0  0  0  0  0  0  0  0  0  0  0  0
    1.8591   -0.9278    0.2997 C   0  0  0  0  0  0  0  0  0  0  0  0
    1.5943    0.4531   -0.3085 C   0  0  0  0  0  0  0  0  0  0  0  0
    0.2532    2.5949    0.8694 H   0  0  0  0  0  0  0  0  0  0  0  0
   -1.3766    2.2117    0.2467 H   0  0  0  0  0  0  0  0  0  0  0  0
   -0.0543    2.6404   -0.8751 H   0  0  0  0  0  0  0  0  0  0  0  0
   -2.6166   -1.1375    0.3741 H   0  0  0  0  0  0  0  0  0  0  0  0
   -2.5227    0.1328   -0.8670 H   0  0  0  0  0  0  0  0  0  0  0  0
   -2.3412    0.5082    0.9338 H   0  0  0  0  0  0  0  0  0  0  0  0
   -0.7395   -2.2580   -1.0693 H   0  0  0  0  0  0  0  0  0  0  0  0
   -0.3958   -2.3226    0.6785 H   0  0  0  0  0  0  0  0  0  0  0  0
    1.3375   -0.9223    1.2944 H   0  0  0  0  0  0  0  0  0  0  0  0
    2.9142   -1.1218    0.4641 H   0  0  0  0  0  0  0  0  0  0  0  0
    2.2320    1.2270    0.1161 H   0  0  0  0  0  0  0  0  0  0  0  0
    1.7400    0.3193   -1.4114 H   0  0  0  0  0  0  0  0  0  0  0  0
  1  2  1  0
  2  3  2  0
  3  4  1  0
  3  5  1  0
  5  6  1  0
  6  7  1  0
  7  8  1  0
  8  2  1  0
  1  9  1  0
  1 10  1  0
  1 11  1  0
  4 12  1  0
  4 13  1  0
  4 14  1  0
  5 15  1  0
  5 16  1  0
  7 17  1  0
  7 18  1  0
  8 19  1  0
  8 20  1  0
M  END
