
     RDKit          3D

 15 15  0  0  0  0  0  0  0  0999 V2000
    2.1589    0.1093    0.0797 C   0  0  0  0  0  0  0  0  0  0  0  0
    0.6669    0.0326   -0.0572 C   0  0  0  0  0  0  0  0  0  0  0  0
   -0.0026   -1.0987   -0.2002 C   0  0  0  0  0  0  0  0  0  0  0  0
   -1.4359   -0.7756   -0.3045 C   0  0  0  0  0  0  0  0  0  0  0  0
   -1.5438    0.5631    0.3736 C   0  0  0  0  0  0  0  0  0  0  0  0
   -0.2509    1.1614   -0.0372 C   0  0  0  0  0  0  0  0  0  0  0  0
    0.0163    2.3290   -0.3046 O   0  0  0  0  0  0  0  0  0  0  0  0
    2.6457   -0.3869   -0.8034 H   0  0  0  0  0  0  0  0  0  0  0  0
    2.4957   -0.4601    0.9830 H   0  0  0  0  0  0  0  0  0  0  0  0
    2.4702    1.1465    0.2209 H   0  0  0  0  0  0  0  0  0  0  0  0
    0.4689   -2.0841   -0.2305 H   0  0  0  0  0  0  0  0  0  0  0  0
   -2.0910   -1.5411    0.1540 H   0  0  0  0  0  0  0  0  0  0  0  0
   -1.6523   -0.6219   -1.3810 H   0  0  0  0  0  0  0  0  0  0  0  0
   -2.4184    1.1466    0.0317 H   0  0  0  0  0  0  0  0  0  0  0  0
   -1.5278    0.4799    1.4757 H   0  0  0  0  0  0  0  0  0  0  0  0
  1  2  1  0
  2  3  2  0
  3  4  1  0
  4  5  1  0
  5  6  1  0
  6  7  2  0
  6  2  1  0
  1  8  1  0
  1  9  1  0
  1 10  1  0
  3 11  1  0
  4 12  1  0
  4 13  1  0
  5 14  1  0
  5 15  1  0
M  END
