
     RDKit          3D

 21 22  0  0  0  0  0  0  0  0999 V2000
    3.0149    0.4176   -0.4476 C   0  0  0  0  0  0  0  0  0  0  0  0
    1.5999    0.1014   -0.1212 C   0  0  0  0  0  0  0  0  0  0  0  0
    0.9095   -0.9225   -0.5854 C   0  0  0  0  0  0  0  0  0  0  0  0
   -0.4714   -0.9125   -0.0384 C   0  0  0  0  0  0  0  0  0  0  0  0
   -0.9848   -2.1390    0.3609 O   0  0  0  0  0  0  0  0  0  0  0  0
   -1.3496    0.1738   -0.4891 C   0  0  0  0  0  0  0  0  0  0  0  0
   -2.8510    0.0929   -0.3221 C   0  0  0  0  0  0  0  0  0  0  0  0
   -0.6019    0.2895    0.8205 C   0  0  0  0  0  0  0  0  0  0  0  0
    0.7613    0.9238    0.7963 C   0  0  0  0  0  0  0  0  0  0  0  0
    3.4154   -0.2799   -1.2157 H   0  0  0  0  0  0  0  0  0  0  0  0
    3.6293    0.3313    0.4915 H   0  0  0  0  0  0  0  0  0  0  0  0
    3.0673    1.4539   -0.7825 H   0  0  0  0  0  0  0  0  0  0  0  0
    1.2797   -1.6705   -1.2665 H   0  0  0  0  0  0  0  0  0  0  0  0
   -1.4686   -2.0511    1.2271 H   0  0  0  0  0  0  0  0  0  0  0  0
   -1.0289    0.8868   -1.2878 H   0  0  0  0  0  0  0  0  0  0  0  0
   -3.3232   -0.5652   -1.0707 H   0  0  0  0  0  0  0  0  0  0  0  0
   -3.1060   -0.2743    0.6912 H   0  0  0  0  0  0  0  0  0  0  0  0
   -3.2434    1.1255   -0.4266 H   0  0  0  0  0  0  0  0  0  0  0  0
   -1.1421    0.1752    1.7717 H   0  0  0  0  0  0  0  0  0  0  0  0
    1.1893    0.8566    1.8168 H   0  0  0  0  0  0  0  0  0  0  0  0
    0.7045    1.9867    0.4549 H   0  0  0  0  0  0  0  0  0  0  0  0
  1  2  1  0
  2  3  2  0
  3  4  1  0
  4  5  1  0
  4  6  1  0
  6  7  1  0
  6  8  1  0
  8  9  1  0
  9  2  1  0
  8  4  1  0
  1 10  1  0
  1 11  1  0
  1 12  1  0
  3 13  1  0
  5 14  1  0
  6 15  1  0
  7 16  1  0
  7 17  1  0
  7 18  1  0
  8 19  1  0
  9 20  1  0
  9 21  1  0
M  END
