
     RDKit          3D

 21 22  0  0  0  0  0  0  0  0999 V2000
   -1.6625    1.5765   -0.3771 C   0  0  0  0  0  0  0  0  0  0  0  0
   -0.5386    0.6627   -0.0550 C   0  0  0  0  0  0  0  0  0  0  0  0
   -0.4880   -0.6685    0.0184 C   0  0  0  0  0  0  0  0  0  0  0  0
   -1.5612   -1.6658   -0.2396 C   0  0  0  0  0  0  0  0  0  0  0  0
    0.9247   -0.9232    0.4275 C   0  0  0  0  0  0  0  0  0  0  0  0
    1.0800    0.1620    1.5077 C   0  0  0  0  0  0  0  0  0  0  0  0
    0.8574    1.0579    0.2753 C   0  0  0  0  0  0  0  0  0  0  0  0
    1.7154    0.0302   -0.4294 C   0  0  0  0  0  0  0  0  0  0  0  0
    1.5486   -0.0643   -1.7808 O   0  0  0  0  0  0  0  0  0  0  0  0
   -2.4975    1.4876    0.3759 H   0  0  0  0  0  0  0  0  0  0  0  0
   -2.1358    1.3583   -1.3540 H   0  0  0  0  0  0  0  0  0  0  0  0
   -1.3183    2.6109   -0.3219 H   0  0  0  0  0  0  0  0  0  0  0  0
   -2.5155   -1.1382   -0.4134 H   0  0  0  0  0  0  0  0  0  0  0  0
   -1.3652   -2.2782   -1.1373 H   0  0  0  0  0  0  0  0  0  0  0  0
   -1.7224   -2.3440    0.6434 H   0  0  0  0  0  0  0  0  0  0  0  0
    1.2617   -1.8889    0.6324 H   0  0  0  0  0  0  0  0  0  0  0  0
    2.0635    0.2321    1.9524 H   0  0  0  0  0  0  0  0  0  0  0  0
    0.1963    0.2520    2.1521 H   0  0  0  0  0  0  0  0  0  0  0  0
    1.1451    2.0623    0.3262 H   0  0  0  0  0  0  0  0  0  0  0  0
    2.7545    0.1068   -0.0505 H   0  0  0  0  0  0  0  0  0  0  0  0
    2.2578   -0.6282   -2.1524 H   0  0  0  0  0  0  0  0  0  0  0  0
  1  2  1  0
  2  3  2  0
  3  4  1  0
  3  5  1  0
  5  6  1  0
  6  7  1  0
  7  8  1  0
  8  9  1  0
  7  2  1  0
  8  5  1  0
  1 10  1  0
  1 11  1  0
  1 12  1  0
  4 13  1  0
  4 14  1  0
  4 15  1  0
  5 16  1  0
  6 17  1  0
  6 18  1  0
  7 19  1  0
  8 20  1  0
  9 21  1  0
M  END
