
     RDKit          3D

 21 21  0  0  0  0  0  0  0  0999 V2000
    2.5925   -0.5417   -0.5683 C   0  0  0  0  0  0  0  0  0  0  0  0
    1.1490   -0.1413   -0.3357 C   0  0  0  0  0  0  0  0  0  0  0  0
    0.2712   -1.1181   -0.4213 C   0  0  0  0  0  0  0  0  0  0  0  0
   -1.1788   -1.0014   -0.2408 C   0  0  0  0  0  0  0  0  0  0  0  0
   -1.6974   -2.2455    0.1582 O   0  0  0  0  0  0  0  0  0  0  0  0
   -1.5991    0.0060    0.7757 C   0  0  0  0  0  0  0  0  0  0  0  0
   -1.4578    1.4242    0.4039 C   0  0  0  0  0  0  0  0  0  0  0  0
   -0.0983    1.9357    0.2551 C   0  0  0  0  0  0  0  0  0  0  0  0
    0.9935    1.2735   -0.0559 C   0  0  0  0  0  0  0  0  0  0  0  0
    3.1227   -0.1908    0.3597 H   0  0  0  0  0  0  0  0  0  0  0  0
    3.0219   -0.0150   -1.4203 H   0  0  0  0  0  0  0  0  0  0  0  0
    2.6684   -1.6350   -0.5982 H   0  0  0  0  0  0  0  0  0  0  0  0
    0.6856   -2.1190   -0.6531 H   0  0  0  0  0  0  0  0  0  0  0  0
   -1.6822   -0.7646   -1.2108 H   0  0  0  0  0  0  0  0  0  0  0  0
   -1.0663   -2.9870   -0.0236 H   0  0  0  0  0  0  0  0  0  0  0  0
   -2.6627   -0.1945    1.0215 H   0  0  0  0  0  0  0  0  0  0  0  0
   -1.0294   -0.1948    1.7117 H   0  0  0  0  0  0  0  0  0  0  0  0
   -1.9785    1.5867   -0.5861 H   0  0  0  0  0  0  0  0  0  0  0  0
   -2.0460    2.0408    1.1239 H   0  0  0  0  0  0  0  0  0  0  0  0
    0.0574    3.0110    0.4199 H   0  0  0  0  0  0  0  0  0  0  0  0
    1.9342    1.8708   -0.1155 H   0  0  0  0  0  0  0  0  0  0  0  0
  1  2  1  0
  2  3  2  0
  3  4  1  0
  4  5  1  0
  4  6  1  0
  6  7  1  0
  7  8  1  0
  8  9  2  0
  9  2  1  0
  1 10  1  0
  1 11  1  0
  1 12  1  0
  3 13  1  0
  4 14  1  0
  5 15  1  0
  6 16  1  0
  6 17  1  0
  7 18  1  0
  7 19  1  0
  8 20  1  0
  9 21  1  0
M  END
