
     RDKit          3D

 23 23  0  0  0  0  0  0  0  0999 V2000
   -1.0288    2.3586   -0.0031 C   0  0  0  0  0  0  0  0  0  0  0  0
   -0.3346    1.0233    0.1312 C   0  0  0  0  0  0  0  0  0  0  0  0
    0.8867    1.0614    0.6458 C   0  0  0  0  0  0  0  0  0  0  0  0
    1.7968   -0.0494    0.8964 C   0  0  0  0  0  0  0  0  0  0  0  0
    1.9455   -0.9995   -0.2227 C   0  0  0  0  0  0  0  0  0  0  0  0
    1.0225   -1.3304   -1.0931 C   0  0  0  0  0  0  0  0  0  0  0  0
   -0.3676   -0.9791   -1.3376 C   0  0  0  0  0  0  0  0  0  0  0  0
   -1.0567   -0.1840   -0.3113 C   0  0  0  0  0  0  0  0  0  0  0  0
   -1.4139   -1.0818    0.8686 C   0  0  0  0  0  0  0  0  0  0  0  0
   -0.2610    3.1477    0.0097 H   0  0  0  0  0  0  0  0  0  0  0  0
   -1.5153    2.3636   -1.0127 H   0  0  0  0  0  0  0  0  0  0  0  0
   -1.7347    2.5247    0.8183 H   0  0  0  0  0  0  0  0  0  0  0  0
    1.2217    2.0813    0.9045 H   0  0  0  0  0  0  0  0  0  0  0  0
    2.8212    0.3847    1.0793 H   0  0  0  0  0  0  0  0  0  0  0  0
    1.5656   -0.6111    1.8414 H   0  0  0  0  0  0  0  0  0  0  0  0
    2.9292   -1.4879   -0.3506 H   0  0  0  0  0  0  0  0  0  0  0  0
    1.4008   -2.0653   -1.8287 H   0  0  0  0  0  0  0  0  0  0  0  0
   -0.9417   -1.9203   -1.5050 H   0  0  0  0  0  0  0  0  0  0  0  0
   -0.4364   -0.4299   -2.3175 H   0  0  0  0  0  0  0  0  0  0  0  0
   -2.0344    0.1647   -0.7356 H   0  0  0  0  0  0  0  0  0  0  0  0
   -2.5017   -1.1895    1.0036 H   0  0  0  0  0  0  0  0  0  0  0  0
   -1.0035   -2.1073    0.7281 H   0  0  0  0  0  0  0  0  0  0  0  0
   -0.9594   -0.6745    1.7910 H   0  0  0  0  0  0  0  0  0  0  0  0
  1  2  1  0
  2  3  2  0
  3  4  1  0
  4  5  1  0
  5  6  2  0
  6  7  1  0
  7  8  1  0
  8  9  1  0
  8  2  1  0
  1 10  1  0
  1 11  1  0
  1 12  1  0
  3 13  1  0
  4 14  1  0
  4 15  1  0
  5 16  1  0
  6 17  1  0
  7 18  1  0
  7 19  1  0
  8 20  1  0
  9 21  1  0
  9 22  1  0
  9 23  1  0
M  END
