
     RDKit          3D

 21 22  0  0  0  0  0  0  0  0999 V2000
    2.3238   -1.0980   -0.0226 C   0  0  0  0  0  0  0  0  0  0  0  0
    1.0141   -0.4031    0.1306 C   0  0  0  0  0  0  0  0  0  0  0  0
    0.0105   -1.0509    0.6854 C   0  0  0  0  0  0  0  0  0  0  0  0
   -1.3256   -0.4668    0.8890 C   0  0  0  0  0  0  0  0  0  0  0  0
   -2.3705   -0.5707   -0.1598 C   0  0  0  0  0  0  0  0  0  0  0  0
   -1.5813    0.6931    0.0021 C   0  0  0  0  0  0  0  0  0  0  0  0
   -0.5320    1.0118   -1.0134 C   0  0  0  0  0  0  0  0  0  0  0  0
    0.8586    0.9920   -0.3485 C   0  0  0  0  0  0  0  0  0  0  0  0
    0.8351    1.9252    0.6567 O   0  0  0  0  0  0  0  0  0  0  0  0
    2.4258   -1.9359    0.7082 H   0  0  0  0  0  0  0  0  0  0  0  0
    3.1523   -0.4021    0.1919 H   0  0  0  0  0  0  0  0  0  0  0  0
    2.3514   -1.5196   -1.0391 H   0  0  0  0  0  0  0  0  0  0  0  0
    0.1631   -2.1134    1.0304 H   0  0  0  0  0  0  0  0  0  0  0  0
   -1.7006   -0.4154    1.9528 H   0  0  0  0  0  0  0  0  0  0  0  0
   -2.1967   -1.1694   -1.0681 H   0  0  0  0  0  0  0  0  0  0  0  0
   -3.4195   -0.5420    0.1871 H   0  0  0  0  0  0  0  0  0  0  0  0
   -2.0574    1.5767    0.4906 H   0  0  0  0  0  0  0  0  0  0  0  0
   -0.4819    0.2115   -1.7936 H   0  0  0  0  0  0  0  0  0  0  0  0
   -0.7270    2.0045   -1.4263 H   0  0  0  0  0  0  0  0  0  0  0  0
    1.5703    1.2125   -1.1635 H   0  0  0  0  0  0  0  0  0  0  0  0
    1.6875    2.0600    1.1102 H   0  0  0  0  0  0  0  0  0  0  0  0
  1  2  1  0
  2  3  2  0
  3  4  1  0
  4  5  1  0
  5  6  1  0
  6  7  1  0
  7  8  1  0
  8  9  1  0
  8  2  1  0
  6  4  1  0
  1 10  1  0
  1 11  1  0
  1 12  1  0
  3 13  1  0
  4 14  1  0
  5 15  1  0
  5 16  1  0
  6 17  1  0
  7 18  1  0
  7 19  1  0
  8 20  1  0
  9 21  1  0
M  END
