
     RDKit          3D

 23 24  0  0  0  0  0  0  0  0999 V2000
    2.8119    0.0011   -0.1873 C   0  0  0  0  0  0  0  0  0  0  0  0
    1.3166   -0.0561   -0.0938 C   0  0  0  0  0  0  0  0  0  0  0  0
    0.5258    0.9840    0.0290 C   0  0  0  0  0  0  0  0  0  0  0  0
   -0.1390    2.2994    0.1621 C   0  0  0  0  0  0  0  0  0  0  0  0
   -1.2722    1.6498   -0.6625 C   0  0  0  0  0  0  0  0  0  0  0  0
   -0.8898    0.4308    0.1029 C   0  0  0  0  0  0  0  0  0  0  0  0
   -0.8180   -0.8839   -0.6187 C   0  0  0  0  0  0  0  0  0  0  0  0
   -1.7798   -1.8813   -0.0048 C   0  0  0  0  0  0  0  0  0  0  0  0
    0.5765   -1.3395   -0.1443 C   0  0  0  0  0  0  0  0  0  0  0  0
    3.1278   -0.4553   -1.1557 H   0  0  0  0  0  0  0  0  0  0  0  0
    3.2149   -0.5934    0.6692 H   0  0  0  0  0  0  0  0  0  0  0  0
    3.1649    1.0429   -0.1650 H   0  0  0  0  0  0  0  0  0  0  0  0
    0.3293    3.1523   -0.3157 H   0  0  0  0  0  0  0  0  0  0  0  0
   -0.4392    2.4788    1.2156 H   0  0  0  0  0  0  0  0  0  0  0  0
   -0.9607    1.6765   -1.7223 H   0  0  0  0  0  0  0  0  0  0  0  0
   -2.2269    2.1320   -0.4100 H   0  0  0  0  0  0  0  0  0  0  0  0
   -1.3016    0.4071    1.1072 H   0  0  0  0  0  0  0  0  0  0  0  0
   -0.8801   -0.8187   -1.7016 H   0  0  0  0  0  0  0  0  0  0  0  0
   -2.8267   -1.6176   -0.1672 H   0  0  0  0  0  0  0  0  0  0  0  0
   -1.5140   -1.9176    1.0910 H   0  0  0  0  0  0  0  0  0  0  0  0
   -1.5080   -2.8776   -0.3982 H   0  0  0  0  0  0  0  0  0  0  0  0
    0.4786   -1.7465    0.8947 H   0  0  0  0  0  0  0  0  0  0  0  0
    1.0097   -2.0673   -0.8493 H   0  0  0  0  0  0  0  0  0  0  0  0
  1  2  1  0
  2  3  2  0
  3  4  1  0
  4  5  1  0
  5  6  1  0
  6  7  1  0
  7  8  1  0
  7  9  1  0
  9  2  1  0
  6  3  1  0
  1 10  1  0
  1 11  1  0
  1 12  1  0
  4 13  1  0
  4 14  1  0
  5 15  1  0
  5 16  1  0
  6 17  1  0
  7 18  1  0
  8 19  1  0
  8 20  1  0
  8 21  1  0
  9 22  1  0
  9 23  1  0
M  END
