
     RDKit          3D

 21 22  0  0  0  0  0  0  0  0999 V2000
    2.4077    0.6569   -0.7817 C   0  0  0  0  0  0  0  0  0  0  0  0
    0.9978    0.4113   -0.3778 C   0  0  0  0  0  0  0  0  0  0  0  0
   -0.0697    0.7529   -1.0906 C   0  0  0  0  0  0  0  0  0  0  0  0
   -1.3704    0.3582   -0.4680 C   0  0  0  0  0  0  0  0  0  0  0  0
   -1.3635   -1.1459   -0.2637 C   0  0  0  0  0  0  0  0  0  0  0  0
   -0.1863   -1.4946    0.5929 C   0  0  0  0  0  0  0  0  0  0  0  0
    0.6637   -0.2654    0.9121 C   0  0  0  0  0  0  0  0  0  0  0  0
   -0.1737    0.6015    1.6116 O   0  0  0  0  0  0  0  0  0  0  0  0
   -1.3028    0.9631    0.9323 C   0  0  0  0  0  0  0  0  0  0  0  0
    2.4970    1.5191   -1.4739 H   0  0  0  0  0  0  0  0  0  0  0  0
    2.8977   -0.2376   -1.2087 H   0  0  0  0  0  0  0  0  0  0  0  0
    3.0330    0.9403    0.1126 H   0  0  0  0  0  0  0  0  0  0  0  0
   -0.0780    1.2633   -2.0298 H   0  0  0  0  0  0  0  0  0  0  0  0
   -2.2353    0.7270   -1.0069 H   0  0  0  0  0  0  0  0  0  0  0  0
   -2.3103   -1.4526    0.2225 H   0  0  0  0  0  0  0  0  0  0  0  0
   -1.3269   -1.6429   -1.2719 H   0  0  0  0  0  0  0  0  0  0  0  0
    0.4056   -2.3190    0.1815 H   0  0  0  0  0  0  0  0  0  0  0  0
   -0.5555   -1.8520    1.5968 H   0  0  0  0  0  0  0  0  0  0  0  0
    1.5271   -0.5450    1.5014 H   0  0  0  0  0  0  0  0  0  0  0  0
   -1.2652    2.0689    0.7753 H   0  0  0  0  0  0  0  0  0  0  0  0
   -2.1919    0.6925    1.5340 H   0  0  0  0  0  0  0  0  0  0  0  0
  1  2  1  0
  2  3  2  0
  3  4  1  0
  4  5  1  0
  5  6  1  0
  6  7  1  0
  7  8  1  0
  8  9  1  0
  7  2  1  0
  9  4  1  0
  1 10  1  0
  1 11  1  0
  1 12  1  0
  3 13  1  0
  4 14  1  0
  5 15  1  0
  5 16  1  0
  6 17  1  0
  6 18  1  0
  7 19  1  0
  9 20  1  0
  9 21  1  0
M  END
