
     RDKit          3D

 25 25  0  0  0  0  0  0  0  0999 V2000
   -0.8071    2.3239   -0.4757 C   0  0  0  0  0  0  0  0  0  0  0  0
   -0.1090    1.0952   -0.0259 C   0  0  0  0  0  0  0  0  0  0  0  0
    1.1734    1.0514    0.3106 C   0  0  0  0  0  0  0  0  0  0  0  0
    1.5780   -0.3220    0.7177 C   0  0  0  0  0  0  0  0  0  0  0  0
    2.4072   -0.9961   -0.3549 C   0  0  0  0  0  0  0  0  0  0  0  0
    0.2775   -0.9963    0.9792 C   0  0  0  0  0  0  0  0  0  0  0  0
   -0.7123   -0.2801    0.1247 C   0  0  0  0  0  0  0  0  0  0  0  0
   -0.9196   -0.9236   -1.2286 C   0  0  0  0  0  0  0  0  0  0  0  0
   -2.0651   -0.2037    0.7950 C   0  0  0  0  0  0  0  0  0  0  0  0
   -0.8225    3.0854    0.3224 H   0  0  0  0  0  0  0  0  0  0  0  0
   -1.8244    2.0921   -0.8763 H   0  0  0  0  0  0  0  0  0  0  0  0
   -0.2684    2.8072   -1.3394 H   0  0  0  0  0  0  0  0  0  0  0  0
    1.8398    1.9054    0.2915 H   0  0  0  0  0  0  0  0  0  0  0  0
    2.2053   -0.3083    1.6347 H   0  0  0  0  0  0  0  0  0  0  0  0
    2.1380   -2.0630   -0.4767 H   0  0  0  0  0  0  0  0  0  0  0  0
    2.3034   -0.4239   -1.3156 H   0  0  0  0  0  0  0  0  0  0  0  0
    3.4935   -0.9763   -0.0912 H   0  0  0  0  0  0  0  0  0  0  0  0
    0.0242   -0.8601    2.0615 H   0  0  0  0  0  0  0  0  0  0  0  0
    0.2990   -2.0918    0.8173 H   0  0  0  0  0  0  0  0  0  0  0  0
    0.0205   -1.2515   -1.7012 H   0  0  0  0  0  0  0  0  0  0  0  0
   -1.6121   -1.7703   -1.1186 H   0  0  0  0  0  0  0  0  0  0  0  0
   -1.3753   -0.1723   -1.9076 H   0  0  0  0  0  0  0  0  0  0  0  0
   -1.9832   -0.1345    1.8995 H   0  0  0  0  0  0  0  0  0  0  0  0
   -2.6830    0.5873    0.3699 H   0  0  0  0  0  0  0  0  0  0  0  0
   -2.5778   -1.1742    0.5877 H   0  0  0  0  0  0  0  0  0  0  0  0
  1  2  1  0
  2  3  2  0
  3  4  1  0
  4  5  1  0
  4  6  1  0
  6  7  1  0
  7  8  1  0
  7  9  1  0
  7  2  1  0
  1 10  1  0
  1 11  1  0
  1 12  1  0
  3 13  1  0
  4 14  1  0
  5 15  1  0
  5 16  1  0
  5 17  1  0
  6 18  1  0
  6 19  1  0
  8 20  1  0
  8 21  1  0
  8 22  1  0
  9 23  1  0
  9 24  1  0
  9 25  1  0
M  END
