
     RDKit          3D

 25 25  0  0  0  0  0  0  0  0999 V2000
    2.9670    0.1164    0.3278 C   0  0  0  0  0  0  0  0  0  0  0  0
    1.4894    0.2093    0.2610 C   0  0  0  0  0  0  0  0  0  0  0  0
    0.9591    1.3543   -0.1515 C   0  0  0  0  0  0  0  0  0  0  0  0
   -0.4705    1.7052   -0.3073 C   0  0  0  0  0  0  0  0  0  0  0  0
   -1.2519    0.7285   -1.1191 C   0  0  0  0  0  0  0  0  0  0  0  0
   -1.4498   -0.6086   -0.4886 C   0  0  0  0  0  0  0  0  0  0  0  0
   -2.1644   -0.5504    0.8252 C   0  0  0  0  0  0  0  0  0  0  0  0
   -0.1985   -1.4420   -0.4175 C   0  0  0  0  0  0  0  0  0  0  0  0
    0.7499   -1.0011    0.6665 C   0  0  0  0  0  0  0  0  0  0  0  0
    3.3774    1.1539    0.1813 H   0  0  0  0  0  0  0  0  0  0  0  0
    3.2776   -0.1612    1.3718 H   0  0  0  0  0  0  0  0  0  0  0  0
    3.3411   -0.6043   -0.3997 H   0  0  0  0  0  0  0  0  0  0  0  0
    1.7157    2.0920   -0.3916 H   0  0  0  0  0  0  0  0  0  0  0  0
   -0.4849    2.6758   -0.8868 H   0  0  0  0  0  0  0  0  0  0  0  0
   -0.9316    1.9559    0.6642 H   0  0  0  0  0  0  0  0  0  0  0  0
   -0.8075    0.6330   -2.1132 H   0  0  0  0  0  0  0  0  0  0  0  0
   -2.2688    1.1722   -1.2730 H   0  0  0  0  0  0  0  0  0  0  0  0
   -2.1406   -1.1716   -1.1896 H   0  0  0  0  0  0  0  0  0  0  0  0
   -2.0785    0.4205    1.3519 H   0  0  0  0  0  0  0  0  0  0  0  0
   -1.7981   -1.3578    1.4985 H   0  0  0  0  0  0  0  0  0  0  0  0
   -3.2754   -0.7218    0.7129 H   0  0  0  0  0  0  0  0  0  0  0  0
    0.2973   -1.4801   -1.3876 H   0  0  0  0  0  0  0  0  0  0  0  0
   -0.5152   -2.4774   -0.1682 H   0  0  0  0  0  0  0  0  0  0  0  0
    1.4675   -1.8269    0.8241 H   0  0  0  0  0  0  0  0  0  0  0  0
    0.1937   -0.8138    1.6087 H   0  0  0  0  0  0  0  0  0  0  0  0
  1  2  1  0
  2  3  2  0
  3  4  1  0
  4  5  1  0
  5  6  1  0
  6  7  1  0
  6  8  1  0
  8  9  1  0
  9  2  1  0
  1 10  1  0
  1 11  1  0
  1 12  1  0
  3 13  1  0
  4 14  1  0
  4 15  1  0
  5 16  1  0
  5 17  1  0
  6 18  1  0
  7 19  1  0
  7 20  1  0
  7 21  1  0
  8 22  1  0
  8 23  1  0
  9 24  1  0
  9 25  1  0
M  END
