
     RDKit          3D

 23 23  0  0  0  0  0  0  0  0999 V2000
   -1.7482    1.8599   -0.0196 C   0  0  0  0  0  0  0  0  0  0  0  0
   -0.6592    0.8668   -0.1085 C   0  0  0  0  0  0  0  0  0  0  0  0
    0.5140    1.0785   -0.6712 C   0  0  0  0  0  0  0  0  0  0  0  0
    1.3389   -0.1197   -0.5772 C   0  0  0  0  0  0  0  0  0  0  0  0
    2.7726    0.2085   -0.1460 C   0  0  0  0  0  0  0  0  0  0  0  0
    0.7406   -0.9465    0.5153 C   0  0  0  0  0  0  0  0  0  0  0  0
   -0.7182   -0.5150    0.4286 C   0  0  0  0  0  0  0  0  0  0  0  0
   -1.5201   -1.4526   -0.4168 C   0  0  0  0  0  0  0  0  0  0  0  0
   -1.1798   -0.4298    1.7451 O   0  0  0  0  0  0  0  0  0  0  0  0
   -2.7201    1.4698   -0.3660 H   0  0  0  0  0  0  0  0  0  0  0  0
   -1.5317    2.7528   -0.6686 H   0  0  0  0  0  0  0  0  0  0  0  0
   -1.8478    2.2587    1.0093 H   0  0  0  0  0  0  0  0  0  0  0  0
    0.8595    2.0215   -1.1569 H   0  0  0  0  0  0  0  0  0  0  0  0
    1.3977   -0.6736   -1.5370 H   0  0  0  0  0  0  0  0  0  0  0  0
    3.3145   -0.7553   -0.0586 H   0  0  0  0  0  0  0  0  0  0  0  0
    2.6718    0.5896    0.9052 H   0  0  0  0  0  0  0  0  0  0  0  0
    3.2491    0.9334   -0.8122 H   0  0  0  0  0  0  0  0  0  0  0  0
    1.1797   -0.7083    1.4963 H   0  0  0  0  0  0  0  0  0  0  0  0
    0.8498   -2.0416    0.3583 H   0  0  0  0  0  0  0  0  0  0  0  0
   -2.0424   -0.9433   -1.2606 H   0  0  0  0  0  0  0  0  0  0  0  0
   -2.3058   -1.9127    0.2513 H   0  0  0  0  0  0  0  0  0  0  0  0
   -0.9178   -2.2935   -0.8274 H   0  0  0  0  0  0  0  0  0  0  0  0
   -1.6972   -1.2475    1.9174 H   0  0  0  0  0  0  0  0  0  0  0  0
  1  2  1  0
  2  3  2  0
  3  4  1  0
  4  5  1  0
  4  6  1  0
  6  7  1  0
  7  8  1  0
  7  9  1  0
  7  2  1  0
  1 10  1  0
  1 11  1  0
  1 12  1  0
  3 13  1  0
  4 14  1  0
  5 15  1  0
  5 16  1  0
  5 17  1  0
  6 18  1  0
  6 19  1  0
  8 20  1  0
  8 21  1  0
  8 22  1  0
  9 23  1  0
M  END
