
     RDKit          3D

 21 23  0  0  0  0  0  0  0  0999 V2000
    2.7194   -0.6084    0.6713 C   0  0  0  0  0  0  0  0  0  0  0  0
    1.2949   -0.2317    0.3811 C   0  0  0  0  0  0  0  0  0  0  0  0
    0.3186   -1.0843    0.0955 C   0  0  0  0  0  0  0  0  0  0  0  0
   -0.9216   -0.3042   -0.1241 C   0  0  0  0  0  0  0  0  0  0  0  0
   -2.2137   -0.9851    0.0653 C   0  0  0  0  0  0  0  0  0  0  0  0
   -0.8370    0.4989   -1.4346 C   0  0  0  0  0  0  0  0  0  0  0  0
   -0.1431    1.5743   -0.6437 C   0  0  0  0  0  0  0  0  0  0  0  0
    0.7976    1.1648    0.3970 C   0  0  0  0  0  0  0  0  0  0  0  0
   -0.6549    0.9555    0.5905 C   0  0  0  0  0  0  0  0  0  0  0  0
    3.1288   -0.0144    1.5232 H   0  0  0  0  0  0  0  0  0  0  0  0
    3.3747   -0.3497   -0.2010 H   0  0  0  0  0  0  0  0  0  0  0  0
    2.7982   -1.6654    0.9099 H   0  0  0  0  0  0  0  0  0  0  0  0
    0.4808   -2.1561    0.0498 H   0  0  0  0  0  0  0  0  0  0  0  0
   -2.9647   -0.5025   -0.6266 H   0  0  0  0  0  0  0  0  0  0  0  0
   -2.6599   -0.9041    1.0734 H   0  0  0  0  0  0  0  0  0  0  0  0
   -2.1365   -2.0398   -0.2924 H   0  0  0  0  0  0  0  0  0  0  0  0
   -0.2019   -0.0739   -2.1415 H   0  0  0  0  0  0  0  0  0  0  0  0
   -1.8314    0.7761   -1.8353 H   0  0  0  0  0  0  0  0  0  0  0  0
   -0.3387    2.6402   -0.8919 H   0  0  0  0  0  0  0  0  0  0  0  0
    1.2574    1.8914    1.1031 H   0  0  0  0  0  0  0  0  0  0  0  0
   -1.2671    1.4184    1.3311 H   0  0  0  0  0  0  0  0  0  0  0  0
  1  2  1  0
  2  3  2  0
  3  4  1  0
  4  5  1  0
  4  6  1  0
  6  7  1  0
  7  8  1  0
  8  9  1  0
  8  2  1  0
  9  4  1  0
  9  7  1  0
  1 10  1  0
  1 11  1  0
  1 12  1  0
  3 13  1  0
  5 14  1  0
  5 15  1  0
  5 16  1  0
  6 17  1  0
  6 18  1  0
  7 19  1  0
  8 20  1  0
  9 21  1  0
M  END
