
     RDKit          3D

 23 24  0  0  0  0  0  0  0  0999 V2000
   -2.1276   -1.0630   -0.4827 C   0  0  0  0  0  0  0  0  0  0  0  0
   -0.7043   -0.6762   -0.2862 C   0  0  0  0  0  0  0  0  0  0  0  0
    0.2005   -1.6255   -0.3969 C   0  0  0  0  0  0  0  0  0  0  0  0
    1.6564   -1.4142   -0.2322 C   0  0  0  0  0  0  0  0  0  0  0  0
    2.0330   -0.1209    0.3734 C   0  0  0  0  0  0  0  0  0  0  0  0
    1.0685    0.9779    0.2883 C   0  0  0  0  0  0  0  0  0  0  0  0
    0.0750    1.0381    1.4616 C   0  0  0  0  0  0  0  0  0  0  0  0
   -0.3257    0.7023    0.0176 C   0  0  0  0  0  0  0  0  0  0  0  0
   -1.1491    1.8049   -0.6370 C   0  0  0  0  0  0  0  0  0  0  0  0
   -2.7492   -0.2726   -0.8955 H   0  0  0  0  0  0  0  0  0  0  0  0
   -2.5061   -1.3829    0.5266 H   0  0  0  0  0  0  0  0  0  0  0  0
   -2.1808   -1.9477   -1.1725 H   0  0  0  0  0  0  0  0  0  0  0  0
   -0.1054   -2.6563   -0.6259 H   0  0  0  0  0  0  0  0  0  0  0  0
    2.0490   -2.2694    0.3679 H   0  0  0  0  0  0  0  0  0  0  0  0
    2.1134   -1.5288   -1.2453 H   0  0  0  0  0  0  0  0  0  0  0  0
    2.2704   -0.3076    1.4626 H   0  0  0  0  0  0  0  0  0  0  0  0
    3.0314    0.1835   -0.0605 H   0  0  0  0  0  0  0  0  0  0  0  0
    1.4723    1.9697   -0.0569 H   0  0  0  0  0  0  0  0  0  0  0  0
    0.0427    0.1895    2.1567 H   0  0  0  0  0  0  0  0  0  0  0  0
   -0.1302    2.0407    1.8465 H   0  0  0  0  0  0  0  0  0  0  0  0
   -0.9126    2.7996   -0.1978 H   0  0  0  0  0  0  0  0  0  0  0  0
   -0.8843    1.9005   -1.7268 H   0  0  0  0  0  0  0  0  0  0  0  0
   -2.2371    1.6585   -0.4850 H   0  0  0  0  0  0  0  0  0  0  0  0
  1  2  1  0
  2  3  2  0
  3  4  1  0
  4  5  1  0
  5  6  1  0
  6  7  1  0
  7  8  1  0
  8  9  1  0
  8  2  1  0
  8  6  1  0
  1 10  1  0
  1 11  1  0
  1 12  1  0
  3 13  1  0
  4 14  1  0
  4 15  1  0
  5 16  1  0
  5 17  1  0
  6 18  1  0
  7 19  1  0
  7 20  1  0
  9 21  1  0
  9 22  1  0
  9 23  1  0
M  END
