
     RDKit          3D

 19 19  0  0  0  0  0  0  0  0999 V2000
    2.5398    0.2760    0.4447 C   0  0  0  0  0  0  0  0  0  0  0  0
    1.1323    0.1192    0.0072 C   0  0  0  0  0  0  0  0  0  0  0  0
    0.3825    1.1822   -0.1541 C   0  0  0  0  0  0  0  0  0  0  0  0
   -1.0411    1.2427   -0.5829 C   0  0  0  0  0  0  0  0  0  0  0  0
   -1.9352    0.4100    0.3124 C   0  0  0  0  0  0  0  0  0  0  0  0
   -1.7707   -1.0419    0.0533 C   0  0  0  0  0  0  0  0  0  0  0  0
   -2.8319   -1.7149    0.0314 O   0  0  0  0  0  0  0  0  0  0  0  0
   -0.5119   -1.7385   -0.1728 C   0  0  0  0  0  0  0  0  0  0  0  0
    0.7409   -1.2733   -0.1989 C   0  0  0  0  0  0  0  0  0  0  0  0
    2.7764    1.2827    0.8065 H   0  0  0  0  0  0  0  0  0  0  0  0
    3.1799   -0.0494   -0.4126 H   0  0  0  0  0  0  0  0  0  0  0  0
    2.7220   -0.4647    1.2526 H   0  0  0  0  0  0  0  0  0  0  0  0
    0.8816    2.1047    0.0553 H   0  0  0  0  0  0  0  0  0  0  0  0
   -1.1761    0.8365   -1.6152 H   0  0  0  0  0  0  0  0  0  0  0  0
   -1.4296    2.2775   -0.5504 H   0  0  0  0  0  0  0  0  0  0  0  0
   -1.6459    0.6687    1.3631 H   0  0  0  0  0  0  0  0  0  0  0  0
   -2.9707    0.6829    0.1006 H   0  0  0  0  0  0  0  0  0  0  0  0
   -0.5840   -2.8123   -0.3512 H   0  0  0  0  0  0  0  0  0  0  0  0
    1.5420   -1.9879   -0.3893 H   0  0  0  0  0  0  0  0  0  0  0  0
  1  2  1  0
  2  3  2  0
  3  4  1  0
  4  5  1  0
  5  6  1  0
  6  7  2  0
  6  8  1  0
  8  9  2  0
  9  2  1  0
  1 10  1  0
  1 11  1  0
  1 12  1  0
  3 13  1  0
  4 14  1  0
  4 15  1  0
  5 16  1  0
  5 17  1  0
  8 18  1  0
  9 19  1  0
M  END
