
     RDKit          3D

 20 20  0  0  0  0  0  0  0  0999 V2000
    2.2414   -0.5334   -0.6705 C   0  0  0  0  0  0  0  0  0  0  0  0
    0.8777   -0.4162   -0.0884 C   0  0  0  0  0  0  0  0  0  0  0  0
   -0.1546   -1.2431   -0.1829 C   0  0  0  0  0  0  0  0  0  0  0  0
   -1.3092   -0.6957    0.5718 C   0  0  0  0  0  0  0  0  0  0  0  0
   -2.5993   -0.8029   -0.2062 C   0  0  0  0  0  0  0  0  0  0  0  0
   -0.9733    0.6014    0.8337 O   0  0  0  0  0  0  0  0  0  0  0  0
    0.4100    0.7135    0.7472 C   0  0  0  0  0  0  0  0  0  0  0  0
    0.7038    2.0558    0.1071 C   0  0  0  0  0  0  0  0  0  0  0  0
    2.9978   -0.2082    0.0942 H   0  0  0  0  0  0  0  0  0  0  0  0
    2.3682    0.1022   -1.5612 H   0  0  0  0  0  0  0  0  0  0  0  0
    2.5105   -1.5619   -0.9438 H   0  0  0  0  0  0  0  0  0  0  0  0
   -0.1295   -2.1780   -0.7387 H   0  0  0  0  0  0  0  0  0  0  0  0
   -1.4122   -1.3302    1.4878 H   0  0  0  0  0  0  0  0  0  0  0  0
   -2.5510   -0.0646   -1.0479 H   0  0  0  0  0  0  0  0  0  0  0  0
   -3.4131   -0.4832    0.4820 H   0  0  0  0  0  0  0  0  0  0  0  0
   -2.7890   -1.8222   -0.5376 H   0  0  0  0  0  0  0  0  0  0  0  0
    0.8658    0.6182    1.7384 H   0  0  0  0  0  0  0  0  0  0  0  0
    1.6059    2.4796    0.5946 H   0  0  0  0  0  0  0  0  0  0  0  0
    0.8846    1.9796   -0.9749 H   0  0  0  0  0  0  0  0  0  0  0  0
   -0.1343    2.7892    0.2953 H   0  0  0  0  0  0  0  0  0  0  0  0
  1  2  1  0
  2  3  2  0
  3  4  1  0
  4  5  1  0
  4  6  1  0
  6  7  1  0
  7  8  1  0
  7  2  1  0
  1  9  1  0
  1 10  1  0
  1 11  1  0
  3 12  1  0
  4 13  1  0
  5 14  1  0
  5 15  1  0
  5 16  1  0
  7 17  1  0
  8 18  1  0
  8 19  1  0
  8 20  1  0
M  END
