
     RDKit          3D

 21 22  0  0  0  0  0  0  0  0999 V2000
    2.5177    0.1420    0.5028 C   0  0  0  0  0  0  0  0  0  0  0  0
    1.0813    0.3015    0.0851 C   0  0  0  0  0  0  0  0  0  0  0  0
    0.5152    1.4850    0.0717 C   0  0  0  0  0  0  0  0  0  0  0  0
   -0.8808    1.6951   -0.3268 C   0  0  0  0  0  0  0  0  0  0  0  0
   -1.7709    0.5063   -0.1453 C   0  0  0  0  0  0  0  0  0  0  0  0
   -1.1230   -0.8040   -0.3778 C   0  0  0  0  0  0  0  0  0  0  0  0
   -1.7586   -1.6585   -1.2775 O   0  0  0  0  0  0  0  0  0  0  0  0
   -0.4822   -1.5560    0.7800 C   0  0  0  0  0  0  0  0  0  0  0  0
    0.3235   -0.8843   -0.3064 C   0  0  0  0  0  0  0  0  0  0  0  0
    3.0026   -0.6930   -0.0510 H   0  0  0  0  0  0  0  0  0  0  0  0
    3.1082    1.0503    0.2756 H   0  0  0  0  0  0  0  0  0  0  0  0
    2.6090   -0.0736    1.5742 H   0  0  0  0  0  0  0  0  0  0  0  0
    1.1089    2.3470    0.3696 H   0  0  0  0  0  0  0  0  0  0  0  0
   -0.8854    2.0354   -1.3967 H   0  0  0  0  0  0  0  0  0  0  0  0
   -1.2876    2.5691    0.2564 H   0  0  0  0  0  0  0  0  0  0  0  0
   -2.2035    0.5600    0.8858 H   0  0  0  0  0  0  0  0  0  0  0  0
   -2.6300    0.6243   -0.8355 H   0  0  0  0  0  0  0  0  0  0  0  0
   -1.1218   -2.3271   -1.6159 H   0  0  0  0  0  0  0  0  0  0  0  0
   -0.4616   -2.6581    0.7698 H   0  0  0  0  0  0  0  0  0  0  0  0
   -0.5108   -1.1129    1.7908 H   0  0  0  0  0  0  0  0  0  0  0  0
    0.8499   -1.5485   -1.0290 H   0  0  0  0  0  0  0  0  0  0  0  0
  1  2  1  0
  2  3  2  0
  3  4  1  0
  4  5  1  0
  5  6  1  0
  6  7  1  0
  6  8  1  0
  8  9  1  0
  9  2  1  0
  9  6  1  0
  1 10  1  0
  1 11  1  0
  1 12  1  0
  3 13  1  0
  4 14  1  0
  4 15  1  0
  5 16  1  0
  5 17  1  0
  7 18  1  0
  8 19  1  0
  8 20  1  0
  9 21  1  0
M  END
