
     RDKit          3D

 23 23  0  0  0  0  0  0  0  0999 V2000
    3.1796   -0.2072   -0.1355 C   0  0  0  0  0  0  0  0  0  0  0  0
    1.6714   -0.2412   -0.1170 C   0  0  0  0  0  0  0  0  0  0  0  0
    1.0939   -1.2253    0.5279 C   0  0  0  0  0  0  0  0  0  0  0  0
   -0.3038   -1.5550    0.7409 C   0  0  0  0  0  0  0  0  0  0  0  0
   -1.3301   -0.8049    0.0030 C   0  0  0  0  0  0  0  0  0  0  0  0
   -1.2898    0.6882    0.1465 C   0  0  0  0  0  0  0  0  0  0  0  0
   -2.6316    1.3238   -0.0264 C   0  0  0  0  0  0  0  0  0  0  0  0
   -0.2614    1.2944   -0.7748 C   0  0  0  0  0  0  0  0  0  0  0  0
    0.9900    0.8317   -0.8238 C   0  0  0  0  0  0  0  0  0  0  0  0
    3.5415    0.8487   -0.1471 H   0  0  0  0  0  0  0  0  0  0  0  0
    3.5204   -0.6389    0.8449 H   0  0  0  0  0  0  0  0  0  0  0  0
    3.5795   -0.8107   -0.9636 H   0  0  0  0  0  0  0  0  0  0  0  0
    1.7832   -1.9223    0.9872 H   0  0  0  0  0  0  0  0  0  0  0  0
   -0.4289   -2.6434    0.4565 H   0  0  0  0  0  0  0  0  0  0  0  0
   -0.5124   -1.5664    1.8518 H   0  0  0  0  0  0  0  0  0  0  0  0
   -1.3874   -1.0459   -1.0784 H   0  0  0  0  0  0  0  0  0  0  0  0
   -2.3356   -1.1231    0.4130 H   0  0  0  0  0  0  0  0  0  0  0  0
   -0.9232    0.9147    1.1702 H   0  0  0  0  0  0  0  0  0  0  0  0
   -3.3714    0.5288   -0.2667 H   0  0  0  0  0  0  0  0  0  0  0  0
   -3.0136    1.7870    0.9290 H   0  0  0  0  0  0  0  0  0  0  0  0
   -2.6642    2.1058   -0.8116 H   0  0  0  0  0  0  0  0  0  0  0  0
   -0.5401    2.1044   -1.3952 H   0  0  0  0  0  0  0  0  0  0  0  0
    1.6341    1.3567   -1.5307 H   0  0  0  0  0  0  0  0  0  0  0  0
  1  2  1  0
  2  3  2  0
  3  4  1  0
  4  5  1  0
  5  6  1  0
  6  7  1  0
  6  8  1  0
  8  9  2  0
  9  2  1  0
  1 10  1  0
  1 11  1  0
  1 12  1  0
  3 13  1  0
  4 14  1  0
  4 15  1  0
  5 16  1  0
  5 17  1  0
  6 18  1  0
  7 19  1  0
  7 20  1  0
  7 21  1  0
  8 22  1  0
  9 23  1  0
M  END
