
     RDKit          3D

 23 23  0  0  0  0  0  0  0  0999 V2000
   -2.1095   -1.1658   -0.2188 C   0  0  0  0  0  0  0  0  0  0  0  0
   -0.7578   -0.6081    0.0377 C   0  0  0  0  0  0  0  0  0  0  0  0
   -0.6423    0.6986    0.2001 C   0  0  0  0  0  0  0  0  0  0  0  0
   -1.7586    1.6546    0.1464 C   0  0  0  0  0  0  0  0  0  0  0  0
    0.7581    1.2030    0.4576 C   0  0  0  0  0  0  0  0  0  0  0  0
    1.6201    0.4100   -0.5357 C   0  0  0  0  0  0  0  0  0  0  0  0
    2.8420    1.0192   -0.7503 O   0  0  0  0  0  0  0  0  0  0  0  0
    1.7137   -0.9824   -0.0063 C   0  0  0  0  0  0  0  0  0  0  0  0
    0.3572   -1.5862    0.0890 C   0  0  0  0  0  0  0  0  0  0  0  0
   -2.8397   -0.4446   -0.5694 H   0  0  0  0  0  0  0  0  0  0  0  0
   -2.4271   -1.7448    0.6692 H   0  0  0  0  0  0  0  0  0  0  0  0
   -1.9778   -1.9163   -1.0499 H   0  0  0  0  0  0  0  0  0  0  0  0
   -1.3591    2.6893    0.1031 H   0  0  0  0  0  0  0  0  0  0  0  0
   -2.3257    1.5840    1.1020 H   0  0  0  0  0  0  0  0  0  0  0  0
   -2.4063    1.5401   -0.7433 H   0  0  0  0  0  0  0  0  0  0  0  0
    0.8436    2.2796    0.3132 H   0  0  0  0  0  0  0  0  0  0  0  0
    1.0392    0.9072    1.4950 H   0  0  0  0  0  0  0  0  0  0  0  0
    1.0842    0.3736   -1.5091 H   0  0  0  0  0  0  0  0  0  0  0  0
    3.3710    1.1210    0.0561 H   0  0  0  0  0  0  0  0  0  0  0  0
    2.1405   -0.9146    1.0359 H   0  0  0  0  0  0  0  0  0  0  0  0
    2.4251   -1.6085   -0.6154 H   0  0  0  0  0  0  0  0  0  0  0  0
    0.2171   -2.1784    1.0335 H   0  0  0  0  0  0  0  0  0  0  0  0
    0.1920   -2.3304   -0.7403 H   0  0  0  0  0  0  0  0  0  0  0  0
  1  2  1  0
  2  3  2  0
  3  4  1  0
  3  5  1  0
  5  6  1  0
  6  7  1  0
  6  8  1  0
  8  9  1  0
  9  2  1  0
  1 10  1  0
  1 11  1  0
  1 12  1  0
  4 13  1  0
  4 14  1  0
  4 15  1  0
  5 16  1  0
  5 17  1  0
  6 18  1  0
  7 19  1  0
  8 20  1  0
  8 21  1  0
  9 22  1  0
  9 23  1  0
M  END
