
     RDKit          3D

 18 19  0  0  0  0  0  0  0  0999 V2000
    2.4119   -0.1814   -0.2520 C   0  0  0  0  0  0  0  0  0  0  0  0
    0.9583   -0.2202    0.0271 C   0  0  0  0  0  0  0  0  0  0  0  0
    0.1648   -1.2415    0.3570 C   0  0  0  0  0  0  0  0  0  0  0  0
   -1.1587   -0.6962    0.5134 C   0  0  0  0  0  0  0  0  0  0  0  0
   -2.2488   -0.3470   -0.2887 C   0  0  0  0  0  0  0  0  0  0  0  0
   -1.0769    0.2744   -0.7100 C   0  0  0  0  0  0  0  0  0  0  0  0
    0.0621    1.0144   -0.0755 C   0  0  0  0  0  0  0  0  0  0  0  0
   -0.2042    1.3869    1.2226 O   0  0  0  0  0  0  0  0  0  0  0  0
    2.9629   -0.0487    0.7200 H   0  0  0  0  0  0  0  0  0  0  0  0
    2.6454    0.6752   -0.9299 H   0  0  0  0  0  0  0  0  0  0  0  0
    2.7905   -1.0817   -0.7479 H   0  0  0  0  0  0  0  0  0  0  0  0
    0.5299   -2.2630    0.4665 H   0  0  0  0  0  0  0  0  0  0  0  0
   -1.1914   -0.2079    1.5452 H   0  0  0  0  0  0  0  0  0  0  0  0
   -2.7150   -1.1729   -0.9069 H   0  0  0  0  0  0  0  0  0  0  0  0
   -3.0861    0.2750    0.1149 H   0  0  0  0  0  0  0  0  0  0  0  0
   -0.6503   -0.1604   -1.6719 H   0  0  0  0  0  0  0  0  0  0  0  0
    0.5083    1.7767   -0.7044 H   0  0  0  0  0  0  0  0  0  0  0  0
   -0.7027    2.2184    1.3207 H   0  0  0  0  0  0  0  0  0  0  0  0
  1  2  1  0
  2  3  2  0
  3  4  1  0
  4  5  1  0
  5  6  1  0
  6  7  1  0
  7  8  1  0
  7  2  1  0
  6  4  1  0
  1  9  1  0
  1 10  1  0
  1 11  1  0
  3 12  1  0
  4 13  1  0
  5 14  1  0
  5 15  1  0
  6 16  1  0
  7 17  1  0
  8 18  1  0
M  END
