
     RDKit          3D

 18 20  0  0  0  0  0  0  0  0999 V2000
    2.3627   -0.0578   -0.3699 C   0  0  0  0  0  0  0  0  0  0  0  0
    0.9247   -0.2883   -0.1259 C   0  0  0  0  0  0  0  0  0  0  0  0
    0.1799   -1.2888   -0.5743 C   0  0  0  0  0  0  0  0  0  0  0  0
   -1.2216   -1.1512   -0.0986 C   0  0  0  0  0  0  0  0  0  0  0  0
   -1.8070    0.1924   -0.1348 C   0  0  0  0  0  0  0  0  0  0  0  0
   -0.8693    1.3673   -0.2394 C   0  0  0  0  0  0  0  0  0  0  0  0
    0.0625    0.6286    0.6959 C   0  0  0  0  0  0  0  0  0  0  0  0
   -1.0696   -0.2502    1.0584 C   0  0  0  0  0  0  0  0  0  0  0  0
    2.6740   -0.3850   -1.4051 H   0  0  0  0  0  0  0  0  0  0  0  0
    2.9799   -0.5925    0.3763 H   0  0  0  0  0  0  0  0  0  0  0  0
    2.6293    1.0291   -0.3358 H   0  0  0  0  0  0  0  0  0  0  0  0
    0.5533   -2.0860   -1.1978 H   0  0  0  0  0  0  0  0  0  0  0  0
   -1.8411   -2.0636    0.0146 H   0  0  0  0  0  0  0  0  0  0  0  0
   -2.8927    0.3779   -0.0159 H   0  0  0  0  0  0  0  0  0  0  0  0
   -1.2811    2.3120    0.1352 H   0  0  0  0  0  0  0  0  0  0  0  0
   -0.4839    1.4457   -1.2759 H   0  0  0  0  0  0  0  0  0  0  0  0
    0.5677    1.2077    1.4559 H   0  0  0  0  0  0  0  0  0  0  0  0
   -1.4676   -0.3972    2.0373 H   0  0  0  0  0  0  0  0  0  0  0  0
  1  2  1  0
  2  3  2  0
  3  4  1  0
  4  5  1  0
  5  6  1  0
  6  7  1  0
  7  8  1  0
  7  2  1  0
  8  4  1  0
  8  5  1  0
  1  9  1  0
  1 10  1  0
  1 11  1  0
  3 12  1  0
  4 13  1  0
  5 14  1  0
  6 15  1  0
  6 16  1  0
  7 17  1  0
  8 18  1  0
M  END
