
     RDKit          3D

 19 19  0  0  0  0  0  0  0  0999 V2000
    2.3896    0.4898   -0.2595 C   0  0  0  0  0  0  0  0  0  0  0  0
    1.0037    0.1371    0.0663 C   0  0  0  0  0  0  0  0  0  0  0  0
    0.0567    1.0528    0.2507 C   0  0  0  0  0  0  0  0  0  0  0  0
   -1.3078    0.5801    0.5758 C   0  0  0  0  0  0  0  0  0  0  0  0
   -2.2413    1.5988    0.6038 O   0  0  0  0  0  0  0  0  0  0  0  0
   -1.7379   -0.5073   -0.3792 C   0  0  0  0  0  0  0  0  0  0  0  0
   -0.6326   -1.4692   -0.5962 C   0  0  0  0  0  0  0  0  0  0  0  0
   -0.7061   -2.3902   -1.4012 O   0  0  0  0  0  0  0  0  0  0  0  0
    0.6222   -1.3076    0.2002 C   0  0  0  0  0  0  0  0  0  0  0  0
    2.6921    1.3880    0.3210 H   0  0  0  0  0  0  0  0  0  0  0  0
    3.0567   -0.3539    0.0334 H   0  0  0  0  0  0  0  0  0  0  0  0
    2.5626    0.6331   -1.3547 H   0  0  0  0  0  0  0  0  0  0  0  0
    0.2956    2.1271    0.1610 H   0  0  0  0  0  0  0  0  0  0  0  0
   -1.2512    0.0964    1.5903 H   0  0  0  0  0  0  0  0  0  0  0  0
   -1.8863    2.4686    0.2887 H   0  0  0  0  0  0  0  0  0  0  0  0
   -2.5944   -1.0659    0.0988 H   0  0  0  0  0  0  0  0  0  0  0  0
   -2.0704   -0.0569   -1.3479 H   0  0  0  0  0  0  0  0  0  0  0  0
    0.3264   -1.4406    1.2644 H   0  0  0  0  0  0  0  0  0  0  0  0
    1.4225   -1.9802   -0.1156 H   0  0  0  0  0  0  0  0  0  0  0  0
  1  2  1  0
  2  3  2  0
  3  4  1  0
  4  5  1  0
  4  6  1  0
  6  7  1  0
  7  8  2  0
  7  9  1  0
  9  2  1  0
  1 10  1  0
  1 11  1  0
  1 12  1  0
  3 13  1  0
  4 14  1  0
  5 15  1  0
  6 16  1  0
  6 17  1  0
  9 18  1  0
  9 19  1  0
M  END
