
     RDKit          3D

 21 22  0  0  0  0  0  0  0  0999 V2000
   -2.4669    0.8966   -0.3160 C   0  0  0  0  0  0  0  0  0  0  0  0
   -1.2834    0.0215   -0.2425 C   0  0  0  0  0  0  0  0  0  0  0  0
   -1.2658   -1.1993    0.2592 C   0  0  0  0  0  0  0  0  0  0  0  0
    0.0326   -1.9237    0.2421 C   0  0  0  0  0  0  0  0  0  0  0  0
    1.2095   -1.0768    0.5941 C   0  0  0  0  0  0  0  0  0  0  0  0
    0.7913   -0.0103    1.5314 O   0  0  0  0  0  0  0  0  0  0  0  0
    1.1606    0.2255    0.1703 C   0  0  0  0  0  0  0  0  0  0  0  0
    2.2887    1.2284    0.0877 C   0  0  0  0  0  0  0  0  0  0  0  0
    0.0177    0.5435   -0.7759 C   0  0  0  0  0  0  0  0  0  0  0  0
   -2.1499    1.8975    0.1009 H   0  0  0  0  0  0  0  0  0  0  0  0
   -3.3283    0.5314    0.2464 H   0  0  0  0  0  0  0  0  0  0  0  0
   -2.7592    1.1156   -1.3724 H   0  0  0  0  0  0  0  0  0  0  0  0
   -2.1834   -1.6087    0.6530 H   0  0  0  0  0  0  0  0  0  0  0  0
    0.1679   -2.4586   -0.7214 H   0  0  0  0  0  0  0  0  0  0  0  0
   -0.0539   -2.7280    1.0255 H   0  0  0  0  0  0  0  0  0  0  0  0
    2.0738   -1.6420    1.0074 H   0  0  0  0  0  0  0  0  0  0  0  0
    3.0332    1.0795    0.8813 H   0  0  0  0  0  0  0  0  0  0  0  0
    1.8196    2.2350    0.2952 H   0  0  0  0  0  0  0  0  0  0  0  0
    2.7197    1.3087   -0.9217 H   0  0  0  0  0  0  0  0  0  0  0  0
   -0.0271    1.6110   -1.0290 H   0  0  0  0  0  0  0  0  0  0  0  0
    0.2032   -0.0469   -1.7156 H   0  0  0  0  0  0  0  0  0  0  0  0
  1  2  1  0
  2  3  2  0
  3  4  1  0
  4  5  1  0
  5  6  1  0
  6  7  1  0
  7  8  1  0
  7  9  1  0
  9  2  1  0
  7  5  1  0
  1 10  1  0
  1 11  1  0
  1 12  1  0
  3 13  1  0
  4 14  1  0
  4 15  1  0
  5 16  1  0
  8 17  1  0
  8 18  1  0
  8 19  1  0
  9 20  1  0
  9 21  1  0
M  END
