
     RDKit          3D

 19 20  0  0  0  0  0  0  0  0999 V2000
    2.3981    0.0865    0.1333 C   0  0  0  0  0  0  0  0  0  0  0  0
    0.9656   -0.2434   -0.1029 C   0  0  0  0  0  0  0  0  0  0  0  0
    0.4927   -1.3213   -0.7194 C   0  0  0  0  0  0  0  0  0  0  0  0
   -0.9973   -1.2726   -0.7474 C   0  0  0  0  0  0  0  0  0  0  0  0
   -1.2704   -0.4466    0.4952 C   0  0  0  0  0  0  0  0  0  0  0  0
   -2.5260    0.1004    0.5211 O   0  0  0  0  0  0  0  0  0  0  0  0
   -0.1777    0.5983    0.3228 C   0  0  0  0  0  0  0  0  0  0  0  0
   -0.4343    1.8469   -0.1891 C   0  0  0  0  0  0  0  0  0  0  0  0
   -0.0294    1.5967    1.2317 O   0  0  0  0  0  0  0  0  0  0  0  0
    3.0656   -0.4089   -0.6173 H   0  0  0  0  0  0  0  0  0  0  0  0
    2.6885   -0.2833    1.1464 H   0  0  0  0  0  0  0  0  0  0  0  0
    2.5413    1.1888    0.1498 H   0  0  0  0  0  0  0  0  0  0  0  0
    1.0901   -2.1208   -1.1416 H   0  0  0  0  0  0  0  0  0  0  0  0
   -1.2811   -0.6797   -1.6430 H   0  0  0  0  0  0  0  0  0  0  0  0
   -1.4612   -2.2602   -0.7107 H   0  0  0  0  0  0  0  0  0  0  0  0
   -1.0533   -1.1120    1.3714 H   0  0  0  0  0  0  0  0  0  0  0  0
   -2.9197   -0.0815    1.4224 H   0  0  0  0  0  0  0  0  0  0  0  0
   -1.4370    2.3278   -0.2461 H   0  0  0  0  0  0  0  0  0  0  0  0
    0.3454    2.4849   -0.6767 H   0  0  0  0  0  0  0  0  0  0  0  0
  1  2  1  0
  2  3  2  0
  3  4  1  0
  4  5  1  0
  5  6  1  0
  5  7  1  0
  7  8  1  0
  8  9  1  0
  7  2  1  0
  9  7  1  0
  1 10  1  0
  1 11  1  0
  1 12  1  0
  3 13  1  0
  4 14  1  0
  4 15  1  0
  5 16  1  0
  6 17  1  0
  8 18  1  0
  8 19  1  0
M  END
