
     RDKit          3D

 17 17  0  0  0  0  0  0  0  0999 V2000
    2.0875   -0.0276    0.0900 C   0  0  0  0  0  0  0  0  0  0  0  0
    0.6015   -0.1760   -0.0330 C   0  0  0  0  0  0  0  0  0  0  0  0
    0.0038   -1.3284    0.1800 C   0  0  0  0  0  0  0  0  0  0  0  0
   -1.4558   -1.5644    0.0808 C   0  0  0  0  0  0  0  0  0  0  0  0
   -2.1676   -0.4515   -0.3802 O   0  0  0  0  0  0  0  0  0  0  0  0
   -1.6386    0.8170   -0.2452 C   0  0  0  0  0  0  0  0  0  0  0  0
   -2.3798    1.8263    0.0107 O   0  0  0  0  0  0  0  0  0  0  0  0
   -0.1961    0.9995   -0.4005 C   0  0  0  0  0  0  0  0  0  0  0  0
    0.1699    2.1443    0.3358 O   0  0  0  0  0  0  0  0  0  0  0  0
    2.6294   -0.9186   -0.2394 H   0  0  0  0  0  0  0  0  0  0  0  0
    2.4503    0.8436   -0.4955 H   0  0  0  0  0  0  0  0  0  0  0  0
    2.3328    0.1198    1.1700 H   0  0  0  0  0  0  0  0  0  0  0  0
    0.6174   -2.1853    0.4513 H   0  0  0  0  0  0  0  0  0  0  0  0
   -1.8099   -1.8080    1.1075 H   0  0  0  0  0  0  0  0  0  0  0  0
   -1.6546   -2.4255   -0.6132 H   0  0  0  0  0  0  0  0  0  0  0  0
    0.0316    1.2289   -1.4802 H   0  0  0  0  0  0  0  0  0  0  0  0
    0.3780    2.9057   -0.2391 H   0  0  0  0  0  0  0  0  0  0  0  0
  1  2  1  0
  2  3  2  0
  3  4  1  0
  4  5  1  0
  5  6  1  0
  6  7  2  0
  6  8  1  0
  8  9  1  0
  8  2  1  0
  1 10  1  0
  1 11  1  0
  1 12  1  0
  3 13  1  0
  4 14  1  0
  4 15  1  0
  8 16  1  0
  9 17  1  0
M  END
