
     RDKit          3D

 23 24  0  0  0  0  0  0  0  0999 V2000
    2.5704    0.7274   -0.1933 C   0  0  0  0  0  0  0  0  0  0  0  0
    1.1236    0.4767   -0.0500 C   0  0  0  0  0  0  0  0  0  0  0  0
    0.3119    1.1317    0.7591 C   0  0  0  0  0  0  0  0  0  0  0  0
   -1.0685    0.6113    0.6384 C   0  0  0  0  0  0  0  0  0  0  0  0
   -1.9168    1.6981   -0.0033 C   0  0  0  0  0  0  0  0  0  0  0  0
   -1.0311   -0.5506   -0.2957 C   0  0  0  0  0  0  0  0  0  0  0  0
   -0.8751   -1.9045    0.3115 C   0  0  0  0  0  0  0  0  0  0  0  0
    0.5611   -1.9187   -0.1656 C   0  0  0  0  0  0  0  0  0  0  0  0
    0.3779   -0.5577   -0.8051 C   0  0  0  0  0  0  0  0  0  0  0  0
    3.0915   -0.0607   -0.7722 H   0  0  0  0  0  0  0  0  0  0  0  0
    3.0879    0.7461    0.8054 H   0  0  0  0  0  0  0  0  0  0  0  0
    2.6910    1.7246   -0.6929 H   0  0  0  0  0  0  0  0  0  0  0  0
    0.6073    1.9298    1.4140 H   0  0  0  0  0  0  0  0  0  0  0  0
   -1.4515    0.3382    1.6408 H   0  0  0  0  0  0  0  0  0  0  0  0
   -1.3268    2.6118   -0.2248 H   0  0  0  0  0  0  0  0  0  0  0  0
   -2.7827    1.9235    0.6529 H   0  0  0  0  0  0  0  0  0  0  0  0
   -2.3500    1.3631   -0.9769 H   0  0  0  0  0  0  0  0  0  0  0  0
   -1.7693   -0.5274   -1.1155 H   0  0  0  0  0  0  0  0  0  0  0  0
   -0.9911   -1.9766    1.4132 H   0  0  0  0  0  0  0  0  0  0  0  0
   -1.4399   -2.6935   -0.2612 H   0  0  0  0  0  0  0  0  0  0  0  0
    1.2488   -1.9156    0.7210 H   0  0  0  0  0  0  0  0  0  0  0  0
    0.8121   -2.6685   -0.9156 H   0  0  0  0  0  0  0  0  0  0  0  0
    0.5193   -0.5085   -1.8840 H   0  0  0  0  0  0  0  0  0  0  0  0
  1  2  1  0
  2  3  2  0
  3  4  1  0
  4  5  1  0
  4  6  1  0
  6  7  1  0
  7  8  1  0
  8  9  1  0
  9  2  1  0
  9  6  1  0
  1 10  1  0
  1 11  1  0
  1 12  1  0
  3 13  1  0
  4 14  1  0
  5 15  1  0
  5 16  1  0
  5 17  1  0
  6 18  1  0
  7 19  1  0
  7 20  1  0
  8 21  1  0
  8 22  1  0
  9 23  1  0
M  END
