
     RDKit          3D

 23 24  0  0  0  0  0  0  0  0999 V2000
    1.1487   -2.0647    1.0611 C   0  0  0  0  0  0  0  0  0  0  0  0
    0.3404   -0.8622    0.6218 C   0  0  0  0  0  0  0  0  0  0  0  0
   -0.9433   -0.6483    0.8757 C   0  0  0  0  0  0  0  0  0  0  0  0
   -1.4353    0.6193    0.3077 C   0  0  0  0  0  0  0  0  0  0  0  0
   -2.6571    0.4374   -0.5559 C   0  0  0  0  0  0  0  0  0  0  0  0
   -0.2496    1.1184   -0.4655 C   0  0  0  0  0  0  0  0  0  0  0  0
    0.8785    1.6401    0.3932 C   0  0  0  0  0  0  0  0  0  0  0  0
    0.8910    0.2533   -0.1645 C   0  0  0  0  0  0  0  0  0  0  0  0
    1.8915   -0.0238   -1.2588 C   0  0  0  0  0  0  0  0  0  0  0  0
    1.8424   -1.8074    1.8607 H   0  0  0  0  0  0  0  0  0  0  0  0
    1.6270   -2.4458    0.1360 H   0  0  0  0  0  0  0  0  0  0  0  0
    0.4646   -2.8640    1.4506 H   0  0  0  0  0  0  0  0  0  0  0  0
   -1.5381   -1.3660    1.4516 H   0  0  0  0  0  0  0  0  0  0  0  0
   -1.6218    1.3153    1.1389 H   0  0  0  0  0  0  0  0  0  0  0  0
   -3.5528    0.6904    0.0486 H   0  0  0  0  0  0  0  0  0  0  0  0
   -2.6308    1.1326   -1.4209 H   0  0  0  0  0  0  0  0  0  0  0  0
   -2.7915   -0.6111   -0.9009 H   0  0  0  0  0  0  0  0  0  0  0  0
   -0.4041    1.5613   -1.4735 H   0  0  0  0  0  0  0  0  0  0  0  0
    0.7116    1.8009    1.4804 H   0  0  0  0  0  0  0  0  0  0  0  0
    1.5483    2.3653   -0.0725 H   0  0  0  0  0  0  0  0  0  0  0  0
    1.3846    0.0775   -2.2257 H   0  0  0  0  0  0  0  0  0  0  0  0
    2.7272    0.7124   -1.1369 H   0  0  0  0  0  0  0  0  0  0  0  0
    2.3684   -1.0308   -1.1511 H   0  0  0  0  0  0  0  0  0  0  0  0
  1  2  1  0
  2  3  2  0
  3  4  1  0
  4  5  1  0
  4  6  1  0
  6  7  1  0
  7  8  1  0
  8  9  1  0
  8  2  1  0
  8  6  1  0
  1 10  1  0
  1 11  1  0
  1 12  1  0
  3 13  1  0
  4 14  1  0
  5 15  1  0
  5 16  1  0
  5 17  1  0
  6 18  1  0
  7 19  1  0
  7 20  1  0
  9 21  1  0
  9 22  1  0
  9 23  1  0
M  END
