
     RDKit          3D

 21 23  0  0  0  0  0  0  0  0999 V2000
    2.5613    0.4976   -0.8274 C   0  0  0  0  0  0  0  0  0  0  0  0
    1.2905    0.2228   -0.1047 C   0  0  0  0  0  0  0  0  0  0  0  0
    0.5745    1.1503    0.5124 C   0  0  0  0  0  0  0  0  0  0  0  0
   -0.6302    0.5510    1.1318 C   0  0  0  0  0  0  0  0  0  0  0  0
   -1.7698    0.7929    0.1494 C   0  0  0  0  0  0  0  0  0  0  0  0
   -1.6945   -0.3741   -0.7972 C   0  0  0  0  0  0  0  0  0  0  0  0
   -0.7407   -1.3690   -0.2553 C   0  0  0  0  0  0  0  0  0  0  0  0
    0.6743   -1.1024    0.0150 C   0  0  0  0  0  0  0  0  0  0  0  0
   -0.3617   -0.9233    1.0876 C   0  0  0  0  0  0  0  0  0  0  0  0
    3.3399   -0.1450   -0.3210 H   0  0  0  0  0  0  0  0  0  0  0  0
    2.4808    0.2339   -1.9098 H   0  0  0  0  0  0  0  0  0  0  0  0
    2.8590    1.5732   -0.7482 H   0  0  0  0  0  0  0  0  0  0  0  0
    0.8474    2.1963    0.5486 H   0  0  0  0  0  0  0  0  0  0  0  0
   -0.8704    0.9447    2.1212 H   0  0  0  0  0  0  0  0  0  0  0  0
   -1.6421    1.7696   -0.3426 H   0  0  0  0  0  0  0  0  0  0  0  0
   -2.7145    0.8309    0.7240 H   0  0  0  0  0  0  0  0  0  0  0  0
   -1.4522   -0.0722   -1.8348 H   0  0  0  0  0  0  0  0  0  0  0  0
   -2.7071   -0.8316   -0.8210 H   0  0  0  0  0  0  0  0  0  0  0  0
   -1.0093   -2.4390   -0.4819 H   0  0  0  0  0  0  0  0  0  0  0  0
    1.3350   -1.9682    0.1709 H   0  0  0  0  0  0  0  0  0  0  0  0
   -0.3703   -1.5382    1.9828 H   0  0  0  0  0  0  0  0  0  0  0  0
  1  2  1  0
  2  3  2  0
  3  4  1  0
  4  5  1  0
  5  6  1  0
  6  7  1  0
  7  8  1  0
  8  9  1  0
  8  2  1  0
  9  4  1  0
  9  7  1  0
  1 10  1  0
  1 11  1  0
  1 12  1  0
  3 13  1  0
  4 14  1  0
  5 15  1  0
  5 16  1  0
  6 17  1  0
  6 18  1  0
  7 19  1  0
  8 20  1  0
  9 21  1  0
M  END
