
     RDKit          3D

 21 21  0  0  0  0  0  0  0  0999 V2000
    2.1318    1.7027    0.1090 C   0  0  0  0  0  0  0  0  0  0  0  0
    1.0953    0.6733   -0.1424 C   0  0  0  0  0  0  0  0  0  0  0  0
    1.5726   -0.5186   -0.3962 C   0  0  0  0  0  0  0  0  0  0  0  0
    0.8810   -1.7887   -0.6950 C   0  0  0  0  0  0  0  0  0  0  0  0
   -0.3060   -2.0402    0.1515 C   0  0  0  0  0  0  0  0  0  0  0  0
   -1.2410   -1.1981    0.5470 C   0  0  0  0  0  0  0  0  0  0  0  0
   -1.3197    0.2258    0.2294 C   0  0  0  0  0  0  0  0  0  0  0  0
   -2.6599    0.8217    0.2507 C   0  0  0  0  0  0  0  0  0  0  0  0
   -0.3169    1.0720   -0.0764 C   0  0  0  0  0  0  0  0  0  0  0  0
    2.6615    1.3766    1.0523 H   0  0  0  0  0  0  0  0  0  0  0  0
    1.7027    2.7104    0.2565 H   0  0  0  0  0  0  0  0  0  0  0  0
    2.8875    1.6467   -0.6896 H   0  0  0  0  0  0  0  0  0  0  0  0
    2.6722   -0.5862   -0.3854 H   0  0  0  0  0  0  0  0  0  0  0  0
    1.5905   -2.6451   -0.6412 H   0  0  0  0  0  0  0  0  0  0  0  0
    0.5628   -1.6908   -1.7783 H   0  0  0  0  0  0  0  0  0  0  0  0
   -0.4258   -3.0928    0.5047 H   0  0  0  0  0  0  0  0  0  0  0  0
   -2.0073   -1.6433    1.1599 H   0  0  0  0  0  0  0  0  0  0  0  0
   -2.8660    1.1217    1.3190 H   0  0  0  0  0  0  0  0  0  0  0  0
   -3.3891    0.0641   -0.0806 H   0  0  0  0  0  0  0  0  0  0  0  0
   -2.7191    1.7023   -0.4094 H   0  0  0  0  0  0  0  0  0  0  0  0
   -0.5071    2.0867   -0.2856 H   0  0  0  0  0  0  0  0  0  0  0  0
  1  2  1  0
  2  3  2  0
  3  4  1  0
  4  5  1  0
  5  6  2  0
  6  7  1  0
  7  8  1  0
  7  9  2  0
  9  2  1  0
  1 10  1  0
  1 11  1  0
  1 12  1  0
  3 13  1  0
  4 14  1  0
  4 15  1  0
  5 16  1  0
  6 17  1  0
  8 18  1  0
  8 19  1  0
  8 20  1  0
  9 21  1  0
M  END
