
     RDKit          3D

 21 22  0  0  0  0  0  0  0  0999 V2000
    2.7701   -0.3984   -0.1259 C   0  0  0  0  0  0  0  0  0  0  0  0
    1.3760    0.0703   -0.0588 C   0  0  0  0  0  0  0  0  0  0  0  0
    0.9998    1.2860   -0.4925 C   0  0  0  0  0  0  0  0  0  0  0  0
   -0.4595    1.3900   -0.8648 C   0  0  0  0  0  0  0  0  0  0  0  0
   -1.3355    1.1730    0.3459 C   0  0  0  0  0  0  0  0  0  0  0  0
   -1.0637   -0.2491   -0.0339 C   0  0  0  0  0  0  0  0  0  0  0  0
   -2.1613   -1.2317    0.2515 C   0  0  0  0  0  0  0  0  0  0  0  0
    0.2539   -0.7674    0.4992 C   0  0  0  0  0  0  0  0  0  0  0  0
   -0.9043    0.1480   -1.3381 O   0  0  0  0  0  0  0  0  0  0  0  0
    3.1183   -0.5711   -1.1739 H   0  0  0  0  0  0  0  0  0  0  0  0
    2.8126   -1.3900    0.3719 H   0  0  0  0  0  0  0  0  0  0  0  0
    3.4678    0.2621    0.4322 H   0  0  0  0  0  0  0  0  0  0  0  0
    1.6733    2.1147   -0.5696 H   0  0  0  0  0  0  0  0  0  0  0  0
   -0.6794    2.2508   -1.4887 H   0  0  0  0  0  0  0  0  0  0  0  0
   -0.9338    1.5298    1.2983 H   0  0  0  0  0  0  0  0  0  0  0  0
   -2.3744    1.4453    0.1065 H   0  0  0  0  0  0  0  0  0  0  0  0
   -2.2155   -1.3622    1.3544 H   0  0  0  0  0  0  0  0  0  0  0  0
   -1.8252   -2.2194   -0.1464 H   0  0  0  0  0  0  0  0  0  0  0  0
   -3.1494   -0.9291   -0.0882 H   0  0  0  0  0  0  0  0  0  0  0  0
    0.2864   -0.7320    1.5976 H   0  0  0  0  0  0  0  0  0  0  0  0
    0.3439   -1.8197    0.1231 H   0  0  0  0  0  0  0  0  0  0  0  0
  1  2  1  0
  2  3  2  0
  3  4  1  0
  4  5  1  0
  5  6  1  0
  6  7  1  0
  6  8  1  0
  6  9  1  0
  8  2  1  0
  9  4  1  0
  1 10  1  0
  1 11  1  0
  1 12  1  0
  3 13  1  0
  4 14  1  0
  5 15  1  0
  5 16  1  0
  7 17  1  0
  7 18  1  0
  7 19  1  0
  8 20  1  0
  8 21  1  0
M  END
