
     RDKit          3D

 21 22  0  0  0  0  0  0  0  0999 V2000
    2.2902   -0.8261   -0.3291 C   0  0  0  0  0  0  0  0  0  0  0  0
    0.8581   -0.5517   -0.2016 C   0  0  0  0  0  0  0  0  0  0  0  0
   -0.0441   -1.5113   -0.2832 C   0  0  0  0  0  0  0  0  0  0  0  0
   -1.5128   -1.1578   -0.1794 C   0  0  0  0  0  0  0  0  0  0  0  0
   -1.6270    0.2804    0.2052 C   0  0  0  0  0  0  0  0  0  0  0  0
   -0.8649    1.1105   -0.7937 C   0  0  0  0  0  0  0  0  0  0  0  0
    0.3739    0.8285    0.0256 C   0  0  0  0  0  0  0  0  0  0  0  0
    1.3019    1.8201    0.1148 O   0  0  0  0  0  0  0  0  0  0  0  0
   -0.5795    0.7063    1.2288 C   0  0  0  0  0  0  0  0  0  0  0  0
    2.9304   -0.0520    0.1843 H   0  0  0  0  0  0  0  0  0  0  0  0
    2.6398   -0.8130   -1.4025 H   0  0  0  0  0  0  0  0  0  0  0  0
    2.5943   -1.7917    0.1677 H   0  0  0  0  0  0  0  0  0  0  0  0
    0.1844   -2.5611   -0.4221 H   0  0  0  0  0  0  0  0  0  0  0  0
   -2.0065   -1.2742   -1.1864 H   0  0  0  0  0  0  0  0  0  0  0  0
   -2.0163   -1.7750    0.5708 H   0  0  0  0  0  0  0  0  0  0  0  0
   -2.6394    0.6380    0.4502 H   0  0  0  0  0  0  0  0  0  0  0  0
   -0.8171    0.7030   -1.8231 H   0  0  0  0  0  0  0  0  0  0  0  0
   -1.0847    2.1860   -0.7993 H   0  0  0  0  0  0  0  0  0  0  0  0
    1.1159    2.4971    0.8264 H   0  0  0  0  0  0  0  0  0  0  0  0
   -0.2791   -0.1068    1.9306 H   0  0  0  0  0  0  0  0  0  0  0  0
   -0.8176    1.6508    1.7160 H   0  0  0  0  0  0  0  0  0  0  0  0
  1  2  1  0
  2  3  2  0
  3  4  1  0
  4  5  1  0
  5  6  1  0
  6  7  1  0
  7  8  1  0
  7  9  1  0
  7  2  1  0
  9  5  1  0
  1 10  1  0
  1 11  1  0
  1 12  1  0
  3 13  1  0
  4 14  1  0
  4 15  1  0
  5 16  1  0
  6 17  1  0
  6 18  1  0
  8 19  1  0
  9 20  1  0
  9 21  1  0
M  END
