
     RDKit          3D

 23 24  0  0  0  0  0  0  0  0999 V2000
    2.3513   -0.3231   -0.4856 C   0  0  0  0  0  0  0  0  0  0  0  0
    0.8664   -0.4414   -0.5353 C   0  0  0  0  0  0  0  0  0  0  0  0
    0.0878   -0.8661   -1.5253 C   0  0  0  0  0  0  0  0  0  0  0  0
   -1.3377   -0.8103   -1.1212 C   0  0  0  0  0  0  0  0  0  0  0  0
   -1.3150    0.2874   -0.0823 C   0  0  0  0  0  0  0  0  0  0  0  0
   -1.2503    1.6560   -0.7232 C   0  0  0  0  0  0  0  0  0  0  0  0
   -0.0046   -0.0654    0.6013 C   0  0  0  0  0  0  0  0  0  0  0  0
    0.4545    0.5555    1.8238 C   0  0  0  0  0  0  0  0  0  0  0  0
   -0.0941   -0.8768    1.8322 C   0  0  0  0  0  0  0  0  0  0  0  0
    2.6728    0.6990   -0.1912 H   0  0  0  0  0  0  0  0  0  0  0  0
    2.7966   -0.5149   -1.4902 H   0  0  0  0  0  0  0  0  0  0  0  0
    2.7393   -1.0702    0.2466 H   0  0  0  0  0  0  0  0  0  0  0  0
    0.4455   -1.2071   -2.4967 H   0  0  0  0  0  0  0  0  0  0  0  0
   -1.5611   -1.7572   -0.5923 H   0  0  0  0  0  0  0  0  0  0  0  0
   -2.0199   -0.6000   -1.9547 H   0  0  0  0  0  0  0  0  0  0  0  0
   -2.1527    0.2080    0.6391 H   0  0  0  0  0  0  0  0  0  0  0  0
   -0.2943    1.7037   -1.2763 H   0  0  0  0  0  0  0  0  0  0  0  0
   -1.2155    2.4013    0.0954 H   0  0  0  0  0  0  0  0  0  0  0  0
   -2.0989    1.7807   -1.4067 H   0  0  0  0  0  0  0  0  0  0  0  0
    1.5481    0.6037    2.0049 H   0  0  0  0  0  0  0  0  0  0  0  0
   -0.1208    1.3094    2.3720 H   0  0  0  0  0  0  0  0  0  0  0  0
   -1.1151   -0.9701    2.3024 H   0  0  0  0  0  0  0  0  0  0  0  0
    0.6178   -1.7021    1.9633 H   0  0  0  0  0  0  0  0  0  0  0  0
  1  2  1  0
  2  3  2  0
  3  4  1  0
  4  5  1  0
  5  6  1  0
  5  7  1  0
  7  8  1  0
  8  9  1  0
  7  2  1  0
  9  7  1  0
  1 10  1  0
  1 11  1  0
  1 12  1  0
  3 13  1  0
  4 14  1  0
  4 15  1  0
  5 16  1  0
  6 17  1  0
  6 18  1  0
  6 19  1  0
  8 20  1  0
  8 21  1  0
  9 22  1  0
  9 23  1  0
M  END
