
     RDKit          3D

 21 22  0  0  0  0  0  0  0  0999 V2000
    2.8122    0.2472    0.4696 C   0  0  0  0  0  0  0  0  0  0  0  0
    1.4967    0.2103   -0.2213 C   0  0  0  0  0  0  0  0  0  0  0  0
    0.8140    1.2953   -0.5759 C   0  0  0  0  0  0  0  0  0  0  0  0
   -0.4744    0.7575   -1.1260 C   0  0  0  0  0  0  0  0  0  0  0  0
    0.0268   -0.3992   -1.7729 O   0  0  0  0  0  0  0  0  0  0  0  0
    0.6968   -0.9406   -0.6455 C   0  0  0  0  0  0  0  0  0  0  0  0
   -0.5264   -1.1418    0.2592 C   0  0  0  0  0  0  0  0  0  0  0  0
   -1.2530    0.1865    0.0053 C   0  0  0  0  0  0  0  0  0  0  0  0
   -2.7042   -0.0611   -0.3427 C   0  0  0  0  0  0  0  0  0  0  0  0
    3.0353    1.2230    0.9028 H   0  0  0  0  0  0  0  0  0  0  0  0
    2.8747   -0.5078    1.2864 H   0  0  0  0  0  0  0  0  0  0  0  0
    3.6587   -0.0071   -0.2261 H   0  0  0  0  0  0  0  0  0  0  0  0
    1.0723    2.3381   -0.5086 H   0  0  0  0  0  0  0  0  0  0  0  0
   -0.9879    1.4305   -1.7860 H   0  0  0  0  0  0  0  0  0  0  0  0
    1.2264   -1.8520   -0.8609 H   0  0  0  0  0  0  0  0  0  0  0  0
   -0.2546   -1.2719    1.3025 H   0  0  0  0  0  0  0  0  0  0  0  0
   -1.1468   -1.9273   -0.1784 H   0  0  0  0  0  0  0  0  0  0  0  0
   -1.2279    0.8396    0.8768 H   0  0  0  0  0  0  0  0  0  0  0  0
   -2.8231   -0.6734   -1.2646 H   0  0  0  0  0  0  0  0  0  0  0  0
   -3.1334   -0.6798    0.4809 H   0  0  0  0  0  0  0  0  0  0  0  0
   -3.1820    0.9339   -0.4222 H   0  0  0  0  0  0  0  0  0  0  0  0
  1  2  1  0
  2  3  2  0
  3  4  1  0
  4  5  1  0
  5  6  1  0
  6  7  1  0
  7  8  1  0
  8  9  1  0
  6  2  1  0
  8  4  1  0
  1 10  1  0
  1 11  1  0
  1 12  1  0
  3 13  1  0
  4 14  1  0
  6 15  1  0
  7 16  1  0
  7 17  1  0
  8 18  1  0
  9 19  1  0
  9 20  1  0
  9 21  1  0
M  END
