
     RDKit          3D

 19 20  0  0  0  0  0  0  0  0999 V2000
   -2.0134   -1.0287    0.3537 C   0  0  0  0  0  0  0  0  0  0  0  0
   -0.6605   -0.5568    0.0027 C   0  0  0  0  0  0  0  0  0  0  0  0
    0.4163   -1.3221   -0.1018 C   0  0  0  0  0  0  0  0  0  0  0  0
    1.6129   -0.5396   -0.4682 C   0  0  0  0  0  0  0  0  0  0  0  0
    2.6470   -0.9127    0.3790 O   0  0  0  0  0  0  0  0  0  0  0  0
    1.2039    0.8921   -0.3230 C   0  0  0  0  0  0  0  0  0  0  0  0
   -0.2858    0.8249   -0.2863 C   0  0  0  0  0  0  0  0  0  0  0  0
   -0.9886    1.9931    0.2892 C   0  0  0  0  0  0  0  0  0  0  0  0
   -1.0850    1.6346   -1.0323 O   0  0  0  0  0  0  0  0  0  0  0  0
   -2.8188   -0.4990   -0.1806 H   0  0  0  0  0  0  0  0  0  0  0  0
   -2.0950   -2.1310    0.1328 H   0  0  0  0  0  0  0  0  0  0  0  0
   -2.1283   -0.8915    1.4572 H   0  0  0  0  0  0  0  0  0  0  0  0
    0.4321   -2.4062    0.0612 H   0  0  0  0  0  0  0  0  0  0  0  0
    1.8626   -0.7201   -1.5372 H   0  0  0  0  0  0  0  0  0  0  0  0
    2.8768   -1.8497    0.1560 H   0  0  0  0  0  0  0  0  0  0  0  0
    1.6187    1.5740   -1.0596 H   0  0  0  0  0  0  0  0  0  0  0  0
    1.5477    1.2286    0.6927 H   0  0  0  0  0  0  0  0  0  0  0  0
   -1.7643    1.7794    1.0206 H   0  0  0  0  0  0  0  0  0  0  0  0
   -0.3786    2.9309    0.4440 H   0  0  0  0  0  0  0  0  0  0  0  0
  1  2  1  0
  2  3  2  0
  3  4  1  0
  4  5  1  0
  4  6  1  0
  6  7  1  0
  7  8  1  0
  8  9  1  0
  7  2  1  0
  9  7  1  0
  1 10  1  0
  1 11  1  0
  1 12  1  0
  3 13  1  0
  4 14  1  0
  5 15  1  0
  6 16  1  0
  6 17  1  0
  8 18  1  0
  8 19  1  0
M  END
