
     RDKit          3D

 19 21  0  0  0  0  0  0  0  0999 V2000
   -2.8133   -0.4042   -0.4050 C   0  0  0  0  0  0  0  0  0  0  0  0
   -1.3942    0.0425   -0.2588 C   0  0  0  0  0  0  0  0  0  0  0  0
   -0.7268    0.8647   -1.0350 C   0  0  0  0  0  0  0  0  0  0  0  0
    0.6378    1.0199   -0.5153 C   0  0  0  0  0  0  0  0  0  0  0  0
    0.5424    0.5975    0.8846 C   0  0  0  0  0  0  0  0  0  0  0  0
   -0.5189   -0.4405    0.8736 C   0  0  0  0  0  0  0  0  0  0  0  0
    0.4176   -1.3321    0.3540 O   0  0  0  0  0  0  0  0  0  0  0  0
    1.2386   -0.3141   -0.0295 C   0  0  0  0  0  0  0  0  0  0  0  0
    2.7237   -0.4533   -0.0745 C   0  0  0  0  0  0  0  0  0  0  0  0
   -3.2351   -0.0734   -1.3707 H   0  0  0  0  0  0  0  0  0  0  0  0
   -3.4143    0.0487    0.4097 H   0  0  0  0  0  0  0  0  0  0  0  0
   -2.8837   -1.5166   -0.3492 H   0  0  0  0  0  0  0  0  0  0  0  0
   -1.1200    1.3514   -1.9184 H   0  0  0  0  0  0  0  0  0  0  0  0
    1.3297    1.7547   -0.9011 H   0  0  0  0  0  0  0  0  0  0  0  0
    0.9422    1.0810    1.7462 H   0  0  0  0  0  0  0  0  0  0  0  0
   -1.0253   -0.7092    1.7870 H   0  0  0  0  0  0  0  0  0  0  0  0
    3.1897   -0.7754    0.8521 H   0  0  0  0  0  0  0  0  0  0  0  0
    2.9627   -1.2335   -0.8534 H   0  0  0  0  0  0  0  0  0  0  0  0
    3.1472    0.4917   -0.4745 H   0  0  0  0  0  0  0  0  0  0  0  0
  1  2  1  0
  2  3  2  0
  3  4  1  0
  4  5  1  0
  5  6  1  0
  6  7  1  0
  7  8  1  0
  8  9  1  0
  6  2  1  0
  8  4  1  0
  8  5  1  0
  1 10  1  0
  1 11  1  0
  1 12  1  0
  3 13  1  0
  4 14  1  0
  5 15  1  0
  6 16  1  0
  9 17  1  0
  9 18  1  0
  9 19  1  0
M  END
