
     RDKit          3D

 20 20  0  0  0  0  0  0  0  0999 V2000
    2.7147    0.3300   -0.1139 C   0  0  0  0  0  0  0  0  0  0  0  0
    1.2676   -0.0616   -0.0497 C   0  0  0  0  0  0  0  0  0  0  0  0
    0.7590   -1.2813   -0.0813 C   0  0  0  0  0  0  0  0  0  0  0  0
   -0.7139   -1.2354    0.0063 C   0  0  0  0  0  0  0  0  0  0  0  0
   -0.9877    0.1493    0.5435 C   0  0  0  0  0  0  0  0  0  0  0  0
   -2.3052    0.6198    0.0217 C   0  0  0  0  0  0  0  0  0  0  0  0
   -1.0439    0.1550    1.9342 O   0  0  0  0  0  0  0  0  0  0  0  0
    0.1823    0.9523    0.0640 C   0  0  0  0  0  0  0  0  0  0  0  0
    3.2805   -0.4392   -0.7068 H   0  0  0  0  0  0  0  0  0  0  0  0
    2.8392    1.3005   -0.6772 H   0  0  0  0  0  0  0  0  0  0  0  0
    3.0820    0.4250    0.9185 H   0  0  0  0  0  0  0  0  0  0  0  0
    1.3165   -2.2274   -0.1610 H   0  0  0  0  0  0  0  0  0  0  0  0
   -1.2094   -1.4188   -0.9740 H   0  0  0  0  0  0  0  0  0  0  0  0
   -1.1009   -1.9561    0.7659 H   0  0  0  0  0  0  0  0  0  0  0  0
   -2.2699    0.9736   -1.0350 H   0  0  0  0  0  0  0  0  0  0  0  0
   -2.7176    1.4420    0.6464 H   0  0  0  0  0  0  0  0  0  0  0  0
   -3.0247   -0.2334    0.0915 H   0  0  0  0  0  0  0  0  0  0  0  0
   -0.5899   -0.6636    2.2560 H   0  0  0  0  0  0  0  0  0  0  0  0
    0.0206    1.4849   -0.8687 H   0  0  0  0  0  0  0  0  0  0  0  0
    0.5009    1.6843    0.8483 H   0  0  0  0  0  0  0  0  0  0  0  0
  1  2  1  0
  2  3  2  0
  3  4  1  0
  4  5  1  0
  5  6  1  0
  5  7  1  0
  5  8  1  0
  8  2  1  0
  1  9  1  0
  1 10  1  0
  1 11  1  0
  3 12  1  0
  4 13  1  0
  4 14  1  0
  6 15  1  0
  6 16  1  0
  6 17  1  0
  7 18  1  0
  8 19  1  0
  8 20  1  0
M  END
