
     RDKit          3D

 18 19  0  0  0  0  0  0  0  0999 V2000
   -2.4677    0.4436    0.1193 C   0  0  0  0  0  0  0  0  0  0  0  0
   -1.0197    0.0743    0.2136 C   0  0  0  0  0  0  0  0  0  0  0  0
   -0.0278    0.7465    0.7642 C   0  0  0  0  0  0  0  0  0  0  0  0
    1.2751    0.0397    0.6499 C   0  0  0  0  0  0  0  0  0  0  0  0
    2.1082    0.7522   -0.3900 C   0  0  0  0  0  0  0  0  0  0  0  0
    1.2386    0.1575   -1.3471 O   0  0  0  0  0  0  0  0  0  0  0  0
    0.9886   -0.9043   -0.4931 C   0  0  0  0  0  0  0  0  0  0  0  0
   -0.4544   -1.1850   -0.3141 C   0  0  0  0  0  0  0  0  0  0  0  0
   -2.8332    0.1259   -0.8791 H   0  0  0  0  0  0  0  0  0  0  0  0
   -2.6547    1.5059    0.2282 H   0  0  0  0  0  0  0  0  0  0  0  0
   -3.0148   -0.0878    0.9237 H   0  0  0  0  0  0  0  0  0  0  0  0
   -0.1360    1.7093    1.2501 H   0  0  0  0  0  0  0  0  0  0  0  0
    1.7507   -0.3387    1.5337 H   0  0  0  0  0  0  0  0  0  0  0  0
    3.1398    0.3708   -0.4375 H   0  0  0  0  0  0  0  0  0  0  0  0
    1.9893    1.8532   -0.3316 H   0  0  0  0  0  0  0  0  0  0  0  0
    1.6730   -1.7636   -0.5855 H   0  0  0  0  0  0  0  0  0  0  0  0
   -0.6426   -2.0463    0.3850 H   0  0  0  0  0  0  0  0  0  0  0  0
   -0.9125   -1.4532   -1.2898 H   0  0  0  0  0  0  0  0  0  0  0  0
  1  2  1  0
  2  3  2  0
  3  4  1  0
  4  5  1  0
  5  6  1  0
  6  7  1  0
  7  8  1  0
  8  2  1  0
  7  4  1  0
  1  9  1  0
  1 10  1  0
  1 11  1  0
  3 12  1  0
  4 13  1  0
  5 14  1  0
  5 15  1  0
  7 16  1  0
  8 17  1  0
  8 18  1  0
M  END
