
     RDKit          3D

 17 18  0  0  0  0  0  0  0  0999 V2000
    2.3528    0.6285    0.2988 C   0  0  0  0  0  0  0  0  0  0  0  0
    0.9762    0.2019   -0.1473 C   0  0  0  0  0  0  0  0  0  0  0  0
    0.0005    0.9737   -0.5939 C   0  0  0  0  0  0  0  0  0  0  0  0
   -1.1670    0.1587   -0.9172 C   0  0  0  0  0  0  0  0  0  0  0  0
   -2.3367    0.4362   -0.0229 C   0  0  0  0  0  0  0  0  0  0  0  0
   -2.2638    0.9977    1.0408 O   0  0  0  0  0  0  0  0  0  0  0  0
   -0.7359   -1.2547   -0.6141 C   0  0  0  0  0  0  0  0  0  0  0  0
   -0.5614   -1.3816    0.8567 O   0  0  0  0  0  0  0  0  0  0  0  0
    0.5341   -1.2143   -0.1359 C   0  0  0  0  0  0  0  0  0  0  0  0
    2.4272    1.7332    0.3659 H   0  0  0  0  0  0  0  0  0  0  0  0
    3.1045    0.1935   -0.3923 H   0  0  0  0  0  0  0  0  0  0  0  0
    2.4721    0.1929    1.3180 H   0  0  0  0  0  0  0  0  0  0  0  0
    0.1249    2.0772   -0.6830 H   0  0  0  0  0  0  0  0  0  0  0  0
   -1.4881    0.2359   -1.9791 H   0  0  0  0  0  0  0  0  0  0  0  0
   -3.3013    0.0986   -0.3809 H   0  0  0  0  0  0  0  0  0  0  0  0
   -1.4197   -2.0708   -0.9185 H   0  0  0  0  0  0  0  0  0  0  0  0
    1.2816   -2.0066    0.0794 H   0  0  0  0  0  0  0  0  0  0  0  0
  1  2  1  0
  2  3  2  0
  3  4  1  0
  4  5  1  0
  5  6  2  0
  4  7  1  0
  7  8  1  0
  8  9  1  0
  9  2  1  0
  9  7  1  0
  1 10  1  0
  1 11  1  0
  1 12  1  0
  3 13  1  0
  4 14  1  0
  5 15  1  0
  7 16  1  0
  9 17  1  0
M  END
