
     RDKit          3D

 19 19  0  0  0  0  0  0  0  0999 V2000
    1.7759    1.2423   -0.5948 C   0  0  0  0  0  0  0  0  0  0  0  0
    0.7796    0.2292   -0.1554 C   0  0  0  0  0  0  0  0  0  0  0  0
   -0.4486    0.4908    0.2204 C   0  0  0  0  0  0  0  0  0  0  0  0
   -1.0698    1.8289    0.2772 C   0  0  0  0  0  0  0  0  0  0  0  0
   -0.4764    2.8796   -0.0346 O   0  0  0  0  0  0  0  0  0  0  0  0
   -1.0983   -0.7863    0.5853 C   0  0  0  0  0  0  0  0  0  0  0  0
   -2.4542   -0.7406    0.2845 O   0  0  0  0  0  0  0  0  0  0  0  0
   -0.3553   -1.7776   -0.2788 C   0  0  0  0  0  0  0  0  0  0  0  0
    1.0561   -1.2489   -0.0941 C   0  0  0  0  0  0  0  0  0  0  0  0
    2.0007    1.9178    0.2468 H   0  0  0  0  0  0  0  0  0  0  0  0
    2.7159    0.7602   -0.9238 H   0  0  0  0  0  0  0  0  0  0  0  0
    1.3325    1.8681   -1.4138 H   0  0  0  0  0  0  0  0  0  0  0  0
   -2.0905    1.8855    0.6073 H   0  0  0  0  0  0  0  0  0  0  0  0
   -0.9313   -1.0401    1.6676 H   0  0  0  0  0  0  0  0  0  0  0  0
   -2.8551   -0.0704    0.8941 H   0  0  0  0  0  0  0  0  0  0  0  0
   -0.4733   -2.8181    0.0389 H   0  0  0  0  0  0  0  0  0  0  0  0
   -0.6194   -1.5969   -1.3409 H   0  0  0  0  0  0  0  0  0  0  0  0
    1.4711   -1.4805    0.9025 H   0  0  0  0  0  0  0  0  0  0  0  0
    1.7405   -1.5431   -0.8885 H   0  0  0  0  0  0  0  0  0  0  0  0
  1  2  1  0
  2  3  2  0
  3  4  1  0
  4  5  2  0
  3  6  1  0
  6  7  1  0
  6  8  1  0
  8  9  1  0
  9  2  1  0
  1 10  1  0
  1 11  1  0
  1 12  1  0
  4 13  1  0
  6 14  1  0
  7 15  1  0
  8 16  1  0
  8 17  1  0
  9 18  1  0
  9 19  1  0
M  END
