
     RDKit          3D

 17 19  0  0  0  0  0  0  0  0999 V2000
    2.3034   -0.1495   -0.0738 C   0  0  0  0  0  0  0  0  0  0  0  0
    0.8260   -0.1954   -0.0504 C   0  0  0  0  0  0  0  0  0  0  0  0
    0.1367   -1.2495   -0.5287 C   0  0  0  0  0  0  0  0  0  0  0  0
   -1.3444   -1.0231   -0.5351 C   0  0  0  0  0  0  0  0  0  0  0  0
   -1.5319    0.2067   -1.1989 O   0  0  0  0  0  0  0  0  0  0  0  0
   -1.2433    1.1657   -0.2592 C   0  0  0  0  0  0  0  0  0  0  0  0
   -1.2967    0.4879    1.0599 C   0  0  0  0  0  0  0  0  0  0  0  0
   -1.7208   -0.7822    0.7696 O   0  0  0  0  0  0  0  0  0  0  0  0
   -0.0145    0.9067    0.4976 C   0  0  0  0  0  0  0  0  0  0  0  0
    2.6229   -0.5607   -1.0605 H   0  0  0  0  0  0  0  0  0  0  0  0
    2.7557   -0.6584    0.7806 H   0  0  0  0  0  0  0  0  0  0  0  0
    2.5970    0.9197   -0.0172 H   0  0  0  0  0  0  0  0  0  0  0  0
    0.6058   -2.1553   -0.8688 H   0  0  0  0  0  0  0  0  0  0  0  0
   -1.8939   -1.8345   -1.0278 H   0  0  0  0  0  0  0  0  0  0  0  0
   -1.6730    2.1740   -0.3836 H   0  0  0  0  0  0  0  0  0  0  0  0
   -1.6454    1.0033    1.9638 H   0  0  0  0  0  0  0  0  0  0  0  0
    0.5165    1.7446    0.9325 H   0  0  0  0  0  0  0  0  0  0  0  0
  1  2  1  0
  2  3  2  0
  3  4  1  0
  4  5  1  0
  5  6  1  0
  6  7  1  0
  7  8  1  0
  7  9  1  0
  9  2  1  0
  8  4  1  0
  9  6  1  0
  1 10  1  0
  1 11  1  0
  1 12  1  0
  3 13  1  0
  4 14  1  0
  6 15  1  0
  7 16  1  0
  9 17  1  0
M  END
