
     RDKit          3D

 21 21  0  0  0  0  0  0  0  0999 V2000
   -2.0313    1.1447    0.5801 C   0  0  0  0  0  0  0  0  0  0  0  0
   -0.6881    0.7162    0.1289 C   0  0  0  0  0  0  0  0  0  0  0  0
    0.2374    1.6345   -0.0963 C   0  0  0  0  0  0  0  0  0  0  0  0
    1.6332    1.4766   -0.5452 C   0  0  0  0  0  0  0  0  0  0  0  0
    2.3831    0.4025   -0.3681 C   0  0  0  0  0  0  0  0  0  0  0  0
    2.0652   -0.8819    0.2929 C   0  0  0  0  0  0  0  0  0  0  0  0
    0.6968   -1.3586    0.0359 C   0  0  0  0  0  0  0  0  0  0  0  0
   -0.4697   -0.7349   -0.0406 C   0  0  0  0  0  0  0  0  0  0  0  0
   -1.6919   -1.5311   -0.3143 C   0  0  0  0  0  0  0  0  0  0  0  0
   -2.0581    1.1982    1.6884 H   0  0  0  0  0  0  0  0  0  0  0  0
   -2.8273    0.4773    0.1760 H   0  0  0  0  0  0  0  0  0  0  0  0
   -2.2859    2.1638    0.2126 H   0  0  0  0  0  0  0  0  0  0  0  0
   -0.0781    2.6578    0.0751 H   0  0  0  0  0  0  0  0  0  0  0  0
    2.0673    2.3274   -1.0641 H   0  0  0  0  0  0  0  0  0  0  0  0
    3.3923    0.5147   -0.7890 H   0  0  0  0  0  0  0  0  0  0  0  0
    2.1915   -0.7739    1.4091 H   0  0  0  0  0  0  0  0  0  0  0  0
    2.7913   -1.6331   -0.0741 H   0  0  0  0  0  0  0  0  0  0  0  0
    0.5833   -2.4366   -0.1289 H   0  0  0  0  0  0  0  0  0  0  0  0
   -2.4263   -1.4940    0.5145 H   0  0  0  0  0  0  0  0  0  0  0  0
   -2.1246   -1.2728   -1.2989 H   0  0  0  0  0  0  0  0  0  0  0  0
   -1.3602   -2.5967   -0.3940 H   0  0  0  0  0  0  0  0  0  0  0  0
  1  2  1  0
  2  3  2  0
  3  4  1  0
  4  5  2  0
  5  6  1  0
  6  7  1  0
  7  8  2  0
  8  9  1  0
  8  2  1  0
  1 10  1  0
  1 11  1  0
  1 12  1  0
  3 13  1  0
  4 14  1  0
  5 15  1  0
  6 16  1  0
  6 17  1  0
  7 18  1  0
  9 19  1  0
  9 20  1  0
  9 21  1  0
M  END
