
     RDKit          3D

 18 18  0  0  0  0  0  0  0  0999 V2000
   -2.3614   -0.3491    0.1333 C   0  0  0  0  0  0  0  0  0  0  0  0
   -0.9523    0.1267    0.1069 C   0  0  0  0  0  0  0  0  0  0  0  0
   -0.4795    1.0429   -0.7036 C   0  0  0  0  0  0  0  0  0  0  0  0
    0.9820    1.2618   -0.4401 C   0  0  0  0  0  0  0  0  0  0  0  0
    1.3616    0.0049    0.3003 C   0  0  0  0  0  0  0  0  0  0  0  0
    1.7706   -1.0863   -0.6174 C   0  0  0  0  0  0  0  0  0  0  0  0
    2.0268   -2.1660   -0.1145 O   0  0  0  0  0  0  0  0  0  0  0  0
    0.0976   -0.3854    1.0061 C   0  0  0  0  0  0  0  0  0  0  0  0
   -2.6965   -0.4455   -0.9175 H   0  0  0  0  0  0  0  0  0  0  0  0
   -2.9788    0.3996    0.6947 H   0  0  0  0  0  0  0  0  0  0  0  0
   -2.4756   -1.3151    0.6254 H   0  0  0  0  0  0  0  0  0  0  0  0
   -1.0462    1.5738   -1.4583 H   0  0  0  0  0  0  0  0  0  0  0  0
    1.5519    1.4113   -1.3599 H   0  0  0  0  0  0  0  0  0  0  0  0
    1.0582    2.1112    0.2632 H   0  0  0  0  0  0  0  0  0  0  0  0
    2.1551    0.1386    1.0337 H   0  0  0  0  0  0  0  0  0  0  0  0
    1.8531   -0.9786   -1.6930 H   0  0  0  0  0  0  0  0  0  0  0  0
    0.0861    0.1357    1.9911 H   0  0  0  0  0  0  0  0  0  0  0  0
    0.0473   -1.4805    1.1496 H   0  0  0  0  0  0  0  0  0  0  0  0
  1  2  1  0
  2  3  2  0
  3  4  1  0
  4  5  1  0
  5  6  1  0
  6  7  2  0
  5  8  1  0
  8  2  1  0
  1  9  1  0
  1 10  1  0
  1 11  1  0
  3 12  1  0
  4 13  1  0
  4 14  1  0
  5 15  1  0
  6 16  1  0
  8 17  1  0
  8 18  1  0
M  END
