
     RDKit          3D

 21 21  0  0  0  0  0  0  0  0999 V2000
    2.7673   -0.1849   -0.2327 C   0  0  0  0  0  0  0  0  0  0  0  0
    1.3079    0.0802   -0.2088 C   0  0  0  0  0  0  0  0  0  0  0  0
    0.4637   -0.9275   -0.2272 C   0  0  0  0  0  0  0  0  0  0  0  0
   -0.9970   -0.8041   -0.2072 C   0  0  0  0  0  0  0  0  0  0  0  0
   -1.5570   -1.3778    1.0892 C   0  0  0  0  0  0  0  0  0  0  0  0
   -1.5178    0.5546   -0.5028 C   0  0  0  0  0  0  0  0  0  0  0  0
   -0.6634    1.6858   -0.0770 C   0  0  0  0  0  0  0  0  0  0  0  0
    0.7902    1.4219   -0.1657 C   0  0  0  0  0  0  0  0  0  0  0  0
    1.6049    2.3810   -0.2053 O   0  0  0  0  0  0  0  0  0  0  0  0
    2.9759   -1.2581   -0.1953 H   0  0  0  0  0  0  0  0  0  0  0  0
    3.2312    0.3273    0.6498 H   0  0  0  0  0  0  0  0  0  0  0  0
    3.1580    0.2624   -1.1745 H   0  0  0  0  0  0  0  0  0  0  0  0
    0.8750   -1.9274   -0.2595 H   0  0  0  0  0  0  0  0  0  0  0  0
   -1.3813   -1.4922   -1.0183 H   0  0  0  0  0  0  0  0  0  0  0  0
   -1.5839   -0.6469    1.9021 H   0  0  0  0  0  0  0  0  0  0  0  0
   -2.5473   -1.8314    0.8813 H   0  0  0  0  0  0  0  0  0  0  0  0
   -0.8866   -2.2300    1.3656 H   0  0  0  0  0  0  0  0  0  0  0  0
   -2.5262    0.6825   -0.0112 H   0  0  0  0  0  0  0  0  0  0  0  0
   -1.7460    0.6749   -1.6022 H   0  0  0  0  0  0  0  0  0  0  0  0
   -0.8609    2.5656   -0.7468 H   0  0  0  0  0  0  0  0  0  0  0  0
   -0.9068    2.0441    0.9464 H   0  0  0  0  0  0  0  0  0  0  0  0
  1  2  1  0
  2  3  2  0
  3  4  1  0
  4  5  1  0
  4  6  1  0
  6  7  1  0
  7  8  1  0
  8  9  2  0
  8  2  1  0
  1 10  1  0
  1 11  1  0
  1 12  1  0
  3 13  1  0
  4 14  1  0
  5 15  1  0
  5 16  1  0
  5 17  1  0
  6 18  1  0
  6 19  1  0
  7 20  1  0
  7 21  1  0
M  END
