
     RDKit          3D

 21 23  0  0  0  0  0  0  0  0999 V2000
   -2.6422    0.7977    0.6888 C   0  0  0  0  0  0  0  0  0  0  0  0
   -1.4346    0.1756    0.0990 C   0  0  0  0  0  0  0  0  0  0  0  0
   -1.2978   -1.1185   -0.1708 C   0  0  0  0  0  0  0  0  0  0  0  0
    0.0202   -1.4154   -0.7511 C   0  0  0  0  0  0  0  0  0  0  0  0
    1.0837   -1.3245    0.3500 C   0  0  0  0  0  0  0  0  0  0  0  0
    1.0806    0.1790    0.1069 C   0  0  0  0  0  0  0  0  0  0  0  0
    2.3297    0.9651    0.3026 C   0  0  0  0  0  0  0  0  0  0  0  0
   -0.1662    0.8683   -0.2968 C   0  0  0  0  0  0  0  0  0  0  0  0
    0.4822   -0.0650   -1.2053 C   0  0  0  0  0  0  0  0  0  0  0  0
   -3.5877    0.2884    0.3517 H   0  0  0  0  0  0  0  0  0  0  0  0
   -2.6138    0.8083    1.8048 H   0  0  0  0  0  0  0  0  0  0  0  0
   -2.7578    1.8575    0.3636 H   0  0  0  0  0  0  0  0  0  0  0  0
   -2.0583   -1.8657    0.0116 H   0  0  0  0  0  0  0  0  0  0  0  0
    0.1156   -2.2497   -1.4291 H   0  0  0  0  0  0  0  0  0  0  0  0
    0.7546   -1.6481    1.3370 H   0  0  0  0  0  0  0  0  0  0  0  0
    2.0002   -1.8376   -0.0235 H   0  0  0  0  0  0  0  0  0  0  0  0
    2.9479    0.5526    1.1290 H   0  0  0  0  0  0  0  0  0  0  0  0
    2.0521    2.0082    0.5762 H   0  0  0  0  0  0  0  0  0  0  0  0
    2.9002    0.9512   -0.6698 H   0  0  0  0  0  0  0  0  0  0  0  0
   -0.1230    1.9392   -0.4115 H   0  0  0  0  0  0  0  0  0  0  0  0
    0.9144    0.1335   -2.1633 H   0  0  0  0  0  0  0  0  0  0  0  0
  1  2  1  0
  2  3  2  0
  3  4  1  0
  4  5  1  0
  5  6  1  0
  6  7  1  0
  6  8  1  0
  8  9  1  0
  8  2  1  0
  9  4  1  0
  9  6  1  0
  1 10  1  0
  1 11  1  0
  1 12  1  0
  3 13  1  0
  4 14  1  0
  5 15  1  0
  5 16  1  0
  7 17  1  0
  7 18  1  0
  7 19  1  0
  8 20  1  0
  9 21  1  0
M  END
