
     RDKit          3D

 19 20  0  0  0  0  0  0  0  0999 V2000
    2.5444    0.2435    0.0697 C   0  0  0  0  0  0  0  0  0  0  0  0
    1.1041   -0.0063    0.1178 C   0  0  0  0  0  0  0  0  0  0  0  0
    0.5976   -0.7091    1.1314 C   0  0  0  0  0  0  0  0  0  0  0  0
   -0.8472   -0.9567    1.1745 C   0  0  0  0  0  0  0  0  0  0  0  0
   -1.3702   -1.3548    2.2251 O   0  0  0  0  0  0  0  0  0  0  0  0
   -1.5353   -0.7001   -0.0621 C   0  0  0  0  0  0  0  0  0  0  0  0
   -2.3894    0.3064   -0.5502 C   0  0  0  0  0  0  0  0  0  0  0  0
   -1.0821    0.7806   -0.3613 C   0  0  0  0  0  0  0  0  0  0  0  0
    0.2337    0.5464   -0.9890 C   0  0  0  0  0  0  0  0  0  0  0  0
    3.0652   -0.7228    0.2257 H   0  0  0  0  0  0  0  0  0  0  0  0
    2.8921    0.6663   -0.8760 H   0  0  0  0  0  0  0  0  0  0  0  0
    2.8230    0.9094    0.9297 H   0  0  0  0  0  0  0  0  0  0  0  0
    1.2793   -1.0862    1.9123 H   0  0  0  0  0  0  0  0  0  0  0  0
   -1.2098   -1.4734   -0.8298 H   0  0  0  0  0  0  0  0  0  0  0  0
   -2.8132    0.2066   -1.5859 H   0  0  0  0  0  0  0  0  0  0  0  0
   -3.2126    0.6875    0.1183 H   0  0  0  0  0  0  0  0  0  0  0  0
   -0.9246    1.4383    0.5506 H   0  0  0  0  0  0  0  0  0  0  0  0
    0.6813    1.4475   -1.4230 H   0  0  0  0  0  0  0  0  0  0  0  0
    0.1634   -0.2231   -1.7777 H   0  0  0  0  0  0  0  0  0  0  0  0
  1  2  1  0
  2  3  2  0
  3  4  1  0
  4  5  2  0
  4  6  1  0
  6  7  1  0
  7  8  1  0
  8  9  1  0
  9  2  1  0
  8  6  1  0
  1 10  1  0
  1 11  1  0
  1 12  1  0
  3 13  1  0
  6 14  1  0
  7 15  1  0
  7 16  1  0
  8 17  1  0
  9 18  1  0
  9 19  1  0
M  END
