
     RDKit          3D

 21 22  0  0  0  0  0  0  0  0999 V2000
    0.9034    2.1399    0.0953 C   0  0  0  0  0  0  0  0  0  0  0  0
    0.3683    0.7584    0.1546 C   0  0  0  0  0  0  0  0  0  0  0  0
   -0.8192    0.3554   -0.2289 C   0  0  0  0  0  0  0  0  0  0  0  0
   -2.1939    0.1070   -0.7143 C   0  0  0  0  0  0  0  0  0  0  0  0
   -2.2210   -0.9597    0.4154 C   0  0  0  0  0  0  0  0  0  0  0  0
   -0.7831   -1.1546    0.0080 C   0  0  0  0  0  0  0  0  0  0  0  0
    0.1670   -1.3190    0.9987 O   0  0  0  0  0  0  0  0  0  0  0  0
    1.1723   -0.3895    0.7220 C   0  0  0  0  0  0  0  0  0  0  0  0
    2.1834   -0.8445   -0.2641 C   0  0  0  0  0  0  0  0  0  0  0  0
    1.0393    2.4365   -0.9597 H   0  0  0  0  0  0  0  0  0  0  0  0
    1.8363    2.2670    0.6451 H   0  0  0  0  0  0  0  0  0  0  0  0
    0.1639    2.8477    0.5600 H   0  0  0  0  0  0  0  0  0  0  0  0
   -2.2012   -0.3989   -1.6850 H   0  0  0  0  0  0  0  0  0  0  0  0
   -2.9241    0.9136   -0.5597 H   0  0  0  0  0  0  0  0  0  0  0  0
   -2.9020   -1.7799    0.2061 H   0  0  0  0  0  0  0  0  0  0  0  0
   -2.2774   -0.4729    1.3930 H   0  0  0  0  0  0  0  0  0  0  0  0
   -0.6405   -1.7237   -0.9207 H   0  0  0  0  0  0  0  0  0  0  0  0
    1.6759    0.0042    1.6169 H   0  0  0  0  0  0  0  0  0  0  0  0
    1.7708   -1.4016   -1.1168 H   0  0  0  0  0  0  0  0  0  0  0  0
    2.7134    0.0443   -0.6593 H   0  0  0  0  0  0  0  0  0  0  0  0
    2.9685   -1.4295    0.2936 H   0  0  0  0  0  0  0  0  0  0  0  0
  1  2  1  0
  2  3  2  0
  3  4  1  0
  4  5  1  0
  5  6  1  0
  6  7  1  0
  7  8  1  0
  8  9  1  0
  8  2  1  0
  6  3  1  0
  1 10  1  0
  1 11  1  0
  1 12  1  0
  4 13  1  0
  4 14  1  0
  5 15  1  0
  5 16  1  0
  6 17  1  0
  8 18  1  0
  9 19  1  0
  9 20  1  0
  9 21  1  0
M  END
