
     RDKit          3D

 23 24  0  0  0  0  0  0  0  0999 V2000
    3.1251    0.3605   -0.7661 C   0  0  0  0  0  0  0  0  0  0  0  0
    1.7307    0.3009   -0.2844 C   0  0  0  0  0  0  0  0  0  0  0  0
    0.9289    1.3565   -0.2525 C   0  0  0  0  0  0  0  0  0  0  0  0
   -0.4046    0.9875    0.2783 C   0  0  0  0  0  0  0  0  0  0  0  0
   -1.2167    0.1403   -0.6581 C   0  0  0  0  0  0  0  0  0  0  0  0
   -2.7118    0.2278   -0.4319 C   0  0  0  0  0  0  0  0  0  0  0  0
   -0.4173   -0.4841    0.3999 C   0  0  0  0  0  0  0  0  0  0  0  0
   -1.1780   -1.1711    1.5150 C   0  0  0  0  0  0  0  0  0  0  0  0
    0.9948   -0.9080    0.2348 C   0  0  0  0  0  0  0  0  0  0  0  0
    3.1592    0.5287   -1.8637 H   0  0  0  0  0  0  0  0  0  0  0  0
    3.6718    1.2370   -0.3121 H   0  0  0  0  0  0  0  0  0  0  0  0
    3.7221   -0.5292   -0.4543 H   0  0  0  0  0  0  0  0  0  0  0  0
    1.1856    2.3602   -0.5645 H   0  0  0  0  0  0  0  0  0  0  0  0
   -0.9019    1.6335    1.0187 H   0  0  0  0  0  0  0  0  0  0  0  0
   -0.9305    0.0438   -1.7192 H   0  0  0  0  0  0  0  0  0  0  0  0
   -2.9269    0.6261    0.5992 H   0  0  0  0  0  0  0  0  0  0  0  0
   -3.1027    0.9974   -1.1300 H   0  0  0  0  0  0  0  0  0  0  0  0
   -3.1810   -0.7681   -0.5805 H   0  0  0  0  0  0  0  0  0  0  0  0
   -2.2570   -1.2313    1.2658 H   0  0  0  0  0  0  0  0  0  0  0  0
   -0.8034   -2.1994    1.5808 H   0  0  0  0  0  0  0  0  0  0  0  0
   -1.0457   -0.6209    2.4573 H   0  0  0  0  0  0  0  0  0  0  0  0
    1.4333   -1.1212    1.2345 H   0  0  0  0  0  0  0  0  0  0  0  0
    1.1258   -1.7668   -0.4672 H   0  0  0  0  0  0  0  0  0  0  0  0
  1  2  1  0
  2  3  2  0
  3  4  1  0
  4  5  1  0
  5  6  1  0
  5  7  1  0
  7  8  1  0
  7  9  1  0
  9  2  1  0
  7  4  1  0
  1 10  1  0
  1 11  1  0
  1 12  1  0
  3 13  1  0
  4 14  1  0
  5 15  1  0
  6 16  1  0
  6 17  1  0
  6 18  1  0
  8 19  1  0
  8 20  1  0
  8 21  1  0
  9 22  1  0
  9 23  1  0
M  END
