
     RDKit          3D

 21 21  0  0  0  0  0  0  0  0999 V2000
    2.9642    0.2981    0.3585 C   0  0  0  0  0  0  0  0  0  0  0  0
    1.5524   -0.0889    0.1851 C   0  0  0  0  0  0  0  0  0  0  0  0
    1.0990   -1.2671   -0.1509 C   0  0  0  0  0  0  0  0  0  0  0  0
   -0.3855   -1.2849   -0.2296 C   0  0  0  0  0  0  0  0  0  0  0  0
   -0.8283   -0.0166    0.4477 C   0  0  0  0  0  0  0  0  0  0  0  0
   -1.1634   -0.1882    1.7777 O   0  0  0  0  0  0  0  0  0  0  0  0
   -1.9216    0.6994   -0.3001 C   0  0  0  0  0  0  0  0  0  0  0  0
   -3.1309    0.0182   -0.2770 O   0  0  0  0  0  0  0  0  0  0  0  0
    0.4196    0.8313    0.3723 C   0  0  0  0  0  0  0  0  0  0  0  0
    3.6280   -0.6051    0.2471 H   0  0  0  0  0  0  0  0  0  0  0  0
    3.0671    0.7493    1.3647 H   0  0  0  0  0  0  0  0  0  0  0  0
    3.2401    1.0210   -0.4476 H   0  0  0  0  0  0  0  0  0  0  0  0
    1.6939   -2.1612   -0.3590 H   0  0  0  0  0  0  0  0  0  0  0  0
   -0.7607   -1.3812   -1.2649 H   0  0  0  0  0  0  0  0  0  0  0  0
   -0.7239   -2.1977    0.3127 H   0  0  0  0  0  0  0  0  0  0  0  0
   -2.0570   -0.5895    1.9067 H   0  0  0  0  0  0  0  0  0  0  0  0
   -2.0810    1.6730    0.2200 H   0  0  0  0  0  0  0  0  0  0  0  0
   -1.5805    0.9316   -1.3213 H   0  0  0  0  0  0  0  0  0  0  0  0
   -3.9030    0.6509   -0.2731 H   0  0  0  0  0  0  0  0  0  0  0  0
    0.5044    1.4317    1.3030 H   0  0  0  0  0  0  0  0  0  0  0  0
    0.3670    1.4760   -0.5346 H   0  0  0  0  0  0  0  0  0  0  0  0
  1  2  1  0
  2  3  2  0
  3  4  1  0
  4  5  1  0
  5  6  1  0
  5  7  1  0
  7  8  1  0
  5  9  1  0
  9  2  1  0
  1 10  1  0
  1 11  1  0
  1 12  1  0
  3 13  1  0
  4 14  1  0
  4 15  1  0
  6 16  1  0
  7 17  1  0
  7 18  1  0
  8 19  1  0
  9 20  1  0
  9 21  1  0
M  END
