
     RDKit          3D

 21 21  0  0  0  0  0  0  0  0999 V2000
   -2.4003   -0.8363    0.3904 C   0  0  0  0  0  0  0  0  0  0  0  0
   -1.0912   -0.3740   -0.1899 C   0  0  0  0  0  0  0  0  0  0  0  0
   -0.1869   -1.3134   -0.1041 C   0  0  0  0  0  0  0  0  0  0  0  0
    1.2409   -1.5167   -0.4635 C   0  0  0  0  0  0  0  0  0  0  0  0
    2.1278   -0.5501    0.2493 C   0  0  0  0  0  0  0  0  0  0  0  0
    2.0651    0.7206    0.5421 C   0  0  0  0  0  0  0  0  0  0  0  0
    1.1438    1.8292    0.3431 C   0  0  0  0  0  0  0  0  0  0  0  0
   -0.0886    1.8900   -0.1532 C   0  0  0  0  0  0  0  0  0  0  0  0
   -1.1186    1.0130   -0.7181 C   0  0  0  0  0  0  0  0  0  0  0  0
   -2.1607   -1.1585    1.4301 H   0  0  0  0  0  0  0  0  0  0  0  0
   -2.6830   -1.7478   -0.1696 H   0  0  0  0  0  0  0  0  0  0  0  0
   -3.1572   -0.0566    0.3939 H   0  0  0  0  0  0  0  0  0  0  0  0
   -0.5907   -2.2177    0.3694 H   0  0  0  0  0  0  0  0  0  0  0  0
    1.5768   -2.5416   -0.2179 H   0  0  0  0  0  0  0  0  0  0  0  0
    1.3319   -1.4016   -1.5576 H   0  0  0  0  0  0  0  0  0  0  0  0
    3.0466   -0.9930    0.6176 H   0  0  0  0  0  0  0  0  0  0  0  0
    2.9394    1.0435    1.0834 H   0  0  0  0  0  0  0  0  0  0  0  0
    1.5307    2.7906    0.6576 H   0  0  0  0  0  0  0  0  0  0  0  0
   -0.4305    2.9159   -0.1290 H   0  0  0  0  0  0  0  0  0  0  0  0
   -0.9855    1.0318   -1.8370 H   0  0  0  0  0  0  0  0  0  0  0  0
   -2.1097    1.4726   -0.5371 H   0  0  0  0  0  0  0  0  0  0  0  0
  1  2  1  0
  2  3  2  3
  3  4  1  0
  4  5  1  0
  5  6  2  3
  6  7  1  0
  7  8  2  3
  8  9  1  0
  9  2  1  0
  1 10  1  0
  1 11  1  0
  1 12  1  0
  3 13  1  0
  4 14  1  0
  4 15  1  0
  5 16  1  0
  6 17  1  0
  7 18  1  0
  8 19  1  0
  9 20  1  0
  9 21  1  0
M  END
