
     RDKit          3D

 21 21  0  0  0  0  0  0  0  0999 V2000
    2.5156   -1.1033    0.0213 C   0  0  0  0  0  0  0  0  0  0  0  0
    1.2760   -0.2841   -0.1127 C   0  0  0  0  0  0  0  0  0  0  0  0
    1.4161    1.0042   -0.3841 C   0  0  0  0  0  0  0  0  0  0  0  0
    0.3987    2.0528   -0.5722 C   0  0  0  0  0  0  0  0  0  0  0  0
   -0.8544    1.5672   -0.8841 O   0  0  0  0  0  0  0  0  0  0  0  0
   -1.5238    1.0184    0.2003 C   0  0  0  0  0  0  0  0  0  0  0  0
   -1.2276   -0.4404    0.2018 C   0  0  0  0  0  0  0  0  0  0  0  0
   -2.3575   -1.3925    0.3668 C   0  0  0  0  0  0  0  0  0  0  0  0
   -0.0123   -0.9582    0.0648 C   0  0  0  0  0  0  0  0  0  0  0  0
    3.3046   -0.4857    0.5052 H   0  0  0  0  0  0  0  0  0  0  0  0
    2.2960   -1.9480    0.7160 H   0  0  0  0  0  0  0  0  0  0  0  0
    2.8096   -1.5216   -0.9409 H   0  0  0  0  0  0  0  0  0  0  0  0
    2.4328    1.3642   -0.4884 H   0  0  0  0  0  0  0  0  0  0  0  0
    0.2959    2.7315    0.2995 H   0  0  0  0  0  0  0  0  0  0  0  0
    0.7316    2.6623   -1.4577 H   0  0  0  0  0  0  0  0  0  0  0  0
   -2.6081    1.2098    0.1837 H   0  0  0  0  0  0  0  0  0  0  0  0
   -1.0257    1.4455    1.1167 H   0  0  0  0  0  0  0  0  0  0  0  0
   -2.4232   -1.7957    1.3791 H   0  0  0  0  0  0  0  0  0  0  0  0
   -2.2104   -2.2230   -0.3723 H   0  0  0  0  0  0  0  0  0  0  0  0
   -3.2960   -0.8529    0.0730 H   0  0  0  0  0  0  0  0  0  0  0  0
    0.0622   -2.0506    0.0842 H   0  0  0  0  0  0  0  0  0  0  0  0
  1  2  1  0
  2  3  2  0
  3  4  1  0
  4  5  1  0
  5  6  1  0
  6  7  1  0
  7  8  1  0
  7  9  2  0
  9  2  1  0
  1 10  1  0
  1 11  1  0
  1 12  1  0
  3 13  1  0
  4 14  1  0
  4 15  1  0
  6 16  1  0
  6 17  1  0
  8 18  1  0
  8 19  1  0
  8 20  1  0
  9 21  1  0
M  END
