
     RDKit          3D

 18 18  0  0  0  0  0  0  0  0999 V2000
   -0.9572    1.8061    0.2008 C   0  0  0  0  0  0  0  0  0  0  0  0
   -0.0571    0.6419   -0.0135 C   0  0  0  0  0  0  0  0  0  0  0  0
   -0.4099   -0.6213   -0.1102 C   0  0  0  0  0  0  0  0  0  0  0  0
   -1.8181   -1.1521   -0.0223 C   0  0  0  0  0  0  0  0  0  0  0  0
    0.7724   -1.4513   -0.3182 C   0  0  0  0  0  0  0  0  0  0  0  0
    0.8334   -2.6252   -0.7755 O   0  0  0  0  0  0  0  0  0  0  0  0
    1.9420   -0.6323    0.1236 C   0  0  0  0  0  0  0  0  0  0  0  0
    1.4363    0.7694   -0.1526 C   0  0  0  0  0  0  0  0  0  0  0  0
   -1.7338    1.5723    0.9872 H   0  0  0  0  0  0  0  0  0  0  0  0
   -0.4242    2.6894    0.5674 H   0  0  0  0  0  0  0  0  0  0  0  0
   -1.4689    2.0880   -0.7505 H   0  0  0  0  0  0  0  0  0  0  0  0
   -2.4142   -0.5806    0.7193 H   0  0  0  0  0  0  0  0  0  0  0  0
   -2.2925   -1.1635   -1.0219 H   0  0  0  0  0  0  0  0  0  0  0  0
   -1.8086   -2.2100    0.3511 H   0  0  0  0  0  0  0  0  0  0  0  0
    2.0699   -0.8221    1.2065 H   0  0  0  0  0  0  0  0  0  0  0  0
    2.8396   -0.8432   -0.4702 H   0  0  0  0  0  0  0  0  0  0  0  0
    1.8023    1.4386    0.6410 H   0  0  0  0  0  0  0  0  0  0  0  0
    1.6886    1.0958   -1.1622 H   0  0  0  0  0  0  0  0  0  0  0  0
  1  2  1  0
  2  3  2  0
  3  4  1  0
  3  5  1  0
  5  6  2  0
  5  7  1  0
  7  8  1  0
  8  2  1  0
  1  9  1  0
  1 10  1  0
  1 11  1  0
  4 12  1  0
  4 13  1  0
  4 14  1  0
  7 15  1  0
  7 16  1  0
  8 17  1  0
  8 18  1  0
M  END
