
     RDKit          3D

 19 19  0  0  0  0  0  0  0  0999 V2000
    2.5733   -0.0909    0.4568 C   0  0  0  0  0  0  0  0  0  0  0  0
    1.1576    0.0623    0.0426 C   0  0  0  0  0  0  0  0  0  0  0  0
    0.6203    1.2682    0.0908 C   0  0  0  0  0  0  0  0  0  0  0  0
   -0.7877    1.3997   -0.3253 C   0  0  0  0  0  0  0  0  0  0  0  0
   -1.6165    0.2989    0.2848 C   0  0  0  0  0  0  0  0  0  0  0  0
   -1.0963   -1.0671   -0.0679 C   0  0  0  0  0  0  0  0  0  0  0  0
   -1.8490   -1.6348   -1.1169 O   0  0  0  0  0  0  0  0  0  0  0  0
    0.3468   -1.0505   -0.4094 C   0  0  0  0  0  0  0  0  0  0  0  0
    0.9128   -1.9521   -1.0726 O   0  0  0  0  0  0  0  0  0  0  0  0
    3.2199   -0.0895   -0.4547 H   0  0  0  0  0  0  0  0  0  0  0  0
    2.8715    0.7390    1.0925 H   0  0  0  0  0  0  0  0  0  0  0  0
    2.7439   -1.0253    1.0483 H   0  0  0  0  0  0  0  0  0  0  0  0
    1.2253    2.1201    0.4323 H   0  0  0  0  0  0  0  0  0  0  0  0
   -1.1490    2.3754   -0.0151 H   0  0  0  0  0  0  0  0  0  0  0  0
   -0.8797    1.3437   -1.4383 H   0  0  0  0  0  0  0  0  0  0  0  0
   -2.6813    0.4128   -0.0374 H   0  0  0  0  0  0  0  0  0  0  0  0
   -1.5902    0.4747    1.3988 H   0  0  0  0  0  0  0  0  0  0  0  0
   -1.2924   -1.7295    0.8164 H   0  0  0  0  0  0  0  0  0  0  0  0
   -2.7293   -1.8549   -0.7256 H   0  0  0  0  0  0  0  0  0  0  0  0
  1  2  1  0
  2  3  2  0
  3  4  1  0
  4  5  1  0
  5  6  1  0
  6  7  1  0
  6  8  1  0
  8  9  2  0
  8  2  1  0
  1 10  1  0
  1 11  1  0
  1 12  1  0
  3 13  1  0
  4 14  1  0
  4 15  1  0
  5 16  1  0
  5 17  1  0
  6 18  1  0
  7 19  1  0
M  END
