
     RDKit          3D

 18 18  0  0  0  0  0  0  0  0999 V2000
    2.5923   -0.1839    0.4697 C   0  0  0  0  0  0  0  0  0  0  0  0
    1.1814    0.0258    0.0145 C   0  0  0  0  0  0  0  0  0  0  0  0
    0.2174   -0.8696    0.0916 C   0  0  0  0  0  0  0  0  0  0  0  0
   -1.0105   -0.2752   -0.4612 C   0  0  0  0  0  0  0  0  0  0  0  0
   -2.2629   -0.7775    0.2093 C   0  0  0  0  0  0  0  0  0  0  0  0
   -0.7935    1.1967   -0.2216 C   0  0  0  0  0  0  0  0  0  0  0  0
    0.6714    1.2651   -0.5664 C   0  0  0  0  0  0  0  0  0  0  0  0
    1.2833    2.1504   -1.1856 O   0  0  0  0  0  0  0  0  0  0  0  0
    3.2627    0.4696   -0.1426 H   0  0  0  0  0  0  0  0  0  0  0  0
    2.7155    0.1196    1.5356 H   0  0  0  0  0  0  0  0  0  0  0  0
    2.9267   -1.2264    0.3216 H   0  0  0  0  0  0  0  0  0  0  0  0
    0.3451   -1.8849    0.5070 H   0  0  0  0  0  0  0  0  0  0  0  0
   -1.0698   -0.5224   -1.5446 H   0  0  0  0  0  0  0  0  0  0  0  0
   -2.2176   -0.7915    1.2963 H   0  0  0  0  0  0  0  0  0  0  0  0
   -2.4750   -1.7836   -0.2452 H   0  0  0  0  0  0  0  0  0  0  0  0
   -3.1019   -0.1268   -0.1218 H   0  0  0  0  0  0  0  0  0  0  0  0
   -1.4009    1.8532   -0.8272 H   0  0  0  0  0  0  0  0  0  0  0  0
   -0.8636    1.3612    0.8706 H   0  0  0  0  0  0  0  0  0  0  0  0
  1  2  1  0
  2  3  2  0
  3  4  1  0
  4  5  1  0
  4  6  1  0
  6  7  1  0
  7  8  2  0
  7  2  1  0
  1  9  1  0
  1 10  1  0
  1 11  1  0
  3 12  1  0
  4 13  1  0
  5 14  1  0
  5 15  1  0
  5 16  1  0
  6 17  1  0
  6 18  1  0
M  END
