
     RDKit          3D

 19 20  0  0  0  0  0  0  0  0999 V2000
    2.6465    0.2238   -0.3686 C   0  0  0  0  0  0  0  0  0  0  0  0
    1.2599   -0.1399   -0.0290 C   0  0  0  0  0  0  0  0  0  0  0  0
    0.5733    0.3800    0.9738 C   0  0  0  0  0  0  0  0  0  0  0  0
   -0.7791   -0.2024    1.0335 C   0  0  0  0  0  0  0  0  0  0  0  0
   -1.8426    0.7563    0.6122 C   0  0  0  0  0  0  0  0  0  0  0  0
   -1.6543    0.2723   -0.8174 C   0  0  0  0  0  0  0  0  0  0  0  0
   -0.9398   -0.9367   -0.2589 C   0  0  0  0  0  0  0  0  0  0  0  0
    0.4414   -1.1065   -0.7253 C   0  0  0  0  0  0  0  0  0  0  0  0
    0.8398   -1.9307   -1.5664 O   0  0  0  0  0  0  0  0  0  0  0  0
    3.3131   -0.5617    0.0673 H   0  0  0  0  0  0  0  0  0  0  0  0
    2.8097    0.2532   -1.4591 H   0  0  0  0  0  0  0  0  0  0  0  0
    2.9157    1.2145    0.0682 H   0  0  0  0  0  0  0  0  0  0  0  0
    0.9054    1.1411    1.6965 H   0  0  0  0  0  0  0  0  0  0  0  0
   -1.0000   -0.8419    1.8972 H   0  0  0  0  0  0  0  0  0  0  0  0
   -2.8557    0.5097    1.0397 H   0  0  0  0  0  0  0  0  0  0  0  0
   -1.5960    1.8352    0.7283 H   0  0  0  0  0  0  0  0  0  0  0  0
   -2.5830    0.0688   -1.3694 H   0  0  0  0  0  0  0  0  0  0  0  0
   -0.9116    0.9264   -1.3292 H   0  0  0  0  0  0  0  0  0  0  0  0
   -1.5428   -1.8615   -0.1932 H   0  0  0  0  0  0  0  0  0  0  0  0
  1  2  1  0
  2  3  2  0
  3  4  1  0
  4  5  1  0
  5  6  1  0
  6  7  1  0
  7  8  1  0
  8  9  2  0
  8  2  1  0
  7  4  1  0
  1 10  1  0
  1 11  1  0
  1 12  1  0
  3 13  1  0
  4 14  1  0
  5 15  1  0
  5 16  1  0
  6 17  1  0
  6 18  1  0
  7 19  1  0
M  END
