
     RDKit          3D

 16 17  0  0  0  0  0  0  0  0999 V2000
   -2.1789    0.0569   -0.2810 C   0  0  0  0  0  0  0  0  0  0  0  0
   -0.7823   -0.1191    0.1345 C   0  0  0  0  0  0  0  0  0  0  0  0
   -0.1009   -1.2637    0.2865 C   0  0  0  0  0  0  0  0  0  0  0  0
    1.2788   -0.8211    0.6211 C   0  0  0  0  0  0  0  0  0  0  0  0
    1.8973   -0.0798   -0.5123 C   0  0  0  0  0  0  0  0  0  0  0  0
    1.1841    1.0383   -0.6217 C   0  0  0  0  0  0  0  0  0  0  0  0
    0.1718    0.9472    0.4753 C   0  0  0  0  0  0  0  0  0  0  0  0
    0.9615    0.2863    1.4534 O   0  0  0  0  0  0  0  0  0  0  0  0
   -2.5170   -0.6846   -1.0304 H   0  0  0  0  0  0  0  0  0  0  0  0
   -2.8667    0.0407    0.6008 H   0  0  0  0  0  0  0  0  0  0  0  0
   -2.2795    1.0600   -0.7562 H   0  0  0  0  0  0  0  0  0  0  0  0
   -0.4596   -2.2794    0.1907 H   0  0  0  0  0  0  0  0  0  0  0  0
    1.9007   -1.5499    1.0932 H   0  0  0  0  0  0  0  0  0  0  0  0
    2.7390   -0.3576   -1.1312 H   0  0  0  0  0  0  0  0  0  0  0  0
    1.2841    1.8451   -1.3255 H   0  0  0  0  0  0  0  0  0  0  0  0
   -0.2325    1.8806    0.8029 H   0  0  0  0  0  0  0  0  0  0  0  0
  1  2  1  0
  2  3  2  0
  3  4  1  0
  4  5  1  0
  5  6  2  0
  6  7  1  0
  7  8  1  0
  7  2  1  0
  8  4  1  0
  1  9  1  0
  1 10  1  0
  1 11  1  0
  3 12  1  0
  4 13  1  0
  5 14  1  0
  6 15  1  0
  7 16  1  0
M  END
