
     RDKit          3D

 21 22  0  0  0  0  0  0  0  0999 V2000
    2.7573   -0.5878   -0.3209 C   0  0  0  0  0  0  0  0  0  0  0  0
    1.3775   -0.0980   -0.1913 C   0  0  0  0  0  0  0  0  0  0  0  0
    0.2925   -0.8546   -0.1250 C   0  0  0  0  0  0  0  0  0  0  0  0
   -0.9181   -0.0022    0.0019 C   0  0  0  0  0  0  0  0  0  0  0  0
   -1.9721   -0.5009   -0.9460 C   0  0  0  0  0  0  0  0  0  0  0  0
   -1.3873   -0.1444    1.4555 C   0  0  0  0  0  0  0  0  0  0  0  0
   -0.5054    1.4002   -0.2052 C   0  0  0  0  0  0  0  0  0  0  0  0
    0.3184    1.8086   -1.2122 O   0  0  0  0  0  0  0  0  0  0  0  0
    1.0052    1.3390   -0.1157 C   0  0  0  0  0  0  0  0  0  0  0  0
    3.2334   -0.3303   -1.2939 H   0  0  0  0  0  0  0  0  0  0  0  0
    3.4190   -0.1069    0.4540 H   0  0  0  0  0  0  0  0  0  0  0  0
    2.8271   -1.6955   -0.2192 H   0  0  0  0  0  0  0  0  0  0  0  0
    0.2395   -1.9367   -0.1543 H   0  0  0  0  0  0  0  0  0  0  0  0
   -2.7567    0.2491   -1.1703 H   0  0  0  0  0  0  0  0  0  0  0  0
   -2.4475   -1.3948   -0.4472 H   0  0  0  0  0  0  0  0  0  0  0  0
   -1.4822   -0.8198   -1.8903 H   0  0  0  0  0  0  0  0  0  0  0  0
   -2.0391   -1.0193    1.5108 H   0  0  0  0  0  0  0  0  0  0  0  0
   -0.4889   -0.3039    2.1043 H   0  0  0  0  0  0  0  0  0  0  0  0
   -1.8632    0.7959    1.8003 H   0  0  0  0  0  0  0  0  0  0  0  0
   -1.0415    2.2067    0.3265 H   0  0  0  0  0  0  0  0  0  0  0  0
    1.4322    1.9957    0.6380 H   0  0  0  0  0  0  0  0  0  0  0  0
  1  2  1  0
  2  3  2  0
  3  4  1  0
  4  5  1  0
  4  6  1  0
  4  7  1  0
  7  8  1  0
  8  9  1  0
  9  2  1  0
  9  7  1  0
  1 10  1  0
  1 11  1  0
  1 12  1  0
  3 13  1  0
  5 14  1  0
  5 15  1  0
  5 16  1  0
  6 17  1  0
  6 18  1  0
  6 19  1  0
  7 20  1  0
  9 21  1  0
M  END
