
     RDKit          3D

 23 24  0  0  0  0  0  0  0  0999 V2000
    2.6020    0.8858    1.0384 C   0  0  0  0  0  0  0  0  0  0  0  0
    1.2902    0.3862    0.4409 C   0  0  0  0  0  0  0  0  0  0  0  0
    0.1176    0.9582    0.5654 C   0  0  0  0  0  0  0  0  0  0  0  0
   -0.9374    0.2176   -0.1339 C   0  0  0  0  0  0  0  0  0  0  0  0
   -1.9582   -0.3802    0.8019 C   0  0  0  0  0  0  0  0  0  0  0  0
   -1.5711    1.1515   -1.1430 C   0  0  0  0  0  0  0  0  0  0  0  0
   -0.1806   -0.8533   -0.8800 C   0  0  0  0  0  0  0  0  0  0  0  0
    0.3250   -1.9671   -0.0369 C   0  0  0  0  0  0  0  0  0  0  0  0
    1.1909   -0.8231   -0.3623 C   0  0  0  0  0  0  0  0  0  0  0  0
    2.9991    1.7290    0.4592 H   0  0  0  0  0  0  0  0  0  0  0  0
    2.3393    1.2547    2.0421 H   0  0  0  0  0  0  0  0  0  0  0  0
    3.3561    0.0860    1.0460 H   0  0  0  0  0  0  0  0  0  0  0  0
   -0.0344    1.8999    1.1422 H   0  0  0  0  0  0  0  0  0  0  0  0
   -2.2498   -1.3691    0.3843 H   0  0  0  0  0  0  0  0  0  0  0  0
   -1.4619   -0.5894    1.7752 H   0  0  0  0  0  0  0  0  0  0  0  0
   -2.8563    0.2736    0.9144 H   0  0  0  0  0  0  0  0  0  0  0  0
   -0.7524    1.7825   -1.5654 H   0  0  0  0  0  0  0  0  0  0  0  0
   -1.9814    0.5775   -2.0120 H   0  0  0  0  0  0  0  0  0  0  0  0
   -2.3107    1.8274   -0.6888 H   0  0  0  0  0  0  0  0  0  0  0  0
   -0.3903   -0.9814   -1.9559 H   0  0  0  0  0  0  0  0  0  0  0  0
    0.5333   -2.9219   -0.5475 H   0  0  0  0  0  0  0  0  0  0  0  0
   -0.1438   -2.1015    0.9491 H   0  0  0  0  0  0  0  0  0  0  0  0
    2.0747   -1.0429   -1.0062 H   0  0  0  0  0  0  0  0  0  0  0  0
  1  2  1  0
  2  3  2  0
  3  4  1  0
  4  5  1  0
  4  6  1  0
  4  7  1  0
  7  8  1  0
  8  9  1  0
  9  2  1  0
  9  7  1  0
  1 10  1  0
  1 11  1  0
  1 12  1  0
  3 13  1  0
  5 14  1  0
  5 15  1  0
  5 16  1  0
  6 17  1  0
  6 18  1  0
  6 19  1  0
  7 20  1  0
  8 21  1  0
  8 22  1  0
  9 23  1  0
M  END
