
     RDKit          3D

 21 21  0  0  0  0  0  0  0  0999 V2000
   -2.4973   -0.3266   -0.0988 C   0  0  0  0  0  0  0  0  0  0  0  0
   -1.1229    0.2346   -0.1191 C   0  0  0  0  0  0  0  0  0  0  0  0
   -0.8606    1.5176    0.1075 C   0  0  0  0  0  0  0  0  0  0  0  0
    0.6087    1.7469    0.0132 C   0  0  0  0  0  0  0  0  0  0  0  0
    1.1410    0.3803    0.3938 C   0  0  0  0  0  0  0  0  0  0  0  0
    2.5363    0.1684    0.0074 C   0  0  0  0  0  0  0  0  0  0  0  0
    2.9401    0.2495   -1.1428 O   0  0  0  0  0  0  0  0  0  0  0  0
    0.1684   -0.4955   -0.3846 C   0  0  0  0  0  0  0  0  0  0  0  0
    0.1459   -1.8993    0.1024 C   0  0  0  0  0  0  0  0  0  0  0  0
   -3.1213    0.1970   -0.8735 H   0  0  0  0  0  0  0  0  0  0  0  0
   -2.9501   -0.1587    0.9076 H   0  0  0  0  0  0  0  0  0  0  0  0
   -2.4868   -1.4207   -0.2638 H   0  0  0  0  0  0  0  0  0  0  0  0
   -1.5877    2.2934    0.3285 H   0  0  0  0  0  0  0  0  0  0  0  0
    0.8613    2.0242   -1.0311 H   0  0  0  0  0  0  0  0  0  0  0  0
    0.9302    2.5341    0.7101 H   0  0  0  0  0  0  0  0  0  0  0  0
    1.0303    0.2740    1.4765 H   0  0  0  0  0  0  0  0  0  0  0  0
    3.2959   -0.0783    0.7538 H   0  0  0  0  0  0  0  0  0  0  0  0
    0.4481   -0.3906   -1.4547 H   0  0  0  0  0  0  0  0  0  0  0  0
    0.9674   -2.0474    0.8143 H   0  0  0  0  0  0  0  0  0  0  0  0
   -0.7980   -2.2370    0.5385 H   0  0  0  0  0  0  0  0  0  0  0  0
    0.3510   -2.5661   -0.7852 H   0  0  0  0  0  0  0  0  0  0  0  0
  1  2  1  0
  2  3  2  0
  3  4  1  0
  4  5  1  0
  5  6  1  0
  6  7  2  0
  5  8  1  0
  8  9  1  0
  8  2  1  0
  1 10  1  0
  1 11  1  0
  1 12  1  0
  3 13  1  0
  4 14  1  0
  4 15  1  0
  5 16  1  0
  6 17  1  0
  8 18  1  0
  9 19  1  0
  9 20  1  0
  9 21  1  0
M  END
