
     RDKit          3D

 19 19  0  0  0  0  0  0  0  0999 V2000
    1.8493   -0.9499   -0.1580 C   0  0  0  0  0  0  0  0  0  0  0  0
    0.4969   -0.3863   -0.1796 C   0  0  0  0  0  0  0  0  0  0  0  0
    0.2944    0.8996    0.0020 C   0  0  0  0  0  0  0  0  0  0  0  0
    1.3429    1.8527    0.2326 C   0  0  0  0  0  0  0  0  0  0  0  0
    2.5222    1.4904    0.2714 O   0  0  0  0  0  0  0  0  0  0  0  0
   -1.1595    1.3077   -0.0517 C   0  0  0  0  0  0  0  0  0  0  0  0
   -1.7848    0.5050    0.9087 O   0  0  0  0  0  0  0  0  0  0  0  0
   -1.8202   -0.8184    0.5438 C   0  0  0  0  0  0  0  0  0  0  0  0
   -0.7134   -1.2171   -0.4043 C   0  0  0  0  0  0  0  0  0  0  0  0
    2.2821   -0.7380    0.8510 H   0  0  0  0  0  0  0  0  0  0  0  0
    2.4685   -0.4775   -0.9437 H   0  0  0  0  0  0  0  0  0  0  0  0
    1.8691   -2.0364   -0.3859 H   0  0  0  0  0  0  0  0  0  0  0  0
    1.1033    2.9163    0.3769 H   0  0  0  0  0  0  0  0  0  0  0  0
   -1.2188    2.3552    0.2258 H   0  0  0  0  0  0  0  0  0  0  0  0
   -1.5511    1.0942   -1.0464 H   0  0  0  0  0  0  0  0  0  0  0  0
   -2.8026   -1.0138    0.0428 H   0  0  0  0  0  0  0  0  0  0  0  0
   -1.7079   -1.4451    1.4491 H   0  0  0  0  0  0  0  0  0  0  0  0
   -0.4618   -2.2846   -0.2680 H   0  0  0  0  0  0  0  0  0  0  0  0
   -1.0085   -1.0541   -1.4662 H   0  0  0  0  0  0  0  0  0  0  0  0
  1  2  1  0
  2  3  2  0
  3  4  1  0
  4  5  2  0
  3  6  1  0
  6  7  1  0
  7  8  1  0
  8  9  1  0
  9  2  1  0
  1 10  1  0
  1 11  1  0
  1 12  1  0
  4 13  1  0
  6 14  1  0
  6 15  1  0
  8 16  1  0
  8 17  1  0
  9 18  1  0
  9 19  1  0
M  END
