
     RDKit          3D

 17 18  0  0  0  0  0  0  0  0999 V2000
    2.1181   -0.2029    0.3316 C   0  0  0  0  0  0  0  0  0  0  0  0
    0.6257   -0.3137    0.2359 C   0  0  0  0  0  0  0  0  0  0  0  0
   -0.1420   -0.9901    1.0751 C   0  0  0  0  0  0  0  0  0  0  0  0
   -1.5666   -0.9137    0.7222 C   0  0  0  0  0  0  0  0  0  0  0  0
   -2.2154    0.2652    0.5040 O   0  0  0  0  0  0  0  0  0  0  0  0
   -1.5609   -0.2179   -0.6227 C   0  0  0  0  0  0  0  0  0  0  0  0
   -0.1810    0.3257   -0.8171 C   0  0  0  0  0  0  0  0  0  0  0  0
   -0.2526    1.7927   -0.6870 C   0  0  0  0  0  0  0  0  0  0  0  0
    0.1034    2.3742    0.3169 O   0  0  0  0  0  0  0  0  0  0  0  0
    2.6266   -1.0629   -0.1278 H   0  0  0  0  0  0  0  0  0  0  0  0
    2.4541    0.7161   -0.1784 H   0  0  0  0  0  0  0  0  0  0  0  0
    2.4578   -0.1162    1.3861 H   0  0  0  0  0  0  0  0  0  0  0  0
    0.2072   -1.5618    1.9551 H   0  0  0  0  0  0  0  0  0  0  0  0
   -2.1441   -1.8826    0.7103 H   0  0  0  0  0  0  0  0  0  0  0  0
   -2.1239   -0.6525   -1.4537 H   0  0  0  0  0  0  0  0  0  0  0  0
    0.2280    0.0635   -1.8404 H   0  0  0  0  0  0  0  0  0  0  0  0
   -0.6345    2.3769   -1.5102 H   0  0  0  0  0  0  0  0  0  0  0  0
  1  2  1  0
  2  3  2  0
  3  4  1  0
  4  5  1  0
  5  6  1  0
  6  7  1  0
  7  8  1  0
  8  9  2  0
  7  2  1  0
  6  4  1  0
  1 10  1  0
  1 11  1  0
  1 12  1  0
  3 13  1  0
  4 14  1  0
  6 15  1  0
  7 16  1  0
  8 17  1  0
M  END
