
     RDKit          3D

 23 24  0  0  0  0  0  0  0  0999 V2000
    2.3902   -0.0850   -0.2704 C   0  0  0  0  0  0  0  0  0  0  0  0
    0.9261   -0.3876   -0.3506 C   0  0  0  0  0  0  0  0  0  0  0  0
    0.4287   -1.5064   -0.8462 C   0  0  0  0  0  0  0  0  0  0  0  0
   -1.0418   -1.5395   -0.8018 C   0  0  0  0  0  0  0  0  0  0  0  0
   -1.7906   -1.3846    0.4606 C   0  0  0  0  0  0  0  0  0  0  0  0
   -1.4142   -0.1722   -0.3193 C   0  0  0  0  0  0  0  0  0  0  0  0
   -0.1578    0.5170    0.1103 C   0  0  0  0  0  0  0  0  0  0  0  0
   -0.1018    1.8636   -0.5795 C   0  0  0  0  0  0  0  0  0  0  0  0
   -0.0895    0.7349    1.6107 C   0  0  0  0  0  0  0  0  0  0  0  0
    2.4981    0.9678   -0.6197 H   0  0  0  0  0  0  0  0  0  0  0  0
    2.9841   -0.7142   -0.9366 H   0  0  0  0  0  0  0  0  0  0  0  0
    2.7733   -0.2232    0.7599 H   0  0  0  0  0  0  0  0  0  0  0  0
    1.0434   -2.3067   -1.2400 H   0  0  0  0  0  0  0  0  0  0  0  0
   -1.5978   -1.9581   -1.6734 H   0  0  0  0  0  0  0  0  0  0  0  0
   -2.8535   -1.6581    0.4517 H   0  0  0  0  0  0  0  0  0  0  0  0
   -1.3155   -1.5196    1.4537 H   0  0  0  0  0  0  0  0  0  0  0  0
   -2.1563    0.3546   -0.9502 H   0  0  0  0  0  0  0  0  0  0  0  0
   -1.0149    2.4140   -0.2748 H   0  0  0  0  0  0  0  0  0  0  0  0
    0.7988    2.3880   -0.2628 H   0  0  0  0  0  0  0  0  0  0  0  0
   -0.1787    1.7049   -1.6705 H   0  0  0  0  0  0  0  0  0  0  0  0
   -1.0940    0.8662    2.0582 H   0  0  0  0  0  0  0  0  0  0  0  0
    0.4814    1.6897    1.7630 H   0  0  0  0  0  0  0  0  0  0  0  0
    0.4824   -0.0452    2.1277 H   0  0  0  0  0  0  0  0  0  0  0  0
  1  2  1  0
  2  3  2  0
  3  4  1  0
  4  5  1  0
  5  6  1  0
  6  7  1  0
  7  8  1  0
  7  9  1  0
  7  2  1  0
  6  4  1  0
  1 10  1  0
  1 11  1  0
  1 12  1  0
  3 13  1  0
  4 14  1  0
  5 15  1  0
  5 16  1  0
  6 17  1  0
  8 18  1  0
  8 19  1  0
  8 20  1  0
  9 21  1  0
  9 22  1  0
  9 23  1  0
M  END
