
     RDKit          3D

 21 22  0  0  0  0  0  0  0  0999 V2000
    2.8876    0.6939   -0.1033 C   0  0  0  0  0  0  0  0  0  0  0  0
    1.5488    0.0860   -0.0018 C   0  0  0  0  0  0  0  0  0  0  0  0
    1.1171   -0.9694   -0.6793 C   0  0  0  0  0  0  0  0  0  0  0  0
   -0.2881   -1.2659   -0.2903 C   0  0  0  0  0  0  0  0  0  0  0  0
   -0.7548    0.0413    0.2230 C   0  0  0  0  0  0  0  0  0  0  0  0
   -1.9323    0.0366    1.1563 C   0  0  0  0  0  0  0  0  0  0  0  0
   -2.6348    0.2861   -0.1520 C   0  0  0  0  0  0  0  0  0  0  0  0
   -1.4358    0.8761   -0.6129 O   0  0  0  0  0  0  0  0  0  0  0  0
    0.4706    0.5972    0.9041 C   0  0  0  0  0  0  0  0  0  0  0  0
    3.1520    1.3020    0.7866 H   0  0  0  0  0  0  0  0  0  0  0  0
    3.7078   -0.0724   -0.1852 H   0  0  0  0  0  0  0  0  0  0  0  0
    2.9732    1.3924   -0.9750 H   0  0  0  0  0  0  0  0  0  0  0  0
    1.7358   -1.5046   -1.4007 H   0  0  0  0  0  0  0  0  0  0  0  0
   -0.8751   -1.6714   -1.1381 H   0  0  0  0  0  0  0  0  0  0  0  0
   -0.2406   -1.9845    0.5650 H   0  0  0  0  0  0  0  0  0  0  0  0
   -2.1365   -0.9391    1.6395 H   0  0  0  0  0  0  0  0  0  0  0  0
   -1.9164    0.9202    1.7993 H   0  0  0  0  0  0  0  0  0  0  0  0
   -3.4568    1.0000   -0.0441 H   0  0  0  0  0  0  0  0  0  0  0  0
   -2.9199   -0.6381   -0.6861 H   0  0  0  0  0  0  0  0  0  0  0  0
    0.5253    0.1108    1.9017 H   0  0  0  0  0  0  0  0  0  0  0  0
    0.4728    1.7025    0.9565 H   0  0  0  0  0  0  0  0  0  0  0  0
  1  2  1  0
  2  3  2  0
  3  4  1  0
  4  5  1  0
  5  6  1  0
  6  7  1  0
  7  8  1  0
  5  9  1  0
  9  2  1  0
  8  5  1  0
  1 10  1  0
  1 11  1  0
  1 12  1  0
  3 13  1  0
  4 14  1  0
  4 15  1  0
  6 16  1  0
  6 17  1  0
  7 18  1  0
  7 19  1  0
  9 20  1  0
  9 21  1  0
M  END
