
     RDKit          3D

 18 18  0  0  0  0  0  0  0  0999 V2000
    2.2047   -0.1470    0.0174 C   0  0  0  0  0  0  0  0  0  0  0  0
    0.7251   -0.3975    0.1021 C   0  0  0  0  0  0  0  0  0  0  0  0
    0.1538   -1.3138    0.8492 C   0  0  0  0  0  0  0  0  0  0  0  0
   -1.3071   -1.2977    0.7031 C   0  0  0  0  0  0  0  0  0  0  0  0
   -2.1062   -1.8693    1.4668 O   0  0  0  0  0  0  0  0  0  0  0  0
   -1.5667   -0.4779   -0.5103 C   0  0  0  0  0  0  0  0  0  0  0  0
   -0.3236    0.3560   -0.6492 C   0  0  0  0  0  0  0  0  0  0  0  0
   -0.5007    1.7526   -0.0978 C   0  0  0  0  0  0  0  0  0  0  0  0
    2.7299   -1.0630   -0.3739 H   0  0  0  0  0  0  0  0  0  0  0  0
    2.6268    0.0739    1.0210 H   0  0  0  0  0  0  0  0  0  0  0  0
    2.4088    0.6498   -0.6952 H   0  0  0  0  0  0  0  0  0  0  0  0
    0.7366   -1.9919    1.4932 H   0  0  0  0  0  0  0  0  0  0  0  0
   -1.6662   -1.1902   -1.3539 H   0  0  0  0  0  0  0  0  0  0  0  0
   -2.4854    0.1044   -0.3852 H   0  0  0  0  0  0  0  0  0  0  0  0
   -0.0509    0.4201   -1.7072 H   0  0  0  0  0  0  0  0  0  0  0  0
   -0.3596    2.5335   -0.8754 H   0  0  0  0  0  0  0  0  0  0  0  0
    0.2858    1.9427    0.6623 H   0  0  0  0  0  0  0  0  0  0  0  0
   -1.5048    1.9152    0.3330 H   0  0  0  0  0  0  0  0  0  0  0  0
  1  2  1  0
  2  3  2  0
  3  4  1  0
  4  5  2  0
  4  6  1  0
  6  7  1  0
  7  8  1  0
  7  2  1  0
  1  9  1  0
  1 10  1  0
  1 11  1  0
  3 12  1  0
  6 13  1  0
  6 14  1  0
  7 15  1  0
  8 16  1  0
  8 17  1  0
  8 18  1  0
M  END
