
     RDKit          3D

 19 20  0  0  0  0  0  0  0  0999 V2000
   -2.5076   -0.2282    0.3013 C   0  0  0  0  0  0  0  0  0  0  0  0
   -1.0895   -0.3588   -0.0997 C   0  0  0  0  0  0  0  0  0  0  0  0
   -0.2371   -1.2570    0.3773 C   0  0  0  0  0  0  0  0  0  0  0  0
    1.0896   -1.0881   -0.3112 C   0  0  0  0  0  0  0  0  0  0  0  0
    1.9274   -0.1249    0.5036 C   0  0  0  0  0  0  0  0  0  0  0  0
    1.4905    1.2803    0.2781 C   0  0  0  0  0  0  0  0  0  0  0  0
    0.4140    1.5464   -0.4393 C   0  0  0  0  0  0  0  0  0  0  0  0
   -0.3094    0.4412   -1.0840 C   0  0  0  0  0  0  0  0  0  0  0  0
    0.6734   -0.4829   -1.5050 O   0  0  0  0  0  0  0  0  0  0  0  0
   -2.8627   -1.1969    0.7293 H   0  0  0  0  0  0  0  0  0  0  0  0
   -2.5787    0.5242    1.1406 H   0  0  0  0  0  0  0  0  0  0  0  0
   -3.1618    0.0928   -0.5563 H   0  0  0  0  0  0  0  0  0  0  0  0
   -0.4980   -1.9754    1.1385 H   0  0  0  0  0  0  0  0  0  0  0  0
    1.6031   -2.0298   -0.4807 H   0  0  0  0  0  0  0  0  0  0  0  0
    2.9808   -0.2452    0.1808 H   0  0  0  0  0  0  0  0  0  0  0  0
    1.8541   -0.3269    1.5951 H   0  0  0  0  0  0  0  0  0  0  0  0
    2.0522    2.0988    0.7007 H   0  0  0  0  0  0  0  0  0  0  0  0
    0.0990    2.5767   -0.5285 H   0  0  0  0  0  0  0  0  0  0  0  0
   -0.9391    0.7539   -1.9408 H   0  0  0  0  0  0  0  0  0  0  0  0
  1  2  1  0
  2  3  2  0
  3  4  1  0
  4  5  1  0
  5  6  1  0
  6  7  2  0
  7  8  1  0
  8  9  1  0
  8  2  1  0
  9  4  1  0
  1 10  1  0
  1 11  1  0
  1 12  1  0
  3 13  1  0
  4 14  1  0
  5 15  1  0
  5 16  1  0
  6 17  1  0
  7 18  1  0
  8 19  1  0
M  END
