
     RDKit          3D

 20 21  0  0  0  0  0  0  0  0999 V2000
    2.6475   -0.0366    0.0579 C   0  0  0  0  0  0  0  0  0  0  0  0
    1.1823    0.1320   -0.1474 C   0  0  0  0  0  0  0  0  0  0  0  0
    0.6186    1.3374   -0.0658 C   0  0  0  0  0  0  0  0  0  0  0  0
   -0.8713    1.3545   -0.2959 C   0  0  0  0  0  0  0  0  0  0  0  0
   -1.4356    0.3151    0.6427 C   0  0  0  0  0  0  0  0  0  0  0  0
   -2.2671   -0.7392   -0.0314 C   0  0  0  0  0  0  0  0  0  0  0  0
   -0.9018   -1.0434    0.4397 C   0  0  0  0  0  0  0  0  0  0  0  0
    0.2840   -1.0122   -0.4528 C   0  0  0  0  0  0  0  0  0  0  0  0
    2.8048   -0.7092    0.9458 H   0  0  0  0  0  0  0  0  0  0  0  0
    3.0704    0.9426    0.3636 H   0  0  0  0  0  0  0  0  0  0  0  0
    3.1802   -0.3833   -0.8287 H   0  0  0  0  0  0  0  0  0  0  0  0
    1.1886    2.2130    0.1464 H   0  0  0  0  0  0  0  0  0  0  0  0
   -1.3161    2.3209   -0.0412 H   0  0  0  0  0  0  0  0  0  0  0  0
   -1.0409    1.1134   -1.3462 H   0  0  0  0  0  0  0  0  0  0  0  0
   -1.6205    0.6027    1.6822 H   0  0  0  0  0  0  0  0  0  0  0  0
   -2.5290   -0.6519   -1.0921 H   0  0  0  0  0  0  0  0  0  0  0  0
   -3.1030   -1.1141    0.6042 H   0  0  0  0  0  0  0  0  0  0  0  0
   -0.8017   -1.7329    1.3136 H   0  0  0  0  0  0  0  0  0  0  0  0
   -0.0000   -0.9624   -1.5283 H   0  0  0  0  0  0  0  0  0  0  0  0
    0.9106   -1.9466   -0.3664 H   0  0  0  0  0  0  0  0  0  0  0  0
  1  2  1  0
  2  3  2  0
  3  4  1  0
  4  5  1  0
  5  6  1  0
  6  7  1  0
  7  8  1  0
  8  2  1  0
  7  5  1  0
  1  9  1  0
  1 10  1  0
  1 11  1  0
  3 12  1  0
  4 13  1  0
  4 14  1  0
  5 15  1  0
  6 16  1  0
  6 17  1  0
  7 18  1  0
  8 19  1  0
  8 20  1  0
M  END
