
     RDKit          3D

 21 21  0  0  0  0  0  0  0  0999 V2000
   -2.8007   -0.1277    0.4234 C   0  0  0  0  0  0  0  0  0  0  0  0
   -1.3564   -0.0019    0.1353 C   0  0  0  0  0  0  0  0  0  0  0  0
   -0.9211    1.2624    0.0911 C   0  0  0  0  0  0  0  0  0  0  0  0
    0.4027    1.8768   -0.1557 C   0  0  0  0  0  0  0  0  0  0  0  0
    1.6076    1.3157   -0.1005 C   0  0  0  0  0  0  0  0  0  0  0  0
    2.1738    0.0018    0.1880 C   0  0  0  0  0  0  0  0  0  0  0  0
    1.6386   -1.1532   -0.5668 C   0  0  0  0  0  0  0  0  0  0  0  0
    0.3492   -1.0803   -1.0114 O   0  0  0  0  0  0  0  0  0  0  0  0
   -0.6283   -1.2890   -0.0562 C   0  0  0  0  0  0  0  0  0  0  0  0
   -3.2338    0.8791    0.4350 H   0  0  0  0  0  0  0  0  0  0  0  0
   -2.9248   -0.6365    1.4127 H   0  0  0  0  0  0  0  0  0  0  0  0
   -3.3369   -0.7415   -0.3225 H   0  0  0  0  0  0  0  0  0  0  0  0
   -1.6875    1.9895    0.2713 H   0  0  0  0  0  0  0  0  0  0  0  0
    0.3641    2.9170   -0.4122 H   0  0  0  0  0  0  0  0  0  0  0  0
    2.3536    2.0612   -0.3393 H   0  0  0  0  0  0  0  0  0  0  0  0
    2.1090   -0.2449    1.2904 H   0  0  0  0  0  0  0  0  0  0  0  0
    3.2891    0.0300    0.0037 H   0  0  0  0  0  0  0  0  0  0  0  0
    1.7428   -2.0951    0.0515 H   0  0  0  0  0  0  0  0  0  0  0  0
    2.2807   -1.3742   -1.4715 H   0  0  0  0  0  0  0  0  0  0  0  0
   -0.0930   -1.4821    0.9150 H   0  0  0  0  0  0  0  0  0  0  0  0
   -1.3284   -2.1072   -0.3107 H   0  0  0  0  0  0  0  0  0  0  0  0
  1  2  1  0
  2  3  2  3
  3  4  1  0
  4  5  2  3
  5  6  1  0
  6  7  1  0
  7  8  1  0
  8  9  1  0
  9  2  1  0
  1 10  1  0
  1 11  1  0
  1 12  1  0
  3 13  1  0
  4 14  1  0
  5 15  1  0
  6 16  1  0
  6 17  1  0
  7 18  1  0
  7 19  1  0
  9 20  1  0
  9 21  1  0
M  END
