
     RDKit          3D

 21 22  0  0  0  0  0  0  0  0999 V2000
   -2.2493    0.1267    0.7666 C   0  0  0  0  0  0  0  0  0  0  0  0
   -1.2542    0.2793   -0.3595 C   0  0  0  0  0  0  0  0  0  0  0  0
   -0.4262   -0.9773   -0.4875 C   0  0  0  0  0  0  0  0  0  0  0  0
    0.4671   -1.0680    0.7062 C   0  0  0  0  0  0  0  0  0  0  0  0
    1.7823   -0.4093    0.5687 C   0  0  0  0  0  0  0  0  0  0  0  0
    2.2926   -0.5705   -0.8177 O   0  0  0  0  0  0  0  0  0  0  0  0
    1.9366    0.7087   -0.2736 C   0  0  0  0  0  0  0  0  0  0  0  0
    0.7201    1.3701   -0.8533 C   0  0  0  0  0  0  0  0  0  0  0  0
   -0.3909    1.3150   -0.0433 O   0  0  0  0  0  0  0  0  0  0  0  0
   -3.2345    0.5321    0.4516 H   0  0  0  0  0  0  0  0  0  0  0  0
   -1.9119    0.7161    1.6671 H   0  0  0  0  0  0  0  0  0  0  0  0
   -2.3191   -0.9257    1.1256 H   0  0  0  0  0  0  0  0  0  0  0  0
   -1.7849    0.4540   -1.3181 H   0  0  0  0  0  0  0  0  0  0  0  0
    0.1695   -0.9712   -1.4025 H   0  0  0  0  0  0  0  0  0  0  0  0
   -1.1353   -1.8442   -0.4778 H   0  0  0  0  0  0  0  0  0  0  0  0
   -0.1014   -0.7042    1.5842 H   0  0  0  0  0  0  0  0  0  0  0  0
    0.6437   -2.1665    0.9004 H   0  0  0  0  0  0  0  0  0  0  0  0
    2.5279   -0.6546    1.3366 H   0  0  0  0  0  0  0  0  0  0  0  0
    2.8416    1.3421   -0.1683 H   0  0  0  0  0  0  0  0  0  0  0  0
    0.4914    0.9839   -1.8866 H   0  0  0  0  0  0  0  0  0  0  0  0
    0.9349    2.4632   -1.0190 H   0  0  0  0  0  0  0  0  0  0  0  0
  1  2  1  0
  2  3  1  0
  3  4  1  0
  4  5  1  0
  5  6  1  0
  6  7  1  0
  7  8  1  0
  8  9  1  0
  9  2  1  0
  7  5  1  0
  1 10  1  0
  1 11  1  0
  1 12  1  0
  2 13  1  0
  3 14  1  0
  3 15  1  0
  4 16  1  0
  4 17  1  0
  5 18  1  0
  7 19  1  0
  8 20  1  0
  8 21  1  0
M  END
