
     RDKit          3D

 19 21  0  0  0  0  0  0  0  0999 V2000
    2.2039   -0.4817    0.0465 C   0  0  0  0  0  0  0  0  0  0  0  0
    0.7898   -0.0266   -0.2657 C   0  0  0  0  0  0  0  0  0  0  0  0
   -0.2277   -1.0920    0.0291 C   0  0  0  0  0  0  0  0  0  0  0  0
   -1.5028   -0.7063   -0.7132 C   0  0  0  0  0  0  0  0  0  0  0  0
   -1.6869    0.0498    0.5735 C   0  0  0  0  0  0  0  0  0  0  0  0
   -0.9052   -0.9297    1.2015 O   0  0  0  0  0  0  0  0  0  0  0  0
   -0.9995    1.3745    0.6025 C   0  0  0  0  0  0  0  0  0  0  0  0
    0.0825    1.4228    1.6533 O   0  0  0  0  0  0  0  0  0  0  0  0
    0.4655    1.2984    0.3476 C   0  0  0  0  0  0  0  0  0  0  0  0
    2.7469    0.2652    0.6757 H   0  0  0  0  0  0  0  0  0  0  0  0
    2.8214   -0.5961   -0.8713 H   0  0  0  0  0  0  0  0  0  0  0  0
    2.2086   -1.4994    0.5240 H   0  0  0  0  0  0  0  0  0  0  0  0
    0.7501    0.1308   -1.3858 H   0  0  0  0  0  0  0  0  0  0  0  0
    0.0937   -2.0862   -0.2595 H   0  0  0  0  0  0  0  0  0  0  0  0
   -1.3579   -0.1295   -1.6215 H   0  0  0  0  0  0  0  0  0  0  0  0
   -2.1688   -1.5808   -0.7491 H   0  0  0  0  0  0  0  0  0  0  0  0
   -2.7309    0.1016    0.8807 H   0  0  0  0  0  0  0  0  0  0  0  0
   -1.5570    2.3103    0.5477 H   0  0  0  0  0  0  0  0  0  0  0  0
    0.9744    2.1751   -0.0949 H   0  0  0  0  0  0  0  0  0  0  0  0
  1  2  1  0
  2  3  1  0
  3  4  1  0
  4  5  1  0
  5  6  1  0
  5  7  1  0
  7  8  1  0
  8  9  1  0
  9  2  1  0
  6  3  1  0
  9  7  1  0
  1 10  1  0
  1 11  1  0
  1 12  1  0
  2 13  1  0
  3 14  1  0
  4 15  1  0
  4 16  1  0
  5 17  1  0
  7 18  1  0
  9 19  1  0
M  END
