
     RDKit          3D

 25 26  0  0  0  0  0  0  0  0999 V2000
    2.2577   -0.0691    0.1474 C   0  0  0  0  0  0  0  0  0  0  0  0
    0.9681    0.4370   -0.5012 C   0  0  0  0  0  0  0  0  0  0  0  0
    0.3559    1.4690    0.3945 C   0  0  0  0  0  0  0  0  0  0  0  0
   -1.1068    1.2476    0.6530 C   0  0  0  0  0  0  0  0  0  0  0  0
   -1.7537    1.0066   -0.7191 C   0  0  0  0  0  0  0  0  0  0  0  0
   -1.3618   -0.4545   -0.5179 C   0  0  0  0  0  0  0  0  0  0  0  0
   -1.4504   -0.1747    0.9884 C   0  0  0  0  0  0  0  0  0  0  0  0
    0.0784   -0.7110   -0.8251 C   0  0  0  0  0  0  0  0  0  0  0  0
    0.5036   -1.9438   -0.0272 C   0  0  0  0  0  0  0  0  0  0  0  0
    2.0968   -0.0188    1.2514 H   0  0  0  0  0  0  0  0  0  0  0  0
    2.5521   -1.0551   -0.2125 H   0  0  0  0  0  0  0  0  0  0  0  0
    3.0881    0.6433   -0.0611 H   0  0  0  0  0  0  0  0  0  0  0  0
    1.3045    0.8805   -1.4846 H   0  0  0  0  0  0  0  0  0  0  0  0
    0.4312    2.4633   -0.1377 H   0  0  0  0  0  0  0  0  0  0  0  0
    0.9297    1.6214    1.3397 H   0  0  0  0  0  0  0  0  0  0  0  0
   -1.5528    2.0341    1.2466 H   0  0  0  0  0  0  0  0  0  0  0  0
   -1.2430    1.5231   -1.5346 H   0  0  0  0  0  0  0  0  0  0  0  0
   -2.8317    1.1471   -0.6386 H   0  0  0  0  0  0  0  0  0  0  0  0
   -2.0566   -1.1918   -0.8978 H   0  0  0  0  0  0  0  0  0  0  0  0
   -2.4777   -0.2815    1.3224 H   0  0  0  0  0  0  0  0  0  0  0  0
   -0.7129   -0.7229    1.5926 H   0  0  0  0  0  0  0  0  0  0  0  0
    0.1640   -1.0206   -1.9003 H   0  0  0  0  0  0  0  0  0  0  0  0
    1.2281   -2.5618   -0.6081 H   0  0  0  0  0  0  0  0  0  0  0  0
   -0.3796   -2.5798    0.2022 H   0  0  0  0  0  0  0  0  0  0  0  0
    0.9685   -1.6877    0.9277 H   0  0  0  0  0  0  0  0  0  0  0  0
  1  2  1  0
  2  3  1  0
  3  4  1  0
  4  5  1  0
  5  6  1  0
  6  7  1  0
  6  8  1  0
  8  9  1  0
  8  2  1  0
  7  4  1  0
  1 10  1  0
  1 11  1  0
  1 12  1  0
  2 13  1  0
  3 14  1  0
  3 15  1  0
  4 16  1  0
  5 17  1  0
  5 18  1  0
  6 19  1  0
  7 20  1  0
  7 21  1  0
  8 22  1  0
  9 23  1  0
  9 24  1  0
  9 25  1  0
M  END
