
     RDKit          3D

 19 20  0  0  0  0  0  0  0  0999 V2000
   -2.4008    0.9475    0.0600 C   0  0  0  0  0  0  0  0  0  0  0  0
   -1.0921    0.5401   -0.6300 C   0  0  0  0  0  0  0  0  0  0  0  0
   -0.6039   -0.7389   -0.3798 C   0  0  0  0  0  0  0  0  0  0  0  0
   -0.0217   -1.4628    0.8028 C   0  0  0  0  0  0  0  0  0  0  0  0
    1.4269   -1.1794    0.4022 C   0  0  0  0  0  0  0  0  0  0  0  0
    1.4548    0.0551   -0.0740 C   0  0  0  0  0  0  0  0  0  0  0  0
    2.6224    0.7535   -0.5808 C   0  0  0  0  0  0  0  0  0  0  0  0
    2.5333    1.9306   -1.0110 O   0  0  0  0  0  0  0  0  0  0  0  0
    0.1264    0.5802    0.0449 C   0  0  0  0  0  0  0  0  0  0  0  0
   -3.2259    0.6000   -0.5832 H   0  0  0  0  0  0  0  0  0  0  0  0
   -2.5125    0.4310    1.0302 H   0  0  0  0  0  0  0  0  0  0  0  0
   -2.4285    2.0302    0.2705 H   0  0  0  0  0  0  0  0  0  0  0  0
   -1.1147    0.9522   -1.6825 H   0  0  0  0  0  0  0  0  0  0  0  0
   -0.1878   -1.2657   -1.2979 H   0  0  0  0  0  0  0  0  0  0  0  0
   -0.1671   -0.9338    1.7639 H   0  0  0  0  0  0  0  0  0  0  0  0
   -0.2234   -2.5313    0.8187 H   0  0  0  0  0  0  0  0  0  0  0  0
    2.2107   -1.9061    0.5210 H   0  0  0  0  0  0  0  0  0  0  0  0
    3.6073    0.3060   -0.6132 H   0  0  0  0  0  0  0  0  0  0  0  0
   -0.0034    0.8916    1.1382 H   0  0  0  0  0  0  0  0  0  0  0  0
  1  2  1  0
  2  3  1  0
  3  4  1  0
  4  5  1  0
  5  6  2  0
  6  7  1  0
  7  8  2  0
  6  9  1  0
  9  2  1  0
  9  3  1  0
  1 10  1  0
  1 11  1  0
  1 12  1  0
  2 13  1  0
  3 14  1  0
  4 15  1  0
  4 16  1  0
  5 17  1  0
  7 18  1  0
  9 19  1  0
M  END
