
     RDKit          3D

 21 22  0  0  0  0  0  0  0  0999 V2000
   -2.3380   -0.6383    0.4813 C   0  0  0  0  0  0  0  0  0  0  0  0
   -1.0731   -0.6569   -0.3904 C   0  0  0  0  0  0  0  0  0  0  0  0
   -0.6111    0.7311   -0.6103 C   0  0  0  0  0  0  0  0  0  0  0  0
    0.4902    1.1914    0.2964 C   0  0  0  0  0  0  0  0  0  0  0  0
    1.2428    2.2097   -0.3310 O   0  0  0  0  0  0  0  0  0  0  0  0
    1.4313    0.1099    0.6751 C   0  0  0  0  0  0  0  0  0  0  0  0
    2.0299   -0.6753   -0.4371 C   0  0  0  0  0  0  0  0  0  0  0  0
    0.9940   -1.2606    0.5187 C   0  0  0  0  0  0  0  0  0  0  0  0
   -0.2322   -1.5581    0.1085 O   0  0  0  0  0  0  0  0  0  0  0  0
   -2.3155   -1.4470    1.2347 H   0  0  0  0  0  0  0  0  0  0  0  0
   -3.2502   -0.6314   -0.1097 H   0  0  0  0  0  0  0  0  0  0  0  0
   -2.3338    0.3263    1.0673 H   0  0  0  0  0  0  0  0  0  0  0  0
   -1.4412   -1.0328   -1.3939 H   0  0  0  0  0  0  0  0  0  0  0  0
   -1.4643    1.4296   -0.4741 H   0  0  0  0  0  0  0  0  0  0  0  0
   -0.2641    0.8975   -1.6690 H   0  0  0  0  0  0  0  0  0  0  0  0
    0.0854    1.6669    1.2234 H   0  0  0  0  0  0  0  0  0  0  0  0
    0.7663    2.5325   -1.1212 H   0  0  0  0  0  0  0  0  0  0  0  0
    2.1092    0.3668    1.5274 H   0  0  0  0  0  0  0  0  0  0  0  0
    3.0785   -0.9595   -0.3446 H   0  0  0  0  0  0  0  0  0  0  0  0
    1.6343   -0.5875   -1.4730 H   0  0  0  0  0  0  0  0  0  0  0  0
    1.4616   -2.0143    1.2215 H   0  0  0  0  0  0  0  0  0  0  0  0
  1  2  1  0
  2  3  1  0
  3  4  1  0
  4  5  1  0
  4  6  1  0
  6  7  1  0
  7  8  1  0
  8  9  1  0
  9  2  1  0
  8  6  1  0
  1 10  1  0
  1 11  1  0
  1 12  1  0
  2 13  1  0
  3 14  1  0
  3 15  1  0
  4 16  1  0
  5 17  1  0
  6 18  1  0
  7 19  1  0
  7 20  1  0
  8 21  1  0
M  END
