
     RDKit          3D

 23 23  0  0  0  0  0  0  0  0999 V2000
    3.1127   -0.6428    0.5756 C   0  0  0  0  0  0  0  0  0  0  0  0
    1.6761   -0.1778    0.6400 C   0  0  0  0  0  0  0  0  0  0  0  0
    1.4520    0.7390   -0.5477 C   0  0  0  0  0  0  0  0  0  0  0  0
   -0.0800    0.7505   -0.5817 C   0  0  0  0  0  0  0  0  0  0  0  0
   -0.3806   -0.6508   -0.1029 C   0  0  0  0  0  0  0  0  0  0  0  0
   -1.5008   -0.5600    0.9060 C   0  0  0  0  0  0  0  0  0  0  0  0
   -2.7170    0.0469    0.2401 C   0  0  0  0  0  0  0  0  0  0  0  0
   -3.7891    0.1677    1.0879 O   0  0  0  0  0  0  0  0  0  0  0  0
    0.7722   -1.1829    0.4056 O   0  0  0  0  0  0  0  0  0  0  0  0
    3.2016   -1.7365    0.4453 H   0  0  0  0  0  0  0  0  0  0  0  0
    3.6759   -0.1784   -0.2633 H   0  0  0  0  0  0  0  0  0  0  0  0
    3.5984   -0.3347    1.5249 H   0  0  0  0  0  0  0  0  0  0  0  0
    1.4489    0.3437    1.5890 H   0  0  0  0  0  0  0  0  0  0  0  0
    1.7819    0.2323   -1.4631 H   0  0  0  0  0  0  0  0  0  0  0  0
    1.8677    1.7424   -0.4019 H   0  0  0  0  0  0  0  0  0  0  0  0
   -0.4455    1.5226    0.1375 H   0  0  0  0  0  0  0  0  0  0  0  0
   -0.4728    0.9799   -1.5683 H   0  0  0  0  0  0  0  0  0  0  0  0
   -0.7409   -1.2237   -0.9655 H   0  0  0  0  0  0  0  0  0  0  0  0
   -1.7680   -1.5354    1.3393 H   0  0  0  0  0  0  0  0  0  0  0  0
   -1.2375    0.1293    1.7494 H   0  0  0  0  0  0  0  0  0  0  0  0
   -3.0304   -0.5872   -0.6229 H   0  0  0  0  0  0  0  0  0  0  0  0
   -2.4667    1.0436   -0.1544 H   0  0  0  0  0  0  0  0  0  0  0  0
   -3.9584    1.1122    1.3193 H   0  0  0  0  0  0  0  0  0  0  0  0
  1  2  1  0
  2  3  1  0
  3  4  1  0
  4  5  1  0
  5  6  1  0
  6  7  1  0
  7  8  1  0
  5  9  1  0
  9  2  1  0
  1 10  1  0
  1 11  1  0
  1 12  1  0
  2 13  1  0
  3 14  1  0
  3 15  1  0
  4 16  1  0
  4 17  1  0
  5 18  1  0
  6 19  1  0
  6 20  1  0
  7 21  1  0
  7 22  1  0
  8 23  1  0
M  END
