
     RDKit          3D

 19 21  0  0  0  0  0  0  0  0999 V2000
    2.9878    0.2683    0.2090 C   0  0  0  0  0  0  0  0  0  0  0  0
    1.6270   -0.3701    0.4405 C   0  0  0  0  0  0  0  0  0  0  0  0
    0.9786   -0.9190   -0.7718 C   0  0  0  0  0  0  0  0  0  0  0  0
   -0.2173   -1.6052   -0.5390 O   0  0  0  0  0  0  0  0  0  0  0  0
   -0.8385   -0.3751   -0.4127 C   0  0  0  0  0  0  0  0  0  0  0  0
   -1.9473   -0.3376    0.6114 C   0  0  0  0  0  0  0  0  0  0  0  0
   -3.3265   -0.0163    0.1823 C   0  0  0  0  0  0  0  0  0  0  0  0
   -2.5328    1.0291    0.6538 O   0  0  0  0  0  0  0  0  0  0  0  0
    0.4260    0.3203   -0.0312 C   0  0  0  0  0  0  0  0  0  0  0  0
    3.2703    0.2637   -0.8676 H   0  0  0  0  0  0  0  0  0  0  0  0
    3.7842   -0.2541    0.7764 H   0  0  0  0  0  0  0  0  0  0  0  0
    2.9738    1.3389    0.5092 H   0  0  0  0  0  0  0  0  0  0  0  0
    1.5888   -0.9993    1.3706 H   0  0  0  0  0  0  0  0  0  0  0  0
    1.3102   -0.7117   -1.7863 H   0  0  0  0  0  0  0  0  0  0  0  0
   -1.1966   -0.0491   -1.4115 H   0  0  0  0  0  0  0  0  0  0  0  0
   -1.7651   -0.6479    1.6393 H   0  0  0  0  0  0  0  0  0  0  0  0
   -4.1611   -0.3411    0.8431 H   0  0  0  0  0  0  0  0  0  0  0  0
   -3.5556    0.0132   -0.8909 H   0  0  0  0  0  0  0  0  0  0  0  0
    0.5940    1.3089   -0.5247 H   0  0  0  0  0  0  0  0  0  0  0  0
  1  2  1  0
  2  3  1  0
  3  4  1  0
  4  5  1  0
  5  6  1  0
  6  7  1  0
  7  8  1  0
  5  9  1  0
  9  2  1  0
  9  3  1  0
  8  6  1  0
  1 10  1  0
  1 11  1  0
  1 12  1  0
  2 13  1  0
  3 14  1  0
  5 15  1  0
  6 16  1  0
  7 17  1  0
  7 18  1  0
  9 19  1  0
M  END
