
     RDKit          3D

 25 26  0  0  0  0  0  0  0  0999 V2000
   -2.2886   -0.7281    0.7939 C   0  0  0  0  0  0  0  0  0  0  0  0
   -1.5766   -0.3445   -0.4318 C   0  0  0  0  0  0  0  0  0  0  0  0
   -0.4435   -1.3304   -0.7335 C   0  0  0  0  0  0  0  0  0  0  0  0
    0.5217   -0.2719   -0.3791 C   0  0  0  0  0  0  0  0  0  0  0  0
    1.3362   -0.3840    0.8320 C   0  0  0  0  0  0  0  0  0  0  0  0
    2.4939    0.2468    0.0626 C   0  0  0  0  0  0  0  0  0  0  0  0
    1.7086   -0.0439   -1.2249 C   0  0  0  0  0  0  0  0  0  0  0  0
   -0.5805    0.7430   -0.4275 C   0  0  0  0  0  0  0  0  0  0  0  0
   -0.6000    1.7861    0.6091 C   0  0  0  0  0  0  0  0  0  0  0  0
   -2.2229   -1.8441    0.9613 H   0  0  0  0  0  0  0  0  0  0  0  0
   -3.3985   -0.5467    0.6800 H   0  0  0  0  0  0  0  0  0  0  0  0
   -1.9900   -0.2635    1.7230 H   0  0  0  0  0  0  0  0  0  0  0  0
   -2.2685   -0.3466   -1.3179 H   0  0  0  0  0  0  0  0  0  0  0  0
   -0.3917   -2.1844   -0.0205 H   0  0  0  0  0  0  0  0  0  0  0  0
   -0.3970   -1.6875   -1.7611 H   0  0  0  0  0  0  0  0  0  0  0  0
    1.6036   -1.4494    1.0617 H   0  0  0  0  0  0  0  0  0  0  0  0
    1.0396    0.1596    1.7370 H   0  0  0  0  0  0  0  0  0  0  0  0
    3.4175   -0.3308    0.0433 H   0  0  0  0  0  0  0  0  0  0  0  0
    2.6593    1.3041    0.2593 H   0  0  0  0  0  0  0  0  0  0  0  0
    2.0350   -0.9612   -1.7441 H   0  0  0  0  0  0  0  0  0  0  0  0
    1.6376    0.8268   -1.9088 H   0  0  0  0  0  0  0  0  0  0  0  0
   -0.5395    1.2320   -1.4490 H   0  0  0  0  0  0  0  0  0  0  0  0
    0.4366    2.1738    0.8409 H   0  0  0  0  0  0  0  0  0  0  0  0
   -1.0519    1.5403    1.5632 H   0  0  0  0  0  0  0  0  0  0  0  0
   -1.1401    2.7045    0.2310 H   0  0  0  0  0  0  0  0  0  0  0  0
  1  2  1  0
  2  3  1  0
  3  4  1  0
  4  5  1  0
  5  6  1  0
  6  7  1  0
  4  8  1  0
  8  9  1  0
  8  2  1  0
  7  4  1  0
  1 10  1  0
  1 11  1  0
  1 12  1  0
  2 13  1  0
  3 14  1  0
  3 15  1  0
  5 16  1  0
  5 17  1  0
  6 18  1  0
  6 19  1  0
  7 20  1  0
  7 21  1  0
  8 22  1  0
  9 23  1  0
  9 24  1  0
  9 25  1  0
M  END
