
     RDKit          3D

 21 22  0  0  0  0  0  0  0  0999 V2000
   -2.4336   -0.8234   -0.1061 C   0  0  0  0  0  0  0  0  0  0  0  0
   -1.5069    0.1011    0.6388 C   0  0  0  0  0  0  0  0  0  0  0  0
   -1.2572    1.3908   -0.0641 C   0  0  0  0  0  0  0  0  0  0  0  0
    0.0735    1.2808   -0.6991 C   0  0  0  0  0  0  0  0  0  0  0  0
    0.7028    0.2237   -0.2803 C   0  0  0  0  0  0  0  0  0  0  0  0
    2.0508   -0.1802   -0.7143 C   0  0  0  0  0  0  0  0  0  0  0  0
    3.1725   -0.3260    0.1968 C   0  0  0  0  0  0  0  0  0  0  0  0
    2.4904   -1.5106   -0.2203 O   0  0  0  0  0  0  0  0  0  0  0  0
   -0.1426   -0.5023    0.6922 C   0  0  0  0  0  0  0  0  0  0  0  0
   -2.0869   -1.8725    0.1233 H   0  0  0  0  0  0  0  0  0  0  0  0
   -2.3205   -0.6558   -1.1794 H   0  0  0  0  0  0  0  0  0  0  0  0
   -3.4943   -0.6852    0.1876 H   0  0  0  0  0  0  0  0  0  0  0  0
   -1.9500    0.2407    1.6655 H   0  0  0  0  0  0  0  0  0  0  0  0
   -1.2823    2.2027    0.7189 H   0  0  0  0  0  0  0  0  0  0  0  0
   -2.0289    1.6118   -0.8363 H   0  0  0  0  0  0  0  0  0  0  0  0
    0.4121    2.0441   -1.4268 H   0  0  0  0  0  0  0  0  0  0  0  0
    2.1975   -0.2019   -1.8207 H   0  0  0  0  0  0  0  0  0  0  0  0
    2.9937   -0.0809    1.2644 H   0  0  0  0  0  0  0  0  0  0  0  0
    4.1904   -0.2906   -0.2190 H   0  0  0  0  0  0  0  0  0  0  0  0
   -0.1337   -1.5818    0.3819 H   0  0  0  0  0  0  0  0  0  0  0  0
    0.3534   -0.3843    1.6969 H   0  0  0  0  0  0  0  0  0  0  0  0
  1  2  1  0
  2  3  1  0
  3  4  1  0
  4  5  2  0
  5  6  1  0
  6  7  1  0
  7  8  1  0
  5  9  1  0
  9  2  1  0
  8  6  1  0
  1 10  1  0
  1 11  1  0
  1 12  1  0
  2 13  1  0
  3 14  1  0
  3 15  1  0
  4 16  1  0
  6 17  1  0
  7 18  1  0
  7 19  1  0
  9 20  1  0
  9 21  1  0
M  END
