
     RDKit          3D

 21 22  0  0  0  0  0  0  0  0999 V2000
    2.0842   -0.6886    0.2275 C   0  0  0  0  0  0  0  0  0  0  0  0
    0.7600   -0.6242   -0.4854 C   0  0  0  0  0  0  0  0  0  0  0  0
    0.5404    0.7823   -1.0224 C   0  0  0  0  0  0  0  0  0  0  0  0
   -0.4977    1.4261   -0.1678 C   0  0  0  0  0  0  0  0  0  0  0  0
    0.0260    2.3878    0.7047 O   0  0  0  0  0  0  0  0  0  0  0  0
   -1.1189    0.3521    0.6916 C   0  0  0  0  0  0  0  0  0  0  0  0
   -2.2819   -0.1117    0.1260 O   0  0  0  0  0  0  0  0  0  0  0  0
   -1.6684   -1.3258   -0.1549 C   0  0  0  0  0  0  0  0  0  0  0  0
   -0.3723   -0.9169    0.4495 C   0  0  0  0  0  0  0  0  0  0  0  0
    1.9859   -1.0954    1.2669 H   0  0  0  0  0  0  0  0  0  0  0  0
    2.8180   -1.3552   -0.2780 H   0  0  0  0  0  0  0  0  0  0  0  0
    2.5677    0.3045    0.3440 H   0  0  0  0  0  0  0  0  0  0  0  0
    0.8172   -1.3425   -1.3407 H   0  0  0  0  0  0  0  0  0  0  0  0
    1.4738    1.3571   -1.1038 H   0  0  0  0  0  0  0  0  0  0  0  0
    0.1223    0.7265   -2.0678 H   0  0  0  0  0  0  0  0  0  0  0  0
   -1.2914    1.9543   -0.7542 H   0  0  0  0  0  0  0  0  0  0  0  0
   -0.7720    2.7338    1.2116 H   0  0  0  0  0  0  0  0  0  0  0  0
   -1.2194    0.6134    1.7628 H   0  0  0  0  0  0  0  0  0  0  0  0
   -2.1813   -2.1249    0.4570 H   0  0  0  0  0  0  0  0  0  0  0  0
   -1.6890   -1.5559   -1.2243 H   0  0  0  0  0  0  0  0  0  0  0  0
   -0.1033   -1.4968    1.3577 H   0  0  0  0  0  0  0  0  0  0  0  0
  1  2  1  0
  2  3  1  0
  3  4  1  0
  4  5  1  0
  4  6  1  0
  6  7  1  0
  7  8  1  0
  8  9  1  0
  9  2  1  0
  9  6  1  0
  1 10  1  0
  1 11  1  0
  1 12  1  0
  2 13  1  0
  3 14  1  0
  3 15  1  0
  4 16  1  0
  5 17  1  0
  6 18  1  0
  8 19  1  0
  8 20  1  0
  9 21  1  0
M  END
