
     RDKit          3D

 21 22  0  0  0  0  0  0  0  0999 V2000
    2.1715   -0.7034   -0.5304 C   0  0  0  0  0  0  0  0  0  0  0  0
    0.9624   -0.9236    0.2844 C   0  0  0  0  0  0  0  0  0  0  0  0
    0.4311    0.2572    1.0653 C   0  0  0  0  0  0  0  0  0  0  0  0
    0.4714    1.4366    0.3438 O   0  0  0  0  0  0  0  0  0  0  0  0
   -0.0889    1.3780   -0.8942 C   0  0  0  0  0  0  0  0  0  0  0  0
   -0.4480    0.1453   -1.3485 O   0  0  0  0  0  0  0  0  0  0  0  0
   -0.3720   -0.8756   -0.4483 C   0  0  0  0  0  0  0  0  0  0  0  0
   -0.9312   -0.4364    0.9123 C   0  0  0  0  0  0  0  0  0  0  0  0
   -2.1038    0.4565    0.8676 C   0  0  0  0  0  0  0  0  0  0  0  0
    2.9700   -0.2392    0.1191 H   0  0  0  0  0  0  0  0  0  0  0  0
    2.0708   -0.0732   -1.4087 H   0  0  0  0  0  0  0  0  0  0  0  0
    2.5836   -1.6735   -0.8468 H   0  0  0  0  0  0  0  0  0  0  0  0
    1.0050   -1.8218    0.9110 H   0  0  0  0  0  0  0  0  0  0  0  0
    0.7730    0.3676    2.0888 H   0  0  0  0  0  0  0  0  0  0  0  0
   -0.9830    2.0663   -0.9057 H   0  0  0  0  0  0  0  0  0  0  0  0
    0.6211    1.8244   -1.6478 H   0  0  0  0  0  0  0  0  0  0  0  0
   -0.7514   -1.8184   -0.8207 H   0  0  0  0  0  0  0  0  0  0  0  0
   -0.9549   -1.3022    1.6069 H   0  0  0  0  0  0  0  0  0  0  0  0
   -2.8901    0.0307    1.5590 H   0  0  0  0  0  0  0  0  0  0  0  0
   -1.9417    1.4881    1.2170 H   0  0  0  0  0  0  0  0  0  0  0  0
   -2.5948    0.4167   -0.1451 H   0  0  0  0  0  0  0  0  0  0  0  0
  1  2  1  0
  2  3  1  0
  3  4  1  0
  4  5  1  0
  5  6  1  0
  6  7  1  0
  7  8  1  0
  8  9  1  0
  7  2  1  0
  8  3  1  0
  1 10  1  0
  1 11  1  0
  1 12  1  0
  2 13  1  0
  3 14  1  0
  5 15  1  0
  5 16  1  0
  7 17  1  0
  8 18  1  0
  9 19  1  0
  9 20  1  0
  9 21  1  0
M  END
