
     RDKit          3D

 21 22  0  0  0  0  0  0  0  0999 V2000
    1.5293    1.3195    0.6497 C   0  0  0  0  0  0  0  0  0  0  0  0
    1.0496    0.5542   -0.5521 C   0  0  0  0  0  0  0  0  0  0  0  0
   -0.3602    0.4130   -0.9028 C   0  0  0  0  0  0  0  0  0  0  0  0
   -1.4362    1.1671   -0.1913 C   0  0  0  0  0  0  0  0  0  0  0  0
   -1.5052    0.9154    1.1629 O   0  0  0  0  0  0  0  0  0  0  0  0
   -1.4568   -0.4622    1.3414 C   0  0  0  0  0  0  0  0  0  0  0  0
   -0.1454   -0.8608    1.1362 O   0  0  0  0  0  0  0  0  0  0  0  0
    0.2398   -0.7026   -0.1878 C   0  0  0  0  0  0  0  0  0  0  0  0
    0.7244   -1.9575   -0.8662 C   0  0  0  0  0  0  0  0  0  0  0  0
    0.9175    1.0702    1.5617 H   0  0  0  0  0  0  0  0  0  0  0  0
    2.5511    0.9024    0.8961 H   0  0  0  0  0  0  0  0  0  0  0  0
    1.6206    2.3991    0.4809 H   0  0  0  0  0  0  0  0  0  0  0  0
    1.8208    0.4519   -1.3457 H   0  0  0  0  0  0  0  0  0  0  0  0
   -0.5739    0.2765   -2.0036 H   0  0  0  0  0  0  0  0  0  0  0  0
   -1.3612    2.2691   -0.3837 H   0  0  0  0  0  0  0  0  0  0  0  0
   -2.4385    0.8818   -0.6190 H   0  0  0  0  0  0  0  0  0  0  0  0
   -1.7500   -0.7408    2.3648 H   0  0  0  0  0  0  0  0  0  0  0  0
   -2.0815   -0.9975    0.5808 H   0  0  0  0  0  0  0  0  0  0  0  0
    0.0105   -2.3913   -1.5711 H   0  0  0  0  0  0  0  0  0  0  0  0
    0.9652   -2.7334   -0.1179 H   0  0  0  0  0  0  0  0  0  0  0  0
    1.6800   -1.7741   -1.4333 H   0  0  0  0  0  0  0  0  0  0  0  0
  1  2  1  0
  2  3  1  0
  3  4  1  0
  4  5  1  0
  5  6  1  0
  6  7  1  0
  7  8  1  0
  8  9  1  0
  8  2  1  0
  8  3  1  0
  1 10  1  0
  1 11  1  0
  1 12  1  0
  2 13  1  0
  3 14  1  0
  4 15  1  0
  4 16  1  0
  6 17  1  0
  6 18  1  0
  9 19  1  0
  9 20  1  0
  9 21  1  0
M  END
