
     RDKit          3D

 23 24  0  0  0  0  0  0  0  0999 V2000
    2.4941   -0.0405    0.7402 C   0  0  0  0  0  0  0  0  0  0  0  0
    1.2889    0.0609   -0.1476 C   0  0  0  0  0  0  0  0  0  0  0  0
    0.3822   -1.1764    0.0163 C   0  0  0  0  0  0  0  0  0  0  0  0
   -1.0090   -0.6267   -0.3414 C   0  0  0  0  0  0  0  0  0  0  0  0
   -1.9443   -0.6242    0.8032 C   0  0  0  0  0  0  0  0  0  0  0  0
   -1.5211   -1.4974   -1.3092 O   0  0  0  0  0  0  0  0  0  0  0  0
   -0.6783    0.6798   -0.9314 C   0  0  0  0  0  0  0  0  0  0  0  0
   -0.5249    1.9867   -0.4431 C   0  0  0  0  0  0  0  0  0  0  0  0
    0.3086    1.0891    0.2402 C   0  0  0  0  0  0  0  0  0  0  0  0
    3.1543    0.7962    0.5105 H   0  0  0  0  0  0  0  0  0  0  0  0
    3.0339   -0.9823    0.4429 H   0  0  0  0  0  0  0  0  0  0  0  0
    2.2332   -0.0704    1.8000 H   0  0  0  0  0  0  0  0  0  0  0  0
    1.5944    0.1029   -1.1935 H   0  0  0  0  0  0  0  0  0  0  0  0
    0.3679   -1.4069    1.0844 H   0  0  0  0  0  0  0  0  0  0  0  0
    0.6992   -1.9720   -0.6484 H   0  0  0  0  0  0  0  0  0  0  0  0
   -2.6638    0.2347    0.6568 H   0  0  0  0  0  0  0  0  0  0  0  0
   -2.6094   -1.5359    0.7913 H   0  0  0  0  0  0  0  0  0  0  0  0
   -1.5104   -0.5174    1.7927 H   0  0  0  0  0  0  0  0  0  0  0  0
   -1.4092   -1.0670   -2.2084 H   0  0  0  0  0  0  0  0  0  0  0  0
   -0.1789    0.4986   -1.9367 H   0  0  0  0  0  0  0  0  0  0  0  0
   -1.4089    2.4613    0.0737 H   0  0  0  0  0  0  0  0  0  0  0  0
   -0.0398    2.7830   -1.0770 H   0  0  0  0  0  0  0  0  0  0  0  0
   -0.0587    0.8238    1.2845 H   0  0  0  0  0  0  0  0  0  0  0  0
  1  2  1  0
  2  3  1  0
  3  4  1  0
  4  5  1  0
  4  6  1  0
  4  7  1  0
  7  8  1  0
  8  9  1  0
  9  2  1  0
  9  7  1  0
  1 10  1  0
  1 11  1  0
  1 12  1  0
  2 13  1  0
  3 14  1  0
  3 15  1  0
  5 16  1  0
  5 17  1  0
  5 18  1  0
  6 19  1  0
  7 20  1  0
  8 21  1  0
  8 22  1  0
  9 23  1  0
M  END
