
     RDKit          3D

 21 22  0  0  0  0  0  0  0  0999 V2000
    2.1261    0.0298    0.8294 C   0  0  0  0  0  0  0  0  0  0  0  0
    1.0961    0.2107   -0.2436 C   0  0  0  0  0  0  0  0  0  0  0  0
    0.2624    1.4190   -0.0702 C   0  0  0  0  0  0  0  0  0  0  0  0
    0.7149    2.5371   -0.2581 O   0  0  0  0  0  0  0  0  0  0  0  0
   -1.1496    1.2488    0.3408 C   0  0  0  0  0  0  0  0  0  0  0  0
   -1.6507   -0.0890   -0.1521 C   0  0  0  0  0  0  0  0  0  0  0  0
   -0.9052   -0.5438   -1.4028 C   0  0  0  0  0  0  0  0  0  0  0  0
    0.2192   -0.9847   -0.4547 C   0  0  0  0  0  0  0  0  0  0  0  0
   -0.8376   -1.1501    0.6009 C   0  0  0  0  0  0  0  0  0  0  0  0
    3.0831    0.5547    0.5387 H   0  0  0  0  0  0  0  0  0  0  0  0
    2.3961   -1.0237    0.9778 H   0  0  0  0  0  0  0  0  0  0  0  0
    1.8300    0.5213    1.8003 H   0  0  0  0  0  0  0  0  0  0  0  0
    1.6658    0.3620   -1.2081 H   0  0  0  0  0  0  0  0  0  0  0  0
   -1.1393    1.1731    1.4667 H   0  0  0  0  0  0  0  0  0  0  0  0
   -1.8125    2.0545   -0.0024 H   0  0  0  0  0  0  0  0  0  0  0  0
   -2.7254   -0.2439   -0.1560 H   0  0  0  0  0  0  0  0  0  0  0  0
   -0.5809    0.2620   -2.0691 H   0  0  0  0  0  0  0  0  0  0  0  0
   -1.3907   -1.4158   -1.8363 H   0  0  0  0  0  0  0  0  0  0  0  0
    0.7337   -1.9064   -0.7753 H   0  0  0  0  0  0  0  0  0  0  0  0
   -0.5787   -0.8898    1.6220 H   0  0  0  0  0  0  0  0  0  0  0  0
   -1.3568   -2.1258    0.4519 H   0  0  0  0  0  0  0  0  0  0  0  0
  1  2  1  0
  2  3  1  0
  3  4  2  0
  3  5  1  0
  5  6  1  0
  6  7  1  0
  7  8  1  0
  8  9  1  0
  8  2  1  0
  9  6  1  0
  1 10  1  0
  1 11  1  0
  1 12  1  0
  2 13  1  0
  5 14  1  0
  5 15  1  0
  6 16  1  0
  7 17  1  0
  7 18  1  0
  8 19  1  0
  9 20  1  0
  9 21  1  0
M  END
