
     RDKit          3D

 23 24  0  0  0  0  0  0  0  0999 V2000
    2.3773   -0.4066   -0.5636 C   0  0  0  0  0  0  0  0  0  0  0  0
    1.1382    0.0365    0.2293 C   0  0  0  0  0  0  0  0  0  0  0  0
    1.0390    1.5086    0.2125 C   0  0  0  0  0  0  0  0  0  0  0  0
   -0.0272    2.0301   -0.4828 O   0  0  0  0  0  0  0  0  0  0  0  0
   -1.2397    1.4438   -0.0998 C   0  0  0  0  0  0  0  0  0  0  0  0
   -1.2382    0.0458   -0.6095 C   0  0  0  0  0  0  0  0  0  0  0  0
   -2.0658   -0.9590    0.1255 C   0  0  0  0  0  0  0  0  0  0  0  0
   -0.8101   -1.3781    0.8738 C   0  0  0  0  0  0  0  0  0  0  0  0
   -0.0152   -0.7284   -0.2658 C   0  0  0  0  0  0  0  0  0  0  0  0
    2.0110   -0.6522   -1.5947 H   0  0  0  0  0  0  0  0  0  0  0  0
    3.1305    0.3937   -0.6041 H   0  0  0  0  0  0  0  0  0  0  0  0
    2.7618   -1.3496   -0.1217 H   0  0  0  0  0  0  0  0  0  0  0  0
    1.3694   -0.2769    1.2907 H   0  0  0  0  0  0  0  0  0  0  0  0
    0.9773    1.9430    1.2542 H   0  0  0  0  0  0  0  0  0  0  0  0
    1.9650    1.9535   -0.2258 H   0  0  0  0  0  0  0  0  0  0  0  0
   -1.4580    1.5549    0.9618 H   0  0  0  0  0  0  0  0  0  0  0  0
   -2.0318    2.0310   -0.6463 H   0  0  0  0  0  0  0  0  0  0  0  0
   -1.5154    0.0385   -1.7010 H   0  0  0  0  0  0  0  0  0  0  0  0
   -2.4087   -1.8097   -0.5120 H   0  0  0  0  0  0  0  0  0  0  0  0
   -2.8577   -0.6012    0.7754 H   0  0  0  0  0  0  0  0  0  0  0  0
   -0.6298   -2.4648    0.9181 H   0  0  0  0  0  0  0  0  0  0  0  0
   -0.6687   -0.8734    1.8454 H   0  0  0  0  0  0  0  0  0  0  0  0
    0.1968   -1.4797   -1.0598 H   0  0  0  0  0  0  0  0  0  0  0  0
  1  2  1  0
  2  3  1  0
  3  4  1  0
  4  5  1  0
  5  6  1  0
  6  7  1  0
  7  8  1  0
  8  9  1  0
  9  2  1  0
  9  6  1  0
  1 10  1  0
  1 11  1  0
  1 12  1  0
  2 13  1  0
  3 14  1  0
  3 15  1  0
  5 16  1  0
  5 17  1  0
  6 18  1  0
  7 19  1  0
  7 20  1  0
  8 21  1  0
  8 22  1  0
  9 23  1  0
M  END
