
     RDKit          3D

 21 22  0  0  0  0  0  0  0  0999 V2000
   -1.5598   -1.4341    0.9366 C   0  0  0  0  0  0  0  0  0  0  0  0
   -0.4758   -0.4259    0.6878 C   0  0  0  0  0  0  0  0  0  0  0  0
   -1.1014    0.9355    0.5747 C   0  0  0  0  0  0  0  0  0  0  0  0
   -0.4249    1.8354   -0.4060 C   0  0  0  0  0  0  0  0  0  0  0  0
    1.0063    1.5103   -0.5904 C   0  0  0  0  0  0  0  0  0  0  0  0
    1.4024    0.2503   -0.6576 C   0  0  0  0  0  0  0  0  0  0  0  0
    2.3116   -0.9061   -0.7878 C   0  0  0  0  0  0  0  0  0  0  0  0
    1.3037   -1.7602   -0.3119 O   0  0  0  0  0  0  0  0  0  0  0  0
    0.3286   -0.8014   -0.5358 C   0  0  0  0  0  0  0  0  0  0  0  0
   -2.3091   -0.9695    1.6098 H   0  0  0  0  0  0  0  0  0  0  0  0
   -1.2070   -2.3499    1.4244 H   0  0  0  0  0  0  0  0  0  0  0  0
   -2.0286   -1.6460   -0.0696 H   0  0  0  0  0  0  0  0  0  0  0  0
    0.2212   -0.4823    1.5623 H   0  0  0  0  0  0  0  0  0  0  0  0
   -1.0432    1.3908    1.6072 H   0  0  0  0  0  0  0  0  0  0  0  0
   -2.1891    0.8271    0.3810 H   0  0  0  0  0  0  0  0  0  0  0  0
   -0.9808    1.8208   -1.3627 H   0  0  0  0  0  0  0  0  0  0  0  0
   -0.5104    2.8894   -0.0229 H   0  0  0  0  0  0  0  0  0  0  0  0
    1.7859    2.2747   -0.6780 H   0  0  0  0  0  0  0  0  0  0  0  0
    3.2080   -0.8907   -0.1110 H   0  0  0  0  0  0  0  0  0  0  0  0
    2.5687   -1.1462   -1.8393 H   0  0  0  0  0  0  0  0  0  0  0  0
   -0.3061   -0.9221   -1.4108 H   0  0  0  0  0  0  0  0  0  0  0  0
  1  2  1  0
  2  3  1  0
  3  4  1  0
  4  5  1  0
  5  6  2  0
  6  7  1  0
  7  8  1  0
  8  9  1  0
  9  2  1  0
  9  6  1  0
  1 10  1  0
  1 11  1  0
  1 12  1  0
  2 13  1  0
  3 14  1  0
  3 15  1  0
  4 16  1  0
  4 17  1  0
  5 18  1  0
  7 19  1  0
  7 20  1  0
  9 21  1  0
M  END
