
     RDKit          3D

 22 22  0  0  0  0  0  0  0  0999 V2000
   -2.5110    0.8697   -0.1336 C   0  0  0  0  0  0  0  0  0  0  0  0
   -1.1678    0.3252    0.1271 C   0  0  0  0  0  0  0  0  0  0  0  0
   -1.0916   -1.1931    0.0768 C   0  0  0  0  0  0  0  0  0  0  0  0
    0.4200   -1.3494    0.3124 C   0  0  0  0  0  0  0  0  0  0  0  0
    0.9586   -0.3288   -0.6661 C   0  0  0  0  0  0  0  0  0  0  0  0
    2.2450    0.2199   -0.0913 C   0  0  0  0  0  0  0  0  0  0  0  0
    2.8067    1.1796   -0.9504 O   0  0  0  0  0  0  0  0  0  0  0  0
   -0.0974    0.7186   -0.8311 C   0  0  0  0  0  0  0  0  0  0  0  0
   -2.6824    1.0483   -1.1996 H   0  0  0  0  0  0  0  0  0  0  0  0
   -3.2741    0.1710    0.3051 H   0  0  0  0  0  0  0  0  0  0  0  0
   -2.6435    1.8192    0.4659 H   0  0  0  0  0  0  0  0  0  0  0  0
   -0.8227    0.6076    1.1533 H   0  0  0  0  0  0  0  0  0  0  0  0
   -1.3679   -1.6003   -0.9075 H   0  0  0  0  0  0  0  0  0  0  0  0
   -1.6038   -1.6652    0.9271 H   0  0  0  0  0  0  0  0  0  0  0  0
    0.7621   -2.3635    0.1326 H   0  0  0  0  0  0  0  0  0  0  0  0
    0.5971   -0.9582    1.3236 H   0  0  0  0  0  0  0  0  0  0  0  0
    1.1876   -0.7923   -1.6455 H   0  0  0  0  0  0  0  0  0  0  0  0
    2.9899   -0.5975   -0.0269 H   0  0  0  0  0  0  0  0  0  0  0  0
    2.1289    0.6466    0.9042 H   0  0  0  0  0  0  0  0  0  0  0  0
    3.3815    0.7352   -1.6453 H   0  0  0  0  0  0  0  0  0  0  0  0
    0.2348    1.7418   -0.5797 H   0  0  0  0  0  0  0  0  0  0  0  0
   -0.4501    0.7655   -1.8904 H   0  0  0  0  0  0  0  0  0  0  0  0
  1  2  1  0
  2  3  1  0
  3  4  1  0
  4  5  1  0
  5  6  1  0
  6  7  1  0
  5  8  1  0
  8  2  1  0
  1  9  1  0
  1 10  1  0
  1 11  1  0
  2 12  1  0
  3 13  1  0
  3 14  1  0
  4 15  1  0
  4 16  1  0
  5 17  1  0
  6 18  1  0
  6 19  1  0
  7 20  1  0
  8 21  1  0
  8 22  1  0
M  END
