
     RDKit          3D

 22 23  0  0  0  0  0  0  0  0999 V2000
   -2.1078    0.8793    0.4700 C   0  0  0  0  0  0  0  0  0  0  0  0
   -0.7049    0.6628    0.0351 C   0  0  0  0  0  0  0  0  0  0  0  0
   -0.6014   -0.3579   -1.1157 C   0  0  0  0  0  0  0  0  0  0  0  0
    0.4999   -1.2115   -0.5602 C   0  0  0  0  0  0  0  0  0  0  0  0
   -0.0609   -1.5247    0.8339 C   0  0  0  0  0  0  0  0  0  0  0  0
    0.1698   -0.0230    1.0312 C   0  0  0  0  0  0  0  0  0  0  0  0
    1.4302   -0.2645    0.1894 C   0  0  0  0  0  0  0  0  0  0  0  0
    1.8896    0.9063   -0.6025 C   0  0  0  0  0  0  0  0  0  0  0  0
   -2.8709    0.6631   -0.3093 H   0  0  0  0  0  0  0  0  0  0  0  0
   -2.2254    1.9826    0.6824 H   0  0  0  0  0  0  0  0  0  0  0  0
   -2.3607    0.3859    1.4492 H   0  0  0  0  0  0  0  0  0  0  0  0
   -0.2474    1.5953   -0.3661 H   0  0  0  0  0  0  0  0  0  0  0  0
   -1.5374   -0.9836   -1.1293 H   0  0  0  0  0  0  0  0  0  0  0  0
   -0.3845    0.1175   -2.0670 H   0  0  0  0  0  0  0  0  0  0  0  0
    0.9151   -2.0030   -1.1176 H   0  0  0  0  0  0  0  0  0  0  0  0
   -1.1018   -1.8364    0.8030 H   0  0  0  0  0  0  0  0  0  0  0  0
    0.6425   -2.1087    1.4473 H   0  0  0  0  0  0  0  0  0  0  0  0
    0.2910    0.3413    2.0132 H   0  0  0  0  0  0  0  0  0  0  0  0
    2.1635   -0.7995    0.7939 H   0  0  0  0  0  0  0  0  0  0  0  0
    1.7556    1.8841   -0.1001 H   0  0  0  0  0  0  0  0  0  0  0  0
    2.9977    0.7998   -0.7609 H   0  0  0  0  0  0  0  0  0  0  0  0
    1.4480    0.8949   -1.6198 H   0  0  0  0  0  0  0  0  0  0  0  0
  1  2  1  0
  2  3  1  0
  3  4  1  0
  4  5  1  0
  5  6  1  0
  6  7  1  0
  7  8  1  0
  6  2  1  0
  7  4  1  0
  1  9  1  0
  1 10  1  0
  1 11  1  0
  2 12  1  0
  3 13  1  0
  3 14  1  0
  4 15  1  0
  5 16  1  0
  5 17  1  0
  6 18  1  0
  7 19  1  0
  8 20  1  0
  8 21  1  0
  8 22  1  0
M  END
