
     RDKit          3D

 21 21  0  0  0  0  0  0  0  0999 V2000
   -2.1059    0.8661   -0.0759 C   0  0  0  0  0  0  0  0  0  0  0  0
   -0.7168    0.4032   -0.3856 C   0  0  0  0  0  0  0  0  0  0  0  0
   -0.7601   -1.0011   -0.9793 C   0  0  0  0  0  0  0  0  0  0  0  0
    0.4677   -1.4487   -1.3745 O   0  0  0  0  0  0  0  0  0  0  0  0
    1.4631   -1.3846   -0.4454 C   0  0  0  0  0  0  0  0  0  0  0  0
    1.5272   -0.1202    0.3445 C   0  0  0  0  0  0  0  0  0  0  0  0
    2.0716    0.8919   -0.4345 O   0  0  0  0  0  0  0  0  0  0  0  0
    0.1523    0.3005    0.8577 C   0  0  0  0  0  0  0  0  0  0  0  0
    0.2249    1.4836    1.5338 O   0  0  0  0  0  0  0  0  0  0  0  0
   -2.6039    1.0951   -1.0409 H   0  0  0  0  0  0  0  0  0  0  0  0
   -2.6696    0.0080    0.3548 H   0  0  0  0  0  0  0  0  0  0  0  0
   -2.1279    1.7387    0.5860 H   0  0  0  0  0  0  0  0  0  0  0  0
   -0.1883    1.0964   -1.0720 H   0  0  0  0  0  0  0  0  0  0  0  0
   -1.2961   -1.6596   -0.2751 H   0  0  0  0  0  0  0  0  0  0  0  0
   -1.3952   -0.9059   -1.9029 H   0  0  0  0  0  0  0  0  0  0  0  0
    2.4431   -1.4652   -1.0045 H   0  0  0  0  0  0  0  0  0  0  0  0
    1.4878   -2.2504    0.2638 H   0  0  0  0  0  0  0  0  0  0  0  0
    2.2127   -0.2694    1.2021 H   0  0  0  0  0  0  0  0  0  0  0  0
    2.5106    1.6048    0.0969 H   0  0  0  0  0  0  0  0  0  0  0  0
   -0.2751   -0.4976    1.4763 H   0  0  0  0  0  0  0  0  0  0  0  0
   -0.4222    1.5143    2.2747 H   0  0  0  0  0  0  0  0  0  0  0  0
  1  2  1  0
  2  3  1  0
  3  4  1  0
  4  5  1  0
  5  6  1  0
  6  7  1  0
  6  8  1  0
  8  9  1  0
  8  2  1  0
  1 10  1  0
  1 11  1  0
  1 12  1  0
  2 13  1  0
  3 14  1  0
  3 15  1  0
  5 16  1  0
  5 17  1  0
  6 18  1  0
  7 19  1  0
  8 20  1  0
  9 21  1  0
M  END
