
     RDKit          3D

 21 21  0  0  0  0  0  0  0  0999 V2000
   -2.3502   -0.4174   -0.0158 C   0  0  0  0  0  0  0  0  0  0  0  0
   -0.8540   -0.2489    0.1283 C   0  0  0  0  0  0  0  0  0  0  0  0
   -0.5107    1.1895    0.0527 C   0  0  0  0  0  0  0  0  0  0  0  0
    0.9143    1.5438   -0.1558 C   0  0  0  0  0  0  0  0  0  0  0  0
    1.8881    0.7480    0.6256 C   0  0  0  0  0  0  0  0  0  0  0  0
    1.9989   -0.5704    0.6293 C   0  0  0  0  0  0  0  0  0  0  0  0
    1.1683   -1.5055   -0.1483 C   0  0  0  0  0  0  0  0  0  0  0  0
    1.5746   -2.6915   -0.2290 O   0  0  0  0  0  0  0  0  0  0  0  0
   -0.1220   -1.1421   -0.8466 C   0  0  0  0  0  0  0  0  0  0  0  0
   -2.7087   -0.0252   -0.9893 H   0  0  0  0  0  0  0  0  0  0  0  0
   -2.6451   -1.4712    0.1643 H   0  0  0  0  0  0  0  0  0  0  0  0
   -2.8138    0.2251    0.7864 H   0  0  0  0  0  0  0  0  0  0  0  0
   -0.6181   -0.5956    1.1780 H   0  0  0  0  0  0  0  0  0  0  0  0
   -1.1611    1.6797   -0.7143 H   0  0  0  0  0  0  0  0  0  0  0  0
   -0.8118    1.6463    1.0445 H   0  0  0  0  0  0  0  0  0  0  0  0
    1.1079    2.6118    0.0296 H   0  0  0  0  0  0  0  0  0  0  0  0
    1.1499    1.3750   -1.2462 H   0  0  0  0  0  0  0  0  0  0  0  0
    2.5910    1.3075    1.2683 H   0  0  0  0  0  0  0  0  0  0  0  0
    2.7799   -1.0062    1.2658 H   0  0  0  0  0  0  0  0  0  0  0  0
   -0.7189   -2.0586   -1.0458 H   0  0  0  0  0  0  0  0  0  0  0  0
    0.1415   -0.5941   -1.7816 H   0  0  0  0  0  0  0  0  0  0  0  0
  1  2  1  0
  2  3  1  0
  3  4  1  0
  4  5  1  0
  5  6  2  0
  6  7  1  0
  7  8  2  0
  7  9  1  0
  9  2  1  0
  1 10  1  0
  1 11  1  0
  1 12  1  0
  2 13  1  0
  3 14  1  0
  3 15  1  0
  4 16  1  0
  4 17  1  0
  5 18  1  0
  6 19  1  0
  9 20  1  0
  9 21  1  0
M  END
