
     RDKit          3D

 21 23  0  0  0  0  0  0  0  0999 V2000
   -2.7313   -0.4294   -0.1678 C   0  0  0  0  0  0  0  0  0  0  0  0
   -1.6942    0.5128    0.4186 C   0  0  0  0  0  0  0  0  0  0  0  0
   -0.4702    0.6475   -0.2635 C   0  0  0  0  0  0  0  0  0  0  0  0
    0.5594   -0.2427   -0.8082 C   0  0  0  0  0  0  0  0  0  0  0  0
    1.5122   -0.6326    0.2293 C   0  0  0  0  0  0  0  0  0  0  0  0
    2.7118   -0.1026    0.7736 C   0  0  0  0  0  0  0  0  0  0  0  0
    1.5667    0.6896    1.0774 C   0  0  0  0  0  0  0  0  0  0  0  0
    0.4601    0.5658    1.8208 O   0  0  0  0  0  0  0  0  0  0  0  0
   -0.5863    0.0333    1.1786 C   0  0  0  0  0  0  0  0  0  0  0  0
   -3.2427   -0.9583    0.6633 H   0  0  0  0  0  0  0  0  0  0  0  0
   -2.2780   -1.1234   -0.9081 H   0  0  0  0  0  0  0  0  0  0  0  0
   -3.5133    0.1588   -0.6857 H   0  0  0  0  0  0  0  0  0  0  0  0
   -2.2262    1.3961    0.8738 H   0  0  0  0  0  0  0  0  0  0  0  0
   -0.1640    1.7118   -0.3551 H   0  0  0  0  0  0  0  0  0  0  0  0
    1.1206    0.2293   -1.6613 H   0  0  0  0  0  0  0  0  0  0  0  0
    0.0839   -1.1487   -1.2905 H   0  0  0  0  0  0  0  0  0  0  0  0
    1.2069   -1.5659    0.7471 H   0  0  0  0  0  0  0  0  0  0  0  0
    3.4846    0.2424    0.0357 H   0  0  0  0  0  0  0  0  0  0  0  0
    3.2394   -0.5714    1.6290 H   0  0  0  0  0  0  0  0  0  0  0  0
    1.5865    1.6582    0.5420 H   0  0  0  0  0  0  0  0  0  0  0  0
   -0.6260   -1.0707    1.2711 H   0  0  0  0  0  0  0  0  0  0  0  0
  1  2  1  0
  2  3  1  0
  3  4  1  0
  4  5  1  0
  5  6  1  0
  6  7  1  0
  7  8  1  0
  8  9  1  0
  9  2  1  0
  9  3  1  0
  7  5  1  0
  1 10  1  0
  1 11  1  0
  1 12  1  0
  2 13  1  0
  3 14  1  0
  4 15  1  0
  4 16  1  0
  5 17  1  0
  6 18  1  0
  6 19  1  0
  7 20  1  0
  9 21  1  0
M  END
