
     RDKit          3D

 21 21  0  0  0  0  0  0  0  0999 V2000
   -2.2672   -0.5011    0.0183 C   0  0  0  0  0  0  0  0  0  0  0  0
   -0.8541   -0.3619    0.4811 C   0  0  0  0  0  0  0  0  0  0  0  0
    0.0230   -1.4453   -0.1628 C   0  0  0  0  0  0  0  0  0  0  0  0
    1.0565   -0.3326   -0.3891 C   0  0  0  0  0  0  0  0  0  0  0  0
    2.0105   -0.2709    0.7764 C   0  0  0  0  0  0  0  0  0  0  0  0
   -0.0889    0.6442   -0.3362 C   0  0  0  0  0  0  0  0  0  0  0  0
    0.1905    1.9591    0.3191 C   0  0  0  0  0  0  0  0  0  0  0  0
   -2.9868   -0.1833    0.8132 H   0  0  0  0  0  0  0  0  0  0  0  0
   -2.4588    0.1424   -0.8768 H   0  0  0  0  0  0  0  0  0  0  0  0
   -2.4593   -1.5427   -0.3283 H   0  0  0  0  0  0  0  0  0  0  0  0
   -0.6681   -0.3679    1.5608 H   0  0  0  0  0  0  0  0  0  0  0  0
    0.3421   -2.2398    0.5117 H   0  0  0  0  0  0  0  0  0  0  0  0
   -0.4241   -1.8224   -1.1133 H   0  0  0  0  0  0  0  0  0  0  0  0
    1.5390   -0.4682   -1.3620 H   0  0  0  0  0  0  0  0  0  0  0  0
    1.5031   -0.5316    1.7343 H   0  0  0  0  0  0  0  0  0  0  0  0
    2.5493    0.6864    0.8117 H   0  0  0  0  0  0  0  0  0  0  0  0
    2.7589   -1.0869    0.6144 H   0  0  0  0  0  0  0  0  0  0  0  0
   -0.5427    0.7930   -1.3277 H   0  0  0  0  0  0  0  0  0  0  0  0
    0.5529    1.8785    1.3514 H   0  0  0  0  0  0  0  0  0  0  0  0
   -0.7254    2.5650    0.2771 H   0  0  0  0  0  0  0  0  0  0  0  0
    0.9497    2.4860   -0.3255 H   0  0  0  0  0  0  0  0  0  0  0  0
  1  2  1  0
  2  3  1  0
  3  4  1  0
  4  5  1  0
  4  6  1  0
  6  7  1  0
  6  2  1  0
  1  8  1  0
  1  9  1  0
  1 10  1  0
  2 11  1  0
  3 12  1  0
  3 13  1  0
  4 14  1  0
  5 15  1  0
  5 16  1  0
  5 17  1  0
  6 18  1  0
  7 19  1  0
  7 20  1  0
  7 21  1  0
M  END
