
     RDKit          3D

 21 22  0  0  0  0  0  0  0  0999 V2000
    2.5322    0.3165   -0.1147 C   0  0  0  0  0  0  0  0  0  0  0  0
    1.2126   -0.3605    0.1102 C   0  0  0  0  0  0  0  0  0  0  0  0
    0.2621   -0.3079   -1.0951 C   0  0  0  0  0  0  0  0  0  0  0  0
   -0.8136    0.0611   -0.1586 C   0  0  0  0  0  0  0  0  0  0  0  0
   -1.9185    0.9130   -0.5705 C   0  0  0  0  0  0  0  0  0  0  0  0
   -2.7845    0.1248    0.2258 O   0  0  0  0  0  0  0  0  0  0  0  0
   -1.8369   -0.9246    0.2162 C   0  0  0  0  0  0  0  0  0  0  0  0
    0.1782    0.5106    0.8373 C   0  0  0  0  0  0  0  0  0  0  0  0
   -0.0467    0.0483    2.1403 O   0  0  0  0  0  0  0  0  0  0  0  0
    3.1445   -0.3286   -0.7482 H   0  0  0  0  0  0  0  0  0  0  0  0
    2.9991    0.4731    0.8823 H   0  0  0  0  0  0  0  0  0  0  0  0
    2.3555    1.3079   -0.5548 H   0  0  0  0  0  0  0  0  0  0  0  0
    1.2526   -1.3832    0.5069 H   0  0  0  0  0  0  0  0  0  0  0  0
    0.0881   -1.2886   -1.5633 H   0  0  0  0  0  0  0  0  0  0  0  0
    0.6235    0.4724   -1.7894 H   0  0  0  0  0  0  0  0  0  0  0  0
   -2.2628    0.7766   -1.6369 H   0  0  0  0  0  0  0  0  0  0  0  0
   -1.9770    1.9542   -0.2500 H   0  0  0  0  0  0  0  0  0  0  0  0
   -2.0545   -1.6453   -0.6260 H   0  0  0  0  0  0  0  0  0  0  0  0
   -1.6887   -1.4259    1.1705 H   0  0  0  0  0  0  0  0  0  0  0  0
    0.4553    1.5893    0.7913 H   0  0  0  0  0  0  0  0  0  0  0  0
    0.2796   -0.8832    2.2269 H   0  0  0  0  0  0  0  0  0  0  0  0
  1  2  1  0
  2  3  1  0
  3  4  1  0
  4  5  1  0
  5  6  1  0
  6  7  1  0
  4  8  1  0
  8  9  1  0
  8  2  1  0
  7  4  1  0
  1 10  1  0
  1 11  1  0
  1 12  1  0
  2 13  1  0
  3 14  1  0
  3 15  1  0
  5 16  1  0
  5 17  1  0
  7 18  1  0
  7 19  1  0
  8 20  1  0
  9 21  1  0
M  END
