
     RDKit          3D

 23 23  0  0  0  0  0  0  0  0999 V2000
    2.2926   -1.5876    0.0247 C   0  0  0  0  0  0  0  0  0  0  0  0
    1.2056   -0.5833    0.2067 C   0  0  0  0  0  0  0  0  0  0  0  0
    1.5846    0.7743   -0.2779 C   0  0  0  0  0  0  0  0  0  0  0  0
    0.8493    1.8605   -0.2557 C   0  0  0  0  0  0  0  0  0  0  0  0
   -0.5545    1.9987    0.2644 C   0  0  0  0  0  0  0  0  0  0  0  0
   -1.3877    0.9497   -0.4407 C   0  0  0  0  0  0  0  0  0  0  0  0
   -1.0557   -0.3811    0.1548 C   0  0  0  0  0  0  0  0  0  0  0  0
   -2.1998   -1.3666    0.0587 C   0  0  0  0  0  0  0  0  0  0  0  0
    0.0442   -0.9372   -0.5149 O   0  0  0  0  0  0  0  0  0  0  0  0
    1.9801   -2.4001   -0.6931 H   0  0  0  0  0  0  0  0  0  0  0  0
    3.2097   -1.0881   -0.3230 H   0  0  0  0  0  0  0  0  0  0  0  0
    2.5482   -2.0395    1.0267 H   0  0  0  0  0  0  0  0  0  0  0  0
    0.8819   -0.5151    1.2833 H   0  0  0  0  0  0  0  0  0  0  0  0
    2.5791    0.8818   -0.6970 H   0  0  0  0  0  0  0  0  0  0  0  0
    1.3312    2.7418   -0.6632 H   0  0  0  0  0  0  0  0  0  0  0  0
   -0.9047    3.0174    0.1163 H   0  0  0  0  0  0  0  0  0  0  0  0
   -0.4934    1.6905    1.3412 H   0  0  0  0  0  0  0  0  0  0  0  0
   -2.4715    1.1839   -0.4280 H   0  0  0  0  0  0  0  0  0  0  0  0
   -1.0828    0.9286   -1.5078 H   0  0  0  0  0  0  0  0  0  0  0  0
   -0.8305   -0.2588    1.2385 H   0  0  0  0  0  0  0  0  0  0  0  0
   -1.9131   -2.3010   -0.4752 H   0  0  0  0  0  0  0  0  0  0  0  0
   -3.0297   -0.9025   -0.4990 H   0  0  0  0  0  0  0  0  0  0  0  0
   -2.5830   -1.6662    1.0602 H   0  0  0  0  0  0  0  0  0  0  0  0
  1  2  1  0
  2  3  1  0
  3  4  2  0
  4  5  1  0
  5  6  1  0
  6  7  1  0
  7  8  1  0
  7  9  1  0
  9  2  1  0
  1 10  1  0
  1 11  1  0
  1 12  1  0
  2 13  1  0
  3 14  1  0
  4 15  1  0
  5 16  1  0
  5 17  1  0
  6 18  1  0
  6 19  1  0
  7 20  1  0
  8 21  1  0
  8 22  1  0
  8 23  1  0
M  END
