
     RDKit          3D

 19 19  0  0  0  0  0  0  0  0999 V2000
   -1.8235   -1.4008    0.2797 C   0  0  0  0  0  0  0  0  0  0  0  0
   -0.6994   -0.4368    0.1740 C   0  0  0  0  0  0  0  0  0  0  0  0
   -1.1615    0.9808   -0.1052 C   0  0  0  0  0  0  0  0  0  0  0  0
   -0.0449    1.9167   -0.1139 C   0  0  0  0  0  0  0  0  0  0  0  0
   -0.3522    3.1240   -0.1919 O   0  0  0  0  0  0  0  0  0  0  0  0
    1.2864    1.6334   -0.0475 O   0  0  0  0  0  0  0  0  0  0  0  0
    2.0735    0.4903    0.0425 C   0  0  0  0  0  0  0  0  0  0  0  0
    1.5045   -0.7723   -0.4364 C   0  0  0  0  0  0  0  0  0  0  0  0
    0.1904   -0.7273   -0.8635 O   0  0  0  0  0  0  0  0  0  0  0  0
   -2.2664   -1.3350    1.3010 H   0  0  0  0  0  0  0  0  0  0  0  0
   -2.6049   -1.2615   -0.4943 H   0  0  0  0  0  0  0  0  0  0  0  0
   -1.4048   -2.4312    0.2070 H   0  0  0  0  0  0  0  0  0  0  0  0
   -0.1563   -0.4124    1.1512 H   0  0  0  0  0  0  0  0  0  0  0  0
   -1.9825    1.2872    0.5886 H   0  0  0  0  0  0  0  0  0  0  0  0
   -1.6334    1.0083   -1.1300 H   0  0  0  0  0  0  0  0  0  0  0  0
    2.3947    0.3778    1.1028 H   0  0  0  0  0  0  0  0  0  0  0  0
    3.0280    0.7248   -0.5162 H   0  0  0  0  0  0  0  0  0  0  0  0
    1.5515   -1.5874    0.3437 H   0  0  0  0  0  0  0  0  0  0  0  0
    2.1009   -1.1786   -1.2914 H   0  0  0  0  0  0  0  0  0  0  0  0
  1  2  1  0
  2  3  1  0
  3  4  1  0
  4  5  2  0
  4  6  1  0
  6  7  1  0
  7  8  1  0
  8  9  1  0
  9  2  1  0
  1 10  1  0
  1 11  1  0
  1 12  1  0
  2 13  1  0
  3 14  1  0
  3 15  1  0
  7 16  1  0
  7 17  1  0
  8 18  1  0
  8 19  1  0
M  END
