
     RDKit          3D

 20 20  0  0  0  0  0  0  0  0999 V2000
    2.0861   -0.6127   -0.0007 C   0  0  0  0  0  0  0  0  0  0  0  0
    0.7476   -0.0733    0.3898 C   0  0  0  0  0  0  0  0  0  0  0  0
    0.6189    1.3704   -0.1263 C   0  0  0  0  0  0  0  0  0  0  0  0
   -0.8720    1.0393   -0.2815 C   0  0  0  0  0  0  0  0  0  0  0  0
   -1.5744    1.2438    0.8974 O   0  0  0  0  0  0  0  0  0  0  0  0
   -0.3981   -0.3928   -0.4977 C   0  0  0  0  0  0  0  0  0  0  0  0
   -1.3503   -1.4512   -0.0685 C   0  0  0  0  0  0  0  0  0  0  0  0
    0.0026   -0.5480   -1.8122 O   0  0  0  0  0  0  0  0  0  0  0  0
    1.9796   -1.6989   -0.1839 H   0  0  0  0  0  0  0  0  0  0  0  0
    2.5007   -0.0704   -0.8856 H   0  0  0  0  0  0  0  0  0  0  0  0
    2.7802   -0.4883    0.8696 H   0  0  0  0  0  0  0  0  0  0  0  0
    0.5701   -0.0836    1.4819 H   0  0  0  0  0  0  0  0  0  0  0  0
    0.8514    2.1044    0.6359 H   0  0  0  0  0  0  0  0  0  0  0  0
    1.0526    1.4798   -1.1244 H   0  0  0  0  0  0  0  0  0  0  0  0
   -1.3495    1.4537   -1.1639 H   0  0  0  0  0  0  0  0  0  0  0  0
   -2.0241    2.1239    0.8134 H   0  0  0  0  0  0  0  0  0  0  0  0
   -1.7964   -1.2699    0.9245 H   0  0  0  0  0  0  0  0  0  0  0  0
   -0.8630   -2.4232   -0.1313 H   0  0  0  0  0  0  0  0  0  0  0  0
   -2.1962   -1.4645   -0.7978 H   0  0  0  0  0  0  0  0  0  0  0  0
   -0.7659   -0.2387   -2.3767 H   0  0  0  0  0  0  0  0  0  0  0  0
  1  2  1  0
  2  3  1  0
  3  4  1  0
  4  5  1  0
  4  6  1  0
  6  7  1  0
  6  8  1  0
  6  2  1  0
  1  9  1  0
  1 10  1  0
  1 11  1  0
  2 12  1  0
  3 13  1  0
  3 14  1  0
  4 15  1  0
  5 16  1  0
  7 17  1  0
  7 18  1  0
  7 19  1  0
  8 20  1  0
M  END
