
     RDKit          3D

 21 23  0  0  0  0  0  0  0  0999 V2000
    1.9744   -0.4568   -0.6536 C   0  0  0  0  0  0  0  0  0  0  0  0
    1.4833    0.7471    0.0833 C   0  0  0  0  0  0  0  0  0  0  0  0
    0.7351    0.5147    1.3454 C   0  0  0  0  0  0  0  0  0  0  0  0
   -0.2216   -0.6544    1.0627 C   0  0  0  0  0  0  0  0  0  0  0  0
   -0.7386   -0.0999   -0.2489 C   0  0  0  0  0  0  0  0  0  0  0  0
   -1.4514   -0.7962   -1.2464 C   0  0  0  0  0  0  0  0  0  0  0  0
   -2.2483    0.1112   -0.3339 C   0  0  0  0  0  0  0  0  0  0  0  0
    0.0679    1.1365   -0.3347 C   0  0  0  0  0  0  0  0  0  0  0  0
   -0.0482    1.6377    0.9852 O   0  0  0  0  0  0  0  0  0  0  0  0
    2.7007   -1.0648   -0.0600 H   0  0  0  0  0  0  0  0  0  0  0  0
    2.5355   -0.1091   -1.5455 H   0  0  0  0  0  0  0  0  0  0  0  0
    1.1030   -1.0701   -0.9713 H   0  0  0  0  0  0  0  0  0  0  0  0
    2.1380    1.6106    0.1494 H   0  0  0  0  0  0  0  0  0  0  0  0
    1.2178    0.5340    2.2914 H   0  0  0  0  0  0  0  0  0  0  0  0
    0.3123   -1.5939    0.9064 H   0  0  0  0  0  0  0  0  0  0  0  0
   -1.0335   -0.6990    1.8038 H   0  0  0  0  0  0  0  0  0  0  0  0
   -1.6005   -1.8922   -1.1728 H   0  0  0  0  0  0  0  0  0  0  0  0
   -1.4102   -0.4491   -2.2970 H   0  0  0  0  0  0  0  0  0  0  0  0
   -2.6256    1.0706   -0.7213 H   0  0  0  0  0  0  0  0  0  0  0  0
   -2.8466   -0.3092    0.4791 H   0  0  0  0  0  0  0  0  0  0  0  0
   -0.0435    1.8321   -1.1333 H   0  0  0  0  0  0  0  0  0  0  0  0
  1  2  1  0
  2  3  1  0
  3  4  1  0
  4  5  1  0
  5  6  1  0
  6  7  1  0
  5  8  1  0
  8  9  1  0
  8  2  1  0
  9  3  1  0
  7  5  1  0
  1 10  1  0
  1 11  1  0
  1 12  1  0
  2 13  1  0
  3 14  1  0
  4 15  1  0
  4 16  1  0
  6 17  1  0
  6 18  1  0
  7 19  1  0
  7 20  1  0
  8 21  1  0
M  END
