
     RDKit          3D

 21 22  0  0  0  0  0  0  0  0999 V2000
    2.4659   -0.1671   -0.0459 C   0  0  0  0  0  0  0  0  0  0  0  0
    1.1146    0.2264    0.4263 C   0  0  0  0  0  0  0  0  0  0  0  0
    0.4493    1.2030   -0.5286 C   0  0  0  0  0  0  0  0  0  0  0  0
   -0.8003    0.3356   -0.3941 C   0  0  0  0  0  0  0  0  0  0  0  0
   -2.0338    0.8964    0.2066 C   0  0  0  0  0  0  0  0  0  0  0  0
   -0.7006   -0.9995   -0.9901 C   0  0  0  0  0  0  0  0  0  0  0  0
   -1.7570   -1.8912   -0.9425 O   0  0  0  0  0  0  0  0  0  0  0  0
   -0.0004   -0.7354    0.2694 C   0  0  0  0  0  0  0  0  0  0  0  0
   -0.4396   -1.3558    1.4210 O   0  0  0  0  0  0  0  0  0  0  0  0
    2.6938   -1.2344    0.1392 H   0  0  0  0  0  0  0  0  0  0  0  0
    3.2310    0.4236    0.5211 H   0  0  0  0  0  0  0  0  0  0  0  0
    2.6185    0.1227   -1.1141 H   0  0  0  0  0  0  0  0  0  0  0  0
    1.1456    0.6642    1.4613 H   0  0  0  0  0  0  0  0  0  0  0  0
    0.3705    2.2095   -0.1233 H   0  0  0  0  0  0  0  0  0  0  0  0
    0.8258    1.1452   -1.5722 H   0  0  0  0  0  0  0  0  0  0  0  0
   -2.8116    1.0767   -0.5686 H   0  0  0  0  0  0  0  0  0  0  0  0
   -2.4317    0.3348    1.0649 H   0  0  0  0  0  0  0  0  0  0  0  0
   -1.7772    1.9196    0.6109 H   0  0  0  0  0  0  0  0  0  0  0  0
   -0.1564   -1.0399   -1.9787 H   0  0  0  0  0  0  0  0  0  0  0  0
   -2.1694   -1.9639   -0.0530 H   0  0  0  0  0  0  0  0  0  0  0  0
    0.1631   -1.1705    2.1905 H   0  0  0  0  0  0  0  0  0  0  0  0
  1  2  1  0
  2  3  1  0
  3  4  1  0
  4  5  1  0
  4  6  1  0
  6  7  1  0
  6  8  1  0
  8  9  1  0
  8  2  1  0
  8  4  1  0
  1 10  1  0
  1 11  1  0
  1 12  1  0
  2 13  1  0
  3 14  1  0
  3 15  1  0
  5 16  1  0
  5 17  1  0
  5 18  1  0
  6 19  1  0
  7 20  1  0
  9 21  1  0
M  END
