
     RDKit          3D

 17 18  0  0  0  0  0  0  0  0999 V2000
   -1.5145    0.1864   -0.9500 C   0  0  0  0  0  0  0  0  0  0  0  0
   -1.1791    0.2816    0.5059 C   0  0  0  0  0  0  0  0  0  0  0  0
   -0.5098   -0.9113    1.1103 C   0  0  0  0  0  0  0  0  0  0  0  0
    0.6245   -1.2237    0.1731 C   0  0  0  0  0  0  0  0  0  0  0  0
    1.1018   -0.0013   -0.0372 C   0  0  0  0  0  0  0  0  0  0  0  0
    2.2130    0.4361   -0.8705 C   0  0  0  0  0  0  0  0  0  0  0  0
    2.9054   -0.3771   -1.5446 O   0  0  0  0  0  0  0  0  0  0  0  0
    0.1953    0.8166    0.8102 C   0  0  0  0  0  0  0  0  0  0  0  0
    0.1510    0.0030    1.9649 O   0  0  0  0  0  0  0  0  0  0  0  0
   -2.0130    1.1306   -1.2491 H   0  0  0  0  0  0  0  0  0  0  0  0
   -0.5874    0.1314   -1.5833 H   0  0  0  0  0  0  0  0  0  0  0  0
   -2.2057   -0.6614   -1.1774 H   0  0  0  0  0  0  0  0  0  0  0  0
   -1.9393    0.7511    1.1266 H   0  0  0  0  0  0  0  0  0  0  0  0
   -1.0555   -1.7033    1.5380 H   0  0  0  0  0  0  0  0  0  0  0  0
    0.9470   -2.1809   -0.2114 H   0  0  0  0  0  0  0  0  0  0  0  0
    2.5058    1.4722   -0.9587 H   0  0  0  0  0  0  0  0  0  0  0  0
    0.3603    1.8499    0.9246 H   0  0  0  0  0  0  0  0  0  0  0  0
  1  2  1  0
  2  3  1  0
  3  4  1  0
  4  5  2  0
  5  6  1  0
  6  7  2  0
  5  8  1  0
  8  9  1  0
  8  2  1  0
  9  3  1  0
  1 10  1  0
  1 11  1  0
  1 12  1  0
  2 13  1  0
  3 14  1  0
  4 15  1  0
  6 16  1  0
  8 17  1  0
M  END
