
     RDKit          3D

 25 26  0  0  0  0  0  0  0  0999 V2000
   -2.1226    1.3094    0.1806 C   0  0  0  0  0  0  0  0  0  0  0  0
   -0.8887    0.5711   -0.2552 C   0  0  0  0  0  0  0  0  0  0  0  0
   -1.2438   -0.8303   -0.7519 C   0  0  0  0  0  0  0  0  0  0  0  0
   -0.1847   -1.6456   -0.0888 C   0  0  0  0  0  0  0  0  0  0  0  0
    1.1628   -1.1270   -0.5795 C   0  0  0  0  0  0  0  0  0  0  0  0
    1.4572    0.1132    0.2430 C   0  0  0  0  0  0  0  0  0  0  0  0
    2.0604    1.2201   -0.5183 C   0  0  0  0  0  0  0  0  0  0  0  0
    0.1163    0.3967    0.8465 C   0  0  0  0  0  0  0  0  0  0  0  0
   -0.2227   -1.0316    1.3170 C   0  0  0  0  0  0  0  0  0  0  0  0
   -2.9244    0.5925    0.4716 H   0  0  0  0  0  0  0  0  0  0  0  0
   -2.5202    1.8899   -0.6751 H   0  0  0  0  0  0  0  0  0  0  0  0
   -1.9456    1.9653    1.0669 H   0  0  0  0  0  0  0  0  0  0  0  0
   -0.4504    1.0934   -1.1119 H   0  0  0  0  0  0  0  0  0  0  0  0
   -1.1874   -0.9167   -1.8358 H   0  0  0  0  0  0  0  0  0  0  0  0
   -2.2709   -1.0909   -0.3946 H   0  0  0  0  0  0  0  0  0  0  0  0
   -0.2937   -2.7052   -0.1062 H   0  0  0  0  0  0  0  0  0  0  0  0
    1.0241   -0.8241   -1.6479 H   0  0  0  0  0  0  0  0  0  0  0  0
    1.9042   -1.9231   -0.4449 H   0  0  0  0  0  0  0  0  0  0  0  0
    2.1583   -0.2008    1.0592 H   0  0  0  0  0  0  0  0  0  0  0  0
    2.7404    0.7984   -1.2946 H   0  0  0  0  0  0  0  0  0  0  0  0
    1.3921    1.9538   -0.9516 H   0  0  0  0  0  0  0  0  0  0  0  0
    2.7489    1.7875    0.1755 H   0  0  0  0  0  0  0  0  0  0  0  0
    0.0875    1.1202    1.6355 H   0  0  0  0  0  0  0  0  0  0  0  0
   -1.2063   -1.0867    1.7686 H   0  0  0  0  0  0  0  0  0  0  0  0
    0.6091   -1.4294    1.8921 H   0  0  0  0  0  0  0  0  0  0  0  0
  1  2  1  0
  2  3  1  0
  3  4  1  0
  4  5  1  0
  5  6  1  0
  6  7  1  0
  6  8  1  0
  8  9  1  0
  8  2  1  0
  9  4  1  0
  1 10  1  0
  1 11  1  0
  1 12  1  0
  2 13  1  0
  3 14  1  0
  3 15  1  0
  4 16  1  0
  5 17  1  0
  5 18  1  0
  6 19  1  0
  7 20  1  0
  7 21  1  0
  7 22  1  0
  8 23  1  0
  9 24  1  0
  9 25  1  0
M  END
