
     RDKit          3D

 19 21  0  0  0  0  0  0  0  0999 V2000
    2.1027   -0.4908    0.7177 C   0  0  0  0  0  0  0  0  0  0  0  0
    1.4038   -0.3008   -0.6331 C   0  0  0  0  0  0  0  0  0  0  0  0
    0.8165    1.1348   -0.8527 C   0  0  0  0  0  0  0  0  0  0  0  0
    0.0124    0.0159   -0.5802 C   0  0  0  0  0  0  0  0  0  0  0  0
   -1.0175   -0.5423   -1.2984 O   0  0  0  0  0  0  0  0  0  0  0  0
   -1.7742    0.3952   -0.5554 C   0  0  0  0  0  0  0  0  0  0  0  0
   -2.2203    0.3178    0.7813 C   0  0  0  0  0  0  0  0  0  0  0  0
   -0.8910   -0.2280    0.6012 C   0  0  0  0  0  0  0  0  0  0  0  0
   -0.9474   -1.6501    0.6966 O   0  0  0  0  0  0  0  0  0  0  0  0
    2.8314    0.3050    0.9121 H   0  0  0  0  0  0  0  0  0  0  0  0
    1.3582   -0.4640    1.5557 H   0  0  0  0  0  0  0  0  0  0  0  0
    2.5264   -1.4971    0.7049 H   0  0  0  0  0  0  0  0  0  0  0  0
    1.9491   -0.7355   -1.4824 H   0  0  0  0  0  0  0  0  0  0  0  0
    1.0559    1.8752   -0.0665 H   0  0  0  0  0  0  0  0  0  0  0  0
    0.9310    1.5209   -1.8952 H   0  0  0  0  0  0  0  0  0  0  0  0
   -1.3885    1.4127   -0.8904 H   0  0  0  0  0  0  0  0  0  0  0  0
   -3.1479   -0.2900    1.0023 H   0  0  0  0  0  0  0  0  0  0  0  0
   -2.2625    1.2575    1.4094 H   0  0  0  0  0  0  0  0  0  0  0  0
   -1.3380   -2.0363   -0.1270 H   0  0  0  0  0  0  0  0  0  0  0  0
  1  2  1  0
  2  3  1  0
  3  4  1  0
  4  5  1  0
  5  6  1  0
  6  7  1  0
  7  8  1  0
  8  9  1  0
  4  2  1  0
  8  6  1  0
  8  4  1  0
  1 10  1  0
  1 11  1  0
  1 12  1  0
  2 13  1  0
  3 14  1  0
  3 15  1  0
  6 16  1  0
  7 17  1  0
  7 18  1  0
  9 19  1  0
M  END
