
     RDKit          3D

 23 24  0  0  0  0  0  0  0  0999 V2000
   -2.5521    0.1038    0.7820 C   0  0  0  0  0  0  0  0  0  0  0  0
   -1.5911    0.0648   -0.4273 C   0  0  0  0  0  0  0  0  0  0  0  0
   -0.8313    1.3646   -0.3610 C   0  0  0  0  0  0  0  0  0  0  0  0
    0.4135    1.4595    0.1185 C   0  0  0  0  0  0  0  0  0  0  0  0
    1.3106    0.4757    0.6563 C   0  0  0  0  0  0  0  0  0  0  0  0
    2.6485    0.0965    0.2996 C   0  0  0  0  0  0  0  0  0  0  0  0
    1.6794   -0.4514   -0.5394 C   0  0  0  0  0  0  0  0  0  0  0  0
    0.6951   -1.5624   -0.4507 C   0  0  0  0  0  0  0  0  0  0  0  0
   -0.7219   -1.1157   -0.5187 C   0  0  0  0  0  0  0  0  0  0  0  0
   -2.8081    1.1475    1.0280 H   0  0  0  0  0  0  0  0  0  0  0  0
   -3.4186   -0.5343    0.6416 H   0  0  0  0  0  0  0  0  0  0  0  0
   -1.9809   -0.3037    1.6626 H   0  0  0  0  0  0  0  0  0  0  0  0
   -2.3495    0.0623   -1.2479 H   0  0  0  0  0  0  0  0  0  0  0  0
   -1.3274    2.2409   -0.7189 H   0  0  0  0  0  0  0  0  0  0  0  0
    0.7718    2.4922    0.0727 H   0  0  0  0  0  0  0  0  0  0  0  0
    0.9797    0.0353    1.6095 H   0  0  0  0  0  0  0  0  0  0  0  0
    3.2608   -0.5557    0.9593 H   0  0  0  0  0  0  0  0  0  0  0  0
    3.3108    0.9190   -0.0948 H   0  0  0  0  0  0  0  0  0  0  0  0
    1.5687    0.0221   -1.5686 H   0  0  0  0  0  0  0  0  0  0  0  0
    0.9350   -2.2801    0.3963 H   0  0  0  0  0  0  0  0  0  0  0  0
    0.8886   -2.2703   -1.2947 H   0  0  0  0  0  0  0  0  0  0  0  0
   -0.4682   -0.7574    0.4962 H   0  0  0  0  0  0  0  0  0  0  0  0
   -0.4133   -0.6533   -1.5004 H   0  0  0  0  0  0  0  0  0  0  0  0
  1  2  1  0
  2  3  1  0
  3  4  2  0
  4  5  1  0
  5  6  1  0
  6  7  1  0
  7  8  1  0
  8  9  1  0
  9  2  1  0
  7  5  1  0
  1 10  1  0
  1 11  1  0
  1 12  1  0
  2 13  1  0
  3 14  1  0
  4 15  1  0
  5 16  1  0
  6 17  1  0
  6 18  1  0
  7 19  1  0
  8 20  1  0
  8 21  1  0
  9 22  1  0
  9 23  1  0
M  END
