
     RDKit          3D

 21 23  0  0  0  0  0  0  0  0999 V2000
   -2.6755    0.2572    0.4978 C   0  0  0  0  0  0  0  0  0  0  0  0
   -1.4421    0.2664   -0.3121 C   0  0  0  0  0  0  0  0  0  0  0  0
   -0.4658    1.3646    0.0755 C   0  0  0  0  0  0  0  0  0  0  0  0
    0.7349    0.9669    0.0169 C   0  0  0  0  0  0  0  0  0  0  0  0
    2.1821    0.7734    0.0417 C   0  0  0  0  0  0  0  0  0  0  0  0
    1.9566   -0.6740    0.7308 C   0  0  0  0  0  0  0  0  0  0  0  0
    0.8030   -1.2742   -0.0304 C   0  0  0  0  0  0  0  0  0  0  0  0
    0.5466   -0.2750   -1.0093 C   0  0  0  0  0  0  0  0  0  0  0  0
   -0.5787   -0.9846   -0.1861 C   0  0  0  0  0  0  0  0  0  0  0  0
   -2.5244    0.6145    1.5554 H   0  0  0  0  0  0  0  0  0  0  0  0
   -3.4439    0.9077    0.0039 H   0  0  0  0  0  0  0  0  0  0  0  0
   -3.0662   -0.7960    0.5346 H   0  0  0  0  0  0  0  0  0  0  0  0
   -1.6758    0.4292   -1.3719 H   0  0  0  0  0  0  0  0  0  0  0  0
   -0.8346    2.3495    0.3582 H   0  0  0  0  0  0  0  0  0  0  0  0
    2.6843    0.6083   -0.8996 H   0  0  0  0  0  0  0  0  0  0  0  0
    2.7245    1.3746    0.7651 H   0  0  0  0  0  0  0  0  0  0  0  0
    2.9051   -1.1538    0.5541 H   0  0  0  0  0  0  0  0  0  0  0  0
    1.7743   -0.5163    1.7794 H   0  0  0  0  0  0  0  0  0  0  0  0
    1.0947   -2.3520   -0.3193 H   0  0  0  0  0  0  0  0  0  0  0  0
    0.4462   -0.0862   -1.9997 H   0  0  0  0  0  0  0  0  0  0  0  0
   -1.1453   -1.8003   -0.7850 H   0  0  0  0  0  0  0  0  0  0  0  0
  1  2  1  0
  2  3  1  0
  3  4  2  0
  4  5  1  0
  5  6  1  0
  6  7  1  0
  7  8  1  0
  8  9  1  0
  9  2  1  0
  8  4  1  0
  9  7  1  0
  1 10  1  0
  1 11  1  0
  1 12  1  0
  2 13  1  0
  3 14  1  0
  5 15  1  0
  5 16  1  0
  6 17  1  0
  6 18  1  0
  7 19  1  0
  8 20  1  0
  9 21  1  0
M  END
