
     RDKit          3D

 20 20  0  0  0  0  0  0  0  0999 V2000
    2.3964   -0.1003    0.3773 C   0  0  0  0  0  0  0  0  0  0  0  0
    1.1822   -0.1079   -0.5713 C   0  0  0  0  0  0  0  0  0  0  0  0
    0.5958    1.3058   -0.4553 C   0  0  0  0  0  0  0  0  0  0  0  0
   -0.6373    1.6511   -0.1238 C   0  0  0  0  0  0  0  0  0  0  0  0
   -1.8250    0.8780    0.2324 C   0  0  0  0  0  0  0  0  0  0  0  0
   -2.0701   -0.4189    0.3161 C   0  0  0  0  0  0  0  0  0  0  0  0
   -1.1283   -1.5805    0.0497 C   0  0  0  0  0  0  0  0  0  0  0  0
    0.1436   -1.0297   -0.3015 C   0  0  0  0  0  0  0  0  0  0  0  0
    2.2737   -1.0216    1.0136 H   0  0  0  0  0  0  0  0  0  0  0  0
    3.3543   -0.1319   -0.1260 H   0  0  0  0  0  0  0  0  0  0  0  0
    2.3833    0.7700    1.0542 H   0  0  0  0  0  0  0  0  0  0  0  0
    1.6659   -0.2333   -1.5793 H   0  0  0  0  0  0  0  0  0  0  0  0
    1.2497    2.1002   -0.6638 H   0  0  0  0  0  0  0  0  0  0  0  0
   -0.8422    2.7406   -0.1033 H   0  0  0  0  0  0  0  0  0  0  0  0
   -2.7059    1.4985    0.4861 H   0  0  0  0  0  0  0  0  0  0  0  0
   -3.0551   -0.6907    0.6082 H   0  0  0  0  0  0  0  0  0  0  0  0
   -1.5729   -2.2819   -0.7126 H   0  0  0  0  0  0  0  0  0  0  0  0
   -1.1091   -2.2770    0.9445 H   0  0  0  0  0  0  0  0  0  0  0  0
    0.1188   -0.5306    0.7331 H   0  0  0  0  0  0  0  0  0  0  0  0
   -0.4177   -0.5399   -1.1783 H   0  0  0  0  0  0  0  0  0  0  0  0
  1  2  1  0
  2  3  1  0
  3  4  2  0
  4  5  1  0
  5  6  2  0
  6  7  1  0
  7  8  1  0
  8  2  1  0
  1  9  1  0
  1 10  1  0
  1 11  1  0
  2 12  1  0
  3 13  1  0
  4 14  1  0
  5 15  1  0
  6 16  1  0
  7 17  1  0
  7 18  1  0
  8 19  1  0
  8 20  1  0
M  END
