
     RDKit          3D

 19 20  0  0  0  0  0  0  0  0999 V2000
   -2.4203    0.4210   -1.0507 C   0  0  0  0  0  0  0  0  0  0  0  0
   -1.2875   -0.4271   -0.5579 C   0  0  0  0  0  0  0  0  0  0  0  0
   -1.3210   -0.5004    0.9221 C   0  0  0  0  0  0  0  0  0  0  0  0
   -0.0584   -0.6642    1.3077 C   0  0  0  0  0  0  0  0  0  0  0  0
    0.7471   -0.6897    0.0395 C   0  0  0  0  0  0  0  0  0  0  0  0
    2.1058   -0.1026    0.2827 C   0  0  0  0  0  0  0  0  0  0  0  0
    2.6126    1.0205   -0.4219 C   0  0  0  0  0  0  0  0  0  0  0  0
    1.9778    1.2229    0.9214 O   0  0  0  0  0  0  0  0  0  0  0  0
   -0.0410    0.1021   -0.7947 O   0  0  0  0  0  0  0  0  0  0  0  0
   -3.3462   -0.2132   -0.9991 H   0  0  0  0  0  0  0  0  0  0  0  0
   -2.6150    1.3033   -0.4364 H   0  0  0  0  0  0  0  0  0  0  0  0
   -2.2984    0.7355   -2.1010 H   0  0  0  0  0  0  0  0  0  0  0  0
   -1.3461   -1.4159   -1.0439 H   0  0  0  0  0  0  0  0  0  0  0  0
   -2.2247   -0.4276    1.4990 H   0  0  0  0  0  0  0  0  0  0  0  0
    0.2744   -0.7549    2.3214 H   0  0  0  0  0  0  0  0  0  0  0  0
    0.7786   -1.7429   -0.2909 H   0  0  0  0  0  0  0  0  0  0  0  0
    2.7643   -0.7191    0.9082 H   0  0  0  0  0  0  0  0  0  0  0  0
    2.0107    1.5808   -1.1670 H   0  0  0  0  0  0  0  0  0  0  0  0
    3.6874    1.2715   -0.3704 H   0  0  0  0  0  0  0  0  0  0  0  0
  1  2  1  0
  2  3  1  0
  3  4  2  0
  4  5  1  0
  5  6  1  0
  6  7  1  0
  7  8  1  0
  5  9  1  0
  9  2  1  0
  8  6  1  0
  1 10  1  0
  1 11  1  0
  1 12  1  0
  2 13  1  0
  3 14  1  0
  4 15  1  0
  5 16  1  0
  6 17  1  0
  7 18  1  0
  7 19  1  0
M  END
