
     RDKit          3D

 20 21  0  0  0  0  0  0  0  0999 V2000
    2.0082    0.0779   -0.1763 C   0  0  0  0  0  0  0  0  0  0  0  0
    0.6575   -0.2418    0.3662 C   0  0  0  0  0  0  0  0  0  0  0  0
    0.2754   -1.7046    0.1625 C   0  0  0  0  0  0  0  0  0  0  0  0
   -1.2028   -1.5625   -0.1862 C   0  0  0  0  0  0  0  0  0  0  0  0
   -1.2357   -0.4070   -0.9824 O   0  0  0  0  0  0  0  0  0  0  0  0
   -0.4696    0.4819   -0.2656 C   0  0  0  0  0  0  0  0  0  0  0  0
   -1.2686    1.4601    0.5881 C   0  0  0  0  0  0  0  0  0  0  0  0
   -0.4653    1.8874   -0.6385 C   0  0  0  0  0  0  0  0  0  0  0  0
    2.2859   -0.5577   -1.0513 H   0  0  0  0  0  0  0  0  0  0  0  0
    2.0776    1.1574   -0.3944 H   0  0  0  0  0  0  0  0  0  0  0  0
    2.7571   -0.1583    0.6364 H   0  0  0  0  0  0  0  0  0  0  0  0
    0.6582   -0.0241    1.4560 H   0  0  0  0  0  0  0  0  0  0  0  0
    0.8142   -2.1692   -0.6699 H   0  0  0  0  0  0  0  0  0  0  0  0
    0.3359   -2.2908    1.0850 H   0  0  0  0  0  0  0  0  0  0  0  0
   -1.8078   -1.4461    0.7261 H   0  0  0  0  0  0  0  0  0  0  0  0
   -1.4833   -2.4669   -0.7491 H   0  0  0  0  0  0  0  0  0  0  0  0
   -0.8405    1.6539    1.5827 H   0  0  0  0  0  0  0  0  0  0  0  0
   -2.3776    1.4953    0.4440 H   0  0  0  0  0  0  0  0  0  0  0  0
   -1.0555    2.2168   -1.5385 H   0  0  0  0  0  0  0  0  0  0  0  0
    0.3368    2.5984   -0.3947 H   0  0  0  0  0  0  0  0  0  0  0  0
  1  2  1  0
  2  3  1  0
  3  4  1  0
  4  5  1  0
  5  6  1  0
  6  7  1  0
  7  8  1  0
  6  2  1  0
  8  6  1  0
  1  9  1  0
  1 10  1  0
  1 11  1  0
  2 12  1  0
  3 13  1  0
  3 14  1  0
  4 15  1  0
  4 16  1  0
  7 17  1  0
  7 18  1  0
  8 19  1  0
  8 20  1  0
M  END
