
     RDKit          3D

 21 21  0  0  0  0  0  0  0  0999 V2000
    2.4288   -0.4182    0.1155 C   0  0  0  0  0  0  0  0  0  0  0  0
    1.0312    0.0368   -0.1165 C   0  0  0  0  0  0  0  0  0  0  0  0
    0.7679    1.4561    0.3212 C   0  0  0  0  0  0  0  0  0  0  0  0
   -0.3597    1.9147   -0.2879 O   0  0  0  0  0  0  0  0  0  0  0  0
   -1.3648    1.0273   -0.4749 C   0  0  0  0  0  0  0  0  0  0  0  0
   -1.3523   -0.1989    0.3476 C   0  0  0  0  0  0  0  0  0  0  0  0
   -2.2506   -1.2035   -0.2979 C   0  0  0  0  0  0  0  0  0  0  0  0
   -2.9681   -1.9357    0.3378 O   0  0  0  0  0  0  0  0  0  0  0  0
   -0.0074   -0.8411    0.5219 C   0  0  0  0  0  0  0  0  0  0  0  0
    2.8300   -0.9721   -0.7834 H   0  0  0  0  0  0  0  0  0  0  0  0
    3.1084    0.4655    0.2464 H   0  0  0  0  0  0  0  0  0  0  0  0
    2.5262   -1.1397    0.9609 H   0  0  0  0  0  0  0  0  0  0  0  0
    0.8413    0.0092   -1.2206 H   0  0  0  0  0  0  0  0  0  0  0  0
    0.6403    1.5504    1.4192 H   0  0  0  0  0  0  0  0  0  0  0  0
    1.6315    2.0689   -0.0321 H   0  0  0  0  0  0  0  0  0  0  0  0
   -1.4425    0.7392   -1.5615 H   0  0  0  0  0  0  0  0  0  0  0  0
   -2.3381    1.5572   -0.2511 H   0  0  0  0  0  0  0  0  0  0  0  0
   -1.7709    0.0130    1.3647 H   0  0  0  0  0  0  0  0  0  0  0  0
   -2.2371   -1.2549   -1.3813 H   0  0  0  0  0  0  0  0  0  0  0  0
    0.0666   -1.8407    0.0307 H   0  0  0  0  0  0  0  0  0  0  0  0
    0.2195   -1.0332    1.6021 H   0  0  0  0  0  0  0  0  0  0  0  0
  1  2  1  0
  2  3  1  0
  3  4  1  0
  4  5  1  0
  5  6  1  0
  6  7  1  0
  7  8  2  0
  6  9  1  0
  9  2  1  0
  1 10  1  0
  1 11  1  0
  1 12  1  0
  2 13  1  0
  3 14  1  0
  3 15  1  0
  5 16  1  0
  5 17  1  0
  6 18  1  0
  7 19  1  0
  9 20  1  0
  9 21  1  0
M  END
