
     RDKit          3D

 21 23  0  0  0  0  0  0  0  0999 V2000
    2.0181   -0.6091   -0.4417 C   0  0  0  0  0  0  0  0  0  0  0  0
    1.1102    0.3370    0.2805 C   0  0  0  0  0  0  0  0  0  0  0  0
    0.3808   -0.3752    1.4079 C   0  0  0  0  0  0  0  0  0  0  0  0
   -1.0734   -0.3452    1.0038 C   0  0  0  0  0  0  0  0  0  0  0  0
   -1.3500   -1.1584   -0.2676 C   0  0  0  0  0  0  0  0  0  0  0  0
   -1.0503    0.0793   -1.0542 C   0  0  0  0  0  0  0  0  0  0  0  0
   -1.1745    0.8835    0.1812 C   0  0  0  0  0  0  0  0  0  0  0  0
    0.0551    0.9501   -0.5956 C   0  0  0  0  0  0  0  0  0  0  0  0
    0.3261    2.1302   -1.2599 O   0  0  0  0  0  0  0  0  0  0  0  0
    1.5116   -1.3649   -1.0461 H   0  0  0  0  0  0  0  0  0  0  0  0
    2.5926   -1.1698    0.3493 H   0  0  0  0  0  0  0  0  0  0  0  0
    2.7000   -0.0522   -1.1104 H   0  0  0  0  0  0  0  0  0  0  0  0
    1.7558    1.1668    0.6776 H   0  0  0  0  0  0  0  0  0  0  0  0
    0.7756   -1.3928    1.5435 H   0  0  0  0  0  0  0  0  0  0  0  0
    0.4748    0.2596    2.3139 H   0  0  0  0  0  0  0  0  0  0  0  0
   -1.8100   -0.5077    1.7830 H   0  0  0  0  0  0  0  0  0  0  0  0
   -2.4341   -1.4263   -0.3117 H   0  0  0  0  0  0  0  0  0  0  0  0
   -0.7073   -2.0244   -0.4118 H   0  0  0  0  0  0  0  0  0  0  0  0
   -1.6582    0.3588   -1.9338 H   0  0  0  0  0  0  0  0  0  0  0  0
   -1.8887    1.6721    0.3374 H   0  0  0  0  0  0  0  0  0  0  0  0
   -0.5544    2.5886   -1.4455 H   0  0  0  0  0  0  0  0  0  0  0  0
  1  2  1  0
  2  3  1  0
  3  4  1  0
  4  5  1  0
  5  6  1  0
  6  7  1  0
  7  8  1  0
  8  9  1  0
  8  2  1  0
  7  4  1  0
  8  6  1  0
  1 10  1  0
  1 11  1  0
  1 12  1  0
  2 13  1  0
  3 14  1  0
  3 15  1  0
  4 16  1  0
  5 17  1  0
  5 18  1  0
  6 19  1  0
  7 20  1  0
  9 21  1  0
M  END
