
     RDKit          3D

 18 19  0  0  0  0  0  0  0  0999 V2000
    2.3754    0.5520   -0.2466 C   0  0  0  0  0  0  0  0  0  0  0  0
    1.3792   -0.4917    0.2778 C   0  0  0  0  0  0  0  0  0  0  0  0
    0.2229   -0.0261    0.9257 C   0  0  0  0  0  0  0  0  0  0  0  0
   -0.7301    1.0570    0.6474 C   0  0  0  0  0  0  0  0  0  0  0  0
   -1.8323    0.5747    0.0175 C   0  0  0  0  0  0  0  0  0  0  0  0
   -2.0126   -0.8418   -0.3230 C   0  0  0  0  0  0  0  0  0  0  0  0
   -0.8273   -1.5955   -0.3447 O   0  0  0  0  0  0  0  0  0  0  0  0
    0.2040   -0.7429   -0.4681 C   0  0  0  0  0  0  0  0  0  0  0  0
    1.9507    1.5827   -0.1418 H   0  0  0  0  0  0  0  0  0  0  0  0
    3.3306    0.5139    0.2936 H   0  0  0  0  0  0  0  0  0  0  0  0
    2.5059    0.3865   -1.3360 H   0  0  0  0  0  0  0  0  0  0  0  0
    1.9321   -1.3508    0.7146 H   0  0  0  0  0  0  0  0  0  0  0  0
   -0.1590   -0.6339    1.8006 H   0  0  0  0  0  0  0  0  0  0  0  0
   -0.6076    2.0845    0.8905 H   0  0  0  0  0  0  0  0  0  0  0  0
   -2.6363    1.2579   -0.2588 H   0  0  0  0  0  0  0  0  0  0  0  0
   -2.7637   -1.3587    0.3184 H   0  0  0  0  0  0  0  0  0  0  0  0
   -2.3933   -0.8739   -1.3854 H   0  0  0  0  0  0  0  0  0  0  0  0
    0.0614   -0.0940   -1.3816 H   0  0  0  0  0  0  0  0  0  0  0  0
  1  2  1  0
  2  3  1  0
  3  4  1  0
  4  5  2  0
  5  6  1  0
  6  7  1  0
  7  8  1  0
  8  2  1  0
  8  3  1  0
  1  9  1  0
  1 10  1  0
  1 11  1  0
  2 12  1  0
  3 13  1  0
  4 14  1  0
  5 15  1  0
  6 16  1  0
  6 17  1  0
  8 18  1  0
M  END
