
     RDKit          3D

 21 23  0  0  0  0  0  0  0  0999 V2000
   -1.7457    1.1020    0.4193 C   0  0  0  0  0  0  0  0  0  0  0  0
   -1.3830   -0.3019    0.7688 C   0  0  0  0  0  0  0  0  0  0  0  0
   -1.5571   -1.2090   -0.5011 C   0  0  0  0  0  0  0  0  0  0  0  0
   -0.3264   -0.4764   -0.9447 C   0  0  0  0  0  0  0  0  0  0  0  0
    0.6618    0.1416   -1.5502 C   0  0  0  0  0  0  0  0  0  0  0  0
    1.6931    0.6110   -0.6144 C   0  0  0  0  0  0  0  0  0  0  0  0
    2.4813   -0.2285    0.2931 C   0  0  0  0  0  0  0  0  0  0  0  0
    1.1478    0.3047    0.7452 C   0  0  0  0  0  0  0  0  0  0  0  0
    0.0530   -0.6508    0.5343 C   0  0  0  0  0  0  0  0  0  0  0  0
   -2.6109    1.4548    1.0136 H   0  0  0  0  0  0  0  0  0  0  0  0
   -0.8649    1.7951    0.5430 H   0  0  0  0  0  0  0  0  0  0  0  0
   -2.0410    1.2318   -0.6570 H   0  0  0  0  0  0  0  0  0  0  0  0
   -1.8777   -0.7593    1.6228 H   0  0  0  0  0  0  0  0  0  0  0  0
   -1.3408   -2.2475   -0.2028 H   0  0  0  0  0  0  0  0  0  0  0  0
   -2.4663   -0.9999   -1.0479 H   0  0  0  0  0  0  0  0  0  0  0  0
    0.7236    0.2972   -2.6328 H   0  0  0  0  0  0  0  0  0  0  0  0
    2.1351    1.6442   -0.7827 H   0  0  0  0  0  0  0  0  0  0  0  0
    2.5786   -1.2977   -0.0052 H   0  0  0  0  0  0  0  0  0  0  0  0
    3.3534    0.1875    0.7981 H   0  0  0  0  0  0  0  0  0  0  0  0
    1.1118    1.1289    1.4513 H   0  0  0  0  0  0  0  0  0  0  0  0
    0.2745   -1.7276    0.7494 H   0  0  0  0  0  0  0  0  0  0  0  0
  1  2  1  0
  2  3  1  0
  3  4  1  0
  4  5  2  0
  5  6  1  0
  6  7  1  0
  7  8  1  0
  8  9  1  0
  9  2  1  0
  9  4  1  0
  8  6  1  0
  1 10  1  0
  1 11  1  0
  1 12  1  0
  2 13  1  0
  3 14  1  0
  3 15  1  0
  5 16  1  0
  6 17  1  0
  7 18  1  0
  7 19  1  0
  8 20  1  0
  9 21  1  0
M  END
