
     RDKit          3D

 23 24  0  0  0  0  0  0  0  0999 V2000
    2.6957   -0.3152    0.2168 C   0  0  0  0  0  0  0  0  0  0  0  0
    1.2465    0.0817    0.3746 C   0  0  0  0  0  0  0  0  0  0  0  0
    0.9001    1.2133   -0.5553 C   0  0  0  0  0  0  0  0  0  0  0  0
   -0.4342    1.4947   -0.5697 O   0  0  0  0  0  0  0  0  0  0  0  0
   -1.2681    0.4670   -0.8877 C   0  0  0  0  0  0  0  0  0  0  0  0
   -2.5384    0.5869   -0.0258 C   0  0  0  0  0  0  0  0  0  0  0  0
   -1.7273   -0.1962    1.0215 C   0  0  0  0  0  0  0  0  0  0  0  0
   -1.0256   -0.8078   -0.1446 C   0  0  0  0  0  0  0  0  0  0  0  0
    0.4189   -1.1254    0.0055 C   0  0  0  0  0  0  0  0  0  0  0  0
    3.3793    0.2544    0.8642 H   0  0  0  0  0  0  0  0  0  0  0  0
    3.0078   -0.3505   -0.8455 H   0  0  0  0  0  0  0  0  0  0  0  0
    2.7580   -1.3832    0.5810 H   0  0  0  0  0  0  0  0  0  0  0  0
    1.0696    0.4112    1.4154 H   0  0  0  0  0  0  0  0  0  0  0  0
    1.2800    1.0610   -1.5794 H   0  0  0  0  0  0  0  0  0  0  0  0
    1.4317    2.1193   -0.1608 H   0  0  0  0  0  0  0  0  0  0  0  0
   -1.4777    0.2849   -1.9590 H   0  0  0  0  0  0  0  0  0  0  0  0
   -2.7684    1.6128    0.2461 H   0  0  0  0  0  0  0  0  0  0  0  0
   -3.3613   -0.0462   -0.3775 H   0  0  0  0  0  0  0  0  0  0  0  0
   -2.3437   -0.8398    1.6480 H   0  0  0  0  0  0  0  0  0  0  0  0
   -1.0746    0.5025    1.5869 H   0  0  0  0  0  0  0  0  0  0  0  0
   -1.5788   -1.6404   -0.6222 H   0  0  0  0  0  0  0  0  0  0  0  0
    0.7957   -1.4823   -0.9762 H   0  0  0  0  0  0  0  0  0  0  0  0
    0.6148   -1.9027    0.7441 H   0  0  0  0  0  0  0  0  0  0  0  0
  1  2  1  0
  2  3  1  0
  3  4  1  0
  4  5  1  0
  5  6  1  0
  6  7  1  0
  7  8  1  0
  8  9  1  0
  9  2  1  0
  8  5  1  0
  1 10  1  0
  1 11  1  0
  1 12  1  0
  2 13  1  0
  3 14  1  0
  3 15  1  0
  5 16  1  0
  6 17  1  0
  6 18  1  0
  7 19  1  0
  7 20  1  0
  8 21  1  0
  9 22  1  0
  9 23  1  0
M  END
