
     RDKit          3D

 19 19  0  0  0  0  0  0  0  0999 V2000
   -2.2876    0.6845   -0.6384 C   0  0  0  0  0  0  0  0  0  0  0  0
   -1.2513   -0.2611   -0.1328 C   0  0  0  0  0  0  0  0  0  0  0  0
   -0.2844   -0.7834   -1.1198 C   0  0  0  0  0  0  0  0  0  0  0  0
   -0.3430   -1.2522   -2.2295 O   0  0  0  0  0  0  0  0  0  0  0  0
    0.8018   -0.4850   -0.1595 C   0  0  0  0  0  0  0  0  0  0  0  0
    2.0051    0.1802   -0.7520 C   0  0  0  0  0  0  0  0  0  0  0  0
    2.9300    0.3876    0.2965 O   0  0  0  0  0  0  0  0  0  0  0  0
   -0.1180    0.4059    0.6437 C   0  0  0  0  0  0  0  0  0  0  0  0
   -0.2041    0.1059    1.9958 O   0  0  0  0  0  0  0  0  0  0  0  0
   -2.7333    1.2014    0.2620 H   0  0  0  0  0  0  0  0  0  0  0  0
   -3.1174    0.0911   -1.0641 H   0  0  0  0  0  0  0  0  0  0  0  0
   -1.9347    1.4003   -1.3800 H   0  0  0  0  0  0  0  0  0  0  0  0
   -1.7475   -1.0858    0.4531 H   0  0  0  0  0  0  0  0  0  0  0  0
    1.1334   -1.3699    0.4507 H   0  0  0  0  0  0  0  0  0  0  0  0
    2.4253   -0.5134   -1.5188 H   0  0  0  0  0  0  0  0  0  0  0  0
    1.7931    1.1561   -1.2146 H   0  0  0  0  0  0  0  0  0  0  0  0
    3.2073   -0.4929    0.6533 H   0  0  0  0  0  0  0  0  0  0  0  0
   -0.0146    1.4886    0.4661 H   0  0  0  0  0  0  0  0  0  0  0  0
   -0.2602   -0.8579    2.0938 H   0  0  0  0  0  0  0  0  0  0  0  0
  1  2  1  0
  2  3  1  0
  3  4  2  0
  3  5  1  0
  5  6  1  0
  6  7  1  0
  5  8  1  0
  8  9  1  0
  8  2  1  0
  1 10  1  0
  1 11  1  0
  1 12  1  0
  2 13  1  0
  5 14  1  0
  6 15  1  0
  6 16  1  0
  7 17  1  0
  8 18  1  0
  9 19  1  0
M  END
