
     RDKit          3D

 21 21  0  0  0  0  0  0  0  0999 V2000
   -2.8297   -0.8128   -0.5989 C   0  0  0  0  0  0  0  0  0  0  0  0
   -1.6872   -0.4813    0.3337 C   0  0  0  0  0  0  0  0  0  0  0  0
   -1.7319    0.9205    0.8022 C   0  0  0  0  0  0  0  0  0  0  0  0
   -0.4750    1.3051    0.9791 C   0  0  0  0  0  0  0  0  0  0  0  0
    0.3685    0.1097    0.6089 C   0  0  0  0  0  0  0  0  0  0  0  0
    1.5925    0.6005   -0.0859 C   0  0  0  0  0  0  0  0  0  0  0  0
    2.4328   -0.6092   -0.4531 C   0  0  0  0  0  0  0  0  0  0  0  0
    3.6058   -0.2027   -1.1144 O   0  0  0  0  0  0  0  0  0  0  0  0
   -0.4660   -0.5756   -0.3068 O   0  0  0  0  0  0  0  0  0  0  0  0
   -2.7871   -1.9080   -0.7754 H   0  0  0  0  0  0  0  0  0  0  0  0
   -3.7672   -0.6295   -0.0379 H   0  0  0  0  0  0  0  0  0  0  0  0
   -2.7449   -0.2055   -1.5003 H   0  0  0  0  0  0  0  0  0  0  0  0
   -1.6521   -1.1963    1.1941 H   0  0  0  0  0  0  0  0  0  0  0  0
   -2.6329    1.5460    0.9776 H   0  0  0  0  0  0  0  0  0  0  0  0
   -0.1064    2.2543    1.3124 H   0  0  0  0  0  0  0  0  0  0  0  0
    0.5454   -0.5720    1.4342 H   0  0  0  0  0  0  0  0  0  0  0  0
    1.3633    1.2287   -0.9524 H   0  0  0  0  0  0  0  0  0  0  0  0
    2.2167    1.2127    0.5963 H   0  0  0  0  0  0  0  0  0  0  0  0
    2.7178   -1.1329    0.4824 H   0  0  0  0  0  0  0  0  0  0  0  0
    1.8832   -1.2454   -1.1524 H   0  0  0  0  0  0  0  0  0  0  0  0
    4.1544    0.3937   -0.5315 H   0  0  0  0  0  0  0  0  0  0  0  0
  1  2  1  0
  2  3  1  0
  3  4  2  0
  4  5  1  0
  5  6  1  0
  6  7  1  0
  7  8  1  0
  5  9  1  0
  9  2  1  0
  1 10  1  0
  1 11  1  0
  1 12  1  0
  2 13  1  0
  3 14  1  0
  4 15  1  0
  5 16  1  0
  6 17  1  0
  6 18  1  0
  7 19  1  0
  7 20  1  0
  8 21  1  0
M  END
