
     RDKit          3D

 20 21  0  0  0  0  0  0  0  0999 V2000
   -2.3139    1.2110    0.0389 C   0  0  0  0  0  0  0  0  0  0  0  0
   -1.5307   -0.0374   -0.3283 C   0  0  0  0  0  0  0  0  0  0  0  0
   -1.4214   -1.1701    0.6008 C   0  0  0  0  0  0  0  0  0  0  0  0
   -0.2381   -0.3018    0.4408 C   0  0  0  0  0  0  0  0  0  0  0  0
    0.9230   -0.7117   -0.4201 C   0  0  0  0  0  0  0  0  0  0  0  0
    2.2442   -1.0084    0.1284 C   0  0  0  0  0  0  0  0  0  0  0  0
    2.0460    0.3319   -0.4958 C   0  0  0  0  0  0  0  0  0  0  0  0
    1.9741    1.4126    0.3821 O   0  0  0  0  0  0  0  0  0  0  0  0
   -3.3265    1.1321   -0.3769 H   0  0  0  0  0  0  0  0  0  0  0  0
   -1.7674    2.0726   -0.4428 H   0  0  0  0  0  0  0  0  0  0  0  0
   -2.3026    1.3387    1.1428 H   0  0  0  0  0  0  0  0  0  0  0  0
   -1.5200   -0.2158   -1.4312 H   0  0  0  0  0  0  0  0  0  0  0  0
   -1.9916   -1.0899    1.5498 H   0  0  0  0  0  0  0  0  0  0  0  0
   -1.3986   -2.1956    0.1651 H   0  0  0  0  0  0  0  0  0  0  0  0
   -0.0236    0.4368    1.2175 H   0  0  0  0  0  0  0  0  0  0  0  0
    0.6464   -1.2270   -1.3824 H   0  0  0  0  0  0  0  0  0  0  0  0
    2.4627   -1.0249    1.2216 H   0  0  0  0  0  0  0  0  0  0  0  0
    2.8877   -1.7414   -0.4221 H   0  0  0  0  0  0  0  0  0  0  0  0
    2.4044    0.5542   -1.5109 H   0  0  0  0  0  0  0  0  0  0  0  0
    2.2458    2.2343   -0.0773 H   0  0  0  0  0  0  0  0  0  0  0  0
  1  2  1  0
  2  3  1  0
  3  4  1  0
  4  5  1  0
  5  6  1  0
  6  7  1  0
  7  8  1  0
  4  2  1  0
  7  5  1  0
  1  9  1  0
  1 10  1  0
  1 11  1  0
  2 12  1  0
  3 13  1  0
  3 14  1  0
  4 15  1  0
  5 16  1  0
  6 17  1  0
  6 18  1  0
  7 19  1  0
  8 20  1  0
M  END
