
     RDKit          3D

 21 22  0  0  0  0  0  0  0  0999 V2000
   -2.0789   -0.9930   -0.6029 C   0  0  0  0  0  0  0  0  0  0  0  0
   -1.2707   -0.0768    0.3171 C   0  0  0  0  0  0  0  0  0  0  0  0
   -0.5818   -0.8552    1.3823 C   0  0  0  0  0  0  0  0  0  0  0  0
    0.7353   -0.7015    1.3094 C   0  0  0  0  0  0  0  0  0  0  0  0
    1.0975    0.1959    0.1906 C   0  0  0  0  0  0  0  0  0  0  0  0
    2.2242   -0.3024   -0.6355 C   0  0  0  0  0  0  0  0  0  0  0  0
    1.2529    1.5292    0.5282 O   0  0  0  0  0  0  0  0  0  0  0  0
    0.0915    1.9694   -0.0618 C   0  0  0  0  0  0  0  0  0  0  0  0
   -0.1781    0.5448   -0.5002 C   0  0  0  0  0  0  0  0  0  0  0  0
   -1.3597   -1.6813   -1.0789 H   0  0  0  0  0  0  0  0  0  0  0  0
   -2.8811   -1.5146   -0.0378 H   0  0  0  0  0  0  0  0  0  0  0  0
   -2.5563   -0.3365   -1.3545 H   0  0  0  0  0  0  0  0  0  0  0  0
   -1.9220    0.7178    0.7516 H   0  0  0  0  0  0  0  0  0  0  0  0
   -1.0567   -1.4744    2.1331 H   0  0  0  0  0  0  0  0  0  0  0  0
    1.4689   -1.1571    1.9642 H   0  0  0  0  0  0  0  0  0  0  0  0
    1.9068   -0.4734   -1.6647 H   0  0  0  0  0  0  0  0  0  0  0  0
    3.0805    0.4335   -0.6444 H   0  0  0  0  0  0  0  0  0  0  0  0
    2.6919   -1.2416   -0.2155 H   0  0  0  0  0  0  0  0  0  0  0  0
   -0.6080    2.3524    0.7127 H   0  0  0  0  0  0  0  0  0  0  0  0
    0.1738    2.6540   -0.9095 H   0  0  0  0  0  0  0  0  0  0  0  0
   -0.2300    0.4108   -1.5836 H   0  0  0  0  0  0  0  0  0  0  0  0
  1  2  1  0
  2  3  1  0
  3  4  2  0
  4  5  1  0
  5  6  1  0
  5  7  1  0
  7  8  1  0
  8  9  1  0
  9  2  1  0
  9  5  1  0
  1 10  1  0
  1 11  1  0
  1 12  1  0
  2 13  1  0
  3 14  1  0
  4 15  1  0
  6 16  1  0
  6 17  1  0
  6 18  1  0
  8 19  1  0
  8 20  1  0
  9 21  1  0
M  END
