
     RDKit          3D

 21 21  0  0  0  0  0  0  0  0999 V2000
    2.0597    0.8121    0.4158 C   0  0  0  0  0  0  0  0  0  0  0  0
    1.3196   -0.3866   -0.1029 C   0  0  0  0  0  0  0  0  0  0  0  0
    0.3314   -0.0362   -1.1975 C   0  0  0  0  0  0  0  0  0  0  0  0
   -1.0324   -0.3717   -0.6852 C   0  0  0  0  0  0  0  0  0  0  0  0
   -1.7751    0.8694   -0.2664 C   0  0  0  0  0  0  0  0  0  0  0  0
   -1.1553    1.5798    0.7290 O   0  0  0  0  0  0  0  0  0  0  0  0
   -0.8062   -1.3466    0.4133 C   0  0  0  0  0  0  0  0  0  0  0  0
    0.5404   -1.0772    0.9422 C   0  0  0  0  0  0  0  0  0  0  0  0
    0.9314   -1.3725    2.0396 O   0  0  0  0  0  0  0  0  0  0  0  0
    3.0886    0.4906    0.7424 H   0  0  0  0  0  0  0  0  0  0  0  0
    1.5047    1.1827    1.3041 H   0  0  0  0  0  0  0  0  0  0  0  0
    2.2258    1.5989   -0.3418 H   0  0  0  0  0  0  0  0  0  0  0  0
    2.0677   -1.1174   -0.5269 H   0  0  0  0  0  0  0  0  0  0  0  0
    0.3632    1.0298   -1.4603 H   0  0  0  0  0  0  0  0  0  0  0  0
    0.5683   -0.6075   -2.1319 H   0  0  0  0  0  0  0  0  0  0  0  0
   -1.6657   -0.8700   -1.4673 H   0  0  0  0  0  0  0  0  0  0  0  0
   -2.8316    0.5752    0.0028 H   0  0  0  0  0  0  0  0  0  0  0  0
   -1.8769    1.5224   -1.1516 H   0  0  0  0  0  0  0  0  0  0  0  0
   -1.4841    1.2810    1.6130 H   0  0  0  0  0  0  0  0  0  0  0  0
   -1.5989   -1.3787    1.1762 H   0  0  0  0  0  0  0  0  0  0  0  0
   -0.7746   -2.3774   -0.0469 H   0  0  0  0  0  0  0  0  0  0  0  0
  1  2  1  0
  2  3  1  0
  3  4  1  0
  4  5  1  0
  5  6  1  0
  4  7  1  0
  7  8  1  0
  8  9  2  0
  8  2  1  0
  1 10  1  0
  1 11  1  0
  1 12  1  0
  2 13  1  0
  3 14  1  0
  3 15  1  0
  4 16  1  0
  5 17  1  0
  5 18  1  0
  6 19  1  0
  7 20  1  0
  7 21  1  0
M  END
