
     RDKit          3D

 17 18  0  0  0  0  0  0  0  0999 V2000
   -1.9997    0.1223    0.5459 C   0  0  0  0  0  0  0  0  0  0  0  0
   -0.6677   -0.5657    0.5689 C   0  0  0  0  0  0  0  0  0  0  0  0
    0.0950   -0.5190   -0.7585 C   0  0  0  0  0  0  0  0  0  0  0  0
    0.0015    0.8354   -1.1209 O   0  0  0  0  0  0  0  0  0  0  0  0
    0.2860    1.4896    0.1049 C   0  0  0  0  0  0  0  0  0  0  0  0
    0.3516    2.7203    0.3305 O   0  0  0  0  0  0  0  0  0  0  0  0
    0.4774    0.3501    1.0136 C   0  0  0  0  0  0  0  0  0  0  0  0
    1.3341   -0.5767    0.1480 C   0  0  0  0  0  0  0  0  0  0  0  0
    2.4610   -0.0004   -0.3840 O   0  0  0  0  0  0  0  0  0  0  0  0
   -2.7219   -0.5579    0.0615 H   0  0  0  0  0  0  0  0  0  0  0  0
   -1.9421    1.0300   -0.0637 H   0  0  0  0  0  0  0  0  0  0  0  0
   -2.3099    0.3610    1.5760 H   0  0  0  0  0  0  0  0  0  0  0  0
   -0.6295   -1.5803    0.9648 H   0  0  0  0  0  0  0  0  0  0  0  0
   -0.0525   -1.2927   -1.4547 H   0  0  0  0  0  0  0  0  0  0  0  0
    0.6895    0.4569    2.0265 H   0  0  0  0  0  0  0  0  0  0  0  0
    1.4234   -1.6049    0.5358 H   0  0  0  0  0  0  0  0  0  0  0  0
    3.2038   -0.6680   -0.3331 H   0  0  0  0  0  0  0  0  0  0  0  0
  1  2  1  0
  2  3  1  0
  3  4  1  0
  4  5  1  0
  5  6  2  0
  5  7  1  0
  7  8  1  0
  8  9  1  0
  7  2  1  0
  8  3  1  0
  1 10  1  0
  1 11  1  0
  1 12  1  0
  2 13  1  0
  3 14  1  0
  7 15  1  0
  8 16  1  0
  9 17  1  0
M  END
