
     RDKit          3D

 21 22  0  0  0  0  0  0  0  0999 V2000
   -2.6295   -0.6331    0.5685 C   0  0  0  0  0  0  0  0  0  0  0  0
   -1.4489   -0.0868   -0.2209 C   0  0  0  0  0  0  0  0  0  0  0  0
   -0.9953    1.1665    0.4630 C   0  0  0  0  0  0  0  0  0  0  0  0
    0.4869    0.9971    0.6091 C   0  0  0  0  0  0  0  0  0  0  0  0
    1.2124    0.8807   -0.7080 C   0  0  0  0  0  0  0  0  0  0  0  0
    0.7605   -0.3298    0.0380 C   0  0  0  0  0  0  0  0  0  0  0  0
    1.8860   -1.1952    0.6206 C   0  0  0  0  0  0  0  0  0  0  0  0
    3.0004   -0.3760    0.8598 O   0  0  0  0  0  0  0  0  0  0  0  0
   -0.4024   -0.9728   -0.2541 O   0  0  0  0  0  0  0  0  0  0  0  0
   -2.8728   -0.0039    1.4445 H   0  0  0  0  0  0  0  0  0  0  0  0
   -2.4277   -1.6773    0.9182 H   0  0  0  0  0  0  0  0  0  0  0  0
   -3.5447   -0.5950   -0.0848 H   0  0  0  0  0  0  0  0  0  0  0  0
   -1.7610    0.0930   -1.2808 H   0  0  0  0  0  0  0  0  0  0  0  0
   -1.5005    1.3423    1.4377 H   0  0  0  0  0  0  0  0  0  0  0  0
   -1.2750    2.0240   -0.1912 H   0  0  0  0  0  0  0  0  0  0  0  0
    1.0002    1.3836    1.4974 H   0  0  0  0  0  0  0  0  0  0  0  0
    2.2822    1.1314   -0.6701 H   0  0  0  0  0  0  0  0  0  0  0  0
    0.7047    1.1804   -1.6453 H   0  0  0  0  0  0  0  0  0  0  0  0
    1.5519   -1.6647    1.5858 H   0  0  0  0  0  0  0  0  0  0  0  0
    2.1710   -1.9980   -0.0862 H   0  0  0  0  0  0  0  0  0  0  0  0
    3.8017   -0.6665    0.3882 H   0  0  0  0  0  0  0  0  0  0  0  0
  1  2  1  0
  2  3  1  0
  3  4  1  0
  4  5  1  0
  5  6  1  0
  6  7  1  0
  7  8  1  0
  6  9  1  0
  9  2  1  0
  6  4  1  0
  1 10  1  0
  1 11  1  0
  1 12  1  0
  2 13  1  0
  3 14  1  0
  3 15  1  0
  4 16  1  0
  5 17  1  0
  5 18  1  0
  7 19  1  0
  7 20  1  0
  8 21  1  0
M  END
