
     RDKit          3D

 21 21  0  0  0  0  0  0  0  0999 V2000
    1.8137    0.5154   -0.6787 C   0  0  0  0  0  0  0  0  0  0  0  0
    0.9545   -0.2971    0.2422 C   0  0  0  0  0  0  0  0  0  0  0  0
    0.7033   -1.6705   -0.2437 C   0  0  0  0  0  0  0  0  0  0  0  0
    1.3074   -2.3947   -1.0615 O   0  0  0  0  0  0  0  0  0  0  0  0
   -0.5083   -2.0509    0.4927 C   0  0  0  0  0  0  0  0  0  0  0  0
   -1.1823   -0.9720    0.8373 C   0  0  0  0  0  0  0  0  0  0  0  0
   -0.4566    0.2159    0.3460 C   0  0  0  0  0  0  0  0  0  0  0  0
   -1.0375    0.5349   -1.0261 C   0  0  0  0  0  0  0  0  0  0  0  0
   -0.5757    1.3934    1.2786 C   0  0  0  0  0  0  0  0  0  0  0  0
    1.3559    0.7235   -1.6588 H   0  0  0  0  0  0  0  0  0  0  0  0
    2.7909   -0.0077   -0.7653 H   0  0  0  0  0  0  0  0  0  0  0  0
    2.0255    1.4749   -0.1549 H   0  0  0  0  0  0  0  0  0  0  0  0
    1.4052   -0.3013    1.2371 H   0  0  0  0  0  0  0  0  0  0  0  0
   -0.8516   -3.0680    0.7464 H   0  0  0  0  0  0  0  0  0  0  0  0
   -2.1271   -0.8923    1.3936 H   0  0  0  0  0  0  0  0  0  0  0  0
   -2.1388    0.7080   -0.8393 H   0  0  0  0  0  0  0  0  0  0  0  0
   -0.5618    1.4001   -1.4998 H   0  0  0  0  0  0  0  0  0  0  0  0
   -0.9926   -0.3971   -1.6212 H   0  0  0  0  0  0  0  0  0  0  0  0
   -0.9453    2.3041    0.7280 H   0  0  0  0  0  0  0  0  0  0  0  0
   -1.3536    1.1532    2.0358 H   0  0  0  0  0  0  0  0  0  0  0  0
    0.3748    1.6281    1.7875 H   0  0  0  0  0  0  0  0  0  0  0  0
  1  2  1  0
  2  3  1  0
  3  4  2  0
  3  5  1  0
  5  6  2  0
  6  7  1  0
  7  8  1  0
  7  9  1  0
  7  2  1  0
  1 10  1  0
  1 11  1  0
  1 12  1  0
  2 13  1  0
  5 14  1  0
  6 15  1  0
  8 16  1  0
  8 17  1  0
  8 18  1  0
  9 19  1  0
  9 20  1  0
  9 21  1  0
M  END
