
     RDKit          3D

 21 22  0  0  0  0  0  0  0  0999 V2000
    2.1955    0.9314   -0.1398 C   0  0  0  0  0  0  0  0  0  0  0  0
    1.2340    0.2425    0.8058 C   0  0  0  0  0  0  0  0  0  0  0  0
    1.0470   -1.1826    0.3981 C   0  0  0  0  0  0  0  0  0  0  0  0
   -0.4539   -1.3099    0.1832 C   0  0  0  0  0  0  0  0  0  0  0  0
   -0.8780    0.1094    0.1040 C   0  0  0  0  0  0  0  0  0  0  0  0
   -1.2591    0.6542   -1.2306 C   0  0  0  0  0  0  0  0  0  0  0  0
   -2.2701    1.3955   -0.5882 O   0  0  0  0  0  0  0  0  0  0  0  0
   -2.3241    0.3401    0.3493 C   0  0  0  0  0  0  0  0  0  0  0  0
    0.0060    0.8535    0.8589 O   0  0  0  0  0  0  0  0  0  0  0  0
    2.7640    0.1532   -0.7064 H   0  0  0  0  0  0  0  0  0  0  0  0
    2.9120    1.5900    0.4035 H   0  0  0  0  0  0  0  0  0  0  0  0
    1.6828    1.5511   -0.8920 H   0  0  0  0  0  0  0  0  0  0  0  0
    1.6918    0.3190    1.8285 H   0  0  0  0  0  0  0  0  0  0  0  0
    1.5404   -1.4344   -0.5527 H   0  0  0  0  0  0  0  0  0  0  0  0
    1.4179   -1.8520    1.1923 H   0  0  0  0  0  0  0  0  0  0  0  0
   -0.6829   -1.9294   -0.6855 H   0  0  0  0  0  0  0  0  0  0  0  0
   -0.8677   -1.8213    1.0947 H   0  0  0  0  0  0  0  0  0  0  0  0
   -0.5608    1.3470   -1.7197 H   0  0  0  0  0  0  0  0  0  0  0  0
   -1.6171   -0.1033   -1.9369 H   0  0  0  0  0  0  0  0  0  0  0  0
   -2.6459    0.6263    1.3526 H   0  0  0  0  0  0  0  0  0  0  0  0
   -2.9319   -0.4801   -0.1191 H   0  0  0  0  0  0  0  0  0  0  0  0
  1  2  1  0
  2  3  1  0
  3  4  1  0
  4  5  1  0
  5  6  1  0
  6  7  1  0
  7  8  1  0
  5  9  1  0
  9  2  1  0
  8  5  1  0
  1 10  1  0
  1 11  1  0
  1 12  1  0
  2 13  1  0
  3 14  1  0
  3 15  1  0
  4 16  1  0
  4 17  1  0
  6 18  1  0
  6 19  1  0
  8 20  1  0
  8 21  1  0
M  END
