
     RDKit          3D

 17 17  0  0  0  0  0  0  0  0999 V2000
    2.0188   -0.0000   -0.4733 C   0  0  0  0  0  0  0  0  0  0  0  0
    0.8094   -0.2224    0.4379 C   0  0  0  0  0  0  0  0  0  0  0  0
    0.0115    1.0187    0.6268 C   0  0  0  0  0  0  0  0  0  0  0  0
   -1.1375    1.0755   -0.3262 C   0  0  0  0  0  0  0  0  0  0  0  0
   -1.7475   -0.0781   -0.5791 C   0  0  0  0  0  0  0  0  0  0  0  0
   -1.2240   -1.2898    0.1088 C   0  0  0  0  0  0  0  0  0  0  0  0
    0.1343   -1.3076   -0.0341 O   0  0  0  0  0  0  0  0  0  0  0  0
    2.6595    0.8107   -0.1351 H   0  0  0  0  0  0  0  0  0  0  0  0
    1.6800    0.1021   -1.5377 H   0  0  0  0  0  0  0  0  0  0  0  0
    2.6080   -0.9540   -0.4134 H   0  0  0  0  0  0  0  0  0  0  0  0
    1.2534   -0.4910    1.4361 H   0  0  0  0  0  0  0  0  0  0  0  0
   -0.4370    0.9938    1.6448 H   0  0  0  0  0  0  0  0  0  0  0  0
    0.6150    1.9315    0.4456 H   0  0  0  0  0  0  0  0  0  0  0  0
   -1.4843    1.9736   -0.8023 H   0  0  0  0  0  0  0  0  0  0  0  0
   -2.5854   -0.0737   -1.2662 H   0  0  0  0  0  0  0  0  0  0  0  0
   -1.5384   -1.2704    1.1898 H   0  0  0  0  0  0  0  0  0  0  0  0
   -1.6358   -2.2187   -0.3224 H   0  0  0  0  0  0  0  0  0  0  0  0
  1  2  1  0
  2  3  1  0
  3  4  1  0
  4  5  2  0
  5  6  1  0
  6  7  1  0
  7  2  1  0
  1  8  1  0
  1  9  1  0
  1 10  1  0
  2 11  1  0
  3 12  1  0
  3 13  1  0
  4 14  1  0
  5 15  1  0
  6 16  1  0
  6 17  1  0
M  END
