
     RDKit          3D

 25 25  0  0  0  0  0  0  0  0999 V2000
    1.2977   -1.3365    1.3104 C   0  0  0  0  0  0  0  0  0  0  0  0
    1.2251    0.0660    0.7892 C   0  0  0  0  0  0  0  0  0  0  0  0
    1.2744    0.1480   -0.7387 C   0  0  0  0  0  0  0  0  0  0  0  0
    2.3112    1.1028   -1.2753 C   0  0  0  0  0  0  0  0  0  0  0  0
    0.1113    0.6091    0.0331 C   0  0  0  0  0  0  0  0  0  0  0  0
   -1.2124   -0.0943   -0.1216 C   0  0  0  0  0  0  0  0  0  0  0  0
   -1.9083   -0.3547    1.1729 C   0  0  0  0  0  0  0  0  0  0  0  0
   -2.1480    0.7916   -0.9457 C   0  0  0  0  0  0  0  0  0  0  0  0
   -0.9949   -1.2365   -0.8791 O   0  0  0  0  0  0  0  0  0  0  0  0
    2.2092   -1.8055    0.8352 H   0  0  0  0  0  0  0  0  0  0  0  0
    0.4575   -1.9752    1.0406 H   0  0  0  0  0  0  0  0  0  0  0  0
    1.5058   -1.3756    2.4038 H   0  0  0  0  0  0  0  0  0  0  0  0
    1.8898    0.7762    1.3596 H   0  0  0  0  0  0  0  0  0  0  0  0
    1.1384   -0.7846   -1.3162 H   0  0  0  0  0  0  0  0  0  0  0  0
    2.9644    1.4975   -0.4426 H   0  0  0  0  0  0  0  0  0  0  0  0
    3.0044    0.5401   -1.9366 H   0  0  0  0  0  0  0  0  0  0  0  0
    1.8930    1.9349   -1.8528 H   0  0  0  0  0  0  0  0  0  0  0  0
   -0.0107    1.7317    0.0720 H   0  0  0  0  0  0  0  0  0  0  0  0
   -1.2630   -0.6121    2.0109 H   0  0  0  0  0  0  0  0  0  0  0  0
   -2.4498    0.5889    1.4739 H   0  0  0  0  0  0  0  0  0  0  0  0
   -2.6753   -1.1379    1.0262 H   0  0  0  0  0  0  0  0  0  0  0  0
   -1.9287    1.8500   -0.8425 H   0  0  0  0  0  0  0  0  0  0  0  0
   -2.1140    0.4986   -2.0322 H   0  0  0  0  0  0  0  0  0  0  0  0
   -3.2035    0.6250   -0.6354 H   0  0  0  0  0  0  0  0  0  0  0  0
   -1.3735   -2.0472   -0.5091 H   0  0  0  0  0  0  0  0  0  0  0  0
  1  2  1  0
  2  3  1  0
  3  4  1  0
  3  5  1  0
  5  6  1  0
  6  7  1  0
  6  8  1  0
  6  9  1  0
  5  2  1  0
  1 10  1  0
  1 11  1  0
  1 12  1  0
  2 13  1  0
  3 14  1  0
  4 15  1  0
  4 16  1  0
  4 17  1  0
  5 18  1  0
  7 19  1  0
  7 20  1  0
  7 21  1  0
  8 22  1  0
  8 23  1  0
  8 24  1  0
  9 25  1  0
M  END
