
     RDKit          3D

 23 24  0  0  0  0  0  0  0  0999 V2000
    2.5565    0.5486    0.2889 C   0  0  0  0  0  0  0  0  0  0  0  0
    1.8565   -0.1527   -0.8636 C   0  0  0  0  0  0  0  0  0  0  0  0
    0.8927   -1.1866   -0.2709 C   0  0  0  0  0  0  0  0  0  0  0  0
   -0.0271   -0.0414   -0.4842 C   0  0  0  0  0  0  0  0  0  0  0  0
    0.7633    0.5763   -1.3830 O   0  0  0  0  0  0  0  0  0  0  0  0
   -0.8236    0.5949    0.5547 C   0  0  0  0  0  0  0  0  0  0  0  0
   -1.2488    2.0248    0.4928 C   0  0  0  0  0  0  0  0  0  0  0  0
   -1.4490   -0.2741   -0.5396 C   0  0  0  0  0  0  0  0  0  0  0  0
   -1.9272   -1.6342   -0.0133 C   0  0  0  0  0  0  0  0  0  0  0  0
    3.1368    1.4169   -0.0180 H   0  0  0  0  0  0  0  0  0  0  0  0
    1.7867    0.7640    1.0687 H   0  0  0  0  0  0  0  0  0  0  0  0
    3.2154   -0.2361    0.7549 H   0  0  0  0  0  0  0  0  0  0  0  0
    2.5230   -0.5818   -1.6155 H   0  0  0  0  0  0  0  0  0  0  0  0
    1.0912   -1.4707    0.7598 H   0  0  0  0  0  0  0  0  0  0  0  0
    0.7616   -2.0273   -1.0048 H   0  0  0  0  0  0  0  0  0  0  0  0
   -0.7413    0.1833    1.5739 H   0  0  0  0  0  0  0  0  0  0  0  0
   -2.2866    2.0795    0.0521 H   0  0  0  0  0  0  0  0  0  0  0  0
   -0.5282    2.6021   -0.0951 H   0  0  0  0  0  0  0  0  0  0  0  0
   -1.3741    2.4906    1.5143 H   0  0  0  0  0  0  0  0  0  0  0  0
   -2.1636    0.1748   -1.2342 H   0  0  0  0  0  0  0  0  0  0  0  0
   -2.3148   -2.2610   -0.8140 H   0  0  0  0  0  0  0  0  0  0  0  0
   -2.6302   -1.4079    0.7992 H   0  0  0  0  0  0  0  0  0  0  0  0
   -1.0691   -2.1820    0.4769 H   0  0  0  0  0  0  0  0  0  0  0  0
  1  2  1  0
  2  3  1  0
  3  4  1  0
  4  5  1  0
  4  6  1  0
  6  7  1  0
  6  8  1  0
  8  9  1  0
  5  2  1  0
  8  4  1  0
  1 10  1  0
  1 11  1  0
  1 12  1  0
  2 13  1  0
  3 14  1  0
  3 15  1  0
  6 16  1  0
  7 17  1  0
  7 18  1  0
  7 19  1  0
  8 20  1  0
  9 21  1  0
  9 22  1  0
  9 23  1  0
M  END
