
     RDKit          3D

 20 20  0  0  0  0  0  0  0  0999 V2000
   -2.2867   -0.4898   -0.7432 C   0  0  0  0  0  0  0  0  0  0  0  0
   -1.1730   -0.2154    0.2099 C   0  0  0  0  0  0  0  0  0  0  0  0
   -0.7939    1.2661    0.1814 C   0  0  0  0  0  0  0  0  0  0  0  0
    0.6488    1.2739    0.5519 C   0  0  0  0  0  0  0  0  0  0  0  0
    1.2646    2.3052    0.7642 O   0  0  0  0  0  0  0  0  0  0  0  0
    1.1175   -0.1177    0.5989 C   0  0  0  0  0  0  0  0  0  0  0  0
    2.5332   -0.3127    0.1923 C   0  0  0  0  0  0  0  0  0  0  0  0
    0.1291   -0.8130   -0.3387 C   0  0  0  0  0  0  0  0  0  0  0  0
   -3.2704   -0.2945   -0.3102 H   0  0  0  0  0  0  0  0  0  0  0  0
   -2.2576   -1.5522   -1.1116 H   0  0  0  0  0  0  0  0  0  0  0  0
   -2.1742    0.2315   -1.5970 H   0  0  0  0  0  0  0  0  0  0  0  0
   -1.3419   -0.5725    1.2355 H   0  0  0  0  0  0  0  0  0  0  0  0
   -0.9740    1.6143   -0.8529 H   0  0  0  0  0  0  0  0  0  0  0  0
   -1.4177    1.7738    0.9350 H   0  0  0  0  0  0  0  0  0  0  0  0
    0.9468   -0.5937    1.6002 H   0  0  0  0  0  0  0  0  0  0  0  0
    3.1826   -0.1482    1.0966 H   0  0  0  0  0  0  0  0  0  0  0  0
    2.6535   -1.3739   -0.1565 H   0  0  0  0  0  0  0  0  0  0  0  0
    2.8393    0.3513   -0.6318 H   0  0  0  0  0  0  0  0  0  0  0  0
    0.1582   -1.8988   -0.2497 H   0  0  0  0  0  0  0  0  0  0  0  0
    0.2158   -0.4340   -1.3743 H   0  0  0  0  0  0  0  0  0  0  0  0
  1  2  1  0
  2  3  1  0
  3  4  1  0
  4  5  2  0
  4  6  1  0
  6  7  1  0
  6  8  1  0
  8  2  1  0
  1  9  1  0
  1 10  1  0
  1 11  1  0
  2 12  1  0
  3 13  1  0
  3 14  1  0
  6 15  1  0
  7 16  1  0
  7 17  1  0
  7 18  1  0
  8 19  1  0
  8 20  1  0
M  END
