
     RDKit          3D

 16 17  0  0  0  0  0  0  0  0999 V2000
    2.1577   -0.0926   -0.1201 C   0  0  0  0  0  0  0  0  0  0  0  0
    0.8579    0.6158    0.3025 C   0  0  0  0  0  0  0  0  0  0  0  0
   -0.1755   -0.2120    0.8077 C   0  0  0  0  0  0  0  0  0  0  0  0
   -1.2430   -0.9784    0.0150 C   0  0  0  0  0  0  0  0  0  0  0  0
   -1.7537    0.4695   -0.1490 C   0  0  0  0  0  0  0  0  0  0  0  0
   -0.2767    0.6210   -0.5435 C   0  0  0  0  0  0  0  0  0  0  0  0
    2.4531   -0.8314    0.6288 H   0  0  0  0  0  0  0  0  0  0  0  0
    2.9399    0.6345   -0.3934 H   0  0  0  0  0  0  0  0  0  0  0  0
    1.9504   -0.6738   -1.0658 H   0  0  0  0  0  0  0  0  0  0  0  0
    1.1274    1.6030    0.7894 H   0  0  0  0  0  0  0  0  0  0  0  0
   -0.7399    0.2581    1.6762 H   0  0  0  0  0  0  0  0  0  0  0  0
   -0.9115   -1.4047   -0.9271 H   0  0  0  0  0  0  0  0  0  0  0  0
   -1.8663   -1.6052    0.6593 H   0  0  0  0  0  0  0  0  0  0  0  0
   -1.9449    0.9973    0.7811 H   0  0  0  0  0  0  0  0  0  0  0  0
   -2.4258    0.6200   -0.9866 H   0  0  0  0  0  0  0  0  0  0  0  0
   -0.1492   -0.0212   -1.4745 H   0  0  0  0  0  0  0  0  0  0  0  0
  1  2  1  0
  2  3  1  0
  3  4  1  0
  4  5  1  0
  5  6  1  0
  6  2  1  0
  6  3  1  0
  1  7  1  0
  1  8  1  0
  1  9  1  0
  2 10  1  0
  3 11  1  0
  4 12  1  0
  4 13  1  0
  5 14  1  0
  5 15  1  0
  6 16  1  0
M  END
