
     RDKit          3D

 23 24  0  0  0  0  0  0  0  0999 V2000
   -2.2546    0.1699    1.2442 C   0  0  0  0  0  0  0  0  0  0  0  0
   -1.1080   -0.5131    0.4851 C   0  0  0  0  0  0  0  0  0  0  0  0
   -1.4719   -0.5724   -0.9847 C   0  0  0  0  0  0  0  0  0  0  0  0
   -0.6752    0.7201   -1.1617 C   0  0  0  0  0  0  0  0  0  0  0  0
   -0.0197    0.4438    0.1939 C   0  0  0  0  0  0  0  0  0  0  0  0
    1.3599   -0.1184   -0.0238 C   0  0  0  0  0  0  0  0  0  0  0  0
    2.4058    0.9478   -0.3163 C   0  0  0  0  0  0  0  0  0  0  0  0
    1.8008   -1.3915    0.4719 C   0  0  0  0  0  0  0  0  0  0  0  0
    1.3858   -1.2684   -0.8639 O   0  0  0  0  0  0  0  0  0  0  0  0
   -2.2918    1.2524    0.9317 H   0  0  0  0  0  0  0  0  0  0  0  0
   -2.0941    0.1524    2.3297 H   0  0  0  0  0  0  0  0  0  0  0  0
   -3.2106   -0.3018    0.9993 H   0  0  0  0  0  0  0  0  0  0  0  0
   -0.8796   -1.4575    0.9688 H   0  0  0  0  0  0  0  0  0  0  0  0
   -1.0528   -1.4511   -1.4810 H   0  0  0  0  0  0  0  0  0  0  0  0
   -2.5295   -0.3756   -1.2092 H   0  0  0  0  0  0  0  0  0  0  0  0
   -0.0103    0.6105   -2.0221 H   0  0  0  0  0  0  0  0  0  0  0  0
   -1.3039    1.6354   -1.1250 H   0  0  0  0  0  0  0  0  0  0  0  0
   -0.0274    1.3325    0.8427 H   0  0  0  0  0  0  0  0  0  0  0  0
    2.4860    1.5620    0.6093 H   0  0  0  0  0  0  0  0  0  0  0  0
    3.3913    0.5236   -0.5156 H   0  0  0  0  0  0  0  0  0  0  0  0
    2.0903    1.6125   -1.1422 H   0  0  0  0  0  0  0  0  0  0  0  0
    1.1195   -1.9487    1.1720 H   0  0  0  0  0  0  0  0  0  0  0  0
    2.8898   -1.5644    0.5970 H   0  0  0  0  0  0  0  0  0  0  0  0
  1  2  1  0
  2  3  1  0
  3  4  1  0
  4  5  1  0
  5  6  1  0
  6  7  1  0
  6  8  1  0
  8  9  1  0
  5  2  1  0
  9  6  1  0
  1 10  1  0
  1 11  1  0
  1 12  1  0
  2 13  1  0
  3 14  1  0
  3 15  1  0
  4 16  1  0
  4 17  1  0
  5 18  1  0
  7 19  1  0
  7 20  1  0
  7 21  1  0
  8 22  1  0
  8 23  1  0
M  END
