
     RDKit          3D

 23 23  0  0  0  0  0  0  0  0999 V2000
    2.8794   -0.3333    0.0819 C   0  0  0  0  0  0  0  0  0  0  0  0
    1.4868    0.1035    0.4029 C   0  0  0  0  0  0  0  0  0  0  0  0
    0.8713    0.9643   -0.6910 C   0  0  0  0  0  0  0  0  0  0  0  0
   -0.4086    1.3124   -0.2264 O   0  0  0  0  0  0  0  0  0  0  0  0
   -1.2053    0.2009   -0.1584 C   0  0  0  0  0  0  0  0  0  0  0  0
   -2.1728    0.1418   -1.3493 C   0  0  0  0  0  0  0  0  0  0  0  0
   -2.0936    0.2040    1.0815 C   0  0  0  0  0  0  0  0  0  0  0  0
   -0.5304   -1.0001   -0.1795 O   0  0  0  0  0  0  0  0  0  0  0  0
    0.5610   -1.0519    0.6500 C   0  0  0  0  0  0  0  0  0  0  0  0
    3.5626    0.5066    0.3584 H   0  0  0  0  0  0  0  0  0  0  0  0
    3.0319   -0.5370   -0.9909 H   0  0  0  0  0  0  0  0  0  0  0  0
    3.1364   -1.1795    0.7293 H   0  0  0  0  0  0  0  0  0  0  0  0
    1.4953    0.7171    1.3365 H   0  0  0  0  0  0  0  0  0  0  0  0
    0.7558    0.4113   -1.6327 H   0  0  0  0  0  0  0  0  0  0  0  0
    1.5188    1.8496   -0.7908 H   0  0  0  0  0  0  0  0  0  0  0  0
   -2.7303    1.0706   -1.4687 H   0  0  0  0  0  0  0  0  0  0  0  0
   -1.5966   -0.1198   -2.2676 H   0  0  0  0  0  0  0  0  0  0  0  0
   -2.8154   -0.7511   -1.1466 H   0  0  0  0  0  0  0  0  0  0  0  0
   -2.8837   -0.5710    0.9096 H   0  0  0  0  0  0  0  0  0  0  0  0
   -1.5184    0.0139    2.0028 H   0  0  0  0  0  0  0  0  0  0  0  0
   -2.6373    1.1593    1.2013 H   0  0  0  0  0  0  0  0  0  0  0  0
    1.0876   -2.0154    0.4488 H   0  0  0  0  0  0  0  0  0  0  0  0
    0.2054   -1.0964    1.6989 H   0  0  0  0  0  0  0  0  0  0  0  0
  1  2  1  0
  2  3  1  0
  3  4  1  0
  4  5  1  0
  5  6  1  0
  5  7  1  0
  5  8  1  0
  8  9  1  0
  9  2  1  0
  1 10  1  0
  1 11  1  0
  1 12  1  0
  2 13  1  0
  3 14  1  0
  3 15  1  0
  6 16  1  0
  6 17  1  0
  6 18  1  0
  7 19  1  0
  7 20  1  0
  7 21  1  0
  9 22  1  0
  9 23  1  0
M  END
