
     RDKit          3D

 21 21  0  0  0  0  0  0  0  0999 V2000
   -2.7205   -0.0858    0.1729 C   0  0  0  0  0  0  0  0  0  0  0  0
   -1.4026    0.2179   -0.4599 C   0  0  0  0  0  0  0  0  0  0  0  0
   -0.4637    1.0329    0.4428 C   0  0  0  0  0  0  0  0  0  0  0  0
    0.6616    0.2312   -0.2136 C   0  0  0  0  0  0  0  0  0  0  0  0
    0.9896    0.7213   -1.4553 O   0  0  0  0  0  0  0  0  0  0  0  0
    1.8227   -0.0674    0.6798 C   0  0  0  0  0  0  0  0  0  0  0  0
    2.8104   -0.8484   -0.1280 C   0  0  0  0  0  0  0  0  0  0  0  0
    3.5411   -0.2807   -0.9487 O   0  0  0  0  0  0  0  0  0  0  0  0
   -0.3644   -0.9038   -0.3191 C   0  0  0  0  0  0  0  0  0  0  0  0
   -3.3219    0.8505    0.1564 H   0  0  0  0  0  0  0  0  0  0  0  0
   -2.5330   -0.3470    1.2435 H   0  0  0  0  0  0  0  0  0  0  0  0
   -3.2119   -0.9190   -0.3669 H   0  0  0  0  0  0  0  0  0  0  0  0
   -1.4018    0.6385   -1.4653 H   0  0  0  0  0  0  0  0  0  0  0  0
   -0.6271    0.7256    1.4841 H   0  0  0  0  0  0  0  0  0  0  0  0
   -0.4391    2.1061    0.2221 H   0  0  0  0  0  0  0  0  0  0  0  0
    0.6048    1.6288   -1.6297 H   0  0  0  0  0  0  0  0  0  0  0  0
    1.5385   -0.7166    1.5266 H   0  0  0  0  0  0  0  0  0  0  0  0
    2.3169    0.8649    0.9869 H   0  0  0  0  0  0  0  0  0  0  0  0
    2.9253   -1.9232   -0.0302 H   0  0  0  0  0  0  0  0  0  0  0  0
   -0.4832   -1.3969    0.6521 H   0  0  0  0  0  0  0  0  0  0  0  0
   -0.2416   -1.5287   -1.2077 H   0  0  0  0  0  0  0  0  0  0  0  0
  1  2  1  0
  2  3  1  0
  3  4  1  0
  4  5  1  0
  4  6  1  0
  6  7  1  0
  7  8  2  0
  4  9  1  0
  9  2  1  0
  1 10  1  0
  1 11  1  0
  1 12  1  0
  2 13  1  0
  3 14  1  0
  3 15  1  0
  5 16  1  0
  6 17  1  0
  6 18  1  0
  7 19  1  0
  9 20  1  0
  9 21  1  0
M  END
