
     RDKit          3D

 21 23  0  0  0  0  0  0  0  0999 V2000
   -2.7238    0.5763   -0.2052 C   0  0  0  0  0  0  0  0  0  0  0  0
   -1.8201   -0.6320   -0.4275 C   0  0  0  0  0  0  0  0  0  0  0  0
   -0.9410   -0.8260    0.8194 C   0  0  0  0  0  0  0  0  0  0  0  0
    0.1881   -0.2884   -0.0170 C   0  0  0  0  0  0  0  0  0  0  0  0
    1.5931   -0.4619    0.3711 C   0  0  0  0  0  0  0  0  0  0  0  0
    2.7170    0.0428   -0.4054 C   0  0  0  0  0  0  0  0  0  0  0  0
    2.3201    0.8280    0.8030 C   0  0  0  0  0  0  0  0  0  0  0  0
   -0.0583    1.0247   -0.6253 O   0  0  0  0  0  0  0  0  0  0  0  0
   -0.5245   -0.2620   -1.1457 C   0  0  0  0  0  0  0  0  0  0  0  0
   -2.0374    1.4728   -0.2200 H   0  0  0  0  0  0  0  0  0  0  0  0
   -3.4943    0.6470   -0.9972 H   0  0  0  0  0  0  0  0  0  0  0  0
   -3.1340    0.5298    0.8157 H   0  0  0  0  0  0  0  0  0  0  0  0
   -2.3146   -1.5348   -0.7840 H   0  0  0  0  0  0  0  0  0  0  0  0
   -0.8080   -1.8880    1.0031 H   0  0  0  0  0  0  0  0  0  0  0  0
   -1.2087   -0.1847    1.6657 H   0  0  0  0  0  0  0  0  0  0  0  0
    1.8163   -1.3367    1.0387 H   0  0  0  0  0  0  0  0  0  0  0  0
    2.4676    0.4879   -1.4057 H   0  0  0  0  0  0  0  0  0  0  0  0
    3.6963   -0.4809   -0.4176 H   0  0  0  0  0  0  0  0  0  0  0  0
    1.7919    1.7860    0.6178 H   0  0  0  0  0  0  0  0  0  0  0  0
    2.9128    0.8006    1.7271 H   0  0  0  0  0  0  0  0  0  0  0  0
   -0.4385   -0.3004   -2.2110 H   0  0  0  0  0  0  0  0  0  0  0  0
  1  2  1  0
  2  3  1  0
  3  4  1  0
  4  5  1  0
  5  6  1  0
  6  7  1  0
  4  8  1  0
  8  9  1  0
  9  2  1  0
  9  4  1  0
  7  5  1  0
  1 10  1  0
  1 11  1  0
  1 12  1  0
  2 13  1  0
  3 14  1  0
  3 15  1  0
  5 16  1  0
  6 17  1  0
  6 18  1  0
  7 19  1  0
  7 20  1  0
  9 21  1  0
M  END
