
     RDKit          3D

 21 21  0  0  0  0  0  0  0  0999 V2000
   -2.7078    0.1699    0.1703 C   0  0  0  0  0  0  0  0  0  0  0  0
   -1.2282    0.1864    0.2965 C   0  0  0  0  0  0  0  0  0  0  0  0
   -0.5336    0.1225   -1.0657 C   0  0  0  0  0  0  0  0  0  0  0  0
    0.9024    0.4681   -0.8074 C   0  0  0  0  0  0  0  0  0  0  0  0
    1.6629    0.1626   -1.9614 O   0  0  0  0  0  0  0  0  0  0  0  0
    1.4925   -0.1489    0.3956 C   0  0  0  0  0  0  0  0  0  0  0  0
    2.3110    0.8217    1.0220 O   0  0  0  0  0  0  0  0  0  0  0  0
    0.5790   -0.7544    1.3755 C   0  0  0  0  0  0  0  0  0  0  0  0
   -0.7280   -0.8913    1.0093 O   0  0  0  0  0  0  0  0  0  0  0  0
   -3.0796   -0.6261   -0.5148 H   0  0  0  0  0  0  0  0  0  0  0  0
   -3.1561    0.0575    1.1574 H   0  0  0  0  0  0  0  0  0  0  0  0
   -3.0160    1.1374   -0.3114 H   0  0  0  0  0  0  0  0  0  0  0  0
   -0.9169    1.1257    0.7718 H   0  0  0  0  0  0  0  0  0  0  0  0
   -0.5894   -0.8947   -1.4916 H   0  0  0  0  0  0  0  0  0  0  0  0
   -1.0317    0.8861   -1.6923 H   0  0  0  0  0  0  0  0  0  0  0  0
    0.9461    1.5962   -0.7471 H   0  0  0  0  0  0  0  0  0  0  0  0
    2.4311    0.7907   -2.0150 H   0  0  0  0  0  0  0  0  0  0  0  0
    2.2250   -0.9396    0.0555 H   0  0  0  0  0  0  0  0  0  0  0  0
    2.9037    1.1634    0.3140 H   0  0  0  0  0  0  0  0  0  0  0  0
    0.9387   -1.7729    1.7095 H   0  0  0  0  0  0  0  0  0  0  0  0
    0.5950   -0.1487    2.3293 H   0  0  0  0  0  0  0  0  0  0  0  0
  1  2  1  0
  2  3  1  0
  3  4  1  0
  4  5  1  0
  4  6  1  0
  6  7  1  0
  6  8  1  0
  8  9  1  0
  9  2  1  0
  1 10  1  0
  1 11  1  0
  1 12  1  0
  2 13  1  0
  3 14  1  0
  3 15  1  0
  4 16  1  0
  5 17  1  0
  6 18  1  0
  7 19  1  0
  8 20  1  0
  8 21  1  0
M  END
