
     RDKit          3D

 20 20  0  0  0  0  0  0  0  0999 V2000
    2.7852    0.0615   -0.4935 C   0  0  0  0  0  0  0  0  0  0  0  0
    1.2761    0.0663   -0.5273 C   0  0  0  0  0  0  0  0  0  0  0  0
    0.6767    0.1828    0.8256 C   0  0  0  0  0  0  0  0  0  0  0  0
   -0.2215   -0.8852    0.3509 C   0  0  0  0  0  0  0  0  0  0  0  0
   -1.6119   -0.5828   -0.0246 C   0  0  0  0  0  0  0  0  0  0  0  0
   -1.8154    0.3953   -1.1316 C   0  0  0  0  0  0  0  0  0  0  0  0
   -3.1668    0.6086   -1.4079 O   0  0  0  0  0  0  0  0  0  0  0  0
    0.6689   -1.1518   -0.6901 O   0  0  0  0  0  0  0  0  0  0  0  0
    3.1710   -0.2139    0.5200 H   0  0  0  0  0  0  0  0  0  0  0  0
    3.1217    1.1042   -0.6637 H   0  0  0  0  0  0  0  0  0  0  0  0
    3.2155   -0.5725   -1.2927 H   0  0  0  0  0  0  0  0  0  0  0  0
    0.9375    0.7744   -1.3059 H   0  0  0  0  0  0  0  0  0  0  0  0
    0.2369    1.1543    1.1042 H   0  0  0  0  0  0  0  0  0  0  0  0
    1.4102   -0.1607    1.6012 H   0  0  0  0  0  0  0  0  0  0  0  0
   -0.1838   -1.7799    1.0439 H   0  0  0  0  0  0  0  0  0  0  0  0
   -2.1379   -0.1637    0.8680 H   0  0  0  0  0  0  0  0  0  0  0  0
   -2.1379   -1.5323   -0.2574 H   0  0  0  0  0  0  0  0  0  0  0  0
   -1.3613    1.3717   -0.9929 H   0  0  0  0  0  0  0  0  0  0  0  0
   -1.3837   -0.0365   -2.0755 H   0  0  0  0  0  0  0  0  0  0  0  0
   -3.4795    1.3600   -0.8108 H   0  0  0  0  0  0  0  0  0  0  0  0
  1  2  1  0
  2  3  1  0
  3  4  1  0
  4  5  1  0
  5  6  1  0
  6  7  1  0
  4  8  1  0
  8  2  1  0
  1  9  1  0
  1 10  1  0
  1 11  1  0
  2 12  1  0
  3 13  1  0
  3 14  1  0
  4 15  1  0
  5 16  1  0
  5 17  1  0
  6 18  1  0
  6 19  1  0
  7 20  1  0
M  END
