
     RDKit          3D

 23 24  0  0  0  0  0  0  0  0999 V2000
   -2.9112   -0.6202    0.1899 C   0  0  0  0  0  0  0  0  0  0  0  0
   -1.7201    0.2428   -0.0098 C   0  0  0  0  0  0  0  0  0  0  0  0
   -0.8375   -0.2651   -1.1598 C   0  0  0  0  0  0  0  0  0  0  0  0
    0.3215    0.0068   -0.2834 C   0  0  0  0  0  0  0  0  0  0  0  0
   -0.5346   -0.0355    0.9067 C   0  0  0  0  0  0  0  0  0  0  0  0
    1.6673   -0.4400   -0.4354 C   0  0  0  0  0  0  0  0  0  0  0  0
    2.5933   -0.6548    0.7263 C   0  0  0  0  0  0  0  0  0  0  0  0
    1.2772    1.0337   -0.6414 C   0  0  0  0  0  0  0  0  0  0  0  0
    1.7533    1.9661    0.2608 O   0  0  0  0  0  0  0  0  0  0  0  0
   -2.7219   -1.5767    0.7000 H   0  0  0  0  0  0  0  0  0  0  0  0
   -3.6910   -0.0302    0.7207 H   0  0  0  0  0  0  0  0  0  0  0  0
   -3.3362   -0.8437   -0.8330 H   0  0  0  0  0  0  0  0  0  0  0  0
   -1.9271    1.3113   -0.0260 H   0  0  0  0  0  0  0  0  0  0  0  0
   -0.9655    0.4553   -2.0165 H   0  0  0  0  0  0  0  0  0  0  0  0
   -1.0391   -1.3203   -1.4416 H   0  0  0  0  0  0  0  0  0  0  0  0
   -0.6776   -1.0417    1.3852 H   0  0  0  0  0  0  0  0  0  0  0  0
   -0.3296    0.7431    1.6558 H   0  0  0  0  0  0  0  0  0  0  0  0
    1.9535   -1.0228   -1.3409 H   0  0  0  0  0  0  0  0  0  0  0  0
    2.1468   -1.2797    1.5311 H   0  0  0  0  0  0  0  0  0  0  0  0
    2.8674    0.3131    1.2411 H   0  0  0  0  0  0  0  0  0  0  0  0
    3.5811   -1.0701    0.3942 H   0  0  0  0  0  0  0  0  0  0  0  0
    1.3069    1.3497   -1.7152 H   0  0  0  0  0  0  0  0  0  0  0  0
    1.2231    2.7789    0.1911 H   0  0  0  0  0  0  0  0  0  0  0  0
  1  2  1  0
  2  3  1  0
  3  4  1  0
  4  5  1  0
  4  6  1  0
  6  7  1  0
  6  8  1  0
  8  9  1  0
  5  2  1  0
  8  4  1  0
  1 10  1  0
  1 11  1  0
  1 12  1  0
  2 13  1  0
  3 14  1  0
  3 15  1  0
  5 16  1  0
  5 17  1  0
  6 18  1  0
  7 19  1  0
  7 20  1  0
  7 21  1  0
  8 22  1  0
  9 23  1  0
M  END
