
     RDKit          3D

 19 20  0  0  0  0  0  0  0  0999 V2000
   -2.4616   -0.4453    0.4530 C   0  0  0  0  0  0  0  0  0  0  0  0
   -1.2762   -0.3203   -0.4392 C   0  0  0  0  0  0  0  0  0  0  0  0
   -0.9997    1.0391   -0.9774 C   0  0  0  0  0  0  0  0  0  0  0  0
   -1.7065    1.8377   -1.5651 O   0  0  0  0  0  0  0  0  0  0  0  0
    0.3999    1.0510   -0.5456 C   0  0  0  0  0  0  0  0  0  0  0  0
    1.2363   -0.1725   -0.6374 C   0  0  0  0  0  0  0  0  0  0  0  0
    2.5858   -0.1591    0.0059 C   0  0  0  0  0  0  0  0  0  0  0  0
    0.0690   -0.2600    0.2428 C   0  0  0  0  0  0  0  0  0  0  0  0
    0.1379   -0.1260    1.6150 O   0  0  0  0  0  0  0  0  0  0  0  0
   -3.1695    0.3837    0.1902 H   0  0  0  0  0  0  0  0  0  0  0  0
   -2.2179   -0.4673    1.5244 H   0  0  0  0  0  0  0  0  0  0  0  0
   -3.0278   -1.3990    0.2440 H   0  0  0  0  0  0  0  0  0  0  0  0
   -1.2190   -1.0908   -1.2590 H   0  0  0  0  0  0  0  0  0  0  0  0
    0.8090    1.8840    0.0677 H   0  0  0  0  0  0  0  0  0  0  0  0
    1.1873   -0.8166   -1.5638 H   0  0  0  0  0  0  0  0  0  0  0  0
    3.4137   -0.2408   -0.7287 H   0  0  0  0  0  0  0  0  0  0  0  0
    2.6180   -0.9824    0.7575 H   0  0  0  0  0  0  0  0  0  0  0  0
    2.6813    0.7818    0.6014 H   0  0  0  0  0  0  0  0  0  0  0  0
    0.9401   -0.4971    2.0143 H   0  0  0  0  0  0  0  0  0  0  0  0
  1  2  1  0
  2  3  1  0
  3  4  2  0
  3  5  1  0
  5  6  1  0
  6  7  1  0
  6  8  1  0
  8  9  1  0
  8  2  1  0
  8  5  1  0
  1 10  1  0
  1 11  1  0
  1 12  1  0
  2 13  1  0
  5 14  1  0
  6 15  1  0
  7 16  1  0
  7 17  1  0
  7 18  1  0
  9 19  1  0
M  END
