
     RDKit          3D

 17 18  0  0  0  0  0  0  0  0999 V2000
    2.0166   -0.3842    0.1729 C   0  0  0  0  0  0  0  0  0  0  0  0
    0.5424   -0.4463    0.3557 C   0  0  0  0  0  0  0  0  0  0  0  0
   -0.2931   -0.3421   -0.9090 C   0  0  0  0  0  0  0  0  0  0  0  0
   -1.6931   -0.4849   -0.3467 C   0  0  0  0  0  0  0  0  0  0  0  0
   -1.5323    0.4407    0.8207 C   0  0  0  0  0  0  0  0  0  0  0  0
   -2.3968    0.6874    1.6165 O   0  0  0  0  0  0  0  0  0  0  0  0
   -0.1434    0.8778    0.6705 C   0  0  0  0  0  0  0  0  0  0  0  0
   -0.0641    1.1129   -0.7887 C   0  0  0  0  0  0  0  0  0  0  0  0
    0.1040    2.0346   -1.5202 O   0  0  0  0  0  0  0  0  0  0  0  0
    2.4823    0.5702    0.4940 H   0  0  0  0  0  0  0  0  0  0  0  0
    2.4686   -1.1884    0.8228 H   0  0  0  0  0  0  0  0  0  0  0  0
    2.3381   -0.6347   -0.8617 H   0  0  0  0  0  0  0  0  0  0  0  0
    0.1389   -1.2517    0.9980 H   0  0  0  0  0  0  0  0  0  0  0  0
   -0.0071   -0.8733   -1.7714 H   0  0  0  0  0  0  0  0  0  0  0  0
   -1.8367   -1.5301   -0.0397 H   0  0  0  0  0  0  0  0  0  0  0  0
   -2.4386   -0.1294   -1.0602 H   0  0  0  0  0  0  0  0  0  0  0  0
    0.3142    1.5413    1.3464 H   0  0  0  0  0  0  0  0  0  0  0  0
  1  2  1  0
  2  3  1  0
  3  4  1  0
  4  5  1  0
  5  6  2  0
  5  7  1  0
  7  8  1  0
  8  9  2  0
  7  2  1  0
  8  3  1  0
  1 10  1  0
  1 11  1  0
  1 12  1  0
  2 13  1  0
  3 14  1  0
  4 15  1  0
  4 16  1  0
  7 17  1  0
M  END
