
     RDKit          3D

 19 20  0  0  0  0  0  0  0  0999 V2000
    0.9242   -2.0562   -0.0379 C   0  0  0  0  0  0  0  0  0  0  0  0
    0.4609   -0.6973   -0.4873 C   0  0  0  0  0  0  0  0  0  0  0  0
    0.6509    0.4541    0.5477 C   0  0  0  0  0  0  0  0  0  0  0  0
    1.1630    1.7626    0.0176 C   0  0  0  0  0  0  0  0  0  0  0  0
   -0.6505    0.0043    0.0750 C   0  0  0  0  0  0  0  0  0  0  0  0
   -1.6316    0.8512   -0.6461 C   0  0  0  0  0  0  0  0  0  0  0  0
   -2.4530    0.6569    0.5162 O   0  0  0  0  0  0  0  0  0  0  0  0
   -1.7358   -0.4823    0.8739 C   0  0  0  0  0  0  0  0  0  0  0  0
   -1.9674   -1.4895    1.5921 O   0  0  0  0  0  0  0  0  0  0  0  0
    1.7701   -2.3920   -0.6601 H   0  0  0  0  0  0  0  0  0  0  0  0
    0.1176   -2.8204   -0.1801 H   0  0  0  0  0  0  0  0  0  0  0  0
    1.1980   -2.0900    1.0406 H   0  0  0  0  0  0  0  0  0  0  0  0
    0.7546   -0.4375   -1.5394 H   0  0  0  0  0  0  0  0  0  0  0  0
    1.0780    0.1297    1.5216 H   0  0  0  0  0  0  0  0  0  0  0  0
    2.1480    2.0248    0.4029 H   0  0  0  0  0  0  0  0  0  0  0  0
    0.4567    2.5578    0.3994 H   0  0  0  0  0  0  0  0  0  0  0  0
    1.0876    1.8356   -1.1009 H   0  0  0  0  0  0  0  0  0  0  0  0
   -1.3021    1.8719   -0.8137 H   0  0  0  0  0  0  0  0  0  0  0  0
   -2.0691    0.3164   -1.5214 H   0  0  0  0  0  0  0  0  0  0  0  0
  1  2  1  0
  2  3  1  0
  3  4  1  0
  3  5  1  0
  5  6  1  0
  6  7  1  0
  7  8  1  0
  8  9  2  0
  5  2  1  0
  8  5  1  0
  1 10  1  0
  1 11  1  0
  1 12  1  0
  2 13  1  0
  3 14  1  0
  4 15  1  0
  4 16  1  0
  4 17  1  0
  6 18  1  0
  6 19  1  0
M  END
