
     RDKit          3D

 19 19  0  0  0  0  0  0  0  0999 V2000
   -2.0561   -0.6026    0.3336 C   0  0  0  0  0  0  0  0  0  0  0  0
   -1.0410    0.1547   -0.5125 C   0  0  0  0  0  0  0  0  0  0  0  0
   -0.5693    1.4068    0.1538 C   0  0  0  0  0  0  0  0  0  0  0  0
    0.4801    1.2345    1.0211 O   0  0  0  0  0  0  0  0  0  0  0  0
    1.5652    0.7108    0.3258 C   0  0  0  0  0  0  0  0  0  0  0  0
    1.2402   -0.7725    0.1061 C   0  0  0  0  0  0  0  0  0  0  0  0
    2.3533   -1.3886   -0.4174 O   0  0  0  0  0  0  0  0  0  0  0  0
    0.0846   -0.7843   -0.8352 C   0  0  0  0  0  0  0  0  0  0  0  0
    0.0406   -1.5060   -1.8119 O   0  0  0  0  0  0  0  0  0  0  0  0
   -2.3344   -1.5001   -0.2577 H   0  0  0  0  0  0  0  0  0  0  0  0
   -2.9617    0.0258    0.4666 H   0  0  0  0  0  0  0  0  0  0  0  0
   -1.6231   -0.8724    1.3151 H   0  0  0  0  0  0  0  0  0  0  0  0
   -1.5444    0.4402   -1.4628 H   0  0  0  0  0  0  0  0  0  0  0  0
   -0.3467    2.2154   -0.5995 H   0  0  0  0  0  0  0  0  0  0  0  0
   -1.4436    1.8125    0.7422 H   0  0  0  0  0  0  0  0  0  0  0  0
    2.5147    0.7858    0.8457 H   0  0  0  0  0  0  0  0  0  0  0  0
    1.6207    1.1503   -0.6911 H   0  0  0  0  0  0  0  0  0  0  0  0
    0.9303   -1.2362    1.0540 H   0  0  0  0  0  0  0  0  0  0  0  0
    3.0905   -1.2741    0.2241 H   0  0  0  0  0  0  0  0  0  0  0  0
  1  2  1  0
  2  3  1  0
  3  4  1  0
  4  5  1  0
  5  6  1  0
  6  7  1  0
  6  8  1  0
  8  9  2  0
  8  2  1  0
  1 10  1  0
  1 11  1  0
  1 12  1  0
  2 13  1  0
  3 14  1  0
  3 15  1  0
  5 16  1  0
  5 17  1  0
  6 18  1  0
  7 19  1  0
M  END
