
     RDKit          3D

 21 22  0  0  0  0  0  0  0  0999 V2000
   -2.4195   -0.7606    0.0837 C   0  0  0  0  0  0  0  0  0  0  0  0
   -0.9380   -1.0032    0.0983 C   0  0  0  0  0  0  0  0  0  0  0  0
   -0.1848   -0.4947   -1.1080 C   0  0  0  0  0  0  0  0  0  0  0  0
    0.3942    0.5836   -0.2823 C   0  0  0  0  0  0  0  0  0  0  0  0
    1.8706    0.8646   -0.2660 C   0  0  0  0  0  0  0  0  0  0  0  0
    2.6255   -0.3135    0.1952 C   0  0  0  0  0  0  0  0  0  0  0  0
    2.0347   -1.3527    0.5061 O   0  0  0  0  0  0  0  0  0  0  0  0
   -0.5315    1.4516    0.5472 C   0  0  0  0  0  0  0  0  0  0  0  0
   -0.2650    0.0693    0.9167 C   0  0  0  0  0  0  0  0  0  0  0  0
   -2.6920    0.2698    0.4046 H   0  0  0  0  0  0  0  0  0  0  0  0
   -2.8623   -0.9247   -0.9364 H   0  0  0  0  0  0  0  0  0  0  0  0
   -2.8739   -1.4469    0.8282 H   0  0  0  0  0  0  0  0  0  0  0  0
   -0.6621   -2.0339    0.3753 H   0  0  0  0  0  0  0  0  0  0  0  0
   -0.8422   -0.1398   -1.9423 H   0  0  0  0  0  0  0  0  0  0  0  0
    0.6012   -1.2270   -1.4307 H   0  0  0  0  0  0  0  0  0  0  0  0
    2.2417    1.2284   -1.2455 H   0  0  0  0  0  0  0  0  0  0  0  0
    2.0334    1.6866    0.4661 H   0  0  0  0  0  0  0  0  0  0  0  0
    3.6886   -0.3254    0.2803 H   0  0  0  0  0  0  0  0  0  0  0  0
   -1.4062    1.7980   -0.0176 H   0  0  0  0  0  0  0  0  0  0  0  0
   -0.0613    2.2440    1.1593 H   0  0  0  0  0  0  0  0  0  0  0  0
    0.2489   -0.1736    1.8467 H   0  0  0  0  0  0  0  0  0  0  0  0
  1  2  1  0
  2  3  1  0
  3  4  1  0
  4  5  1  0
  5  6  1  0
  6  7  2  0
  4  8  1  0
  8  9  1  0
  9  2  1  0
  9  4  1  0
  1 10  1  0
  1 11  1  0
  1 12  1  0
  2 13  1  0
  3 14  1  0
  3 15  1  0
  5 16  1  0
  5 17  1  0
  6 18  1  0
  8 19  1  0
  8 20  1  0
  9 21  1  0
M  END
