
     RDKit          3D

 21 21  0  0  0  0  0  0  0  0999 V2000
   -0.3465    1.8936    0.3107 C   0  0  0  0  0  0  0  0  0  0  0  0
   -0.5306    0.4703    0.7851 C   0  0  0  0  0  0  0  0  0  0  0  0
   -1.7564   -0.0889    0.1387 C   0  0  0  0  0  0  0  0  0  0  0  0
   -1.3131   -1.1746   -0.8100 C   0  0  0  0  0  0  0  0  0  0  0  0
    0.0990   -1.5296   -0.4358 C   0  0  0  0  0  0  0  0  0  0  0  0
    0.6311   -0.4154    0.4209 C   0  0  0  0  0  0  0  0  0  0  0  0
    1.6622    0.3237   -0.2399 O   0  0  0  0  0  0  0  0  0  0  0  0
    2.9141    0.3663    0.3483 C   0  0  0  0  0  0  0  0  0  0  0  0
    3.1009   -0.2315    1.4189 O   0  0  0  0  0  0  0  0  0  0  0  0
    0.3165    2.4695    0.9711 H   0  0  0  0  0  0  0  0  0  0  0  0
   -1.3555    2.3846    0.3739 H   0  0  0  0  0  0  0  0  0  0  0  0
   -0.0533    1.9266   -0.7506 H   0  0  0  0  0  0  0  0  0  0  0  0
   -0.6956    0.5223    1.8909 H   0  0  0  0  0  0  0  0  0  0  0  0
   -2.3158    0.6611   -0.4765 H   0  0  0  0  0  0  0  0  0  0  0  0
   -2.4653   -0.4905    0.9041 H   0  0  0  0  0  0  0  0  0  0  0  0
   -2.0223   -2.0217   -0.6907 H   0  0  0  0  0  0  0  0  0  0  0  0
   -1.3688   -0.8566   -1.8659 H   0  0  0  0  0  0  0  0  0  0  0  0
    0.7058   -1.7411   -1.3271 H   0  0  0  0  0  0  0  0  0  0  0  0
    0.0369   -2.5000    0.1357 H   0  0  0  0  0  0  0  0  0  0  0  0
    1.0035   -0.8736    1.3619 H   0  0  0  0  0  0  0  0  0  0  0  0
    3.7533    0.9055   -0.0880 H   0  0  0  0  0  0  0  0  0  0  0  0
  1  2  1  0
  2  3  1  0
  3  4  1  0
  4  5  1  0
  5  6  1  0
  6  7  1  0
  7  8  1  0
  8  9  2  0
  6  2  1  0
  1 10  1  0
  1 11  1  0
  1 12  1  0
  2 13  1  0
  3 14  1  0
  3 15  1  0
  4 16  1  0
  4 17  1  0
  5 18  1  0
  5 19  1  0
  6 20  1  0
  8 21  1  0
M  END
