
     RDKit          3D

 21 22  0  0  0  0  0  0  0  0999 V2000
   -1.2039   -1.1133    0.6562 C   0  0  0  0  0  0  0  0  0  0  0  0
   -1.0925   -0.2887   -0.5987 C   0  0  0  0  0  0  0  0  0  0  0  0
   -1.7430    1.0203   -0.3312 C   0  0  0  0  0  0  0  0  0  0  0  0
   -0.8119    1.8960    0.0151 C   0  0  0  0  0  0  0  0  0  0  0  0
    0.5324    1.2627    0.0114 C   0  0  0  0  0  0  0  0  0  0  0  0
    0.8379    0.6148    1.1868 O   0  0  0  0  0  0  0  0  0  0  0  0
    1.7111   -0.4344    0.8524 C   0  0  0  0  0  0  0  0  0  0  0  0
    1.3508   -0.8729   -0.5343 C   0  0  0  0  0  0  0  0  0  0  0  0
    0.3012    0.1098   -0.9419 C   0  0  0  0  0  0  0  0  0  0  0  0
   -0.4748   -1.9213    0.7325 H   0  0  0  0  0  0  0  0  0  0  0  0
   -2.2171   -1.5940    0.6331 H   0  0  0  0  0  0  0  0  0  0  0  0
   -1.2069   -0.4592    1.5685 H   0  0  0  0  0  0  0  0  0  0  0  0
   -1.5665   -0.8016   -1.4593 H   0  0  0  0  0  0  0  0  0  0  0  0
   -2.8265    1.1909   -0.4188 H   0  0  0  0  0  0  0  0  0  0  0  0
   -0.9918    2.9319    0.2681 H   0  0  0  0  0  0  0  0  0  0  0  0
    1.3197    1.8971   -0.3932 H   0  0  0  0  0  0  0  0  0  0  0  0
    1.6659   -1.2511    1.5985 H   0  0  0  0  0  0  0  0  0  0  0  0
    2.7527   -0.0276    0.9210 H   0  0  0  0  0  0  0  0  0  0  0  0
    2.2500   -0.6801   -1.1780 H   0  0  0  0  0  0  0  0  0  0  0  0
    1.0617   -1.9224   -0.6094 H   0  0  0  0  0  0  0  0  0  0  0  0
    0.3514    0.4434   -1.9788 H   0  0  0  0  0  0  0  0  0  0  0  0
  1  2  1  0
  2  3  1  0
  3  4  2  0
  4  5  1  0
  5  6  1  0
  6  7  1  0
  7  8  1  0
  8  9  1  0
  9  2  1  0
  9  5  1  0
  1 10  1  0
  1 11  1  0
  1 12  1  0
  2 13  1  0
  3 14  1  0
  4 15  1  0
  5 16  1  0
  7 17  1  0
  7 18  1  0
  8 19  1  0
  8 20  1  0
  9 21  1  0
M  END
