
     RDKit          3D

 17 18  0  0  0  0  0  0  0  0999 V2000
    2.1795    0.7071   -0.1299 C   0  0  0  0  0  0  0  0  0  0  0  0
    1.0886   -0.3005   -0.2423 C   0  0  0  0  0  0  0  0  0  0  0  0
    0.3889   -0.6028    1.0812 C   0  0  0  0  0  0  0  0  0  0  0  0
   -0.3214   -0.0238   -0.1011 C   0  0  0  0  0  0  0  0  0  0  0  0
   -1.3600   -0.8912   -0.7626 C   0  0  0  0  0  0  0  0  0  0  0  0
   -2.5709   -0.1920   -0.5616 O   0  0  0  0  0  0  0  0  0  0  0  0
   -2.2725    1.0375    0.0501 C   0  0  0  0  0  0  0  0  0  0  0  0
   -3.1766    1.7639    0.5306 O   0  0  0  0  0  0  0  0  0  0  0  0
   -0.8948    1.2424    0.0055 O   0  0  0  0  0  0  0  0  0  0  0  0
    1.9292    1.6823   -0.5462 H   0  0  0  0  0  0  0  0  0  0  0  0
    2.5105    0.8405    0.9427 H   0  0  0  0  0  0  0  0  0  0  0  0
    3.1186    0.3572   -0.6502 H   0  0  0  0  0  0  0  0  0  0  0  0
    1.3647   -1.2303   -0.8195 H   0  0  0  0  0  0  0  0  0  0  0  0
    0.5371    0.1199    1.9165 H   0  0  0  0  0  0  0  0  0  0  0  0
    0.1438   -1.6325    1.3421 H   0  0  0  0  0  0  0  0  0  0  0  0
   -1.2036   -1.0109   -1.8350 H   0  0  0  0  0  0  0  0  0  0  0  0
   -1.4612   -1.8667   -0.2203 H   0  0  0  0  0  0  0  0  0  0  0  0
  1  2  1  0
  2  3  1  0
  3  4  1  0
  4  5  1  0
  5  6  1  0
  6  7  1  0
  7  8  2  0
  7  9  1  0
  4  2  1  0
  9  4  1  0
  1 10  1  0
  1 11  1  0
  1 12  1  0
  2 13  1  0
  3 14  1  0
  3 15  1  0
  5 16  1  0
  5 17  1  0
M  END
