
     RDKit          3D

 19 22  0  0  0  0  0  0  0  0999 V2000
    2.2376    0.7617   -0.1060 C   0  0  0  0  0  0  0  0  0  0  0  0
    1.2552   -0.3378    0.0299 C   0  0  0  0  0  0  0  0  0  0  0  0
    0.1029   -0.3522   -0.9375 C   0  0  0  0  0  0  0  0  0  0  0  0
   -0.5876   -1.1945    0.0900 C   0  0  0  0  0  0  0  0  0  0  0  0
   -2.0334   -0.8731   -0.0722 C   0  0  0  0  0  0  0  0  0  0  0  0
   -2.4652   -0.1619   -1.2008 O   0  0  0  0  0  0  0  0  0  0  0  0
   -1.9428    0.6576   -0.2268 C   0  0  0  0  0  0  0  0  0  0  0  0
   -0.4434    0.8150   -0.1652 C   0  0  0  0  0  0  0  0  0  0  0  0
    0.0564   -0.0972    0.8994 C   0  0  0  0  0  0  0  0  0  0  0  0
    2.2118    1.4905    0.7367 H   0  0  0  0  0  0  0  0  0  0  0  0
    3.2688    0.3044   -0.0483 H   0  0  0  0  0  0  0  0  0  0  0  0
    2.1680    1.2407   -1.0970 H   0  0  0  0  0  0  0  0  0  0  0  0
    1.6684   -1.3568    0.1776 H   0  0  0  0  0  0  0  0  0  0  0  0
    0.1342   -0.4764   -1.9258 H   0  0  0  0  0  0  0  0  0  0  0  0
   -0.2712   -2.2043    0.2468 H   0  0  0  0  0  0  0  0  0  0  0  0
   -2.7999   -1.2823    0.5976 H   0  0  0  0  0  0  0  0  0  0  0  0
   -2.5746    1.2697    0.4214 H   0  0  0  0  0  0  0  0  0  0  0  0
   -0.0141    1.7845   -0.3007 H   0  0  0  0  0  0  0  0  0  0  0  0
    0.0289    0.0125    1.8922 H   0  0  0  0  0  0  0  0  0  0  0  0
  1  2  1  0
  2  3  1  0
  3  4  1  0
  4  5  1  0
  5  6  1  0
  6  7  1  0
  7  8  1  0
  8  9  1  0
  9  2  1  0
  8  3  1  0
  9  4  1  0
  7  5  1  0
  1 10  1  0
  1 11  1  0
  1 12  1  0
  2 13  1  0
  3 14  1  0
  4 15  1  0
  5 16  1  0
  7 17  1  0
  8 18  1  0
  9 19  1  0
M  END
