
     RDKit          3D

 17 17  0  0  0  0  0  0  0  0999 V2000
   -1.7871   -0.7371   -0.4570 C   0  0  0  0  0  0  0  0  0  0  0  0
   -0.5110   -0.4144    0.2676 C   0  0  0  0  0  0  0  0  0  0  0  0
   -0.5364    0.9704    0.8363 C   0  0  0  0  0  0  0  0  0  0  0  0
    0.3810    1.4549   -0.2312 C   0  0  0  0  0  0  0  0  0  0  0  0
    0.7011    2.5748   -0.5731 O   0  0  0  0  0  0  0  0  0  0  0  0
    0.6390    0.0315   -0.5816 C   0  0  0  0  0  0  0  0  0  0  0  0
    1.9448   -0.5116    0.0005 C   0  0  0  0  0  0  0  0  0  0  0  0
   -1.5610   -1.5878   -1.1514 H   0  0  0  0  0  0  0  0  0  0  0  0
   -2.2366    0.1264   -0.9739 H   0  0  0  0  0  0  0  0  0  0  0  0
   -2.4827   -1.1799    0.3099 H   0  0  0  0  0  0  0  0  0  0  0  0
   -0.2687   -1.2352    0.9769 H   0  0  0  0  0  0  0  0  0  0  0  0
   -0.0366    1.0717    1.8186 H   0  0  0  0  0  0  0  0  0  0  0  0
   -1.5278    1.4528    0.8698 H   0  0  0  0  0  0  0  0  0  0  0  0
    0.5185   -0.1159   -1.6628 H   0  0  0  0  0  0  0  0  0  0  0  0
    2.6471   -0.8157   -0.8059 H   0  0  0  0  0  0  0  0  0  0  0  0
    2.3803    0.2852    0.6592 H   0  0  0  0  0  0  0  0  0  0  0  0
    1.7361   -1.3700    0.6981 H   0  0  0  0  0  0  0  0  0  0  0  0
  1  2  1  0
  2  3  1  0
  3  4  1  0
  4  5  2  0
  4  6  1  0
  6  7  1  0
  6  2  1  0
  1  8  1  0
  1  9  1  0
  1 10  1  0
  2 11  1  0
  3 12  1  0
  3 13  1  0
  6 14  1  0
  7 15  1  0
  7 16  1  0
  7 17  1  0
M  END
