
     RDKit          3D

 21 23  0  0  0  0  0  0  0  0999 V2000
    2.0309   -0.9191   -0.0569 C   0  0  0  0  0  0  0  0  0  0  0  0
    1.4087    0.1739    0.7595 C   0  0  0  0  0  0  0  0  0  0  0  0
   -0.0245    0.0921    1.1110 C   0  0  0  0  0  0  0  0  0  0  0  0
   -1.0797   -0.2366    0.1201 C   0  0  0  0  0  0  0  0  0  0  0  0
   -1.2093   -1.6066   -0.4738 C   0  0  0  0  0  0  0  0  0  0  0  0
   -2.0293    0.8324   -0.2541 C   0  0  0  0  0  0  0  0  0  0  0  0
   -0.5961    0.8286   -0.7716 C   0  0  0  0  0  0  0  0  0  0  0  0
    0.4880    1.1693    0.1864 C   0  0  0  0  0  0  0  0  0  0  0  0
    0.5497    2.4767    0.5944 O   0  0  0  0  0  0  0  0  0  0  0  0
    1.6378   -0.9875   -1.0689 H   0  0  0  0  0  0  0  0  0  0  0  0
    3.1448   -0.7558   -0.0986 H   0  0  0  0  0  0  0  0  0  0  0  0
    1.9186   -1.8677    0.5362 H   0  0  0  0  0  0  0  0  0  0  0  0
    2.0717    0.5553    1.5683 H   0  0  0  0  0  0  0  0  0  0  0  0
   -0.3402    0.3677    2.1434 H   0  0  0  0  0  0  0  0  0  0  0  0
   -0.3016   -2.2136   -0.3610 H   0  0  0  0  0  0  0  0  0  0  0  0
   -2.1171   -2.1480   -0.1279 H   0  0  0  0  0  0  0  0  0  0  0  0
   -1.3535   -1.4855   -1.5875 H   0  0  0  0  0  0  0  0  0  0  0  0
   -2.2783    1.5616    0.5456 H   0  0  0  0  0  0  0  0  0  0  0  0
   -2.8123    0.6702   -1.0125 H   0  0  0  0  0  0  0  0  0  0  0  0
   -0.3981    0.5814   -1.8182 H   0  0  0  0  0  0  0  0  0  0  0  0
    1.2897    2.9112    0.0659 H   0  0  0  0  0  0  0  0  0  0  0  0
  1  2  1  0
  2  3  1  0
  3  4  1  0
  4  5  1  0
  4  6  1  0
  6  7  1  0
  7  8  1  0
  8  9  1  0
  8  2  1  0
  8  3  1  0
  7  4  1  0
  1 10  1  0
  1 11  1  0
  1 12  1  0
  2 13  1  0
  3 14  1  0
  5 15  1  0
  5 16  1  0
  5 17  1  0
  6 18  1  0
  6 19  1  0
  7 20  1  0
  9 21  1  0
M  END
