
     RDKit          3D

 27 27  0  0  0  0  0  0  0  0999 V2000
   -1.0355    0.0058    1.9139 C   0  0  0  0  0  0  0  0  0  0  0  0
   -1.2306   -0.1306    0.4368 C   0  0  0  0  0  0  0  0  0  0  0  0
   -1.2590    1.2065   -0.2504 C   0  0  0  0  0  0  0  0  0  0  0  0
    0.0768    1.8831   -0.2512 C   0  0  0  0  0  0  0  0  0  0  0  0
    1.2242    1.0250   -0.6344 C   0  0  0  0  0  0  0  0  0  0  0  0
    1.1101   -0.4213   -0.4551 C   0  0  0  0  0  0  0  0  0  0  0  0
    2.0573   -0.9249    0.6481 C   0  0  0  0  0  0  0  0  0  0  0  0
   -0.2363   -1.0008   -0.2444 C   0  0  0  0  0  0  0  0  0  0  0  0
   -0.8485   -1.4538   -1.5770 C   0  0  0  0  0  0  0  0  0  0  0  0
   -0.4804   -0.8254    2.3718 H   0  0  0  0  0  0  0  0  0  0  0  0
   -0.5350    0.9815    2.1247 H   0  0  0  0  0  0  0  0  0  0  0  0
   -2.0281    0.0670    2.4328 H   0  0  0  0  0  0  0  0  0  0  0  0
   -2.2440   -0.5863    0.2741 H   0  0  0  0  0  0  0  0  0  0  0  0
   -1.6695    1.0455   -1.2752 H   0  0  0  0  0  0  0  0  0  0  0  0
   -1.9811    1.8385    0.3084 H   0  0  0  0  0  0  0  0  0  0  0  0
   -0.0204    2.7797   -0.9053 H   0  0  0  0  0  0  0  0  0  0  0  0
    0.2232    2.3173    0.7822 H   0  0  0  0  0  0  0  0  0  0  0  0
    2.1167    1.3935   -0.0424 H   0  0  0  0  0  0  0  0  0  0  0  0
    1.5083    1.3008   -1.6947 H   0  0  0  0  0  0  0  0  0  0  0  0
    1.5148   -0.9320   -1.3827 H   0  0  0  0  0  0  0  0  0  0  0  0
    1.6247   -1.7645    1.1903 H   0  0  0  0  0  0  0  0  0  0  0  0
    2.2129   -0.0829    1.3812 H   0  0  0  0  0  0  0  0  0  0  0  0
    3.0507   -1.1634    0.2522 H   0  0  0  0  0  0  0  0  0  0  0  0
   -0.1293   -1.9289    0.3768 H   0  0  0  0  0  0  0  0  0  0  0  0
   -0.1776   -1.1495   -2.4141 H   0  0  0  0  0  0  0  0  0  0  0  0
   -1.0281   -2.5350   -1.6002 H   0  0  0  0  0  0  0  0  0  0  0  0
   -1.8163   -0.9447   -1.7664 H   0  0  0  0  0  0  0  0  0  0  0  0
  1  2  1  0
  2  3  1  0
  3  4  1  0
  4  5  1  0
  5  6  1  0
  6  7  1  0
  6  8  1  0
  8  9  1  0
  8  2  1  0
  1 10  1  0
  1 11  1  0
  1 12  1  0
  2 13  1  0
  3 14  1  0
  3 15  1  0
  4 16  1  0
  4 17  1  0
  5 18  1  0
  5 19  1  0
  6 20  1  0
  7 21  1  0
  7 22  1  0
  7 23  1  0
  8 24  1  0
  9 25  1  0
  9 26  1  0
  9 27  1  0
M  END
