
     RDKit          3D

 21 22  0  0  0  0  0  0  0  0999 V2000
    2.3200    0.0564    0.2723 C   0  0  0  0  0  0  0  0  0  0  0  0
    1.1015   -0.1877   -0.6093 C   0  0  0  0  0  0  0  0  0  0  0  0
    0.2306   -1.2665   -0.0161 C   0  0  0  0  0  0  0  0  0  0  0  0
   -1.1397   -0.7799    0.3478 C   0  0  0  0  0  0  0  0  0  0  0  0
   -1.7829   -0.1735   -0.8801 C   0  0  0  0  0  0  0  0  0  0  0  0
   -1.0827    1.1180   -0.5112 C   0  0  0  0  0  0  0  0  0  0  0  0
   -1.1475    0.6205    0.9431 C   0  0  0  0  0  0  0  0  0  0  0  0
    0.3485    1.0647   -0.8709 C   0  0  0  0  0  0  0  0  0  0  0  0
    0.8695    2.0338   -1.3659 O   0  0  0  0  0  0  0  0  0  0  0  0
    2.4905   -0.8279    0.9169 H   0  0  0  0  0  0  0  0  0  0  0  0
    2.2194    0.9971    0.8543 H   0  0  0  0  0  0  0  0  0  0  0  0
    3.2502    0.1750   -0.3442 H   0  0  0  0  0  0  0  0  0  0  0  0
    1.5138   -0.5071   -1.6110 H   0  0  0  0  0  0  0  0  0  0  0  0
    0.1033   -2.0621   -0.7808 H   0  0  0  0  0  0  0  0  0  0  0  0
    0.7170   -1.7643    0.8659 H   0  0  0  0  0  0  0  0  0  0  0  0
   -1.7256   -1.5167    0.8857 H   0  0  0  0  0  0  0  0  0  0  0  0
   -2.8653   -0.1000   -0.7660 H   0  0  0  0  0  0  0  0  0  0  0  0
   -1.4291   -0.6256   -1.8395 H   0  0  0  0  0  0  0  0  0  0  0  0
   -1.6220    2.0407   -0.7052 H   0  0  0  0  0  0  0  0  0  0  0  0
   -2.1203    0.8282    1.4101 H   0  0  0  0  0  0  0  0  0  0  0  0
   -0.2492    0.8768    1.5317 H   0  0  0  0  0  0  0  0  0  0  0  0
  1  2  1  0
  2  3  1  0
  3  4  1  0
  4  5  1  0
  5  6  1  0
  6  7  1  0
  6  8  1  0
  8  9  2  0
  8  2  1  0
  7  4  1  0
  1 10  1  0
  1 11  1  0
  1 12  1  0
  2 13  1  0
  3 14  1  0
  3 15  1  0
  4 16  1  0
  5 17  1  0
  5 18  1  0
  6 19  1  0
  7 20  1  0
  7 21  1  0
M  END
