
     RDKit          3D

 19 19  0  0  0  0  0  0  0  0999 V2000
   -2.0842    1.0299   -0.0441 C   0  0  0  0  0  0  0  0  0  0  0  0
   -0.8423    0.4316    0.6302 C   0  0  0  0  0  0  0  0  0  0  0  0
   -0.8709   -1.0657    0.5941 C   0  0  0  0  0  0  0  0  0  0  0  0
   -0.0322   -1.6425   -0.4897 C   0  0  0  0  0  0  0  0  0  0  0  0
    1.0991   -1.0148   -0.7816 C   0  0  0  0  0  0  0  0  0  0  0  0
    1.3859    0.2141    0.0348 C   0  0  0  0  0  0  0  0  0  0  0  0
    2.5500    0.9581   -0.4438 C   0  0  0  0  0  0  0  0  0  0  0  0
    2.4060    2.1167   -0.7940 O   0  0  0  0  0  0  0  0  0  0  0  0
    0.2505    0.9877    0.0109 O   0  0  0  0  0  0  0  0  0  0  0  0
   -2.0262    0.9134   -1.1428 H   0  0  0  0  0  0  0  0  0  0  0  0
   -2.0501    2.1187    0.1739 H   0  0  0  0  0  0  0  0  0  0  0  0
   -3.0007    0.6055    0.3947 H   0  0  0  0  0  0  0  0  0  0  0  0
   -0.9265    0.7657    1.7062 H   0  0  0  0  0  0  0  0  0  0  0  0
   -1.9019   -1.4736    0.5569 H   0  0  0  0  0  0  0  0  0  0  0  0
   -0.4053   -1.4228    1.5582 H   0  0  0  0  0  0  0  0  0  0  0  0
   -0.3619   -2.5317   -0.9925 H   0  0  0  0  0  0  0  0  0  0  0  0
    1.7522   -1.3772   -1.5533 H   0  0  0  0  0  0  0  0  0  0  0  0
    1.5312   -0.1456    1.0839 H   0  0  0  0  0  0  0  0  0  0  0  0
    3.5270    0.5325   -0.5019 H   0  0  0  0  0  0  0  0  0  0  0  0
  1  2  1  0
  2  3  1  0
  3  4  1  0
  4  5  2  0
  5  6  1  0
  6  7  1  0
  7  8  2  0
  6  9  1  0
  9  2  1  0
  1 10  1  0
  1 11  1  0
  1 12  1  0
  2 13  1  0
  3 14  1  0
  3 15  1  0
  4 16  1  0
  5 17  1  0
  6 18  1  0
  7 19  1  0
M  END
