
     RDKit          3D

 25 26  0  0  0  0  0  0  0  0999 V2000
   -1.7763   -1.2614    0.7957 C   0  0  0  0  0  0  0  0  0  0  0  0
   -1.1982   -0.5008   -0.3655 C   0  0  0  0  0  0  0  0  0  0  0  0
   -1.7667    0.8845   -0.3767 C   0  0  0  0  0  0  0  0  0  0  0  0
   -0.6255    1.8540   -0.3655 C   0  0  0  0  0  0  0  0  0  0  0  0
    0.6461    1.0635   -0.3830 C   0  0  0  0  0  0  0  0  0  0  0  0
    0.9296    0.1813    0.8457 C   0  0  0  0  0  0  0  0  0  0  0  0
    2.3695    0.0731    1.1901 C   0  0  0  0  0  0  0  0  0  0  0  0
    0.2968   -0.3894   -0.3246 C   0  0  0  0  0  0  0  0  0  0  0  0
    1.0142   -1.2500   -1.3323 C   0  0  0  0  0  0  0  0  0  0  0  0
   -2.6005   -1.9299    0.4386 H   0  0  0  0  0  0  0  0  0  0  0  0
   -2.2255   -0.5968    1.5637 H   0  0  0  0  0  0  0  0  0  0  0  0
   -1.0356   -1.9116    1.3066 H   0  0  0  0  0  0  0  0  0  0  0  0
   -1.5408   -0.9957   -1.3188 H   0  0  0  0  0  0  0  0  0  0  0  0
   -2.4438    1.0693   -1.2558 H   0  0  0  0  0  0  0  0  0  0  0  0
   -2.4088    1.0898    0.5158 H   0  0  0  0  0  0  0  0  0  0  0  0
   -0.6191    2.4597    0.5798 H   0  0  0  0  0  0  0  0  0  0  0  0
   -0.6339    2.5158   -1.2408 H   0  0  0  0  0  0  0  0  0  0  0  0
    1.5116    1.3906   -0.9911 H   0  0  0  0  0  0  0  0  0  0  0  0
    0.2640    0.4102    1.7222 H   0  0  0  0  0  0  0  0  0  0  0  0
    2.8556   -0.8703    0.8618 H   0  0  0  0  0  0  0  0  0  0  0  0
    2.5518    0.1220    2.2980 H   0  0  0  0  0  0  0  0  0  0  0  0
    2.9769    0.9203    0.7607 H   0  0  0  0  0  0  0  0  0  0  0  0
    0.4122   -2.1643   -1.5552 H   0  0  0  0  0  0  0  0  0  0  0  0
    1.0071   -0.6688   -2.2975 H   0  0  0  0  0  0  0  0  0  0  0  0
    2.0394   -1.4954   -1.0718 H   0  0  0  0  0  0  0  0  0  0  0  0
  1  2  1  0
  2  3  1  0
  3  4  1  0
  4  5  1  0
  5  6  1  0
  6  7  1  0
  6  8  1  0
  8  9  1  0
  8  2  1  0
  8  5  1  0
  1 10  1  0
  1 11  1  0
  1 12  1  0
  2 13  1  0
  3 14  1  0
  3 15  1  0
  4 16  1  0
  4 17  1  0
  5 18  1  0
  6 19  1  0
  7 20  1  0
  7 21  1  0
  7 22  1  0
  9 23  1  0
  9 24  1  0
  9 25  1  0
M  END
