
     RDKit          3D

 18 19  0  0  0  0  0  0  0  0999 V2000
   -2.2797   -0.1453    0.2997 C   0  0  0  0  0  0  0  0  0  0  0  0
   -0.7988   -0.4420    0.0210 C   0  0  0  0  0  0  0  0  0  0  0  0
   -0.3179    0.6184   -0.9197 C   0  0  0  0  0  0  0  0  0  0  0  0
    1.1867    0.6008   -1.0316 C   0  0  0  0  0  0  0  0  0  0  0  0
    1.9226    1.3986   -0.1738 O   0  0  0  0  0  0  0  0  0  0  0  0
    1.8687   -0.0640   -0.0003 C   0  0  0  0  0  0  0  0  0  0  0  0
    1.1804   -0.4961    1.2266 C   0  0  0  0  0  0  0  0  0  0  0  0
   -0.1745   -0.4305    1.2386 O   0  0  0  0  0  0  0  0  0  0  0  0
   -2.8864   -0.6318   -0.4857 H   0  0  0  0  0  0  0  0  0  0  0  0
   -2.5364   -0.5880    1.2805 H   0  0  0  0  0  0  0  0  0  0  0  0
   -2.4848    0.9387    0.2831 H   0  0  0  0  0  0  0  0  0  0  0  0
   -0.7832   -1.4456   -0.4744 H   0  0  0  0  0  0  0  0  0  0  0  0
   -0.7054    1.6229   -0.6469 H   0  0  0  0  0  0  0  0  0  0  0  0
   -0.7728    0.3829   -1.9264 H   0  0  0  0  0  0  0  0  0  0  0  0
    1.5856    0.5814   -2.0702 H   0  0  0  0  0  0  0  0  0  0  0  0
    2.8811   -0.5156   -0.1939 H   0  0  0  0  0  0  0  0  0  0  0  0
    1.5574    0.1430    2.0806 H   0  0  0  0  0  0  0  0  0  0  0  0
    1.5574   -1.5278    1.4929 H   0  0  0  0  0  0  0  0  0  0  0  0
  1  2  1  0
  2  3  1  0
  3  4  1  0
  4  5  1  0
  5  6  1  0
  6  7  1  0
  7  8  1  0
  8  2  1  0
  6  4  1  0
  1  9  1  0
  1 10  1  0
  1 11  1  0
  2 12  1  0
  3 13  1  0
  3 14  1  0
  4 15  1  0
  6 16  1  0
  7 17  1  0
  7 18  1  0
M  END
