
     RDKit          3D

 21 22  0  0  0  0  0  0  0  0999 V2000
   -1.8035   -1.0802   -0.7857 C   0  0  0  0  0  0  0  0  0  0  0  0
   -0.8605   -0.7590    0.3373 C   0  0  0  0  0  0  0  0  0  0  0  0
   -0.4472    0.6390    0.6291 C   0  0  0  0  0  0  0  0  0  0  0  0
   -1.0529    1.7430   -0.2376 C   0  0  0  0  0  0  0  0  0  0  0  0
   -0.3209    1.0392    1.9671 O   0  0  0  0  0  0  0  0  0  0  0  0
    0.4637   -0.2961    0.0112 C   0  0  0  0  0  0  0  0  0  0  0  0
    1.7380   -0.7867    0.5593 C   0  0  0  0  0  0  0  0  0  0  0  0
    2.2569    0.0199   -0.6326 C   0  0  0  0  0  0  0  0  0  0  0  0
    1.0036   -0.1892   -1.2399 O   0  0  0  0  0  0  0  0  0  0  0  0
   -1.6992   -0.4342   -1.6609 H   0  0  0  0  0  0  0  0  0  0  0  0
   -1.5695   -2.1220   -1.1367 H   0  0  0  0  0  0  0  0  0  0  0  0
   -2.8608   -1.1048   -0.4705 H   0  0  0  0  0  0  0  0  0  0  0  0
   -0.9990   -1.3981    1.2329 H   0  0  0  0  0  0  0  0  0  0  0  0
   -2.1174    1.9165    0.0092 H   0  0  0  0  0  0  0  0  0  0  0  0
   -0.4402    2.6757   -0.1469 H   0  0  0  0  0  0  0  0  0  0  0  0
   -1.0156    1.4607   -1.3039 H   0  0  0  0  0  0  0  0  0  0  0  0
    0.2397    0.4088    2.4935 H   0  0  0  0  0  0  0  0  0  0  0  0
    2.0800   -0.4332    1.5338 H   0  0  0  0  0  0  0  0  0  0  0  0
    1.8719   -1.8811    0.3550 H   0  0  0  0  0  0  0  0  0  0  0  0
    3.0976   -0.4910   -1.1385 H   0  0  0  0  0  0  0  0  0  0  0  0
    2.4352    1.0728   -0.3751 H   0  0  0  0  0  0  0  0  0  0  0  0
  1  2  1  0
  2  3  1  0
  3  4  1  0
  3  5  1  0
  3  6  1  0
  6  7  1  0
  7  8  1  0
  8  9  1  0
  6  2  1  0
  9  6  1  0
  1 10  1  0
  1 11  1  0
  1 12  1  0
  2 13  1  0
  4 14  1  0
  4 15  1  0
  4 16  1  0
  5 17  1  0
  7 18  1  0
  7 19  1  0
  8 20  1  0
  8 21  1  0
M  END
