
     RDKit          3D

 23 24  0  0  0  0  0  0  0  0999 V2000
   -1.8987   -1.6471    0.2237 C   0  0  0  0  0  0  0  0  0  0  0  0
   -0.7527   -0.9065    0.8083 C   0  0  0  0  0  0  0  0  0  0  0  0
    0.6357   -1.4141    0.3860 C   0  0  0  0  0  0  0  0  0  0  0  0
    1.0690    0.0382    0.3970 C   0  0  0  0  0  0  0  0  0  0  0  0
    2.0098    0.4246   -0.7136 C   0  0  0  0  0  0  0  0  0  0  0  0
    2.2974    1.7878   -0.5422 O   0  0  0  0  0  0  0  0  0  0  0  0
   -0.3624    0.3878    0.2015 C   0  0  0  0  0  0  0  0  0  0  0  0
   -0.9386    0.9982   -0.9661 C   0  0  0  0  0  0  0  0  0  0  0  0
   -0.9582    1.6742    0.4443 C   0  0  0  0  0  0  0  0  0  0  0  0
   -2.2108   -1.2989   -0.7700 H   0  0  0  0  0  0  0  0  0  0  0  0
   -2.7445   -1.6286    0.9633 H   0  0  0  0  0  0  0  0  0  0  0  0
   -1.6209   -2.7235    0.1252 H   0  0  0  0  0  0  0  0  0  0  0  0
   -0.7590   -0.8408    1.9232 H   0  0  0  0  0  0  0  0  0  0  0  0
    1.1203   -2.0715    1.1027 H   0  0  0  0  0  0  0  0  0  0  0  0
    0.5582   -1.8006   -0.6623 H   0  0  0  0  0  0  0  0  0  0  0  0
    1.4389    0.3354    1.3994 H   0  0  0  0  0  0  0  0  0  0  0  0
    1.5329    0.3395   -1.7067 H   0  0  0  0  0  0  0  0  0  0  0  0
    2.9358   -0.1667   -0.7222 H   0  0  0  0  0  0  0  0  0  0  0  0
    3.2270    1.9282   -0.2071 H   0  0  0  0  0  0  0  0  0  0  0  0
   -0.3799    1.5347   -1.7450 H   0  0  0  0  0  0  0  0  0  0  0  0
   -1.9477    0.6603   -1.3308 H   0  0  0  0  0  0  0  0  0  0  0  0
   -1.9652    1.8270    0.8703 H   0  0  0  0  0  0  0  0  0  0  0  0
   -0.2865    2.5625    0.5214 H   0  0  0  0  0  0  0  0  0  0  0  0
  1  2  1  0
  2  3  1  0
  3  4  1  0
  4  5  1  0
  5  6  1  0
  4  7  1  0
  7  8  1  0
  8  9  1  0
  7  2  1  0
  9  7  1  0
  1 10  1  0
  1 11  1  0
  1 12  1  0
  2 13  1  0
  3 14  1  0
  3 15  1  0
  4 16  1  0
  5 17  1  0
  5 18  1  0
  6 19  1  0
  8 20  1  0
  8 21  1  0
  9 22  1  0
  9 23  1  0
M  END
