
     RDKit          3D

 23 24  0  0  0  0  0  0  0  0999 V2000
   -2.0572    1.8354    0.0627 C   0  0  0  0  0  0  0  0  0  0  0  0
   -1.1759    0.6450    0.2283 C   0  0  0  0  0  0  0  0  0  0  0  0
   -1.3236   -0.3835   -0.8956 C   0  0  0  0  0  0  0  0  0  0  0  0
   -1.4078   -1.8096   -0.4395 C   0  0  0  0  0  0  0  0  0  0  0  0
   -0.0233    0.3749   -0.6604 C   0  0  0  0  0  0  0  0  0  0  0  0
    1.1116   -0.4809   -0.2088 C   0  0  0  0  0  0  0  0  0  0  0  0
    1.8697   -0.0296    1.0002 C   0  0  0  0  0  0  0  0  0  0  0  0
    3.0152    0.0382    0.0179 C   0  0  0  0  0  0  0  0  0  0  0  0
    2.2314   -0.3856   -1.0353 O   0  0  0  0  0  0  0  0  0  0  0  0
   -2.1473    2.4656    0.9713 H   0  0  0  0  0  0  0  0  0  0  0  0
   -3.1052    1.4717   -0.1520 H   0  0  0  0  0  0  0  0  0  0  0  0
   -1.7662    2.5079   -0.7608 H   0  0  0  0  0  0  0  0  0  0  0  0
   -1.0998    0.2653    1.2613 H   0  0  0  0  0  0  0  0  0  0  0  0
   -1.8909   -0.1082   -1.7959 H   0  0  0  0  0  0  0  0  0  0  0  0
   -2.4671   -2.1074   -0.4552 H   0  0  0  0  0  0  0  0  0  0  0  0
   -0.7835   -2.4795   -1.0643 H   0  0  0  0  0  0  0  0  0  0  0  0
   -1.0361   -1.9093    0.6102 H   0  0  0  0  0  0  0  0  0  0  0  0
    0.2466    1.1993   -1.3490 H   0  0  0  0  0  0  0  0  0  0  0  0
    0.8626   -1.5755   -0.0983 H   0  0  0  0  0  0  0  0  0  0  0  0
    1.5742    0.9223    1.4557 H   0  0  0  0  0  0  0  0  0  0  0  0
    2.0907   -0.8090    1.7639 H   0  0  0  0  0  0  0  0  0  0  0  0
    3.8352   -0.6914    0.1900 H   0  0  0  0  0  0  0  0  0  0  0  0
    3.4466    1.0442   -0.1295 H   0  0  0  0  0  0  0  0  0  0  0  0
  1  2  1  0
  2  3  1  0
  3  4  1  0
  3  5  1  0
  5  6  1  0
  6  7  1  0
  7  8  1  0
  8  9  1  0
  5  2  1  0
  9  6  1  0
  1 10  1  0
  1 11  1  0
  1 12  1  0
  2 13  1  0
  3 14  1  0
  4 15  1  0
  4 16  1  0
  4 17  1  0
  5 18  1  0
  6 19  1  0
  7 20  1  0
  7 21  1  0
  8 22  1  0
  8 23  1  0
M  END
