
     RDKit          3D

 19 21  0  0  0  0  0  0  0  0999 V2000
    2.6672    0.1034    0.1847 C   0  0  0  0  0  0  0  0  0  0  0  0
    1.1955    0.1804   -0.0351 C   0  0  0  0  0  0  0  0  0  0  0  0
    0.3214    0.6056    1.0709 C   0  0  0  0  0  0  0  0  0  0  0  0
   -1.1668    0.4523    1.0025 C   0  0  0  0  0  0  0  0  0  0  0  0
   -1.8487    1.2687    0.1419 O   0  0  0  0  0  0  0  0  0  0  0  0
   -2.2324    0.4286   -0.9001 C   0  0  0  0  0  0  0  0  0  0  0  0
   -1.2571   -0.5550   -1.0102 O   0  0  0  0  0  0  0  0  0  0  0  0
   -1.0588   -0.9036    0.3289 C   0  0  0  0  0  0  0  0  0  0  0  0
    0.3960   -0.8964    0.6577 C   0  0  0  0  0  0  0  0  0  0  0  0
    3.2326    0.9936   -0.1172 H   0  0  0  0  0  0  0  0  0  0  0  0
    3.0532   -0.7366   -0.4636 H   0  0  0  0  0  0  0  0  0  0  0  0
    2.9126   -0.2169    1.2271 H   0  0  0  0  0  0  0  0  0  0  0  0
    0.9104    0.3994   -1.0973 H   0  0  0  0  0  0  0  0  0  0  0  0
    0.8038    0.8798    2.0126 H   0  0  0  0  0  0  0  0  0  0  0  0
   -1.6155    0.3154    2.0156 H   0  0  0  0  0  0  0  0  0  0  0  0
   -2.2967    1.0492   -1.8066 H   0  0  0  0  0  0  0  0  0  0  0  0
   -3.1872   -0.0908   -0.6893 H   0  0  0  0  0  0  0  0  0  0  0  0
   -1.6803   -1.6968    0.7269 H   0  0  0  0  0  0  0  0  0  0  0  0
    0.8509   -1.5804    1.3638 H   0  0  0  0  0  0  0  0  0  0  0  0
  1  2  1  0
  2  3  1  0
  3  4  1  0
  4  5  1  0
  5  6  1  0
  6  7  1  0
  7  8  1  0
  8  9  1  0
  9  2  1  0
  9  3  1  0
  8  4  1  0
  1 10  1  0
  1 11  1  0
  1 12  1  0
  2 13  1  0
  3 14  1  0
  4 15  1  0
  6 16  1  0
  6 17  1  0
  8 18  1  0
  9 19  1  0
M  END
