
     RDKit          3D

 21 22  0  0  0  0  0  0  0  0999 V2000
    2.4203   -0.4396    0.1213 C   0  0  0  0  0  0  0  0  0  0  0  0
    0.9659   -0.2892    0.4550 C   0  0  0  0  0  0  0  0  0  0  0  0
    0.5731    1.1905    0.4348 C   0  0  0  0  0  0  0  0  0  0  0  0
   -0.5764    0.8104   -0.4641 C   0  0  0  0  0  0  0  0  0  0  0  0
   -0.6987    1.5532   -1.6271 O   0  0  0  0  0  0  0  0  0  0  0  0
   -1.8142    0.6513    0.3309 C   0  0  0  0  0  0  0  0  0  0  0  0
   -2.1250   -0.6309    0.4556 C   0  0  0  0  0  0  0  0  0  0  0  0
   -1.1292   -1.4913   -0.2438 C   0  0  0  0  0  0  0  0  0  0  0  0
   -0.0113   -0.5682   -0.6287 C   0  0  0  0  0  0  0  0  0  0  0  0
    2.9426    0.4602    0.5611 H   0  0  0  0  0  0  0  0  0  0  0  0
    2.6458   -0.5066   -0.9411 H   0  0  0  0  0  0  0  0  0  0  0  0
    2.8387   -1.3223    0.6519 H   0  0  0  0  0  0  0  0  0  0  0  0
    0.7075   -0.8026    1.4185 H   0  0  0  0  0  0  0  0  0  0  0  0
    0.2881    1.5086    1.4511 H   0  0  0  0  0  0  0  0  0  0  0  0
    1.3144    1.8394   -0.0884 H   0  0  0  0  0  0  0  0  0  0  0  0
   -0.9551    2.4781   -1.3605 H   0  0  0  0  0  0  0  0  0  0  0  0
   -2.3648    1.5045    0.7405 H   0  0  0  0  0  0  0  0  0  0  0  0
   -3.0040   -0.9538    1.0076 H   0  0  0  0  0  0  0  0  0  0  0  0
   -0.7781   -2.2590    0.4771 H   0  0  0  0  0  0  0  0  0  0  0  0
   -1.6415   -1.9231   -1.1247 H   0  0  0  0  0  0  0  0  0  0  0  0
    0.4019   -0.8096   -1.6273 H   0  0  0  0  0  0  0  0  0  0  0  0
  1  2  1  0
  2  3  1  0
  3  4  1  0
  4  5  1  0
  4  6  1  0
  6  7  2  0
  7  8  1  0
  8  9  1  0
  9  2  1  0
  9  4  1  0
  1 10  1  0
  1 11  1  0
  1 12  1  0
  2 13  1  0
  3 14  1  0
  3 15  1  0
  5 16  1  0
  6 17  1  0
  7 18  1  0
  8 19  1  0
  8 20  1  0
  9 21  1  0
M  END
