
     RDKit          3D

 19 19  0  0  0  0  0  0  0  0999 V2000
    2.4474   -0.1175   -0.1568 C   0  0  0  0  0  0  0  0  0  0  0  0
    1.0169    0.1232    0.2569 C   0  0  0  0  0  0  0  0  0  0  0  0
    0.4593    1.3616   -0.3194 C   0  0  0  0  0  0  0  0  0  0  0  0
   -0.8213    1.1639   -0.5734 C   0  0  0  0  0  0  0  0  0  0  0  0
   -1.2496   -0.2064   -0.2010 C   0  0  0  0  0  0  0  0  0  0  0  0
   -1.7261   -0.3261    1.2090 C   0  0  0  0  0  0  0  0  0  0  0  0
   -2.1609   -0.7592   -1.0700 O   0  0  0  0  0  0  0  0  0  0  0  0
    0.0920   -0.9107   -0.2693 C   0  0  0  0  0  0  0  0  0  0  0  0
    0.3127   -2.0274   -0.6581 O   0  0  0  0  0  0  0  0  0  0  0  0
    2.6065   -1.1998   -0.3056 H   0  0  0  0  0  0  0  0  0  0  0  0
    2.6388    0.3816   -1.1461 H   0  0  0  0  0  0  0  0  0  0  0  0
    3.1701    0.2127    0.6095 H   0  0  0  0  0  0  0  0  0  0  0  0
    0.8925    0.1335    1.3580 H   0  0  0  0  0  0  0  0  0  0  0  0
    1.0709    2.2596   -0.4805 H   0  0  0  0  0  0  0  0  0  0  0  0
   -1.4496    1.9324   -1.0016 H   0  0  0  0  0  0  0  0  0  0  0  0
   -1.0696    0.2251    1.9087 H   0  0  0  0  0  0  0  0  0  0  0  0
   -2.7626    0.0500    1.3315 H   0  0  0  0  0  0  0  0  0  0  0  0
   -1.6410   -1.4123    1.4957 H   0  0  0  0  0  0  0  0  0  0  0  0
   -1.8262   -0.8842   -1.9878 H   0  0  0  0  0  0  0  0  0  0  0  0
  1  2  1  0
  2  3  1  0
  3  4  2  0
  4  5  1  0
  5  6  1  0
  5  7  1  0
  5  8  1  0
  8  9  2  0
  8  2  1  0
  1 10  1  0
  1 11  1  0
  1 12  1  0
  2 13  1  0
  3 14  1  0
  4 15  1  0
  6 16  1  0
  6 17  1  0
  6 18  1  0
  7 19  1  0
M  END
