
     RDKit          3D

 19 20  0  0  0  0  0  0  0  0999 V2000
   -2.2750   -0.1388    0.0367 C   0  0  0  0  0  0  0  0  0  0  0  0
   -0.8554    0.0105    0.4670 C   0  0  0  0  0  0  0  0  0  0  0  0
   -0.0412   -1.2598    0.4054 C   0  0  0  0  0  0  0  0  0  0  0  0
    0.8137   -0.6647   -0.6788 C   0  0  0  0  0  0  0  0  0  0  0  0
    2.2027   -0.3874   -0.2236 C   0  0  0  0  0  0  0  0  0  0  0  0
    3.0618   -1.2268    0.1519 O   0  0  0  0  0  0  0  0  0  0  0  0
    2.3284    1.0064   -0.3095 O   0  0  0  0  0  0  0  0  0  0  0  0
    1.0874    1.5818    0.1192 C   0  0  0  0  0  0  0  0  0  0  0  0
    0.0746    0.6557   -0.5047 C   0  0  0  0  0  0  0  0  0  0  0  0
   -2.4139   -0.1575   -1.0672 H   0  0  0  0  0  0  0  0  0  0  0  0
   -2.6761   -1.0658    0.4504 H   0  0  0  0  0  0  0  0  0  0  0  0
   -2.8355    0.7557    0.4020 H   0  0  0  0  0  0  0  0  0  0  0  0
   -0.7978    0.4843    1.4801 H   0  0  0  0  0  0  0  0  0  0  0  0
    0.5362   -1.4932    1.3133 H   0  0  0  0  0  0  0  0  0  0  0  0
   -0.6023   -2.1405    0.0584 H   0  0  0  0  0  0  0  0  0  0  0  0
    0.7038   -1.0800   -1.6787 H   0  0  0  0  0  0  0  0  0  0  0  0
    0.9974    2.6209   -0.2117 H   0  0  0  0  0  0  0  0  0  0  0  0
    1.0642    1.4662    1.2311 H   0  0  0  0  0  0  0  0  0  0  0  0
   -0.3729    1.0332   -1.4413 H   0  0  0  0  0  0  0  0  0  0  0  0
  1  2  1  0
  2  3  1  0
  3  4  1  0
  4  5  1  0
  5  6  2  0
  5  7  1  0
  7  8  1  0
  8  9  1  0
  9  2  1  0
  9  4  1  0
  1 10  1  0
  1 11  1  0
  1 12  1  0
  2 13  1  0
  3 14  1  0
  3 15  1  0
  4 16  1  0
  8 17  1  0
  8 18  1  0
  9 19  1  0
M  END
