
     RDKit          3D

 21 21  0  0  0  0  0  0  0  0999 V2000
    2.4696   -0.2494    0.5993 C   0  0  0  0  0  0  0  0  0  0  0  0
    0.9979   -0.1630    0.3553 C   0  0  0  0  0  0  0  0  0  0  0  0
    0.5479    1.1781   -0.1506 C   0  0  0  0  0  0  0  0  0  0  0  0
   -0.8889    1.1575   -0.5254 C   0  0  0  0  0  0  0  0  0  0  0  0
   -1.7673    0.3448    0.3594 C   0  0  0  0  0  0  0  0  0  0  0  0
   -1.9862   -1.0393   -0.2433 C   0  0  0  0  0  0  0  0  0  0  0  0
   -0.7828   -1.4842   -0.8907 O   0  0  0  0  0  0  0  0  0  0  0  0
    0.5280   -1.2387   -0.5569 C   0  0  0  0  0  0  0  0  0  0  0  0
    1.3759   -2.0004   -1.0795 O   0  0  0  0  0  0  0  0  0  0  0  0
    2.7264   -1.3490    0.6246 H   0  0  0  0  0  0  0  0  0  0  0  0
    2.6806    0.1592    1.6265 H   0  0  0  0  0  0  0  0  0  0  0  0
    3.0955    0.2563   -0.1318 H   0  0  0  0  0  0  0  0  0  0  0  0
    0.4947   -0.3340    1.3426 H   0  0  0  0  0  0  0  0  0  0  0  0
    0.8083    1.9515    0.5908 H   0  0  0  0  0  0  0  0  0  0  0  0
    1.1319    1.4482   -1.0779 H   0  0  0  0  0  0  0  0  0  0  0  0
   -0.9848    0.7644   -1.5767 H   0  0  0  0  0  0  0  0  0  0  0  0
   -1.2428    2.2180   -0.5931 H   0  0  0  0  0  0  0  0  0  0  0  0
   -1.4445    0.2959    1.4064 H   0  0  0  0  0  0  0  0  0  0  0  0
   -2.7830    0.8198    0.3759 H   0  0  0  0  0  0  0  0  0  0  0  0
   -2.7502   -0.9873   -1.0295 H   0  0  0  0  0  0  0  0  0  0  0  0
   -2.2263   -1.7483    0.5745 H   0  0  0  0  0  0  0  0  0  0  0  0
  1  2  1  0
  2  3  1  0
  3  4  1  0
  4  5  1  0
  5  6  1  0
  6  7  1  0
  7  8  1  0
  8  9  2  0
  8  2  1  0
  1 10  1  0
  1 11  1  0
  1 12  1  0
  2 13  1  0
  3 14  1  0
  3 15  1  0
  4 16  1  0
  4 17  1  0
  5 18  1  0
  5 19  1  0
  6 20  1  0
  6 21  1  0
M  END
