
     RDKit          3D

 20 20  0  0  0  0  0  0  0  0999 V2000
   -2.4801    0.0207    0.0626 C   0  0  0  0  0  0  0  0  0  0  0  0
   -1.0357    0.0399   -0.3816 C   0  0  0  0  0  0  0  0  0  0  0  0
   -0.4009    1.2693    0.0902 C   0  0  0  0  0  0  0  0  0  0  0  0
    0.9181    1.3892    0.0925 C   0  0  0  0  0  0  0  0  0  0  0  0
    1.7039    0.2331   -0.3992 C   0  0  0  0  0  0  0  0  0  0  0  0
    3.0451    0.3474   -0.0473 O   0  0  0  0  0  0  0  0  0  0  0  0
    1.1616   -1.0481    0.1830 C   0  0  0  0  0  0  0  0  0  0  0  0
   -0.3077   -1.2161   -0.0109 C   0  0  0  0  0  0  0  0  0  0  0  0
   -2.6139   -0.7439    0.8648 H   0  0  0  0  0  0  0  0  0  0  0  0
   -3.1788   -0.1718   -0.7636 H   0  0  0  0  0  0  0  0  0  0  0  0
   -2.7840    1.0065    0.5097 H   0  0  0  0  0  0  0  0  0  0  0  0
   -1.0681    0.1017   -1.5103 H   0  0  0  0  0  0  0  0  0  0  0  0
   -1.0207    2.0848    0.4383 H   0  0  0  0  0  0  0  0  0  0  0  0
    1.4215    2.3073    0.4438 H   0  0  0  0  0  0  0  0  0  0  0  0
    1.6126    0.1808   -1.5002 H   0  0  0  0  0  0  0  0  0  0  0  0
    3.1577    0.7796    0.8543 H   0  0  0  0  0  0  0  0  0  0  0  0
    1.4283   -1.1482    1.2654 H   0  0  0  0  0  0  0  0  0  0  0  0
    1.6919   -1.8823   -0.3233 H   0  0  0  0  0  0  0  0  0  0  0  0
   -0.7492   -1.5885    0.9361 H   0  0  0  0  0  0  0  0  0  0  0  0
   -0.5015   -1.9614   -0.8044 H   0  0  0  0  0  0  0  0  0  0  0  0
  1  2  1  0
  2  3  1  0
  3  4  2  0
  4  5  1  0
  5  6  1  0
  5  7  1  0
  7  8  1  0
  8  2  1  0
  1  9  1  0
  1 10  1  0
  1 11  1  0
  2 12  1  0
  3 13  1  0
  4 14  1  0
  5 15  1  0
  6 16  1  0
  7 17  1  0
  7 18  1  0
  8 19  1  0
  8 20  1  0
M  END
