
     RDKit          3D

 21 21  0  0  0  0  0  0  0  0999 V2000
   -2.2514   -0.6974    0.7328 C   0  0  0  0  0  0  0  0  0  0  0  0
   -1.1157   -0.6890   -0.2508 C   0  0  0  0  0  0  0  0  0  0  0  0
   -1.1968    0.3916   -1.3152 C   0  0  0  0  0  0  0  0  0  0  0  0
   -0.1352    0.4324   -0.3142 C   0  0  0  0  0  0  0  0  0  0  0  0
   -0.0769    1.3766    0.8294 C   0  0  0  0  0  0  0  0  0  0  0  0
    1.2417   -0.0311   -0.7438 C   0  0  0  0  0  0  0  0  0  0  0  0
    1.5727    0.1406   -1.8942 O   0  0  0  0  0  0  0  0  0  0  0  0
    2.2034   -0.7076    0.1552 C   0  0  0  0  0  0  0  0  0  0  0  0
    3.5167   -0.4718   -0.2558 O   0  0  0  0  0  0  0  0  0  0  0  0
   -2.1933    0.0858    1.5052 H   0  0  0  0  0  0  0  0  0  0  0  0
   -3.2036   -0.6396    0.1949 H   0  0  0  0  0  0  0  0  0  0  0  0
   -2.2948   -1.6651    1.3137 H   0  0  0  0  0  0  0  0  0  0  0  0
   -0.6938   -1.6800   -0.4347 H   0  0  0  0  0  0  0  0  0  0  0  0
   -1.0349   -0.0414   -2.3308 H   0  0  0  0  0  0  0  0  0  0  0  0
   -2.0716    1.0821   -1.2834 H   0  0  0  0  0  0  0  0  0  0  0  0
   -0.6148    1.1555    1.7409 H   0  0  0  0  0  0  0  0  0  0  0  0
   -0.4240    2.4023    0.4322 H   0  0  0  0  0  0  0  0  0  0  0  0
    0.9916    1.6426    1.1548 H   0  0  0  0  0  0  0  0  0  0  0  0
    2.0080   -0.7145    1.2216 H   0  0  0  0  0  0  0  0  0  0  0  0
    2.0355   -1.8466   -0.2213 H   0  0  0  0  0  0  0  0  0  0  0  0
    3.7371    0.4745   -0.2365 H   0  0  0  0  0  0  0  0  0  0  0  0
  1  2  1  0
  2  3  1  0
  3  4  1  0
  4  5  1  0
  4  6  1  0
  6  7  2  0
  6  8  1  0
  8  9  1  0
  4  2  1  0
  1 10  1  0
  1 11  1  0
  1 12  1  0
  2 13  1  0
  3 14  1  0
  3 15  1  0
  5 16  1  0
  5 17  1  0
  5 18  1  0
  8 19  1  0
  8 20  1  0
  9 21  1  0
M  END
