
     RDKit          3D

 19 20  0  0  0  0  0  0  0  0999 V2000
   -2.4535   -0.3899   -0.5855 C   0  0  0  0  0  0  0  0  0  0  0  0
   -1.1532    0.3357   -0.3706 C   0  0  0  0  0  0  0  0  0  0  0  0
   -0.4316   -0.0575    0.9245 C   0  0  0  0  0  0  0  0  0  0  0  0
    0.8008   -0.1742    0.1433 C   0  0  0  0  0  0  0  0  0  0  0  0
    1.8097    0.9302    0.1991 C   0  0  0  0  0  0  0  0  0  0  0  0
    2.7137   -0.2344    0.0410 C   0  0  0  0  0  0  0  0  0  0  0  0
    3.9010   -0.3772   -0.3271 O   0  0  0  0  0  0  0  0  0  0  0  0
    1.7457   -1.1355    0.4587 O   0  0  0  0  0  0  0  0  0  0  0  0
    0.0284   -0.3079   -1.1101 C   0  0  0  0  0  0  0  0  0  0  0  0
   -2.1905   -1.4447   -0.8680 H   0  0  0  0  0  0  0  0  0  0  0  0
   -2.9917    0.1249   -1.4038 H   0  0  0  0  0  0  0  0  0  0  0  0
   -3.0788   -0.3828    0.3190 H   0  0  0  0  0  0  0  0  0  0  0  0
   -1.2532    1.4114   -0.5281 H   0  0  0  0  0  0  0  0  0  0  0  0
   -0.8505   -1.0471    1.2542 H   0  0  0  0  0  0  0  0  0  0  0  0
   -0.4948    0.7228    1.7126 H   0  0  0  0  0  0  0  0  0  0  0  0
    1.8934    1.4722    1.1625 H   0  0  0  0  0  0  0  0  0  0  0  0
    1.7291    1.5930   -0.6927 H   0  0  0  0  0  0  0  0  0  0  0  0
   -0.1375   -1.3746   -1.3715 H   0  0  0  0  0  0  0  0  0  0  0  0
    0.4133    0.3356   -1.9082 H   0  0  0  0  0  0  0  0  0  0  0  0
  1  2  1  0
  2  3  1  0
  3  4  1  0
  4  5  1  0
  5  6  1  0
  6  7  2  0
  6  8  1  0
  4  9  1  0
  9  2  1  0
  8  4  1  0
  1 10  1  0
  1 11  1  0
  1 12  1  0
  2 13  1  0
  3 14  1  0
  3 15  1  0
  5 16  1  0
  5 17  1  0
  9 18  1  0
  9 19  1  0
M  END
