
     RDKit          3D

 23 24  0  0  0  0  0  0  0  0999 V2000
    2.6018   -0.0582   -0.8082 C   0  0  0  0  0  0  0  0  0  0  0  0
    1.3764    0.4677   -0.1500 C   0  0  0  0  0  0  0  0  0  0  0  0
    1.0434   -0.4169    1.0772 C   0  0  0  0  0  0  0  0  0  0  0  0
    1.7588    0.0167    2.1463 O   0  0  0  0  0  0  0  0  0  0  0  0
   -0.2918    0.2777    0.8479 C   0  0  0  0  0  0  0  0  0  0  0  0
    0.0749   -0.1973   -0.6252 C   0  0  0  0  0  0  0  0  0  0  0  0
   -1.2472    0.0378   -0.1670 C   0  0  0  0  0  0  0  0  0  0  0  0
   -2.2257   -1.1287    0.0822 C   0  0  0  0  0  0  0  0  0  0  0  0
   -2.0037    1.1955   -0.8439 C   0  0  0  0  0  0  0  0  0  0  0  0
    2.9016   -1.0755   -0.4278 H   0  0  0  0  0  0  0  0  0  0  0  0
    3.4460    0.6047   -0.6090 H   0  0  0  0  0  0  0  0  0  0  0  0
    2.3914   -0.1992   -1.8869 H   0  0  0  0  0  0  0  0  0  0  0  0
    1.2989    1.5310    0.0481 H   0  0  0  0  0  0  0  0  0  0  0  0
    1.0945   -1.4580    0.7836 H   0  0  0  0  0  0  0  0  0  0  0  0
    1.2555    0.0867    2.9906 H   0  0  0  0  0  0  0  0  0  0  0  0
   -0.0915    1.3866    1.0176 H   0  0  0  0  0  0  0  0  0  0  0  0
    0.3280   -1.3040   -0.6964 H   0  0  0  0  0  0  0  0  0  0  0  0
   -1.5561   -1.9938    0.3589 H   0  0  0  0  0  0  0  0  0  0  0  0
   -2.6610   -1.3607   -0.9079 H   0  0  0  0  0  0  0  0  0  0  0  0
   -2.9491   -0.8887    0.8585 H   0  0  0  0  0  0  0  0  0  0  0  0
   -2.3913    1.8920   -0.0957 H   0  0  0  0  0  0  0  0  0  0  0  0
   -1.3249    1.7599   -1.5222 H   0  0  0  0  0  0  0  0  0  0  0  0
   -2.8291    0.8246   -1.4705 H   0  0  0  0  0  0  0  0  0  0  0  0
  1  2  1  0
  2  3  1  0
  3  4  1  0
  3  5  1  0
  5  6  1  0
  6  7  1  0
  7  8  1  0
  7  9  1  0
  6  2  1  0
  7  5  1  0
  1 10  1  0
  1 11  1  0
  1 12  1  0
  2 13  1  0
  3 14  1  0
  4 15  1  0
  5 16  1  0
  6 17  1  0
  8 18  1  0
  8 19  1  0
  8 20  1  0
  9 21  1  0
  9 22  1  0
  9 23  1  0
M  END
