
     RDKit          3D

 19 21  0  0  0  0  0  0  0  0999 V2000
   -1.9957   -0.0949   -0.4506 C   0  0  0  0  0  0  0  0  0  0  0  0
   -0.9272    0.6339    0.3667 C   0  0  0  0  0  0  0  0  0  0  0  0
   -0.1101    1.4412   -0.5582 C   0  0  0  0  0  0  0  0  0  0  0  0
   -0.4898    2.3502   -1.2560 O   0  0  0  0  0  0  0  0  0  0  0  0
    1.2841    0.9426   -0.4890 C   0  0  0  0  0  0  0  0  0  0  0  0
    1.5184   -0.5213   -0.4386 C   0  0  0  0  0  0  0  0  0  0  0  0
    0.4460   -1.4642    0.0438 C   0  0  0  0  0  0  0  0  0  0  0  0
    0.0139   -0.3681    1.0063 C   0  0  0  0  0  0  0  0  0  0  0  0
    1.3521    0.2520    0.7994 C   0  0  0  0  0  0  0  0  0  0  0  0
   -1.5389   -0.2839   -1.4441 H   0  0  0  0  0  0  0  0  0  0  0  0
   -2.3285   -1.0026    0.0574 H   0  0  0  0  0  0  0  0  0  0  0  0
   -2.8051    0.6464   -0.6221 H   0  0  0  0  0  0  0  0  0  0  0  0
   -1.4250    1.2108    1.1497 H   0  0  0  0  0  0  0  0  0  0  0  0
    2.1101    1.5507   -0.8539 H   0  0  0  0  0  0  0  0  0  0  0  0
    2.4556   -0.9598   -0.7693 H   0  0  0  0  0  0  0  0  0  0  0  0
   -0.2887   -1.7313   -0.7175 H   0  0  0  0  0  0  0  0  0  0  0  0
    0.9105   -2.3022    0.6051 H   0  0  0  0  0  0  0  0  0  0  0  0
   -0.2685   -0.6884    2.0027 H   0  0  0  0  0  0  0  0  0  0  0  0
    2.0867    0.3887    1.5685 H   0  0  0  0  0  0  0  0  0  0  0  0
  1  2  1  0
  2  3  1  0
  3  4  2  0
  3  5  1  0
  5  6  1  0
  6  7  1  0
  7  8  1  0
  8  9  1  0
  8  2  1  0
  9  5  1  0
  9  6  1  0
  1 10  1  0
  1 11  1  0
  1 12  1  0
  2 13  1  0
  5 14  1  0
  6 15  1  0
  7 16  1  0
  7 17  1  0
  8 18  1  0
  9 19  1  0
M  END
