
     RDKit          3D

 23 25  0  0  0  0  0  0  0  0999 V2000
   -2.4774    0.4087    0.5803 C   0  0  0  0  0  0  0  0  0  0  0  0
   -1.1053    0.5958    0.0511 C   0  0  0  0  0  0  0  0  0  0  0  0
   -0.8519   -0.2336   -1.2247 C   0  0  0  0  0  0  0  0  0  0  0  0
    0.3836   -0.9876   -0.7704 C   0  0  0  0  0  0  0  0  0  0  0  0
   -0.1077   -1.4523    0.6098 C   0  0  0  0  0  0  0  0  0  0  0  0
   -0.0120    0.0542    0.9123 C   0  0  0  0  0  0  0  0  0  0  0  0
    1.1448    0.0309   -0.0280 C   0  0  0  0  0  0  0  0  0  0  0  0
    1.8383    1.1682   -0.5600 C   0  0  0  0  0  0  0  0  0  0  0  0
    2.5257    0.0701    0.3076 C   0  0  0  0  0  0  0  0  0  0  0  0
   -3.1669    0.2478   -0.2890 H   0  0  0  0  0  0  0  0  0  0  0  0
   -2.5933   -0.3847    1.3210 H   0  0  0  0  0  0  0  0  0  0  0  0
   -2.8107    1.3985    1.0106 H   0  0  0  0  0  0  0  0  0  0  0  0
   -0.8572    1.6628   -0.1795 H   0  0  0  0  0  0  0  0  0  0  0  0
   -0.6633    0.4183   -2.0904 H   0  0  0  0  0  0  0  0  0  0  0  0
   -1.7163   -0.9232   -1.3700 H   0  0  0  0  0  0  0  0  0  0  0  0
    0.8262   -1.7041   -1.4053 H   0  0  0  0  0  0  0  0  0  0  0  0
   -1.1123   -1.8599    0.6243 H   0  0  0  0  0  0  0  0  0  0  0  0
    0.7023   -2.0156    1.0868 H   0  0  0  0  0  0  0  0  0  0  0  0
    0.0967    0.3448    1.9213 H   0  0  0  0  0  0  0  0  0  0  0  0
    2.1794    1.1565   -1.6069 H   0  0  0  0  0  0  0  0  0  0  0  0
    1.7057    2.1538   -0.0601 H   0  0  0  0  0  0  0  0  0  0  0  0
    2.8176    0.4231    1.3389 H   0  0  0  0  0  0  0  0  0  0  0  0
    3.2539   -0.5726   -0.1797 H   0  0  0  0  0  0  0  0  0  0  0  0
  1  2  1  0
  2  3  1  0
  3  4  1  0
  4  5  1  0
  5  6  1  0
  6  7  1  0
  7  8  1  0
  8  9  1  0
  6  2  1  0
  9  7  1  0
  7  4  1  0
  1 10  1  0
  1 11  1  0
  1 12  1  0
  2 13  1  0
  3 14  1  0
  3 15  1  0
  4 16  1  0
  5 17  1  0
  5 18  1  0
  6 19  1  0
  8 20  1  0
  8 21  1  0
  9 22  1  0
  9 23  1  0
M  END
