
     RDKit          3D

 22 22  0  0  0  0  0  0  0  0999 V2000
    2.1082   -0.8588   -0.2621 C   0  0  0  0  0  0  0  0  0  0  0  0
    1.2011    0.2698    0.1619 C   0  0  0  0  0  0  0  0  0  0  0  0
    0.2484   -0.2121    1.2363 C   0  0  0  0  0  0  0  0  0  0  0  0
   -0.8833   -0.1795    0.2790 C   0  0  0  0  0  0  0  0  0  0  0  0
   -1.4241   -1.4927   -0.1973 C   0  0  0  0  0  0  0  0  0  0  0  0
   -1.9502    0.6204    0.7442 O   0  0  0  0  0  0  0  0  0  0  0  0
    0.0128    0.5177   -0.7209 C   0  0  0  0  0  0  0  0  0  0  0  0
   -0.3856    1.9902   -0.8263 C   0  0  0  0  0  0  0  0  0  0  0  0
    3.0200   -0.7903    0.3834 H   0  0  0  0  0  0  0  0  0  0  0  0
    1.6607   -1.8507   -0.0884 H   0  0  0  0  0  0  0  0  0  0  0  0
    2.3732   -0.8034   -1.3288 H   0  0  0  0  0  0  0  0  0  0  0  0
    1.7781    1.1815    0.4170 H   0  0  0  0  0  0  0  0  0  0  0  0
    0.1661    0.5766    2.0327 H   0  0  0  0  0  0  0  0  0  0  0  0
    0.5043   -1.1643    1.7150 H   0  0  0  0  0  0  0  0  0  0  0  0
   -2.1366   -1.8631    0.5729 H   0  0  0  0  0  0  0  0  0  0  0  0
   -2.0652   -1.2685   -1.0983 H   0  0  0  0  0  0  0  0  0  0  0  0
   -0.6770   -2.2161   -0.5107 H   0  0  0  0  0  0  0  0  0  0  0  0
   -2.0394    0.4433    1.6992 H   0  0  0  0  0  0  0  0  0  0  0  0
    0.0895    0.0056   -1.7115 H   0  0  0  0  0  0  0  0  0  0  0  0
   -0.4376    2.3212   -1.8745 H   0  0  0  0  0  0  0  0  0  0  0  0
    0.2623    2.6372   -0.2086 H   0  0  0  0  0  0  0  0  0  0  0  0
   -1.4258    2.1360   -0.4144 H   0  0  0  0  0  0  0  0  0  0  0  0
  1  2  1  0
  2  3  1  0
  3  4  1  0
  4  5  1  0
  4  6  1  0
  4  7  1  0
  7  8  1  0
  7  2  1  0
  1  9  1  0
  1 10  1  0
  1 11  1  0
  2 12  1  0
  3 13  1  0
  3 14  1  0
  5 15  1  0
  5 16  1  0
  5 17  1  0
  6 18  1  0
  7 19  1  0
  8 20  1  0
  8 21  1  0
  8 22  1  0
M  END
