
     RDKit          3D

 21 22  0  0  0  0  0  0  0  0999 V2000
   -2.4191    0.8604    0.4274 C   0  0  0  0  0  0  0  0  0  0  0  0
   -1.4413    0.1002   -0.4063 C   0  0  0  0  0  0  0  0  0  0  0  0
   -1.1903   -1.3083    0.1189 C   0  0  0  0  0  0  0  0  0  0  0  0
   -0.4978   -1.0285    1.3005 O   0  0  0  0  0  0  0  0  0  0  0  0
    0.4382   -0.0758    0.9858 C   0  0  0  0  0  0  0  0  0  0  0  0
    1.5439   -0.5565    0.0851 C   0  0  0  0  0  0  0  0  0  0  0  0
    2.8621    0.1585    0.2306 C   0  0  0  0  0  0  0  0  0  0  0  0
    0.8488   -0.0307   -1.0085 O   0  0  0  0  0  0  0  0  0  0  0  0
   -0.0395    0.6795   -0.2207 C   0  0  0  0  0  0  0  0  0  0  0  0
   -2.1664    0.7242    1.4895 H   0  0  0  0  0  0  0  0  0  0  0  0
   -3.4426    0.4776    0.1703 H   0  0  0  0  0  0  0  0  0  0  0  0
   -2.3231    1.9380    0.1869 H   0  0  0  0  0  0  0  0  0  0  0  0
   -1.6714    0.1214   -1.4748 H   0  0  0  0  0  0  0  0  0  0  0  0
   -2.0961   -1.8786    0.2810 H   0  0  0  0  0  0  0  0  0  0  0  0
   -0.4754   -1.7848   -0.5705 H   0  0  0  0  0  0  0  0  0  0  0  0
    0.7388    0.6130    1.7976 H   0  0  0  0  0  0  0  0  0  0  0  0
    1.5958   -1.6636    0.1204 H   0  0  0  0  0  0  0  0  0  0  0  0
    3.0501    0.8856   -0.6003 H   0  0  0  0  0  0  0  0  0  0  0  0
    3.6586   -0.6206    0.1074 H   0  0  0  0  0  0  0  0  0  0  0  0
    2.9938    0.6311    1.2042 H   0  0  0  0  0  0  0  0  0  0  0  0
    0.0329    1.7578   -0.2109 H   0  0  0  0  0  0  0  0  0  0  0  0
  1  2  1  0
  2  3  1  0
  3  4  1  0
  4  5  1  0
  5  6  1  0
  6  7  1  0
  6  8  1  0
  8  9  1  0
  9  2  1  0
  9  5  1  0
  1 10  1  0
  1 11  1  0
  1 12  1  0
  2 13  1  0
  3 14  1  0
  3 15  1  0
  5 16  1  0
  6 17  1  0
  7 18  1  0
  7 19  1  0
  7 20  1  0
  9 21  1  0
M  END
