
     RDKit          3D

 21 22  0  0  0  0  0  0  0  0999 V2000
    2.0411    0.5937    0.1891 C   0  0  0  0  0  0  0  0  0  0  0  0
    0.9457   -0.0343   -0.6171 C   0  0  0  0  0  0  0  0  0  0  0  0
    0.5195   -1.3011    0.0718 C   0  0  0  0  0  0  0  0  0  0  0  0
   -0.9028   -1.4848   -0.3358 C   0  0  0  0  0  0  0  0  0  0  0  0
   -1.4335   -0.0982   -0.4516 C   0  0  0  0  0  0  0  0  0  0  0  0
   -1.4746    0.5695    0.9225 C   0  0  0  0  0  0  0  0  0  0  0  0
   -0.6397    1.6523    0.3873 C   0  0  0  0  0  0  0  0  0  0  0  0
   -0.3673    2.7772    0.7477 O   0  0  0  0  0  0  0  0  0  0  0  0
   -0.2706    0.8192   -0.7592 C   0  0  0  0  0  0  0  0  0  0  0  0
    2.6527   -0.2497    0.6129 H   0  0  0  0  0  0  0  0  0  0  0  0
    1.6902    1.1691    1.0603 H   0  0  0  0  0  0  0  0  0  0  0  0
    2.7589    1.1811   -0.4349 H   0  0  0  0  0  0  0  0  0  0  0  0
    1.3516   -0.2765   -1.6211 H   0  0  0  0  0  0  0  0  0  0  0  0
    1.1113   -2.1723   -0.2664 H   0  0  0  0  0  0  0  0  0  0  0  0
    0.6547   -1.1863    1.1572 H   0  0  0  0  0  0  0  0  0  0  0  0
   -1.4356   -1.9961    0.5046 H   0  0  0  0  0  0  0  0  0  0  0  0
   -1.0326   -2.0952   -1.2471 H   0  0  0  0  0  0  0  0  0  0  0  0
   -2.3268    0.0542   -1.0674 H   0  0  0  0  0  0  0  0  0  0  0  0
   -0.9761   -0.0192    1.7189 H   0  0  0  0  0  0  0  0  0  0  0  0
   -2.5074    0.8106    1.1820 H   0  0  0  0  0  0  0  0  0  0  0  0
   -0.3587    1.2869   -1.7537 H   0  0  0  0  0  0  0  0  0  0  0  0
  1  2  1  0
  2  3  1  0
  3  4  1  0
  4  5  1  0
  5  6  1  0
  6  7  1  0
  7  8  2  0
  7  9  1  0
  9  2  1  0
  9  5  1  0
  1 10  1  0
  1 11  1  0
  1 12  1  0
  2 13  1  0
  3 14  1  0
  3 15  1  0
  4 16  1  0
  4 17  1  0
  5 18  1  0
  6 19  1  0
  6 20  1  0
  9 21  1  0
M  END
