
     RDKit          3D

 23 23  0  0  0  0  0  0  0  0999 V2000
    1.9100   -1.2649    0.7775 C   0  0  0  0  0  0  0  0  0  0  0  0
    0.7797   -0.2904    0.6159 C   0  0  0  0  0  0  0  0  0  0  0  0
    1.1110    0.9170   -0.2717 C   0  0  0  0  0  0  0  0  0  0  0  0
    1.4128    2.0671    0.4036 O   0  0  0  0  0  0  0  0  0  0  0  0
   -0.3529    0.8071   -0.7302 C   0  0  0  0  0  0  0  0  0  0  0  0
   -1.2460    1.5626    0.1976 C   0  0  0  0  0  0  0  0  0  0  0  0
   -0.1977   -0.6648   -0.4791 C   0  0  0  0  0  0  0  0  0  0  0  0
   -1.4147   -1.4031   -0.0208 C   0  0  0  0  0  0  0  0  0  0  0  0
   -2.2169   -1.6811   -1.1148 O   0  0  0  0  0  0  0  0  0  0  0  0
    1.5440   -2.3080    0.6666 H   0  0  0  0  0  0  0  0  0  0  0  0
    2.3747   -1.1037    1.7834 H   0  0  0  0  0  0  0  0  0  0  0  0
    2.6386   -1.0723   -0.0244 H   0  0  0  0  0  0  0  0  0  0  0  0
    0.2786    0.0492    1.5250 H   0  0  0  0  0  0  0  0  0  0  0  0
    1.7871    0.6320   -1.1133 H   0  0  0  0  0  0  0  0  0  0  0  0
    1.9436    2.6475   -0.2061 H   0  0  0  0  0  0  0  0  0  0  0  0
   -0.4460    1.0542   -1.8041 H   0  0  0  0  0  0  0  0  0  0  0  0
   -1.4663    1.0252    1.1220 H   0  0  0  0  0  0  0  0  0  0  0  0
   -0.8388    2.5562    0.4893 H   0  0  0  0  0  0  0  0  0  0  0  0
   -2.2461    1.7809   -0.2781 H   0  0  0  0  0  0  0  0  0  0  0  0
    0.2859   -1.1516   -1.3310 H   0  0  0  0  0  0  0  0  0  0  0  0
   -1.0485   -2.3925    0.3848 H   0  0  0  0  0  0  0  0  0  0  0  0
   -1.9459   -0.9316    0.8088 H   0  0  0  0  0  0  0  0  0  0  0  0
   -2.6460   -0.8351   -1.4008 H   0  0  0  0  0  0  0  0  0  0  0  0
  1  2  1  0
  2  3  1  0
  3  4  1  0
  3  5  1  0
  5  6  1  0
  5  7  1  0
  7  8  1  0
  8  9  1  0
  7  2  1  0
  1 10  1  0
  1 11  1  0
  1 12  1  0
  2 13  1  0
  3 14  1  0
  4 15  1  0
  5 16  1  0
  6 17  1  0
  6 18  1  0
  6 19  1  0
  7 20  1  0
  8 21  1  0
  8 22  1  0
  9 23  1  0
M  END
