
     RDKit          3D

 21 22  0  0  0  0  0  0  0  0999 V2000
   -1.9557    0.5000   -0.9204 C   0  0  0  0  0  0  0  0  0  0  0  0
   -1.1290    0.0783    0.2283 C   0  0  0  0  0  0  0  0  0  0  0  0
   -0.0494    1.1167    0.5926 C   0  0  0  0  0  0  0  0  0  0  0  0
    0.1005    1.9523   -0.5173 O   0  0  0  0  0  0  0  0  0  0  0  0
    1.1363    0.2050    0.6626 C   0  0  0  0  0  0  0  0  0  0  0  0
    0.5899   -1.0810    1.2837 C   0  0  0  0  0  0  0  0  0  0  0  0
   -0.2518   -1.1023   -0.0026 C   0  0  0  0  0  0  0  0  0  0  0  0
    1.0173   -0.5516   -0.6580 C   0  0  0  0  0  0  0  0  0  0  0  0
    1.9845   -1.5243   -0.7236 O   0  0  0  0  0  0  0  0  0  0  0  0
   -1.9117    1.6149   -1.0923 H   0  0  0  0  0  0  0  0  0  0  0  0
   -3.0340    0.3199   -0.6411 H   0  0  0  0  0  0  0  0  0  0  0  0
   -1.7913   -0.0594   -1.8541 H   0  0  0  0  0  0  0  0  0  0  0  0
   -1.7072   -0.0756    1.1804 H   0  0  0  0  0  0  0  0  0  0  0  0
   -0.2850    1.6435    1.5141 H   0  0  0  0  0  0  0  0  0  0  0  0
    0.9355    2.4751   -0.3970 H   0  0  0  0  0  0  0  0  0  0  0  0
    2.0828    0.5515    0.9668 H   0  0  0  0  0  0  0  0  0  0  0  0
   -0.0741   -0.9494    2.1326 H   0  0  0  0  0  0  0  0  0  0  0  0
    1.3315   -1.8808    1.3147 H   0  0  0  0  0  0  0  0  0  0  0  0
   -0.6278   -2.0309   -0.3318 H   0  0  0  0  0  0  0  0  0  0  0  0
    0.8502    0.0640   -1.5378 H   0  0  0  0  0  0  0  0  0  0  0  0
    2.7883   -1.2659   -1.1998 H   0  0  0  0  0  0  0  0  0  0  0  0
  1  2  1  0
  2  3  1  0
  3  4  1  0
  3  5  1  0
  5  6  1  0
  6  7  1  0
  7  8  1  0
  8  9  1  0
  7  2  1  0
  8  5  1  0
  1 10  1  0
  1 11  1  0
  1 12  1  0
  2 13  1  0
  3 14  1  0
  4 15  1  0
  5 16  1  0
  6 17  1  0
  6 18  1  0
  7 19  1  0
  8 20  1  0
  9 21  1  0
M  END
