
     RDKit          3D

 21 22  0  0  0  0  0  0  0  0999 V2000
   -2.9872   -0.0599    0.1944 C   0  0  0  0  0  0  0  0  0  0  0  0
   -1.5101   -0.3334    0.3386 C   0  0  0  0  0  0  0  0  0  0  0  0
   -0.6973    0.7474    0.8954 C   0  0  0  0  0  0  0  0  0  0  0  0
    0.7792    0.6627    1.0775 C   0  0  0  0  0  0  0  0  0  0  0  0
    0.9213   -0.0597   -0.2424 C   0  0  0  0  0  0  0  0  0  0  0  0
    1.1347   -1.4097   -0.0054 O   0  0  0  0  0  0  0  0  0  0  0  0
    1.9348    0.5410   -1.1664 C   0  0  0  0  0  0  0  0  0  0  0  0
    3.1931    0.3911   -0.5882 O   0  0  0  0  0  0  0  0  0  0  0  0
   -0.5162    0.3002   -0.5395 C   0  0  0  0  0  0  0  0  0  0  0  0
   -3.5494   -0.9487   -0.1550 H   0  0  0  0  0  0  0  0  0  0  0  0
   -3.4130    0.2120    1.1988 H   0  0  0  0  0  0  0  0  0  0  0  0
   -3.1276    0.7976   -0.4830 H   0  0  0  0  0  0  0  0  0  0  0  0
   -1.3027   -1.3965    0.6259 H   0  0  0  0  0  0  0  0  0  0  0  0
   -1.1563    1.7406    1.0909 H   0  0  0  0  0  0  0  0  0  0  0  0
    1.3439    1.6025    1.0481 H   0  0  0  0  0  0  0  0  0  0  0  0
    1.1332    0.0702    1.9670 H   0  0  0  0  0  0  0  0  0  0  0  0
    1.7711   -1.7506   -0.6793 H   0  0  0  0  0  0  0  0  0  0  0  0
    1.9414   -0.1011   -2.0939 H   0  0  0  0  0  0  0  0  0  0  0  0
    1.7280    1.5783   -1.4388 H   0  0  0  0  0  0  0  0  0  0  0  0
    3.1350   -0.0723    0.2823 H   0  0  0  0  0  0  0  0  0  0  0  0
   -0.7558    1.0178   -1.3271 H   0  0  0  0  0  0  0  0  0  0  0  0
  1  2  1  0
  2  3  1  0
  3  4  1  0
  4  5  1  0
  5  6  1  0
  5  7  1  0
  7  8  1  0
  5  9  1  0
  9  2  1  0
  9  3  1  0
  1 10  1  0
  1 11  1  0
  1 12  1  0
  2 13  1  0
  3 14  1  0
  4 15  1  0
  4 16  1  0
  6 17  1  0
  7 18  1  0
  7 19  1  0
  8 20  1  0
  9 21  1  0
M  END
