
     RDKit          3D

 19 21  0  0  0  0  0  0  0  0999 V2000
    2.2931    0.7171    0.4854 C   0  0  0  0  0  0  0  0  0  0  0  0
    0.8786    0.3874    0.1701 C   0  0  0  0  0  0  0  0  0  0  0  0
    0.6183   -1.1198    0.1323 C   0  0  0  0  0  0  0  0  0  0  0  0
   -0.7400   -1.2767   -0.5581 C   0  0  0  0  0  0  0  0  0  0  0  0
   -0.7745   -0.3546   -1.6226 O   0  0  0  0  0  0  0  0  0  0  0  0
   -1.5139    0.5625   -0.9283 C   0  0  0  0  0  0  0  0  0  0  0  0
   -1.2881    0.8874    0.4872 C   0  0  0  0  0  0  0  0  0  0  0  0
   -0.0407    0.9178    1.0685 O   0  0  0  0  0  0  0  0  0  0  0  0
   -1.7844   -0.4512    0.1200 C   0  0  0  0  0  0  0  0  0  0  0  0
    2.3326    1.3461    1.4137 H   0  0  0  0  0  0  0  0  0  0  0  0
    2.7811    1.3220   -0.3255 H   0  0  0  0  0  0  0  0  0  0  0  0
    2.9174   -0.1687    0.6514 H   0  0  0  0  0  0  0  0  0  0  0  0
    0.5834    0.8197   -0.8316 H   0  0  0  0  0  0  0  0  0  0  0  0
    1.3872   -1.6630   -0.4263 H   0  0  0  0  0  0  0  0  0  0  0  0
    0.4755   -1.4643    1.1641 H   0  0  0  0  0  0  0  0  0  0  0  0
   -1.0229   -2.2956   -0.8063 H   0  0  0  0  0  0  0  0  0  0  0  0
   -2.2945    1.0877   -1.4734 H   0  0  0  0  0  0  0  0  0  0  0  0
   -2.0232    1.5637    0.9562 H   0  0  0  0  0  0  0  0  0  0  0  0
   -2.7849   -0.8176    0.3232 H   0  0  0  0  0  0  0  0  0  0  0  0
  1  2  1  0
  2  3  1  0
  3  4  1  0
  4  5  1  0
  5  6  1  0
  6  7  1  0
  7  8  1  0
  7  9  1  0
  8  2  1  0
  9  4  1  0
  9  6  1  0
  1 10  1  0
  1 11  1  0
  1 12  1  0
  2 13  1  0
  3 14  1  0
  3 15  1  0
  4 16  1  0
  6 17  1  0
  7 18  1  0
  9 19  1  0
M  END
