
     RDKit          3D

 23 24  0  0  0  0  0  0  0  0999 V2000
    2.5564    0.0084    0.1934 C   0  0  0  0  0  0  0  0  0  0  0  0
    1.0790    0.0777   -0.1585 C   0  0  0  0  0  0  0  0  0  0  0  0
    0.4428   -1.2693   -0.2694 C   0  0  0  0  0  0  0  0  0  0  0  0
   -0.8493   -1.1045   -1.0536 C   0  0  0  0  0  0  0  0  0  0  0  0
   -1.9333   -0.5689   -0.2032 C   0  0  0  0  0  0  0  0  0  0  0  0
   -1.5413    0.5210    0.7354 C   0  0  0  0  0  0  0  0  0  0  0  0
   -0.7791    1.6387    0.1273 C   0  0  0  0  0  0  0  0  0  0  0  0
    0.3754    0.9733    0.8214 C   0  0  0  0  0  0  0  0  0  0  0  0
   -0.5102    0.2157    1.5844 O   0  0  0  0  0  0  0  0  0  0  0  0
    2.6574   -0.0476    1.3051 H   0  0  0  0  0  0  0  0  0  0  0  0
    2.9888    0.9873   -0.1529 H   0  0  0  0  0  0  0  0  0  0  0  0
    3.0596   -0.8544   -0.3105 H   0  0  0  0  0  0  0  0  0  0  0  0
    0.9922    0.5684   -1.1609 H   0  0  0  0  0  0  0  0  0  0  0  0
    1.1467   -1.9245   -0.8415 H   0  0  0  0  0  0  0  0  0  0  0  0
    0.2729   -1.7775    0.6928 H   0  0  0  0  0  0  0  0  0  0  0  0
   -0.6044   -0.4872   -1.9413 H   0  0  0  0  0  0  0  0  0  0  0  0
   -1.1291   -2.1574   -1.3537 H   0  0  0  0  0  0  0  0  0  0  0  0
   -2.3272   -1.4176    0.4267 H   0  0  0  0  0  0  0  0  0  0  0  0
   -2.7906   -0.2253   -0.7998 H   0  0  0  0  0  0  0  0  0  0  0  0
   -2.4281    0.8972    1.2840 H   0  0  0  0  0  0  0  0  0  0  0  0
   -0.7393    1.6842   -0.9702 H   0  0  0  0  0  0  0  0  0  0  0  0
   -0.9811    2.6266    0.6361 H   0  0  0  0  0  0  0  0  0  0  0  0
    1.0418    1.6355    1.4091 H   0  0  0  0  0  0  0  0  0  0  0  0
  1  2  1  0
  2  3  1  0
  3  4  1  0
  4  5  1  0
  5  6  1  0
  6  7  1  0
  7  8  1  0
  8  9  1  0
  8  2  1  0
  9  6  1  0
  1 10  1  0
  1 11  1  0
  1 12  1  0
  2 13  1  0
  3 14  1  0
  3 15  1  0
  4 16  1  0
  4 17  1  0
  5 18  1  0
  5 19  1  0
  6 20  1  0
  7 21  1  0
  7 22  1  0
  8 23  1  0
M  END
