
     RDKit          3D

 19 21  0  0  0  0  0  0  0  0999 V2000
    2.1080   -0.5945    0.6442 C   0  0  0  0  0  0  0  0  0  0  0  0
    1.1386   -0.3065   -0.5095 C   0  0  0  0  0  0  0  0  0  0  0  0
    0.8344    1.1428   -0.7538 C   0  0  0  0  0  0  0  0  0  0  0  0
    1.4778    2.1328   -0.0435 O   0  0  0  0  0  0  0  0  0  0  0  0
   -0.1317    0.3053   -0.1138 C   0  0  0  0  0  0  0  0  0  0  0  0
   -0.5432    0.3046    1.1733 O   0  0  0  0  0  0  0  0  0  0  0  0
   -1.8197   -0.1204    0.8338 C   0  0  0  0  0  0  0  0  0  0  0  0
   -2.0193   -1.3419   -0.0106 C   0  0  0  0  0  0  0  0  0  0  0  0
   -1.4577   -0.0952   -0.6270 C   0  0  0  0  0  0  0  0  0  0  0  0
    3.1200   -0.5932    0.2036 H   0  0  0  0  0  0  0  0  0  0  0  0
    1.8277   -1.5399    1.1264 H   0  0  0  0  0  0  0  0  0  0  0  0
    2.0153    0.2495    1.3680 H   0  0  0  0  0  0  0  0  0  0  0  0
    1.1019   -1.0409   -1.3324 H   0  0  0  0  0  0  0  0  0  0  0  0
    0.6718    1.3782   -1.8467 H   0  0  0  0  0  0  0  0  0  0  0  0
    0.8245    2.8850    0.0645 H   0  0  0  0  0  0  0  0  0  0  0  0
   -2.6990    0.4330    1.2047 H   0  0  0  0  0  0  0  0  0  0  0  0
   -3.0616   -1.5521   -0.2737 H   0  0  0  0  0  0  0  0  0  0  0  0
   -1.3308   -2.1805    0.1888 H   0  0  0  0  0  0  0  0  0  0  0  0
   -2.0570    0.5338   -1.2964 H   0  0  0  0  0  0  0  0  0  0  0  0
  1  2  1  0
  2  3  1  0
  3  4  1  0
  3  5  1  0
  5  6  1  0
  6  7  1  0
  7  8  1  0
  8  9  1  0
  5  2  1  0
  9  7  1  0
  9  5  1  0
  1 10  1  0
  1 11  1  0
  1 12  1  0
  2 13  1  0
  3 14  1  0
  4 15  1  0
  7 16  1  0
  8 17  1  0
  8 18  1  0
  9 19  1  0
M  END
