
     RDKit          3D

 17 18  0  0  0  0  0  0  0  0999 V2000
    2.2587   -0.0016   -0.4111 C   0  0  0  0  0  0  0  0  0  0  0  0
    1.0195    0.7064    0.1365 C   0  0  0  0  0  0  0  0  0  0  0  0
    0.0665   -0.0603    0.8087 C   0  0  0  0  0  0  0  0  0  0  0  0
   -0.8260   -1.1982    0.4502 C   0  0  0  0  0  0  0  0  0  0  0  0
   -2.0797   -0.4182    0.1260 C   0  0  0  0  0  0  0  0  0  0  0  0
   -3.2757   -0.7982    0.1820 O   0  0  0  0  0  0  0  0  0  0  0  0
   -1.5852    0.9204   -0.2808 C   0  0  0  0  0  0  0  0  0  0  0  0
   -2.2451    1.9837   -0.3370 O   0  0  0  0  0  0  0  0  0  0  0  0
   -0.1811    0.6593   -0.5820 C   0  0  0  0  0  0  0  0  0  0  0  0
    3.0517   -0.0649    0.3346 H   0  0  0  0  0  0  0  0  0  0  0  0
    2.0276   -0.9877   -0.8309 H   0  0  0  0  0  0  0  0  0  0  0  0
    2.6350    0.6836   -1.2230 H   0  0  0  0  0  0  0  0  0  0  0  0
    1.3336    1.7100    0.5513 H   0  0  0  0  0  0  0  0  0  0  0  0
   -0.4120    0.4499    1.7059 H   0  0  0  0  0  0  0  0  0  0  0  0
   -1.0710   -1.8299    1.3158 H   0  0  0  0  0  0  0  0  0  0  0  0
   -0.5584   -1.7272   -0.4596 H   0  0  0  0  0  0  0  0  0  0  0  0
   -0.1586   -0.0272   -1.4868 H   0  0  0  0  0  0  0  0  0  0  0  0
  1  2  1  0
  2  3  1  0
  3  4  1  0
  4  5  1  0
  5  6  2  0
  5  7  1  0
  7  8  2  0
  7  9  1  0
  9  2  1  0
  9  3  1  0
  1 10  1  0
  1 11  1  0
  1 12  1  0
  2 13  1  0
  3 14  1  0
  4 15  1  0
  4 16  1  0
  9 17  1  0
M  END
