
     RDKit          3D

 17 18  0  0  0  0  0  0  0  0999 V2000
    2.9912   -0.0185   -0.0647 C   0  0  0  0  0  0  0  0  0  0  0  0
    1.4974    0.0828   -0.0343 C   0  0  0  0  0  0  0  0  0  0  0  0
    0.6626   -0.9967    0.1290 C   0  0  0  0  0  0  0  0  0  0  0  0
   -0.6362   -0.5425    0.1084 C   0  0  0  0  0  0  0  0  0  0  0  0
   -0.5267    0.8329   -0.0720 C   0  0  0  0  0  0  0  0  0  0  0  0
    0.7424    1.1355   -0.1479 O   0  0  0  0  0  0  0  0  0  0  0  0
   -1.9405    1.3184   -0.0934 C   0  0  0  0  0  0  0  0  0  0  0  0
   -2.6381    0.3651    0.6802 O   0  0  0  0  0  0  0  0  0  0  0  0
   -2.0901   -0.8436    0.1895 C   0  0  0  0  0  0  0  0  0  0  0  0
    3.4371    0.9794    0.0245 H   0  0  0  0  0  0  0  0  0  0  0  0
    3.3340   -0.6483    0.7896 H   0  0  0  0  0  0  0  0  0  0  0  0
    3.2601   -0.5436   -1.0055 H   0  0  0  0  0  0  0  0  0  0  0  0
    0.9496   -2.0231    0.2529 H   0  0  0  0  0  0  0  0  0  0  0  0
   -2.2664    1.2726   -1.1484 H   0  0  0  0  0  0  0  0  0  0  0  0
   -2.0207    2.3344    0.3490 H   0  0  0  0  0  0  0  0  0  0  0  0
   -2.3023   -1.6821    0.8695 H   0  0  0  0  0  0  0  0  0  0  0  0
   -2.4534   -1.0227   -0.8265 H   0  0  0  0  0  0  0  0  0  0  0  0
  1  2  1  0
  2  3  2  0
  3  4  1  0
  4  5  2  0
  5  6  1  0
  5  7  1  0
  7  8  1  0
  8  9  1  0
  6  2  1  0
  9  4  1  0
  1 10  1  0
  1 11  1  0
  1 12  1  0
  3 13  1  0
  7 14  1  0
  7 15  1  0
  9 16  1  0
  9 17  1  0
M  END
