
     RDKit          3D

 23 24  0  0  0  0  0  0  0  0999 V2000
    2.3681    1.2642   -0.0200 C   0  0  0  0  0  0  0  0  0  0  0  0
    1.2099    0.3456    0.3205 C   0  0  0  0  0  0  0  0  0  0  0  0
    1.4994   -1.1718    0.1910 C   0  0  0  0  0  0  0  0  0  0  0  0
    0.6020   -0.4910   -0.7408 C   0  0  0  0  0  0  0  0  0  0  0  0
   -0.8792   -0.7337   -0.7853 C   0  0  0  0  0  0  0  0  0  0  0  0
   -1.5890    0.6182   -0.9262 C   0  0  0  0  0  0  0  0  0  0  0  0
   -1.7641    1.0216    0.4786 C   0  0  0  0  0  0  0  0  0  0  0  0
   -1.6885   -0.0378    1.2887 C   0  0  0  0  0  0  0  0  0  0  0  0
   -1.4549   -1.2474    0.4886 C   0  0  0  0  0  0  0  0  0  0  0  0
    2.1689    1.6774   -1.0480 H   0  0  0  0  0  0  0  0  0  0  0  0
    3.3325    0.7345   -0.0420 H   0  0  0  0  0  0  0  0  0  0  0  0
    2.4017    2.1469    0.6455 H   0  0  0  0  0  0  0  0  0  0  0  0
    0.6859    0.6227    1.2414 H   0  0  0  0  0  0  0  0  0  0  0  0
    1.1694   -1.8071    1.0259 H   0  0  0  0  0  0  0  0  0  0  0  0
    2.5446   -1.4160   -0.1346 H   0  0  0  0  0  0  0  0  0  0  0  0
    1.0275   -0.3016   -1.7696 H   0  0  0  0  0  0  0  0  0  0  0  0
   -1.1090   -1.3377   -1.6698 H   0  0  0  0  0  0  0  0  0  0  0  0
   -2.5413    0.4158   -1.4529 H   0  0  0  0  0  0  0  0  0  0  0  0
   -0.9378    1.3168   -1.4746 H   0  0  0  0  0  0  0  0  0  0  0  0
   -1.9312    2.0489    0.7914 H   0  0  0  0  0  0  0  0  0  0  0  0
   -1.7906    0.0429    2.3555 H   0  0  0  0  0  0  0  0  0  0  0  0
   -2.4658   -1.6872    0.2460 H   0  0  0  0  0  0  0  0  0  0  0  0
   -0.8585   -2.0241    0.9907 H   0  0  0  0  0  0  0  0  0  0  0  0
  1  2  1  0
  2  3  1  0
  3  4  1  0
  4  5  1  0
  5  6  1  0
  6  7  1  0
  7  8  2  0
  8  9  1  0
  4  2  1  0
  9  5  1  0
  1 10  1  0
  1 11  1  0
  1 12  1  0
  2 13  1  0
  3 14  1  0
  3 15  1  0
  4 16  1  0
  5 17  1  0
  6 18  1  0
  6 19  1  0
  7 20  1  0
  8 21  1  0
  9 22  1  0
  9 23  1  0
M  END
