
     RDKit          3D

 19 19  0  0  0  0  0  0  0  0999 V2000
   -2.1136   -0.7357   -0.2942 C   0  0  0  0  0  0  0  0  0  0  0  0
   -0.7893   -0.0881   -0.5194 C   0  0  0  0  0  0  0  0  0  0  0  0
    0.3437   -0.5802    0.4045 C   0  0  0  0  0  0  0  0  0  0  0  0
    1.4993   -1.0986   -0.3591 C   0  0  0  0  0  0  0  0  0  0  0  0
    2.1047   -0.2036   -1.2133 O   0  0  0  0  0  0  0  0  0  0  0  0
   -0.1450    0.7714    0.5495 C   0  0  0  0  0  0  0  0  0  0  0  0
   -1.0580    0.9621    1.6404 O   0  0  0  0  0  0  0  0  0  0  0  0
    0.4884    2.0174    0.1314 C   0  0  0  0  0  0  0  0  0  0  0  0
    1.2761    2.1299   -0.7764 O   0  0  0  0  0  0  0  0  0  0  0  0
   -1.9426   -1.8465   -0.2990 H   0  0  0  0  0  0  0  0  0  0  0  0
   -2.8293   -0.5309   -1.0881 H   0  0  0  0  0  0  0  0  0  0  0  0
   -2.4902   -0.5046    0.7317 H   0  0  0  0  0  0  0  0  0  0  0  0
   -0.5437    0.1579   -1.5623 H   0  0  0  0  0  0  0  0  0  0  0  0
   -0.0015   -1.3140    1.2154 H   0  0  0  0  0  0  0  0  0  0  0  0
    2.2643   -1.5609    0.3440 H   0  0  0  0  0  0  0  0  0  0  0  0
    1.2167   -1.9958   -0.9961 H   0  0  0  0  0  0  0  0  0  0  0  0
    3.0277    0.0024   -0.9163 H   0  0  0  0  0  0  0  0  0  0  0  0
   -0.5826    1.4405    2.3619 H   0  0  0  0  0  0  0  0  0  0  0  0
    0.2747    2.9772    0.6452 H   0  0  0  0  0  0  0  0  0  0  0  0
  1  2  1  0
  2  3  1  0
  3  4  1  0
  4  5  1  0
  3  6  1  0
  6  7  1  0
  6  8  1  0
  8  9  2  0
  6  2  1  0
  1 10  1  0
  1 11  1  0
  1 12  1  0
  2 13  1  0
  3 14  1  0
  4 15  1  0
  4 16  1  0
  5 17  1  0
  7 18  1  0
  8 19  1  0
M  END
