
     RDKit          3D

 19 20  0  0  0  0  0  0  0  0999 V2000
   -1.8056    0.9876   -0.0319 C   0  0  0  0  0  0  0  0  0  0  0  0
   -0.8268   -0.0575   -0.4653 C   0  0  0  0  0  0  0  0  0  0  0  0
   -0.7744   -1.3098    0.3717 C   0  0  0  0  0  0  0  0  0  0  0  0
    0.6208   -1.4724   -0.2071 C   0  0  0  0  0  0  0  0  0  0  0  0
    0.5248   -0.0115    0.1719 C   0  0  0  0  0  0  0  0  0  0  0  0
    1.5054    0.9308    0.0599 C   0  0  0  0  0  0  0  0  0  0  0  0
    1.9599    1.1005   -1.2737 O   0  0  0  0  0  0  0  0  0  0  0  0
   -0.1458   -0.5030    1.3930 C   0  0  0  0  0  0  0  0  0  0  0  0
   -0.1080   -0.2755    2.5752 O   0  0  0  0  0  0  0  0  0  0  0  0
   -2.6662    0.9524   -0.7527 H   0  0  0  0  0  0  0  0  0  0  0  0
   -1.3923    2.0149   -0.1058 H   0  0  0  0  0  0  0  0  0  0  0  0
   -2.2204    0.8184    0.9816 H   0  0  0  0  0  0  0  0  0  0  0  0
   -0.8254   -0.3086   -1.5429 H   0  0  0  0  0  0  0  0  0  0  0  0
   -1.4694   -2.0272    0.4256 H   0  0  0  0  0  0  0  0  0  0  0  0
    1.3097   -2.0849    0.3636 H   0  0  0  0  0  0  0  0  0  0  0  0
    0.5807   -1.6060   -1.2971 H   0  0  0  0  0  0  0  0  0  0  0  0
    1.2327    1.9615    0.3714 H   0  0  0  0  0  0  0  0  0  0  0  0
    2.4403    0.6988    0.6300 H   0  0  0  0  0  0  0  0  0  0  0  0
    2.0602    0.1914   -1.6674 H   0  0  0  0  0  0  0  0  0  0  0  0
  1  2  1  0
  2  3  1  0
  3  4  1  0
  4  5  1  0
  5  6  1  0
  6  7  1  0
  5  8  1  0
  8  9  2  0
  5  2  1  0
  8  3  1  0
  1 10  1  0
  1 11  1  0
  1 12  1  0
  2 13  1  0
  3 14  1  0
  4 15  1  0
  4 16  1  0
  6 17  1  0
  6 18  1  0
  7 19  1  0
M  END
