
     RDKit          3D

 22 22  0  0  0  0  0  0  0  0999 V2000
   -2.6573   -0.5739   -0.2164 C   0  0  0  0  0  0  0  0  0  0  0  0
   -1.6081    0.4439    0.0506 C   0  0  0  0  0  0  0  0  0  0  0  0
   -0.6421    0.0876    1.1918 C   0  0  0  0  0  0  0  0  0  0  0  0
    0.4038    0.8042    0.3611 C   0  0  0  0  0  0  0  0  0  0  0  0
    1.8010    0.2817    0.4846 C   0  0  0  0  0  0  0  0  0  0  0  0
    1.9462   -1.1452    0.0812 C   0  0  0  0  0  0  0  0  0  0  0  0
    2.6132    1.0518   -0.3459 O   0  0  0  0  0  0  0  0  0  0  0  0
   -0.3688    0.3450   -0.8528 C   0  0  0  0  0  0  0  0  0  0  0  0
   -3.6455   -0.0347   -0.2934 H   0  0  0  0  0  0  0  0  0  0  0  0
   -2.4985   -1.0058   -1.2329 H   0  0  0  0  0  0  0  0  0  0  0  0
   -2.7030   -1.3837    0.5306 H   0  0  0  0  0  0  0  0  0  0  0  0
   -1.9585    1.4798    0.1829 H   0  0  0  0  0  0  0  0  0  0  0  0
   -0.9032    0.6283    2.1353 H   0  0  0  0  0  0  0  0  0  0  0  0
   -0.4956   -0.9953    1.3002 H   0  0  0  0  0  0  0  0  0  0  0  0
    0.2896    1.8979    0.4867 H   0  0  0  0  0  0  0  0  0  0  0  0
    2.1529    0.3768    1.5325 H   0  0  0  0  0  0  0  0  0  0  0  0
    1.1242   -1.8017    0.3582 H   0  0  0  0  0  0  0  0  0  0  0  0
    2.1365   -1.2739   -1.0150 H   0  0  0  0  0  0  0  0  0  0  0  0
    2.8727   -1.5432    0.5790 H   0  0  0  0  0  0  0  0  0  0  0  0
    2.8025    1.9484    0.0435 H   0  0  0  0  0  0  0  0  0  0  0  0
   -0.2198   -0.6954   -1.1495 H   0  0  0  0  0  0  0  0  0  0  0  0
   -0.4421    1.1075   -1.6282 H   0  0  0  0  0  0  0  0  0  0  0  0
  1  2  1  0
  2  3  1  0
  3  4  1  0
  4  5  1  0
  5  6  1  0
  5  7  1  0
  4  8  1  0
  8  2  1  0
  1  9  1  0
  1 10  1  0
  1 11  1  0
  2 12  1  0
  3 13  1  0
  3 14  1  0
  4 15  1  0
  5 16  1  0
  6 17  1  0
  6 18  1  0
  6 19  1  0
  7 20  1  0
  8 21  1  0
  8 22  1  0
M  END
