
     RDKit          3D

 23 24  0  0  0  0  0  0  0  0999 V2000
    2.5067    0.2058   -0.1181 C   0  0  0  0  0  0  0  0  0  0  0  0
    1.0392    0.2971    0.3146 C   0  0  0  0  0  0  0  0  0  0  0  0
    0.5572   -1.1295    0.4603 C   0  0  0  0  0  0  0  0  0  0  0  0
   -0.9414   -1.1435    0.6062 C   0  0  0  0  0  0  0  0  0  0  0  0
   -1.3931   -0.0438    1.5332 C   0  0  0  0  0  0  0  0  0  0  0  0
   -1.5558    1.0787    0.8388 C   0  0  0  0  0  0  0  0  0  0  0  0
   -1.1954    0.8202   -0.5837 C   0  0  0  0  0  0  0  0  0  0  0  0
    0.2961    0.9645   -0.7929 C   0  0  0  0  0  0  0  0  0  0  0  0
   -1.5703   -0.6647   -0.6991 C   0  0  0  0  0  0  0  0  0  0  0  0
    2.9338    1.1851   -0.3292 H   0  0  0  0  0  0  0  0  0  0  0  0
    2.5370   -0.4074   -1.0494 H   0  0  0  0  0  0  0  0  0  0  0  0
    3.1108   -0.3461    0.6274 H   0  0  0  0  0  0  0  0  0  0  0  0
    1.0376    0.8462    1.2658 H   0  0  0  0  0  0  0  0  0  0  0  0
    1.0511   -1.6810    1.2635 H   0  0  0  0  0  0  0  0  0  0  0  0
    0.8316   -1.6395   -0.5096 H   0  0  0  0  0  0  0  0  0  0  0  0
   -1.3480   -2.1103    0.8901 H   0  0  0  0  0  0  0  0  0  0  0  0
   -1.5422   -0.2155    2.5954 H   0  0  0  0  0  0  0  0  0  0  0  0
   -1.8987    2.0017    1.2929 H   0  0  0  0  0  0  0  0  0  0  0  0
   -1.8032    1.3599   -1.3023 H   0  0  0  0  0  0  0  0  0  0  0  0
    0.5776    0.4708   -1.7444 H   0  0  0  0  0  0  0  0  0  0  0  0
    0.5586    2.0260   -0.8474 H   0  0  0  0  0  0  0  0  0  0  0  0
   -1.1231   -1.1290   -1.5808 H   0  0  0  0  0  0  0  0  0  0  0  0
   -2.6662   -0.7456   -0.6356 H   0  0  0  0  0  0  0  0  0  0  0  0
  1  2  1  0
  2  3  1  0
  3  4  1  0
  4  5  1  0
  5  6  2  0
  6  7  1  0
  7  8  1  0
  7  9  1  0
  8  2  1  0
  9  4  1  0
  1 10  1  0
  1 11  1  0
  1 12  1  0
  2 13  1  0
  3 14  1  0
  3 15  1  0
  4 16  1  0
  5 17  1  0
  6 18  1  0
  7 19  1  0
  8 20  1  0
  8 21  1  0
  9 22  1  0
  9 23  1  0
M  END
