
     RDKit          3D

 19 19  0  0  0  0  0  0  0  0999 V2000
    1.7827    0.4652   -0.8083 C   0  0  0  0  0  0  0  0  0  0  0  0
    0.6874   -0.4313   -0.3616 C   0  0  0  0  0  0  0  0  0  0  0  0
    0.8709   -0.8569    1.0854 C   0  0  0  0  0  0  0  0  0  0  0  0
   -0.4700   -0.3371    1.4366 C   0  0  0  0  0  0  0  0  0  0  0  0
   -1.1209   -0.3343    2.4647 O   0  0  0  0  0  0  0  0  0  0  0  0
   -0.6102    0.1380    0.0268 C   0  0  0  0  0  0  0  0  0  0  0  0
   -1.7891   -0.6078   -0.6106 C   0  0  0  0  0  0  0  0  0  0  0  0
   -0.8186    1.5790   -0.0138 C   0  0  0  0  0  0  0  0  0  0  0  0
   -1.9535    1.9965    0.1138 O   0  0  0  0  0  0  0  0  0  0  0  0
    1.4564    1.4417   -1.2087 H   0  0  0  0  0  0  0  0  0  0  0  0
    2.3527   -0.0221   -1.6533 H   0  0  0  0  0  0  0  0  0  0  0  0
    2.5651    0.5868   -0.0024 H   0  0  0  0  0  0  0  0  0  0  0  0
    0.5899   -1.3544   -1.0050 H   0  0  0  0  0  0  0  0  0  0  0  0
    1.6436   -0.2765    1.6374 H   0  0  0  0  0  0  0  0  0  0  0  0
    1.0383   -1.9296    1.2361 H   0  0  0  0  0  0  0  0  0  0  0  0
   -1.4778   -1.6586   -0.7652 H   0  0  0  0  0  0  0  0  0  0  0  0
   -2.6276   -0.6296    0.1068 H   0  0  0  0  0  0  0  0  0  0  0  0
   -2.0703   -0.0896   -1.5302 H   0  0  0  0  0  0  0  0  0  0  0  0
   -0.0488    2.3206   -0.1485 H   0  0  0  0  0  0  0  0  0  0  0  0
  1  2  1  0
  2  3  1  0
  3  4  1  0
  4  5  2  0
  4  6  1  0
  6  7  1  0
  6  8  1  0
  8  9  2  0
  6  2  1  0
  1 10  1  0
  1 11  1  0
  1 12  1  0
  2 13  1  0
  3 14  1  0
  3 15  1  0
  7 16  1  0
  7 17  1  0
  7 18  1  0
  8 19  1  0
M  END
