
     RDKit          3D

 22 22  0  0  0  0  0  0  0  0999 V2000
    2.5282    0.6044    0.0609 C   0  0  0  0  0  0  0  0  0  0  0  0
    1.0616    0.2197    0.3043 C   0  0  0  0  0  0  0  0  0  0  0  0
    0.9775   -1.2699    0.1205 C   0  0  0  0  0  0  0  0  0  0  0  0
   -0.4305   -1.7394    0.0096 C   0  0  0  0  0  0  0  0  0  0  0  0
   -1.4515   -0.6681   -0.0982 C   0  0  0  0  0  0  0  0  0  0  0  0
   -1.0100    0.6184   -0.6525 C   0  0  0  0  0  0  0  0  0  0  0  0
   -1.7695    1.7477    0.0564 C   0  0  0  0  0  0  0  0  0  0  0  0
    0.3123    0.9131   -0.5983 O   0  0  0  0  0  0  0  0  0  0  0  0
    2.5565    1.7198    0.0875 H   0  0  0  0  0  0  0  0  0  0  0  0
    3.1836    0.2244    0.8649 H   0  0  0  0  0  0  0  0  0  0  0  0
    2.8707    0.2778   -0.9368 H   0  0  0  0  0  0  0  0  0  0  0  0
    0.8669    0.4794    1.3648 H   0  0  0  0  0  0  0  0  0  0  0  0
    1.5024   -1.7325    0.9914 H   0  0  0  0  0  0  0  0  0  0  0  0
    1.5675   -1.5955   -0.7757 H   0  0  0  0  0  0  0  0  0  0  0  0
   -0.5125   -2.4631   -0.8512 H   0  0  0  0  0  0  0  0  0  0  0  0
   -0.6657   -2.3776    0.9119 H   0  0  0  0  0  0  0  0  0  0  0  0
   -1.9306   -0.5107    0.9124 H   0  0  0  0  0  0  0  0  0  0  0  0
   -2.2979   -1.0732   -0.7271 H   0  0  0  0  0  0  0  0  0  0  0  0
   -1.3364    0.7020   -1.7307 H   0  0  0  0  0  0  0  0  0  0  0  0
   -2.8478    1.5456   -0.1639 H   0  0  0  0  0  0  0  0  0  0  0  0
   -1.6826    1.6441    1.1679 H   0  0  0  0  0  0  0  0  0  0  0  0
   -1.4924    2.7335   -0.3180 H   0  0  0  0  0  0  0  0  0  0  0  0
  1  2  1  0
  2  3  1  0
  3  4  1  0
  4  5  1  0
  5  6  1  0
  6  7  1  0
  6  8  1  0
  8  2  1  0
  1  9  1  0
  1 10  1  0
  1 11  1  0
  2 12  1  0
  3 13  1  0
  3 14  1  0
  4 15  1  0
  4 16  1  0
  5 17  1  0
  5 18  1  0
  6 19  1  0
  7 20  1  0
  7 21  1  0
  7 22  1  0
M  END
