
     RDKit          3D

 21 22  0  0  0  0  0  0  0  0999 V2000
    2.0310    0.2125   -0.4280 C   0  0  0  0  0  0  0  0  0  0  0  0
    1.2519   -0.0540    0.8437 C   0  0  0  0  0  0  0  0  0  0  0  0
    0.6901   -1.4421    0.8054 C   0  0  0  0  0  0  0  0  0  0  0  0
   -0.3478   -1.7191    0.0336 C   0  0  0  0  0  0  0  0  0  0  0  0
   -0.9794   -0.6880   -0.8037 C   0  0  0  0  0  0  0  0  0  0  0  0
   -2.1522    0.0128   -0.2038 C   0  0  0  0  0  0  0  0  0  0  0  0
   -0.8111    0.6985   -0.3526 C   0  0  0  0  0  0  0  0  0  0  0  0
   -0.8316    1.7222   -1.3097 O   0  0  0  0  0  0  0  0  0  0  0  0
    0.0563    0.9036    0.8415 C   0  0  0  0  0  0  0  0  0  0  0  0
    1.6569    1.1232   -0.9626 H   0  0  0  0  0  0  0  0  0  0  0  0
    3.0974    0.4215   -0.1861 H   0  0  0  0  0  0  0  0  0  0  0  0
    2.0006   -0.6677   -1.0961 H   0  0  0  0  0  0  0  0  0  0  0  0
    1.8594    0.1009    1.7306 H   0  0  0  0  0  0  0  0  0  0  0  0
    1.0986   -2.2541    1.3916 H   0  0  0  0  0  0  0  0  0  0  0  0
   -0.7507   -2.7261    0.0096 H   0  0  0  0  0  0  0  0  0  0  0  0
   -1.0324   -0.9298   -1.8940 H   0  0  0  0  0  0  0  0  0  0  0  0
   -2.9750    0.2502   -0.8845 H   0  0  0  0  0  0  0  0  0  0  0  0
   -2.4336   -0.1901    0.8460 H   0  0  0  0  0  0  0  0  0  0  0  0
   -1.4351    2.4470   -0.9765 H   0  0  0  0  0  0  0  0  0  0  0  0
    0.5035    1.9254    0.8001 H   0  0  0  0  0  0  0  0  0  0  0  0
   -0.4967    0.8532    1.7954 H   0  0  0  0  0  0  0  0  0  0  0  0
  1  2  1  0
  2  3  1  0
  3  4  2  0
  4  5  1  0
  5  6  1  0
  6  7  1  0
  7  8  1  0
  7  9  1  0
  9  2  1  0
  7  5  1  0
  1 10  1  0
  1 11  1  0
  1 12  1  0
  2 13  1  0
  3 14  1  0
  4 15  1  0
  5 16  1  0
  6 17  1  0
  6 18  1  0
  8 19  1  0
  9 20  1  0
  9 21  1  0
M  END
