
     RDKit          3D

 21 22  0  0  0  0  0  0  0  0999 V2000
   -2.4397    0.6771   -0.3796 C   0  0  0  0  0  0  0  0  0  0  0  0
   -1.6917   -0.3499    0.4757 C   0  0  0  0  0  0  0  0  0  0  0  0
   -0.6651    0.3045    1.3264 C   0  0  0  0  0  0  0  0  0  0  0  0
    0.5251    0.1405    0.7725 C   0  0  0  0  0  0  0  0  0  0  0  0
    1.9955    0.4366    0.9205 C   0  0  0  0  0  0  0  0  0  0  0  0
    2.4364    0.4470   -0.5205 C   0  0  0  0  0  0  0  0  0  0  0  0
    1.4921   -0.4565   -1.2094 C   0  0  0  0  0  0  0  0  0  0  0  0
    0.4243   -0.6116   -0.4585 C   0  0  0  0  0  0  0  0  0  0  0  0
   -0.9164   -1.2978   -0.3833 C   0  0  0  0  0  0  0  0  0  0  0  0
   -1.8014    1.5541   -0.6111 H   0  0  0  0  0  0  0  0  0  0  0  0
   -3.2981    1.0719    0.2384 H   0  0  0  0  0  0  0  0  0  0  0  0
   -2.7766    0.2073   -1.3088 H   0  0  0  0  0  0  0  0  0  0  0  0
   -2.4403   -0.8519    1.1179 H   0  0  0  0  0  0  0  0  0  0  0  0
   -0.8964    0.8220    2.2444 H   0  0  0  0  0  0  0  0  0  0  0  0
    2.1638    1.4382    1.3351 H   0  0  0  0  0  0  0  0  0  0  0  0
    2.4496   -0.3862    1.4760 H   0  0  0  0  0  0  0  0  0  0  0  0
    3.4599   -0.0272   -0.5696 H   0  0  0  0  0  0  0  0  0  0  0  0
    2.4782    1.4524   -0.9646 H   0  0  0  0  0  0  0  0  0  0  0  0
    1.6472   -0.9355   -2.2032 H   0  0  0  0  0  0  0  0  0  0  0  0
   -0.8392   -2.2746    0.1112 H   0  0  0  0  0  0  0  0  0  0  0  0
   -1.3074   -1.3604   -1.4095 H   0  0  0  0  0  0  0  0  0  0  0  0
  1  2  1  0
  2  3  1  0
  3  4  2  0
  4  5  1  0
  5  6  1  0
  6  7  1  0
  7  8  2  0
  8  9  1  0
  9  2  1  0
  8  4  1  0
  1 10  1  0
  1 11  1  0
  1 12  1  0
  2 13  1  0
  3 14  1  0
  5 15  1  0
  5 16  1  0
  6 17  1  0
  6 18  1  0
  7 19  1  0
  9 20  1  0
  9 21  1  0
M  END
