
     RDKit          3D

 23 23  0  0  0  0  0  0  0  0999 V2000
    1.6650    1.5610   -0.1143 C   0  0  0  0  0  0  0  0  0  0  0  0
    1.1649    0.2511    0.3966 C   0  0  0  0  0  0  0  0  0  0  0  0
    2.0509   -0.9532    0.0535 C   0  0  0  0  0  0  0  0  0  0  0  0
    0.7413   -1.7451   -0.0643 C   0  0  0  0  0  0  0  0  0  0  0  0
    0.0945   -0.4173   -0.4634 C   0  0  0  0  0  0  0  0  0  0  0  0
   -1.2861   -0.2990    0.0994 C   0  0  0  0  0  0  0  0  0  0  0  0
   -2.1539   -0.9545   -0.7916 O   0  0  0  0  0  0  0  0  0  0  0  0
   -1.7452    1.1388    0.1601 C   0  0  0  0  0  0  0  0  0  0  0  0
   -3.0548    1.1465    0.6184 O   0  0  0  0  0  0  0  0  0  0  0  0
    2.7834    1.6098   -0.0592 H   0  0  0  0  0  0  0  0  0  0  0  0
    1.3031    2.3525    0.5965 H   0  0  0  0  0  0  0  0  0  0  0  0
    1.3537    1.7753   -1.1580 H   0  0  0  0  0  0  0  0  0  0  0  0
    0.8270    0.2393    1.4538 H   0  0  0  0  0  0  0  0  0  0  0  0
    2.6776   -1.3135    0.8690 H   0  0  0  0  0  0  0  0  0  0  0  0
    2.5426   -0.7910   -0.9262 H   0  0  0  0  0  0  0  0  0  0  0  0
    0.7420   -2.5098   -0.8407 H   0  0  0  0  0  0  0  0  0  0  0  0
    0.4593   -2.0758    0.9606 H   0  0  0  0  0  0  0  0  0  0  0  0
    0.2149   -0.2770   -1.5458 H   0  0  0  0  0  0  0  0  0  0  0  0
   -1.3175   -0.7174    1.1058 H   0  0  0  0  0  0  0  0  0  0  0  0
   -2.7582   -1.5742   -0.2750 H   0  0  0  0  0  0  0  0  0  0  0  0
   -1.1343    1.7144    0.8800 H   0  0  0  0  0  0  0  0  0  0  0  0
   -1.6910    1.5700   -0.8735 H   0  0  0  0  0  0  0  0  0  0  0  0
   -3.4791    0.2694    0.5859 H   0  0  0  0  0  0  0  0  0  0  0  0
  1  2  1  0
  2  3  1  0
  3  4  1  0
  4  5  1  0
  5  6  1  0
  6  7  1  0
  6  8  1  0
  8  9  1  0
  5  2  1  0
  1 10  1  0
  1 11  1  0
  1 12  1  0
  2 13  1  0
  3 14  1  0
  3 15  1  0
  4 16  1  0
  4 17  1  0
  5 18  1  0
  6 19  1  0
  7 20  1  0
  8 21  1  0
  8 22  1  0
  9 23  1  0
M  END
