
     RDKit          3D

 23 23  0  0  0  0  0  0  0  0999 V2000
   -2.3125   -0.8261    0.2082 C   0  0  0  0  0  0  0  0  0  0  0  0
   -1.1527    0.1064    0.4371 C   0  0  0  0  0  0  0  0  0  0  0  0
    0.0647   -0.7848    0.6923 C   0  0  0  0  0  0  0  0  0  0  0  0
    1.2095    0.1559    0.4929 C   0  0  0  0  0  0  0  0  0  0  0  0
    2.3902   -0.6343   -0.0447 C   0  0  0  0  0  0  0  0  0  0  0  0
    0.7235    1.1974   -0.4697 C   0  0  0  0  0  0  0  0  0  0  0  0
    0.7495    2.4376    0.1918 O   0  0  0  0  0  0  0  0  0  0  0  0
   -0.7343    0.8634   -0.7738 C   0  0  0  0  0  0  0  0  0  0  0  0
   -0.8756    0.1716   -1.9606 O   0  0  0  0  0  0  0  0  0  0  0  0
   -2.6002   -1.2172    1.2290 H   0  0  0  0  0  0  0  0  0  0  0  0
   -3.1681   -0.3464   -0.2678 H   0  0  0  0  0  0  0  0  0  0  0  0
   -1.9511   -1.7407   -0.3345 H   0  0  0  0  0  0  0  0  0  0  0  0
   -1.3697    0.7702    1.2766 H   0  0  0  0  0  0  0  0  0  0  0  0
    0.0729   -1.5067   -0.1708 H   0  0  0  0  0  0  0  0  0  0  0  0
    0.0200   -1.2700    1.6625 H   0  0  0  0  0  0  0  0  0  0  0  0
    1.5175    0.5743    1.4758 H   0  0  0  0  0  0  0  0  0  0  0  0
    2.0592   -1.6499   -0.3787 H   0  0  0  0  0  0  0  0  0  0  0  0
    3.1628   -0.8083    0.7488 H   0  0  0  0  0  0  0  0  0  0  0  0
    2.8829   -0.1159   -0.9012 H   0  0  0  0  0  0  0  0  0  0  0  0
    1.3353    1.2583   -1.3890 H   0  0  0  0  0  0  0  0  0  0  0  0
    0.2100    2.3373    1.0275 H   0  0  0  0  0  0  0  0  0  0  0  0
   -1.2813    1.8271   -0.8928 H   0  0  0  0  0  0  0  0  0  0  0  0
   -0.9527   -0.7992   -1.8590 H   0  0  0  0  0  0  0  0  0  0  0  0
  1  2  1  0
  2  3  1  0
  3  4  1  0
  4  5  1  0
  4  6  1  0
  6  7  1  0
  6  8  1  0
  8  9  1  0
  8  2  1  0
  1 10  1  0
  1 11  1  0
  1 12  1  0
  2 13  1  0
  3 14  1  0
  3 15  1  0
  4 16  1  0
  5 17  1  0
  5 18  1  0
  5 19  1  0
  6 20  1  0
  7 21  1  0
  8 22  1  0
  9 23  1  0
M  END
