
     RDKit          3D

 25 25  0  0  0  0  0  0  0  0999 V2000
    2.4821   -0.2761   -0.3803 C   0  0  0  0  0  0  0  0  0  0  0  0
    1.2726    0.0947    0.4349 C   0  0  0  0  0  0  0  0  0  0  0  0
    0.4784   -1.1268    0.7901 C   0  0  0  0  0  0  0  0  0  0  0  0
   -0.7560   -0.4162    0.2202 C   0  0  0  0  0  0  0  0  0  0  0  0
   -1.4194   -1.3038   -0.8410 C   0  0  0  0  0  0  0  0  0  0  0  0
   -1.6956   -0.0828    1.3091 C   0  0  0  0  0  0  0  0  0  0  0  0
    0.0996    0.6163   -0.3745 C   0  0  0  0  0  0  0  0  0  0  0  0
   -0.1872    2.0497   -0.1586 C   0  0  0  0  0  0  0  0  0  0  0  0
    0.3589    0.3729   -1.7441 O   0  0  0  0  0  0  0  0  0  0  0  0
    3.2239   -0.7145    0.3168 H   0  0  0  0  0  0  0  0  0  0  0  0
    2.9326    0.5988   -0.8921 H   0  0  0  0  0  0  0  0  0  0  0  0
    2.1718   -1.0604   -1.0956 H   0  0  0  0  0  0  0  0  0  0  0  0
    1.4947    0.7707    1.2868 H   0  0  0  0  0  0  0  0  0  0  0  0
    0.7428   -2.0610    0.2698 H   0  0  0  0  0  0  0  0  0  0  0  0
    0.4585   -1.2701    1.8795 H   0  0  0  0  0  0  0  0  0  0  0  0
   -0.8687   -2.2448   -0.9631 H   0  0  0  0  0  0  0  0  0  0  0  0
   -1.3792   -0.7660   -1.8247 H   0  0  0  0  0  0  0  0  0  0  0  0
   -2.4942   -1.4431   -0.6088 H   0  0  0  0  0  0  0  0  0  0  0  0
   -2.2449    0.8481    1.2222 H   0  0  0  0  0  0  0  0  0  0  0  0
   -2.4710   -0.9035    1.3662 H   0  0  0  0  0  0  0  0  0  0  0  0
   -1.2173   -0.1069    2.3325 H   0  0  0  0  0  0  0  0  0  0  0  0
    0.5943    2.5266    0.5031 H   0  0  0  0  0  0  0  0  0  0  0  0
   -0.1262    2.6564   -1.1106 H   0  0  0  0  0  0  0  0  0  0  0  0
   -1.1496    2.2948    0.2900 H   0  0  0  0  0  0  0  0  0  0  0  0
   -0.3011    0.9470   -2.2279 H   0  0  0  0  0  0  0  0  0  0  0  0
  1  2  1  0
  2  3  1  0
  3  4  1  0
  4  5  1  0
  4  6  1  0
  4  7  1  0
  7  8  1  0
  7  9  1  0
  7  2  1  0
  1 10  1  0
  1 11  1  0
  1 12  1  0
  2 13  1  0
  3 14  1  0
  3 15  1  0
  5 16  1  0
  5 17  1  0
  5 18  1  0
  6 19  1  0
  6 20  1  0
  6 21  1  0
  8 22  1  0
  8 23  1  0
  8 24  1  0
  9 25  1  0
M  END
