
     RDKit          3D

 23 24  0  0  0  0  0  0  0  0999 V2000
    2.7753   -0.0655    0.3310 C   0  0  0  0  0  0  0  0  0  0  0  0
    1.4420    0.0982   -0.3407 C   0  0  0  0  0  0  0  0  0  0  0  0
    0.5734    1.1332    0.3409 C   0  0  0  0  0  0  0  0  0  0  0  0
   -0.8119    0.7064   -0.1268 C   0  0  0  0  0  0  0  0  0  0  0  0
   -1.9010    1.6861    0.0871 C   0  0  0  0  0  0  0  0  0  0  0  0
   -0.8376    0.1734   -1.4956 O   0  0  0  0  0  0  0  0  0  0  0  0
   -0.7980   -0.6456   -0.2968 C   0  0  0  0  0  0  0  0  0  0  0  0
   -1.8786   -1.6569   -0.1345 C   0  0  0  0  0  0  0  0  0  0  0  0
    0.6191   -1.1593   -0.1233 C   0  0  0  0  0  0  0  0  0  0  0  0
    2.5617   -0.3104    1.4070 H   0  0  0  0  0  0  0  0  0  0  0  0
    3.3964    0.8335    0.2609 H   0  0  0  0  0  0  0  0  0  0  0  0
    3.3065   -0.8876   -0.1865 H   0  0  0  0  0  0  0  0  0  0  0  0
    1.5078    0.3616   -1.3947 H   0  0  0  0  0  0  0  0  0  0  0  0
    0.8203    2.1591    0.0910 H   0  0  0  0  0  0  0  0  0  0  0  0
    0.6583    0.9116    1.4438 H   0  0  0  0  0  0  0  0  0  0  0  0
   -2.6701    1.3811    0.8215 H   0  0  0  0  0  0  0  0  0  0  0  0
   -2.4646    1.9611   -0.8428 H   0  0  0  0  0  0  0  0  0  0  0  0
   -1.4821    2.6689    0.4506 H   0  0  0  0  0  0  0  0  0  0  0  0
   -1.4579   -2.6031    0.3157 H   0  0  0  0  0  0  0  0  0  0  0  0
   -2.6445   -1.3229    0.6255 H   0  0  0  0  0  0  0  0  0  0  0  0
   -2.3641   -1.9549   -1.0851 H   0  0  0  0  0  0  0  0  0  0  0  0
    0.8010   -1.6330    0.8368 H   0  0  0  0  0  0  0  0  0  0  0  0
    0.8486   -1.8348   -0.9849 H   0  0  0  0  0  0  0  0  0  0  0  0
  1  2  1  0
  2  3  1  0
  3  4  1  0
  4  5  1  0
  4  6  1  0
  6  7  1  0
  7  8  1  0
  7  9  1  0
  9  2  1  0
  7  4  1  0
  1 10  1  0
  1 11  1  0
  1 12  1  0
  2 13  1  0
  3 14  1  0
  3 15  1  0
  5 16  1  0
  5 17  1  0
  5 18  1  0
  8 19  1  0
  8 20  1  0
  8 21  1  0
  9 22  1  0
  9 23  1  0
M  END
