
     RDKit          3D

 21 22  0  0  0  0  0  0  0  0999 V2000
   -2.2515    1.0482    0.3541 C   0  0  0  0  0  0  0  0  0  0  0  0
   -1.2553    0.2672   -0.5074 C   0  0  0  0  0  0  0  0  0  0  0  0
   -0.0305    1.0556   -0.7538 C   0  0  0  0  0  0  0  0  0  0  0  0
    1.1780    0.6794   -0.4041 C   0  0  0  0  0  0  0  0  0  0  0  0
    2.6438    0.7381   -0.2453 C   0  0  0  0  0  0  0  0  0  0  0  0
    2.6082   -0.6746   -0.4334 O   0  0  0  0  0  0  0  0  0  0  0  0
    1.4353   -0.6168    0.3079 C   0  0  0  0  0  0  0  0  0  0  0  0
    0.3620   -1.6191   -0.0146 C   0  0  0  0  0  0  0  0  0  0  0  0
   -1.0226   -1.0426    0.1564 C   0  0  0  0  0  0  0  0  0  0  0  0
   -1.7557    1.2636    1.3115 H   0  0  0  0  0  0  0  0  0  0  0  0
   -3.0720    0.3237    0.5745 H   0  0  0  0  0  0  0  0  0  0  0  0
   -2.6331    1.9331   -0.1710 H   0  0  0  0  0  0  0  0  0  0  0  0
   -1.7608    0.0971   -1.5063 H   0  0  0  0  0  0  0  0  0  0  0  0
   -0.1463    2.0084   -1.2583 H   0  0  0  0  0  0  0  0  0  0  0  0
    3.1925    1.2633   -1.0485 H   0  0  0  0  0  0  0  0  0  0  0  0
    2.9265    0.9444    0.7854 H   0  0  0  0  0  0  0  0  0  0  0  0
    1.6454   -0.4455    1.3760 H   0  0  0  0  0  0  0  0  0  0  0  0
    0.4804   -2.0321   -1.0334 H   0  0  0  0  0  0  0  0  0  0  0  0
    0.4545   -2.4589    0.7019 H   0  0  0  0  0  0  0  0  0  0  0  0
   -1.7256   -1.7945   -0.2982 H   0  0  0  0  0  0  0  0  0  0  0  0
   -1.2732   -0.9380    1.2438 H   0  0  0  0  0  0  0  0  0  0  0  0
  1  2  1  0
  2  3  1  0
  3  4  2  0
  4  5  1  0
  5  6  1  0
  6  7  1  0
  7  8  1  0
  8  9  1  0
  9  2  1  0
  7  4  1  0
  1 10  1  0
  1 11  1  0
  1 12  1  0
  2 13  1  0
  3 14  1  0
  5 15  1  0
  5 16  1  0
  7 17  1  0
  8 18  1  0
  8 19  1  0
  9 20  1  0
  9 21  1  0
M  END
