
     RDKit          3D

 18 19  0  0  0  0  0  0  0  0999 V2000
    2.0595   -0.9344    0.1400 C   0  0  0  0  0  0  0  0  0  0  0  0
    0.6935   -0.3682    0.3955 C   0  0  0  0  0  0  0  0  0  0  0  0
    0.5327    1.0430   -0.0540 C   0  0  0  0  0  0  0  0  0  0  0  0
   -0.7555    1.6106    0.4889 C   0  0  0  0  0  0  0  0  0  0  0  0
   -1.8628    0.9707    0.0965 C   0  0  0  0  0  0  0  0  0  0  0  0
   -1.6684   -0.4922   -0.2049 C   0  0  0  0  0  0  0  0  0  0  0  0
   -0.2625   -0.6271   -0.7468 C   0  0  0  0  0  0  0  0  0  0  0  0
    0.1968    0.5471   -1.3329 O   0  0  0  0  0  0  0  0  0  0  0  0
    2.1335   -1.2385   -0.9346 H   0  0  0  0  0  0  0  0  0  0  0  0
    2.8527   -0.2076    0.4019 H   0  0  0  0  0  0  0  0  0  0  0  0
    2.2123   -1.8750    0.7172 H   0  0  0  0  0  0  0  0  0  0  0  0
    0.2421   -0.6542    1.3578 H   0  0  0  0  0  0  0  0  0  0  0  0
    1.3885    1.7069   -0.0158 H   0  0  0  0  0  0  0  0  0  0  0  0
   -0.7708    2.4712    1.1458 H   0  0  0  0  0  0  0  0  0  0  0  0
   -2.8268    1.4588    0.0005 H   0  0  0  0  0  0  0  0  0  0  0  0
   -2.4318   -0.8822   -0.8790 H   0  0  0  0  0  0  0  0  0  0  0  0
   -1.6697   -1.0270    0.7878 H   0  0  0  0  0  0  0  0  0  0  0  0
   -0.0635   -1.5020   -1.3640 H   0  0  0  0  0  0  0  0  0  0  0  0
  1  2  1  0
  2  3  1  0
  3  4  1  0
  4  5  2  0
  5  6  1  0
  6  7  1  0
  7  8  1  0
  7  2  1  0
  8  3  1  0
  1  9  1  0
  1 10  1  0
  1 11  1  0
  2 12  1  0
  3 13  1  0
  4 14  1  0
  5 15  1  0
  6 16  1  0
  6 17  1  0
  7 18  1  0
M  END
