
     RDKit          3D

 21 22  0  0  0  0  0  0  0  0999 V2000
    2.4267   -0.1486    0.1653 C   0  0  0  0  0  0  0  0  0  0  0  0
    0.9520    0.0631    0.3378 C   0  0  0  0  0  0  0  0  0  0  0  0
    0.3411    1.1956   -0.4244 C   0  0  0  0  0  0  0  0  0  0  0  0
   -0.1166    2.1803    0.4458 O   0  0  0  0  0  0  0  0  0  0  0  0
   -0.7636    0.2482   -0.8581 C   0  0  0  0  0  0  0  0  0  0  0  0
   -1.8776    0.0863    0.1301 C   0  0  0  0  0  0  0  0  0  0  0  0
   -1.7685   -1.3494    0.5350 C   0  0  0  0  0  0  0  0  0  0  0  0
   -0.5363   -1.8213    0.1946 O   0  0  0  0  0  0  0  0  0  0  0  0
    0.1526   -0.8948   -0.5174 C   0  0  0  0  0  0  0  0  0  0  0  0
    2.7645   -0.1352   -0.8840 H   0  0  0  0  0  0  0  0  0  0  0  0
    2.6511   -1.1695    0.5947 H   0  0  0  0  0  0  0  0  0  0  0  0
    3.0317    0.5534    0.7570 H   0  0  0  0  0  0  0  0  0  0  0  0
    0.6763   -0.0054    1.3996 H   0  0  0  0  0  0  0  0  0  0  0  0
    0.9197    1.5399   -1.2891 H   0  0  0  0  0  0  0  0  0  0  0  0
    0.5463    2.9119    0.4728 H   0  0  0  0  0  0  0  0  0  0  0  0
   -1.0507    0.2932   -1.9099 H   0  0  0  0  0  0  0  0  0  0  0  0
   -1.7537    0.7928    0.9777 H   0  0  0  0  0  0  0  0  0  0  0  0
   -2.8547    0.3403   -0.3495 H   0  0  0  0  0  0  0  0  0  0  0  0
   -1.9100   -1.5095    1.6299 H   0  0  0  0  0  0  0  0  0  0  0  0
   -2.5674   -1.9087   -0.0070 H   0  0  0  0  0  0  0  0  0  0  0  0
    0.7372   -1.2626   -1.4009 H   0  0  0  0  0  0  0  0  0  0  0  0
  1  2  1  0
  2  3  1  0
  3  4  1  0
  3  5  1  0
  5  6  1  0
  6  7  1  0
  7  8  1  0
  8  9  1  0
  9  2  1  0
  9  5  1  0
  1 10  1  0
  1 11  1  0
  1 12  1  0
  2 13  1  0
  3 14  1  0
  4 15  1  0
  5 16  1  0
  6 17  1  0
  6 18  1  0
  7 19  1  0
  7 20  1  0
  9 21  1  0
M  END
