
     RDKit          3D

 19 20  0  0  0  0  0  0  0  0999 V2000
    1.9453    0.4773    0.0838 C   0  0  0  0  0  0  0  0  0  0  0  0
    0.7575   -0.2110   -0.4435 C   0  0  0  0  0  0  0  0  0  0  0  0
    0.5793   -1.6069    0.0208 C   0  0  0  0  0  0  0  0  0  0  0  0
    1.3357   -2.5094    0.0157 O   0  0  0  0  0  0  0  0  0  0  0  0
   -0.8195   -1.5555    0.4958 C   0  0  0  0  0  0  0  0  0  0  0  0
   -1.5493   -0.6439   -0.4605 C   0  0  0  0  0  0  0  0  0  0  0  0
   -0.5607    0.3044    0.1402 C   0  0  0  0  0  0  0  0  0  0  0  0
   -0.8070    1.7304    0.1442 C   0  0  0  0  0  0  0  0  0  0  0  0
   -0.7433   -0.4207    1.3402 O   0  0  0  0  0  0  0  0  0  0  0  0
    1.7671    1.3397    0.7341 H   0  0  0  0  0  0  0  0  0  0  0  0
    2.6418   -0.2701    0.5616 H   0  0  0  0  0  0  0  0  0  0  0  0
    2.5398    0.8749   -0.7913 H   0  0  0  0  0  0  0  0  0  0  0  0
    0.6360   -0.1984   -1.5372 H   0  0  0  0  0  0  0  0  0  0  0  0
   -1.2960   -2.4209    0.8700 H   0  0  0  0  0  0  0  0  0  0  0  0
   -1.3406   -0.8103   -1.5345 H   0  0  0  0  0  0  0  0  0  0  0  0
   -2.5922   -0.5411   -0.1767 H   0  0  0  0  0  0  0  0  0  0  0  0
   -1.8458    2.0459   -0.0646 H   0  0  0  0  0  0  0  0  0  0  0  0
   -0.5628    2.1644    1.1551 H   0  0  0  0  0  0  0  0  0  0  0  0
   -0.0853    2.2512   -0.5531 H   0  0  0  0  0  0  0  0  0  0  0  0
  1  2  1  0
  2  3  1  0
  3  4  2  0
  3  5  1  0
  5  6  1  0
  6  7  1  0
  7  8  1  0
  7  9  1  0
  7  2  1  0
  9  5  1  0
  1 10  1  0
  1 11  1  0
  1 12  1  0
  2 13  1  0
  5 14  1  0
  6 15  1  0
  6 16  1  0
  8 17  1  0
  8 18  1  0
  8 19  1  0
M  END
