
     RDKit          3D

 21 23  0  0  0  0  0  0  0  0999 V2000
    2.9446   -0.1975   -0.2507 C   0  0  0  0  0  0  0  0  0  0  0  0
    1.4916   -0.1997   -0.6227 C   0  0  0  0  0  0  0  0  0  0  0  0
    0.5498    0.6724    0.1477 C   0  0  0  0  0  0  0  0  0  0  0  0
    0.5918   -0.8631    0.3714 C   0  0  0  0  0  0  0  0  0  0  0  0
   -0.8784   -0.8841    0.0939 C   0  0  0  0  0  0  0  0  0  0  0  0
   -1.4114   -1.6930   -0.8842 O   0  0  0  0  0  0  0  0  0  0  0  0
   -1.7301   -0.1134    1.0320 C   0  0  0  0  0  0  0  0  0  0  0  0
   -0.9087    0.5697   -0.0355 C   0  0  0  0  0  0  0  0  0  0  0  0
   -1.6782    1.3188   -1.0502 C   0  0  0  0  0  0  0  0  0  0  0  0
    3.5046    0.4026   -0.9791 H   0  0  0  0  0  0  0  0  0  0  0  0
    3.3740   -1.2246   -0.1796 H   0  0  0  0  0  0  0  0  0  0  0  0
    3.0729    0.2527    0.7512 H   0  0  0  0  0  0  0  0  0  0  0  0
    1.2661   -0.4232   -1.6947 H   0  0  0  0  0  0  0  0  0  0  0  0
    0.9742    1.2561    0.9824 H   0  0  0  0  0  0  0  0  0  0  0  0
    0.9665   -1.2206    1.3380 H   0  0  0  0  0  0  0  0  0  0  0  0
   -2.1846   -2.2355   -0.5635 H   0  0  0  0  0  0  0  0  0  0  0  0
   -2.8115   -0.1930    0.9282 H   0  0  0  0  0  0  0  0  0  0  0  0
   -1.3590    0.0992    2.0597 H   0  0  0  0  0  0  0  0  0  0  0  0
   -1.9887    2.3234   -0.6403 H   0  0  0  0  0  0  0  0  0  0  0  0
   -2.6333    0.8149   -1.3101 H   0  0  0  0  0  0  0  0  0  0  0  0
   -1.1520    1.5380   -1.9904 H   0  0  0  0  0  0  0  0  0  0  0  0
  1  2  1  0
  2  3  1  0
  3  4  1  0
  4  5  1  0
  5  6  1  0
  5  7  1  0
  7  8  1  0
  8  9  1  0
  4  2  1  0
  8  5  1  0
  8  3  1  0
  1 10  1  0
  1 11  1  0
  1 12  1  0
  2 13  1  0
  3 14  1  0
  4 15  1  0
  6 16  1  0
  7 17  1  0
  7 18  1  0
  9 19  1  0
  9 20  1  0
  9 21  1  0
M  END
