
     RDKit          3D

 27 27  0  0  0  0  0  0  0  0999 V2000
    2.2247   -1.3112    0.0752 C   0  0  0  0  0  0  0  0  0  0  0  0
    1.1478   -0.4769   -0.5179 C   0  0  0  0  0  0  0  0  0  0  0  0
    0.0050   -1.2526   -1.0976 C   0  0  0  0  0  0  0  0  0  0  0  0
   -1.2733   -0.4981   -0.7076 C   0  0  0  0  0  0  0  0  0  0  0  0
   -1.8931   -1.2422    0.4225 C   0  0  0  0  0  0  0  0  0  0  0  0
   -0.7369    0.8466   -0.3628 C   0  0  0  0  0  0  0  0  0  0  0  0
   -1.6421    1.7803    0.3018 C   0  0  0  0  0  0  0  0  0  0  0  0
    0.4859    0.4537    0.4795 C   0  0  0  0  0  0  0  0  0  0  0  0
    1.3905    1.6100    0.7363 C   0  0  0  0  0  0  0  0  0  0  0  0
    2.6112   -0.9718    1.0406 H   0  0  0  0  0  0  0  0  0  0  0  0
    3.0723   -1.3421   -0.6701 H   0  0  0  0  0  0  0  0  0  0  0  0
    1.9098   -2.3767    0.1792 H   0  0  0  0  0  0  0  0  0  0  0  0
    1.5326    0.1892   -1.3446 H   0  0  0  0  0  0  0  0  0  0  0  0
    0.0377   -1.3467   -2.1873 H   0  0  0  0  0  0  0  0  0  0  0  0
    0.0121   -2.2707   -0.6592 H   0  0  0  0  0  0  0  0  0  0  0  0
   -1.9529   -0.4483   -1.5931 H   0  0  0  0  0  0  0  0  0  0  0  0
   -1.1247   -1.8820    0.9477 H   0  0  0  0  0  0  0  0  0  0  0  0
   -2.3623   -0.6382    1.1941 H   0  0  0  0  0  0  0  0  0  0  0  0
   -2.6143   -1.9993   -0.0049 H   0  0  0  0  0  0  0  0  0  0  0  0
   -0.3236    1.3011   -1.2816 H   0  0  0  0  0  0  0  0  0  0  0  0
   -2.1750    2.3930   -0.4843 H   0  0  0  0  0  0  0  0  0  0  0  0
   -2.4087    1.3864    0.9550 H   0  0  0  0  0  0  0  0  0  0  0  0
   -1.0351    2.5500    0.8631 H   0  0  0  0  0  0  0  0  0  0  0  0
    0.1431   -0.0748    1.3829 H   0  0  0  0  0  0  0  0  0  0  0  0
    1.5448    2.1551   -0.2047 H   0  0  0  0  0  0  0  0  0  0  0  0
    1.0283    2.2777    1.5254 H   0  0  0  0  0  0  0  0  0  0  0  0
    2.3960    1.1888    1.0124 H   0  0  0  0  0  0  0  0  0  0  0  0
  1  2  1  0
  2  3  1  0
  3  4  1  0
  4  5  1  0
  4  6  1  0
  6  7  1  0
  6  8  1  0
  8  9  1  0
  8  2  1  0
  1 10  1  0
  1 11  1  0
  1 12  1  0
  2 13  1  0
  3 14  1  0
  3 15  1  0
  4 16  1  0
  5 17  1  0
  5 18  1  0
  5 19  1  0
  6 20  1  0
  7 21  1  0
  7 22  1  0
  7 23  1  0
  8 24  1  0
  9 25  1  0
  9 26  1  0
  9 27  1  0
M  END
