
     RDKit          3D

 21 23  0  0  0  0  0  0  0  0999 V2000
   -2.6098   -0.1312    0.1591 C   0  0  0  0  0  0  0  0  0  0  0  0
   -1.2379   -0.5020    0.6066 C   0  0  0  0  0  0  0  0  0  0  0  0
   -0.4411    0.5217    1.3078 C   0  0  0  0  0  0  0  0  0  0  0  0
    0.9055    0.3644    1.5748 O   0  0  0  0  0  0  0  0  0  0  0  0
    1.2480   -0.1933    0.3881 C   0  0  0  0  0  0  0  0  0  0  0  0
    2.5051   -0.1072   -0.2974 C   0  0  0  0  0  0  0  0  0  0  0  0
    1.9591   -1.4548    0.2069 C   0  0  0  0  0  0  0  0  0  0  0  0
   -0.0931    0.1071   -0.1597 C   0  0  0  0  0  0  0  0  0  0  0  0
   -0.3295    1.1472   -1.1976 C   0  0  0  0  0  0  0  0  0  0  0  0
   -3.3535   -0.8012    0.6588 H   0  0  0  0  0  0  0  0  0  0  0  0
   -2.8415    0.8987    0.4401 H   0  0  0  0  0  0  0  0  0  0  0  0
   -2.7656   -0.2963   -0.9348 H   0  0  0  0  0  0  0  0  0  0  0  0
   -1.0532   -1.5573    0.9017 H   0  0  0  0  0  0  0  0  0  0  0  0
   -0.8709    1.5259    1.4208 H   0  0  0  0  0  0  0  0  0  0  0  0
    2.5589    0.0172   -1.3926 H   0  0  0  0  0  0  0  0  0  0  0  0
    3.4068    0.2819    0.2365 H   0  0  0  0  0  0  0  0  0  0  0  0
    2.4378   -1.8880    1.1168 H   0  0  0  0  0  0  0  0  0  0  0  0
    1.6805   -2.2002   -0.5875 H   0  0  0  0  0  0  0  0  0  0  0  0
   -1.2060    0.9118   -1.8184 H   0  0  0  0  0  0  0  0  0  0  0  0
    0.5747    1.2038   -1.8607 H   0  0  0  0  0  0  0  0  0  0  0  0
   -0.4743    2.1519   -0.7695 H   0  0  0  0  0  0  0  0  0  0  0  0
  1  2  1  0
  2  3  1  0
  3  4  1  0
  4  5  1  0
  5  6  1  0
  6  7  1  0
  5  8  1  0
  8  9  1  0
  8  2  1  0
  8  3  1  0
  7  5  1  0
  1 10  1  0
  1 11  1  0
  1 12  1  0
  2 13  1  0
  3 14  1  0
  6 15  1  0
  6 16  1  0
  7 17  1  0
  7 18  1  0
  9 19  1  0
  9 20  1  0
  9 21  1  0
M  END
