
     RDKit          3D

 21 22  0  0  0  0  0  0  0  0999 V2000
    2.7251    0.0685   -0.3680 C   0  0  0  0  0  0  0  0  0  0  0  0
    1.3856   -0.5483   -0.0737 C   0  0  0  0  0  0  0  0  0  0  0  0
    0.8062   -0.5731    1.2701 C   0  0  0  0  0  0  0  0  0  0  0  0
    0.2718    0.4294    0.3603 C   0  0  0  0  0  0  0  0  0  0  0  0
   -0.9959    0.2980   -0.4017 C   0  0  0  0  0  0  0  0  0  0  0  0
   -0.8981    0.5112   -1.7712 O   0  0  0  0  0  0  0  0  0  0  0  0
   -2.1268    1.1189    0.1762 C   0  0  0  0  0  0  0  0  0  0  0  0
   -3.0001    0.1018   -0.2730 O   0  0  0  0  0  0  0  0  0  0  0  0
   -1.9340   -0.7925   -0.0206 C   0  0  0  0  0  0  0  0  0  0  0  0
    2.9870   -0.1083   -1.4340 H   0  0  0  0  0  0  0  0  0  0  0  0
    3.5450   -0.3206    0.2482 H   0  0  0  0  0  0  0  0  0  0  0  0
    2.6745    1.1888   -0.2678 H   0  0  0  0  0  0  0  0  0  0  0  0
    1.0837   -1.3631   -0.7820 H   0  0  0  0  0  0  0  0  0  0  0  0
    0.2415   -1.5073    1.5531 H   0  0  0  0  0  0  0  0  0  0  0  0
    1.4119   -0.2195    2.1555 H   0  0  0  0  0  0  0  0  0  0  0  0
    0.5869    1.4874    0.5462 H   0  0  0  0  0  0  0  0  0  0  0  0
   -0.4694   -0.2504   -2.2518 H   0  0  0  0  0  0  0  0  0  0  0  0
   -2.2734    2.0947   -0.2885 H   0  0  0  0  0  0  0  0  0  0  0  0
   -2.1383    1.1156    1.2866 H   0  0  0  0  0  0  0  0  0  0  0  0
   -1.9056   -1.0556    1.0430 H   0  0  0  0  0  0  0  0  0  0  0  0
   -1.9777   -1.6757   -0.7069 H   0  0  0  0  0  0  0  0  0  0  0  0
  1  2  1  0
  2  3  1  0
  3  4  1  0
  4  5  1  0
  5  6  1  0
  5  7  1  0
  7  8  1  0
  8  9  1  0
  4  2  1  0
  9  5  1  0
  1 10  1  0
  1 11  1  0
  1 12  1  0
  2 13  1  0
  3 14  1  0
  3 15  1  0
  4 16  1  0
  6 17  1  0
  7 18  1  0
  7 19  1  0
  9 20  1  0
  9 21  1  0
M  END
