
     RDKit          3D

 21 22  0  0  0  0  0  0  0  0999 V2000
    2.3709    0.5006   -0.8447 C   0  0  0  0  0  0  0  0  0  0  0  0
    1.7514   -0.1451    0.3828 C   0  0  0  0  0  0  0  0  0  0  0  0
    0.6010   -1.0694    0.2356 C   0  0  0  0  0  0  0  0  0  0  0  0
   -0.4293   -0.6459   -0.7909 C   0  0  0  0  0  0  0  0  0  0  0  0
   -1.4500   -1.5540   -0.9885 O   0  0  0  0  0  0  0  0  0  0  0  0
   -0.7657    0.5056    0.1514 C   0  0  0  0  0  0  0  0  0  0  0  0
   -2.0049    0.0914    0.9543 C   0  0  0  0  0  0  0  0  0  0  0  0
   -0.9348    1.7320   -0.4753 O   0  0  0  0  0  0  0  0  0  0  0  0
    0.4792    0.3185    0.9413 C   0  0  0  0  0  0  0  0  0  0  0  0
    3.0294    1.3395   -0.5288 H   0  0  0  0  0  0  0  0  0  0  0  0
    1.6366    0.8901   -1.5491 H   0  0  0  0  0  0  0  0  0  0  0  0
    3.0316   -0.2996   -1.2937 H   0  0  0  0  0  0  0  0  0  0  0  0
    2.5146   -0.4931    1.1088 H   0  0  0  0  0  0  0  0  0  0  0  0
    0.4265   -1.9257    0.8812 H   0  0  0  0  0  0  0  0  0  0  0  0
    0.0128   -0.3294   -1.7489 H   0  0  0  0  0  0  0  0  0  0  0  0
   -1.9290   -1.2869   -1.8216 H   0  0  0  0  0  0  0  0  0  0  0  0
   -2.6639    0.9360    1.1651 H   0  0  0  0  0  0  0  0  0  0  0  0
   -1.6893   -0.4016    1.9152 H   0  0  0  0  0  0  0  0  0  0  0  0
   -2.5946   -0.6774    0.4155 H   0  0  0  0  0  0  0  0  0  0  0  0
   -1.7409    2.2177   -0.1474 H   0  0  0  0  0  0  0  0  0  0  0  0
    0.3486    0.2965    2.0378 H   0  0  0  0  0  0  0  0  0  0  0  0
  1  2  1  0
  2  3  1  0
  3  4  1  0
  4  5  1  0
  4  6  1  0
  6  7  1  0
  6  8  1  0
  6  9  1  0
  9  2  1  0
  9  3  1  0
  1 10  1  0
  1 11  1  0
  1 12  1  0
  2 13  1  0
  3 14  1  0
  4 15  1  0
  5 16  1  0
  7 17  1  0
  7 18  1  0
  7 19  1  0
  8 20  1  0
  9 21  1  0
M  END
