
     RDKit          3D

 19 20  0  0  0  0  0  0  0  0999 V2000
   -2.1423    0.2837   -0.2082 C   0  0  0  0  0  0  0  0  0  0  0  0
   -0.9987   -0.5587    0.3230 C   0  0  0  0  0  0  0  0  0  0  0  0
   -0.4298   -1.4460   -0.7201 C   0  0  0  0  0  0  0  0  0  0  0  0
    0.8547   -1.1670   -0.9300 C   0  0  0  0  0  0  0  0  0  0  0  0
    1.3123   -0.0646   -0.0620 C   0  0  0  0  0  0  0  0  0  0  0  0
    2.6101   -0.0294    0.4107 O   0  0  0  0  0  0  0  0  0  0  0  0
    0.6803    1.2970   -0.2314 C   0  0  0  0  0  0  0  0  0  0  0  0
    0.1494    0.3191    0.7401 C   0  0  0  0  0  0  0  0  0  0  0  0
    0.2044    0.5921    2.0886 O   0  0  0  0  0  0  0  0  0  0  0  0
   -2.5604    0.8368    0.6327 H   0  0  0  0  0  0  0  0  0  0  0  0
   -1.7628    1.0421   -0.9416 H   0  0  0  0  0  0  0  0  0  0  0  0
   -2.8803   -0.3302   -0.7501 H   0  0  0  0  0  0  0  0  0  0  0  0
   -1.3903   -1.1234    1.1892 H   0  0  0  0  0  0  0  0  0  0  0  0
   -0.9513   -2.2244   -1.2601 H   0  0  0  0  0  0  0  0  0  0  0  0
    1.5018   -1.6705   -1.6411 H   0  0  0  0  0  0  0  0  0  0  0  0
    3.2005    0.0416   -0.3975 H   0  0  0  0  0  0  0  0  0  0  0  0
    0.2254    1.4570   -1.2212 H   0  0  0  0  0  0  0  0  0  0  0  0
    1.2069    2.1745    0.1682 H   0  0  0  0  0  0  0  0  0  0  0  0
    1.1702    0.5703    2.3481 H   0  0  0  0  0  0  0  0  0  0  0  0
  1  2  1  0
  2  3  1  0
  3  4  2  0
  4  5  1  0
  5  6  1  0
  5  7  1  0
  7  8  1  0
  8  9  1  0
  8  2  1  0
  8  5  1  0
  1 10  1  0
  1 11  1  0
  1 12  1  0
  2 13  1  0
  3 14  1  0
  4 15  1  0
  6 16  1  0
  7 17  1  0
  7 18  1  0
  9 19  1  0
M  END
