
     RDKit          3D

 21 23  0  0  0  0  0  0  0  0999 V2000
   -2.9908    0.3580   -0.6707 C   0  0  0  0  0  0  0  0  0  0  0  0
   -1.9971   -0.3365    0.2782 C   0  0  0  0  0  0  0  0  0  0  0  0
   -0.7953   -0.7888   -0.2774 C   0  0  0  0  0  0  0  0  0  0  0  0
   -0.8043    0.3221    0.7965 C   0  0  0  0  0  0  0  0  0  0  0  0
    0.6694   -0.0918    0.6431 C   0  0  0  0  0  0  0  0  0  0  0  0
    1.1150   -1.2155    1.2747 O   0  0  0  0  0  0  0  0  0  0  0  0
    1.4486    0.7193   -0.2415 C   0  0  0  0  0  0  0  0  0  0  0  0
    2.9192    0.4306   -0.3548 C   0  0  0  0  0  0  0  0  0  0  0  0
    0.3858   -0.0998   -0.8468 C   0  0  0  0  0  0  0  0  0  0  0  0
   -3.2008    1.3368   -0.1927 H   0  0  0  0  0  0  0  0  0  0  0  0
   -2.4709    0.6025   -1.6386 H   0  0  0  0  0  0  0  0  0  0  0  0
   -3.8610   -0.2723   -0.8288 H   0  0  0  0  0  0  0  0  0  0  0  0
   -2.5770   -0.9011    1.0596 H   0  0  0  0  0  0  0  0  0  0  0  0
   -0.4457   -1.7704    0.2109 H   0  0  0  0  0  0  0  0  0  0  0  0
   -0.9047    1.3847    0.6026 H   0  0  0  0  0  0  0  0  0  0  0  0
    1.5397   -1.8850    0.7175 H   0  0  0  0  0  0  0  0  0  0  0  0
    1.2458    1.8324   -0.2872 H   0  0  0  0  0  0  0  0  0  0  0  0
    3.2570    0.7985   -1.3444 H   0  0  0  0  0  0  0  0  0  0  0  0
    3.4575    1.0219    0.4104 H   0  0  0  0  0  0  0  0  0  0  0  0
    3.1085   -0.6365   -0.1879 H   0  0  0  0  0  0  0  0  0  0  0  0
    0.9010   -0.8090   -1.5666 H   0  0  0  0  0  0  0  0  0  0  0  0
  1  2  1  0
  2  3  1  0
  3  4  1  0
  4  5  1  0
  5  6  1  0
  5  7  1  0
  7  8  1  0
  7  9  1  0
  4  2  1  0
  9  5  1  0
  9  3  1  0
  1 10  1  0
  1 11  1  0
  1 12  1  0
  2 13  1  0
  3 14  1  0
  4 15  1  0
  6 16  1  0
  7 17  1  0
  8 18  1  0
  8 19  1  0
  8 20  1  0
  9 21  1  0
M  END
