
     RDKit          3D

 21 22  0  0  0  0  0  0  0  0999 V2000
   -2.3331    0.9241    0.4767 C   0  0  0  0  0  0  0  0  0  0  0  0
   -1.2607   -0.1306    0.4447 C   0  0  0  0  0  0  0  0  0  0  0  0
   -1.3494   -0.7925   -0.9472 C   0  0  0  0  0  0  0  0  0  0  0  0
   -0.0205   -0.7659   -1.4506 O   0  0  0  0  0  0  0  0  0  0  0  0
    0.6780   -0.9238   -0.2895 C   0  0  0  0  0  0  0  0  0  0  0  0
    0.1130    0.4176    0.3382 C   0  0  0  0  0  0  0  0  0  0  0  0
    1.4011   -0.0832    0.5658 C   0  0  0  0  0  0  0  0  0  0  0  0
    2.6165    0.6457   -0.0283 C   0  0  0  0  0  0  0  0  0  0  0  0
    1.7117   -0.5127    1.8774 O   0  0  0  0  0  0  0  0  0  0  0  0
   -2.2308    1.6745   -0.3144 H   0  0  0  0  0  0  0  0  0  0  0  0
   -2.4336    1.3259    1.4928 H   0  0  0  0  0  0  0  0  0  0  0  0
   -3.3036    0.3872    0.2615 H   0  0  0  0  0  0  0  0  0  0  0  0
   -1.4238   -0.8507    1.2417 H   0  0  0  0  0  0  0  0  0  0  0  0
   -1.9840   -0.2245   -1.6246 H   0  0  0  0  0  0  0  0  0  0  0  0
   -1.6097   -1.8537   -0.8392 H   0  0  0  0  0  0  0  0  0  0  0  0
    0.3031   -1.8803    0.1955 H   0  0  0  0  0  0  0  0  0  0  0  0
    0.0693    1.2939   -0.3856 H   0  0  0  0  0  0  0  0  0  0  0  0
    3.1495   -0.0797   -0.6625 H   0  0  0  0  0  0  0  0  0  0  0  0
    2.2329    1.4777   -0.6840 H   0  0  0  0  0  0  0  0  0  0  0  0
    3.2282    1.1217    0.7383 H   0  0  0  0  0  0  0  0  0  0  0  0
    2.4461   -1.1707    1.7695 H   0  0  0  0  0  0  0  0  0  0  0  0
  1  2  1  0
  2  3  1  0
  3  4  1  0
  4  5  1  0
  5  6  1  0
  6  7  1  0
  7  8  1  0
  7  9  1  0
  6  2  1  0
  7  5  1  0
  1 10  1  0
  1 11  1  0
  1 12  1  0
  2 13  1  0
  3 14  1  0
  3 15  1  0
  5 16  1  0
  6 17  1  0
  8 18  1  0
  8 19  1  0
  8 20  1  0
  9 21  1  0
M  END
