
     RDKit          3D

 20 20  0  0  0  0  0  0  0  0999 V2000
   -2.1394    0.5800    0.5845 C   0  0  0  0  0  0  0  0  0  0  0  0
   -1.1036   -0.4505    0.2060 C   0  0  0  0  0  0  0  0  0  0  0  0
   -0.7197   -0.3315   -1.2494 C   0  0  0  0  0  0  0  0  0  0  0  0
    0.7216    0.1262   -1.2299 C   0  0  0  0  0  0  0  0  0  0  0  0
    1.3106   -0.4362    0.0618 C   0  0  0  0  0  0  0  0  0  0  0  0
    2.4720    0.4108    0.4968 C   0  0  0  0  0  0  0  0  0  0  0  0
    3.5951   -0.0463    0.6438 O   0  0  0  0  0  0  0  0  0  0  0  0
    0.1543   -0.3535    1.0034 C   0  0  0  0  0  0  0  0  0  0  0  0
   -1.8652    1.6034    0.3424 H   0  0  0  0  0  0  0  0  0  0  0  0
   -3.0535    0.3385   -0.0231 H   0  0  0  0  0  0  0  0  0  0  0  0
   -2.3577    0.5136    1.6536 H   0  0  0  0  0  0  0  0  0  0  0  0
   -1.5678   -1.4488    0.4004 H   0  0  0  0  0  0  0  0  0  0  0  0
   -0.7321   -1.3099   -1.7768 H   0  0  0  0  0  0  0  0  0  0  0  0
   -1.3161    0.4105   -1.7757 H   0  0  0  0  0  0  0  0  0  0  0  0
    1.2923   -0.2543   -2.0983 H   0  0  0  0  0  0  0  0  0  0  0  0
    0.8046    1.2426   -1.1238 H   0  0  0  0  0  0  0  0  0  0  0  0
    1.6997   -1.4456   -0.0955 H   0  0  0  0  0  0  0  0  0  0  0  0
    2.3543    1.4652    0.6972 H   0  0  0  0  0  0  0  0  0  0  0  0
    0.1994    0.6034    1.5635 H   0  0  0  0  0  0  0  0  0  0  0  0
    0.2512   -1.2176    1.7192 H   0  0  0  0  0  0  0  0  0  0  0  0
  1  2  1  0
  2  3  1  0
  3  4  1  0
  4  5  1  0
  5  6  1  0
  6  7  2  0
  5  8  1  0
  8  2  1  0
  1  9  1  0
  1 10  1  0
  1 11  1  0
  2 12  1  0
  3 13  1  0
  3 14  1  0
  4 15  1  0
  4 16  1  0
  5 17  1  0
  6 18  1  0
  8 19  1  0
  8 20  1  0
M  END
