
     RDKit          3D

 23 24  0  0  0  0  0  0  0  0999 V2000
   -1.3543    1.7904   -0.3096 C   0  0  0  0  0  0  0  0  0  0  0  0
   -0.5448    0.5370   -0.4267 C   0  0  0  0  0  0  0  0  0  0  0  0
   -1.4405   -0.7196   -0.3889 C   0  0  0  0  0  0  0  0  0  0  0  0
   -2.5742   -0.4888    0.3847 O   0  0  0  0  0  0  0  0  0  0  0  0
   -0.5680   -1.7963    0.2886 C   0  0  0  0  0  0  0  0  0  0  0  0
    0.7680   -1.1600    0.1777 C   0  0  0  0  0  0  0  0  0  0  0  0
    1.5464   -0.3130    0.9704 C   0  0  0  0  0  0  0  0  0  0  0  0
    2.7195    0.4574    0.3459 C   0  0  0  0  0  0  0  0  0  0  0  0
    0.2676    0.2225    0.7687 C   0  0  0  0  0  0  0  0  0  0  0  0
   -0.7911    2.6052   -0.7959 H   0  0  0  0  0  0  0  0  0  0  0  0
   -1.4307    2.0460    0.7645 H   0  0  0  0  0  0  0  0  0  0  0  0
   -2.3331    1.6205   -0.7944 H   0  0  0  0  0  0  0  0  0  0  0  0
    0.0475    0.5030   -1.3585 H   0  0  0  0  0  0  0  0  0  0  0  0
   -1.7216   -1.0316   -1.4116 H   0  0  0  0  0  0  0  0  0  0  0  0
   -2.3983    0.1915    1.0824 H   0  0  0  0  0  0  0  0  0  0  0  0
   -0.6542   -2.7115   -0.3173 H   0  0  0  0  0  0  0  0  0  0  0  0
   -0.9149   -2.0043    1.3056 H   0  0  0  0  0  0  0  0  0  0  0  0
    1.0361   -1.1464   -0.9269 H   0  0  0  0  0  0  0  0  0  0  0  0
    1.8452   -0.6578    1.9991 H   0  0  0  0  0  0  0  0  0  0  0  0
    2.5856    1.5509    0.5142 H   0  0  0  0  0  0  0  0  0  0  0  0
    3.6852    0.0722    0.6903 H   0  0  0  0  0  0  0  0  0  0  0  0
    2.6648    0.3002   -0.7492 H   0  0  0  0  0  0  0  0  0  0  0  0
   -0.4402    0.1326    1.6531 H   0  0  0  0  0  0  0  0  0  0  0  0
  1  2  1  0
  2  3  1  0
  3  4  1  0
  3  5  1  0
  5  6  1  0
  6  7  1  0
  7  8  1  0
  7  9  1  0
  9  2  1  0
  9  6  1  0
  1 10  1  0
  1 11  1  0
  1 12  1  0
  2 13  1  0
  3 14  1  0
  4 15  1  0
  5 16  1  0
  5 17  1  0
  6 18  1  0
  7 19  1  0
  8 20  1  0
  8 21  1  0
  8 22  1  0
  9 23  1  0
M  END
