
     RDKit          3D

 17 17  0  0  0  0  0  0  0  0999 V2000
    2.0954    0.4367    0.0615 C   0  0  0  0  0  0  0  0  0  0  0  0
    0.6191    0.3991   -0.1675 C   0  0  0  0  0  0  0  0  0  0  0  0
    0.0790   -0.9688   -0.4233 C   0  0  0  0  0  0  0  0  0  0  0  0
   -1.3707   -1.1335   -0.1217 C   0  0  0  0  0  0  0  0  0  0  0  0
   -1.8948   -0.2188    0.7482 O   0  0  0  0  0  0  0  0  0  0  0  0
   -1.3628    1.0533    0.6406 C   0  0  0  0  0  0  0  0  0  0  0  0
    0.0046    0.9423    0.9756 O   0  0  0  0  0  0  0  0  0  0  0  0
    2.6930   -0.0929   -0.6923 H   0  0  0  0  0  0  0  0  0  0  0  0
    2.3904    1.5271    0.0804 H   0  0  0  0  0  0  0  0  0  0  0  0
    2.2905    0.0817    1.1038 H   0  0  0  0  0  0  0  0  0  0  0  0
    0.3538    1.0400   -1.0442 H   0  0  0  0  0  0  0  0  0  0  0  0
    0.6752   -1.7685    0.0741 H   0  0  0  0  0  0  0  0  0  0  0  0
    0.2092   -1.1695   -1.5274 H   0  0  0  0  0  0  0  0  0  0  0  0
   -1.5511   -2.1548    0.3237 H   0  0  0  0  0  0  0  0  0  0  0  0
   -2.0171   -1.1299   -1.0468 H   0  0  0  0  0  0  0  0  0  0  0  0
   -1.3998    1.4655   -0.3867 H   0  0  0  0  0  0  0  0  0  0  0  0
   -1.8138    1.6911    1.4021 H   0  0  0  0  0  0  0  0  0  0  0  0
  1  2  1  0
  2  3  1  0
  3  4  1  0
  4  5  1  0
  5  6  1  0
  6  7  1  0
  7  2  1  0
  1  8  1  0
  1  9  1  0
  1 10  1  0
  2 11  1  0
  3 12  1  0
  3 13  1  0
  4 14  1  0
  4 15  1  0
  6 16  1  0
  6 17  1  0
M  END
