
     RDKit          3D

 27 27  0  0  0  0  0  0  0  0999 V2000
   -2.7498   -0.1736    0.3386 C   0  0  0  0  0  0  0  0  0  0  0  0
   -1.2345   -0.0302    0.2979 C   0  0  0  0  0  0  0  0  0  0  0  0
   -0.6469   -1.2262   -0.4534 C   0  0  0  0  0  0  0  0  0  0  0  0
    0.5200   -1.7175    0.3573 C   0  0  0  0  0  0  0  0  0  0  0  0
    1.8426   -1.2697   -0.1378 C   0  0  0  0  0  0  0  0  0  0  0  0
    1.8473    0.1590   -0.6540 C   0  0  0  0  0  0  0  0  0  0  0  0
    1.4660    1.0918    0.4636 C   0  0  0  0  0  0  0  0  0  0  0  0
    0.2894    1.9608    0.1366 C   0  0  0  0  0  0  0  0  0  0  0  0
   -0.8764    1.2330   -0.4273 C   0  0  0  0  0  0  0  0  0  0  0  0
   -3.1194   -0.3423    1.3784 H   0  0  0  0  0  0  0  0  0  0  0  0
   -3.2196    0.7615   -0.0481 H   0  0  0  0  0  0  0  0  0  0  0  0
   -3.0911   -1.0644   -0.2409 H   0  0  0  0  0  0  0  0  0  0  0  0
   -0.8871   -0.0250    1.3642 H   0  0  0  0  0  0  0  0  0  0  0  0
   -0.3908   -0.9737   -1.4946 H   0  0  0  0  0  0  0  0  0  0  0  0
   -1.4417   -2.0244   -0.5259 H   0  0  0  0  0  0  0  0  0  0  0  0
    0.5072   -2.8370    0.3510 H   0  0  0  0  0  0  0  0  0  0  0  0
    0.4009   -1.4199    1.4362 H   0  0  0  0  0  0  0  0  0  0  0  0
    2.3085   -1.9478   -0.8942 H   0  0  0  0  0  0  0  0  0  0  0  0
    2.5695   -1.2724    0.7265 H   0  0  0  0  0  0  0  0  0  0  0  0
    1.2137    0.2851   -1.5525 H   0  0  0  0  0  0  0  0  0  0  0  0
    2.9018    0.3382   -1.0158 H   0  0  0  0  0  0  0  0  0  0  0  0
    1.3144    0.5120    1.4167 H   0  0  0  0  0  0  0  0  0  0  0  0
    2.3416    1.7890    0.6170 H   0  0  0  0  0  0  0  0  0  0  0  0
    0.6182    2.7238   -0.6000 H   0  0  0  0  0  0  0  0  0  0  0  0
   -0.0109    2.4998    1.0470 H   0  0  0  0  0  0  0  0  0  0  0  0
   -0.7119    1.0424   -1.5044 H   0  0  0  0  0  0  0  0  0  0  0  0
   -1.7608    1.9277   -0.3819 H   0  0  0  0  0  0  0  0  0  0  0  0
  1  2  1  0
  2  3  1  0
  3  4  1  0
  4  5  1  0
  5  6  1  0
  6  7  1  0
  7  8  1  0
  8  9  1  0
  9  2  1  0
  1 10  1  0
  1 11  1  0
  1 12  1  0
  2 13  1  0
  3 14  1  0
  3 15  1  0
  4 16  1  0
  4 17  1  0
  5 18  1  0
  5 19  1  0
  6 20  1  0
  6 21  1  0
  7 22  1  0
  7 23  1  0
  8 24  1  0
  8 25  1  0
  9 26  1  0
  9 27  1  0
M  END
