
     RDKit          3D

 21 22  0  0  0  0  0  0  0  0999 V2000
    2.2166    0.7111   -0.6155 C   0  0  0  0  0  0  0  0  0  0  0  0
    0.9658   -0.1602   -0.7186 C   0  0  0  0  0  0  0  0  0  0  0  0
    1.2462   -1.3851    0.1485 C   0  0  0  0  0  0  0  0  0  0  0  0
   -0.1134   -1.6738    0.7256 C   0  0  0  0  0  0  0  0  0  0  0  0
   -0.8650   -0.5987    0.6739 C   0  0  0  0  0  0  0  0  0  0  0  0
   -2.1824   -0.0088    0.9720 C   0  0  0  0  0  0  0  0  0  0  0  0
   -2.3425    0.8880   -0.2347 C   0  0  0  0  0  0  0  0  0  0  0  0
   -1.1501    1.1789   -0.7353 C   0  0  0  0  0  0  0  0  0  0  0  0
   -0.1142    0.5267    0.0626 C   0  0  0  0  0  0  0  0  0  0  0  0
    3.1394    0.0751   -0.5264 H   0  0  0  0  0  0  0  0  0  0  0  0
    2.2058    1.3445    0.2861 H   0  0  0  0  0  0  0  0  0  0  0  0
    2.2642    1.3670   -1.4881 H   0  0  0  0  0  0  0  0  0  0  0  0
    0.7057   -0.4123   -1.7436 H   0  0  0  0  0  0  0  0  0  0  0  0
    1.9234   -1.0895    0.9823 H   0  0  0  0  0  0  0  0  0  0  0  0
    1.6511   -2.2099   -0.4245 H   0  0  0  0  0  0  0  0  0  0  0  0
   -0.3503   -2.6648    1.1087 H   0  0  0  0  0  0  0  0  0  0  0  0
   -2.9961   -0.7562    1.0272 H   0  0  0  0  0  0  0  0  0  0  0  0
   -2.1145    0.6092    1.8788 H   0  0  0  0  0  0  0  0  0  0  0  0
   -3.3256    1.2011   -0.5746 H   0  0  0  0  0  0  0  0  0  0  0  0
   -1.0420    1.8228   -1.6220 H   0  0  0  0  0  0  0  0  0  0  0  0
    0.2781    1.2348    0.8179 H   0  0  0  0  0  0  0  0  0  0  0  0
  1  2  1  0
  2  3  1  0
  3  4  1  0
  4  5  2  0
  5  6  1  0
  6  7  1  0
  7  8  2  0
  8  9  1  0
  9  2  1  0
  9  5  1  0
  1 10  1  0
  1 11  1  0
  1 12  1  0
  2 13  1  0
  3 14  1  0
  3 15  1  0
  4 16  1  0
  6 17  1  0
  6 18  1  0
  7 19  1  0
  8 20  1  0
  9 21  1  0
M  END
