
     RDKit          3D

 23 24  0  0  0  0  0  0  0  0999 V2000
    2.2280   -1.1347   -0.0667 C   0  0  0  0  0  0  0  0  0  0  0  0
    1.0588   -0.2396    0.3023 C   0  0  0  0  0  0  0  0  0  0  0  0
    1.3186    1.1958   -0.1051 C   0  0  0  0  0  0  0  0  0  0  0  0
    0.2113    1.9732    0.4943 C   0  0  0  0  0  0  0  0  0  0  0  0
   -1.0172    1.6003    0.1959 C   0  0  0  0  0  0  0  0  0  0  0  0
   -1.1370    0.4306   -0.7177 C   0  0  0  0  0  0  0  0  0  0  0  0
   -2.2756   -0.5134   -0.3649 C   0  0  0  0  0  0  0  0  0  0  0  0
   -1.2916   -1.1602    0.6220 C   0  0  0  0  0  0  0  0  0  0  0  0
   -0.1961   -0.6867   -0.3445 C   0  0  0  0  0  0  0  0  0  0  0  0
    1.8264   -2.1366   -0.2759 H   0  0  0  0  0  0  0  0  0  0  0  0
    2.7444   -0.6701   -0.9173 H   0  0  0  0  0  0  0  0  0  0  0  0
    2.8908   -1.2187    0.8232 H   0  0  0  0  0  0  0  0  0  0  0  0
    0.9118   -0.3117    1.4172 H   0  0  0  0  0  0  0  0  0  0  0  0
    2.3187    1.5476    0.2125 H   0  0  0  0  0  0  0  0  0  0  0  0
    1.2208    1.2389   -1.2112 H   0  0  0  0  0  0  0  0  0  0  0  0
    0.4286    2.7941    1.1357 H   0  0  0  0  0  0  0  0  0  0  0  0
   -1.8581    2.1338    0.6071 H   0  0  0  0  0  0  0  0  0  0  0  0
   -1.1555    0.6894   -1.7932 H   0  0  0  0  0  0  0  0  0  0  0  0
   -3.1413   -0.0454    0.1154 H   0  0  0  0  0  0  0  0  0  0  0  0
   -2.4657   -1.1951   -1.2011 H   0  0  0  0  0  0  0  0  0  0  0  0
   -1.1948   -0.6305    1.5785 H   0  0  0  0  0  0  0  0  0  0  0  0
   -1.3828   -2.2563    0.6743 H   0  0  0  0  0  0  0  0  0  0  0  0
   -0.0425   -1.4048   -1.1807 H   0  0  0  0  0  0  0  0  0  0  0  0
  1  2  1  0
  2  3  1  0
  3  4  1  0
  4  5  2  0
  5  6  1  0
  6  7  1  0
  7  8  1  0
  8  9  1  0
  9  2  1  0
  9  6  1  0
  1 10  1  0
  1 11  1  0
  1 12  1  0
  2 13  1  0
  3 14  1  0
  3 15  1  0
  4 16  1  0
  5 17  1  0
  6 18  1  0
  7 19  1  0
  7 20  1  0
  8 21  1  0
  8 22  1  0
  9 23  1  0
M  END
