
     RDKit          3D

 14 14  0  0  0  0  0  0  0  0999 V2000
    1.7918    0.1638    0.0034 C   0  0  0  0  0  0  0  0  0  0  0  0
    0.3751   -0.1801   -0.4056 C   0  0  0  0  0  0  0  0  0  0  0  0
   -0.4231   -0.7090    0.7129 C   0  0  0  0  0  0  0  0  0  0  0  0
   -0.0257   -1.3130    1.6645 O   0  0  0  0  0  0  0  0  0  0  0  0
   -1.8188   -0.3458    0.4286 C   0  0  0  0  0  0  0  0  0  0  0  0
   -1.6898    0.8829   -0.2710 O   0  0  0  0  0  0  0  0  0  0  0  0
   -0.4071    1.0259   -0.7694 C   0  0  0  0  0  0  0  0  0  0  0  0
    0.0532    1.9905   -1.4198 O   0  0  0  0  0  0  0  0  0  0  0  0
    2.0050   -0.2624    1.0051 H   0  0  0  0  0  0  0  0  0  0  0  0
    2.5125   -0.3444   -0.6987 H   0  0  0  0  0  0  0  0  0  0  0  0
    2.0109    1.2389   -0.0721 H   0  0  0  0  0  0  0  0  0  0  0  0
    0.3713   -0.8544   -1.2898 H   0  0  0  0  0  0  0  0  0  0  0  0
   -2.3252   -1.0740   -0.2446 H   0  0  0  0  0  0  0  0  0  0  0  0
   -2.4299   -0.2191    1.3564 H   0  0  0  0  0  0  0  0  0  0  0  0
  1  2  1  0
  2  3  1  0
  3  4  2  0
  3  5  1  0
  5  6  1  0
  6  7  1  0
  7  8  2  0
  7  2  1  0
  1  9  1  0
  1 10  1  0
  1 11  1  0
  2 12  1  0
  5 13  1  0
  5 14  1  0
M  END
