
     RDKit          3D

 17 17  0  0  0  0  0  0  0  0999 V2000
   -2.0224    0.9407    0.3252 C   0  0  0  0  0  0  0  0  0  0  0  0
   -0.8601    0.3490   -0.4724 C   0  0  0  0  0  0  0  0  0  0  0  0
   -0.6825   -1.1235   -0.1698 C   0  0  0  0  0  0  0  0  0  0  0  0
    0.7753   -1.2151   -0.0071 C   0  0  0  0  0  0  0  0  0  0  0  0
    1.4528   -2.1908   -0.1221 O   0  0  0  0  0  0  0  0  0  0  0  0
    1.2235    0.1451    0.3267 C   0  0  0  0  0  0  0  0  0  0  0  0
    2.6282    0.4053   -0.1363 C   0  0  0  0  0  0  0  0  0  0  0  0
    3.5178   -0.2800    0.3209 O   0  0  0  0  0  0  0  0  0  0  0  0
    0.3187    0.9889   -0.2679 O   0  0  0  0  0  0  0  0  0  0  0  0
   -2.8698    0.2197    0.2245 H   0  0  0  0  0  0  0  0  0  0  0  0
   -1.7333    1.1014    1.3820 H   0  0  0  0  0  0  0  0  0  0  0  0
   -2.2896    1.8961   -0.1958 H   0  0  0  0  0  0  0  0  0  0  0  0
   -1.1430    0.4371   -1.5615 H   0  0  0  0  0  0  0  0  0  0  0  0
   -1.2399   -1.3479    0.7719 H   0  0  0  0  0  0  0  0  0  0  0  0
   -1.0737   -1.7515   -0.9964 H   0  0  0  0  0  0  0  0  0  0  0  0
    1.2348    0.2272    1.4370 H   0  0  0  0  0  0  0  0  0  0  0  0
    2.7632    1.1983   -0.8588 H   0  0  0  0  0  0  0  0  0  0  0  0
  1  2  1  0
  2  3  1  0
  3  4  1  0
  4  5  2  0
  4  6  1  0
  6  7  1  0
  7  8  2  0
  6  9  1  0
  9  2  1  0
  1 10  1  0
  1 11  1  0
  1 12  1  0
  2 13  1  0
  3 14  1  0
  3 15  1  0
  6 16  1  0
  7 17  1  0
M  END
