
     RDKit          3D

 17 17  0  0  0  0  0  0  0  0999 V2000
   -1.2821   -1.2393   -0.4307 C   0  0  0  0  0  0  0  0  0  0  0  0
   -0.3563   -0.6767    0.6313 C   0  0  0  0  0  0  0  0  0  0  0  0
   -0.1910    0.7746    0.7396 C   0  0  0  0  0  0  0  0  0  0  0  0
   -0.6590    1.7744   -0.1915 C   0  0  0  0  0  0  0  0  0  0  0  0
   -0.9334    1.6838   -1.3649 O   0  0  0  0  0  0  0  0  0  0  0  0
    0.9634   -0.1154    0.2733 C   0  0  0  0  0  0  0  0  0  0  0  0
    2.0077   -0.2745    1.2303 O   0  0  0  0  0  0  0  0  0  0  0  0
    1.4631   -0.0962   -1.1004 C   0  0  0  0  0  0  0  0  0  0  0  0
    0.7712   -0.0203   -2.0670 O   0  0  0  0  0  0  0  0  0  0  0  0
   -1.9359   -2.0386   -0.0534 H   0  0  0  0  0  0  0  0  0  0  0  0
   -1.9493   -0.4029   -0.7422 H   0  0  0  0  0  0  0  0  0  0  0  0
   -0.7555   -1.6183   -1.3062 H   0  0  0  0  0  0  0  0  0  0  0  0
   -0.3844   -1.2716    1.5673 H   0  0  0  0  0  0  0  0  0  0  0  0
   -0.0782    1.1697    1.8000 H   0  0  0  0  0  0  0  0  0  0  0  0
   -0.8023    2.8099    0.1991 H   0  0  0  0  0  0  0  0  0  0  0  0
    1.5826   -0.3053    2.1147 H   0  0  0  0  0  0  0  0  0  0  0  0
    2.5394   -0.1533   -1.2994 H   0  0  0  0  0  0  0  0  0  0  0  0
  1  2  1  0
  2  3  1  0
  3  4  1  0
  4  5  2  0
  3  6  1  0
  6  7  1  0
  6  8  1  0
  8  9  2  0
  6  2  1  0
  1 10  1  0
  1 11  1  0
  1 12  1  0
  2 13  1  0
  3 14  1  0
  4 15  1  0
  7 16  1  0
  8 17  1  0
M  END
