
     RDKit          3D

 23 25  0  0  0  0  0  0  0  0999 V2000
    2.2486   -0.2912   -1.1839 C   0  0  0  0  0  0  0  0  0  0  0  0
    1.0111    0.4858   -0.7884 C   0  0  0  0  0  0  0  0  0  0  0  0
    1.1157    0.7520    0.7255 C   0  0  0  0  0  0  0  0  0  0  0  0
    0.0010   -0.1274    1.2026 C   0  0  0  0  0  0  0  0  0  0  0  0
   -0.0334   -1.3461    0.3163 C   0  0  0  0  0  0  0  0  0  0  0  0
   -1.5248   -1.2975    0.4876 C   0  0  0  0  0  0  0  0  0  0  0  0
   -1.1440    0.1451    0.2738 C   0  0  0  0  0  0  0  0  0  0  0  0
   -1.9521    1.2359    0.2022 C   0  0  0  0  0  0  0  0  0  0  0  0
   -0.2077   -0.3792   -0.8049 C   0  0  0  0  0  0  0  0  0  0  0  0
    2.2270   -1.2933   -0.7094 H   0  0  0  0  0  0  0  0  0  0  0  0
    2.2087   -0.4177   -2.2860 H   0  0  0  0  0  0  0  0  0  0  0  0
    3.1575    0.2234   -0.8321 H   0  0  0  0  0  0  0  0  0  0  0  0
    0.9221    1.4156   -1.3457 H   0  0  0  0  0  0  0  0  0  0  0  0
    2.0989    0.4984    1.1145 H   0  0  0  0  0  0  0  0  0  0  0  0
    0.8280    1.8037    0.9486 H   0  0  0  0  0  0  0  0  0  0  0  0
   -0.1811   -0.2409    2.2495 H   0  0  0  0  0  0  0  0  0  0  0  0
    0.5636   -2.1474    0.3701 H   0  0  0  0  0  0  0  0  0  0  0  0
   -1.8422   -1.4393    1.5456 H   0  0  0  0  0  0  0  0  0  0  0  0
   -2.1334   -1.7676   -0.2817 H   0  0  0  0  0  0  0  0  0  0  0  0
   -1.9782    1.8864    1.1272 H   0  0  0  0  0  0  0  0  0  0  0  0
   -3.0476    1.0191    0.0175 H   0  0  0  0  0  0  0  0  0  0  0  0
   -1.7019    1.9752   -0.6175 H   0  0  0  0  0  0  0  0  0  0  0  0
   -0.6359   -0.6931   -1.7312 H   0  0  0  0  0  0  0  0  0  0  0  0
  1  2  1  0
  2  3  1  0
  3  4  1  0
  4  5  1  0
  5  6  1  0
  6  7  1  0
  7  8  1  0
  7  9  1  0
  9  2  1  0
  7  4  1  0
  9  5  1  0
  1 10  1  0
  1 11  1  0
  1 12  1  0
  2 13  1  0
  3 14  1  0
  3 15  1  0
  4 16  1  0
  5 17  1  0
  6 18  1  0
  6 19  1  0
  8 20  1  0
  8 21  1  0
  8 22  1  0
  9 23  1  0
M  END
