
     RDKit          3D

 21 21  0  0  0  0  0  0  0  0999 V2000
    2.0451   -1.0113    0.0659 C   0  0  0  0  0  0  0  0  0  0  0  0
    1.3040    0.2079    0.5255 C   0  0  0  0  0  0  0  0  0  0  0  0
    0.5637    0.8826   -0.6097 C   0  0  0  0  0  0  0  0  0  0  0  0
   -0.6941    0.2364   -0.1171 C   0  0  0  0  0  0  0  0  0  0  0  0
   -1.8161    1.2575   -0.0032 C   0  0  0  0  0  0  0  0  0  0  0  0
   -1.0899   -1.0565   -0.7532 C   0  0  0  0  0  0  0  0  0  0  0  0
   -0.0022   -0.0497    1.2235 C   0  0  0  0  0  0  0  0  0  0  0  0
    2.3699   -1.6275    0.9395 H   0  0  0  0  0  0  0  0  0  0  0  0
    2.9493   -0.6496   -0.4904 H   0  0  0  0  0  0  0  0  0  0  0  0
    1.4772   -1.6196   -0.6751 H   0  0  0  0  0  0  0  0  0  0  0  0
    1.9461    0.8477    1.1353 H   0  0  0  0  0  0  0  0  0  0  0  0
    0.5554    2.0017   -0.4681 H   0  0  0  0  0  0  0  0  0  0  0  0
    0.8590    0.5975   -1.6210 H   0  0  0  0  0  0  0  0  0  0  0  0
   -2.7450    0.7488   -0.3164 H   0  0  0  0  0  0  0  0  0  0  0  0
   -1.8498    1.6763    1.0128 H   0  0  0  0  0  0  0  0  0  0  0  0
   -1.6005    2.0976   -0.7082 H   0  0  0  0  0  0  0  0  0  0  0  0
   -0.8357   -1.9538   -0.1250 H   0  0  0  0  0  0  0  0  0  0  0  0
   -2.2196   -1.0666   -0.7864 H   0  0  0  0  0  0  0  0  0  0  0  0
   -0.7317   -1.1755   -1.7892 H   0  0  0  0  0  0  0  0  0  0  0  0
   -0.1686   -1.0643    1.6045 H   0  0  0  0  0  0  0  0  0  0  0  0
   -0.3163    0.7204    1.9557 H   0  0  0  0  0  0  0  0  0  0  0  0
  1  2  1  0
  2  3  1  0
  3  4  1  0
  4  5  1  0
  4  6  1  0
  4  7  1  0
  7  2  1  0
  1  8  1  0
  1  9  1  0
  1 10  1  0
  2 11  1  0
  3 12  1  0
  3 13  1  0
  5 14  1  0
  5 15  1  0
  5 16  1  0
  6 17  1  0
  6 18  1  0
  6 19  1  0
  7 20  1  0
  7 21  1  0
M  END
