
     RDKit          3D

 19 20  0  0  0  0  0  0  0  0999 V2000
   -1.6776   -1.0453   -0.6732 C   0  0  0  0  0  0  0  0  0  0  0  0
   -1.0443    0.1023    0.0204 C   0  0  0  0  0  0  0  0  0  0  0  0
   -0.0884   -0.3386    1.1399 C   0  0  0  0  0  0  0  0  0  0  0  0
    0.6482    0.9699    1.3335 C   0  0  0  0  0  0  0  0  0  0  0  0
    0.7086    1.5987    0.1692 C   0  0  0  0  0  0  0  0  0  0  0  0
   -0.0191    0.8258   -0.8666 C   0  0  0  0  0  0  0  0  0  0  0  0
    0.8382   -0.1637   -1.3857 O   0  0  0  0  0  0  0  0  0  0  0  0
    1.5961   -0.6667   -0.3325 C   0  0  0  0  0  0  0  0  0  0  0  0
    0.8364   -1.2488    0.6633 O   0  0  0  0  0  0  0  0  0  0  0  0
   -2.7498   -1.1162   -0.3331 H   0  0  0  0  0  0  0  0  0  0  0  0
   -1.2274   -2.0349   -0.4433 H   0  0  0  0  0  0  0  0  0  0  0  0
   -1.7255   -0.9311   -1.7762 H   0  0  0  0  0  0  0  0  0  0  0  0
   -1.7202    0.8397    0.4511 H   0  0  0  0  0  0  0  0  0  0  0  0
   -0.6294   -0.6460    2.0285 H   0  0  0  0  0  0  0  0  0  0  0  0
    1.0316    1.2675    2.3016 H   0  0  0  0  0  0  0  0  0  0  0  0
    1.2099    2.5303   -0.0013 H   0  0  0  0  0  0  0  0  0  0  0  0
   -0.4871    1.4305   -1.6354 H   0  0  0  0  0  0  0  0  0  0  0  0
    2.2701    0.1144    0.1118 H   0  0  0  0  0  0  0  0  0  0  0  0
    2.2297   -1.4879   -0.7720 H   0  0  0  0  0  0  0  0  0  0  0  0
  1  2  1  0
  2  3  1  0
  3  4  1  0
  4  5  2  0
  5  6  1  0
  6  7  1  0
  7  8  1  0
  8  9  1  0
  6  2  1  0
  9  3  1  0
  1 10  1  0
  1 11  1  0
  1 12  1  0
  2 13  1  0
  3 14  1  0
  4 15  1  0
  5 16  1  0
  6 17  1  0
  8 18  1  0
  8 19  1  0
M  END
