
     RDKit          3D

 19 21  0  0  0  0  0  0  0  0999 V2000
    2.4275    0.1533   -0.3087 C   0  0  0  0  0  0  0  0  0  0  0  0
    0.9216    0.1975   -0.4399 C   0  0  0  0  0  0  0  0  0  0  0  0
    0.3306   -1.1212   -0.0938 C   0  0  0  0  0  0  0  0  0  0  0  0
    0.5206   -0.7544    1.2611 O   0  0  0  0  0  0  0  0  0  0  0  0
    0.1820    0.5473    0.8141 C   0  0  0  0  0  0  0  0  0  0  0  0
   -1.2559    0.4468    0.4431 C   0  0  0  0  0  0  0  0  0  0  0  0
   -2.1365    0.6003    1.5071 O   0  0  0  0  0  0  0  0  0  0  0  0
   -1.7706    0.1527   -0.8804 C   0  0  0  0  0  0  0  0  0  0  0  0
   -1.1758   -0.9913   -0.1876 C   0  0  0  0  0  0  0  0  0  0  0  0
    2.8848    1.1395   -0.5770 H   0  0  0  0  0  0  0  0  0  0  0  0
    2.7785   -0.6546   -1.0041 H   0  0  0  0  0  0  0  0  0  0  0  0
    2.6746   -0.1282    0.7186 H   0  0  0  0  0  0  0  0  0  0  0  0
    0.6413    0.6877   -1.3615 H   0  0  0  0  0  0  0  0  0  0  0  0
    0.7867   -2.0303   -0.4179 H   0  0  0  0  0  0  0  0  0  0  0  0
    0.5271    1.3630    1.4184 H   0  0  0  0  0  0  0  0  0  0  0  0
   -2.3972    1.5751    1.5114 H   0  0  0  0  0  0  0  0  0  0  0  0
   -1.3189    0.4277   -1.8356 H   0  0  0  0  0  0  0  0  0  0  0  0
   -2.8980    0.1190   -0.9540 H   0  0  0  0  0  0  0  0  0  0  0  0
   -1.7225   -1.7298    0.3869 H   0  0  0  0  0  0  0  0  0  0  0  0
  1  2  1  0
  2  3  1  0
  3  4  1  0
  4  5  1  0
  5  6  1  0
  6  7  1  0
  6  8  1  0
  8  9  1  0
  5  2  1  0
  9  6  1  0
  9  3  1  0
  1 10  1  0
  1 11  1  0
  1 12  1  0
  2 13  1  0
  3 14  1  0
  5 15  1  0
  7 16  1  0
  8 17  1  0
  8 18  1  0
  9 19  1  0
M  END
