
     RDKit          3D

 21 22  0  0  0  0  0  0  0  0999 V2000
   -0.1845   -1.7367   -0.5943 C   0  0  0  0  0  0  0  0  0  0  0  0
   -0.1050   -0.6716    0.4381 C   0  0  0  0  0  0  0  0  0  0  0  0
   -0.8729    0.5838    0.0996 C   0  0  0  0  0  0  0  0  0  0  0  0
   -2.2672    0.7027    0.4196 C   0  0  0  0  0  0  0  0  0  0  0  0
   -0.3777    0.9785   -1.2604 C   0  0  0  0  0  0  0  0  0  0  0  0
    0.9355    0.8133   -1.1101 C   0  0  0  0  0  0  0  0  0  0  0  0
    0.9883    0.3344    0.3202 C   0  0  0  0  0  0  0  0  0  0  0  0
    2.2755    0.1313    0.9398 C   0  0  0  0  0  0  0  0  0  0  0  0
    0.0838    1.2505    0.9042 O   0  0  0  0  0  0  0  0  0  0  0  0
   -1.1648   -2.2711   -0.4497 H   0  0  0  0  0  0  0  0  0  0  0  0
   -0.1780   -1.2676   -1.5950 H   0  0  0  0  0  0  0  0  0  0  0  0
    0.6002   -2.4888   -0.4412 H   0  0  0  0  0  0  0  0  0  0  0  0
   -0.2783   -0.9572    1.4846 H   0  0  0  0  0  0  0  0  0  0  0  0
   -2.8286    1.2120   -0.4129 H   0  0  0  0  0  0  0  0  0  0  0  0
   -2.7520   -0.3004    0.5036 H   0  0  0  0  0  0  0  0  0  0  0  0
   -2.5412    1.2621    1.3387 H   0  0  0  0  0  0  0  0  0  0  0  0
   -0.9801    1.3013   -2.0951 H   0  0  0  0  0  0  0  0  0  0  0  0
    1.7729    0.9589   -1.7713 H   0  0  0  0  0  0  0  0  0  0  0  0
    2.2500    0.3589    2.0175 H   0  0  0  0  0  0  0  0  0  0  0  0
    2.5722   -0.9496    0.8328 H   0  0  0  0  0  0  0  0  0  0  0  0
    3.0520    0.7553    0.4309 H   0  0  0  0  0  0  0  0  0  0  0  0
  1  2  1  0
  2  3  1  0
  3  4  1  0
  3  5  1  0
  5  6  2  0
  6  7  1  0
  7  8  1  0
  7  9  1  0
  7  2  1  0
  9  3  1  0
  1 10  1  0
  1 11  1  0
  1 12  1  0
  2 13  1  0
  4 14  1  0
  4 15  1  0
  4 16  1  0
  5 17  1  0
  6 18  1  0
  8 19  1  0
  8 20  1  0
  8 21  1  0
M  END
