
     RDKit          3D

 23 23  0  0  0  0  0  0  0  0999 V2000
   -2.6979    0.9128    0.2272 C   0  0  0  0  0  0  0  0  0  0  0  0
   -1.5056    0.3516   -0.4971 C   0  0  0  0  0  0  0  0  0  0  0  0
   -1.5576   -1.1505   -0.6357 C   0  0  0  0  0  0  0  0  0  0  0  0
   -0.2715   -1.6278   -0.5975 O   0  0  0  0  0  0  0  0  0  0  0  0
    0.5946   -0.5862   -0.3829 C   0  0  0  0  0  0  0  0  0  0  0  0
    1.8064   -0.9720    0.4284 C   0  0  0  0  0  0  0  0  0  0  0  0
    2.6924    0.2397    0.6074 C   0  0  0  0  0  0  0  0  0  0  0  0
    3.0718    0.6744   -0.6583 O   0  0  0  0  0  0  0  0  0  0  0  0
   -0.2293    0.4885    0.3168 C   0  0  0  0  0  0  0  0  0  0  0  0
   -3.5910    0.6827   -0.3874 H   0  0  0  0  0  0  0  0  0  0  0  0
   -2.5925    2.0128    0.2305 H   0  0  0  0  0  0  0  0  0  0  0  0
   -2.8353    0.4820    1.2338 H   0  0  0  0  0  0  0  0  0  0  0  0
   -1.3672    0.8805   -1.4378 H   0  0  0  0  0  0  0  0  0  0  0  0
   -2.1123   -1.5174    0.2788 H   0  0  0  0  0  0  0  0  0  0  0  0
   -2.1243   -1.4619   -1.5481 H   0  0  0  0  0  0  0  0  0  0  0  0
    0.9035   -0.1737   -1.3527 H   0  0  0  0  0  0  0  0  0  0  0  0
    2.3816   -1.6967   -0.1842 H   0  0  0  0  0  0  0  0  0  0  0  0
    1.5353   -1.4401    1.3791 H   0  0  0  0  0  0  0  0  0  0  0  0
    2.0983    1.0087    1.1529 H   0  0  0  0  0  0  0  0  0  0  0  0
    3.6012   -0.0349    1.1586 H   0  0  0  0  0  0  0  0  0  0  0  0
    2.3622    1.3225   -0.9563 H   0  0  0  0  0  0  0  0  0  0  0  0
   -0.3842    0.1306    1.3722 H   0  0  0  0  0  0  0  0  0  0  0  0
    0.2215    1.4745    0.2522 H   0  0  0  0  0  0  0  0  0  0  0  0
  1  2  1  0
  2  3  1  0
  3  4  1  0
  4  5  1  0
  5  6  1  0
  6  7  1  0
  7  8  1  0
  5  9  1  0
  9  2  1  0
  1 10  1  0
  1 11  1  0
  1 12  1  0
  2 13  1  0
  3 14  1  0
  3 15  1  0
  5 16  1  0
  6 17  1  0
  6 18  1  0
  7 19  1  0
  7 20  1  0
  8 21  1  0
  9 22  1  0
  9 23  1  0
M  END
