
     RDKit          3D

 21 22  0  0  0  0  0  0  0  0999 V2000
    2.6262    0.0026    0.3179 C   0  0  0  0  0  0  0  0  0  0  0  0
    1.3480    0.2131   -0.4472 C   0  0  0  0  0  0  0  0  0  0  0  0
    0.5886   -1.1075   -0.5365 C   0  0  0  0  0  0  0  0  0  0  0  0
   -0.4143   -0.5863    0.4825 C   0  0  0  0  0  0  0  0  0  0  0  0
   -1.7659   -0.4546   -0.1246 C   0  0  0  0  0  0  0  0  0  0  0  0
   -2.7990   -0.5674    0.8223 O   0  0  0  0  0  0  0  0  0  0  0  0
   -1.8635    0.9036   -0.7072 C   0  0  0  0  0  0  0  0  0  0  0  0
   -0.7722    1.5485   -0.4204 C   0  0  0  0  0  0  0  0  0  0  0  0
    0.1995    0.7695    0.3674 C   0  0  0  0  0  0  0  0  0  0  0  0
    2.4014   -0.6047    1.2361 H   0  0  0  0  0  0  0  0  0  0  0  0
    3.2872   -0.6215   -0.3183 H   0  0  0  0  0  0  0  0  0  0  0  0
    3.1294    0.9341    0.6070 H   0  0  0  0  0  0  0  0  0  0  0  0
    1.4807    0.7277   -1.4024 H   0  0  0  0  0  0  0  0  0  0  0  0
    1.1261   -1.9791   -0.1274 H   0  0  0  0  0  0  0  0  0  0  0  0
    0.1608   -1.2769   -1.5463 H   0  0  0  0  0  0  0  0  0  0  0  0
   -0.3449   -1.0836    1.4665 H   0  0  0  0  0  0  0  0  0  0  0  0
   -1.9674   -1.2499   -0.8763 H   0  0  0  0  0  0  0  0  0  0  0  0
   -3.6318   -0.6737    0.2743 H   0  0  0  0  0  0  0  0  0  0  0  0
   -2.7082    1.2634   -1.2672 H   0  0  0  0  0  0  0  0  0  0  0  0
   -0.5720    2.5828   -0.7280 H   0  0  0  0  0  0  0  0  0  0  0  0
    0.4913    1.2600    1.3098 H   0  0  0  0  0  0  0  0  0  0  0  0
  1  2  1  0
  2  3  1  0
  3  4  1  0
  4  5  1  0
  5  6  1  0
  5  7  1  0
  7  8  2  0
  8  9  1  0
  9  2  1  0
  9  4  1  0
  1 10  1  0
  1 11  1  0
  1 12  1  0
  2 13  1  0
  3 14  1  0
  3 15  1  0
  4 16  1  0
  5 17  1  0
  6 18  1  0
  7 19  1  0
  8 20  1  0
  9 21  1  0
M  END
