
     RDKit          3D

 23 24  0  0  0  0  0  0  0  0999 V2000
    1.7685   -1.8082   -0.3204 C   0  0  0  0  0  0  0  0  0  0  0  0
    0.7676   -0.6987   -0.3105 C   0  0  0  0  0  0  0  0  0  0  0  0
   -0.2480   -0.9205    0.8109 C   0  0  0  0  0  0  0  0  0  0  0  0
   -1.1521    0.3192    0.7817 C   0  0  0  0  0  0  0  0  0  0  0  0
   -2.2062    0.1509   -0.2660 C   0  0  0  0  0  0  0  0  0  0  0  0
   -0.2814    1.5197    0.5923 C   0  0  0  0  0  0  0  0  0  0  0  0
    0.3347    1.6404   -0.7550 C   0  0  0  0  0  0  0  0  0  0  0  0
    1.3328    0.6620   -0.1283 C   0  0  0  0  0  0  0  0  0  0  0  0
    0.9731    1.2330    1.1142 O   0  0  0  0  0  0  0  0  0  0  0  0
    2.3837   -1.7908   -1.2258 H   0  0  0  0  0  0  0  0  0  0  0  0
    2.3558   -1.8691    0.6124 H   0  0  0  0  0  0  0  0  0  0  0  0
    1.1793   -2.7660   -0.3670 H   0  0  0  0  0  0  0  0  0  0  0  0
    0.2028   -0.7424   -1.2721 H   0  0  0  0  0  0  0  0  0  0  0  0
   -0.8094   -1.8455    0.6818 H   0  0  0  0  0  0  0  0  0  0  0  0
    0.3595   -0.8979    1.7586 H   0  0  0  0  0  0  0  0  0  0  0  0
   -1.6710    0.4340    1.7635 H   0  0  0  0  0  0  0  0  0  0  0  0
   -3.0180   -0.4912    0.1780 H   0  0  0  0  0  0  0  0  0  0  0  0
   -1.8395   -0.3822   -1.1648 H   0  0  0  0  0  0  0  0  0  0  0  0
   -2.6704    1.1095   -0.5223 H   0  0  0  0  0  0  0  0  0  0  0  0
   -0.7457    2.4581    0.9103 H   0  0  0  0  0  0  0  0  0  0  0  0
    0.8213    2.6134   -0.8904 H   0  0  0  0  0  0  0  0  0  0  0  0
   -0.2116    1.2300   -1.6146 H   0  0  0  0  0  0  0  0  0  0  0  0
    2.3739    0.8426   -0.3664 H   0  0  0  0  0  0  0  0  0  0  0  0
  1  2  1  0
  2  3  1  0
  3  4  1  0
  4  5  1  0
  4  6  1  0
  6  7  1  0
  7  8  1  0
  8  9  1  0
  8  2  1  0
  9  6  1  0
  1 10  1  0
  1 11  1  0
  1 12  1  0
  2 13  1  0
  3 14  1  0
  3 15  1  0
  4 16  1  0
  5 17  1  0
  5 18  1  0
  5 19  1  0
  6 20  1  0
  7 21  1  0
  7 22  1  0
  8 23  1  0
M  END
