
     RDKit          3D

 21 22  0  0  0  0  0  0  0  0999 V2000
   -1.4290    1.1939   -1.3646 C   0  0  0  0  0  0  0  0  0  0  0  0
   -0.1300    0.5826   -0.9671 C   0  0  0  0  0  0  0  0  0  0  0  0
   -0.2741   -0.9260   -0.7010 C   0  0  0  0  0  0  0  0  0  0  0  0
   -1.2473   -0.8342    0.4745 C   0  0  0  0  0  0  0  0  0  0  0  0
   -0.8417    0.2707    1.1921 O   0  0  0  0  0  0  0  0  0  0  0  0
    0.1941    0.8937    0.5065 C   0  0  0  0  0  0  0  0  0  0  0  0
    1.4550    0.0623    0.6376 C   0  0  0  0  0  0  0  0  0  0  0  0
    1.8186   -0.1797    1.9362 O   0  0  0  0  0  0  0  0  0  0  0  0
    1.0689   -1.2229   -0.1098 C   0  0  0  0  0  0  0  0  0  0  0  0
   -2.0893    1.1929   -0.4574 H   0  0  0  0  0  0  0  0  0  0  0  0
   -1.2577    2.2108   -1.7105 H   0  0  0  0  0  0  0  0  0  0  0  0
   -1.9227    0.6307   -2.1865 H   0  0  0  0  0  0  0  0  0  0  0  0
    0.7161    0.8065   -1.6159 H   0  0  0  0  0  0  0  0  0  0  0  0
   -0.6008   -1.4980   -1.5291 H   0  0  0  0  0  0  0  0  0  0  0  0
   -1.1036   -1.7851    1.0448 H   0  0  0  0  0  0  0  0  0  0  0  0
   -2.2972   -0.7890    0.1298 H   0  0  0  0  0  0  0  0  0  0  0  0
    0.3155    1.9409    0.7002 H   0  0  0  0  0  0  0  0  0  0  0  0
    2.2484    0.6078    0.0840 H   0  0  0  0  0  0  0  0  0  0  0  0
    2.6089    0.3739    2.2292 H   0  0  0  0  0  0  0  0  0  0  0  0
    1.8294   -1.5390   -0.8156 H   0  0  0  0  0  0  0  0  0  0  0  0
    0.9384   -1.9928    0.6978 H   0  0  0  0  0  0  0  0  0  0  0  0
  1  2  1  0
  2  3  1  0
  3  4  1  0
  4  5  1  0
  5  6  1  0
  6  7  1  0
  7  8  1  0
  7  9  1  0
  6  2  1  0
  9  3  1  0
  1 10  1  0
  1 11  1  0
  1 12  1  0
  2 13  1  0
  3 14  1  0
  4 15  1  0
  4 16  1  0
  6 17  1  0
  7 18  1  0
  8 19  1  0
  9 20  1  0
  9 21  1  0
M  END
