
     RDKit          3D

 21 22  0  0  0  0  0  0  0  0999 V2000
    2.3203    0.0916   -0.3122 C   0  0  0  0  0  0  0  0  0  0  0  0
    1.0984   -0.1807    0.4788 C   0  0  0  0  0  0  0  0  0  0  0  0
    0.6068   -1.6106    0.3795 C   0  0  0  0  0  0  0  0  0  0  0  0
   -0.6827   -1.5530    0.8238 O   0  0  0  0  0  0  0  0  0  0  0  0
   -1.2211   -0.3260    0.5345 C   0  0  0  0  0  0  0  0  0  0  0  0
   -2.4322   -0.3916   -0.3566 C   0  0  0  0  0  0  0  0  0  0  0  0
   -0.1310    0.5567   -0.0104 C   0  0  0  0  0  0  0  0  0  0  0  0
   -0.2123    1.9371   -0.2634 C   0  0  0  0  0  0  0  0  0  0  0  0
   -0.1921    0.9976   -1.3106 O   0  0  0  0  0  0  0  0  0  0  0  0
    2.1508    0.3790   -1.3639 H   0  0  0  0  0  0  0  0  0  0  0  0
    3.0160   -0.7843   -0.2506 H   0  0  0  0  0  0  0  0  0  0  0  0
    2.8814    0.9242    0.2032 H   0  0  0  0  0  0  0  0  0  0  0  0
    1.2231    0.0599    1.5381 H   0  0  0  0  0  0  0  0  0  0  0  0
    0.6834   -1.8822   -0.7143 H   0  0  0  0  0  0  0  0  0  0  0  0
    1.1837   -2.2855    1.0109 H   0  0  0  0  0  0  0  0  0  0  0  0
   -1.5678    0.1659    1.4913 H   0  0  0  0  0  0  0  0  0  0  0  0
   -2.5571    0.6029   -0.8303 H   0  0  0  0  0  0  0  0  0  0  0  0
   -2.3458   -1.2231   -1.0569 H   0  0  0  0  0  0  0  0  0  0  0  0
   -3.3404   -0.5459    0.2931 H   0  0  0  0  0  0  0  0  0  0  0  0
    0.6952    2.5822   -0.1898 H   0  0  0  0  0  0  0  0  0  0  0  0
   -1.1765    2.4859   -0.0941 H   0  0  0  0  0  0  0  0  0  0  0  0
  1  2  1  0
  2  3  1  0
  3  4  1  0
  4  5  1  0
  5  6  1  0
  5  7  1  0
  7  8  1  0
  8  9  1  0
  7  2  1  0
  9  7  1  0
  1 10  1  0
  1 11  1  0
  1 12  1  0
  2 13  1  0
  3 14  1  0
  3 15  1  0
  5 16  1  0
  6 17  1  0
  6 18  1  0
  6 19  1  0
  8 20  1  0
  8 21  1  0
M  END
