
     RDKit          3D

 25 25  0  0  0  0  0  0  0  0999 V2000
    3.0860    0.2934   -0.1046 C   0  0  0  0  0  0  0  0  0  0  0  0
    1.6218    0.3852    0.1236 C   0  0  0  0  0  0  0  0  0  0  0  0
    1.1232   -0.9770    0.6265 C   0  0  0  0  0  0  0  0  0  0  0  0
   -0.2736   -0.7302    1.1361 C   0  0  0  0  0  0  0  0  0  0  0  0
   -1.1199    0.0304    0.1571 C   0  0  0  0  0  0  0  0  0  0  0  0
   -2.1708    0.7845    0.9786 C   0  0  0  0  0  0  0  0  0  0  0  0
   -1.8453   -0.9938   -0.6945 C   0  0  0  0  0  0  0  0  0  0  0  0
   -0.3752    1.0422   -0.6422 C   0  0  0  0  0  0  0  0  0  0  0  0
    0.8877    0.6116   -1.0550 O   0  0  0  0  0  0  0  0  0  0  0  0
    3.5019   -0.5107    0.5690 H   0  0  0  0  0  0  0  0  0  0  0  0
    3.3781    0.0621   -1.1291 H   0  0  0  0  0  0  0  0  0  0  0  0
    3.5481    1.2496    0.2561 H   0  0  0  0  0  0  0  0  0  0  0  0
    1.3190    1.1992    0.8256 H   0  0  0  0  0  0  0  0  0  0  0  0
    1.0467   -1.6646   -0.2314 H   0  0  0  0  0  0  0  0  0  0  0  0
    1.7986   -1.2810    1.4171 H   0  0  0  0  0  0  0  0  0  0  0  0
   -0.7282   -1.7295    1.3286 H   0  0  0  0  0  0  0  0  0  0  0  0
   -0.1739   -0.1536    2.0802 H   0  0  0  0  0  0  0  0  0  0  0  0
   -1.8472    0.8709    2.0396 H   0  0  0  0  0  0  0  0  0  0  0  0
   -3.1525    0.2559    0.9300 H   0  0  0  0  0  0  0  0  0  0  0  0
   -2.3495    1.7975    0.5817 H   0  0  0  0  0  0  0  0  0  0  0  0
   -1.1353   -1.6013   -1.2641 H   0  0  0  0  0  0  0  0  0  0  0  0
   -2.3596   -1.6788    0.0332 H   0  0  0  0  0  0  0  0  0  0  0  0
   -2.5991   -0.5629   -1.3499 H   0  0  0  0  0  0  0  0  0  0  0  0
   -0.1771    1.9236    0.0346 H   0  0  0  0  0  0  0  0  0  0  0  0
   -1.0039    1.3773   -1.4783 H   0  0  0  0  0  0  0  0  0  0  0  0
  1  2  1  0
  2  3  1  0
  3  4  1  0
  4  5  1  0
  5  6  1  0
  5  7  1  0
  5  8  1  0
  8  9  1  0
  9  2  1  0
  1 10  1  0
  1 11  1  0
  1 12  1  0
  2 13  1  0
  3 14  1  0
  3 15  1  0
  4 16  1  0
  4 17  1  0
  6 18  1  0
  6 19  1  0
  6 20  1  0
  7 21  1  0
  7 22  1  0
  7 23  1  0
  8 24  1  0
  8 25  1  0
M  END
