
     RDKit          3D

 21 22  0  0  0  0  0  0  0  0999 V2000
   -0.8401   -2.0982   -0.0596 C   0  0  0  0  0  0  0  0  0  0  0  0
   -0.6191   -0.7642   -0.6828 C   0  0  0  0  0  0  0  0  0  0  0  0
   -0.9538    0.4134    0.2085 C   0  0  0  0  0  0  0  0  0  0  0  0
   -1.3028    0.2156    1.5179 O   0  0  0  0  0  0  0  0  0  0  0  0
   -0.9483    1.7755   -0.4056 C   0  0  0  0  0  0  0  0  0  0  0  0
    0.4533    1.5087   -0.9541 C   0  0  0  0  0  0  0  0  0  0  0  0
    0.4165    0.1728   -0.2595 C   0  0  0  0  0  0  0  0  0  0  0  0
    1.5432   -0.1803    0.6533 C   0  0  0  0  0  0  0  0  0  0  0  0
    2.3236   -1.1990    0.1140 O   0  0  0  0  0  0  0  0  0  0  0  0
   -1.8428   -2.4854   -0.4070 H   0  0  0  0  0  0  0  0  0  0  0  0
   -0.1132   -2.8697   -0.3656 H   0  0  0  0  0  0  0  0  0  0  0  0
   -0.9477   -2.0333    1.0539 H   0  0  0  0  0  0  0  0  0  0  0  0
   -1.0246   -0.6192   -1.7235 H   0  0  0  0  0  0  0  0  0  0  0  0
   -1.9256    0.9035    1.8523 H   0  0  0  0  0  0  0  0  0  0  0  0
   -1.6446    1.9312   -1.2587 H   0  0  0  0  0  0  0  0  0  0  0  0
   -0.9761    2.5676    0.3613 H   0  0  0  0  0  0  0  0  0  0  0  0
    1.2278    2.1638   -0.4994 H   0  0  0  0  0  0  0  0  0  0  0  0
    0.5068    1.4038   -2.0449 H   0  0  0  0  0  0  0  0  0  0  0  0
    2.2009    0.7148    0.7525 H   0  0  0  0  0  0  0  0  0  0  0  0
    1.2220   -0.4364    1.6806 H   0  0  0  0  0  0  0  0  0  0  0  0
    3.2446   -1.0851    0.4665 H   0  0  0  0  0  0  0  0  0  0  0  0
  1  2  1  0
  2  3  1  0
  3  4  1  0
  3  5  1  0
  5  6  1  0
  6  7  1  0
  7  8  1  0
  8  9  1  0
  7  2  1  0
  7  3  1  0
  1 10  1  0
  1 11  1  0
  1 12  1  0
  2 13  1  0
  4 14  1  0
  5 15  1  0
  5 16  1  0
  6 17  1  0
  6 18  1  0
  8 19  1  0
  8 20  1  0
  9 21  1  0
M  END
