
     RDKit          3D

 21 23  0  0  0  0  0  0  0  0999 V2000
   -2.7631    0.2687    0.1055 C   0  0  0  0  0  0  0  0  0  0  0  0
   -1.3472    0.3040   -0.3647 C   0  0  0  0  0  0  0  0  0  0  0  0
   -0.4040   -0.6423    0.3708 C   0  0  0  0  0  0  0  0  0  0  0  0
    0.5671   -1.3593   -0.5072 C   0  0  0  0  0  0  0  0  0  0  0  0
    1.9876   -0.8640   -0.3496 C   0  0  0  0  0  0  0  0  0  0  0  0
    2.0888    0.6188   -0.4208 C   0  0  0  0  0  0  0  0  0  0  0  0
    1.1984    1.1025   -1.5111 O   0  0  0  0  0  0  0  0  0  0  0  0
    0.9635    1.4009   -0.1619 C   0  0  0  0  0  0  0  0  0  0  0  0
   -0.2417    0.7946    0.5001 C   0  0  0  0  0  0  0  0  0  0  0  0
   -2.9036   -0.3507    1.0341 H   0  0  0  0  0  0  0  0  0  0  0  0
   -3.3573   -0.2777   -0.6826 H   0  0  0  0  0  0  0  0  0  0  0  0
   -3.2334    1.2573    0.1958 H   0  0  0  0  0  0  0  0  0  0  0  0
   -1.2079    0.4613   -1.4399 H   0  0  0  0  0  0  0  0  0  0  0  0
   -0.8136   -1.1945    1.2469 H   0  0  0  0  0  0  0  0  0  0  0  0
    0.2538   -1.3215   -1.5675 H   0  0  0  0  0  0  0  0  0  0  0  0
    0.5717   -2.4334   -0.2249 H   0  0  0  0  0  0  0  0  0  0  0  0
    2.4912   -1.2918    0.5167 H   0  0  0  0  0  0  0  0  0  0  0  0
    2.5373   -1.2568   -1.2568 H   0  0  0  0  0  0  0  0  0  0  0  0
    3.1008    1.0230   -0.4729 H   0  0  0  0  0  0  0  0  0  0  0  0
    1.0823    2.4887    0.0448 H   0  0  0  0  0  0  0  0  0  0  0  0
   -0.5707    1.2721    1.4451 H   0  0  0  0  0  0  0  0  0  0  0  0
  1  2  1  0
  2  3  1  0
  3  4  1  0
  4  5  1  0
  5  6  1  0
  6  7  1  0
  7  8  1  0
  8  9  1  0
  9  2  1  0
  9  3  1  0
  8  6  1  0
  1 10  1  0
  1 11  1  0
  1 12  1  0
  2 13  1  0
  3 14  1  0
  4 15  1  0
  4 16  1  0
  5 17  1  0
  5 18  1  0
  6 19  1  0
  8 20  1  0
  9 21  1  0
M  END
