
     RDKit          3D

 23 24  0  0  0  0  0  0  0  0999 V2000
    2.7556   -0.0694    0.2679 C   0  0  0  0  0  0  0  0  0  0  0  0
    1.4314   -0.2494   -0.3625 C   0  0  0  0  0  0  0  0  0  0  0  0
    0.7285    1.0056   -0.7566 C   0  0  0  0  0  0  0  0  0  0  0  0
   -0.7277    0.6016   -0.8550 C   0  0  0  0  0  0  0  0  0  0  0  0
   -1.5636    1.2971    0.1581 C   0  0  0  0  0  0  0  0  0  0  0  0
   -2.3419    0.4512    0.8156 C   0  0  0  0  0  0  0  0  0  0  0  0
   -2.1082   -0.9159    0.3075 C   0  0  0  0  0  0  0  0  0  0  0  0
   -0.7858   -0.8448   -0.3520 C   0  0  0  0  0  0  0  0  0  0  0  0
    0.3892   -0.8498    0.5932 C   0  0  0  0  0  0  0  0  0  0  0  0
    2.9820   -0.9922    0.8732 H   0  0  0  0  0  0  0  0  0  0  0  0
    3.5307   -0.0936   -0.5526 H   0  0  0  0  0  0  0  0  0  0  0  0
    2.8786    0.8221    0.8821 H   0  0  0  0  0  0  0  0  0  0  0  0
    1.4949   -0.9015   -1.2556 H   0  0  0  0  0  0  0  0  0  0  0  0
    0.7923    1.7882    0.0541 H   0  0  0  0  0  0  0  0  0  0  0  0
    1.1061    1.4687   -1.6841 H   0  0  0  0  0  0  0  0  0  0  0  0
   -1.1107    0.6967   -1.8821 H   0  0  0  0  0  0  0  0  0  0  0  0
   -1.5709    2.3730    0.3717 H   0  0  0  0  0  0  0  0  0  0  0  0
   -3.0534    0.6889    1.6103 H   0  0  0  0  0  0  0  0  0  0  0  0
   -2.1759   -1.6836    1.1060 H   0  0  0  0  0  0  0  0  0  0  0  0
   -2.8743   -1.0949   -0.4906 H   0  0  0  0  0  0  0  0  0  0  0  0
   -0.6454   -1.5483   -1.1875 H   0  0  0  0  0  0  0  0  0  0  0  0
    0.1926   -0.1123    1.3987 H   0  0  0  0  0  0  0  0  0  0  0  0
    0.6757   -1.8376    0.9406 H   0  0  0  0  0  0  0  0  0  0  0  0
  1  2  1  0
  2  3  1  0
  3  4  1  0
  4  5  1  0
  5  6  2  0
  6  7  1  0
  7  8  1  0
  8  9  1  0
  9  2  1  0
  8  4  1  0
  1 10  1  0
  1 11  1  0
  1 12  1  0
  2 13  1  0
  3 14  1  0
  3 15  1  0
  4 16  1  0
  5 17  1  0
  6 18  1  0
  7 19  1  0
  7 20  1  0
  8 21  1  0
  9 22  1  0
  9 23  1  0
M  END
