
     RDKit          3D

 20 20  0  0  0  0  0  0  0  0999 V2000
    1.8533   -0.2776    0.9219 C   0  0  0  0  0  0  0  0  0  0  0  0
    1.1286    0.1716   -0.3457 C   0  0  0  0  0  0  0  0  0  0  0  0
    0.4694   -0.9750   -0.9571 C   0  0  0  0  0  0  0  0  0  0  0  0
   -0.9347   -1.2150   -0.6375 C   0  0  0  0  0  0  0  0  0  0  0  0
   -1.9122   -0.5468   -0.0616 C   0  0  0  0  0  0  0  0  0  0  0  0
   -1.8088    0.8274    0.4886 C   0  0  0  0  0  0  0  0  0  0  0  0
   -0.5802    1.0558    1.0648 O   0  0  0  0  0  0  0  0  0  0  0  0
    0.2965    1.3503    0.0015 C   0  0  0  0  0  0  0  0  0  0  0  0
    1.2833   -0.0120    1.8366 H   0  0  0  0  0  0  0  0  0  0  0  0
    1.9594   -1.3991    0.9082 H   0  0  0  0  0  0  0  0  0  0  0  0
    2.8657    0.1551    0.9960 H   0  0  0  0  0  0  0  0  0  0  0  0
    1.9474    0.5375   -1.0327 H   0  0  0  0  0  0  0  0  0  0  0  0
    0.5325   -0.9310   -2.0857 H   0  0  0  0  0  0  0  0  0  0  0  0
    1.0341   -1.9221   -0.7051 H   0  0  0  0  0  0  0  0  0  0  0  0
   -1.2771   -2.2159   -0.9581 H   0  0  0  0  0  0  0  0  0  0  0  0
   -2.8885   -1.0555    0.0160 H   0  0  0  0  0  0  0  0  0  0  0  0
   -2.0999    1.6095   -0.2603 H   0  0  0  0  0  0  0  0  0  0  0  0
   -2.5865    0.9082    1.2944 H   0  0  0  0  0  0  0  0  0  0  0  0
   -0.2441    1.7798   -0.8644 H   0  0  0  0  0  0  0  0  0  0  0  0
    0.9617    2.1549    0.3802 H   0  0  0  0  0  0  0  0  0  0  0  0
  1  2  1  0
  2  3  1  0
  3  4  1  0
  4  5  2  0
  5  6  1  0
  6  7  1  0
  7  8  1  0
  8  2  1  0
  1  9  1  0
  1 10  1  0
  1 11  1  0
  2 12  1  0
  3 13  1  0
  3 14  1  0
  4 15  1  0
  5 16  1  0
  6 17  1  0
  6 18  1  0
  8 19  1  0
  8 20  1  0
M  END
