
     RDKit          3D

 19 21  0  0  0  0  0  0  0  0999 V2000
   -2.0811   -0.6195    0.6742 C   0  0  0  0  0  0  0  0  0  0  0  0
   -1.1165    0.1284   -0.2099 C   0  0  0  0  0  0  0  0  0  0  0  0
   -0.0543   -0.7270   -0.8067 C   0  0  0  0  0  0  0  0  0  0  0  0
    1.1998    0.0244   -0.6384 C   0  0  0  0  0  0  0  0  0  0  0  0
    2.3860   -0.6865    0.0074 C   0  0  0  0  0  0  0  0  0  0  0  0
    2.3519   -0.2209   -1.3039 O   0  0  0  0  0  0  0  0  0  0  0  0
    0.8781    1.3457   -0.0149 C   0  0  0  0  0  0  0  0  0  0  0  0
    0.5310    1.1958    1.3531 O   0  0  0  0  0  0  0  0  0  0  0  0
   -0.5038    1.2857    0.4724 C   0  0  0  0  0  0  0  0  0  0  0  0
   -2.8064    0.1493    1.0608 H   0  0  0  0  0  0  0  0  0  0  0  0
   -1.6252   -1.0832    1.5476 H   0  0  0  0  0  0  0  0  0  0  0  0
   -2.7004   -1.3322    0.0962 H   0  0  0  0  0  0  0  0  0  0  0  0
   -1.7345    0.5307   -1.0668 H   0  0  0  0  0  0  0  0  0  0  0  0
   -0.2120   -0.9019   -1.9119 H   0  0  0  0  0  0  0  0  0  0  0  0
    0.0034   -1.7522   -0.3666 H   0  0  0  0  0  0  0  0  0  0  0  0
    3.0453   -0.0970    0.6868 H   0  0  0  0  0  0  0  0  0  0  0  0
    2.2182   -1.7504    0.2272 H   0  0  0  0  0  0  0  0  0  0  0  0
    1.3131    2.2792   -0.3553 H   0  0  0  0  0  0  0  0  0  0  0  0
   -1.0927    2.2318    0.5488 H   0  0  0  0  0  0  0  0  0  0  0  0
  1  2  1  0
  2  3  1  0
  3  4  1  0
  4  5  1  0
  5  6  1  0
  4  7  1  0
  7  8  1  0
  8  9  1  0
  9  2  1  0
  6  4  1  0
  9  7  1  0
  1 10  1  0
  1 11  1  0
  1 12  1  0
  2 13  1  0
  3 14  1  0
  3 15  1  0
  5 16  1  0
  5 17  1  0
  7 18  1  0
  9 19  1  0
M  END
