
     RDKit          3D

 23 24  0  0  0  0  0  0  0  0999 V2000
   -3.1552    0.0766    0.2544 C   0  0  0  0  0  0  0  0  0  0  0  0
   -1.6709    0.3277    0.2857 C   0  0  0  0  0  0  0  0  0  0  0  0
   -0.8981   -0.3212   -0.8163 C   0  0  0  0  0  0  0  0  0  0  0  0
    0.3969    0.3651   -1.1690 C   0  0  0  0  0  0  0  0  0  0  0  0
    1.0277    0.5847    0.1717 C   0  0  0  0  0  0  0  0  0  0  0  0
    2.5392    0.6394    0.1111 C   0  0  0  0  0  0  0  0  0  0  0  0
    3.0609   -0.5513   -0.3921 O   0  0  0  0  0  0  0  0  0  0  0  0
    0.6463   -0.6877    0.9125 C   0  0  0  0  0  0  0  0  0  0  0  0
   -0.8048   -0.8244    0.5711 C   0  0  0  0  0  0  0  0  0  0  0  0
   -3.5168   -0.1869    1.2492 H   0  0  0  0  0  0  0  0  0  0  0  0
   -3.4430   -0.7324   -0.4525 H   0  0  0  0  0  0  0  0  0  0  0  0
   -3.6669    1.0027   -0.1193 H   0  0  0  0  0  0  0  0  0  0  0  0
   -1.4120    1.3636    0.6023 H   0  0  0  0  0  0  0  0  0  0  0  0
   -1.3842   -0.9924   -1.5441 H   0  0  0  0  0  0  0  0  0  0  0  0
    0.2618    1.3371   -1.6534 H   0  0  0  0  0  0  0  0  0  0  0  0
    1.0143   -0.2677   -1.8384 H   0  0  0  0  0  0  0  0  0  0  0  0
    0.6303    1.4870    0.6434 H   0  0  0  0  0  0  0  0  0  0  0  0
    2.9057    1.5225   -0.4387 H   0  0  0  0  0  0  0  0  0  0  0  0
    2.9049    0.7346    1.1552 H   0  0  0  0  0  0  0  0  0  0  0  0
    3.7550   -0.9361    0.1991 H   0  0  0  0  0  0  0  0  0  0  0  0
    0.8713   -0.6507    1.9775 H   0  0  0  0  0  0  0  0  0  0  0  0
    1.2160   -1.5128    0.4073 H   0  0  0  0  0  0  0  0  0  0  0  0
   -1.2782   -1.7772    0.8800 H   0  0  0  0  0  0  0  0  0  0  0  0
  1  2  1  0
  2  3  1  0
  3  4  1  0
  4  5  1  0
  5  6  1  0
  6  7  1  0
  5  8  1  0
  8  9  1  0
  9  2  1  0
  9  3  1  0
  1 10  1  0
  1 11  1  0
  1 12  1  0
  2 13  1  0
  3 14  1  0
  4 15  1  0
  4 16  1  0
  5 17  1  0
  6 18  1  0
  6 19  1  0
  7 20  1  0
  8 21  1  0
  8 22  1  0
  9 23  1  0
M  END
