
     RDKit          3D

 21 23  0  0  0  0  0  0  0  0999 V2000
    2.2948    0.7293    0.0757 C   0  0  0  0  0  0  0  0  0  0  0  0
    1.3104   -0.2740   -0.3587 C   0  0  0  0  0  0  0  0  0  0  0  0
    0.5043   -0.9704    0.7141 C   0  0  0  0  0  0  0  0  0  0  0  0
   -0.5805   -1.0995   -0.3656 C   0  0  0  0  0  0  0  0  0  0  0  0
   -1.9407   -0.7623    0.1224 C   0  0  0  0  0  0  0  0  0  0  0  0
   -1.9892    0.7164    0.3144 C   0  0  0  0  0  0  0  0  0  0  0  0
   -1.9646    1.5774   -0.7539 O   0  0  0  0  0  0  0  0  0  0  0  0
   -0.7151    1.2603   -0.2009 C   0  0  0  0  0  0  0  0  0  0  0  0
    0.0187    0.1927   -0.9428 C   0  0  0  0  0  0  0  0  0  0  0  0
    2.9084    0.3353    0.9320 H   0  0  0  0  0  0  0  0  0  0  0  0
    3.0503    0.8615   -0.7542 H   0  0  0  0  0  0  0  0  0  0  0  0
    1.9144    1.7181    0.3372 H   0  0  0  0  0  0  0  0  0  0  0  0
    1.7718   -1.0431   -1.0158 H   0  0  0  0  0  0  0  0  0  0  0  0
    0.2020   -0.2958    1.5481 H   0  0  0  0  0  0  0  0  0  0  0  0
    0.9541   -1.9127    1.0275 H   0  0  0  0  0  0  0  0  0  0  0  0
   -0.4463   -1.9796   -0.9921 H   0  0  0  0  0  0  0  0  0  0  0  0
   -2.7313   -1.1718   -0.5101 H   0  0  0  0  0  0  0  0  0  0  0  0
   -2.0677   -1.2414    1.1315 H   0  0  0  0  0  0  0  0  0  0  0  0
   -2.3545    1.1056    1.3096 H   0  0  0  0  0  0  0  0  0  0  0  0
   -0.1880    2.0103    0.4076 H   0  0  0  0  0  0  0  0  0  0  0  0
    0.0485    0.2437   -2.0261 H   0  0  0  0  0  0  0  0  0  0  0  0
  1  2  1  0
  2  3  1  0
  3  4  1  0
  4  5  1  0
  5  6  1  0
  6  7  1  0
  7  8  1  0
  8  9  1  0
  9  2  1  0
  9  4  1  0
  8  6  1  0
  1 10  1  0
  1 11  1  0
  1 12  1  0
  2 13  1  0
  3 14  1  0
  3 15  1  0
  4 16  1  0
  5 17  1  0
  5 18  1  0
  6 19  1  0
  8 20  1  0
  9 21  1  0
M  END
