
     RDKit          3D

 21 21  0  0  0  0  0  0  0  0999 V2000
    0.0533    1.6965   -0.7486 C   0  0  0  0  0  0  0  0  0  0  0  0
   -0.2407    0.6820    0.3346 C   0  0  0  0  0  0  0  0  0  0  0  0
   -1.5485    0.0236    0.0080 C   0  0  0  0  0  0  0  0  0  0  0  0
   -1.5170   -1.4794    0.1789 C   0  0  0  0  0  0  0  0  0  0  0  0
   -0.3533   -1.9727   -0.5991 C   0  0  0  0  0  0  0  0  0  0  0  0
   -0.5474   -2.9046   -1.4145 O   0  0  0  0  0  0  0  0  0  0  0  0
    0.8647   -1.3586   -0.3600 O   0  0  0  0  0  0  0  0  0  0  0  0
    0.8873   -0.2641    0.5647 C   0  0  0  0  0  0  0  0  0  0  0  0
    2.2038    0.4261    0.4631 C   0  0  0  0  0  0  0  0  0  0  0  0
   -0.9091    2.1572   -1.0592 H   0  0  0  0  0  0  0  0  0  0  0  0
    0.7682    2.4634   -0.4364 H   0  0  0  0  0  0  0  0  0  0  0  0
    0.4296    1.1707   -1.6714 H   0  0  0  0  0  0  0  0  0  0  0  0
   -0.3778    1.2767    1.2817 H   0  0  0  0  0  0  0  0  0  0  0  0
   -1.8173    0.1966   -1.0757 H   0  0  0  0  0  0  0  0  0  0  0  0
   -2.3892    0.4840    0.5766 H   0  0  0  0  0  0  0  0  0  0  0  0
   -1.3921   -1.7705    1.2472 H   0  0  0  0  0  0  0  0  0  0  0  0
   -2.4802   -1.8711   -0.2072 H   0  0  0  0  0  0  0  0  0  0  0  0
    0.7687   -0.7105    1.5847 H   0  0  0  0  0  0  0  0  0  0  0  0
    2.2021    1.3514    1.0790 H   0  0  0  0  0  0  0  0  0  0  0  0
    2.4101    0.6898   -0.5915 H   0  0  0  0  0  0  0  0  0  0  0  0
    2.9850   -0.2865    0.8450 H   0  0  0  0  0  0  0  0  0  0  0  0
  1  2  1  0
  2  3  1  0
  3  4  1  0
  4  5  1  0
  5  6  2  0
  5  7  1  0
  7  8  1  0
  8  9  1  0
  8  2  1  0
  1 10  1  0
  1 11  1  0
  1 12  1  0
  2 13  1  0
  3 14  1  0
  3 15  1  0
  4 16  1  0
  4 17  1  0
  8 18  1  0
  9 19  1  0
  9 20  1  0
  9 21  1  0
M  END
