
     RDKit          3D

 25 26  0  0  0  0  0  0  0  0999 V2000
    2.4002    0.9327    0.1241 C   0  0  0  0  0  0  0  0  0  0  0  0
    1.0684    0.3164    0.4645 C   0  0  0  0  0  0  0  0  0  0  0  0
    1.1935   -1.1929    0.3783 C   0  0  0  0  0  0  0  0  0  0  0  0
    0.3262   -1.6062   -0.7788 C   0  0  0  0  0  0  0  0  0  0  0  0
   -0.7114   -0.5325   -0.9429 C   0  0  0  0  0  0  0  0  0  0  0  0
   -1.9030   -0.7019   -0.0640 C   0  0  0  0  0  0  0  0  0  0  0  0
   -1.9299    0.4453    0.9118 C   0  0  0  0  0  0  0  0  0  0  0  0
   -1.1111    1.4923    0.1894 C   0  0  0  0  0  0  0  0  0  0  0  0
   -0.0141    0.7153   -0.5010 C   0  0  0  0  0  0  0  0  0  0  0  0
    2.3431    1.4211   -0.8811 H   0  0  0  0  0  0  0  0  0  0  0  0
    2.7371    1.6820    0.8626 H   0  0  0  0  0  0  0  0  0  0  0  0
    3.1980    0.1444    0.1085 H   0  0  0  0  0  0  0  0  0  0  0  0
    0.7435    0.6054    1.4744 H   0  0  0  0  0  0  0  0  0  0  0  0
    2.2627   -1.4960    0.2102 H   0  0  0  0  0  0  0  0  0  0  0  0
    0.8568   -1.7000    1.3053 H   0  0  0  0  0  0  0  0  0  0  0  0
    0.9630   -1.6026   -1.7025 H   0  0  0  0  0  0  0  0  0  0  0  0
   -0.0961   -2.6165   -0.6634 H   0  0  0  0  0  0  0  0  0  0  0  0
   -0.9708   -0.4876   -2.0282 H   0  0  0  0  0  0  0  0  0  0  0  0
   -2.8162   -0.5879   -0.7115 H   0  0  0  0  0  0  0  0  0  0  0  0
   -1.9911   -1.6886    0.4103 H   0  0  0  0  0  0  0  0  0  0  0  0
   -1.5378    0.1925    1.9067 H   0  0  0  0  0  0  0  0  0  0  0  0
   -2.9570    0.8521    1.0712 H   0  0  0  0  0  0  0  0  0  0  0  0
   -0.6807    2.2454    0.8660 H   0  0  0  0  0  0  0  0  0  0  0  0
   -1.7491    1.9257   -0.6096 H   0  0  0  0  0  0  0  0  0  0  0  0
    0.3757    1.2423   -1.4003 H   0  0  0  0  0  0  0  0  0  0  0  0
  1  2  1  0
  2  3  1  0
  3  4  1  0
  4  5  1  0
  5  6  1  0
  6  7  1  0
  7  8  1  0
  8  9  1  0
  9  2  1  0
  9  5  1  0
  1 10  1  0
  1 11  1  0
  1 12  1  0
  2 13  1  0
  3 14  1  0
  3 15  1  0
  4 16  1  0
  4 17  1  0
  5 18  1  0
  6 19  1  0
  6 20  1  0
  7 21  1  0
  7 22  1  0
  8 23  1  0
  8 24  1  0
  9 25  1  0
M  END
