
     RDKit          3D

 23 24  0  0  0  0  0  0  0  0999 V2000
   -2.5362    0.4995    0.4357 C   0  0  0  0  0  0  0  0  0  0  0  0
   -1.1408    0.4345   -0.1524 C   0  0  0  0  0  0  0  0  0  0  0  0
   -1.0622   -0.7126   -1.1367 C   0  0  0  0  0  0  0  0  0  0  0  0
    0.2127   -1.1482   -0.5019 C   0  0  0  0  0  0  0  0  0  0  0  0
    1.4781   -0.5013   -1.0776 C   0  0  0  0  0  0  0  0  0  0  0  0
    2.2265   -0.2283    0.2313 C   0  0  0  0  0  0  0  0  0  0  0  0
    1.1305    0.5225    0.9986 C   0  0  0  0  0  0  0  0  0  0  0  0
    1.0208    1.8227    0.4624 O   0  0  0  0  0  0  0  0  0  0  0  0
   -0.1214   -0.2778    0.6965 C   0  0  0  0  0  0  0  0  0  0  0  0
   -3.2470    0.5189   -0.4246 H   0  0  0  0  0  0  0  0  0  0  0  0
   -2.6741   -0.4202    1.0584 H   0  0  0  0  0  0  0  0  0  0  0  0
   -2.6656    1.3775    1.0911 H   0  0  0  0  0  0  0  0  0  0  0  0
   -0.7757    1.4080   -0.5541 H   0  0  0  0  0  0  0  0  0  0  0  0
   -0.9974   -0.3228   -2.1715 H   0  0  0  0  0  0  0  0  0  0  0  0
   -1.8491   -1.4855   -0.9974 H   0  0  0  0  0  0  0  0  0  0  0  0
    0.3213   -2.2266   -0.2818 H   0  0  0  0  0  0  0  0  0  0  0  0
    2.0228   -1.1669   -1.7425 H   0  0  0  0  0  0  0  0  0  0  0  0
    1.1720    0.4657   -1.5431 H   0  0  0  0  0  0  0  0  0  0  0  0
    2.3730   -1.2034    0.7075 H   0  0  0  0  0  0  0  0  0  0  0  0
    3.1207    0.3719    0.0858 H   0  0  0  0  0  0  0  0  0  0  0  0
    1.3537    0.5887    2.0691 H   0  0  0  0  0  0  0  0  0  0  0  0
    1.1821    2.4931    1.1868 H   0  0  0  0  0  0  0  0  0  0  0  0
   -0.5447   -0.8096    1.5604 H   0  0  0  0  0  0  0  0  0  0  0  0
  1  2  1  0
  2  3  1  0
  3  4  1  0
  4  5  1  0
  5  6  1  0
  6  7  1  0
  7  8  1  0
  7  9  1  0
  9  2  1  0
  9  4  1  0
  1 10  1  0
  1 11  1  0
  1 12  1  0
  2 13  1  0
  3 14  1  0
  3 15  1  0
  4 16  1  0
  5 17  1  0
  5 18  1  0
  6 19  1  0
  6 20  1  0
  7 21  1  0
  8 22  1  0
  9 23  1  0
M  END
