
     RDKit          3D

 23 24  0  0  0  0  0  0  0  0999 V2000
   -3.0273    0.5739    0.0670 C   0  0  0  0  0  0  0  0  0  0  0  0
   -1.7833   -0.1870   -0.2793 C   0  0  0  0  0  0  0  0  0  0  0  0
   -0.5503    0.6593   -0.5350 C   0  0  0  0  0  0  0  0  0  0  0  0
    0.2041   -0.3804    0.1909 C   0  0  0  0  0  0  0  0  0  0  0  0
   -1.0356   -0.7669    0.9080 C   0  0  0  0  0  0  0  0  0  0  0  0
    1.1650   -1.2990   -0.3735 C   0  0  0  0  0  0  0  0  0  0  0  0
    1.5294   -0.2695    0.7395 C   0  0  0  0  0  0  0  0  0  0  0  0
    2.3925    0.8773    0.2438 C   0  0  0  0  0  0  0  0  0  0  0  0
    3.6220    0.8061    0.8908 O   0  0  0  0  0  0  0  0  0  0  0  0
   -3.0906    1.4653   -0.5892 H   0  0  0  0  0  0  0  0  0  0  0  0
   -3.0196    0.8325    1.1498 H   0  0  0  0  0  0  0  0  0  0  0  0
   -3.8959   -0.0751   -0.1866 H   0  0  0  0  0  0  0  0  0  0  0  0
   -1.9009   -0.9454   -1.0669 H   0  0  0  0  0  0  0  0  0  0  0  0
   -0.2859    0.8087   -1.5925 H   0  0  0  0  0  0  0  0  0  0  0  0
   -0.6167    1.6063    0.0654 H   0  0  0  0  0  0  0  0  0  0  0  0
   -1.2161   -1.8479    1.0672 H   0  0  0  0  0  0  0  0  0  0  0  0
   -1.2461   -0.1837    1.8344 H   0  0  0  0  0  0  0  0  0  0  0  0
    1.1439   -2.3686   -0.0492 H   0  0  0  0  0  0  0  0  0  0  0  0
    1.6126   -1.1318   -1.3640 H   0  0  0  0  0  0  0  0  0  0  0  0
    1.7895   -0.7376    1.7132 H   0  0  0  0  0  0  0  0  0  0  0  0
    1.9173    1.8583    0.4831 H   0  0  0  0  0  0  0  0  0  0  0  0
    2.5182    0.8258   -0.8760 H   0  0  0  0  0  0  0  0  0  0  0  0
    3.7737   -0.1205    1.1354 H   0  0  0  0  0  0  0  0  0  0  0  0
  1  2  1  0
  2  3  1  0
  3  4  1  0
  4  5  1  0
  4  6  1  0
  6  7  1  0
  7  8  1  0
  8  9  1  0
  5  2  1  0
  7  4  1  0
  1 10  1  0
  1 11  1  0
  1 12  1  0
  2 13  1  0
  3 14  1  0
  3 15  1  0
  5 16  1  0
  5 17  1  0
  6 18  1  0
  6 19  1  0
  7 20  1  0
  8 21  1  0
  8 22  1  0
  9 23  1  0
M  END
