
     RDKit          3D

 23 24  0  0  0  0  0  0  0  0999 V2000
   -2.3887   -0.5856   -0.1559 C   0  0  0  0  0  0  0  0  0  0  0  0
   -0.8940   -0.5389   -0.3276 C   0  0  0  0  0  0  0  0  0  0  0  0
   -0.1399   -0.1413    0.9346 C   0  0  0  0  0  0  0  0  0  0  0  0
    1.0725   -0.9785    1.1799 C   0  0  0  0  0  0  0  0  0  0  0  0
    1.9089   -1.1993   -0.0535 C   0  0  0  0  0  0  0  0  0  0  0  0
    2.0839   -0.0082   -0.8813 C   0  0  0  0  0  0  0  0  0  0  0  0
    1.1171    0.8846   -0.9540 C   0  0  0  0  0  0  0  0  0  0  0  0
   -0.1406    0.7312   -0.2312 C   0  0  0  0  0  0  0  0  0  0  0  0
   -0.9235    2.0428   -0.0625 C   0  0  0  0  0  0  0  0  0  0  0  0
   -2.7662   -1.5779   -0.4785 H   0  0  0  0  0  0  0  0  0  0  0  0
   -2.7058   -0.4765    0.9084 H   0  0  0  0  0  0  0  0  0  0  0  0
   -2.9044    0.1751   -0.7950 H   0  0  0  0  0  0  0  0  0  0  0  0
   -0.4698   -1.2984   -0.9981 H   0  0  0  0  0  0  0  0  0  0  0  0
   -0.7096    0.1135    1.8445 H   0  0  0  0  0  0  0  0  0  0  0  0
    0.7127   -1.9934    1.4938 H   0  0  0  0  0  0  0  0  0  0  0  0
    1.6799   -0.6181    2.0420 H   0  0  0  0  0  0  0  0  0  0  0  0
    1.5189   -2.0628   -0.6636 H   0  0  0  0  0  0  0  0  0  0  0  0
    2.9196   -1.5339    0.3090 H   0  0  0  0  0  0  0  0  0  0  0  0
    3.0127    0.1343   -1.4333 H   0  0  0  0  0  0  0  0  0  0  0  0
    1.3117    1.7527   -1.5908 H   0  0  0  0  0  0  0  0  0  0  0  0
   -0.6115    2.5436    0.8983 H   0  0  0  0  0  0  0  0  0  0  0  0
   -2.0101    1.8752   -0.1087 H   0  0  0  0  0  0  0  0  0  0  0  0
   -0.6736    2.7598   -0.8766 H   0  0  0  0  0  0  0  0  0  0  0  0
  1  2  1  0
  2  3  1  0
  3  4  1  0
  4  5  1  0
  5  6  1  0
  6  7  2  0
  7  8  1  0
  8  9  1  0
  8  2  1  0
  8  3  1  0
  1 10  1  0
  1 11  1  0
  1 12  1  0
  2 13  1  0
  3 14  1  0
  4 15  1  0
  4 16  1  0
  5 17  1  0
  5 18  1  0
  6 19  1  0
  7 20  1  0
  9 21  1  0
  9 22  1  0
  9 23  1  0
M  END
