
     RDKit          3D

 19 20  0  0  0  0  0  0  0  0999 V2000
    2.4891    0.5249    0.4357 C   0  0  0  0  0  0  0  0  0  0  0  0
    1.2994   -0.0218   -0.2663 C   0  0  0  0  0  0  0  0  0  0  0  0
    0.2738    0.9353   -0.7147 C   0  0  0  0  0  0  0  0  0  0  0  0
    0.3334    1.9810   -1.3594 O   0  0  0  0  0  0  0  0  0  0  0  0
   -0.8260    0.1787   -0.1098 C   0  0  0  0  0  0  0  0  0  0  0  0
   -1.8762    0.8743    0.7109 C   0  0  0  0  0  0  0  0  0  0  0  0
   -0.8695   -1.2982   -0.1132 C   0  0  0  0  0  0  0  0  0  0  0  0
   -1.8747   -1.9138    0.5879 O   0  0  0  0  0  0  0  0  0  0  0  0
    0.2368   -0.6504    0.6216 C   0  0  0  0  0  0  0  0  0  0  0  0
    2.3512    1.5104    0.8929 H   0  0  0  0  0  0  0  0  0  0  0  0
    2.8863   -0.2441    1.1441 H   0  0  0  0  0  0  0  0  0  0  0  0
    3.3069    0.6405   -0.3325 H   0  0  0  0  0  0  0  0  0  0  0  0
    1.5558   -0.7348   -1.0804 H   0  0  0  0  0  0  0  0  0  0  0  0
   -2.8224    0.9457    0.0976 H   0  0  0  0  0  0  0  0  0  0  0  0
   -1.5865    1.8992    1.0151 H   0  0  0  0  0  0  0  0  0  0  0  0
   -2.1373    0.2212    1.5683 H   0  0  0  0  0  0  0  0  0  0  0  0
   -0.5584   -1.8378   -1.0470 H   0  0  0  0  0  0  0  0  0  0  0  0
   -2.4205   -2.5356    0.0448 H   0  0  0  0  0  0  0  0  0  0  0  0
    0.2388   -0.4749    1.6949 H   0  0  0  0  0  0  0  0  0  0  0  0
  1  2  1  0
  2  3  1  0
  3  4  2  0
  3  5  1  0
  5  6  1  0
  5  7  1  0
  7  8  1  0
  7  9  1  0
  9  2  1  0
  9  5  1  0
  1 10  1  0
  1 11  1  0
  1 12  1  0
  2 13  1  0
  6 14  1  0
  6 15  1  0
  6 16  1  0
  7 17  1  0
  8 18  1  0
  9 19  1  0
M  END
