
     RDKit          3D

 19 19  0  0  0  0  0  0  0  0999 V2000
    2.3703    0.3450    0.0306 C   0  0  0  0  0  0  0  0  0  0  0  0
    0.9062    0.2507   -0.1815 C   0  0  0  0  0  0  0  0  0  0  0  0
    0.3471   -1.1105    0.1298 C   0  0  0  0  0  0  0  0  0  0  0  0
   -1.1297   -1.1510    0.2147 C   0  0  0  0  0  0  0  0  0  0  0  0
   -1.8463    0.1197    0.0221 C   0  0  0  0  0  0  0  0  0  0  0  0
   -1.0127    1.3550   -0.0208 C   0  0  0  0  0  0  0  0  0  0  0  0
    0.1961    1.1576    0.6417 O   0  0  0  0  0  0  0  0  0  0  0  0
    2.5908    1.0102    0.9076 H   0  0  0  0  0  0  0  0  0  0  0  0
    2.8477    0.8071   -0.8827 H   0  0  0  0  0  0  0  0  0  0  0  0
    2.8319   -0.6449    0.1711 H   0  0  0  0  0  0  0  0  0  0  0  0
    0.6545    0.4499   -1.2642 H   0  0  0  0  0  0  0  0  0  0  0  0
    0.6965   -1.7793   -0.7122 H   0  0  0  0  0  0  0  0  0  0  0  0
    0.8503   -1.5485    1.0399 H   0  0  0  0  0  0  0  0  0  0  0  0
   -1.4000   -1.5906    1.2200 H   0  0  0  0  0  0  0  0  0  0  0  0
   -1.5456   -1.9055   -0.5171 H   0  0  0  0  0  0  0  0  0  0  0  0
   -2.6124    0.2714    0.8384 H   0  0  0  0  0  0  0  0  0  0  0  0
   -2.4663    0.1118   -0.9227 H   0  0  0  0  0  0  0  0  0  0  0  0
   -1.5023    2.2508    0.3832 H   0  0  0  0  0  0  0  0  0  0  0  0
   -0.7761    1.6012   -1.0982 H   0  0  0  0  0  0  0  0  0  0  0  0
  1  2  1  0
  2  3  1  0
  3  4  1  0
  4  5  1  0
  5  6  1  0
  6  7  1  0
  7  2  1  0
  1  8  1  0
  1  9  1  0
  1 10  1  0
  2 11  1  0
  3 12  1  0
  3 13  1  0
  4 14  1  0
  4 15  1  0
  5 16  1  0
  5 17  1  0
  6 18  1  0
  6 19  1  0
M  END
