
     RDKit          3D

 17 17  0  0  0  0  0  0  0  0999 V2000
   -1.3978   -1.1266   -0.3273 C   0  0  0  0  0  0  0  0  0  0  0  0
   -0.6228    0.0078    0.2929 C   0  0  0  0  0  0  0  0  0  0  0  0
   -0.7236    1.2838   -0.5036 C   0  0  0  0  0  0  0  0  0  0  0  0
    0.4638    2.0092    0.0843 C   0  0  0  0  0  0  0  0  0  0  0  0
    0.6165    3.1838    0.4208 O   0  0  0  0  0  0  0  0  0  0  0  0
    1.4682    0.9363    0.1745 C   0  0  0  0  0  0  0  0  0  0  0  0
    0.8339   -0.2353    0.2957 C   0  0  0  0  0  0  0  0  0  0  0  0
    1.4429   -1.5542    0.4136 C   0  0  0  0  0  0  0  0  0  0  0  0
    0.7084   -2.5554    0.5199 O   0  0  0  0  0  0  0  0  0  0  0  0
   -1.5915   -1.9062    0.4398 H   0  0  0  0  0  0  0  0  0  0  0  0
   -2.3548   -0.8114   -0.7727 H   0  0  0  0  0  0  0  0  0  0  0  0
   -0.7189   -1.6085   -1.0733 H   0  0  0  0  0  0  0  0  0  0  0  0
   -0.9944    0.1827    1.3450 H   0  0  0  0  0  0  0  0  0  0  0  0
   -0.5286    1.0538   -1.5585 H   0  0  0  0  0  0  0  0  0  0  0  0
   -1.6573    1.8406   -0.3192 H   0  0  0  0  0  0  0  0  0  0  0  0
    2.5463    1.0197    0.1535 H   0  0  0  0  0  0  0  0  0  0  0  0
    2.5097   -1.7201    0.4146 H   0  0  0  0  0  0  0  0  0  0  0  0
  1  2  1  0
  2  3  1  0
  3  4  1  0
  4  5  2  0
  4  6  1  0
  6  7  2  0
  7  8  1  0
  8  9  2  0
  7  2  1  0
  1 10  1  0
  1 11  1  0
  1 12  1  0
  2 13  1  0
  3 14  1  0
  3 15  1  0
  6 16  1  0
  8 17  1  0
M  END
