
     RDKit          3D

 16 16  0  0  0  0  0  0  0  0999 V2000
   -2.0610   -0.3732   -0.0458 C   0  0  0  0  0  0  0  0  0  0  0  0
   -0.6034   -0.0599    0.2882 C   0  0  0  0  0  0  0  0  0  0  0  0
   -0.1731    1.2624   -0.2991 C   0  0  0  0  0  0  0  0  0  0  0  0
    1.1425    1.1974   -0.8322 O   0  0  0  0  0  0  0  0  0  0  0  0
    2.0416    0.2077   -0.4551 C   0  0  0  0  0  0  0  0  0  0  0  0
    3.2563    0.2194   -0.7075 O   0  0  0  0  0  0  0  0  0  0  0  0
    1.4780   -0.9418    0.3082 C   0  0  0  0  0  0  0  0  0  0  0  0
    0.1681   -1.1219   -0.1923 O   0  0  0  0  0  0  0  0  0  0  0  0
   -2.2992   -0.1367   -1.0926 H   0  0  0  0  0  0  0  0  0  0  0  0
   -2.1605   -1.4736    0.0627 H   0  0  0  0  0  0  0  0  0  0  0  0
   -2.7585    0.0784    0.6756 H   0  0  0  0  0  0  0  0  0  0  0  0
   -0.5163   -0.0092    1.4000 H   0  0  0  0  0  0  0  0  0  0  0  0
   -0.1552    2.0676    0.4696 H   0  0  0  0  0  0  0  0  0  0  0  0
   -0.8334    1.6086   -1.1147 H   0  0  0  0  0  0  0  0  0  0  0  0
    1.4435   -0.6583    1.3850 H   0  0  0  0  0  0  0  0  0  0  0  0
    2.0307   -1.8669    0.1500 H   0  0  0  0  0  0  0  0  0  0  0  0
  1  2  1  0
  2  3  1  0
  3  4  1  0
  4  5  1  0
  5  6  2  0
  5  7  1  0
  7  8  1  0
  8  2  1  0
  1  9  1  0
  1 10  1  0
  1 11  1  0
  2 12  1  0
  3 13  1  0
  3 14  1  0
  7 15  1  0
  7 16  1  0
M  END
