
     RDKit          3D

 19 20  0  0  0  0  0  0  0  0999 V2000
    2.1703   -0.6742   -0.1122 C   0  0  0  0  0  0  0  0  0  0  0  0
    1.1517    0.3303   -0.5359 C   0  0  0  0  0  0  0  0  0  0  0  0
    0.5291    1.1627    0.5680 C   0  0  0  0  0  0  0  0  0  0  0  0
    0.7855    0.7441    1.8724 O   0  0  0  0  0  0  0  0  0  0  0  0
   -0.2728    0.1922   -0.2810 C   0  0  0  0  0  0  0  0  0  0  0  0
   -0.8965   -0.9597    0.4346 C   0  0  0  0  0  0  0  0  0  0  0  0
   -2.2689   -0.6831    0.2777 O   0  0  0  0  0  0  0  0  0  0  0  0
   -2.3339   -0.2105   -1.0380 C   0  0  0  0  0  0  0  0  0  0  0  0
   -1.2622    0.6832   -1.0940 O   0  0  0  0  0  0  0  0  0  0  0  0
    2.4839   -1.2872   -0.9917 H   0  0  0  0  0  0  0  0  0  0  0  0
    1.8143   -1.3351    0.6928 H   0  0  0  0  0  0  0  0  0  0  0  0
    3.0909   -0.1154    0.2107 H   0  0  0  0  0  0  0  0  0  0  0  0
    1.4670    0.9332   -1.4326 H   0  0  0  0  0  0  0  0  0  0  0  0
    0.4098    2.2537    0.3918 H   0  0  0  0  0  0  0  0  0  0  0  0
    0.0173    0.9642    2.4456 H   0  0  0  0  0  0  0  0  0  0  0  0
   -0.6922   -0.9074    1.5274 H   0  0  0  0  0  0  0  0  0  0  0  0
   -0.6948   -1.9433   -0.0056 H   0  0  0  0  0  0  0  0  0  0  0  0
   -2.1979   -1.0745   -1.7095 H   0  0  0  0  0  0  0  0  0  0  0  0
   -3.3008    0.3114   -1.2204 H   0  0  0  0  0  0  0  0  0  0  0  0
  1  2  1  0
  2  3  1  0
  3  4  1  0
  3  5  1  0
  5  6  1  0
  6  7  1  0
  7  8  1  0
  8  9  1  0
  5  2  1  0
  9  5  1  0
  1 10  1  0
  1 11  1  0
  1 12  1  0
  2 13  1  0
  3 14  1  0
  4 15  1  0
  6 16  1  0
  6 17  1  0
  8 18  1  0
  8 19  1  0
M  END
