
     RDKit          3D

 23 23  0  0  0  0  0  0  0  0999 V2000
    2.9171    0.0813   -0.2997 C   0  0  0  0  0  0  0  0  0  0  0  0
    1.6147    0.3255    0.4476 C   0  0  0  0  0  0  0  0  0  0  0  0
    0.9453   -0.9351    0.8106 C   0  0  0  0  0  0  0  0  0  0  0  0
   -0.3314   -1.1251    0.5422 C   0  0  0  0  0  0  0  0  0  0  0  0
   -1.1214   -0.0714   -0.1322 C   0  0  0  0  0  0  0  0  0  0  0  0
   -2.2483   -0.6992   -0.8964 C   0  0  0  0  0  0  0  0  0  0  0  0
   -1.6066    0.9886    0.8287 C   0  0  0  0  0  0  0  0  0  0  0  0
   -0.1226    0.6293   -1.0648 C   0  0  0  0  0  0  0  0  0  0  0  0
    0.8331    1.1984   -0.2395 O   0  0  0  0  0  0  0  0  0  0  0  0
    2.8883    0.6391   -1.2550 H   0  0  0  0  0  0  0  0  0  0  0  0
    3.0661   -1.0209   -0.4810 H   0  0  0  0  0  0  0  0  0  0  0  0
    3.8020    0.4529    0.2547 H   0  0  0  0  0  0  0  0  0  0  0  0
    1.9308    0.8414    1.4090 H   0  0  0  0  0  0  0  0  0  0  0  0
    1.5327   -1.7418    1.3218 H   0  0  0  0  0  0  0  0  0  0  0  0
   -0.7866   -2.0905    0.8362 H   0  0  0  0  0  0  0  0  0  0  0  0
   -2.3504   -1.8015   -0.6902 H   0  0  0  0  0  0  0  0  0  0  0  0
   -3.2294   -0.2596   -0.5557 H   0  0  0  0  0  0  0  0  0  0  0  0
   -2.1631   -0.5050   -1.9843 H   0  0  0  0  0  0  0  0  0  0  0  0
   -2.6474    0.7844    1.1920 H   0  0  0  0  0  0  0  0  0  0  0  0
   -0.9251    1.1509    1.6660 H   0  0  0  0  0  0  0  0  0  0  0  0
   -1.6666    1.9426    0.2585 H   0  0  0  0  0  0  0  0  0  0  0  0
    0.3024   -0.1765   -1.6946 H   0  0  0  0  0  0  0  0  0  0  0  0
   -0.6336    1.3922   -1.6486 H   0  0  0  0  0  0  0  0  0  0  0  0
  1  2  1  0
  2  3  1  0
  3  4  2  0
  4  5  1  0
  5  6  1  0
  5  7  1  0
  5  8  1  0
  8  9  1  0
  9  2  1  0
  1 10  1  0
  1 11  1  0
  1 12  1  0
  2 13  1  0
  3 14  1  0
  4 15  1  0
  6 16  1  0
  6 17  1  0
  6 18  1  0
  7 19  1  0
  7 20  1  0
  7 21  1  0
  8 22  1  0
  8 23  1  0
M  END
