
     RDKit          3D

 20 20  0  0  0  0  0  0  0  0999 V2000
   -2.3521   -0.1085   -0.1159 C   0  0  0  0  0  0  0  0  0  0  0  0
   -0.8914   -0.2060    0.1789 C   0  0  0  0  0  0  0  0  0  0  0  0
   -0.1926    1.1300    0.2034 C   0  0  0  0  0  0  0  0  0  0  0  0
    1.0984    0.9436    0.9548 C   0  0  0  0  0  0  0  0  0  0  0  0
    1.9836    0.0438    0.0834 C   0  0  0  0  0  0  0  0  0  0  0  0
    1.2538   -1.1262   -0.4101 C   0  0  0  0  0  0  0  0  0  0  0  0
    1.7949   -2.2135   -0.4396 O   0  0  0  0  0  0  0  0  0  0  0  0
   -0.1505   -1.0292   -0.8848 C   0  0  0  0  0  0  0  0  0  0  0  0
   -2.8596    0.2981    0.7663 H   0  0  0  0  0  0  0  0  0  0  0  0
   -2.4950    0.5165   -1.0102 H   0  0  0  0  0  0  0  0  0  0  0  0
   -2.7377   -1.1338   -0.2706 H   0  0  0  0  0  0  0  0  0  0  0  0
   -0.7328   -0.7199    1.1386 H   0  0  0  0  0  0  0  0  0  0  0  0
   -0.8228    1.9414    0.6054 H   0  0  0  0  0  0  0  0  0  0  0  0
    0.0978    1.4384   -0.8402 H   0  0  0  0  0  0  0  0  0  0  0  0
    0.9544    0.3818    1.9066 H   0  0  0  0  0  0  0  0  0  0  0  0
    1.6530    1.8722    1.1162 H   0  0  0  0  0  0  0  0  0  0  0  0
    2.3690    0.6715   -0.7709 H   0  0  0  0  0  0  0  0  0  0  0  0
    2.8932   -0.2545    0.6459 H   0  0  0  0  0  0  0  0  0  0  0  0
   -0.2430   -0.4411   -1.8210 H   0  0  0  0  0  0  0  0  0  0  0  0
   -0.6205   -2.0044   -1.0361 H   0  0  0  0  0  0  0  0  0  0  0  0
  1  2  1  0
  2  3  1  0
  3  4  1  0
  4  5  1  0
  5  6  1  0
  6  7  2  0
  6  8  1  0
  8  2  1  0
  1  9  1  0
  1 10  1  0
  1 11  1  0
  2 12  1  0
  3 13  1  0
  3 14  1  0
  4 15  1  0
  4 16  1  0
  5 17  1  0
  5 18  1  0
  8 19  1  0
  8 20  1  0
M  END
