
     RDKit          3D

 19 20  0  0  0  0  0  0  0  0999 V2000
    1.9960    0.6315   -0.1547 C   0  0  0  0  0  0  0  0  0  0  0  0
    0.6192    0.2569   -0.5717 C   0  0  0  0  0  0  0  0  0  0  0  0
    0.2860   -1.1992   -0.3504 C   0  0  0  0  0  0  0  0  0  0  0  0
   -1.1598   -1.1867    0.0792 C   0  0  0  0  0  0  0  0  0  0  0  0
   -1.6612    0.1696   -0.4490 C   0  0  0  0  0  0  0  0  0  0  0  0
   -0.4764    0.9397    0.1695 C   0  0  0  0  0  0  0  0  0  0  0  0
   -0.6056    0.3842    1.5652 C   0  0  0  0  0  0  0  0  0  0  0  0
   -0.2695    0.9622    2.6070 O   0  0  0  0  0  0  0  0  0  0  0  0
   -1.1749   -0.9037    1.4639 O   0  0  0  0  0  0  0  0  0  0  0  0
    2.7061   -0.0876   -0.6279 H   0  0  0  0  0  0  0  0  0  0  0  0
    2.2347    1.6206   -0.6302 H   0  0  0  0  0  0  0  0  0  0  0  0
    2.1565    0.6970    0.9320 H   0  0  0  0  0  0  0  0  0  0  0  0
    0.5045    0.4583   -1.6473 H   0  0  0  0  0  0  0  0  0  0  0  0
    0.8896   -1.5989    0.5115 H   0  0  0  0  0  0  0  0  0  0  0  0
    0.4446   -1.8322   -1.2226 H   0  0  0  0  0  0  0  0  0  0  0  0
   -1.7507   -2.0149   -0.2365 H   0  0  0  0  0  0  0  0  0  0  0  0
   -2.6105    0.4582   -0.0096 H   0  0  0  0  0  0  0  0  0  0  0  0
   -1.5691    0.2490   -1.5266 H   0  0  0  0  0  0  0  0  0  0  0  0
   -0.5593    1.9959    0.0983 H   0  0  0  0  0  0  0  0  0  0  0  0
  1  2  1  0
  2  3  1  0
  3  4  1  0
  4  5  1  0
  5  6  1  0
  6  7  1  0
  7  8  2  0
  7  9  1  0
  6  2  1  0
  9  4  1  0
  1 10  1  0
  1 11  1  0
  1 12  1  0
  2 13  1  0
  3 14  1  0
  3 15  1  0
  4 16  1  0
  5 17  1  0
  5 18  1  0
  6 19  1  0
M  END
