
     RDKit          3D

 18 19  0  0  0  0  0  0  0  0999 V2000
   -1.7857    0.0056    0.6670 C   0  0  0  0  0  0  0  0  0  0  0  0
   -0.4520   -0.6162    0.5020 C   0  0  0  0  0  0  0  0  0  0  0  0
    0.7004    0.3810    0.6022 C   0  0  0  0  0  0  0  0  0  0  0  0
    1.7782   -0.5037   -0.0231 C   0  0  0  0  0  0  0  0  0  0  0  0
    1.1012   -1.2169   -1.0206 O   0  0  0  0  0  0  0  0  0  0  0  0
   -0.2176   -0.8145   -1.0106 C   0  0  0  0  0  0  0  0  0  0  0  0
   -0.3672    0.5206   -1.4378 O   0  0  0  0  0  0  0  0  0  0  0  0
    0.3034    1.3143   -0.5060 C   0  0  0  0  0  0  0  0  0  0  0  0
   -2.1627   -0.0251    1.7116 H   0  0  0  0  0  0  0  0  0  0  0  0
   -2.5231   -0.6119    0.0736 H   0  0  0  0  0  0  0  0  0  0  0  0
   -1.8287    1.0088    0.2528 H   0  0  0  0  0  0  0  0  0  0  0  0
   -0.2854   -1.5254    1.0656 H   0  0  0  0  0  0  0  0  0  0  0  0
    0.9043    0.7763    1.5559 H   0  0  0  0  0  0  0  0  0  0  0  0
    2.5403    0.1620   -0.4948 H   0  0  0  0  0  0  0  0  0  0  0  0
    2.1942   -1.2237    0.6798 H   0  0  0  0  0  0  0  0  0  0  0  0
   -0.9248   -1.4955   -1.4295 H   0  0  0  0  0  0  0  0  0  0  0  0
   -0.2352    2.1995   -0.1973 H   0  0  0  0  0  0  0  0  0  0  0  0
    1.2603    1.6647   -0.9908 H   0  0  0  0  0  0  0  0  0  0  0  0
  1  2  1  0
  2  3  1  0
  3  4  1  0
  4  5  1  0
  5  6  1  0
  6  7  1  0
  7  8  1  0
  6  2  1  0
  8  3  1  0
  1  9  1  0
  1 10  1  0
  1 11  1  0
  2 12  1  0
  3 13  1  0
  4 14  1  0
  4 15  1  0
  6 16  1  0
  8 17  1  0
  8 18  1  0
M  END
