
     RDKit          3D

 21 22  0  0  0  0  0  0  0  0999 V2000
   -1.6477   -1.3446   -0.6675 C   0  0  0  0  0  0  0  0  0  0  0  0
   -1.5363   -0.1828    0.2475 C   0  0  0  0  0  0  0  0  0  0  0  0
   -1.0179    1.1115   -0.4029 C   0  0  0  0  0  0  0  0  0  0  0  0
   -0.4514    1.3832    1.0017 C   0  0  0  0  0  0  0  0  0  0  0  0
   -0.1576   -0.1044    0.9215 C   0  0  0  0  0  0  0  0  0  0  0  0
    0.7295   -0.1792   -0.2680 C   0  0  0  0  0  0  0  0  0  0  0  0
    2.1499    0.2604   -0.0012 C   0  0  0  0  0  0  0  0  0  0  0  0
    2.7514   -0.6469    0.8451 O   0  0  0  0  0  0  0  0  0  0  0  0
    0.0777    0.7326   -1.1373 O   0  0  0  0  0  0  0  0  0  0  0  0
   -1.1118   -1.2324   -1.6240 H   0  0  0  0  0  0  0  0  0  0  0  0
   -2.7277   -1.5837   -0.8289 H   0  0  0  0  0  0  0  0  0  0  0  0
   -1.1952   -2.2477   -0.1699 H   0  0  0  0  0  0  0  0  0  0  0  0
   -2.3786    0.0494    0.8934 H   0  0  0  0  0  0  0  0  0  0  0  0
   -1.7377    1.7914   -0.7780 H   0  0  0  0  0  0  0  0  0  0  0  0
   -1.2978    1.6101    1.6894 H   0  0  0  0  0  0  0  0  0  0  0  0
    0.4025    2.0535    1.0322 H   0  0  0  0  0  0  0  0  0  0  0  0
    0.0043   -0.6576    1.7966 H   0  0  0  0  0  0  0  0  0  0  0  0
    0.7560   -1.1729   -0.7554 H   0  0  0  0  0  0  0  0  0  0  0  0
    2.7195    0.2656   -0.9454 H   0  0  0  0  0  0  0  0  0  0  0  0
    2.1928    1.2586    0.4766 H   0  0  0  0  0  0  0  0  0  0  0  0
    3.4762   -1.1642    0.4247 H   0  0  0  0  0  0  0  0  0  0  0  0
  1  2  1  0
  2  3  1  0
  3  4  1  0
  4  5  1  0
  5  6  1  0
  6  7  1  0
  7  8  1  0
  6  9  1  0
  5  2  1  0
  9  3  1  0
  1 10  1  0
  1 11  1  0
  1 12  1  0
  2 13  1  0
  3 14  1  0
  4 15  1  0
  4 16  1  0
  5 17  1  0
  6 18  1  0
  7 19  1  0
  7 20  1  0
  8 21  1  0
M  END
