
     RDKit          3D

 18 18  0  0  0  0  0  0  0  0999 V2000
    2.4828    0.6353    0.1530 C   0  0  0  0  0  0  0  0  0  0  0  0
    1.2926   -0.2180   -0.0577 C   0  0  0  0  0  0  0  0  0  0  0  0
    0.0056    0.4204    0.3042 C   0  0  0  0  0  0  0  0  0  0  0  0
   -0.9165   -0.1627   -0.4427 C   0  0  0  0  0  0  0  0  0  0  0  0
   -2.3755    0.1115   -0.4673 C   0  0  0  0  0  0  0  0  0  0  0  0
   -2.6870    1.1135    0.4397 O   0  0  0  0  0  0  0  0  0  0  0  0
   -0.1572   -1.1736   -1.2673 C   0  0  0  0  0  0  0  0  0  0  0  0
    1.0475   -0.4840   -1.4284 O   0  0  0  0  0  0  0  0  0  0  0  0
    2.7887    1.2329   -0.7161 H   0  0  0  0  0  0  0  0  0  0  0  0
    3.3921    0.0668    0.4914 H   0  0  0  0  0  0  0  0  0  0  0  0
    2.2991    1.3703    0.9879 H   0  0  0  0  0  0  0  0  0  0  0  0
    1.3754   -1.2347    0.4131 H   0  0  0  0  0  0  0  0  0  0  0  0
   -0.1244    1.1964    1.0289 H   0  0  0  0  0  0  0  0  0  0  0  0
   -2.9805   -0.8094   -0.2597 H   0  0  0  0  0  0  0  0  0  0  0  0
   -2.6548    0.4410   -1.4798 H   0  0  0  0  0  0  0  0  0  0  0  0
   -2.2218    0.9737    1.3144 H   0  0  0  0  0  0  0  0  0  0  0  0
   -0.6585   -1.4095   -2.2041 H   0  0  0  0  0  0  0  0  0  0  0  0
    0.0923   -2.0698   -0.6508 H   0  0  0  0  0  0  0  0  0  0  0  0
  1  2  1  0
  2  3  1  0
  3  4  2  0
  4  5  1  0
  5  6  1  0
  4  7  1  0
  7  8  1  0
  8  2  1  0
  1  9  1  0
  1 10  1  0
  1 11  1  0
  2 12  1  0
  3 13  1  0
  5 14  1  0
  5 15  1  0
  6 16  1  0
  7 17  1  0
  7 18  1  0
M  END
