
     RDKit          3D

 21 23  0  0  0  0  0  0  0  0999 V2000
    2.6329    0.4953   -0.0366 C   0  0  0  0  0  0  0  0  0  0  0  0
    1.8175   -0.6554    0.4516 C   0  0  0  0  0  0  0  0  0  0  0  0
    0.6118   -0.9928   -0.3351 C   0  0  0  0  0  0  0  0  0  0  0  0
   -0.1788    0.0741   -1.0514 C   0  0  0  0  0  0  0  0  0  0  0  0
   -1.0895    0.5119    0.0681 C   0  0  0  0  0  0  0  0  0  0  0  0
   -2.3384   -0.3285    0.1948 C   0  0  0  0  0  0  0  0  0  0  0  0
   -2.3573    1.1614   -0.1067 C   0  0  0  0  0  0  0  0  0  0  0  0
   -0.2214    0.6424    1.1057 O   0  0  0  0  0  0  0  0  0  0  0  0
    0.5183   -0.5062    1.1169 C   0  0  0  0  0  0  0  0  0  0  0  0
    3.5366    0.5640    0.6327 H   0  0  0  0  0  0  0  0  0  0  0  0
    2.1306    1.4628   -0.0321 H   0  0  0  0  0  0  0  0  0  0  0  0
    2.9946    0.2400   -1.0745 H   0  0  0  0  0  0  0  0  0  0  0  0
    2.4214   -1.5361    0.7675 H   0  0  0  0  0  0  0  0  0  0  0  0
    0.2853   -2.0447   -0.4892 H   0  0  0  0  0  0  0  0  0  0  0  0
    0.4697    0.9354   -1.2989 H   0  0  0  0  0  0  0  0  0  0  0  0
   -0.7135   -0.3486   -1.9022 H   0  0  0  0  0  0  0  0  0  0  0  0
   -2.6195   -0.9898   -0.6451 H   0  0  0  0  0  0  0  0  0  0  0  0
   -2.6768   -0.6647    1.1966 H   0  0  0  0  0  0  0  0  0  0  0  0
   -2.6658    1.4637   -1.1347 H   0  0  0  0  0  0  0  0  0  0  0  0
   -2.7746    1.7754    0.6877 H   0  0  0  0  0  0  0  0  0  0  0  0
    0.2168   -1.2596    1.8850 H   0  0  0  0  0  0  0  0  0  0  0  0
  1  2  1  0
  2  3  1  0
  3  4  1  0
  4  5  1  0
  5  6  1  0
  6  7  1  0
  5  8  1  0
  8  9  1  0
  9  2  1  0
  9  3  1  0
  7  5  1  0
  1 10  1  0
  1 11  1  0
  1 12  1  0
  2 13  1  0
  3 14  1  0
  4 15  1  0
  4 16  1  0
  6 17  1  0
  6 18  1  0
  7 19  1  0
  7 20  1  0
  9 21  1  0
M  END
