
     RDKit          3D

 21 22  0  0  0  0  0  0  0  0999 V2000
    1.6638    0.4371    0.6956 C   0  0  0  0  0  0  0  0  0  0  0  0
    0.9687    0.1038   -0.5660 C   0  0  0  0  0  0  0  0  0  0  0  0
    0.7136   -1.4072   -0.5749 C   0  0  0  0  0  0  0  0  0  0  0  0
   -0.7231   -1.5726   -0.1359 C   0  0  0  0  0  0  0  0  0  0  0  0
   -1.3763   -0.2341   -0.2357 C   0  0  0  0  0  0  0  0  0  0  0  0
   -1.3696    0.5698    1.0173 C   0  0  0  0  0  0  0  0  0  0  0  0
   -1.6601    0.3684    2.1616 O   0  0  0  0  0  0  0  0  0  0  0  0
   -0.8569    1.7000    0.2368 C   0  0  0  0  0  0  0  0  0  0  0  0
   -0.3442    0.7326   -0.7890 C   0  0  0  0  0  0  0  0  0  0  0  0
    1.0303    0.4486    1.5865 H   0  0  0  0  0  0  0  0  0  0  0  0
    2.4372   -0.3658    0.8789 H   0  0  0  0  0  0  0  0  0  0  0  0
    2.2377    1.3816    0.6564 H   0  0  0  0  0  0  0  0  0  0  0  0
    1.6756    0.2881   -1.4150 H   0  0  0  0  0  0  0  0  0  0  0  0
    1.4259   -1.9191    0.1004 H   0  0  0  0  0  0  0  0  0  0  0  0
    0.8721   -1.8251   -1.5824 H   0  0  0  0  0  0  0  0  0  0  0  0
   -0.7465   -1.9745    0.9092 H   0  0  0  0  0  0  0  0  0  0  0  0
   -1.2836   -2.2769   -0.7797 H   0  0  0  0  0  0  0  0  0  0  0  0
   -2.2894   -0.1741   -0.8400 H   0  0  0  0  0  0  0  0  0  0  0  0
   -1.7131    2.2802   -0.2026 H   0  0  0  0  0  0  0  0  0  0  0  0
   -0.1373    2.3693    0.7031 H   0  0  0  0  0  0  0  0  0  0  0  0
   -0.5247    1.0697   -1.8244 H   0  0  0  0  0  0  0  0  0  0  0  0
  1  2  1  0
  2  3  1  0
  3  4  1  0
  4  5  1  0
  5  6  1  0
  6  7  2  0
  6  8  1  0
  8  9  1  0
  9  2  1  0
  9  5  1  0
  1 10  1  0
  1 11  1  0
  1 12  1  0
  2 13  1  0
  3 14  1  0
  3 15  1  0
  4 16  1  0
  4 17  1  0
  5 18  1  0
  8 19  1  0
  8 20  1  0
  9 21  1  0
M  END
