
     RDKit          3D

 23 24  0  0  0  0  0  0  0  0999 V2000
    2.0274   -1.1742   -0.4672 C   0  0  0  0  0  0  0  0  0  0  0  0
    1.1733    0.0390   -0.3897 C   0  0  0  0  0  0  0  0  0  0  0  0
    0.3434    0.2446    0.8325 C   0  0  0  0  0  0  0  0  0  0  0  0
   -0.5210    1.1424   -0.0132 C   0  0  0  0  0  0  0  0  0  0  0  0
    0.0315    2.4516   -0.4155 C   0  0  0  0  0  0  0  0  0  0  0  0
   -0.2202   -0.0357   -0.9043 C   0  0  0  0  0  0  0  0  0  0  0  0
   -0.5459   -0.8539    0.3187 C   0  0  0  0  0  0  0  0  0  0  0  0
   -1.9851   -0.7967    0.7744 C   0  0  0  0  0  0  0  0  0  0  0  0
   -0.0686   -2.1296    0.3667 O   0  0  0  0  0  0  0  0  0  0  0  0
    1.6663   -1.9445   -1.1858 H   0  0  0  0  0  0  0  0  0  0  0  0
    2.1994   -1.6061    0.5569 H   0  0  0  0  0  0  0  0  0  0  0  0
    3.0740   -0.9342   -0.8261 H   0  0  0  0  0  0  0  0  0  0  0  0
    1.7620    0.9470   -0.6497 H   0  0  0  0  0  0  0  0  0  0  0  0
    0.6368    0.4000    1.7749 H   0  0  0  0  0  0  0  0  0  0  0  0
   -1.5514    1.2116    0.3738 H   0  0  0  0  0  0  0  0  0  0  0  0
    0.5911    2.4528   -1.3715 H   0  0  0  0  0  0  0  0  0  0  0  0
   -0.8030    3.1703   -0.5647 H   0  0  0  0  0  0  0  0  0  0  0  0
    0.6530    2.9049    0.4098 H   0  0  0  0  0  0  0  0  0  0  0  0
   -0.5480   -0.1859   -1.8359 H   0  0  0  0  0  0  0  0  0  0  0  0
   -2.6741   -0.4414   -0.0305 H   0  0  0  0  0  0  0  0  0  0  0  0
   -2.1130   -0.2151    1.7175 H   0  0  0  0  0  0  0  0  0  0  0  0
   -2.3739   -1.8264    1.0313 H   0  0  0  0  0  0  0  0  0  0  0  0
   -0.7541   -2.8203    0.4977 H   0  0  0  0  0  0  0  0  0  0  0  0
  1  2  1  0
  2  3  1  0
  3  4  1  0
  4  5  1  0
  4  6  1  0
  6  7  1  0
  7  8  1  0
  7  9  1  0
  6  2  1  0
  7  3  1  0
  1 10  1  0
  1 11  1  0
  1 12  1  0
  2 13  1  0
  3 14  1  0
  4 15  1  0
  5 16  1  0
  5 17  1  0
  5 18  1  0
  6 19  1  0
  8 20  1  0
  8 21  1  0
  8 22  1  0
  9 23  1  0
M  END
