
     RDKit          3D

 21 23  0  0  0  0  0  0  0  0999 V2000
   -2.6072    0.2270    0.6014 C   0  0  0  0  0  0  0  0  0  0  0  0
   -1.3458   -0.5654    0.2304 C   0  0  0  0  0  0  0  0  0  0  0  0
   -1.0250   -0.3114   -1.2177 C   0  0  0  0  0  0  0  0  0  0  0  0
    0.1061    0.5733   -0.7570 C   0  0  0  0  0  0  0  0  0  0  0  0
   -0.1314    0.1222    0.7241 C   0  0  0  0  0  0  0  0  0  0  0  0
    1.1534    0.0349    0.0707 C   0  0  0  0  0  0  0  0  0  0  0  0
    1.9946   -1.1264   -0.1484 C   0  0  0  0  0  0  0  0  0  0  0  0
    3.1171   -0.2616   -0.1648 O   0  0  0  0  0  0  0  0  0  0  0  0
    2.3601    0.7947    0.3955 C   0  0  0  0  0  0  0  0  0  0  0  0
   -3.5045   -0.2125    0.1682 H   0  0  0  0  0  0  0  0  0  0  0  0
   -2.6189    0.3194    1.6974 H   0  0  0  0  0  0  0  0  0  0  0  0
   -2.4201    1.2650    0.2099 H   0  0  0  0  0  0  0  0  0  0  0  0
   -1.4454   -1.6477    0.4124 H   0  0  0  0  0  0  0  0  0  0  0  0
   -0.7053   -1.2150   -1.7939 H   0  0  0  0  0  0  0  0  0  0  0  0
   -1.7972    0.2213   -1.8005 H   0  0  0  0  0  0  0  0  0  0  0  0
   -0.0087    1.6617   -0.9265 H   0  0  0  0  0  0  0  0  0  0  0  0
   -0.2665    0.9750    1.4513 H   0  0  0  0  0  0  0  0  0  0  0  0
    1.9201   -1.6573   -1.1173 H   0  0  0  0  0  0  0  0  0  0  0  0
    2.1623   -1.8467    0.7014 H   0  0  0  0  0  0  0  0  0  0  0  0
    2.5239    0.9272    1.4788 H   0  0  0  0  0  0  0  0  0  0  0  0
    2.5385    1.7224   -0.2154 H   0  0  0  0  0  0  0  0  0  0  0  0
  1  2  1  0
  2  3  1  0
  3  4  1  0
  4  5  1  0
  5  6  1  0
  6  7  1  0
  7  8  1  0
  8  9  1  0
  5  2  1  0
  9  6  1  0
  6  4  1  0
  1 10  1  0
  1 11  1  0
  1 12  1  0
  2 13  1  0
  3 14  1  0
  3 15  1  0
  4 16  1  0
  5 17  1  0
  7 18  1  0
  7 19  1  0
  9 20  1  0
  9 21  1  0
M  END
