
     RDKit          3D

 21 22  0  0  0  0  0  0  0  0999 V2000
    2.1044    0.2339   -0.5825 C   0  0  0  0  0  0  0  0  0  0  0  0
    0.8872   -0.2745    0.0920 C   0  0  0  0  0  0  0  0  0  0  0  0
    0.2429   -1.4540   -0.6199 C   0  0  0  0  0  0  0  0  0  0  0  0
   -0.9064   -1.7707    0.0862 O   0  0  0  0  0  0  0  0  0  0  0  0
   -1.6851   -0.6801    0.4057 C   0  0  0  0  0  0  0  0  0  0  0  0
   -1.4175    0.5068   -0.5329 C   0  0  0  0  0  0  0  0  0  0  0  0
   -0.1845    0.7491    0.3180 C   0  0  0  0  0  0  0  0  0  0  0  0
    0.2031    2.0511    0.4536 O   0  0  0  0  0  0  0  0  0  0  0  0
   -1.0270    0.1972    1.4825 C   0  0  0  0  0  0  0  0  0  0  0  0
    3.0401    0.0426    0.0213 H   0  0  0  0  0  0  0  0  0  0  0  0
    2.3074   -0.2681   -1.5617 H   0  0  0  0  0  0  0  0  0  0  0  0
    2.1054    1.3178   -0.7825 H   0  0  0  0  0  0  0  0  0  0  0  0
    1.1968   -0.6786    1.1009 H   0  0  0  0  0  0  0  0  0  0  0  0
    0.0926   -1.2861   -1.6855 H   0  0  0  0  0  0  0  0  0  0  0  0
    0.9580   -2.3091   -0.5253 H   0  0  0  0  0  0  0  0  0  0  0  0
   -2.7357   -0.8980    0.5833 H   0  0  0  0  0  0  0  0  0  0  0  0
   -1.2490    0.2464   -1.5714 H   0  0  0  0  0  0  0  0  0  0  0  0
   -2.1674    1.2860   -0.3149 H   0  0  0  0  0  0  0  0  0  0  0  0
    0.3815    2.4271   -0.4559 H   0  0  0  0  0  0  0  0  0  0  0  0
   -0.4065   -0.3607    2.2001 H   0  0  0  0  0  0  0  0  0  0  0  0
   -1.7402    0.9220    1.8888 H   0  0  0  0  0  0  0  0  0  0  0  0
  1  2  1  0
  2  3  1  0
  3  4  1  0
  4  5  1  0
  5  6  1  0
  6  7  1  0
  7  8  1  0
  7  9  1  0
  7  2  1  0
  9  5  1  0
  1 10  1  0
  1 11  1  0
  1 12  1  0
  2 13  1  0
  3 14  1  0
  3 15  1  0
  5 16  1  0
  6 17  1  0
  6 18  1  0
  8 19  1  0
  9 20  1  0
  9 21  1  0
M  END
