
     RDKit          3D

 16 17  0  0  0  0  0  0  0  0999 V2000
    2.1453   -0.0054    0.0937 C   0  0  0  0  0  0  0  0  0  0  0  0
    0.6871   -0.0977    0.4396 C   0  0  0  0  0  0  0  0  0  0  0  0
   -0.2459    0.5069   -0.5743 C   0  0  0  0  0  0  0  0  0  0  0  0
   -1.5102    1.0961    0.0139 C   0  0  0  0  0  0  0  0  0  0  0  0
   -2.2579   -0.0111    0.4763 O   0  0  0  0  0  0  0  0  0  0  0  0
   -1.5667   -1.1828    0.3175 C   0  0  0  0  0  0  0  0  0  0  0  0
   -1.9661   -2.3169    0.6567 O   0  0  0  0  0  0  0  0  0  0  0  0
   -0.2508   -0.9484   -0.3215 C   0  0  0  0  0  0  0  0  0  0  0  0
    2.3207    0.3103   -0.9557 H   0  0  0  0  0  0  0  0  0  0  0  0
    2.5928    0.8056    0.7290 H   0  0  0  0  0  0  0  0  0  0  0  0
    2.7070   -0.9416    0.2746 H   0  0  0  0  0  0  0  0  0  0  0  0
    0.4765    0.0685    1.5213 H   0  0  0  0  0  0  0  0  0  0  0  0
    0.1216    0.8586   -1.5396 H   0  0  0  0  0  0  0  0  0  0  0  0
   -1.2961    1.8318    0.8142 H   0  0  0  0  0  0  0  0  0  0  0  0
   -2.0259    1.6371   -0.8118 H   0  0  0  0  0  0  0  0  0  0  0  0
    0.0686   -1.6110   -1.1340 H   0  0  0  0  0  0  0  0  0  0  0  0
  1  2  1  0
  2  3  1  0
  3  4  1  0
  4  5  1  0
  5  6  1  0
  6  7  2  0
  6  8  1  0
  8  2  1  0
  8  3  1  0
  1  9  1  0
  1 10  1  0
  1 11  1  0
  2 12  1  0
  3 13  1  0
  4 14  1  0
  4 15  1  0
  8 16  1  0
M  END
