
     RDKit          3D

 23 24  0  0  0  0  0  0  0  0999 V2000
   -2.8612   -0.3707    0.4924 C   0  0  0  0  0  0  0  0  0  0  0  0
   -1.5256    0.0178   -0.1061 C   0  0  0  0  0  0  0  0  0  0  0  0
   -0.4761   -1.0525    0.0929 C   0  0  0  0  0  0  0  0  0  0  0  0
    0.7067   -0.5965   -0.7700 C   0  0  0  0  0  0  0  0  0  0  0  0
    2.0357   -1.0147   -0.2039 C   0  0  0  0  0  0  0  0  0  0  0  0
    2.1432    0.3515    0.4351 C   0  0  0  0  0  0  0  0  0  0  0  0
    1.0650    0.8183   -0.5514 C   0  0  0  0  0  0  0  0  0  0  0  0
    0.0716    1.6908    0.0755 C   0  0  0  0  0  0  0  0  0  0  0  0
   -1.0993    1.1634    0.4890 O   0  0  0  0  0  0  0  0  0  0  0  0
   -2.9317   -1.4314    0.7526 H   0  0  0  0  0  0  0  0  0  0  0  0
   -3.6826   -0.0722   -0.1968 H   0  0  0  0  0  0  0  0  0  0  0  0
   -3.0435    0.2075    1.4379 H   0  0  0  0  0  0  0  0  0  0  0  0
   -1.6763    0.0989   -1.2139 H   0  0  0  0  0  0  0  0  0  0  0  0
   -0.1484   -1.1582    1.1344 H   0  0  0  0  0  0  0  0  0  0  0  0
   -0.8196   -2.0151   -0.3297 H   0  0  0  0  0  0  0  0  0  0  0  0
    0.5955   -0.8597   -1.8461 H   0  0  0  0  0  0  0  0  0  0  0  0
    1.9557   -1.8606    0.5132 H   0  0  0  0  0  0  0  0  0  0  0  0
    2.8548   -1.1471   -0.9295 H   0  0  0  0  0  0  0  0  0  0  0  0
    3.1152    0.8449    0.3161 H   0  0  0  0  0  0  0  0  0  0  0  0
    1.7682    0.3671    1.4764 H   0  0  0  0  0  0  0  0  0  0  0  0
    1.5565    1.2721   -1.4373 H   0  0  0  0  0  0  0  0  0  0  0  0
   -0.1578    2.5641   -0.6038 H   0  0  0  0  0  0  0  0  0  0  0  0
    0.5541    2.1823    0.9731 H   0  0  0  0  0  0  0  0  0  0  0  0
  1  2  1  0
  2  3  1  0
  3  4  1  0
  4  5  1  0
  5  6  1  0
  6  7  1  0
  7  8  1  0
  8  9  1  0
  9  2  1  0
  7  4  1  0
  1 10  1  0
  1 11  1  0
  1 12  1  0
  2 13  1  0
  3 14  1  0
  3 15  1  0
  4 16  1  0
  5 17  1  0
  5 18  1  0
  6 19  1  0
  6 20  1  0
  7 21  1  0
  8 22  1  0
  8 23  1  0
M  END
