
     RDKit          3D

 20 20  0  0  0  0  0  0  0  0999 V2000
   -2.0463   -0.4358   -0.9484 C   0  0  0  0  0  0  0  0  0  0  0  0
   -0.8503   -0.8624   -0.1417 C   0  0  0  0  0  0  0  0  0  0  0  0
   -0.7782   -0.1742    1.2453 C   0  0  0  0  0  0  0  0  0  0  0  0
    0.2631    0.0449    0.1650 C   0  0  0  0  0  0  0  0  0  0  0  0
    0.3345    1.4012   -0.5102 C   0  0  0  0  0  0  0  0  0  0  0  0
    1.4556    2.1074   -0.0903 O   0  0  0  0  0  0  0  0  0  0  0  0
    1.6153   -0.5577    0.4693 C   0  0  0  0  0  0  0  0  0  0  0  0
    2.1103   -1.3106   -0.5761 O   0  0  0  0  0  0  0  0  0  0  0  0
   -2.9138   -1.0473   -0.5622 H   0  0  0  0  0  0  0  0  0  0  0  0
   -1.9561   -0.6275   -2.0216 H   0  0  0  0  0  0  0  0  0  0  0  0
   -2.3369    0.6154   -0.7686 H   0  0  0  0  0  0  0  0  0  0  0  0
   -0.6209   -1.9340   -0.1886 H   0  0  0  0  0  0  0  0  0  0  0  0
   -1.4543    0.6667    1.4312 H   0  0  0  0  0  0  0  0  0  0  0  0
   -0.5694   -0.8774    2.0617 H   0  0  0  0  0  0  0  0  0  0  0  0
    0.4668    1.1779   -1.6092 H   0  0  0  0  0  0  0  0  0  0  0  0
   -0.6022    1.9718   -0.4334 H   0  0  0  0  0  0  0  0  0  0  0  0
    1.2109    2.8027    0.5565 H   0  0  0  0  0  0  0  0  0  0  0  0
    1.5704   -1.2316    1.3703 H   0  0  0  0  0  0  0  0  0  0  0  0
    2.3351    0.2545    0.7576 H   0  0  0  0  0  0  0  0  0  0  0  0
    2.7664   -1.9842   -0.2066 H   0  0  0  0  0  0  0  0  0  0  0  0
  1  2  1  0
  2  3  1  0
  3  4  1  0
  4  5  1  0
  5  6  1  0
  4  7  1  0
  7  8  1  0
  4  2  1  0
  1  9  1  0
  1 10  1  0
  1 11  1  0
  2 12  1  0
  3 13  1  0
  3 14  1  0
  5 15  1  0
  5 16  1  0
  6 17  1  0
  7 18  1  0
  7 19  1  0
  8 20  1  0
M  END
