
     RDKit          3D

 25 26  0  0  0  0  0  0  0  0999 V2000
   -1.3045    1.1354    1.3458 C   0  0  0  0  0  0  0  0  0  0  0  0
   -1.3064    0.5574   -0.0278 C   0  0  0  0  0  0  0  0  0  0  0  0
   -1.7028   -0.9084   -0.0532 C   0  0  0  0  0  0  0  0  0  0  0  0
   -0.4422   -1.2064   -0.8627 C   0  0  0  0  0  0  0  0  0  0  0  0
    0.0085    0.1965   -0.6288 C   0  0  0  0  0  0  0  0  0  0  0  0
    0.2003    0.9202   -1.9619 C   0  0  0  0  0  0  0  0  0  0  0  0
    1.2259    0.3819    0.2201 C   0  0  0  0  0  0  0  0  0  0  0  0
    1.4210   -0.3047    1.4996 C   0  0  0  0  0  0  0  0  0  0  0  0
    2.2448   -0.6687    0.2740 C   0  0  0  0  0  0  0  0  0  0  0  0
   -1.1815    0.3866    2.1413 H   0  0  0  0  0  0  0  0  0  0  0  0
   -2.3247    1.5908    1.5146 H   0  0  0  0  0  0  0  0  0  0  0  0
   -0.6018    2.0014    1.4651 H   0  0  0  0  0  0  0  0  0  0  0  0
   -1.9839    1.1429   -0.7155 H   0  0  0  0  0  0  0  0  0  0  0  0
   -1.7209   -1.3653    0.9523 H   0  0  0  0  0  0  0  0  0  0  0  0
   -2.6115   -1.1231   -0.6647 H   0  0  0  0  0  0  0  0  0  0  0  0
   -0.6616   -1.4813   -1.9208 H   0  0  0  0  0  0  0  0  0  0  0  0
    0.1070   -2.0144   -0.3835 H   0  0  0  0  0  0  0  0  0  0  0  0
    0.9342    0.3245   -2.5297 H   0  0  0  0  0  0  0  0  0  0  0  0
    0.6863    1.9039   -1.7641 H   0  0  0  0  0  0  0  0  0  0  0  0
   -0.7729    1.0373   -2.4789 H   0  0  0  0  0  0  0  0  0  0  0  0
    1.6301    1.4361    0.1768 H   0  0  0  0  0  0  0  0  0  0  0  0
    2.0099    0.1893    2.2956 H   0  0  0  0  0  0  0  0  0  0  0  0
    0.7169   -1.0619    1.9031 H   0  0  0  0  0  0  0  0  0  0  0  0
    3.3327   -0.3759    0.2676 H   0  0  0  0  0  0  0  0  0  0  0  0
    2.0971   -1.7005   -0.0643 H   0  0  0  0  0  0  0  0  0  0  0  0
  1  2  1  0
  2  3  1  0
  3  4  1  0
  4  5  1  0
  5  6  1  0
  5  7  1  0
  7  8  1  0
  8  9  1  0
  5  2  1  0
  9  7  1  0
  1 10  1  0
  1 11  1  0
  1 12  1  0
  2 13  1  0
  3 14  1  0
  3 15  1  0
  4 16  1  0
  4 17  1  0
  6 18  1  0
  6 19  1  0
  6 20  1  0
  7 21  1  0
  8 22  1  0
  8 23  1  0
  9 24  1  0
  9 25  1  0
M  END
