
     RDKit          3D

 21 22  0  0  0  0  0  0  0  0999 V2000
   -2.2516    0.0481   -0.3965 C   0  0  0  0  0  0  0  0  0  0  0  0
   -1.0712    0.2848    0.4418 C   0  0  0  0  0  0  0  0  0  0  0  0
   -0.1183    1.3843   -0.0076 C   0  0  0  0  0  0  0  0  0  0  0  0
    0.9821    0.5386    0.6340 C   0  0  0  0  0  0  0  0  0  0  0  0
    2.1219    0.3123   -0.3141 C   0  0  0  0  0  0  0  0  0  0  0  0
    1.5542   -0.2995   -1.3975 O   0  0  0  0  0  0  0  0  0  0  0  0
    0.5478   -1.1561   -0.9247 C   0  0  0  0  0  0  0  0  0  0  0  0
    0.0824   -0.6538    0.3774 C   0  0  0  0  0  0  0  0  0  0  0  0
    0.0380   -1.6029    1.3568 O   0  0  0  0  0  0  0  0  0  0  0  0
   -2.7214    0.9787   -0.8143 H   0  0  0  0  0  0  0  0  0  0  0  0
   -3.0663   -0.3962    0.2487 H   0  0  0  0  0  0  0  0  0  0  0  0
   -2.0982   -0.7097   -1.2018 H   0  0  0  0  0  0  0  0  0  0  0  0
   -1.3477    0.4794    1.5020 H   0  0  0  0  0  0  0  0  0  0  0  0
   -0.1993    2.3303    0.5522 H   0  0  0  0  0  0  0  0  0  0  0  0
   -0.0108    1.4651   -1.1016 H   0  0  0  0  0  0  0  0  0  0  0  0
    1.2126    0.7665    1.6675 H   0  0  0  0  0  0  0  0  0  0  0  0
    2.5641    1.2968   -0.6361 H   0  0  0  0  0  0  0  0  0  0  0  0
    2.8735   -0.3086    0.1933 H   0  0  0  0  0  0  0  0  0  0  0  0
    1.0845   -2.1379   -0.7635 H   0  0  0  0  0  0  0  0  0  0  0  0
   -0.2029   -1.3434   -1.6871 H   0  0  0  0  0  0  0  0  0  0  0  0
    0.0265   -1.2768    2.2713 H   0  0  0  0  0  0  0  0  0  0  0  0
  1  2  1  0
  2  3  1  0
  3  4  1  0
  4  5  1  0
  5  6  1  0
  6  7  1  0
  7  8  1  0
  8  9  1  0
  8  2  1  0
  8  4  1  0
  1 10  1  0
  1 11  1  0
  1 12  1  0
  2 13  1  0
  3 14  1  0
  3 15  1  0
  4 16  1  0
  5 17  1  0
  5 18  1  0
  7 19  1  0
  7 20  1  0
  9 21  1  0
M  END
