
     RDKit          3D

 23 24  0  0  0  0  0  0  0  0999 V2000
   -1.2820    1.6544    0.3795 C   0  0  0  0  0  0  0  0  0  0  0  0
   -0.3520    0.8534   -0.5101 C   0  0  0  0  0  0  0  0  0  0  0  0
    0.9868    1.4901   -0.4374 C   0  0  0  0  0  0  0  0  0  0  0  0
    2.0305    0.9655    0.1520 C   0  0  0  0  0  0  0  0  0  0  0  0
    1.9225   -0.3562    0.8091 C   0  0  0  0  0  0  0  0  0  0  0  0
    1.0170   -1.2081   -0.0510 C   0  0  0  0  0  0  0  0  0  0  0  0
   -0.3504   -0.6030   -0.2113 C   0  0  0  0  0  0  0  0  0  0  0  0
   -1.5312   -1.1994    0.4555 C   0  0  0  0  0  0  0  0  0  0  0  0
   -1.3128   -1.5095   -0.9819 C   0  0  0  0  0  0  0  0  0  0  0  0
   -0.8574    2.6579    0.6315 H   0  0  0  0  0  0  0  0  0  0  0  0
   -1.4755    1.1602    1.3485 H   0  0  0  0  0  0  0  0  0  0  0  0
   -2.2645    1.8435   -0.1027 H   0  0  0  0  0  0  0  0  0  0  0  0
   -0.7201    0.9963   -1.5508 H   0  0  0  0  0  0  0  0  0  0  0  0
    1.1188    2.4701   -0.9092 H   0  0  0  0  0  0  0  0  0  0  0  0
    2.9682    1.4903    0.1618 H   0  0  0  0  0  0  0  0  0  0  0  0
    1.5808   -0.2933    1.8594 H   0  0  0  0  0  0  0  0  0  0  0  0
    2.9097   -0.8799    0.8420 H   0  0  0  0  0  0  0  0  0  0  0  0
    0.8748   -2.2350    0.3753 H   0  0  0  0  0  0  0  0  0  0  0  0
    1.4775   -1.2341   -1.0616 H   0  0  0  0  0  0  0  0  0  0  0  0
   -2.3877   -0.5304    0.6612 H   0  0  0  0  0  0  0  0  0  0  0  0
   -1.4220   -2.0218    1.2060 H   0  0  0  0  0  0  0  0  0  0  0  0
   -1.9535   -1.0093   -1.7629 H   0  0  0  0  0  0  0  0  0  0  0  0
   -0.9775   -2.5016   -1.3028 H   0  0  0  0  0  0  0  0  0  0  0  0
  1  2  1  0
  2  3  1  0
  3  4  2  0
  4  5  1  0
  5  6  1  0
  6  7  1  0
  7  8  1  0
  8  9  1  0
  7  2  1  0
  9  7  1  0
  1 10  1  0
  1 11  1  0
  1 12  1  0
  2 13  1  0
  3 14  1  0
  4 15  1  0
  5 16  1  0
  5 17  1  0
  6 18  1  0
  6 19  1  0
  8 20  1  0
  8 21  1  0
  9 22  1  0
  9 23  1  0
M  END
