
     RDKit          3D

 22 23  0  0  0  0  0  0  0  0999 V2000
   -1.4004   -1.3812    0.6255 C   0  0  0  0  0  0  0  0  0  0  0  0
   -1.0299   -0.8491   -0.7376 C   0  0  0  0  0  0  0  0  0  0  0  0
   -1.2071    0.5876   -0.9452 C   0  0  0  0  0  0  0  0  0  0  0  0
   -1.4679    1.5550    0.1687 C   0  0  0  0  0  0  0  0  0  0  0  0
    0.1817   -0.0817   -0.9830 C   0  0  0  0  0  0  0  0  0  0  0  0
    1.1203    0.3874    0.0665 C   0  0  0  0  0  0  0  0  0  0  0  0
    1.8438   -0.4811    0.9868 C   0  0  0  0  0  0  0  0  0  0  0  0
    2.6085    0.0881   -0.2093 C   0  0  0  0  0  0  0  0  0  0  0  0
   -2.5113   -1.2839    0.7169 H   0  0  0  0  0  0  0  0  0  0  0  0
   -1.2077   -2.4832    0.6756 H   0  0  0  0  0  0  0  0  0  0  0  0
   -0.9432   -0.8486    1.4556 H   0  0  0  0  0  0  0  0  0  0  0  0
   -1.3576   -1.5479   -1.5627 H   0  0  0  0  0  0  0  0  0  0  0  0
   -1.6482    0.8962   -1.9173 H   0  0  0  0  0  0  0  0  0  0  0  0
   -2.5501    1.7786    0.1791 H   0  0  0  0  0  0  0  0  0  0  0  0
   -1.1979    1.1763    1.1634 H   0  0  0  0  0  0  0  0  0  0  0  0
   -0.8892    2.5039    0.0053 H   0  0  0  0  0  0  0  0  0  0  0  0
    0.6225   -0.1127   -2.0117 H   0  0  0  0  0  0  0  0  0  0  0  0
    0.9541    1.4478    0.4035 H   0  0  0  0  0  0  0  0  0  0  0  0
    2.1272   -0.0604    1.9962 H   0  0  0  0  0  0  0  0  0  0  0  0
    1.7797   -1.5729    0.9986 H   0  0  0  0  0  0  0  0  0  0  0  0
    3.3391    0.8824   -0.0201 H   0  0  0  0  0  0  0  0  0  0  0  0
    2.8336   -0.6005   -1.0548 H   0  0  0  0  0  0  0  0  0  0  0  0
  1  2  1  0
  2  3  1  0
  3  4  1  0
  3  5  1  0
  5  6  1  0
  6  7  1  0
  7  8  1  0
  5  2  1  0
  8  6  1  0
  1  9  1  0
  1 10  1  0
  1 11  1  0
  2 12  1  0
  3 13  1  0
  4 14  1  0
  4 15  1  0
  4 16  1  0
  5 17  1  0
  6 18  1  0
  7 19  1  0
  7 20  1  0
  8 21  1  0
  8 22  1  0
M  END
