
     RDKit          3D

 21 22  0  0  0  0  0  0  0  0999 V2000
   -1.5708    1.4966    0.0769 C   0  0  0  0  0  0  0  0  0  0  0  0
   -0.7222    0.3832    0.5897 C   0  0  0  0  0  0  0  0  0  0  0  0
   -1.4227   -0.9677    0.3755 C   0  0  0  0  0  0  0  0  0  0  0  0
   -0.1798   -1.4565   -0.3842 C   0  0  0  0  0  0  0  0  0  0  0  0
    0.5498   -2.3991    0.3419 O   0  0  0  0  0  0  0  0  0  0  0  0
    0.3902   -0.1060   -0.2225 C   0  0  0  0  0  0  0  0  0  0  0  0
    1.2050    0.6059   -1.1664 C   0  0  0  0  0  0  0  0  0  0  0  0
    1.7810    0.1490    0.1978 C   0  0  0  0  0  0  0  0  0  0  0  0
    1.9087    1.1494    1.1775 O   0  0  0  0  0  0  0  0  0  0  0  0
   -1.8760    1.3602   -0.9725 H   0  0  0  0  0  0  0  0  0  0  0  0
   -2.5193    1.5020    0.6775 H   0  0  0  0  0  0  0  0  0  0  0  0
   -1.0959    2.4772    0.1874 H   0  0  0  0  0  0  0  0  0  0  0  0
   -0.5020    0.5367    1.6777 H   0  0  0  0  0  0  0  0  0  0  0  0
   -1.6009   -1.5083    1.3285 H   0  0  0  0  0  0  0  0  0  0  0  0
   -2.2853   -0.8973   -0.2899 H   0  0  0  0  0  0  0  0  0  0  0  0
   -0.3812   -1.7239   -1.4399 H   0  0  0  0  0  0  0  0  0  0  0  0
    0.3165   -3.3195    0.1503 H   0  0  0  0  0  0  0  0  0  0  0  0
    1.1942    1.6811   -1.3470 H   0  0  0  0  0  0  0  0  0  0  0  0
    1.5779    0.0287   -2.0638 H   0  0  0  0  0  0  0  0  0  0  0  0
    2.5219   -0.6587    0.1523 H   0  0  0  0  0  0  0  0  0  0  0  0
    2.7108    1.6669    0.9532 H   0  0  0  0  0  0  0  0  0  0  0  0
  1  2  1  0
  2  3  1  0
  3  4  1  0
  4  5  1  0
  4  6  1  0
  6  7  1  0
  7  8  1  0
  8  9  1  0
  6  2  1  0
  8  6  1  0
  1 10  1  0
  1 11  1  0
  1 12  1  0
  2 13  1  0
  3 14  1  0
  3 15  1  0
  4 16  1  0
  5 17  1  0
  7 18  1  0
  7 19  1  0
  8 20  1  0
  9 21  1  0
M  END
