
     RDKit          3D

 21 21  0  0  0  0  0  0  0  0999 V2000
   -2.1169   -1.4027   -0.3764 C   0  0  0  0  0  0  0  0  0  0  0  0
   -1.1177   -0.4540    0.1844 C   0  0  0  0  0  0  0  0  0  0  0  0
   -1.3694    0.9895   -0.2681 C   0  0  0  0  0  0  0  0  0  0  0  0
   -0.1524    1.8208   -0.0474 C   0  0  0  0  0  0  0  0  0  0  0  0
    0.8109    1.2773    0.7348 O   0  0  0  0  0  0  0  0  0  0  0  0
    1.0148   -0.0594    0.6487 C   0  0  0  0  0  0  0  0  0  0  0  0
    2.4500   -0.4627    0.3882 C   0  0  0  0  0  0  0  0  0  0  0  0
    2.8805    0.0860   -0.8158 O   0  0  0  0  0  0  0  0  0  0  0  0
    0.1970   -0.7182   -0.2693 O   0  0  0  0  0  0  0  0  0  0  0  0
   -1.6156   -2.3349   -0.6998 H   0  0  0  0  0  0  0  0  0  0  0  0
   -2.9133   -1.6938    0.3444 H   0  0  0  0  0  0  0  0  0  0  0  0
   -2.5618   -0.9138   -1.2909 H   0  0  0  0  0  0  0  0  0  0  0  0
   -1.1022   -0.5241    1.2990 H   0  0  0  0  0  0  0  0  0  0  0  0
   -1.5299    0.9114   -1.3774 H   0  0  0  0  0  0  0  0  0  0  0  0
   -2.2475    1.3547    0.2672 H   0  0  0  0  0  0  0  0  0  0  0  0
    0.3186    2.1491   -1.0113 H   0  0  0  0  0  0  0  0  0  0  0  0
   -0.4921    2.7804    0.4417 H   0  0  0  0  0  0  0  0  0  0  0  0
    0.7546   -0.5111    1.6513 H   0  0  0  0  0  0  0  0  0  0  0  0
    3.0508   -0.0996    1.2408 H   0  0  0  0  0  0  0  0  0  0  0  0
    2.4385   -1.5907    0.3297 H   0  0  0  0  0  0  0  0  0  0  0  0
    3.3032   -0.6041   -1.3739 H   0  0  0  0  0  0  0  0  0  0  0  0
  1  2  1  0
  2  3  1  0
  3  4  1  0
  4  5  1  0
  5  6  1  0
  6  7  1  0
  7  8  1  0
  6  9  1  0
  9  2  1  0
  1 10  1  0
  1 11  1  0
  1 12  1  0
  2 13  1  0
  3 14  1  0
  3 15  1  0
  4 16  1  0
  4 17  1  0
  6 18  1  0
  7 19  1  0
  7 20  1  0
  8 21  1  0
M  END
