
     RDKit          3D

 19 20  0  0  0  0  0  0  0  0999 V2000
    2.6103    0.6509   -0.0050 C   0  0  0  0  0  0  0  0  0  0  0  0
    1.1109    0.5081    0.0767 C   0  0  0  0  0  0  0  0  0  0  0  0
    0.6048   -0.9196    0.1209 C   0  0  0  0  0  0  0  0  0  0  0  0
   -0.4822   -0.3469   -0.6177 C   0  0  0  0  0  0  0  0  0  0  0  0
    0.4501    0.4362   -1.1447 O   0  0  0  0  0  0  0  0  0  0  0  0
   -1.5731    0.6096   -0.5072 C   0  0  0  0  0  0  0  0  0  0  0  0
   -1.5334    1.7518    0.2886 O   0  0  0  0  0  0  0  0  0  0  0  0
   -1.6898   -0.6488    0.0410 C   0  0  0  0  0  0  0  0  0  0  0  0
   -2.5176   -1.6143   -0.5931 O   0  0  0  0  0  0  0  0  0  0  0  0
    2.9539    0.9651    1.0127 H   0  0  0  0  0  0  0  0  0  0  0  0
    3.1148   -0.3150   -0.2105 H   0  0  0  0  0  0  0  0  0  0  0  0
    2.9141    1.4592   -0.6952 H   0  0  0  0  0  0  0  0  0  0  0  0
    0.6436    1.1183    0.8553 H   0  0  0  0  0  0  0  0  0  0  0  0
    0.5806   -1.3158    1.1157 H   0  0  0  0  0  0  0  0  0  0  0  0
    1.2360   -1.5771   -0.5386 H   0  0  0  0  0  0  0  0  0  0  0  0
   -2.0847    0.8198   -1.4959 H   0  0  0  0  0  0  0  0  0  0  0  0
   -1.8653    1.5744    1.1915 H   0  0  0  0  0  0  0  0  0  0  0  0
   -1.8462   -0.7426    1.1630 H   0  0  0  0  0  0  0  0  0  0  0  0
   -2.6266   -2.4136   -0.0575 H   0  0  0  0  0  0  0  0  0  0  0  0
  1  2  1  0
  2  3  1  0
  3  4  1  0
  4  5  1  0
  4  6  1  0
  6  7  1  0
  6  8  1  0
  8  9  1  0
  5  2  1  0
  8  4  1  0
  1 10  1  0
  1 11  1  0
  1 12  1  0
  2 13  1  0
  3 14  1  0
  3 15  1  0
  6 16  1  0
  7 17  1  0
  8 18  1  0
  9 19  1  0
M  END
