
     RDKit          3D

 23 24  0  0  0  0  0  0  0  0999 V2000
    2.9147    0.0313   -0.1068 C   0  0  0  0  0  0  0  0  0  0  0  0
    1.4534   -0.2142   -0.4628 C   0  0  0  0  0  0  0  0  0  0  0  0
    0.7947   -0.8276    0.7229 C   0  0  0  0  0  0  0  0  0  0  0  0
   -0.6153   -0.4223    0.9489 C   0  0  0  0  0  0  0  0  0  0  0  0
   -1.0425    0.9698    1.1201 C   0  0  0  0  0  0  0  0  0  0  0  0
   -1.2876    0.2839   -0.1402 C   0  0  0  0  0  0  0  0  0  0  0  0
   -2.6631   -0.2480   -0.5217 C   0  0  0  0  0  0  0  0  0  0  0  0
   -0.4400    0.6576   -1.3143 C   0  0  0  0  0  0  0  0  0  0  0  0
    0.8693    0.9473   -0.9053 O   0  0  0  0  0  0  0  0  0  0  0  0
    3.1385   -0.2677    0.9431 H   0  0  0  0  0  0  0  0  0  0  0  0
    3.5920   -0.5616   -0.7526 H   0  0  0  0  0  0  0  0  0  0  0  0
    3.1319    1.1200   -0.1673 H   0  0  0  0  0  0  0  0  0  0  0  0
    1.4446   -0.9315   -1.3314 H   0  0  0  0  0  0  0  0  0  0  0  0
    0.8469   -1.9376    0.6050 H   0  0  0  0  0  0  0  0  0  0  0  0
    1.3619   -0.6251    1.6783 H   0  0  0  0  0  0  0  0  0  0  0  0
   -1.2100   -1.1766    1.5448 H   0  0  0  0  0  0  0  0  0  0  0  0
   -0.2168    1.7283    1.1419 H   0  0  0  0  0  0  0  0  0  0  0  0
   -1.8512    1.2437    1.8410 H   0  0  0  0  0  0  0  0  0  0  0  0
   -2.4669   -1.2858   -0.9246 H   0  0  0  0  0  0  0  0  0  0  0  0
   -3.1283    0.3056   -1.3362 H   0  0  0  0  0  0  0  0  0  0  0  0
   -3.2972   -0.3981    0.3676 H   0  0  0  0  0  0  0  0  0  0  0  0
   -0.8423    1.6412   -1.6998 H   0  0  0  0  0  0  0  0  0  0  0  0
   -0.4868   -0.0326   -2.1595 H   0  0  0  0  0  0  0  0  0  0  0  0
  1  2  1  0
  2  3  1  0
  3  4  1  0
  4  5  1  0
  5  6  1  0
  6  7  1  0
  6  8  1  0
  8  9  1  0
  9  2  1  0
  6  4  1  0
  1 10  1  0
  1 11  1  0
  1 12  1  0
  2 13  1  0
  3 14  1  0
  3 15  1  0
  4 16  1  0
  5 17  1  0
  5 18  1  0
  7 19  1  0
  7 20  1  0
  7 21  1  0
  8 22  1  0
  8 23  1  0
M  END
