
     RDKit          3D

 21 22  0  0  0  0  0  0  0  0999 V2000
   -1.6552    0.0108   -1.1274 C   0  0  0  0  0  0  0  0  0  0  0  0
   -1.0088    0.2295    0.2037 C   0  0  0  0  0  0  0  0  0  0  0  0
   -0.3282    1.5955    0.2932 C   0  0  0  0  0  0  0  0  0  0  0  0
    0.9302    1.7023   -0.1339 O   0  0  0  0  0  0  0  0  0  0  0  0
    1.7795    0.6010   -0.0281 C   0  0  0  0  0  0  0  0  0  0  0  0
    1.0511   -0.5513   -0.5624 C   0  0  0  0  0  0  0  0  0  0  0  0
    0.6637   -1.8131   -0.0645 C   0  0  0  0  0  0  0  0  0  0  0  0
    0.0032   -0.7623    0.5911 C   0  0  0  0  0  0  0  0  0  0  0  0
    0.4580   -0.4826    1.9080 O   0  0  0  0  0  0  0  0  0  0  0  0
   -1.3836    0.8095   -1.8490 H   0  0  0  0  0  0  0  0  0  0  0  0
   -2.7745    0.0601   -1.0342 H   0  0  0  0  0  0  0  0  0  0  0  0
   -1.3304   -1.0022   -1.4909 H   0  0  0  0  0  0  0  0  0  0  0  0
   -1.8069    0.2533    0.9933 H   0  0  0  0  0  0  0  0  0  0  0  0
   -0.3992    1.9778    1.3502 H   0  0  0  0  0  0  0  0  0  0  0  0
   -0.9861    2.2827   -0.3003 H   0  0  0  0  0  0  0  0  0  0  0  0
    2.7173    0.8365   -0.5275 H   0  0  0  0  0  0  0  0  0  0  0  0
    2.0227    0.5218    1.0734 H   0  0  0  0  0  0  0  0  0  0  0  0
    0.6294   -0.2935   -1.5827 H   0  0  0  0  0  0  0  0  0  0  0  0
    0.0790   -2.5110   -0.7072 H   0  0  0  0  0  0  0  0  0  0  0  0
    1.4350   -2.4181    0.4961 H   0  0  0  0  0  0  0  0  0  0  0  0
   -0.0964   -1.0467    2.4990 H   0  0  0  0  0  0  0  0  0  0  0  0
  1  2  1  0
  2  3  1  0
  3  4  1  0
  4  5  1  0
  5  6  1  0
  6  7  1  0
  7  8  1  0
  8  9  1  0
  8  2  1  0
  8  6  1  0
  1 10  1  0
  1 11  1  0
  1 12  1  0
  2 13  1  0
  3 14  1  0
  3 15  1  0
  5 16  1  0
  5 17  1  0
  6 18  1  0
  7 19  1  0
  7 20  1  0
  9 21  1  0
M  END
