
     RDKit          3D

 23 23  0  0  0  0  0  0  0  0999 V2000
   -0.2797   -2.1463   -0.1473 C   0  0  0  0  0  0  0  0  0  0  0  0
   -0.3831   -0.6778    0.1654 C   0  0  0  0  0  0  0  0  0  0  0  0
   -1.5503   -0.0122   -0.5089 C   0  0  0  0  0  0  0  0  0  0  0  0
   -1.6872    1.3822    0.0883 C   0  0  0  0  0  0  0  0  0  0  0  0
   -0.4040    2.0915    0.1582 C   0  0  0  0  0  0  0  0  0  0  0  0
   -0.3562    3.2746   -0.1175 O   0  0  0  0  0  0  0  0  0  0  0  0
    0.8375    1.3825    0.5616 C   0  0  0  0  0  0  0  0  0  0  0  0
    0.8573    0.0826   -0.2392 C   0  0  0  0  0  0  0  0  0  0  0  0
    2.1183   -0.6805   -0.0749 C   0  0  0  0  0  0  0  0  0  0  0  0
   -1.3145   -2.5366   -0.2270 H   0  0  0  0  0  0  0  0  0  0  0  0
    0.1742   -2.6397    0.7376 H   0  0  0  0  0  0  0  0  0  0  0  0
    0.3299   -2.3566   -1.0389 H   0  0  0  0  0  0  0  0  0  0  0  0
   -0.5357   -0.5609    1.2641 H   0  0  0  0  0  0  0  0  0  0  0  0
   -2.4631   -0.5700   -0.2229 H   0  0  0  0  0  0  0  0  0  0  0  0
   -1.4641    0.0141   -1.6108 H   0  0  0  0  0  0  0  0  0  0  0  0
   -2.1475    1.2268    1.1022 H   0  0  0  0  0  0  0  0  0  0  0  0
   -2.4460    1.9351   -0.5007 H   0  0  0  0  0  0  0  0  0  0  0  0
    0.7319    1.0733    1.6355 H   0  0  0  0  0  0  0  0  0  0  0  0
    1.7447    1.9712    0.4188 H   0  0  0  0  0  0  0  0  0  0  0  0
    0.7898    0.4022   -1.3164 H   0  0  0  0  0  0  0  0  0  0  0  0
    2.8245   -0.1354    0.5837 H   0  0  0  0  0  0  0  0  0  0  0  0
    2.6656   -0.8199   -1.0448 H   0  0  0  0  0  0  0  0  0  0  0  0
    1.9576   -1.7001    0.3340 H   0  0  0  0  0  0  0  0  0  0  0  0
  1  2  1  0
  2  3  1  0
  3  4  1  0
  4  5  1  0
  5  6  2  0
  5  7  1  0
  7  8  1  0
  8  9  1  0
  8  2  1  0
  1 10  1  0
  1 11  1  0
  1 12  1  0
  2 13  1  0
  3 14  1  0
  3 15  1  0
  4 16  1  0
  4 17  1  0
  7 18  1  0
  7 19  1  0
  8 20  1  0
  9 21  1  0
  9 22  1  0
  9 23  1  0
M  END
