
     RDKit          3D

 21 22  0  0  0  0  0  0  0  0999 V2000
   -1.8718   -1.1760   -0.3776 C   0  0  0  0  0  0  0  0  0  0  0  0
   -1.0277    0.0503   -0.6407 C   0  0  0  0  0  0  0  0  0  0  0  0
   -1.4738    1.1955    0.2809 C   0  0  0  0  0  0  0  0  0  0  0  0
   -0.3755    0.7411    1.2134 C   0  0  0  0  0  0  0  0  0  0  0  0
   -0.1209    0.8212    2.3982 O   0  0  0  0  0  0  0  0  0  0  0  0
    0.2696    0.1444    0.0399 C   0  0  0  0  0  0  0  0  0  0  0  0
    1.3891    0.8769   -0.5866 C   0  0  0  0  0  0  0  0  0  0  0  0
    2.3156   -0.0679    0.1964 C   0  0  0  0  0  0  0  0  0  0  0  0
    1.1224   -1.0382    0.2146 C   0  0  0  0  0  0  0  0  0  0  0  0
   -2.9306   -0.8782   -0.5437 H   0  0  0  0  0  0  0  0  0  0  0  0
   -1.5840   -1.9618   -1.0970 H   0  0  0  0  0  0  0  0  0  0  0  0
   -1.8117   -1.5062    0.6803 H   0  0  0  0  0  0  0  0  0  0  0  0
   -0.9906    0.2950   -1.6978 H   0  0  0  0  0  0  0  0  0  0  0  0
   -2.4550    1.0593    0.7322 H   0  0  0  0  0  0  0  0  0  0  0  0
   -1.2582    2.1651   -0.2044 H   0  0  0  0  0  0  0  0  0  0  0  0
    1.4902    0.7548   -1.6847 H   0  0  0  0  0  0  0  0  0  0  0  0
    1.4671    1.9158   -0.2169 H   0  0  0  0  0  0  0  0  0  0  0  0
    2.4775    0.3366    1.2049 H   0  0  0  0  0  0  0  0  0  0  0  0
    3.1792   -0.4145   -0.3671 H   0  0  0  0  0  0  0  0  0  0  0  0
    1.0721   -1.6073    1.1499 H   0  0  0  0  0  0  0  0  0  0  0  0
    1.1169   -1.7059   -0.6943 H   0  0  0  0  0  0  0  0  0  0  0  0
  1  2  1  0
  2  3  1  0
  3  4  1  0
  4  5  2  0
  4  6  1  0
  6  7  1  0
  7  8  1  0
  8  9  1  0
  6  2  1  0
  9  6  1  0
  1 10  1  0
  1 11  1  0
  1 12  1  0
  2 13  1  0
  3 14  1  0
  3 15  1  0
  7 16  1  0
  7 17  1  0
  8 18  1  0
  8 19  1  0
  9 20  1  0
  9 21  1  0
M  END
