
     RDKit          3D

 20 21  0  0  0  0  0  0  0  0999 V2000
   -2.6715   -0.1965   -0.6156 C   0  0  0  0  0  0  0  0  0  0  0  0
   -1.2836   -0.5476   -0.2205 C   0  0  0  0  0  0  0  0  0  0  0  0
   -0.8366   -0.1995    1.1376 C   0  0  0  0  0  0  0  0  0  0  0  0
    0.4708   -0.3129    1.5545 O   0  0  0  0  0  0  0  0  0  0  0  0
    1.0646    0.1102    0.3732 C   0  0  0  0  0  0  0  0  0  0  0  0
    1.5809   -1.0853   -0.3937 C   0  0  0  0  0  0  0  0  0  0  0  0
    2.0438    1.2354    0.4882 C   0  0  0  0  0  0  0  0  0  0  0  0
   -0.3022    0.5633   -0.0904 C   0  0  0  0  0  0  0  0  0  0  0  0
   -2.8201   -0.4896   -1.6916 H   0  0  0  0  0  0  0  0  0  0  0  0
   -3.4062   -0.7884   -0.0454 H   0  0  0  0  0  0  0  0  0  0  0  0
   -2.9028    0.8714   -0.5269 H   0  0  0  0  0  0  0  0  0  0  0  0
   -0.8651   -1.4507   -0.7544 H   0  0  0  0  0  0  0  0  0  0  0  0
   -1.5643    0.3014    1.7843 H   0  0  0  0  0  0  0  0  0  0  0  0
    1.4243   -2.0443    0.1595 H   0  0  0  0  0  0  0  0  0  0  0  0
    2.6770   -0.9533   -0.5498 H   0  0  0  0  0  0  0  0  0  0  0  0
    1.1074   -1.2127   -1.3733 H   0  0  0  0  0  0  0  0  0  0  0  0
    2.3497    1.5234   -0.5336 H   0  0  0  0  0  0  0  0  0  0  0  0
    1.5629    2.1072    0.9510 H   0  0  0  0  0  0  0  0  0  0  0  0
    2.9522    0.9563    1.0334 H   0  0  0  0  0  0  0  0  0  0  0  0
   -0.5813    1.6124   -0.0869 H   0  0  0  0  0  0  0  0  0  0  0  0
  1  2  1  0
  2  3  1  0
  3  4  1  0
  4  5  1  0
  5  6  1  0
  5  7  1  0
  5  8  1  0
  8  2  1  0
  8  3  1  0
  1  9  1  0
  1 10  1  0
  1 11  1  0
  2 12  1  0
  3 13  1  0
  6 14  1  0
  6 15  1  0
  6 16  1  0
  7 17  1  0
  7 18  1  0
  7 19  1  0
  8 20  1  0
M  END
