
     RDKit          3D

 19 20  0  0  0  0  0  0  0  0999 V2000
    1.3651   -0.8674   -1.4101 C   0  0  0  0  0  0  0  0  0  0  0  0
    1.0141    0.3153   -0.5512 C   0  0  0  0  0  0  0  0  0  0  0  0
   -0.4154    0.8007   -0.6969 C   0  0  0  0  0  0  0  0  0  0  0  0
   -0.2160    1.3574    0.6872 C   0  0  0  0  0  0  0  0  0  0  0  0
    0.3585   -0.0324    0.7769 C   0  0  0  0  0  0  0  0  0  0  0  0
    0.8940   -0.5913    1.7555 O   0  0  0  0  0  0  0  0  0  0  0  0
   -0.8115   -0.4837   -0.0494 C   0  0  0  0  0  0  0  0  0  0  0  0
   -2.1162   -0.5136    0.6281 C   0  0  0  0  0  0  0  0  0  0  0  0
   -2.9699    0.3426    0.5507 O   0  0  0  0  0  0  0  0  0  0  0  0
    1.3487   -1.8305   -0.8255 H   0  0  0  0  0  0  0  0  0  0  0  0
    2.4047   -0.7069   -1.7919 H   0  0  0  0  0  0  0  0  0  0  0  0
    0.7299   -0.9502   -2.3211 H   0  0  0  0  0  0  0  0  0  0  0  0
    1.7344    1.1320   -0.5079 H   0  0  0  0  0  0  0  0  0  0  0  0
   -0.8074    1.2587   -1.4901 H   0  0  0  0  0  0  0  0  0  0  0  0
   -1.1059    1.5564    1.2787 H   0  0  0  0  0  0  0  0  0  0  0  0
    0.6088    2.1006    0.7698 H   0  0  0  0  0  0  0  0  0  0  0  0
    0.9674   -0.1790    2.6703 H   0  0  0  0  0  0  0  0  0  0  0  0
   -0.6425   -1.3342   -0.7268 H   0  0  0  0  0  0  0  0  0  0  0  0
   -2.3408   -1.3745    1.2535 H   0  0  0  0  0  0  0  0  0  0  0  0
  1  2  1  0
  2  3  1  0
  3  4  1  0
  4  5  1  0
  5  6  1  0
  5  7  1  0
  7  8  1  0
  8  9  2  0
  5  2  1  0
  7  3  1  0
  1 10  1  0
  1 11  1  0
  1 12  1  0
  2 13  1  0
  3 14  1  0
  4 15  1  0
  4 16  1  0
  6 17  1  0
  7 18  1  0
  8 19  1  0
M  END
