
     RDKit          3D

 21 23  0  0  0  0  0  0  0  0999 V2000
    2.4580    0.5615    0.2693 C   0  0  0  0  0  0  0  0  0  0  0  0
    1.1814    0.1895   -0.4034 C   0  0  0  0  0  0  0  0  0  0  0  0
    0.0157    1.0585   -0.0184 C   0  0  0  0  0  0  0  0  0  0  0  0
   -1.1806    0.1277    0.0530 C   0  0  0  0  0  0  0  0  0  0  0  0
   -2.4261    0.5952   -0.5938 C   0  0  0  0  0  0  0  0  0  0  0  0
   -1.2817   -0.3687    1.3489 O   0  0  0  0  0  0  0  0  0  0  0  0
   -0.3284   -1.3119    1.1028 C   0  0  0  0  0  0  0  0  0  0  0  0
    0.7353   -1.1804    0.0871 C   0  0  0  0  0  0  0  0  0  0  0  0
   -0.6485   -1.2165   -0.3402 C   0  0  0  0  0  0  0  0  0  0  0  0
    3.3382    0.4463   -0.4284 H   0  0  0  0  0  0  0  0  0  0  0  0
    2.4466    1.6070    0.6962 H   0  0  0  0  0  0  0  0  0  0  0  0
    2.7076   -0.1007    1.1336 H   0  0  0  0  0  0  0  0  0  0  0  0
    1.2571    0.1847   -1.5156 H   0  0  0  0  0  0  0  0  0  0  0  0
    0.2514    1.4820    1.0010 H   0  0  0  0  0  0  0  0  0  0  0  0
   -0.1481    1.9040   -0.7117 H   0  0  0  0  0  0  0  0  0  0  0  0
   -2.1603    1.4587   -1.2722 H   0  0  0  0  0  0  0  0  0  0  0  0
   -3.2138    0.9123    0.1225 H   0  0  0  0  0  0  0  0  0  0  0  0
   -2.8782   -0.1661   -1.2953 H   0  0  0  0  0  0  0  0  0  0  0  0
   -0.3897   -2.2283    1.6810 H   0  0  0  0  0  0  0  0  0  0  0  0
    1.4322   -2.0177    0.0021 H   0  0  0  0  0  0  0  0  0  0  0  0
   -1.1680   -1.9372   -0.9184 H   0  0  0  0  0  0  0  0  0  0  0  0
  1  2  1  0
  2  3  1  0
  3  4  1  0
  4  5  1  0
  4  6  1  0
  6  7  1  0
  7  8  1  0
  8  9  1  0
  8  2  1  0
  9  4  1  0
  9  7  1  0
  1 10  1  0
  1 11  1  0
  1 12  1  0
  2 13  1  0
  3 14  1  0
  3 15  1  0
  5 16  1  0
  5 17  1  0
  5 18  1  0
  7 19  1  0
  8 20  1  0
  9 21  1  0
M  END
