
     RDKit          3D

 18 19  0  0  0  0  0  0  0  0999 V2000
   -2.3673    0.6920    0.0868 C   0  0  0  0  0  0  0  0  0  0  0  0
   -1.1371   -0.1607    0.0320 C   0  0  0  0  0  0  0  0  0  0  0  0
   -0.1273    0.3792   -0.9890 C   0  0  0  0  0  0  0  0  0  0  0  0
    1.0348   -0.5445   -0.6413 C   0  0  0  0  0  0  0  0  0  0  0  0
    1.9895   -0.1570    0.3942 C   0  0  0  0  0  0  0  0  0  0  0  0
    2.1599    1.2017    0.5892 O   0  0  0  0  0  0  0  0  0  0  0  0
    0.7528   -0.8426    0.8193 C   0  0  0  0  0  0  0  0  0  0  0  0
   -0.3768   -0.1420    1.1733 O   0  0  0  0  0  0  0  0  0  0  0  0
   -2.1498    1.7671    0.2641 H   0  0  0  0  0  0  0  0  0  0  0  0
   -3.0561    0.2650    0.8112 H   0  0  0  0  0  0  0  0  0  0  0  0
   -2.8595    0.5948   -0.9186 H   0  0  0  0  0  0  0  0  0  0  0  0
   -1.4142   -1.1602   -0.3058 H   0  0  0  0  0  0  0  0  0  0  0  0
   -0.4786    0.2493   -2.0157 H   0  0  0  0  0  0  0  0  0  0  0  0
    0.1912    1.4016   -0.7327 H   0  0  0  0  0  0  0  0  0  0  0  0
    1.2210   -1.4190   -1.3143 H   0  0  0  0  0  0  0  0  0  0  0  0
    2.9276   -0.7360    0.4535 H   0  0  0  0  0  0  0  0  0  0  0  0
    2.9080    1.4018    1.2031 H   0  0  0  0  0  0  0  0  0  0  0  0
    0.7818   -1.9082    1.0908 H   0  0  0  0  0  0  0  0  0  0  0  0
  1  2  1  0
  2  3  1  0
  3  4  1  0
  4  5  1  0
  5  6  1  0
  5  7  1  0
  7  8  1  0
  8  2  1  0
  7  4  1  0
  1  9  1  0
  1 10  1  0
  1 11  1  0
  2 12  1  0
  3 13  1  0
  3 14  1  0
  4 15  1  0
  5 16  1  0
  6 17  1  0
  7 18  1  0
M  END
