
     RDKit          3D

 21 22  0  0  0  0  0  0  0  0999 V2000
   -1.3796   -1.7021   -0.5301 C   0  0  0  0  0  0  0  0  0  0  0  0
   -0.5500   -0.6725    0.2090 C   0  0  0  0  0  0  0  0  0  0  0  0
   -1.2448    0.6899    0.0690 C   0  0  0  0  0  0  0  0  0  0  0  0
   -1.0219    1.0924   -1.2472 O   0  0  0  0  0  0  0  0  0  0  0  0
   -0.5088    1.6240    0.9657 C   0  0  0  0  0  0  0  0  0  0  0  0
    0.8091    1.6613    0.8475 C   0  0  0  0  0  0  0  0  0  0  0  0
    1.4631    0.7878   -0.1515 C   0  0  0  0  0  0  0  0  0  0  0  0
    2.0375   -0.4857    0.4154 C   0  0  0  0  0  0  0  0  0  0  0  0
    0.8081   -0.5046   -0.3861 C   0  0  0  0  0  0  0  0  0  0  0  0
   -1.5365   -2.6208    0.0812 H   0  0  0  0  0  0  0  0  0  0  0  0
   -0.8440   -2.0031   -1.4566 H   0  0  0  0  0  0  0  0  0  0  0  0
   -2.3995   -1.3001   -0.7512 H   0  0  0  0  0  0  0  0  0  0  0  0
   -0.5345   -0.8766    1.3013 H   0  0  0  0  0  0  0  0  0  0  0  0
   -2.3148    0.6072    0.3184 H   0  0  0  0  0  0  0  0  0  0  0  0
   -1.0475    0.2658   -1.8191 H   0  0  0  0  0  0  0  0  0  0  0  0
   -1.0267    2.2357    1.6724 H   0  0  0  0  0  0  0  0  0  0  0  0
    1.4327    2.3004    1.4467 H   0  0  0  0  0  0  0  0  0  0  0  0
    1.9306    1.2829   -1.0067 H   0  0  0  0  0  0  0  0  0  0  0  0
    2.9780   -0.8121   -0.0693 H   0  0  0  0  0  0  0  0  0  0  0  0
    2.0540   -0.6250    1.5131 H   0  0  0  0  0  0  0  0  0  0  0  0
    0.8957   -0.9448   -1.4218 H   0  0  0  0  0  0  0  0  0  0  0  0
  1  2  1  0
  2  3  1  0
  3  4  1  0
  3  5  1  0
  5  6  2  0
  6  7  1  0
  7  8  1  0
  8  9  1  0
  9  2  1  0
  9  7  1  0
  1 10  1  0
  1 11  1  0
  1 12  1  0
  2 13  1  0
  3 14  1  0
  4 15  1  0
  5 16  1  0
  6 17  1  0
  7 18  1  0
  8 19  1  0
  8 20  1  0
  9 21  1  0
M  END
