
     RDKit          3D

 21 23  0  0  0  0  0  0  0  0999 V2000
   -1.3457   -1.4255   -0.4869 C   0  0  0  0  0  0  0  0  0  0  0  0
   -0.5574   -0.1580   -0.8383 C   0  0  0  0  0  0  0  0  0  0  0  0
   -1.4086    1.0004   -0.3862 C   0  0  0  0  0  0  0  0  0  0  0  0
   -1.9478    0.8107    0.8926 O   0  0  0  0  0  0  0  0  0  0  0  0
   -0.8093    1.5589    0.8203 C   0  0  0  0  0  0  0  0  0  0  0  0
    0.5480    0.9846    0.9106 C   0  0  0  0  0  0  0  0  0  0  0  0
    0.7683   -0.4168    1.3812 C   0  0  0  0  0  0  0  0  0  0  0  0
    0.7022   -0.1235   -0.0581 C   0  0  0  0  0  0  0  0  0  0  0  0
    2.0003   -0.3090   -0.8252 C   0  0  0  0  0  0  0  0  0  0  0  0
   -1.8114   -1.3282    0.5177 H   0  0  0  0  0  0  0  0  0  0  0  0
   -0.6947   -2.3115   -0.4752 H   0  0  0  0  0  0  0  0  0  0  0  0
   -2.1824   -1.5531   -1.2154 H   0  0  0  0  0  0  0  0  0  0  0  0
   -0.3791   -0.1950   -1.9125 H   0  0  0  0  0  0  0  0  0  0  0  0
   -1.8777    1.6773   -1.0935 H   0  0  0  0  0  0  0  0  0  0  0  0
   -0.9299    2.6195    1.1195 H   0  0  0  0  0  0  0  0  0  0  0  0
    1.3779    1.7156    0.9231 H   0  0  0  0  0  0  0  0  0  0  0  0
    1.7467   -0.5801    1.8396 H   0  0  0  0  0  0  0  0  0  0  0  0
   -0.0670   -0.8859    1.9373 H   0  0  0  0  0  0  0  0  0  0  0  0
    1.7478   -0.7735   -1.7891 H   0  0  0  0  0  0  0  0  0  0  0  0
    2.6743   -0.9862   -0.2535 H   0  0  0  0  0  0  0  0  0  0  0  0
    2.4456    0.6791   -1.0079 H   0  0  0  0  0  0  0  0  0  0  0  0
  1  2  1  0
  2  3  1  0
  3  4  1  0
  4  5  1  0
  5  6  1  0
  6  7  1  0
  7  8  1  0
  8  9  1  0
  8  2  1  0
  5  3  1  0
  8  6  1  0
  1 10  1  0
  1 11  1  0
  1 12  1  0
  2 13  1  0
  3 14  1  0
  5 15  1  0
  6 16  1  0
  7 17  1  0
  7 18  1  0
  9 19  1  0
  9 20  1  0
  9 21  1  0
M  END
