
     RDKit          3D

 21 23  0  0  0  0  0  0  0  0999 V2000
    2.1606   -0.5687    0.2406 C   0  0  0  0  0  0  0  0  0  0  0  0
    1.0791    0.1993   -0.5072 C   0  0  0  0  0  0  0  0  0  0  0  0
    0.6440    1.3084    0.4453 C   0  0  0  0  0  0  0  0  0  0  0  0
   -0.4459    1.9879   -0.0263 O   0  0  0  0  0  0  0  0  0  0  0  0
   -1.5767    1.2294   -0.1209 C   0  0  0  0  0  0  0  0  0  0  0  0
   -1.7507   -0.0906    0.4806 C   0  0  0  0  0  0  0  0  0  0  0  0
   -0.7052   -1.1408    0.5345 C   0  0  0  0  0  0  0  0  0  0  0  0
   -0.1179   -0.6810   -0.7806 C   0  0  0  0  0  0  0  0  0  0  0  0
   -1.3726    0.0775   -1.0282 C   0  0  0  0  0  0  0  0  0  0  0  0
    1.9120   -0.5563    1.3268 H   0  0  0  0  0  0  0  0  0  0  0  0
    3.0887    0.0653    0.1541 H   0  0  0  0  0  0  0  0  0  0  0  0
    2.2998   -1.5828   -0.1369 H   0  0  0  0  0  0  0  0  0  0  0  0
    1.4493    0.6345   -1.4407 H   0  0  0  0  0  0  0  0  0  0  0  0
    1.5105    1.9776    0.5532 H   0  0  0  0  0  0  0  0  0  0  0  0
    0.3592    0.8410    1.4270 H   0  0  0  0  0  0  0  0  0  0  0  0
   -2.5052    1.8125   -0.3141 H   0  0  0  0  0  0  0  0  0  0  0  0
   -2.7819   -0.4474    0.6799 H   0  0  0  0  0  0  0  0  0  0  0  0
   -1.1240   -2.1790    0.3815 H   0  0  0  0  0  0  0  0  0  0  0  0
   -0.0355   -1.1599    1.3924 H   0  0  0  0  0  0  0  0  0  0  0  0
    0.0541   -1.4479   -1.5353 H   0  0  0  0  0  0  0  0  0  0  0  0
   -2.1417   -0.2790   -1.7259 H   0  0  0  0  0  0  0  0  0  0  0  0
  1  2  1  0
  2  3  1  0
  3  4  1  0
  4  5  1  0
  5  6  1  0
  6  7  1  0
  7  8  1  0
  8  9  1  0
  8  2  1  0
  9  5  1  0
  9  6  1  0
  1 10  1  0
  1 11  1  0
  1 12  1  0
  2 13  1  0
  3 14  1  0
  3 15  1  0
  5 16  1  0
  6 17  1  0
  7 18  1  0
  7 19  1  0
  8 20  1  0
  9 21  1  0
M  END
