
     RDKit          3D

 16 16  0  0  0  0  0  0  0  0999 V2000
    2.1262    0.2564    0.0378 C   0  0  0  0  0  0  0  0  0  0  0  0
    0.7277    0.0474   -0.4706 C   0  0  0  0  0  0  0  0  0  0  0  0
   -0.0638   -0.8966    0.4300 C   0  0  0  0  0  0  0  0  0  0  0  0
   -1.4699   -0.3145    0.2321 C   0  0  0  0  0  0  0  0  0  0  0  0
   -1.8485   -0.6764   -1.0565 O   0  0  0  0  0  0  0  0  0  0  0  0
   -1.1638    1.1370    0.2691 C   0  0  0  0  0  0  0  0  0  0  0  0
   -1.9112    1.9835    0.8247 O   0  0  0  0  0  0  0  0  0  0  0  0
    0.0399    1.2963   -0.4016 O   0  0  0  0  0  0  0  0  0  0  0  0
    2.3179   -0.4054    0.9115 H   0  0  0  0  0  0  0  0  0  0  0  0
    2.3049    1.3116    0.3110 H   0  0  0  0  0  0  0  0  0  0  0  0
    2.8176    0.0249   -0.8116 H   0  0  0  0  0  0  0  0  0  0  0  0
    0.6850   -0.3826   -1.4803 H   0  0  0  0  0  0  0  0  0  0  0  0
    0.1976   -0.7198    1.4799 H   0  0  0  0  0  0  0  0  0  0  0  0
   -0.0244   -1.9282    0.0957 H   0  0  0  0  0  0  0  0  0  0  0  0
   -2.1637   -0.6390    1.0094 H   0  0  0  0  0  0  0  0  0  0  0  0
   -2.5715   -0.0946   -1.3805 H   0  0  0  0  0  0  0  0  0  0  0  0
  1  2  1  0
  2  3  1  0
  3  4  1  0
  4  5  1  0
  4  6  1  0
  6  7  2  0
  6  8  1  0
  8  2  1  0
  1  9  1  0
  1 10  1  0
  1 11  1  0
  2 12  1  0
  3 13  1  0
  3 14  1  0
  4 15  1  0
  5 16  1  0
M  END
