
     RDKit          3D

 23 25  0  0  0  0  0  0  0  0999 V2000
    2.6330   -0.2251   -0.0972 C   0  0  0  0  0  0  0  0  0  0  0  0
    1.3425    0.5113   -0.1467 C   0  0  0  0  0  0  0  0  0  0  0  0
    0.3321   -0.0761   -1.0968 C   0  0  0  0  0  0  0  0  0  0  0  0
   -0.9774   -0.0362   -0.3824 C   0  0  0  0  0  0  0  0  0  0  0  0
   -2.1975    0.2416   -1.1744 C   0  0  0  0  0  0  0  0  0  0  0  0
   -1.0701   -1.2277    0.5791 C   0  0  0  0  0  0  0  0  0  0  0  0
   -0.3873   -0.3557    1.6013 C   0  0  0  0  0  0  0  0  0  0  0  0
    0.6419    0.6163    1.1846 C   0  0  0  0  0  0  0  0  0  0  0  0
   -0.7462    0.8326    0.8086 C   0  0  0  0  0  0  0  0  0  0  0  0
    2.6399   -0.8727    0.8028 H   0  0  0  0  0  0  0  0  0  0  0  0
    2.8830   -0.7737   -1.0226 H   0  0  0  0  0  0  0  0  0  0  0  0
    3.4437    0.5382    0.0939 H   0  0  0  0  0  0  0  0  0  0  0  0
    1.5078    1.5743   -0.4910 H   0  0  0  0  0  0  0  0  0  0  0  0
    0.6715   -1.1042   -1.3491 H   0  0  0  0  0  0  0  0  0  0  0  0
    0.2308    0.5215   -2.0291 H   0  0  0  0  0  0  0  0  0  0  0  0
   -2.2761   -0.4413   -2.0254 H   0  0  0  0  0  0  0  0  0  0  0  0
   -3.0830    0.0958   -0.5328 H   0  0  0  0  0  0  0  0  0  0  0  0
   -2.1733    1.3019   -1.5030 H   0  0  0  0  0  0  0  0  0  0  0  0
   -0.4030   -2.0702    0.3032 H   0  0  0  0  0  0  0  0  0  0  0  0
   -2.1148   -1.4736    0.7586 H   0  0  0  0  0  0  0  0  0  0  0  0
   -0.6802   -0.3622    2.6470 H   0  0  0  0  0  0  0  0  0  0  0  0
    1.1793    1.1608    1.9561 H   0  0  0  0  0  0  0  0  0  0  0  0
   -1.3967    1.6246    1.1153 H   0  0  0  0  0  0  0  0  0  0  0  0
  1  2  1  0
  2  3  1  0
  3  4  1  0
  4  5  1  0
  4  6  1  0
  6  7  1  0
  7  8  1  0
  8  9  1  0
  8  2  1  0
  9  4  1  0
  9  7  1  0
  1 10  1  0
  1 11  1  0
  1 12  1  0
  2 13  1  0
  3 14  1  0
  3 15  1  0
  5 16  1  0
  5 17  1  0
  5 18  1  0
  6 19  1  0
  6 20  1  0
  7 21  1  0
  8 22  1  0
  9 23  1  0
M  END
