
     RDKit          3D

 23 24  0  0  0  0  0  0  0  0999 V2000
    2.3285   -0.4280   -0.1985 C   0  0  0  0  0  0  0  0  0  0  0  0
    1.0971    0.0335   -0.9864 C   0  0  0  0  0  0  0  0  0  0  0  0
    0.7670    1.4501   -0.5684 C   0  0  0  0  0  0  0  0  0  0  0  0
    1.7045    2.0667    0.2367 O   0  0  0  0  0  0  0  0  0  0  0  0
   -0.4120    0.8946    0.1940 C   0  0  0  0  0  0  0  0  0  0  0  0
   -1.4688    0.2722   -0.6372 C   0  0  0  0  0  0  0  0  0  0  0  0
   -2.6810   -0.1948    0.0944 C   0  0  0  0  0  0  0  0  0  0  0  0
   -0.2010   -0.4399   -0.4388 C   0  0  0  0  0  0  0  0  0  0  0  0
   -0.2345   -1.7026    0.3510 C   0  0  0  0  0  0  0  0  0  0  0  0
    2.5947   -1.4703   -0.4392 H   0  0  0  0  0  0  0  0  0  0  0  0
    3.1543    0.2634   -0.5111 H   0  0  0  0  0  0  0  0  0  0  0  0
    2.1704   -0.2650    0.8829 H   0  0  0  0  0  0  0  0  0  0  0  0
    1.2949   -0.1065   -2.0536 H   0  0  0  0  0  0  0  0  0  0  0  0
    0.4809    2.0333   -1.4879 H   0  0  0  0  0  0  0  0  0  0  0  0
    1.3414    2.9344    0.5093 H   0  0  0  0  0  0  0  0  0  0  0  0
   -0.4894    1.0013    1.2742 H   0  0  0  0  0  0  0  0  0  0  0  0
   -1.6692    0.6412   -1.6648 H   0  0  0  0  0  0  0  0  0  0  0  0
   -3.3420   -0.8341   -0.5228 H   0  0  0  0  0  0  0  0  0  0  0  0
   -3.3135    0.7028    0.3593 H   0  0  0  0  0  0  0  0  0  0  0  0
   -2.4651   -0.6892    1.0540 H   0  0  0  0  0  0  0  0  0  0  0  0
   -0.1953   -1.5249    1.4349 H   0  0  0  0  0  0  0  0  0  0  0  0
   -1.1216   -2.3242    0.1064 H   0  0  0  0  0  0  0  0  0  0  0  0
    0.6598   -2.3141    0.0304 H   0  0  0  0  0  0  0  0  0  0  0  0
  1  2  1  0
  2  3  1  0
  3  4  1  0
  3  5  1  0
  5  6  1  0
  6  7  1  0
  6  8  1  0
  8  9  1  0
  8  2  1  0
  8  5  1  0
  1 10  1  0
  1 11  1  0
  1 12  1  0
  2 13  1  0
  3 14  1  0
  4 15  1  0
  5 16  1  0
  6 17  1  0
  7 18  1  0
  7 19  1  0
  7 20  1  0
  9 21  1  0
  9 22  1  0
  9 23  1  0
M  END
