
     RDKit          3D

 21 23  0  0  0  0  0  0  0  0999 V2000
   -2.0769   -0.9869   -0.1005 C   0  0  0  0  0  0  0  0  0  0  0  0
   -1.3800   -0.0371    0.8899 C   0  0  0  0  0  0  0  0  0  0  0  0
   -1.1899    1.2908    0.3903 C   0  0  0  0  0  0  0  0  0  0  0  0
    0.0171    1.8636   -0.3085 C   0  0  0  0  0  0  0  0  0  0  0  0
    0.6299    1.5522    0.9225 O   0  0  0  0  0  0  0  0  0  0  0  0
    0.0037    0.3331    0.7605 C   0  0  0  0  0  0  0  0  0  0  0  0
    0.6789   -0.4261   -0.3596 C   0  0  0  0  0  0  0  0  0  0  0  0
    2.1288   -0.2175   -0.6617 C   0  0  0  0  0  0  0  0  0  0  0  0
    1.6956   -1.4149    0.1437 C   0  0  0  0  0  0  0  0  0  0  0  0
   -3.1099   -1.1926    0.2439 H   0  0  0  0  0  0  0  0  0  0  0  0
   -1.4871   -1.9234   -0.1045 H   0  0  0  0  0  0  0  0  0  0  0  0
   -2.0617   -0.5914   -1.1221 H   0  0  0  0  0  0  0  0  0  0  0  0
   -1.7132   -0.3025    1.9401 H   0  0  0  0  0  0  0  0  0  0  0  0
   -1.4551    2.0418    1.2059 H   0  0  0  0  0  0  0  0  0  0  0  0
   -0.0801    2.9527   -0.5082 H   0  0  0  0  0  0  0  0  0  0  0  0
    0.3682    1.3790   -1.1991 H   0  0  0  0  0  0  0  0  0  0  0  0
    0.0890   -0.7912   -1.2230 H   0  0  0  0  0  0  0  0  0  0  0  0
    2.6692    0.6215   -0.1408 H   0  0  0  0  0  0  0  0  0  0  0  0
    2.4906   -0.3554   -1.6918 H   0  0  0  0  0  0  0  0  0  0  0  0
    2.0348   -1.3719    1.2036 H   0  0  0  0  0  0  0  0  0  0  0  0
    1.7481   -2.4240   -0.2806 H   0  0  0  0  0  0  0  0  0  0  0  0
  1  2  1  0
  2  3  1  0
  3  4  1  0
  4  5  1  0
  5  6  1  0
  6  7  1  0
  7  8  1  0
  8  9  1  0
  6  2  1  0
  9  7  1  0
  6  3  1  0
  1 10  1  0
  1 11  1  0
  1 12  1  0
  2 13  1  0
  3 14  1  0
  4 15  1  0
  4 16  1  0
  7 17  1  0
  8 18  1  0
  8 19  1  0
  9 20  1  0
  9 21  1  0
M  END
