
     RDKit          3D

 20 21  0  0  0  0  0  0  0  0999 V2000
    1.9026    1.1465   -0.0226 C   0  0  0  0  0  0  0  0  0  0  0  0
    0.5859    0.5202   -0.3615 C   0  0  0  0  0  0  0  0  0  0  0  0
   -0.5468    1.0113    0.5125 C   0  0  0  0  0  0  0  0  0  0  0  0
   -1.7990    0.5322   -0.1288 C   0  0  0  0  0  0  0  0  0  0  0  0
   -1.8488   -0.7515   -0.5044 O   0  0  0  0  0  0  0  0  0  0  0  0
   -0.7532   -1.5056   -0.5724 C   0  0  0  0  0  0  0  0  0  0  0  0
   -0.0117   -1.7717    0.7295 C   0  0  0  0  0  0  0  0  0  0  0  0
    0.5668   -0.9560   -0.3497 C   0  0  0  0  0  0  0  0  0  0  0  0
    1.7617    2.2589   -0.1006 H   0  0  0  0  0  0  0  0  0  0  0  0
    2.6183    0.8883   -0.8264 H   0  0  0  0  0  0  0  0  0  0  0  0
    2.2588    0.9457    0.9851 H   0  0  0  0  0  0  0  0  0  0  0  0
    0.3263    0.8632   -1.4059 H   0  0  0  0  0  0  0  0  0  0  0  0
   -0.4273    0.7048    1.5697 H   0  0  0  0  0  0  0  0  0  0  0  0
   -0.5112    2.1239    0.5121 H   0  0  0  0  0  0  0  0  0  0  0  0
   -1.9991    1.2040   -1.0140 H   0  0  0  0  0  0  0  0  0  0  0  0
   -2.6558    0.7603    0.5716 H   0  0  0  0  0  0  0  0  0  0  0  0
   -0.8183   -2.4046   -1.2527 H   0  0  0  0  0  0  0  0  0  0  0  0
   -0.4581   -1.3365    1.6425 H   0  0  0  0  0  0  0  0  0  0  0  0
    0.3690   -2.7998    0.8982 H   0  0  0  0  0  0  0  0  0  0  0  0
    1.4402   -1.4334   -0.8822 H   0  0  0  0  0  0  0  0  0  0  0  0
  1  2  1  0
  2  3  1  0
  3  4  1  0
  4  5  1  0
  5  6  1  0
  6  7  1  0
  7  8  1  0
  8  2  1  0
  8  6  1  0
  1  9  1  0
  1 10  1  0
  1 11  1  0
  2 12  1  0
  3 13  1  0
  3 14  1  0
  4 15  1  0
  4 16  1  0
  6 17  1  0
  7 18  1  0
  7 19  1  0
  8 20  1  0
M  END
