
     RDKit          3D

 19 19  0  0  0  0  0  0  0  0999 V2000
   -1.3565    1.0349   -1.1516 C   0  0  0  0  0  0  0  0  0  0  0  0
   -0.3427    0.9689   -0.0322 C   0  0  0  0  0  0  0  0  0  0  0  0
   -0.7010    0.2676    1.2153 C   0  0  0  0  0  0  0  0  0  0  0  0
   -1.8604   -0.4846    1.3193 O   0  0  0  0  0  0  0  0  0  0  0  0
    0.3620   -0.2805    0.2840 C   0  0  0  0  0  0  0  0  0  0  0  0
    0.0410   -1.5660   -0.4739 C   0  0  0  0  0  0  0  0  0  0  0  0
    1.6580   -0.2777    0.8371 O   0  0  0  0  0  0  0  0  0  0  0  0
    2.7657    0.2779    0.2385 C   0  0  0  0  0  0  0  0  0  0  0  0
    2.6138    0.8251   -0.8868 O   0  0  0  0  0  0  0  0  0  0  0  0
   -1.5581    2.0824   -1.4547 H   0  0  0  0  0  0  0  0  0  0  0  0
   -1.0291    0.4965   -2.0590 H   0  0  0  0  0  0  0  0  0  0  0  0
   -2.3392    0.6016   -0.8593 H   0  0  0  0  0  0  0  0  0  0  0  0
    0.2458    1.9022    0.0851 H   0  0  0  0  0  0  0  0  0  0  0  0
   -0.3785    0.7205    2.1867 H   0  0  0  0  0  0  0  0  0  0  0  0
   -1.7198   -1.1498    2.0438 H   0  0  0  0  0  0  0  0  0  0  0  0
    0.9664   -2.1021   -0.7501 H   0  0  0  0  0  0  0  0  0  0  0  0
   -0.6048   -2.2040    0.1576 H   0  0  0  0  0  0  0  0  0  0  0  0
   -0.5137   -1.3672   -1.4091 H   0  0  0  0  0  0  0  0  0  0  0  0
    3.7511    0.2543    0.7092 H   0  0  0  0  0  0  0  0  0  0  0  0
  1  2  1  0
  2  3  1  0
  3  4  1  0
  3  5  1  0
  5  6  1  0
  5  7  1  0
  7  8  1  0
  8  9  2  0
  5  2  1  0
  1 10  1  0
  1 11  1  0
  1 12  1  0
  2 13  1  0
  3 14  1  0
  4 15  1  0
  6 16  1  0
  6 17  1  0
  6 18  1  0
  8 19  1  0
M  END
