
     RDKit          3D

 19 20  0  0  0  0  0  0  0  0999 V2000
    1.8623   -0.5998   -0.9363 C   0  0  0  0  0  0  0  0  0  0  0  0
    0.4573   -0.7209   -0.4619 C   0  0  0  0  0  0  0  0  0  0  0  0
    0.2833   -0.5744    1.0381 C   0  0  0  0  0  0  0  0  0  0  0  0
   -0.7883   -1.3820    1.5491 O   0  0  0  0  0  0  0  0  0  0  0  0
   -1.8583   -1.2165    0.6672 C   0  0  0  0  0  0  0  0  0  0  0  0
   -2.7016   -2.0790    0.2811 O   0  0  0  0  0  0  0  0  0  0  0  0
   -1.7887    0.2291    0.2716 C   0  0  0  0  0  0  0  0  0  0  0  0
   -0.2935    0.4086    0.1091 C   0  0  0  0  0  0  0  0  0  0  0  0
    0.2733    1.7737   -0.0969 C   0  0  0  0  0  0  0  0  0  0  0  0
    2.1272   -1.4041   -1.6617 H   0  0  0  0  0  0  0  0  0  0  0  0
    2.5932   -0.7314   -0.0878 H   0  0  0  0  0  0  0  0  0  0  0  0
    2.1194    0.3570   -1.4076 H   0  0  0  0  0  0  0  0  0  0  0  0
   -0.1497   -1.4771   -1.0053 H   0  0  0  0  0  0  0  0  0  0  0  0
    1.1405   -0.3667    1.6759 H   0  0  0  0  0  0  0  0  0  0  0  0
   -2.3570    0.4499   -0.6317 H   0  0  0  0  0  0  0  0  0  0  0  0
   -2.0826    0.8260    1.1568 H   0  0  0  0  0  0  0  0  0  0  0  0
    0.9177    2.1185    0.7511 H   0  0  0  0  0  0  0  0  0  0  0  0
    0.8120    1.8880   -1.0702 H   0  0  0  0  0  0  0  0  0  0  0  0
   -0.5667    2.5010   -0.1407 H   0  0  0  0  0  0  0  0  0  0  0  0
  1  2  1  0
  2  3  1  0
  3  4  1  0
  4  5  1  0
  5  6  2  0
  5  7  1  0
  7  8  1  0
  8  9  1  0
  8  2  1  0
  8  3  1  0
  1 10  1  0
  1 11  1  0
  1 12  1  0
  2 13  1  0
  3 14  1  0
  7 15  1  0
  7 16  1  0
  9 17  1  0
  9 18  1  0
  9 19  1  0
M  END
