
     RDKit          3D

 21 23  0  0  0  0  0  0  0  0999 V2000
    2.3609   -0.5496    0.0240 C   0  0  0  0  0  0  0  0  0  0  0  0
    1.2106    0.1545    0.6718 C   0  0  0  0  0  0  0  0  0  0  0  0
    0.0034   -0.7830    0.8621 C   0  0  0  0  0  0  0  0  0  0  0  0
   -0.9935   -0.0912    0.0002 C   0  0  0  0  0  0  0  0  0  0  0  0
   -2.3643   -0.5898   -0.0792 C   0  0  0  0  0  0  0  0  0  0  0  0
   -0.2840    0.3408   -1.2330 C   0  0  0  0  0  0  0  0  0  0  0  0
   -1.1092    1.4567   -1.2496 O   0  0  0  0  0  0  0  0  0  0  0  0
   -0.7718    1.3851    0.0943 C   0  0  0  0  0  0  0  0  0  0  0  0
    0.6201    1.1155   -0.3318 C   0  0  0  0  0  0  0  0  0  0  0  0
    3.0335   -0.9360    0.7977 H   0  0  0  0  0  0  0  0  0  0  0  0
    2.8575    0.1965   -0.6557 H   0  0  0  0  0  0  0  0  0  0  0  0
    1.9531   -1.3300   -0.6531 H   0  0  0  0  0  0  0  0  0  0  0  0
    1.4698    0.6458    1.6339 H   0  0  0  0  0  0  0  0  0  0  0  0
   -0.2226   -0.8157    1.9244 H   0  0  0  0  0  0  0  0  0  0  0  0
    0.2827   -1.7887    0.4336 H   0  0  0  0  0  0  0  0  0  0  0  0
   -2.8798   -0.1047   -0.9469 H   0  0  0  0  0  0  0  0  0  0  0  0
   -2.9111   -0.3000    0.8663 H   0  0  0  0  0  0  0  0  0  0  0  0
   -2.3784   -1.6751   -0.2281 H   0  0  0  0  0  0  0  0  0  0  0  0
   -0.0186   -0.2227   -2.0273 H   0  0  0  0  0  0  0  0  0  0  0  0
   -1.0969    1.9997    0.8266 H   0  0  0  0  0  0  0  0  0  0  0  0
    1.2385    1.8919   -0.7303 H   0  0  0  0  0  0  0  0  0  0  0  0
  1  2  1  0
  2  3  1  0
  3  4  1  0
  4  5  1  0
  4  6  1  0
  6  7  1  0
  7  8  1  0
  8  9  1  0
  9  2  1  0
  8  4  1  0
  9  6  1  0
  1 10  1  0
  1 11  1  0
  1 12  1  0
  2 13  1  0
  3 14  1  0
  3 15  1  0
  5 16  1  0
  5 17  1  0
  5 18  1  0
  6 19  1  0
  8 20  1  0
  9 21  1  0
M  END
