
     RDKit          3D

 21 22  0  0  0  0  0  0  0  0999 V2000
   -1.3006   -1.6756   -0.0947 C   0  0  0  0  0  0  0  0  0  0  0  0
   -0.9690   -0.4294    0.6817 C   0  0  0  0  0  0  0  0  0  0  0  0
   -1.8303    0.6839    0.2335 C   0  0  0  0  0  0  0  0  0  0  0  0
   -1.1386    1.8041    0.1648 C   0  0  0  0  0  0  0  0  0  0  0  0
    0.2708    1.5918    0.5559 C   0  0  0  0  0  0  0  0  0  0  0  0
    0.4075    0.0709    0.4938 C   0  0  0  0  0  0  0  0  0  0  0  0
    1.1922   -0.3897   -0.6721 C   0  0  0  0  0  0  0  0  0  0  0  0
    2.2995   -0.3529    0.3836 C   0  0  0  0  0  0  0  0  0  0  0  0
    1.3518   -0.3751    1.4132 O   0  0  0  0  0  0  0  0  0  0  0  0
   -0.9605   -1.6333   -1.1478 H   0  0  0  0  0  0  0  0  0  0  0  0
   -0.9039   -2.5755    0.4211 H   0  0  0  0  0  0  0  0  0  0  0  0
   -2.4087   -1.7765   -0.1077 H   0  0  0  0  0  0  0  0  0  0  0  0
   -1.1679   -0.6519    1.7512 H   0  0  0  0  0  0  0  0  0  0  0  0
   -2.9104    0.5562   -0.0044 H   0  0  0  0  0  0  0  0  0  0  0  0
   -1.6040    2.7648   -0.1538 H   0  0  0  0  0  0  0  0  0  0  0  0
    0.5013    1.9687    1.5631 H   0  0  0  0  0  0  0  0  0  0  0  0
    0.9033    2.0331   -0.2436 H   0  0  0  0  0  0  0  0  0  0  0  0
    1.4012    0.3822   -1.4480 H   0  0  0  0  0  0  0  0  0  0  0  0
    1.0660   -1.4119   -1.0242 H   0  0  0  0  0  0  0  0  0  0  0  0
    2.8188    0.6263    0.4044 H   0  0  0  0  0  0  0  0  0  0  0  0
    2.9814   -1.2101    0.3571 H   0  0  0  0  0  0  0  0  0  0  0  0
  1  2  1  0
  2  3  1  0
  3  4  2  0
  4  5  1  0
  5  6  1  0
  6  7  1  0
  7  8  1  0
  8  9  1  0
  6  2  1  0
  9  6  1  0
  1 10  1  0
  1 11  1  0
  1 12  1  0
  2 13  1  0
  3 14  1  0
  4 15  1  0
  5 16  1  0
  5 17  1  0
  7 18  1  0
  7 19  1  0
  8 20  1  0
  8 21  1  0
M  END
