
     RDKit          3D

 23 23  0  0  0  0  0  0  0  0999 V2000
    1.6117   -0.7202   -1.1758 C   0  0  0  0  0  0  0  0  0  0  0  0
    0.7358    0.4562   -0.8227 C   0  0  0  0  0  0  0  0  0  0  0  0
    0.6730    0.9573    0.5766 C   0  0  0  0  0  0  0  0  0  0  0  0
    1.5984    0.3144    1.5687 C   0  0  0  0  0  0  0  0  0  0  0  0
   -0.4819    0.2776    0.0052 C   0  0  0  0  0  0  0  0  0  0  0  0
   -0.8758   -1.1282    0.3808 C   0  0  0  0  0  0  0  0  0  0  0  0
   -2.0201   -1.1798    1.1496 O   0  0  0  0  0  0  0  0  0  0  0  0
   -1.6765    1.1124   -0.4508 C   0  0  0  0  0  0  0  0  0  0  0  0
   -1.9433    0.6921   -1.7722 O   0  0  0  0  0  0  0  0  0  0  0  0
    2.6703   -0.3326   -1.1457 H   0  0  0  0  0  0  0  0  0  0  0  0
    1.5623   -1.5439   -0.4670 H   0  0  0  0  0  0  0  0  0  0  0  0
    1.3296   -1.0465   -2.1967 H   0  0  0  0  0  0  0  0  0  0  0  0
    0.7563    1.2441   -1.6074 H   0  0  0  0  0  0  0  0  0  0  0  0
    0.5569    2.0706    0.7297 H   0  0  0  0  0  0  0  0  0  0  0  0
    1.0508   -0.2327    2.3815 H   0  0  0  0  0  0  0  0  0  0  0  0
    2.3201   -0.3677    1.0454 H   0  0  0  0  0  0  0  0  0  0  0  0
    2.2273    1.0679    2.0817 H   0  0  0  0  0  0  0  0  0  0  0  0
   -0.0924   -1.7011    0.8668 H   0  0  0  0  0  0  0  0  0  0  0  0
   -1.1104   -1.6536   -0.5900 H   0  0  0  0  0  0  0  0  0  0  0  0
   -2.0333   -2.0668    1.5936 H   0  0  0  0  0  0  0  0  0  0  0  0
   -1.3896    2.1971   -0.4507 H   0  0  0  0  0  0  0  0  0  0  0  0
   -2.5451    0.9557    0.2119 H   0  0  0  0  0  0  0  0  0  0  0  0
   -2.9240    0.6278   -1.9123 H   0  0  0  0  0  0  0  0  0  0  0  0
  1  2  1  0
  2  3  1  0
  3  4  1  0
  3  5  1  0
  5  6  1  0
  6  7  1  0
  5  8  1  0
  8  9  1  0
  5  2  1  0
  1 10  1  0
  1 11  1  0
  1 12  1  0
  2 13  1  0
  3 14  1  0
  4 15  1  0
  4 16  1  0
  4 17  1  0
  6 18  1  0
  6 19  1  0
  7 20  1  0
  8 21  1  0
  8 22  1  0
  9 23  1  0
M  END
