
     RDKit          3D

 16 16  0  0  0  0  0  0  0  0999 V2000
    1.8316    0.3537    0.4220 C   0  0  0  0  0  0  0  0  0  0  0  0
    0.5344    0.4567   -0.3521 C   0  0  0  0  0  0  0  0  0  0  0  0
    0.1122   -0.9338   -0.7279 C   0  0  0  0  0  0  0  0  0  0  0  0
   -1.3471   -0.9584   -0.5463 C   0  0  0  0  0  0  0  0  0  0  0  0
   -2.1157   -1.6831   -1.1277 O   0  0  0  0  0  0  0  0  0  0  0  0
   -1.6934    0.0577    0.4688 C   0  0  0  0  0  0  0  0  0  0  0  0
   -0.5561    1.0276    0.4574 C   0  0  0  0  0  0  0  0  0  0  0  0
   -0.5111    2.1106    1.0127 O   0  0  0  0  0  0  0  0  0  0  0  0
    2.6106    0.8488   -0.1952 H   0  0  0  0  0  0  0  0  0  0  0  0
    1.7290    0.8879    1.3861 H   0  0  0  0  0  0  0  0  0  0  0  0
    2.1519   -0.6892    0.5620 H   0  0  0  0  0  0  0  0  0  0  0  0
    0.6358    1.0861   -1.2633 H   0  0  0  0  0  0  0  0  0  0  0  0
    0.4452   -1.1431   -1.7593 H   0  0  0  0  0  0  0  0  0  0  0  0
    0.5479   -1.6588    0.0051 H   0  0  0  0  0  0  0  0  0  0  0  0
   -1.7732   -0.4063    1.4643 H   0  0  0  0  0  0  0  0  0  0  0  0
   -2.6021    0.6435    0.1936 H   0  0  0  0  0  0  0  0  0  0  0  0
  1  2  1  0
  2  3  1  0
  3  4  1  0
  4  5  2  0
  4  6  1  0
  6  7  1  0
  7  8  2  0
  7  2  1  0
  1  9  1  0
  1 10  1  0
  1 11  1  0
  2 12  1  0
  3 13  1  0
  3 14  1  0
  6 15  1  0
  6 16  1  0
M  END
