
     RDKit          3D

 25 26  0  0  0  0  0  0  0  0999 V2000
    2.9824   -0.2770   -0.8401 C   0  0  0  0  0  0  0  0  0  0  0  0
    1.9352    0.3645    0.0923 C   0  0  0  0  0  0  0  0  0  0  0  0
    1.5805   -0.2641    1.2523 C   0  0  0  0  0  0  0  0  0  0  0  0
    0.6670   -0.2478    0.1606 C   0  0  0  0  0  0  0  0  0  0  0  0
   -0.1932    0.4410   -0.7307 C   0  0  0  0  0  0  0  0  0  0  0  0
   -1.3967    0.1342    0.1119 C   0  0  0  0  0  0  0  0  0  0  0  0
   -2.6266   -0.3124   -0.5915 C   0  0  0  0  0  0  0  0  0  0  0  0
   -1.7009    1.0922    1.2213 C   0  0  0  0  0  0  0  0  0  0  0  0
   -0.4518   -1.0038    0.5291 C   0  0  0  0  0  0  0  0  0  0  0  0
    2.7727    0.0255   -1.8898 H   0  0  0  0  0  0  0  0  0  0  0  0
    3.9901    0.0460   -0.5101 H   0  0  0  0  0  0  0  0  0  0  0  0
    2.9255   -1.3772   -0.7265 H   0  0  0  0  0  0  0  0  0  0  0  0
    2.1216    1.4847    0.0905 H   0  0  0  0  0  0  0  0  0  0  0  0
    1.4445    0.3152    2.2160 H   0  0  0  0  0  0  0  0  0  0  0  0
    2.0105   -1.2789    1.5158 H   0  0  0  0  0  0  0  0  0  0  0  0
   -0.1580    1.5173   -0.9565 H   0  0  0  0  0  0  0  0  0  0  0  0
   -0.3065   -0.0977   -1.7207 H   0  0  0  0  0  0  0  0  0  0  0  0
   -3.1168   -1.0996    0.0466 H   0  0  0  0  0  0  0  0  0  0  0  0
   -2.3833   -0.8025   -1.5519 H   0  0  0  0  0  0  0  0  0  0  0  0
   -3.3092    0.5399   -0.6894 H   0  0  0  0  0  0  0  0  0  0  0  0
   -2.1917    0.5333    2.0490 H   0  0  0  0  0  0  0  0  0  0  0  0
   -2.3447    1.8881    0.8129 H   0  0  0  0  0  0  0  0  0  0  0  0
   -0.8076    1.5712    1.6532 H   0  0  0  0  0  0  0  0  0  0  0  0
   -0.7631   -1.3285    1.5305 H   0  0  0  0  0  0  0  0  0  0  0  0
   -0.6797   -1.8635   -0.1725 H   0  0  0  0  0  0  0  0  0  0  0  0
  1  2  1  0
  2  3  1  0
  3  4  1  0
  4  5  1  0
  5  6  1  0
  6  7  1  0
  6  8  1  0
  6  9  1  0
  4  2  1  0
  9  4  1  0
  1 10  1  0
  1 11  1  0
  1 12  1  0
  2 13  1  0
  3 14  1  0
  3 15  1  0
  5 16  1  0
  5 17  1  0
  7 18  1  0
  7 19  1  0
  7 20  1  0
  8 21  1  0
  8 22  1  0
  8 23  1  0
  9 24  1  0
  9 25  1  0
M  END
