
     RDKit          3D

 21 21  0  0  0  0  0  0  0  0999 V2000
   -2.3748   -1.4400    0.6060 C   0  0  0  0  0  0  0  0  0  0  0  0
   -1.7406   -0.1124    0.3020 C   0  0  0  0  0  0  0  0  0  0  0  0
   -1.5335    0.2021   -1.1651 C   0  0  0  0  0  0  0  0  0  0  0  0
   -0.3694   -0.0542   -0.3210 C   0  0  0  0  0  0  0  0  0  0  0  0
    0.5457    1.1051    0.0844 C   0  0  0  0  0  0  0  0  0  0  0  0
    1.8622    1.0429   -0.6003 C   0  0  0  0  0  0  0  0  0  0  0  0
    2.6185   -0.1005   -0.3629 O   0  0  0  0  0  0  0  0  0  0  0  0
    3.0773   -0.5455    0.8465 C   0  0  0  0  0  0  0  0  0  0  0  0
    2.7987    0.1298    1.8479 O   0  0  0  0  0  0  0  0  0  0  0  0
   -2.9682   -1.7950   -0.2772 H   0  0  0  0  0  0  0  0  0  0  0  0
   -3.0623   -1.3824    1.4522 H   0  0  0  0  0  0  0  0  0  0  0  0
   -1.5660   -2.1758    0.7982 H   0  0  0  0  0  0  0  0  0  0  0  0
   -2.1122    0.7238    0.9140 H   0  0  0  0  0  0  0  0  0  0  0  0
   -1.8503   -0.5913   -1.8908 H   0  0  0  0  0  0  0  0  0  0  0  0
   -1.8208    1.2114   -1.5157 H   0  0  0  0  0  0  0  0  0  0  0  0
    0.1478   -1.0284   -0.3961 H   0  0  0  0  0  0  0  0  0  0  0  0
    0.5997    1.1946    1.1799 H   0  0  0  0  0  0  0  0  0  0  0  0
    0.0341    2.0258   -0.2715 H   0  0  0  0  0  0  0  0  0  0  0  0
    2.4001    1.9913   -0.4005 H   0  0  0  0  0  0  0  0  0  0  0  0
    1.6504    1.0653   -1.7115 H   0  0  0  0  0  0  0  0  0  0  0  0
    3.6635   -1.4665    0.8814 H   0  0  0  0  0  0  0  0  0  0  0  0
  1  2  1  0
  2  3  1  0
  3  4  1  0
  4  5  1  0
  5  6  1  0
  6  7  1  0
  7  8  1  0
  8  9  2  0
  4  2  1  0
  1 10  1  0
  1 11  1  0
  1 12  1  0
  2 13  1  0
  3 14  1  0
  3 15  1  0
  4 16  1  0
  5 17  1  0
  5 18  1  0
  6 19  1  0
  6 20  1  0
  8 21  1  0
M  END
