
     RDKit          3D

 21 21  0  0  0  0  0  0  0  0999 V2000
   -1.3642    1.3025    0.4752 C   0  0  0  0  0  0  0  0  0  0  0  0
   -0.8951    0.6200   -0.7692 C   0  0  0  0  0  0  0  0  0  0  0  0
   -1.4377   -0.8292   -0.8778 C   0  0  0  0  0  0  0  0  0  0  0  0
   -2.0580   -1.3814    0.2146 O   0  0  0  0  0  0  0  0  0  0  0  0
    0.0214   -0.5163   -0.8129 C   0  0  0  0  0  0  0  0  0  0  0  0
    0.6975   -0.7430   -2.0131 O   0  0  0  0  0  0  0  0  0  0  0  0
    0.8444   -0.8530    0.3932 C   0  0  0  0  0  0  0  0  0  0  0  0
    1.7217    0.3428    0.7174 C   0  0  0  0  0  0  0  0  0  0  0  0
    2.5130    0.0861    1.8351 O   0  0  0  0  0  0  0  0  0  0  0  0
   -0.9871    2.3225    0.5997 H   0  0  0  0  0  0  0  0  0  0  0  0
   -1.1775    0.7089    1.3856 H   0  0  0  0  0  0  0  0  0  0  0  0
   -2.4900    1.3615    0.3978 H   0  0  0  0  0  0  0  0  0  0  0  0
   -0.9899    1.2397   -1.6999 H   0  0  0  0  0  0  0  0  0  0  0  0
   -1.9012   -1.0682   -1.8591 H   0  0  0  0  0  0  0  0  0  0  0  0
   -2.0001   -2.3620    0.1532 H   0  0  0  0  0  0  0  0  0  0  0  0
    1.1510    0.0414   -2.3602 H   0  0  0  0  0  0  0  0  0  0  0  0
    0.1958   -1.0028    1.2936 H   0  0  0  0  0  0  0  0  0  0  0  0
    1.4435   -1.7643    0.2838 H   0  0  0  0  0  0  0  0  0  0  0  0
    2.3452    0.5378   -0.1849 H   0  0  0  0  0  0  0  0  0  0  0  0
    1.1200    1.2389    0.9581 H   0  0  0  0  0  0  0  0  0  0  0  0
    3.2476    0.7182    1.8699 H   0  0  0  0  0  0  0  0  0  0  0  0
  1  2  1  0
  2  3  1  0
  3  4  1  0
  3  5  1  0
  5  6  1  0
  5  7  1  0
  7  8  1  0
  8  9  1  0
  5  2  1  0
  1 10  1  0
  1 11  1  0
  1 12  1  0
  2 13  1  0
  3 14  1  0
  4 15  1  0
  6 16  1  0
  7 17  1  0
  7 18  1  0
  8 19  1  0
  8 20  1  0
  9 21  1  0
M  END
