
     RDKit          3D

 21 22  0  0  0  0  0  0  0  0999 V2000
   -0.8060    1.9361   -0.1349 C   0  0  0  0  0  0  0  0  0  0  0  0
    0.0419    0.8177    0.3988 C   0  0  0  0  0  0  0  0  0  0  0  0
   -0.5690   -0.5358    0.4388 C   0  0  0  0  0  0  0  0  0  0  0  0
   -1.9853   -0.6577   -0.0655 C   0  0  0  0  0  0  0  0  0  0  0  0
    0.3938   -0.9742   -0.6624 C   0  0  0  0  0  0  0  0  0  0  0  0
    1.3403   -1.8970   -0.2496 O   0  0  0  0  0  0  0  0  0  0  0  0
    2.1617   -1.1159    0.5678 C   0  0  0  0  0  0  0  0  0  0  0  0
    2.3271    0.0989   -0.0858 O   0  0  0  0  0  0  0  0  0  0  0  0
    1.0679    0.3777   -0.6054 C   0  0  0  0  0  0  0  0  0  0  0  0
   -0.1780    2.8640   -0.0991 H   0  0  0  0  0  0  0  0  0  0  0  0
   -1.7015    2.1453    0.4955 H   0  0  0  0  0  0  0  0  0  0  0  0
   -1.1434    1.7990   -1.1669 H   0  0  0  0  0  0  0  0  0  0  0  0
    0.4923    1.1159    1.3679 H   0  0  0  0  0  0  0  0  0  0  0  0
   -0.4103   -1.1062    1.3941 H   0  0  0  0  0  0  0  0  0  0  0  0
   -2.0923   -1.7132   -0.4372 H   0  0  0  0  0  0  0  0  0  0  0  0
   -2.6948   -0.5128    0.7558 H   0  0  0  0  0  0  0  0  0  0  0  0
   -2.1193    0.0191   -0.9219 H   0  0  0  0  0  0  0  0  0  0  0  0
   -0.0575   -1.1270   -1.6435 H   0  0  0  0  0  0  0  0  0  0  0  0
    3.1458   -1.5835    0.6529 H   0  0  0  0  0  0  0  0  0  0  0  0
    1.6810   -0.8899    1.5481 H   0  0  0  0  0  0  0  0  0  0  0  0
    1.1058    0.9396   -1.5473 H   0  0  0  0  0  0  0  0  0  0  0  0
  1  2  1  0
  2  3  1  0
  3  4  1  0
  3  5  1  0
  5  6  1  0
  6  7  1  0
  7  8  1  0
  8  9  1  0
  9  2  1  0
  9  5  1  0
  1 10  1  0
  1 11  1  0
  1 12  1  0
  2 13  1  0
  3 14  1  0
  4 15  1  0
  4 16  1  0
  4 17  1  0
  5 18  1  0
  7 19  1  0
  7 20  1  0
  9 21  1  0
M  END
