
     RDKit          3D

 23 23  0  0  0  0  0  0  0  0999 V2000
   -2.4554   -0.7626    0.4872 C   0  0  0  0  0  0  0  0  0  0  0  0
   -1.1105   -0.9291   -0.1470 C   0  0  0  0  0  0  0  0  0  0  0  0
   -0.6641    0.2053   -1.0382 C   0  0  0  0  0  0  0  0  0  0  0  0
    0.4952    0.4851   -0.1223 C   0  0  0  0  0  0  0  0  0  0  0  0
    0.3435    1.8809    0.4720 C   0  0  0  0  0  0  0  0  0  0  0  0
    1.8525    0.3265   -0.7091 C   0  0  0  0  0  0  0  0  0  0  0  0
    2.1797   -1.0021   -1.2158 C   0  0  0  0  0  0  0  0  0  0  0  0
    3.2875   -1.1631   -1.7039 O   0  0  0  0  0  0  0  0  0  0  0  0
   -0.0016   -0.5417    0.8205 C   0  0  0  0  0  0  0  0  0  0  0  0
   -3.1164   -0.0501   -0.0053 H   0  0  0  0  0  0  0  0  0  0  0  0
   -2.9501   -1.7711    0.4887 H   0  0  0  0  0  0  0  0  0  0  0  0
   -2.3764   -0.4891    1.5788 H   0  0  0  0  0  0  0  0  0  0  0  0
   -0.9435   -1.9081   -0.6578 H   0  0  0  0  0  0  0  0  0  0  0  0
   -0.3729   -0.0877   -2.0632 H   0  0  0  0  0  0  0  0  0  0  0  0
   -1.4445    0.9834   -1.0847 H   0  0  0  0  0  0  0  0  0  0  0  0
    1.2225    2.0159    1.1445 H   0  0  0  0  0  0  0  0  0  0  0  0
    0.3404    2.6373   -0.3352 H   0  0  0  0  0  0  0  0  0  0  0  0
   -0.6138    1.8801    1.0201 H   0  0  0  0  0  0  0  0  0  0  0  0
    2.6212    0.6733    0.0087 H   0  0  0  0  0  0  0  0  0  0  0  0
    1.9225    1.0479   -1.5759 H   0  0  0  0  0  0  0  0  0  0  0  0
    1.5433   -1.8800   -1.2098 H   0  0  0  0  0  0  0  0  0  0  0  0
   -0.3889   -0.1412    1.8011 H   0  0  0  0  0  0  0  0  0  0  0  0
    0.6299   -1.4100    1.0298 H   0  0  0  0  0  0  0  0  0  0  0  0
  1  2  1  0
  2  3  1  0
  3  4  1  0
  4  5  1  0
  4  6  1  0
  6  7  1  0
  7  8  2  0
  4  9  1  0
  9  2  1  0
  1 10  1  0
  1 11  1  0
  1 12  1  0
  2 13  1  0
  3 14  1  0
  3 15  1  0
  5 16  1  0
  5 17  1  0
  5 18  1  0
  6 19  1  0
  6 20  1  0
  7 21  1  0
  9 22  1  0
  9 23  1  0
M  END
