
     RDKit          3D

 23 24  0  0  0  0  0  0  0  0999 V2000
   -2.4743    0.0209    0.6017 C   0  0  0  0  0  0  0  0  0  0  0  0
   -1.3935   -0.4444   -0.3314 C   0  0  0  0  0  0  0  0  0  0  0  0
   -1.0046    0.4604   -1.5071 C   0  0  0  0  0  0  0  0  0  0  0  0
   -0.1515    0.3199   -0.3511 C   0  0  0  0  0  0  0  0  0  0  0  0
    0.1922    1.3987    0.6107 C   0  0  0  0  0  0  0  0  0  0  0  0
    1.5500    0.7165    0.8030 C   0  0  0  0  0  0  0  0  0  0  0  0
    1.2072   -0.2540   -0.3254 C   0  0  0  0  0  0  0  0  0  0  0  0
    1.2908   -1.6941    0.1244 C   0  0  0  0  0  0  0  0  0  0  0  0
    2.0375    0.0268   -1.4149 O   0  0  0  0  0  0  0  0  0  0  0  0
   -3.2432   -0.7778    0.7566 H   0  0  0  0  0  0  0  0  0  0  0  0
   -2.9583    0.9684    0.2732 H   0  0  0  0  0  0  0  0  0  0  0  0
   -1.9987    0.1500    1.6116 H   0  0  0  0  0  0  0  0  0  0  0  0
   -1.3672   -1.5487   -0.5167 H   0  0  0  0  0  0  0  0  0  0  0  0
   -0.8097   -0.0732   -2.4550 H   0  0  0  0  0  0  0  0  0  0  0  0
   -1.6037    1.3947   -1.6361 H   0  0  0  0  0  0  0  0  0  0  0  0
   -0.4094    1.4699    1.5306 H   0  0  0  0  0  0  0  0  0  0  0  0
    0.2554    2.3956    0.1242 H   0  0  0  0  0  0  0  0  0  0  0  0
    2.4182    1.3505    0.6322 H   0  0  0  0  0  0  0  0  0  0  0  0
    1.5427    0.1944    1.7813 H   0  0  0  0  0  0  0  0  0  0  0  0
    2.0186   -1.7425    0.9573 H   0  0  0  0  0  0  0  0  0  0  0  0
    0.3251   -2.0812    0.5122 H   0  0  0  0  0  0  0  0  0  0  0  0
    1.6087   -2.3058   -0.7504 H   0  0  0  0  0  0  0  0  0  0  0  0
    2.9676    0.0552   -1.0310 H   0  0  0  0  0  0  0  0  0  0  0  0
  1  2  1  0
  2  3  1  0
  3  4  1  0
  4  5  1  0
  5  6  1  0
  6  7  1  0
  7  8  1  0
  7  9  1  0
  4  2  1  0
  7  4  1  0
  1 10  1  0
  1 11  1  0
  1 12  1  0
  2 13  1  0
  3 14  1  0
  3 15  1  0
  5 16  1  0
  5 17  1  0
  6 18  1  0
  6 19  1  0
  8 20  1  0
  8 21  1  0
  8 22  1  0
  9 23  1  0
M  END
