
     RDKit          3D

 21 23  0  0  0  0  0  0  0  0999 V2000
    2.2777   -0.4582   -0.0762 C   0  0  0  0  0  0  0  0  0  0  0  0
    0.8381   -0.5466   -0.4424 C   0  0  0  0  0  0  0  0  0  0  0  0
    0.0184   -1.6078    0.2014 C   0  0  0  0  0  0  0  0  0  0  0  0
   -0.5913   -1.4535    1.4118 O   0  0  0  0  0  0  0  0  0  0  0  0
   -1.0457   -0.5370    0.4877 C   0  0  0  0  0  0  0  0  0  0  0  0
   -2.3074   -0.7374   -0.2694 C   0  0  0  0  0  0  0  0  0  0  0  0
   -0.0378    0.4905    0.1079 C   0  0  0  0  0  0  0  0  0  0  0  0
   -0.2939    1.8049   -0.3926 C   0  0  0  0  0  0  0  0  0  0  0  0
    0.3840    1.5775    1.0000 C   0  0  0  0  0  0  0  0  0  0  0  0
    2.5052   -0.6670    0.9708 H   0  0  0  0  0  0  0  0  0  0  0  0
    2.6033    0.6073   -0.2625 H   0  0  0  0  0  0  0  0  0  0  0  0
    2.9150   -1.0586   -0.7866 H   0  0  0  0  0  0  0  0  0  0  0  0
    0.7395   -0.6190   -1.5649 H   0  0  0  0  0  0  0  0  0  0  0  0
   -0.2766   -2.4977   -0.3698 H   0  0  0  0  0  0  0  0  0  0  0  0
   -3.1405   -0.0936    0.0730 H   0  0  0  0  0  0  0  0  0  0  0  0
   -2.1922   -0.5918   -1.3792 H   0  0  0  0  0  0  0  0  0  0  0  0
   -2.6769   -1.7944   -0.1701 H   0  0  0  0  0  0  0  0  0  0  0  0
    0.3826    2.2564   -1.1670 H   0  0  0  0  0  0  0  0  0  0  0  0
   -1.2643    2.3126   -0.3319 H   0  0  0  0  0  0  0  0  0  0  0  0
    1.4407    1.8572    1.0785 H   0  0  0  0  0  0  0  0  0  0  0  0
   -0.2778    1.7561    1.8816 H   0  0  0  0  0  0  0  0  0  0  0  0
  1  2  1  0
  2  3  1  0
  3  4  1  0
  4  5  1  0
  5  6  1  0
  5  7  1  0
  7  8  1  0
  8  9  1  0
  7  2  1  0
  5  3  1  0
  9  7  1  0
  1 10  1  0
  1 11  1  0
  1 12  1  0
  2 13  1  0
  3 14  1  0
  6 15  1  0
  6 16  1  0
  6 17  1  0
  8 18  1  0
  8 19  1  0
  9 20  1  0
  9 21  1  0
M  END
