
     RDKit          3D

 21 22  0  0  0  0  0  0  0  0999 V2000
   -2.0256    1.1283    0.0219 C   0  0  0  0  0  0  0  0  0  0  0  0
   -0.8723    0.2065    0.2784 C   0  0  0  0  0  0  0  0  0  0  0  0
   -0.9974   -1.1680   -0.3910 C   0  0  0  0  0  0  0  0  0  0  0  0
   -1.4476   -2.1727    0.4128 O   0  0  0  0  0  0  0  0  0  0  0  0
    0.5210   -1.0918   -0.5708 C   0  0  0  0  0  0  0  0  0  0  0  0
    1.2025   -1.2170    0.6082 O   0  0  0  0  0  0  0  0  0  0  0  0
    2.1708   -0.1990    0.6468 C   0  0  0  0  0  0  0  0  0  0  0  0
    1.5342    0.9940   -0.0249 C   0  0  0  0  0  0  0  0  0  0  0  0
    0.3123    0.4255   -0.6669 C   0  0  0  0  0  0  0  0  0  0  0  0
   -1.6321    2.1751   -0.0296 H   0  0  0  0  0  0  0  0  0  0  0  0
   -2.5107    0.8148   -0.9193 H   0  0  0  0  0  0  0  0  0  0  0  0
   -2.7140    1.0531    0.8977 H   0  0  0  0  0  0  0  0  0  0  0  0
   -0.5017    0.1343    1.3052 H   0  0  0  0  0  0  0  0  0  0  0  0
   -1.5555   -1.0432   -1.3295 H   0  0  0  0  0  0  0  0  0  0  0  0
   -1.4296   -2.0026    1.3751 H   0  0  0  0  0  0  0  0  0  0  0  0
    0.9126   -1.5622   -1.4645 H   0  0  0  0  0  0  0  0  0  0  0  0
    2.4655    0.0618    1.6761 H   0  0  0  0  0  0  0  0  0  0  0  0
    3.0080   -0.5417    0.0114 H   0  0  0  0  0  0  0  0  0  0  0  0
    1.3314    1.8289    0.6774 H   0  0  0  0  0  0  0  0  0  0  0  0
    2.1794    1.4039   -0.8464 H   0  0  0  0  0  0  0  0  0  0  0  0
    0.0487    0.7720   -1.6680 H   0  0  0  0  0  0  0  0  0  0  0  0
  1  2  1  0
  2  3  1  0
  3  4  1  0
  3  5  1  0
  5  6  1  0
  6  7  1  0
  7  8  1  0
  8  9  1  0
  9  2  1  0
  9  5  1  0
  1 10  1  0
  1 11  1  0
  1 12  1  0
  2 13  1  0
  3 14  1  0
  4 15  1  0
  5 16  1  0
  7 17  1  0
  7 18  1  0
  8 19  1  0
  8 20  1  0
  9 21  1  0
M  END
