
     RDKit          3D

 23 24  0  0  0  0  0  0  0  0999 V2000
    2.5837    0.3486    0.6651 C   0  0  0  0  0  0  0  0  0  0  0  0
    1.3548   -0.3723    0.1200 C   0  0  0  0  0  0  0  0  0  0  0  0
    1.1553    0.1626   -1.2976 C   0  0  0  0  0  0  0  0  0  0  0  0
    0.1831   -0.5039   -1.9884 O   0  0  0  0  0  0  0  0  0  0  0  0
   -0.8367   -0.9268   -1.1691 C   0  0  0  0  0  0  0  0  0  0  0  0
   -1.0762   -0.0702    0.0269 C   0  0  0  0  0  0  0  0  0  0  0  0
   -2.4397   -0.3051    0.6838 C   0  0  0  0  0  0  0  0  0  0  0  0
   -2.0578    0.9995    0.0972 C   0  0  0  0  0  0  0  0  0  0  0  0
    0.1377   -0.0003    0.9114 C   0  0  0  0  0  0  0  0  0  0  0  0
    3.4856   -0.2550    0.4110 H   0  0  0  0  0  0  0  0  0  0  0  0
    2.5341    0.4300    1.7611 H   0  0  0  0  0  0  0  0  0  0  0  0
    2.6458    1.3633    0.1870 H   0  0  0  0  0  0  0  0  0  0  0  0
    1.4824   -1.4614    0.1008 H   0  0  0  0  0  0  0  0  0  0  0  0
    0.8578    1.2341   -1.2299 H   0  0  0  0  0  0  0  0  0  0  0  0
    2.1438    0.0413   -1.8002 H   0  0  0  0  0  0  0  0  0  0  0  0
   -1.7663   -1.0815   -1.7391 H   0  0  0  0  0  0  0  0  0  0  0  0
   -0.5424   -1.9508   -0.7946 H   0  0  0  0  0  0  0  0  0  0  0  0
   -2.4361   -0.4932    1.7718 H   0  0  0  0  0  0  0  0  0  0  0  0
   -3.2022   -0.8739    0.1127 H   0  0  0  0  0  0  0  0  0  0  0  0
   -2.6249    1.3953   -0.7650 H   0  0  0  0  0  0  0  0  0  0  0  0
   -1.8594    1.8083    0.8588 H   0  0  0  0  0  0  0  0  0  0  0  0
    0.2507    1.0750    1.2194 H   0  0  0  0  0  0  0  0  0  0  0  0
    0.0271   -0.5635    1.8568 H   0  0  0  0  0  0  0  0  0  0  0  0
  1  2  1  0
  2  3  1  0
  3  4  1  0
  4  5  1  0
  5  6  1  0
  6  7  1  0
  7  8  1  0
  6  9  1  0
  9  2  1  0
  8  6  1  0
  1 10  1  0
  1 11  1  0
  1 12  1  0
  2 13  1  0
  3 14  1  0
  3 15  1  0
  5 16  1  0
  5 17  1  0
  7 18  1  0
  7 19  1  0
  8 20  1  0
  8 21  1  0
  9 22  1  0
  9 23  1  0
M  END
