
     RDKit          3D

 23 24  0  0  0  0  0  0  0  0999 V2000
   -1.9360   -1.7001   -0.6933 C   0  0  0  0  0  0  0  0  0  0  0  0
   -1.0438   -0.5067   -0.5514 C   0  0  0  0  0  0  0  0  0  0  0  0
   -0.8823   -0.0364    0.8954 C   0  0  0  0  0  0  0  0  0  0  0  0
   -1.1133    1.4173    1.1297 C   0  0  0  0  0  0  0  0  0  0  0  0
   -2.4165    1.8021    0.7639 O   0  0  0  0  0  0  0  0  0  0  0  0
    0.2667   -0.5703    0.1305 C   0  0  0  0  0  0  0  0  0  0  0  0
    1.3711    0.3487   -0.3017 C   0  0  0  0  0  0  0  0  0  0  0  0
    2.6840    0.2210    0.4559 C   0  0  0  0  0  0  0  0  0  0  0  0
    2.5933   -0.1568   -0.9569 C   0  0  0  0  0  0  0  0  0  0  0  0
   -1.5212   -2.6086   -0.1934 H   0  0  0  0  0  0  0  0  0  0  0  0
   -2.8866   -1.4722   -0.1580 H   0  0  0  0  0  0  0  0  0  0  0  0
   -2.2192   -1.9006   -1.7492 H   0  0  0  0  0  0  0  0  0  0  0  0
   -1.2433    0.2859   -1.3178 H   0  0  0  0  0  0  0  0  0  0  0  0
   -1.2609   -0.7233    1.7083 H   0  0  0  0  0  0  0  0  0  0  0  0
   -0.3458    2.0925    0.7055 H   0  0  0  0  0  0  0  0  0  0  0  0
   -1.0723    1.6036    2.2431 H   0  0  0  0  0  0  0  0  0  0  0  0
   -2.4350    2.2378   -0.1238 H   0  0  0  0  0  0  0  0  0  0  0  0
    0.6224   -1.6044    0.3606 H   0  0  0  0  0  0  0  0  0  0  0  0
    1.0589    1.3712   -0.5685 H   0  0  0  0  0  0  0  0  0  0  0  0
    2.7538   -0.5643    1.2453 H   0  0  0  0  0  0  0  0  0  0  0  0
    3.1799    1.1784    0.7828 H   0  0  0  0  0  0  0  0  0  0  0  0
    3.1097    0.5123   -1.6733 H   0  0  0  0  0  0  0  0  0  0  0  0
    2.7362   -1.2271   -1.1934 H   0  0  0  0  0  0  0  0  0  0  0  0
  1  2  1  0
  2  3  1  0
  3  4  1  0
  4  5  1  0
  3  6  1  0
  6  7  1  0
  7  8  1  0
  8  9  1  0
  6  2  1  0
  9  7  1  0
  1 10  1  0
  1 11  1  0
  1 12  1  0
  2 13  1  0
  3 14  1  0
  4 15  1  0
  4 16  1  0
  5 17  1  0
  6 18  1  0
  7 19  1  0
  8 20  1  0
  8 21  1  0
  9 22  1  0
  9 23  1  0
M  END
