
     RDKit          3D

 23 24  0  0  0  0  0  0  0  0999 V2000
    2.8049    0.2505    0.0294 C   0  0  0  0  0  0  0  0  0  0  0  0
    1.3885   -0.0249   -0.4706 C   0  0  0  0  0  0  0  0  0  0  0  0
    0.5723    1.2119   -0.2887 C   0  0  0  0  0  0  0  0  0  0  0  0
   -0.8888    1.0367   -0.4262 C   0  0  0  0  0  0  0  0  0  0  0  0
   -1.4006   -0.3459   -0.3460 C   0  0  0  0  0  0  0  0  0  0  0  0
   -2.7772   -0.3085    0.3133 C   0  0  0  0  0  0  0  0  0  0  0  0
   -0.5311   -1.3083    0.4045 C   0  0  0  0  0  0  0  0  0  0  0  0
    0.2308   -0.9136    1.4702 O   0  0  0  0  0  0  0  0  0  0  0  0
    0.8752   -1.2096    0.2803 C   0  0  0  0  0  0  0  0  0  0  0  0
    2.9413   -0.1832    1.0469 H   0  0  0  0  0  0  0  0  0  0  0  0
    3.5631   -0.1254   -0.6953 H   0  0  0  0  0  0  0  0  0  0  0  0
    2.9639    1.3457    0.1474 H   0  0  0  0  0  0  0  0  0  0  0  0
    1.4276   -0.2580   -1.5543 H   0  0  0  0  0  0  0  0  0  0  0  0
    0.9558    1.9653   -1.0392 H   0  0  0  0  0  0  0  0  0  0  0  0
    0.8307    1.6866    0.7045 H   0  0  0  0  0  0  0  0  0  0  0  0
   -1.3919    1.7171    0.3223 H   0  0  0  0  0  0  0  0  0  0  0  0
   -1.2086    1.4644   -1.4221 H   0  0  0  0  0  0  0  0  0  0  0  0
   -1.5599   -0.7807   -1.3682 H   0  0  0  0  0  0  0  0  0  0  0  0
   -3.4667    0.0884   -0.4719 H   0  0  0  0  0  0  0  0  0  0  0  0
   -3.0915   -1.2994    0.6633 H   0  0  0  0  0  0  0  0  0  0  0  0
   -2.7424    0.4233    1.1621 H   0  0  0  0  0  0  0  0  0  0  0  0
   -1.0025   -2.3203    0.5179 H   0  0  0  0  0  0  0  0  0  0  0  0
    1.5070   -2.1120    0.1978 H   0  0  0  0  0  0  0  0  0  0  0  0
  1  2  1  0
  2  3  1  0
  3  4  1  0
  4  5  1  0
  5  6  1  0
  5  7  1  0
  7  8  1  0
  8  9  1  0
  9  2  1  0
  9  7  1  0
  1 10  1  0
  1 11  1  0
  1 12  1  0
  2 13  1  0
  3 14  1  0
  3 15  1  0
  4 16  1  0
  4 17  1  0
  5 18  1  0
  6 19  1  0
  6 20  1  0
  6 21  1  0
  7 22  1  0
  9 23  1  0
M  END
