
     RDKit          3D

 23 23  0  0  0  0  0  0  0  0999 V2000
    2.8751    0.0757   -0.2168 C   0  0  0  0  0  0  0  0  0  0  0  0
    1.5567   -0.5675    0.2046 C   0  0  0  0  0  0  0  0  0  0  0  0
    0.8884    0.3262    1.1846 C   0  0  0  0  0  0  0  0  0  0  0  0
   -0.3696    0.7035    1.0461 C   0  0  0  0  0  0  0  0  0  0  0  0
   -1.1369    0.2187   -0.1248 C   0  0  0  0  0  0  0  0  0  0  0  0
   -2.0027   -0.9617    0.2471 C   0  0  0  0  0  0  0  0  0  0  0  0
   -2.1033    1.3476   -0.5053 C   0  0  0  0  0  0  0  0  0  0  0  0
   -0.3243    0.0004   -1.1947 O   0  0  0  0  0  0  0  0  0  0  0  0
    0.7126   -0.8769   -0.9798 C   0  0  0  0  0  0  0  0  0  0  0  0
    3.2481    0.5977    0.7128 H   0  0  0  0  0  0  0  0  0  0  0  0
    2.7382    0.7687   -1.0506 H   0  0  0  0  0  0  0  0  0  0  0  0
    3.6241   -0.6904   -0.5102 H   0  0  0  0  0  0  0  0  0  0  0  0
    1.8378   -1.4906    0.7548 H   0  0  0  0  0  0  0  0  0  0  0  0
    1.4449    0.6791    2.0356 H   0  0  0  0  0  0  0  0  0  0  0  0
   -0.8119    1.3676    1.8048 H   0  0  0  0  0  0  0  0  0  0  0  0
   -2.8279   -1.0124   -0.4939 H   0  0  0  0  0  0  0  0  0  0  0  0
   -2.5064   -0.6696    1.2144 H   0  0  0  0  0  0  0  0  0  0  0  0
   -1.4546   -1.8935    0.3807 H   0  0  0  0  0  0  0  0  0  0  0  0
   -3.0824    1.1930    0.0236 H   0  0  0  0  0  0  0  0  0  0  0  0
   -2.3286    1.3277   -1.5791 H   0  0  0  0  0  0  0  0  0  0  0  0
   -1.7153    2.3145   -0.1515 H   0  0  0  0  0  0  0  0  0  0  0  0
    0.3644   -1.9349   -0.9094 H   0  0  0  0  0  0  0  0  0  0  0  0
    1.3736   -0.8228   -1.8929 H   0  0  0  0  0  0  0  0  0  0  0  0
  1  2  1  0
  2  3  1  0
  3  4  2  0
  4  5  1  0
  5  6  1  0
  5  7  1  0
  5  8  1  0
  8  9  1  0
  9  2  1  0
  1 10  1  0
  1 11  1  0
  1 12  1  0
  2 13  1  0
  3 14  1  0
  4 15  1  0
  6 16  1  0
  6 17  1  0
  6 18  1  0
  7 19  1  0
  7 20  1  0
  7 21  1  0
  9 22  1  0
  9 23  1  0
M  END
