
     RDKit          3D

 21 22  0  0  0  0  0  0  0  0999 V2000
    2.2645   -0.5731    0.5718 C   0  0  0  0  0  0  0  0  0  0  0  0
    1.1259   -0.2198   -0.3300 C   0  0  0  0  0  0  0  0  0  0  0  0
    0.6278    1.1703   -0.0675 C   0  0  0  0  0  0  0  0  0  0  0  0
   -0.8582    1.0891    0.0546 C   0  0  0  0  0  0  0  0  0  0  0  0
   -1.5111    1.9939   -0.7889 O   0  0  0  0  0  0  0  0  0  0  0  0
   -1.2293   -0.3170   -0.3012 C   0  0  0  0  0  0  0  0  0  0  0  0
   -2.1681   -0.5647   -1.2825 O   0  0  0  0  0  0  0  0  0  0  0  0
   -0.9639   -1.3162    0.7834 C   0  0  0  0  0  0  0  0  0  0  0  0
   -0.0155   -1.1564   -0.3115 C   0  0  0  0  0  0  0  0  0  0  0  0
    3.1611   -0.9643    0.0061 H   0  0  0  0  0  0  0  0  0  0  0  0
    2.0408   -1.2970    1.3498 H   0  0  0  0  0  0  0  0  0  0  0  0
    2.6524    0.3724    1.0520 H   0  0  0  0  0  0  0  0  0  0  0  0
    1.5492   -0.2110   -1.3786 H   0  0  0  0  0  0  0  0  0  0  0  0
    1.1024    1.5645    0.8431 H   0  0  0  0  0  0  0  0  0  0  0  0
    0.8503    1.8800   -0.9088 H   0  0  0  0  0  0  0  0  0  0  0  0
   -1.1203    1.3098    1.1277 H   0  0  0  0  0  0  0  0  0  0  0  0
   -2.1239    2.5835   -0.3015 H   0  0  0  0  0  0  0  0  0  0  0  0
   -3.0498   -0.2141   -0.9837 H   0  0  0  0  0  0  0  0  0  0  0  0
   -1.6252   -2.1810    0.7875 H   0  0  0  0  0  0  0  0  0  0  0  0
   -0.7324   -0.9509    1.8269 H   0  0  0  0  0  0  0  0  0  0  0  0
    0.0231   -1.9979   -1.0647 H   0  0  0  0  0  0  0  0  0  0  0  0
  1  2  1  0
  2  3  1  0
  3  4  1  0
  4  5  1  0
  4  6  1  0
  6  7  1  0
  6  8  1  0
  8  9  1  0
  9  2  1  0
  9  6  1  0
  1 10  1  0
  1 11  1  0
  1 12  1  0
  2 13  1  0
  3 14  1  0
  3 15  1  0
  4 16  1  0
  5 17  1  0
  7 18  1  0
  8 19  1  0
  8 20  1  0
  9 21  1  0
M  END
