
     RDKit          3D

 21 23  0  0  0  0  0  0  0  0999 V2000
    2.6294    0.8709   -0.0624 C   0  0  0  0  0  0  0  0  0  0  0  0
    1.4026    0.0941   -0.4778 C   0  0  0  0  0  0  0  0  0  0  0  0
    1.0366   -1.0051    0.5179 C   0  0  0  0  0  0  0  0  0  0  0  0
    0.2094    0.1615    0.3071 C   0  0  0  0  0  0  0  0  0  0  0  0
   -0.1205    1.1021    1.2442 O   0  0  0  0  0  0  0  0  0  0  0  0
   -1.2975    1.3552    0.4940 C   0  0  0  0  0  0  0  0  0  0  0  0
   -1.1795    0.0397   -0.0976 C   0  0  0  0  0  0  0  0  0  0  0  0
   -1.8028   -0.6064   -1.1757 C   0  0  0  0  0  0  0  0  0  0  0  0
   -1.9453   -1.1604    0.2530 C   0  0  0  0  0  0  0  0  0  0  0  0
    2.9153    1.5765   -0.8698 H   0  0  0  0  0  0  0  0  0  0  0  0
    3.4981    0.2130    0.1073 H   0  0  0  0  0  0  0  0  0  0  0  0
    2.4600    1.4746    0.8574 H   0  0  0  0  0  0  0  0  0  0  0  0
    1.3253   -0.1280   -1.5611 H   0  0  0  0  0  0  0  0  0  0  0  0
    1.6303   -1.1440    1.4171 H   0  0  0  0  0  0  0  0  0  0  0  0
    0.6863   -1.9526    0.0126 H   0  0  0  0  0  0  0  0  0  0  0  0
   -1.0592    2.1938   -0.2037 H   0  0  0  0  0  0  0  0  0  0  0  0
   -2.1110    1.5954    1.1788 H   0  0  0  0  0  0  0  0  0  0  0  0
   -1.2653   -1.3108   -1.8570 H   0  0  0  0  0  0  0  0  0  0  0  0
   -2.7688   -0.2678   -1.5905 H   0  0  0  0  0  0  0  0  0  0  0  0
   -2.8977   -1.0394    0.7711 H   0  0  0  0  0  0  0  0  0  0  0  0
   -1.3457   -2.0624    0.5119 H   0  0  0  0  0  0  0  0  0  0  0  0
  1  2  1  0
  2  3  1  0
  3  4  1  0
  4  5  1  0
  5  6  1  0
  6  7  1  0
  7  8  1  0
  8  9  1  0
  4  2  1  0
  9  7  1  0
  7  4  1  0
  1 10  1  0
  1 11  1  0
  1 12  1  0
  2 13  1  0
  3 14  1  0
  3 15  1  0
  6 16  1  0
  6 17  1  0
  8 18  1  0
  8 19  1  0
  9 20  1  0
  9 21  1  0
M  END
