
     RDKit          3D

 23 24  0  0  0  0  0  0  0  0999 V2000
    2.2905    0.1941    0.8821 C   0  0  0  0  0  0  0  0  0  0  0  0
    1.3523   -0.3747   -0.1392 C   0  0  0  0  0  0  0  0  0  0  0  0
    0.1402   -0.9856    0.5528 C   0  0  0  0  0  0  0  0  0  0  0  0
   -0.9803   -0.4650   -0.3100 C   0  0  0  0  0  0  0  0  0  0  0  0
   -2.0815   -1.4162   -0.5340 C   0  0  0  0  0  0  0  0  0  0  0  0
   -1.3543    0.8827    0.2000 C   0  0  0  0  0  0  0  0  0  0  0  0
   -0.0924    1.6697   -0.1900 C   0  0  0  0  0  0  0  0  0  0  0  0
    0.6987    0.6610   -1.0015 C   0  0  0  0  0  0  0  0  0  0  0  0
   -0.3594   -0.1166   -1.5352 O   0  0  0  0  0  0  0  0  0  0  0  0
    1.7692    0.8142    1.6378 H   0  0  0  0  0  0  0  0  0  0  0  0
    3.0828    0.7903    0.4427 H   0  0  0  0  0  0  0  0  0  0  0  0
    2.7362   -0.6584    1.4338 H   0  0  0  0  0  0  0  0  0  0  0  0
    1.8746   -1.0914   -0.7702 H   0  0  0  0  0  0  0  0  0  0  0  0
    0.1945   -2.0827    0.5817 H   0  0  0  0  0  0  0  0  0  0  0  0
    0.0968   -0.5565    1.5758 H   0  0  0  0  0  0  0  0  0  0  0  0
   -2.9146   -0.9254   -1.0285 H   0  0  0  0  0  0  0  0  0  0  0  0
   -1.7147   -2.2108   -1.2478 H   0  0  0  0  0  0  0  0  0  0  0  0
   -2.3991   -1.9171    0.3855 H   0  0  0  0  0  0  0  0  0  0  0  0
   -2.2541    1.3136   -0.2738 H   0  0  0  0  0  0  0  0  0  0  0  0
   -1.4240    0.8739    1.2923 H   0  0  0  0  0  0  0  0  0  0  0  0
    0.4302    2.0312    0.6926 H   0  0  0  0  0  0  0  0  0  0  0  0
   -0.4184    2.4728   -0.8832 H   0  0  0  0  0  0  0  0  0  0  0  0
    1.3268    1.0968   -1.7635 H   0  0  0  0  0  0  0  0  0  0  0  0
  1  2  1  0
  2  3  1  0
  3  4  1  0
  4  5  1  0
  4  6  1  0
  6  7  1  0
  7  8  1  0
  8  9  1  0
  8  2  1  0
  9  4  1  0
  1 10  1  0
  1 11  1  0
  1 12  1  0
  2 13  1  0
  3 14  1  0
  3 15  1  0
  5 16  1  0
  5 17  1  0
  5 18  1  0
  6 19  1  0
  6 20  1  0
  7 21  1  0
  7 22  1  0
  8 23  1  0
M  END
