
     RDKit          3D

 21 23  0  0  0  0  0  0  0  0999 V2000
   -2.4291    0.1475   -0.4831 C   0  0  0  0  0  0  0  0  0  0  0  0
   -0.9625    0.3461   -0.3577 C   0  0  0  0  0  0  0  0  0  0  0  0
   -0.0798   -0.8095   -0.7618 C   0  0  0  0  0  0  0  0  0  0  0  0
   -0.4026   -1.3863    0.6270 C   0  0  0  0  0  0  0  0  0  0  0  0
   -0.3674    0.1034    1.0080 C   0  0  0  0  0  0  0  0  0  0  0  0
    1.0930    0.3614    0.8640 C   0  0  0  0  0  0  0  0  0  0  0  0
    1.7175    1.0299   -0.2690 C   0  0  0  0  0  0  0  0  0  0  0  0
    3.1173    1.2179   -0.1323 O   0  0  0  0  0  0  0  0  0  0  0  0
    1.3153   -0.3377   -0.5301 C   0  0  0  0  0  0  0  0  0  0  0  0
   -2.6823    0.2370   -1.5749 H   0  0  0  0  0  0  0  0  0  0  0  0
   -2.8336   -0.7991   -0.1475 H   0  0  0  0  0  0  0  0  0  0  0  0
   -2.9283    0.9918    0.0627 H   0  0  0  0  0  0  0  0  0  0  0  0
   -0.6572    1.2771   -0.8651 H   0  0  0  0  0  0  0  0  0  0  0  0
   -0.3343   -1.3982   -1.6052 H   0  0  0  0  0  0  0  0  0  0  0  0
    0.4222   -1.9617    1.0760 H   0  0  0  0  0  0  0  0  0  0  0  0
   -1.3519   -1.8820    0.7288 H   0  0  0  0  0  0  0  0  0  0  0  0
   -0.9012    0.3964    1.8756 H   0  0  0  0  0  0  0  0  0  0  0  0
    1.7095   -0.0952    1.6873 H   0  0  0  0  0  0  0  0  0  0  0  0
    1.2607    1.9285   -0.7285 H   0  0  0  0  0  0  0  0  0  0  0  0
    3.2221    1.7837    0.6745 H   0  0  0  0  0  0  0  0  0  0  0  0
    2.0724   -1.1511   -0.5319 H   0  0  0  0  0  0  0  0  0  0  0  0
  1  2  1  0
  2  3  1  0
  3  4  1  0
  4  5  1  0
  5  6  1  0
  6  7  1  0
  7  8  1  0
  7  9  1  0
  5  2  1  0
  9  6  1  0
  9  3  1  0
  1 10  1  0
  1 11  1  0
  1 12  1  0
  2 13  1  0
  3 14  1  0
  4 15  1  0
  4 16  1  0
  5 17  1  0
  6 18  1  0
  7 19  1  0
  8 20  1  0
  9 21  1  0
M  END
