
     RDKit          3D

 18 19  0  0  0  0  0  0  0  0999 V2000
   -2.0286    0.4916   -0.5967 C   0  0  0  0  0  0  0  0  0  0  0  0
   -0.8739    0.1786    0.2829 C   0  0  0  0  0  0  0  0  0  0  0  0
   -0.7551   -1.3160    0.5975 C   0  0  0  0  0  0  0  0  0  0  0  0
    0.5200   -1.2939    1.2121 O   0  0  0  0  0  0  0  0  0  0  0  0
    1.3316   -0.6302    0.3342 C   0  0  0  0  0  0  0  0  0  0  0  0
    1.6278    0.8081    0.4149 C   0  0  0  0  0  0  0  0  0  0  0  0
    2.7509    1.2746   -0.2341 O   0  0  0  0  0  0  0  0  0  0  0  0
    0.4741    0.4030   -0.3885 C   0  0  0  0  0  0  0  0  0  0  0  0
   -2.3813   -0.3894   -1.1569 H   0  0  0  0  0  0  0  0  0  0  0  0
   -2.8362    0.9651    0.0209 H   0  0  0  0  0  0  0  0  0  0  0  0
   -1.6918    1.2958   -1.3162 H   0  0  0  0  0  0  0  0  0  0  0  0
   -0.8608    0.7360    1.2389 H   0  0  0  0  0  0  0  0  0  0  0  0
   -0.6806   -1.8316   -0.3649 H   0  0  0  0  0  0  0  0  0  0  0  0
   -1.5352   -1.6668    1.2698 H   0  0  0  0  0  0  0  0  0  0  0  0
    2.0123   -1.2675   -0.2537 H   0  0  0  0  0  0  0  0  0  0  0  0
    1.3947    1.3646    1.3569 H   0  0  0  0  0  0  0  0  0  0  0  0
    3.0121    0.5949   -0.9151 H   0  0  0  0  0  0  0  0  0  0  0  0
    0.5201    0.2831   -1.5017 H   0  0  0  0  0  0  0  0  0  0  0  0
  1  2  1  0
  2  3  1  0
  3  4  1  0
  4  5  1  0
  5  6  1  0
  6  7  1  0
  6  8  1  0
  8  2  1  0
  8  5  1  0
  1  9  1  0
  1 10  1  0
  1 11  1  0
  2 12  1  0
  3 13  1  0
  3 14  1  0
  5 15  1  0
  6 16  1  0
  7 17  1  0
  8 18  1  0
M  END
