
     RDKit          3D

 19 20  0  0  0  0  0  0  0  0999 V2000
    1.8537    0.4466   -0.3987 C   0  0  0  0  0  0  0  0  0  0  0  0
    0.6628    0.4072    0.4923 C   0  0  0  0  0  0  0  0  0  0  0  0
    0.2293   -0.9651    0.9659 C   0  0  0  0  0  0  0  0  0  0  0  0
    0.0345   -1.7210   -0.2933 C   0  0  0  0  0  0  0  0  0  0  0  0
   -0.5589   -0.8136   -1.0898 C   0  0  0  0  0  0  0  0  0  0  0  0
   -0.6877    0.3603   -0.2089 C   0  0  0  0  0  0  0  0  0  0  0  0
   -1.3098    1.5498   -0.6298 C   0  0  0  0  0  0  0  0  0  0  0  0
   -2.4924    1.7865   -0.3391 O   0  0  0  0  0  0  0  0  0  0  0  0
   -1.1579   -0.3111    1.0913 C   0  0  0  0  0  0  0  0  0  0  0  0
    1.6345    0.2675   -1.4660 H   0  0  0  0  0  0  0  0  0  0  0  0
    2.2720    1.4929   -0.3521 H   0  0  0  0  0  0  0  0  0  0  0  0
    2.6981   -0.2009   -0.0239 H   0  0  0  0  0  0  0  0  0  0  0  0
    0.6815    1.1009    1.3512 H   0  0  0  0  0  0  0  0  0  0  0  0
    0.6581   -1.4016    1.8161 H   0  0  0  0  0  0  0  0  0  0  0  0
    0.3085   -2.7482   -0.5013 H   0  0  0  0  0  0  0  0  0  0  0  0
   -0.8802   -0.8731   -2.1153 H   0  0  0  0  0  0  0  0  0  0  0  0
   -0.7904    2.2946   -1.2149 H   0  0  0  0  0  0  0  0  0  0  0  0
   -1.9884   -1.0137    0.9560 H   0  0  0  0  0  0  0  0  0  0  0  0
   -1.1671    0.3419    1.9602 H   0  0  0  0  0  0  0  0  0  0  0  0
  1  2  1  0
  2  3  1  0
  3  4  1  0
  4  5  2  0
  5  6  1  0
  6  7  1  0
  7  8  2  0
  6  9  1  0
  6  2  1  0
  9  3  1  0
  1 10  1  0
  1 11  1  0
  1 12  1  0
  2 13  1  0
  3 14  1  0
  4 15  1  0
  5 16  1  0
  7 17  1  0
  9 18  1  0
  9 19  1  0
M  END
