
     RDKit          3D

 25 25  0  0  0  0  0  0  0  0999 V2000
   -0.1139    2.0106    0.4606 C   0  0  0  0  0  0  0  0  0  0  0  0
   -0.1780    0.9224   -0.5712 C   0  0  0  0  0  0  0  0  0  0  0  0
   -1.5722    0.4691   -0.7713 C   0  0  0  0  0  0  0  0  0  0  0  0
   -2.0215   -0.6765    0.0489 C   0  0  0  0  0  0  0  0  0  0  0  0
   -0.9959   -1.7925    0.1110 C   0  0  0  0  0  0  0  0  0  0  0  0
    0.2417   -1.1535    0.7552 C   0  0  0  0  0  0  0  0  0  0  0  0
    0.7617   -0.2118   -0.3013 C   0  0  0  0  0  0  0  0  0  0  0  0
    2.1493    0.2121    0.0187 C   0  0  0  0  0  0  0  0  0  0  0  0
    2.9079   -0.9504    0.2458 O   0  0  0  0  0  0  0  0  0  0  0  0
   -1.1509    2.2765    0.8188 H   0  0  0  0  0  0  0  0  0  0  0  0
    0.3505    2.9525    0.0705 H   0  0  0  0  0  0  0  0  0  0  0  0
    0.4512    1.7441    1.3642 H   0  0  0  0  0  0  0  0  0  0  0  0
    0.1582    1.3884   -1.5452 H   0  0  0  0  0  0  0  0  0  0  0  0
   -1.8082    0.2366   -1.8517 H   0  0  0  0  0  0  0  0  0  0  0  0
   -2.2508    1.3424   -0.5389 H   0  0  0  0  0  0  0  0  0  0  0  0
   -2.2683   -0.3798    1.1052 H   0  0  0  0  0  0  0  0  0  0  0  0
   -2.9576   -1.0903   -0.4169 H   0  0  0  0  0  0  0  0  0  0  0  0
   -1.3616   -2.6499    0.6616 H   0  0  0  0  0  0  0  0  0  0  0  0
   -0.7045   -2.0271   -0.9538 H   0  0  0  0  0  0  0  0  0  0  0  0
   -0.1213   -0.6351    1.6585 H   0  0  0  0  0  0  0  0  0  0  0  0
    1.0033   -1.8914    1.0013 H   0  0  0  0  0  0  0  0  0  0  0  0
    0.8141   -0.8206   -1.2508 H   0  0  0  0  0  0  0  0  0  0  0  0
    2.2440    0.9114    0.8489 H   0  0  0  0  0  0  0  0  0  0  0  0
    2.5938    0.6735   -0.9080 H   0  0  0  0  0  0  0  0  0  0  0  0
    3.8289   -0.8607   -0.0602 H   0  0  0  0  0  0  0  0  0  0  0  0
  1  2  1  0
  2  3  1  0
  3  4  1  0
  4  5  1  0
  5  6  1  0
  6  7  1  0
  7  8  1  0
  8  9  1  0
  7  2  1  0
  1 10  1  0
  1 11  1  0
  1 12  1  0
  2 13  1  0
  3 14  1  0
  3 15  1  0
  4 16  1  0
  4 17  1  0
  5 18  1  0
  5 19  1  0
  6 20  1  0
  6 21  1  0
  7 22  1  0
  8 23  1  0
  8 24  1  0
  9 25  1  0
M  END
