
     RDKit          3D

 17 18  0  0  0  0  0  0  0  0999 V2000
   -2.0771    0.8716   -0.2636 C   0  0  0  0  0  0  0  0  0  0  0  0
   -0.7625    0.4769    0.2925 C   0  0  0  0  0  0  0  0  0  0  0  0
   -0.6689   -1.0201    0.7132 C   0  0  0  0  0  0  0  0  0  0  0  0
    0.7699   -0.7750    0.5355 C   0  0  0  0  0  0  0  0  0  0  0  0
    2.0638   -0.6811    0.5101 C   0  0  0  0  0  0  0  0  0  0  0  0
    2.4958    0.3087   -0.4988 C   0  0  0  0  0  0  0  0  0  0  0  0
    3.6651    0.6433   -0.7901 O   0  0  0  0  0  0  0  0  0  0  0  0
    1.3099    0.8087   -1.0768 O   0  0  0  0  0  0  0  0  0  0  0  0
    0.2845    0.0052   -0.6835 C   0  0  0  0  0  0  0  0  0  0  0  0
   -2.8683    0.1434    0.0118 H   0  0  0  0  0  0  0  0  0  0  0  0
   -2.0207    1.0459   -1.3584 H   0  0  0  0  0  0  0  0  0  0  0  0
   -2.3730    1.8470    0.2191 H   0  0  0  0  0  0  0  0  0  0  0  0
   -0.3411    1.0649    1.1168 H   0  0  0  0  0  0  0  0  0  0  0  0
   -1.0932   -1.6045   -0.1186 H   0  0  0  0  0  0  0  0  0  0  0  0
   -1.0371   -1.2142    1.7125 H   0  0  0  0  0  0  0  0  0  0  0  0
    2.8042   -1.2266    1.1211 H   0  0  0  0  0  0  0  0  0  0  0  0
   -0.1513   -0.6943   -1.4425 H   0  0  0  0  0  0  0  0  0  0  0  0
  1  2  1  0
  2  3  1  0
  3  4  1  0
  4  5  2  0
  5  6  1  0
  6  7  2  0
  6  8  1  0
  8  9  1  0
  9  2  1  0
  9  4  1  0
  1 10  1  0
  1 11  1  0
  1 12  1  0
  2 13  1  0
  3 14  1  0
  3 15  1  0
  5 16  1  0
  9 17  1  0
M  END
