
     RDKit          3D

 23 23  0  0  0  0  0  0  0  0999 V2000
   -2.2412   -0.5370    0.1447 C   0  0  0  0  0  0  0  0  0  0  0  0
   -0.7776   -0.4848    0.4627 C   0  0  0  0  0  0  0  0  0  0  0  0
    0.0010   -0.9113   -0.7489 C   0  0  0  0  0  0  0  0  0  0  0  0
    1.3724   -0.3702   -0.4868 C   0  0  0  0  0  0  0  0  0  0  0  0
    2.2869   -1.4854   -0.1624 C   0  0  0  0  0  0  0  0  0  0  0  0
    3.4520   -1.4546   -0.4994 O   0  0  0  0  0  0  0  0  0  0  0  0
    1.2595    0.6254    0.6440 C   0  0  0  0  0  0  0  0  0  0  0  0
   -0.2523    0.8806    0.7439 C   0  0  0  0  0  0  0  0  0  0  0  0
   -0.6037    1.9079   -0.2842 C   0  0  0  0  0  0  0  0  0  0  0  0
   -2.5325   -0.0281   -0.7722 H   0  0  0  0  0  0  0  0  0  0  0  0
   -2.4958   -1.6201    0.0066 H   0  0  0  0  0  0  0  0  0  0  0  0
   -2.8794   -0.1950    0.9878 H   0  0  0  0  0  0  0  0  0  0  0  0
   -0.5619   -1.1392    1.3052 H   0  0  0  0  0  0  0  0  0  0  0  0
   -0.4302   -0.5135   -1.6913 H   0  0  0  0  0  0  0  0  0  0  0  0
   -0.0439   -2.0146   -0.8115 H   0  0  0  0  0  0  0  0  0  0  0  0
    1.7216    0.1239   -1.4265 H   0  0  0  0  0  0  0  0  0  0  0  0
    1.8502   -2.3288    0.3938 H   0  0  0  0  0  0  0  0  0  0  0  0
    1.5486    0.1021    1.5960 H   0  0  0  0  0  0  0  0  0  0  0  0
    1.8234    1.5379    0.4659 H   0  0  0  0  0  0  0  0  0  0  0  0
   -0.4253    1.2242    1.7911 H   0  0  0  0  0  0  0  0  0  0  0  0
   -1.2722    1.5462   -1.0819 H   0  0  0  0  0  0  0  0  0  0  0  0
   -1.1039    2.7970    0.1985 H   0  0  0  0  0  0  0  0  0  0  0  0
    0.3043    2.3376   -0.7750 H   0  0  0  0  0  0  0  0  0  0  0  0
  1  2  1  0
  2  3  1  0
  3  4  1  0
  4  5  1  0
  5  6  2  0
  4  7  1  0
  7  8  1  0
  8  9  1  0
  8  2  1  0
  1 10  1  0
  1 11  1  0
  1 12  1  0
  2 13  1  0
  3 14  1  0
  3 15  1  0
  4 16  1  0
  5 17  1  0
  7 18  1  0
  7 19  1  0
  8 20  1  0
  9 21  1  0
  9 22  1  0
  9 23  1  0
M  END
