
     RDKit          3D

 17 18  0  0  0  0  0  0  0  0999 V2000
   -1.9394    0.7188    0.3078 C   0  0  0  0  0  0  0  0  0  0  0  0
   -0.9438   -0.1569   -0.4074 C   0  0  0  0  0  0  0  0  0  0  0  0
   -0.8008   -1.4888    0.1800 C   0  0  0  0  0  0  0  0  0  0  0  0
    0.4569   -1.6760    0.5062 C   0  0  0  0  0  0  0  0  0  0  0  0
    1.2535   -0.5068    0.1721 C   0  0  0  0  0  0  0  0  0  0  0  0
    2.5165    0.0825    0.1734 C   0  0  0  0  0  0  0  0  0  0  0  0
    2.3988    1.2736   -0.3499 O   0  0  0  0  0  0  0  0  0  0  0  0
    1.1902    1.5363   -0.6982 C   0  0  0  0  0  0  0  0  0  0  0  0
    0.4166    0.4191   -0.3814 C   0  0  0  0  0  0  0  0  0  0  0  0
   -1.7084    1.7715    0.0165 H   0  0  0  0  0  0  0  0  0  0  0  0
   -2.9533    0.5161   -0.1318 H   0  0  0  0  0  0  0  0  0  0  0  0
   -1.9947    0.5541    1.3821 H   0  0  0  0  0  0  0  0  0  0  0  0
   -1.3003   -0.2244   -1.4746 H   0  0  0  0  0  0  0  0  0  0  0  0
   -1.6155   -2.2345    0.3327 H   0  0  0  0  0  0  0  0  0  0  0  0
    0.8715   -2.5738    0.9648 H   0  0  0  0  0  0  0  0  0  0  0  0
    3.3959   -0.4293    0.5614 H   0  0  0  0  0  0  0  0  0  0  0  0
    0.7563    2.4184   -1.1539 H   0  0  0  0  0  0  0  0  0  0  0  0
  1  2  1  0
  2  3  1  0
  3  4  2  0
  4  5  1  0
  5  6  2  0
  6  7  1  0
  7  8  1  0
  8  9  2  0
  9  2  1  0
  9  5  1  0
  1 10  1  0
  1 11  1  0
  1 12  1  0
  2 13  1  0
  3 14  1  0
  4 15  1  0
  6 16  1  0
  8 17  1  0
M  END
