
     RDKit          3D

 21 22  0  0  0  0  0  0  0  0999 V2000
   -2.7537   -0.2144   -0.0848 C   0  0  0  0  0  0  0  0  0  0  0  0
   -1.4760    0.4358    0.4553 C   0  0  0  0  0  0  0  0  0  0  0  0
   -0.4818    0.8102   -0.5001 C   0  0  0  0  0  0  0  0  0  0  0  0
    0.6631    1.7005   -0.3686 C   0  0  0  0  0  0  0  0  0  0  0  0
    1.9398    1.2837   -0.3322 C   0  0  0  0  0  0  0  0  0  0  0  0
    2.4583   -0.0991   -0.4124 C   0  0  0  0  0  0  0  0  0  0  0  0
    1.7446   -1.2120   -0.3259 C   0  0  0  0  0  0  0  0  0  0  0  0
    0.2658   -1.4466   -0.1301 C   0  0  0  0  0  0  0  0  0  0  0  0
   -0.2548   -0.2835    0.6024 C   0  0  0  0  0  0  0  0  0  0  0  0
   -2.5538   -0.5767   -1.1269 H   0  0  0  0  0  0  0  0  0  0  0  0
   -3.0589   -1.0846    0.5009 H   0  0  0  0  0  0  0  0  0  0  0  0
   -3.5456    0.5518   -0.1723 H   0  0  0  0  0  0  0  0  0  0  0  0
   -1.7413    1.1817    1.2543 H   0  0  0  0  0  0  0  0  0  0  0  0
   -0.6113    0.4418   -1.5459 H   0  0  0  0  0  0  0  0  0  0  0  0
    0.4566    2.7480   -0.2978 H   0  0  0  0  0  0  0  0  0  0  0  0
    2.6768    2.0719   -0.2307 H   0  0  0  0  0  0  0  0  0  0  0  0
    3.5320   -0.2070   -0.5566 H   0  0  0  0  0  0  0  0  0  0  0  0
    2.3405   -2.1033   -0.4125 H   0  0  0  0  0  0  0  0  0  0  0  0
   -0.2328   -1.6244   -1.1008 H   0  0  0  0  0  0  0  0  0  0  0  0
    0.2069   -2.3869    0.4874 H   0  0  0  0  0  0  0  0  0  0  0  0
    0.4256    0.0132    1.4562 H   0  0  0  0  0  0  0  0  0  0  0  0
  1  2  1  0
  2  3  1  0
  3  4  1  0
  4  5  2  0
  5  6  1  0
  6  7  2  0
  7  8  1  0
  8  9  1  0
  9  2  1  0
  9  3  1  0
  1 10  1  0
  1 11  1  0
  1 12  1  0
  2 13  1  0
  3 14  1  0
  4 15  1  0
  5 16  1  0
  6 17  1  0
  7 18  1  0
  8 19  1  0
  8 20  1  0
  9 21  1  0
M  END
