
     RDKit          3D

 23 24  0  0  0  0  0  0  0  0999 V2000
   -2.2132    1.0890   -0.6535 C   0  0  0  0  0  0  0  0  0  0  0  0
   -1.1666   -0.0309   -0.7148 C   0  0  0  0  0  0  0  0  0  0  0  0
   -1.3815   -0.8556    0.5465 C   0  0  0  0  0  0  0  0  0  0  0  0
   -0.4198   -0.3676    1.5680 C   0  0  0  0  0  0  0  0  0  0  0  0
    0.9042   -0.3976    1.5046 C   0  0  0  0  0  0  0  0  0  0  0  0
    1.7518   -0.9342    0.3803 C   0  0  0  0  0  0  0  0  0  0  0  0
    2.6573    0.0088   -0.2515 C   0  0  0  0  0  0  0  0  0  0  0  0
    1.3298   -0.2272   -0.9251 C   0  0  0  0  0  0  0  0  0  0  0  0
    0.1807    0.6781   -0.6740 C   0  0  0  0  0  0  0  0  0  0  0  0
   -2.2579    1.4403    0.4092 H   0  0  0  0  0  0  0  0  0  0  0  0
   -1.9235    1.8765   -1.3572 H   0  0  0  0  0  0  0  0  0  0  0  0
   -3.1783    0.6040   -0.8734 H   0  0  0  0  0  0  0  0  0  0  0  0
   -1.2868   -0.6323   -1.6308 H   0  0  0  0  0  0  0  0  0  0  0  0
   -2.4138   -0.8252    0.8917 H   0  0  0  0  0  0  0  0  0  0  0  0
   -1.0607   -1.9022    0.2888 H   0  0  0  0  0  0  0  0  0  0  0  0
   -0.8774    0.0515    2.4461 H   0  0  0  0  0  0  0  0  0  0  0  0
    1.4498    0.0064    2.3505 H   0  0  0  0  0  0  0  0  0  0  0  0
    1.7788   -2.0182    0.2771 H   0  0  0  0  0  0  0  0  0  0  0  0
    2.8479    0.9811    0.2395 H   0  0  0  0  0  0  0  0  0  0  0  0
    3.5537   -0.4044   -0.7570 H   0  0  0  0  0  0  0  0  0  0  0  0
    1.3265   -0.8048   -1.8486 H   0  0  0  0  0  0  0  0  0  0  0  0
    0.1510    1.4369   -1.4893 H   0  0  0  0  0  0  0  0  0  0  0  0
    0.2480    1.2275    0.2728 H   0  0  0  0  0  0  0  0  0  0  0  0
  1  2  1  0
  2  3  1  0
  3  4  1  0
  4  5  2  0
  5  6  1  0
  6  7  1  0
  7  8  1  0
  8  9  1  0
  9  2  1  0
  8  6  1  0
  1 10  1  0
  1 11  1  0
  1 12  1  0
  2 13  1  0
  3 14  1  0
  3 15  1  0
  4 16  1  0
  5 17  1  0
  6 18  1  0
  7 19  1  0
  7 20  1  0
  8 21  1  0
  9 22  1  0
  9 23  1  0
M  END
