
     RDKit          3D

 23 23  0  0  0  0  0  0  0  0999 V2000
    3.0325    0.2725    0.0318 C   0  0  0  0  0  0  0  0  0  0  0  0
    1.5485    0.3975   -0.0175 C   0  0  0  0  0  0  0  0  0  0  0  0
    0.7457   -0.4621    0.8883 C   0  0  0  0  0  0  0  0  0  0  0  0
   -0.1339   -0.5102   -0.3204 C   0  0  0  0  0  0  0  0  0  0  0  0
   -0.7873   -1.8418   -0.5995 C   0  0  0  0  0  0  0  0  0  0  0  0
   -1.1129    0.6037   -0.4817 C   0  0  0  0  0  0  0  0  0  0  0  0
   -2.0920    0.6979    0.6727 C   0  0  0  0  0  0  0  0  0  0  0  0
   -2.9725    1.7568    0.4537 O   0  0  0  0  0  0  0  0  0  0  0  0
    1.0012   -0.2715   -1.1052 O   0  0  0  0  0  0  0  0  0  0  0  0
    3.4241   -0.6481   -0.4418 H   0  0  0  0  0  0  0  0  0  0  0  0
    3.4563    1.1253   -0.5737 H   0  0  0  0  0  0  0  0  0  0  0  0
    3.4186    0.4300    1.0601 H   0  0  0  0  0  0  0  0  0  0  0  0
    1.2486    1.4708    0.0656 H   0  0  0  0  0  0  0  0  0  0  0  0
    0.3334    0.0769    1.7636 H   0  0  0  0  0  0  0  0  0  0  0  0
    1.1610   -1.4550    1.1407 H   0  0  0  0  0  0  0  0  0  0  0  0
   -0.2921   -2.6837   -0.0681 H   0  0  0  0  0  0  0  0  0  0  0  0
   -1.8385   -1.8205   -0.2350 H   0  0  0  0  0  0  0  0  0  0  0  0
   -0.8271   -1.9906   -1.6981 H   0  0  0  0  0  0  0  0  0  0  0  0
   -1.7053    0.3958   -1.4071 H   0  0  0  0  0  0  0  0  0  0  0  0
   -0.6697    1.5967   -0.6169 H   0  0  0  0  0  0  0  0  0  0  0  0
   -2.7413   -0.2272    0.6716 H   0  0  0  0  0  0  0  0  0  0  0  0
   -1.5999    0.7526    1.6464 H   0  0  0  0  0  0  0  0  0  0  0  0
   -2.5973    2.3340   -0.2523 H   0  0  0  0  0  0  0  0  0  0  0  0
  1  2  1  0
  2  3  1  0
  3  4  1  0
  4  5  1  0
  4  6  1  0
  6  7  1  0
  7  8  1  0
  4  9  1  0
  9  2  1  0
  1 10  1  0
  1 11  1  0
  1 12  1  0
  2 13  1  0
  3 14  1  0
  3 15  1  0
  5 16  1  0
  5 17  1  0
  5 18  1  0
  6 19  1  0
  6 20  1  0
  7 21  1  0
  7 22  1  0
  8 23  1  0
M  END
