
     RDKit          3D

 23 24  0  0  0  0  0  0  0  0999 V2000
    2.0898    1.0983    0.3827 C   0  0  0  0  0  0  0  0  0  0  0  0
    1.4334   -0.0010   -0.4026 C   0  0  0  0  0  0  0  0  0  0  0  0
    1.1281   -1.3184    0.2104 C   0  0  0  0  0  0  0  0  0  0  0  0
    1.5563   -1.4468    1.5426 O   0  0  0  0  0  0  0  0  0  0  0  0
    0.0509   -0.3478   -0.0341 C   0  0  0  0  0  0  0  0  0  0  0  0
   -0.6635    0.2708    1.1236 C   0  0  0  0  0  0  0  0  0  0  0  0
   -2.1284    0.2624    0.6829 C   0  0  0  0  0  0  0  0  0  0  0  0
   -1.9577    0.5814   -0.8084 C   0  0  0  0  0  0  0  0  0  0  0  0
   -0.9261   -0.4954   -1.1632 C   0  0  0  0  0  0  0  0  0  0  0  0
    1.4531    2.0121    0.2461 H   0  0  0  0  0  0  0  0  0  0  0  0
    2.2174    0.8678    1.4526 H   0  0  0  0  0  0  0  0  0  0  0  0
    3.0888    1.3882   -0.0339 H   0  0  0  0  0  0  0  0  0  0  0  0
    1.7443   -0.0199   -1.4750 H   0  0  0  0  0  0  0  0  0  0  0  0
    1.1296   -2.2317   -0.4106 H   0  0  0  0  0  0  0  0  0  0  0  0
    2.2711   -2.1409    1.5187 H   0  0  0  0  0  0  0  0  0  0  0  0
   -0.5097   -0.2594    2.0696 H   0  0  0  0  0  0  0  0  0  0  0  0
   -0.4010    1.3356    1.2988 H   0  0  0  0  0  0  0  0  0  0  0  0
   -2.5331   -0.7773    0.7318 H   0  0  0  0  0  0  0  0  0  0  0  0
   -2.7315    1.0029    1.2020 H   0  0  0  0  0  0  0  0  0  0  0  0
   -1.4504    1.5446   -0.8613 H   0  0  0  0  0  0  0  0  0  0  0  0
   -2.8805    0.4827   -1.3672 H   0  0  0  0  0  0  0  0  0  0  0  0
   -0.4870   -0.3479   -2.1463 H   0  0  0  0  0  0  0  0  0  0  0  0
   -1.4939   -1.4603   -1.1219 H   0  0  0  0  0  0  0  0  0  0  0  0
  1  2  1  0
  2  3  1  0
  3  4  1  0
  3  5  1  0
  5  6  1  0
  6  7  1  0
  7  8  1  0
  8  9  1  0
  5  2  1  0
  9  5  1  0
  1 10  1  0
  1 11  1  0
  1 12  1  0
  2 13  1  0
  3 14  1  0
  4 15  1  0
  6 16  1  0
  6 17  1  0
  7 18  1  0
  7 19  1  0
  8 20  1  0
  8 21  1  0
  9 22  1  0
  9 23  1  0
M  END
