
     RDKit          3D

 23 24  0  0  0  0  0  0  0  0999 V2000
    2.7546    1.1219    0.1403 C   0  0  0  0  0  0  0  0  0  0  0  0
    1.7462    0.1166    0.5789 C   0  0  0  0  0  0  0  0  0  0  0  0
    0.3808    0.6817    0.7437 C   0  0  0  0  0  0  0  0  0  0  0  0
   -0.5065   -0.2761    0.4824 C   0  0  0  0  0  0  0  0  0  0  0  0
   -1.9802   -0.0911    0.5421 C   0  0  0  0  0  0  0  0  0  0  0  0
   -2.5944    1.0323   -0.2037 C   0  0  0  0  0  0  0  0  0  0  0  0
   -2.7273   -0.3464   -0.7571 C   0  0  0  0  0  0  0  0  0  0  0  0
    0.2088   -1.5349    0.1285 C   0  0  0  0  0  0  0  0  0  0  0  0
    1.4972   -0.9741   -0.4446 C   0  0  0  0  0  0  0  0  0  0  0  0
    2.2474    1.9925   -0.3278 H   0  0  0  0  0  0  0  0  0  0  0  0
    3.4769    0.6800   -0.6038 H   0  0  0  0  0  0  0  0  0  0  0  0
    3.3315    1.4421    1.0344 H   0  0  0  0  0  0  0  0  0  0  0  0
    1.9932   -0.3978    1.5288 H   0  0  0  0  0  0  0  0  0  0  0  0
    0.2107    1.7146    1.0317 H   0  0  0  0  0  0  0  0  0  0  0  0
   -2.4680   -0.4577    1.4776 H   0  0  0  0  0  0  0  0  0  0  0  0
   -3.5530    1.4795    0.1849 H   0  0  0  0  0  0  0  0  0  0  0  0
   -1.9651    1.7629   -0.7463 H   0  0  0  0  0  0  0  0  0  0  0  0
   -2.1159   -0.5352   -1.6844 H   0  0  0  0  0  0  0  0  0  0  0  0
   -3.6654   -0.9108   -0.6835 H   0  0  0  0  0  0  0  0  0  0  0  0
   -0.3414   -2.1522   -0.5949 H   0  0  0  0  0  0  0  0  0  0  0  0
    0.4658   -2.0433    1.0627 H   0  0  0  0  0  0  0  0  0  0  0  0
    2.2940   -1.7417   -0.4435 H   0  0  0  0  0  0  0  0  0  0  0  0
    1.3101   -0.5629   -1.4625 H   0  0  0  0  0  0  0  0  0  0  0  0
  1  2  1  0
  2  3  1  0
  3  4  2  0
  4  5  1  0
  5  6  1  0
  6  7  1  0
  4  8  1  0
  8  9  1  0
  9  2  1  0
  7  5  1  0
  1 10  1  0
  1 11  1  0
  1 12  1  0
  2 13  1  0
  3 14  1  0
  5 15  1  0
  6 16  1  0
  6 17  1  0
  7 18  1  0
  7 19  1  0
  8 20  1  0
  8 21  1  0
  9 22  1  0
  9 23  1  0
M  END
