
     RDKit          3D

 23 25  0  0  0  0  0  0  0  0999 V2000
    2.8927    0.4010   -0.4710 C   0  0  0  0  0  0  0  0  0  0  0  0
    1.3769    0.4414   -0.4344 C   0  0  0  0  0  0  0  0  0  0  0  0
    0.7459   -0.8183    0.0829 C   0  0  0  0  0  0  0  0  0  0  0  0
   -0.4891   -1.3774   -0.5843 C   0  0  0  0  0  0  0  0  0  0  0  0
   -1.6370   -0.8578    0.1645 C   0  0  0  0  0  0  0  0  0  0  0  0
   -2.7414   -0.0408   -0.1661 C   0  0  0  0  0  0  0  0  0  0  0  0
   -1.5247    0.6803   -0.1163 C   0  0  0  0  0  0  0  0  0  0  0  0
   -0.6507    1.1238    0.9681 C   0  0  0  0  0  0  0  0  0  0  0  0
    0.6565    0.3759    0.8603 C   0  0  0  0  0  0  0  0  0  0  0  0
    3.3399    0.3852    0.5420 H   0  0  0  0  0  0  0  0  0  0  0  0
    3.3250    1.1519   -1.1436 H   0  0  0  0  0  0  0  0  0  0  0  0
    3.1519   -0.5986   -0.9267 H   0  0  0  0  0  0  0  0  0  0  0  0
    0.9406    0.9755   -1.2916 H   0  0  0  0  0  0  0  0  0  0  0  0
    1.4189   -1.6404    0.4684 H   0  0  0  0  0  0  0  0  0  0  0  0
   -0.5091   -2.4795   -0.6227 H   0  0  0  0  0  0  0  0  0  0  0  0
   -0.5262   -1.0193   -1.6531 H   0  0  0  0  0  0  0  0  0  0  0  0
   -1.5668   -1.1743    1.2493 H   0  0  0  0  0  0  0  0  0  0  0  0
   -3.5225    0.1649    0.6022 H   0  0  0  0  0  0  0  0  0  0  0  0
   -3.2435   -0.1960   -1.1603 H   0  0  0  0  0  0  0  0  0  0  0  0
   -1.0900    0.9803   -1.1176 H   0  0  0  0  0  0  0  0  0  0  0  0
   -0.5161    2.2237    1.0203 H   0  0  0  0  0  0  0  0  0  0  0  0
   -1.1115    0.8205    1.9532 H   0  0  0  0  0  0  0  0  0  0  0  0
    1.2803    0.4782    1.7762 H   0  0  0  0  0  0  0  0  0  0  0  0
  1  2  1  0
  2  3  1  0
  3  4  1  0
  4  5  1  0
  5  6  1  0
  6  7  1  0
  7  8  1  0
  8  9  1  0
  9  2  1  0
  9  3  1  0
  7  5  1  0
  1 10  1  0
  1 11  1  0
  1 12  1  0
  2 13  1  0
  3 14  1  0
  4 15  1  0
  4 16  1  0
  5 17  1  0
  6 18  1  0
  6 19  1  0
  7 20  1  0
  8 21  1  0
  8 22  1  0
  9 23  1  0
M  END
