
     RDKit          3D

 23 23  0  0  0  0  0  0  0  0999 V2000
    1.9476    1.0465   -0.5513 C   0  0  0  0  0  0  0  0  0  0  0  0
    1.4971   -0.2320    0.0499 C   0  0  0  0  0  0  0  0  0  0  0  0
    0.9962   -0.1442    1.4310 C   0  0  0  0  0  0  0  0  0  0  0  0
   -0.3047   -0.0817    1.4210 C   0  0  0  0  0  0  0  0  0  0  0  0
   -0.8196   -0.1185    0.0492 C   0  0  0  0  0  0  0  0  0  0  0  0
   -1.0518    1.3244   -0.3738 C   0  0  0  0  0  0  0  0  0  0  0  0
   -2.1127   -0.8962   -0.0712 C   0  0  0  0  0  0  0  0  0  0  0  0
    0.2946   -0.7464   -0.7373 C   0  0  0  0  0  0  0  0  0  0  0  0
    0.2021   -2.1366   -0.6120 O   0  0  0  0  0  0  0  0  0  0  0  0
    1.3459    1.3925   -1.4194 H   0  0  0  0  0  0  0  0  0  0  0  0
    2.0518    1.8888    0.1601 H   0  0  0  0  0  0  0  0  0  0  0  0
    2.9861    0.9004   -0.9722 H   0  0  0  0  0  0  0  0  0  0  0  0
    2.2821   -1.0173    0.0290 H   0  0  0  0  0  0  0  0  0  0  0  0
    1.6079   -0.1324    2.3321 H   0  0  0  0  0  0  0  0  0  0  0  0
   -1.0024   -0.0094    2.2787 H   0  0  0  0  0  0  0  0  0  0  0  0
   -1.0523    1.4637   -1.4537 H   0  0  0  0  0  0  0  0  0  0  0  0
   -2.0851    1.5750    0.0073 H   0  0  0  0  0  0  0  0  0  0  0  0
   -0.3450    1.9724    0.1798 H   0  0  0  0  0  0  0  0  0  0  0  0
   -2.4331   -0.8335   -1.1156 H   0  0  0  0  0  0  0  0  0  0  0  0
   -1.8844   -1.9670    0.1357 H   0  0  0  0  0  0  0  0  0  0  0  0
   -2.8136   -0.5074    0.6667 H   0  0  0  0  0  0  0  0  0  0  0  0
    0.3335   -0.4128   -1.7851 H   0  0  0  0  0  0  0  0  0  0  0  0
    0.3598   -2.3281    0.3512 H   0  0  0  0  0  0  0  0  0  0  0  0
  1  2  1  0
  2  3  1  0
  3  4  2  0
  4  5  1  0
  5  6  1  0
  5  7  1  0
  5  8  1  0
  8  9  1  0
  8  2  1  0
  1 10  1  0
  1 11  1  0
  1 12  1  0
  2 13  1  0
  3 14  1  0
  4 15  1  0
  6 16  1  0
  6 17  1  0
  6 18  1  0
  7 19  1  0
  7 20  1  0
  7 21  1  0
  8 22  1  0
  9 23  1  0
M  END
