
     RDKit          3D

 23 24  0  0  0  0  0  0  0  0999 V2000
   -2.7535   -1.5863    0.0597 C   0  0  0  0  0  0  0  0  0  0  0  0
   -1.4116   -0.9450   -0.2094 C   0  0  0  0  0  0  0  0  0  0  0  0
   -1.4943    0.5722   -0.3182 C   0  0  0  0  0  0  0  0  0  0  0  0
   -0.8343    1.0687   -1.3931 O   0  0  0  0  0  0  0  0  0  0  0  0
   -0.8092   -0.1166    0.8492 C   0  0  0  0  0  0  0  0  0  0  0  0
    0.6154    0.1247    1.0381 C   0  0  0  0  0  0  0  0  0  0  0  0
    1.4168    0.7787   -0.0162 C   0  0  0  0  0  0  0  0  0  0  0  0
    2.9007    0.9158    0.3826 C   0  0  0  0  0  0  0  0  0  0  0  0
    2.5082   -0.0502   -0.6909 C   0  0  0  0  0  0  0  0  0  0  0  0
   -3.0345   -1.3986    1.1243 H   0  0  0  0  0  0  0  0  0  0  0  0
   -2.7552   -2.6722   -0.1352 H   0  0  0  0  0  0  0  0  0  0  0  0
   -3.5387   -1.0486   -0.5443 H   0  0  0  0  0  0  0  0  0  0  0  0
   -0.8036   -1.5107   -0.9403 H   0  0  0  0  0  0  0  0  0  0  0  0
   -2.4572    1.0703   -0.0632 H   0  0  0  0  0  0  0  0  0  0  0  0
   -1.0204    2.0097   -1.6265 H   0  0  0  0  0  0  0  0  0  0  0  0
   -1.3983   -0.1409    1.8245 H   0  0  0  0  0  0  0  0  0  0  0  0
    0.7455    0.7558    1.9773 H   0  0  0  0  0  0  0  0  0  0  0  0
    1.1023   -0.8691    1.3075 H   0  0  0  0  0  0  0  0  0  0  0  0
    1.0899    1.7222   -0.5017 H   0  0  0  0  0  0  0  0  0  0  0  0
    3.2373    0.4805    1.3349 H   0  0  0  0  0  0  0  0  0  0  0  0
    3.4797    1.7693    0.0353 H   0  0  0  0  0  0  0  0  0  0  0  0
    2.6731    0.2022   -1.7566 H   0  0  0  0  0  0  0  0  0  0  0  0
    2.5420   -1.1317   -0.4611 H   0  0  0  0  0  0  0  0  0  0  0  0
  1  2  1  0
  2  3  1  0
  3  4  1  0
  3  5  1  0
  5  6  1  0
  6  7  1  0
  7  8  1  0
  8  9  1  0
  5  2  1  0
  9  7  1  0
  1 10  1  0
  1 11  1  0
  1 12  1  0
  2 13  1  0
  3 14  1  0
  4 15  1  0
  5 16  1  0
  6 17  1  0
  6 18  1  0
  7 19  1  0
  8 20  1  0
  8 21  1  0
  9 22  1  0
  9 23  1  0
M  END
