
     RDKit          3D

 22 22  0  0  0  0  0  0  0  0999 V2000
    2.6535   -0.2365   -0.1536 C   0  0  0  0  0  0  0  0  0  0  0  0
    1.3666   -0.0309   -0.8803 C   0  0  0  0  0  0  0  0  0  0  0  0
    0.4361   -1.2516   -0.8111 C   0  0  0  0  0  0  0  0  0  0  0  0
    0.0661    0.0759   -0.2006 C   0  0  0  0  0  0  0  0  0  0  0  0
   -0.0207    0.1728    1.3085 C   0  0  0  0  0  0  0  0  0  0  0  0
   -1.0262    0.8104   -0.9128 C   0  0  0  0  0  0  0  0  0  0  0  0
   -2.2559    0.7769   -0.0285 C   0  0  0  0  0  0  0  0  0  0  0  0
   -2.6514   -0.5356    0.2035 O   0  0  0  0  0  0  0  0  0  0  0  0
    3.3593   -0.7365   -0.8816 H   0  0  0  0  0  0  0  0  0  0  0  0
    2.5992   -0.9072    0.7101 H   0  0  0  0  0  0  0  0  0  0  0  0
    3.1143    0.7262    0.1688 H   0  0  0  0  0  0  0  0  0  0  0  0
    1.4798    0.4858   -1.8544 H   0  0  0  0  0  0  0  0  0  0  0  0
    0.0490   -1.5414   -1.7928 H   0  0  0  0  0  0  0  0  0  0  0  0
    0.6582   -2.0343   -0.0790 H   0  0  0  0  0  0  0  0  0  0  0  0
    0.9327   -0.2527    1.6877 H   0  0  0  0  0  0  0  0  0  0  0  0
   -0.8303   -0.5059    1.6299 H   0  0  0  0  0  0  0  0  0  0  0  0
   -0.1658    1.2133    1.6153 H   0  0  0  0  0  0  0  0  0  0  0  0
   -0.7347    1.8864   -1.1053 H   0  0  0  0  0  0  0  0  0  0  0  0
   -1.2063    0.3468   -1.8952 H   0  0  0  0  0  0  0  0  0  0  0  0
   -2.0802    1.2507    0.9542 H   0  0  0  0  0  0  0  0  0  0  0  0
   -3.0839    1.3637   -0.4974 H   0  0  0  0  0  0  0  0  0  0  0  0
   -2.6598   -1.0764   -0.6205 H   0  0  0  0  0  0  0  0  0  0  0  0
  1  2  1  0
  2  3  1  0
  3  4  1  0
  4  5  1  0
  4  6  1  0
  6  7  1  0
  7  8  1  0
  4  2  1  0
  1  9  1  0
  1 10  1  0
  1 11  1  0
  2 12  1  0
  3 13  1  0
  3 14  1  0
  5 15  1  0
  5 16  1  0
  5 17  1  0
  6 18  1  0
  6 19  1  0
  7 20  1  0
  7 21  1  0
  8 22  1  0
M  END
