
     RDKit          3D

 21 22  0  0  0  0  0  0  0  0999 V2000
    2.7416    0.0345    0.0293 C   0  0  0  0  0  0  0  0  0  0  0  0
    1.2709   -0.0743    0.4119 C   0  0  0  0  0  0  0  0  0  0  0  0
    0.6264   -1.1886   -0.3786 C   0  0  0  0  0  0  0  0  0  0  0  0
   -0.6616   -1.3726   -0.6035 C   0  0  0  0  0  0  0  0  0  0  0  0
   -1.7977   -0.4392   -0.2759 C   0  0  0  0  0  0  0  0  0  0  0  0
   -1.3926    0.2163    1.0495 C   0  0  0  0  0  0  0  0  0  0  0  0
   -0.6622    1.2307    0.2828 C   0  0  0  0  0  0  0  0  0  0  0  0
   -1.5499    0.8941   -0.9250 C   0  0  0  0  0  0  0  0  0  0  0  0
    0.6511    1.0819    0.0594 O   0  0  0  0  0  0  0  0  0  0  0  0
    3.3971   -0.4675    0.7877 H   0  0  0  0  0  0  0  0  0  0  0  0
    3.0766    1.1007    0.0144 H   0  0  0  0  0  0  0  0  0  0  0  0
    2.9637   -0.4196   -0.9309 H   0  0  0  0  0  0  0  0  0  0  0  0
    1.2563   -0.3183    1.4843 H   0  0  0  0  0  0  0  0  0  0  0  0
    1.3408   -1.9038   -0.7958 H   0  0  0  0  0  0  0  0  0  0  0  0
   -0.9509   -2.3175   -1.0878 H   0  0  0  0  0  0  0  0  0  0  0  0
   -2.7903   -0.8615   -0.3166 H   0  0  0  0  0  0  0  0  0  0  0  0
   -0.8480   -0.4523    1.7279 H   0  0  0  0  0  0  0  0  0  0  0  0
   -2.2990    0.6022    1.5629 H   0  0  0  0  0  0  0  0  0  0  0  0
   -0.8919    2.2675    0.6701 H   0  0  0  0  0  0  0  0  0  0  0  0
   -1.0094    0.8822   -1.8787 H   0  0  0  0  0  0  0  0  0  0  0  0
   -2.4708    1.5053   -0.8873 H   0  0  0  0  0  0  0  0  0  0  0  0
  1  2  1  0
  2  3  1  0
  3  4  2  0
  4  5  1  0
  5  6  1  0
  6  7  1  0
  7  8  1  0
  7  9  1  0
  9  2  1  0
  8  5  1  0
  1 10  1  0
  1 11  1  0
  1 12  1  0
  2 13  1  0
  3 14  1  0
  4 15  1  0
  5 16  1  0
  6 17  1  0
  6 18  1  0
  7 19  1  0
  8 20  1  0
  8 21  1  0
M  END
