
     RDKit          3D

 18 18  0  0  0  0  0  0  0  0999 V2000
    1.2353    1.2811    0.3673 C   0  0  0  0  0  0  0  0  0  0  0  0
    0.7573   -0.1256    0.5830 C   0  0  0  0  0  0  0  0  0  0  0  0
    1.1413   -0.9509   -0.6587 C   0  0  0  0  0  0  0  0  0  0  0  0
   -0.0997   -0.3221   -1.2561 C   0  0  0  0  0  0  0  0  0  0  0  0
   -0.4297    0.0632   -2.3662 O   0  0  0  0  0  0  0  0  0  0  0  0
   -0.6395   -0.4240    0.1214 C   0  0  0  0  0  0  0  0  0  0  0  0
   -1.7153    0.4966    0.5187 C   0  0  0  0  0  0  0  0  0  0  0  0
   -0.9676   -1.7508    0.3968 O   0  0  0  0  0  0  0  0  0  0  0  0
    0.5518    2.0553    0.7259 H   0  0  0  0  0  0  0  0  0  0  0  0
    1.4477    1.5071   -0.7021 H   0  0  0  0  0  0  0  0  0  0  0  0
    2.2339    1.3584    0.8822 H   0  0  0  0  0  0  0  0  0  0  0  0
    1.0632   -0.6019    1.5299 H   0  0  0  0  0  0  0  0  0  0  0  0
    0.9389   -2.0292   -0.5202 H   0  0  0  0  0  0  0  0  0  0  0  0
    2.0752   -0.6546   -1.1119 H   0  0  0  0  0  0  0  0  0  0  0  0
   -1.4219    1.5396    0.7134 H   0  0  0  0  0  0  0  0  0  0  0  0
   -2.1724    0.1158    1.4575 H   0  0  0  0  0  0  0  0  0  0  0  0
   -2.5269    0.5104   -0.2620 H   0  0  0  0  0  0  0  0  0  0  0  0
   -1.4716   -2.0686   -0.4189 H   0  0  0  0  0  0  0  0  0  0  0  0
  1  2  1  0
  2  3  1  0
  3  4  1  0
  4  5  2  0
  4  6  1  0
  6  7  1  0
  6  8  1  0
  6  2  1  0
  1  9  1  0
  1 10  1  0
  1 11  1  0
  2 12  1  0
  3 13  1  0
  3 14  1  0
  7 15  1  0
  7 16  1  0
  7 17  1  0
  8 18  1  0
M  END
