
     RDKit          3D

 20 21  0  0  0  0  0  0  0  0999 V2000
   -2.2442    0.8602    0.2333 C   0  0  0  0  0  0  0  0  0  0  0  0
   -1.5332    0.2395   -0.9376 C   0  0  0  0  0  0  0  0  0  0  0  0
   -1.2304   -1.2286   -0.9275 C   0  0  0  0  0  0  0  0  0  0  0  0
   -0.1258   -0.1908   -0.8668 C   0  0  0  0  0  0  0  0  0  0  0  0
    0.6503   -0.1917    0.4095 C   0  0  0  0  0  0  0  0  0  0  0  0
    2.0574   -0.6774    0.1951 C   0  0  0  0  0  0  0  0  0  0  0  0
    2.3377    0.8094    0.2015 C   0  0  0  0  0  0  0  0  0  0  0  0
    1.1058    1.0707    0.8254 O   0  0  0  0  0  0  0  0  0  0  0  0
   -2.4412    1.9266   -0.0214 H   0  0  0  0  0  0  0  0  0  0  0  0
   -1.6250    0.8822    1.1588 H   0  0  0  0  0  0  0  0  0  0  0  0
   -3.2148    0.3631    0.4541 H   0  0  0  0  0  0  0  0  0  0  0  0
   -1.8903    0.6151   -1.9188 H   0  0  0  0  0  0  0  0  0  0  0  0
   -1.2951   -1.8268   -1.8408 H   0  0  0  0  0  0  0  0  0  0  0  0
   -1.4968   -1.7734   -0.0016 H   0  0  0  0  0  0  0  0  0  0  0  0
    0.5015   -0.0427   -1.7830 H   0  0  0  0  0  0  0  0  0  0  0  0
    0.1700   -0.7102    1.2660 H   0  0  0  0  0  0  0  0  0  0  0  0
    2.4796   -1.2481    1.0379 H   0  0  0  0  0  0  0  0  0  0  0  0
    2.2465   -1.1578   -0.7878 H   0  0  0  0  0  0  0  0  0  0  0  0
    3.2178    1.0203    0.8376 H   0  0  0  0  0  0  0  0  0  0  0  0
    2.3301    1.2604   -0.8009 H   0  0  0  0  0  0  0  0  0  0  0  0
  1  2  1  0
  2  3  1  0
  3  4  1  0
  4  5  1  0
  5  6  1  0
  6  7  1  0
  7  8  1  0
  4  2  1  0
  8  5  1  0
  1  9  1  0
  1 10  1  0
  1 11  1  0
  2 12  1  0
  3 13  1  0
  3 14  1  0
  4 15  1  0
  5 16  1  0
  6 17  1  0
  6 18  1  0
  7 19  1  0
  7 20  1  0
M  END
