
     RDKit          3D

 19 20  0  0  0  0  0  0  0  0999 V2000
   -1.8300    0.8389    0.2169 C   0  0  0  0  0  0  0  0  0  0  0  0
   -0.8731    0.1717   -0.7107 C   0  0  0  0  0  0  0  0  0  0  0  0
   -1.1367   -1.2768   -0.9309 C   0  0  0  0  0  0  0  0  0  0  0  0
   -2.1256   -1.8875   -1.2859 O   0  0  0  0  0  0  0  0  0  0  0  0
    0.2547   -1.5902   -0.5459 C   0  0  0  0  0  0  0  0  0  0  0  0
    0.4825   -0.1411   -0.2264 C   0  0  0  0  0  0  0  0  0  0  0  0
    0.8995    0.2091    1.1311 C   0  0  0  0  0  0  0  0  0  0  0  0
    2.0205    0.9020    0.3731 C   0  0  0  0  0  0  0  0  0  0  0  0
    1.5500    0.4631   -0.8468 O   0  0  0  0  0  0  0  0  0  0  0  0
   -1.3649    1.7115    0.7127 H   0  0  0  0  0  0  0  0  0  0  0  0
   -2.6942    1.2019   -0.4007 H   0  0  0  0  0  0  0  0  0  0  0  0
   -2.2091    0.0824    0.9268 H   0  0  0  0  0  0  0  0  0  0  0  0
   -0.8257    0.6866   -1.7136 H   0  0  0  0  0  0  0  0  0  0  0  0
    0.8377   -1.9074   -1.4386 H   0  0  0  0  0  0  0  0  0  0  0  0
    0.3032   -2.2924    0.2837 H   0  0  0  0  0  0  0  0  0  0  0  0
    1.3178   -0.6392    1.6955 H   0  0  0  0  0  0  0  0  0  0  0  0
    0.3453    0.9390    1.7155 H   0  0  0  0  0  0  0  0  0  0  0  0
    2.0103    2.0147    0.4502 H   0  0  0  0  0  0  0  0  0  0  0  0
    3.0379    0.5137    0.5938 H   0  0  0  0  0  0  0  0  0  0  0  0
  1  2  1  0
  2  3  1  0
  3  4  2  0
  3  5  1  0
  5  6  1  0
  6  7  1  0
  7  8  1  0
  8  9  1  0
  6  2  1  0
  9  6  1  0
  1 10  1  0
  1 11  1  0
  1 12  1  0
  2 13  1  0
  5 14  1  0
  5 15  1  0
  7 16  1  0
  7 17  1  0
  8 18  1  0
  8 19  1  0
M  END
