
     RDKit          3D

 21 22  0  0  0  0  0  0  0  0999 V2000
   -2.1578    0.4960   -0.0812 C   0  0  0  0  0  0  0  0  0  0  0  0
   -0.7922    0.2295    0.4889 C   0  0  0  0  0  0  0  0  0  0  0  0
   -0.5156   -1.2338    0.7077 C   0  0  0  0  0  0  0  0  0  0  0  0
    0.8571   -1.5190    0.1690 C   0  0  0  0  0  0  0  0  0  0  0  0
    1.1844   -0.3932   -0.7701 C   0  0  0  0  0  0  0  0  0  0  0  0
    2.3075    0.3611   -0.4311 O   0  0  0  0  0  0  0  0  0  0  0  0
    1.5425    1.0868    0.4641 C   0  0  0  0  0  0  0  0  0  0  0  0
    0.3269    0.7561   -0.3464 C   0  0  0  0  0  0  0  0  0  0  0  0
    0.0030    1.6176   -1.3682 O   0  0  0  0  0  0  0  0  0  0  0  0
   -2.5486   -0.3586   -0.6487 H   0  0  0  0  0  0  0  0  0  0  0  0
   -2.0760    1.3942   -0.7473 H   0  0  0  0  0  0  0  0  0  0  0  0
   -2.8677    0.7952    0.7203 H   0  0  0  0  0  0  0  0  0  0  0  0
   -0.7482    0.7364    1.4914 H   0  0  0  0  0  0  0  0  0  0  0  0
   -1.2736   -1.8488    0.1751 H   0  0  0  0  0  0  0  0  0  0  0  0
   -0.5596   -1.4909    1.7943 H   0  0  0  0  0  0  0  0  0  0  0  0
    0.8088   -2.4499   -0.4468 H   0  0  0  0  0  0  0  0  0  0  0  0
    1.6275   -1.6477    0.9385 H   0  0  0  0  0  0  0  0  0  0  0  0
    1.1920   -0.6368   -1.8477 H   0  0  0  0  0  0  0  0  0  0  0  0
    1.5222    0.6040    1.4508 H   0  0  0  0  0  0  0  0  0  0  0  0
    1.7094    2.1703    0.5013 H   0  0  0  0  0  0  0  0  0  0  0  0
    0.4578    1.3315   -2.2139 H   0  0  0  0  0  0  0  0  0  0  0  0
  1  2  1  0
  2  3  1  0
  3  4  1  0
  4  5  1  0
  5  6  1  0
  6  7  1  0
  7  8  1  0
  8  9  1  0
  8  2  1  0
  8  5  1  0
  1 10  1  0
  1 11  1  0
  1 12  1  0
  2 13  1  0
  3 14  1  0
  3 15  1  0
  4 16  1  0
  4 17  1  0
  5 18  1  0
  7 19  1  0
  7 20  1  0
  9 21  1  0
M  END
