
     RDKit          3D

 23 23  0  0  0  0  0  0  0  0999 V2000
    2.6510   -0.3815   -0.1084 C   0  0  0  0  0  0  0  0  0  0  0  0
    1.2293    0.0552   -0.3905 C   0  0  0  0  0  0  0  0  0  0  0  0
    0.9214    1.2288    0.4138 C   0  0  0  0  0  0  0  0  0  0  0  0
   -0.2420    1.8012    0.6573 C   0  0  0  0  0  0  0  0  0  0  0  0
   -1.5537    1.3836    0.1626 C   0  0  0  0  0  0  0  0  0  0  0  0
   -1.8358   -0.0974    0.3880 C   0  0  0  0  0  0  0  0  0  0  0  0
   -1.0897   -0.8622   -0.6436 C   0  0  0  0  0  0  0  0  0  0  0  0
   -1.6731   -2.1088   -0.9266 O   0  0  0  0  0  0  0  0  0  0  0  0
    0.3382   -1.1287   -0.1563 C   0  0  0  0  0  0  0  0  0  0  0  0
    3.3482   -0.1039   -0.9326 H   0  0  0  0  0  0  0  0  0  0  0  0
    3.0659    0.1487    0.7993 H   0  0  0  0  0  0  0  0  0  0  0  0
    2.7297   -1.4591    0.1298 H   0  0  0  0  0  0  0  0  0  0  0  0
    1.1949    0.2596   -1.5010 H   0  0  0  0  0  0  0  0  0  0  0  0
    1.7556    1.7253    0.8954 H   0  0  0  0  0  0  0  0  0  0  0  0
   -0.2373    2.6943    1.3033 H   0  0  0  0  0  0  0  0  0  0  0  0
   -2.3276    1.9218    0.7478 H   0  0  0  0  0  0  0  0  0  0  0  0
   -1.7116    1.6567   -0.9004 H   0  0  0  0  0  0  0  0  0  0  0  0
   -1.4174   -0.3311    1.3976 H   0  0  0  0  0  0  0  0  0  0  0  0
   -2.9092   -0.3061    0.4412 H   0  0  0  0  0  0  0  0  0  0  0  0
   -0.9556   -0.2830   -1.6020 H   0  0  0  0  0  0  0  0  0  0  0  0
   -2.3438   -2.3690   -0.2456 H   0  0  0  0  0  0  0  0  0  0  0  0
    0.3482   -1.4897    0.8775 H   0  0  0  0  0  0  0  0  0  0  0  0
    0.7143   -1.9546   -0.8067 H   0  0  0  0  0  0  0  0  0  0  0  0
  1  2  1  0
  2  3  1  0
  3  4  2  0
  4  5  1  0
  5  6  1  0
  6  7  1  0
  7  8  1  0
  7  9  1  0
  9  2  1  0
  1 10  1  0
  1 11  1  0
  1 12  1  0
  2 13  1  0
  3 14  1  0
  4 15  1  0
  5 16  1  0
  5 17  1  0
  6 18  1  0
  6 19  1  0
  7 20  1  0
  8 21  1  0
  9 22  1  0
  9 23  1  0
M  END
