
     RDKit          3D

 21 22  0  0  0  0  0  0  0  0999 V2000
   -2.6618    0.6062    0.4185 C   0  0  0  0  0  0  0  0  0  0  0  0
   -1.3707    0.3353   -0.3456 C   0  0  0  0  0  0  0  0  0  0  0  0
   -0.8957   -1.0260    0.0425 C   0  0  0  0  0  0  0  0  0  0  0  0
    0.5515   -1.2828   -0.2969 C   0  0  0  0  0  0  0  0  0  0  0  0
    1.3642   -1.4060    0.8436 O   0  0  0  0  0  0  0  0  0  0  0  0
    1.3944   -0.2060    0.0018 C   0  0  0  0  0  0  0  0  0  0  0  0
    2.7813    0.0503   -0.4967 C   0  0  0  0  0  0  0  0  0  0  0  0
    0.6438    0.9800    0.5922 C   0  0  0  0  0  0  0  0  0  0  0  0
   -0.4551    1.3380   -0.1598 O   0  0  0  0  0  0  0  0  0  0  0  0
   -3.4800    0.9355   -0.2554 H   0  0  0  0  0  0  0  0  0  0  0  0
   -2.5233    1.4055    1.1634 H   0  0  0  0  0  0  0  0  0  0  0  0
   -3.0356   -0.3083    0.9271 H   0  0  0  0  0  0  0  0  0  0  0  0
   -1.6515    0.3418   -1.4331 H   0  0  0  0  0  0  0  0  0  0  0  0
   -1.1139   -1.1740    1.1281 H   0  0  0  0  0  0  0  0  0  0  0  0
   -1.5147   -1.7871   -0.4888 H   0  0  0  0  0  0  0  0  0  0  0  0
    0.7553   -1.9530   -1.1636 H   0  0  0  0  0  0  0  0  0  0  0  0
    3.1920    0.9026    0.1201 H   0  0  0  0  0  0  0  0  0  0  0  0
    2.8137    0.3734   -1.5479 H   0  0  0  0  0  0  0  0  0  0  0  0
    3.4814   -0.7853   -0.3412 H   0  0  0  0  0  0  0  0  0  0  0  0
    1.3304    1.8681    0.5997 H   0  0  0  0  0  0  0  0  0  0  0  0
    0.3943    0.7917    1.6540 H   0  0  0  0  0  0  0  0  0  0  0  0
  1  2  1  0
  2  3  1  0
  3  4  1  0
  4  5  1  0
  5  6  1  0
  6  7  1  0
  6  8  1  0
  8  9  1  0
  9  2  1  0
  6  4  1  0
  1 10  1  0
  1 11  1  0
  1 12  1  0
  2 13  1  0
  3 14  1  0
  3 15  1  0
  4 16  1  0
  7 17  1  0
  7 18  1  0
  7 19  1  0
  8 20  1  0
  8 21  1  0
M  END
