
     RDKit          3D

 18 19  0  0  0  0  0  0  0  0999 V2000
    2.0368   -0.3561    0.0306 C   0  0  0  0  0  0  0  0  0  0  0  0
    0.6748   -0.2133   -0.5690 C   0  0  0  0  0  0  0  0  0  0  0  0
   -0.2126   -1.3701   -0.0880 C   0  0  0  0  0  0  0  0  0  0  0  0
   -1.3423   -0.3372    0.0040 C   0  0  0  0  0  0  0  0  0  0  0  0
   -2.1450   -0.4470    1.1058 O   0  0  0  0  0  0  0  0  0  0  0  0
   -0.2733    0.7243    0.0560 C   0  0  0  0  0  0  0  0  0  0  0  0
   -0.4968    2.0571   -0.0346 C   0  0  0  0  0  0  0  0  0  0  0  0
   -0.0169    1.4241    1.1977 O   0  0  0  0  0  0  0  0  0  0  0  0
    2.5905   -1.1125   -0.5730 H   0  0  0  0  0  0  0  0  0  0  0  0
    2.0056   -0.7609    1.0643 H   0  0  0  0  0  0  0  0  0  0  0  0
    2.6289    0.5791   -0.0450 H   0  0  0  0  0  0  0  0  0  0  0  0
    0.7050   -0.1311   -1.6749 H   0  0  0  0  0  0  0  0  0  0  0  0
   -0.4026   -2.1447   -0.8273 H   0  0  0  0  0  0  0  0  0  0  0  0
    0.0868   -1.6921    0.9301 H   0  0  0  0  0  0  0  0  0  0  0  0
   -1.9210   -0.2381   -0.9437 H   0  0  0  0  0  0  0  0  0  0  0  0
   -2.6316   -1.3235    1.0337 H   0  0  0  0  0  0  0  0  0  0  0  0
   -1.5141    2.5173    0.0735 H   0  0  0  0  0  0  0  0  0  0  0  0
    0.2279    2.8245   -0.4331 H   0  0  0  0  0  0  0  0  0  0  0  0
  1  2  1  0
  2  3  1  0
  3  4  1  0
  4  5  1  0
  4  6  1  0
  6  7  1  0
  7  8  1  0
  6  2  1  0
  8  6  1  0
  1  9  1  0
  1 10  1  0
  1 11  1  0
  2 12  1  0
  3 13  1  0
  3 14  1  0
  4 15  1  0
  5 16  1  0
  7 17  1  0
  7 18  1  0
M  END
