
     RDKit          3D

 19 20  0  0  0  0  0  0  0  0999 V2000
    2.5792   -0.7714   -0.0990 C   0  0  0  0  0  0  0  0  0  0  0  0
    1.4664    0.2112   -0.1960 C   0  0  0  0  0  0  0  0  0  0  0  0
    1.5549    1.5224   -0.5634 C   0  0  0  0  0  0  0  0  0  0  0  0
    0.3586    2.0154   -0.5155 O   0  0  0  0  0  0  0  0  0  0  0  0
   -0.5261    1.1156   -0.1389 C   0  0  0  0  0  0  0  0  0  0  0  0
    0.1375   -0.0803    0.0836 C   0  0  0  0  0  0  0  0  0  0  0  0
   -0.8503   -1.1117    0.5115 C   0  0  0  0  0  0  0  0  0  0  0  0
   -2.1382   -0.5673   -0.0388 C   0  0  0  0  0  0  0  0  0  0  0  0
   -1.9670    0.9235    0.1309 C   0  0  0  0  0  0  0  0  0  0  0  0
    2.2027   -1.8065   -0.1773 H   0  0  0  0  0  0  0  0  0  0  0  0
    3.0096   -0.6881    0.9374 H   0  0  0  0  0  0  0  0  0  0  0  0
    3.3849   -0.5355   -0.8060 H   0  0  0  0  0  0  0  0  0  0  0  0
    2.4634    2.0543   -0.8444 H   0  0  0  0  0  0  0  0  0  0  0  0
   -0.5816   -2.0754    0.0589 H   0  0  0  0  0  0  0  0  0  0  0  0
   -0.9426   -1.1437    1.6180 H   0  0  0  0  0  0  0  0  0  0  0  0
   -3.0207   -0.8619    0.5730 H   0  0  0  0  0  0  0  0  0  0  0  0
   -2.3140   -0.8491   -1.0988 H   0  0  0  0  0  0  0  0  0  0  0  0
   -2.2436    1.1667    1.1762 H   0  0  0  0  0  0  0  0  0  0  0  0
   -2.5729    1.4818   -0.6114 H   0  0  0  0  0  0  0  0  0  0  0  0
  1  2  1  0
  2  3  2  0
  3  4  1  0
  4  5  1  0
  5  6  2  0
  6  7  1  0
  7  8  1  0
  8  9  1  0
  6  2  1  0
  9  5  1  0
  1 10  1  0
  1 11  1  0
  1 12  1  0
  3 13  1  0
  7 14  1  0
  7 15  1  0
  8 16  1  0
  8 17  1  0
  9 18  1  0
  9 19  1  0
M  END
