
     RDKit          3D

 21 22  0  0  0  0  0  0  0  0999 V2000
    2.4127   -0.0740   -0.0068 C   0  0  0  0  0  0  0  0  0  0  0  0
    1.0070    0.2802   -0.4354 C   0  0  0  0  0  0  0  0  0  0  0  0
    0.4519    1.4349    0.3694 C   0  0  0  0  0  0  0  0  0  0  0  0
   -0.8280    1.1422    0.8779 O   0  0  0  0  0  0  0  0  0  0  0  0
   -1.6998    0.7402   -0.1345 C   0  0  0  0  0  0  0  0  0  0  0  0
   -2.4547   -0.5968    0.0969 C   0  0  0  0  0  0  0  0  0  0  0  0
   -1.2604   -0.5139   -0.7968 C   0  0  0  0  0  0  0  0  0  0  0  0
    0.0938   -0.9052   -0.1918 C   0  0  0  0  0  0  0  0  0  0  0  0
   -0.0818   -0.9853    1.2050 O   0  0  0  0  0  0  0  0  0  0  0  0
    2.3532   -0.3343    1.0795 H   0  0  0  0  0  0  0  0  0  0  0  0
    2.7428   -0.9461   -0.5839 H   0  0  0  0  0  0  0  0  0  0  0  0
    3.0939    0.7752   -0.1756 H   0  0  0  0  0  0  0  0  0  0  0  0
    1.0498    0.5132   -1.5296 H   0  0  0  0  0  0  0  0  0  0  0  0
    0.4589    2.3876   -0.1668 H   0  0  0  0  0  0  0  0  0  0  0  0
    1.1124    1.5580    1.2637 H   0  0  0  0  0  0  0  0  0  0  0  0
   -2.3134    1.4944   -0.6220 H   0  0  0  0  0  0  0  0  0  0  0  0
   -2.2860   -1.0562    1.0850 H   0  0  0  0  0  0  0  0  0  0  0  0
   -3.4135   -0.7274   -0.4263 H   0  0  0  0  0  0  0  0  0  0  0  0
   -1.3396   -0.6049   -1.8844 H   0  0  0  0  0  0  0  0  0  0  0  0
    0.4745   -1.8432   -0.5961 H   0  0  0  0  0  0  0  0  0  0  0  0
    0.4264   -1.7386    1.5726 H   0  0  0  0  0  0  0  0  0  0  0  0
  1  2  1  0
  2  3  1  0
  3  4  1  0
  4  5  1  0
  5  6  1  0
  6  7  1  0
  7  8  1  0
  8  9  1  0
  8  2  1  0
  7  5  1  0
  1 10  1  0
  1 11  1  0
  1 12  1  0
  2 13  1  0
  3 14  1  0
  3 15  1  0
  5 16  1  0
  6 17  1  0
  6 18  1  0
  7 19  1  0
  8 20  1  0
  9 21  1  0
M  END
