
     RDKit          3D

 21 22  0  0  0  0  0  0  0  0999 V2000
    1.6168   -0.2592    1.0473 C   0  0  0  0  0  0  0  0  0  0  0  0
    0.8563   -0.6203   -0.1766 C   0  0  0  0  0  0  0  0  0  0  0  0
    0.7291    0.4651   -1.2360 C   0  0  0  0  0  0  0  0  0  0  0  0
    0.2675    1.6863   -0.4824 C   0  0  0  0  0  0  0  0  0  0  0  0
   -0.7945    1.0150    0.4139 C   0  0  0  0  0  0  0  0  0  0  0  0
   -0.6652   -0.3990   -0.0906 C   0  0  0  0  0  0  0  0  0  0  0  0
   -1.4816   -1.4540    0.4506 C   0  0  0  0  0  0  0  0  0  0  0  0
   -0.5631   -0.1804   -1.5458 C   0  0  0  0  0  0  0  0  0  0  0  0
   -1.2156   -0.4149   -2.5104 O   0  0  0  0  0  0  0  0  0  0  0  0
    2.3227   -1.1071    1.2888 H   0  0  0  0  0  0  0  0  0  0  0  0
    2.1512    0.6872    1.0215 H   0  0  0  0  0  0  0  0  0  0  0  0
    0.8986   -0.2205    1.9180 H   0  0  0  0  0  0  0  0  0  0  0  0
    1.0850   -1.5869   -0.6487 H   0  0  0  0  0  0  0  0  0  0  0  0
    1.4820    0.5472   -1.9772 H   0  0  0  0  0  0  0  0  0  0  0  0
    1.0283    2.1465    0.1463 H   0  0  0  0  0  0  0  0  0  0  0  0
   -0.2127    2.4294   -1.1416 H   0  0  0  0  0  0  0  0  0  0  0  0
   -1.7864    1.4391    0.1359 H   0  0  0  0  0  0  0  0  0  0  0  0
   -0.5582    1.1362    1.4765 H   0  0  0  0  0  0  0  0  0  0  0  0
   -0.9437   -2.0344    1.2552 H   0  0  0  0  0  0  0  0  0  0  0  0
   -2.3938   -1.0588    0.9358 H   0  0  0  0  0  0  0  0  0  0  0  0
   -1.8228   -2.2164   -0.2804 H   0  0  0  0  0  0  0  0  0  0  0  0
  1  2  1  0
  2  3  1  0
  3  4  1  0
  4  5  1  0
  5  6  1  0
  6  7  1  0
  6  8  1  0
  8  9  2  0
  6  2  1  0
  8  3  1  0
  1 10  1  0
  1 11  1  0
  1 12  1  0
  2 13  1  0
  3 14  1  0
  4 15  1  0
  4 16  1  0
  5 17  1  0
  5 18  1  0
  7 19  1  0
  7 20  1  0
  7 21  1  0
M  END
