
     RDKit          3D

 21 22  0  0  0  0  0  0  0  0999 V2000
   -2.1072    0.8692    0.2641 C   0  0  0  0  0  0  0  0  0  0  0  0
   -0.7198    0.3810    0.3631 C   0  0  0  0  0  0  0  0  0  0  0  0
    0.1561    0.8683   -0.7636 C   0  0  0  0  0  0  0  0  0  0  0  0
    1.5594    0.2793   -0.6988 C   0  0  0  0  0  0  0  0  0  0  0  0
    2.2989    0.7961    0.3382 O   0  0  0  0  0  0  0  0  0  0  0  0
    1.3863   -1.1846   -0.6876 C   0  0  0  0  0  0  0  0  0  0  0  0
    1.7003   -2.1444    0.1427 O   0  0  0  0  0  0  0  0  0  0  0  0
    0.7905   -1.4064    0.7294 C   0  0  0  0  0  0  0  0  0  0  0  0
   -0.6368   -1.1499    0.4949 C   0  0  0  0  0  0  0  0  0  0  0  0
   -2.4473    1.3475    1.2304 H   0  0  0  0  0  0  0  0  0  0  0  0
   -2.8525    0.0738    0.0663 H   0  0  0  0  0  0  0  0  0  0  0  0
   -2.2053    1.7041   -0.4902 H   0  0  0  0  0  0  0  0  0  0  0  0
   -0.2575    0.7661    1.3090 H   0  0  0  0  0  0  0  0  0  0  0  0
   -0.2857    0.4678   -1.7228 H   0  0  0  0  0  0  0  0  0  0  0  0
    0.1597    1.9519   -0.7837 H   0  0  0  0  0  0  0  0  0  0  0  0
    2.0550    0.5749   -1.6565 H   0  0  0  0  0  0  0  0  0  0  0  0
    1.7824    1.1362    1.0948 H   0  0  0  0  0  0  0  0  0  0  0  0
    0.7517   -1.5347   -1.5570 H   0  0  0  0  0  0  0  0  0  0  0  0
    1.2065   -0.7655    1.5569 H   0  0  0  0  0  0  0  0  0  0  0  0
   -1.3368   -1.4748    1.2614 H   0  0  0  0  0  0  0  0  0  0  0  0
   -0.9980   -1.5557   -0.4910 H   0  0  0  0  0  0  0  0  0  0  0  0
  1  2  1  0
  2  3  1  0
  3  4  1  0
  4  5  1  0
  4  6  1  0
  6  7  1  0
  7  8  1  0
  8  9  1  0
  9  2  1  0
  8  6  1  0
  1 10  1  0
  1 11  1  0
  1 12  1  0
  2 13  1  0
  3 14  1  0
  3 15  1  0
  4 16  1  0
  5 17  1  0
  6 18  1  0
  8 19  1  0
  9 20  1  0
  9 21  1  0
M  END
