
     RDKit          3D

 23 23  0  0  0  0  0  0  0  0999 V2000
    2.7013   -0.7770   -0.4180 C   0  0  0  0  0  0  0  0  0  0  0  0
    1.7841    0.3620   -0.0639 C   0  0  0  0  0  0  0  0  0  0  0  0
    1.0950    0.1497    1.2630 C   0  0  0  0  0  0  0  0  0  0  0  0
   -0.0007   -0.6526    0.9992 O   0  0  0  0  0  0  0  0  0  0  0  0
   -0.4139   -0.4381   -0.2814 C   0  0  0  0  0  0  0  0  0  0  0  0
   -1.7207    0.3282   -0.3854 C   0  0  0  0  0  0  0  0  0  0  0  0
   -2.8971   -0.4593    0.0955 C   0  0  0  0  0  0  0  0  0  0  0  0
   -1.6375    1.5747    0.1944 O   0  0  0  0  0  0  0  0  0  0  0  0
    0.6208    0.3289   -1.0253 C   0  0  0  0  0  0  0  0  0  0  0  0
    3.2475   -0.4652   -1.3478 H   0  0  0  0  0  0  0  0  0  0  0  0
    3.3878   -1.0710    0.3733 H   0  0  0  0  0  0  0  0  0  0  0  0
    2.0916   -1.6597   -0.7331 H   0  0  0  0  0  0  0  0  0  0  0  0
    2.2554    1.3467   -0.1147 H   0  0  0  0  0  0  0  0  0  0  0  0
    1.7537   -0.2246    2.0474 H   0  0  0  0  0  0  0  0  0  0  0  0
    0.6982    1.1462    1.5728 H   0  0  0  0  0  0  0  0  0  0  0  0
   -0.5834   -1.4371   -0.7582 H   0  0  0  0  0  0  0  0  0  0  0  0
   -1.8688    0.5005   -1.4920 H   0  0  0  0  0  0  0  0  0  0  0  0
   -3.5966   -0.7411   -0.7429 H   0  0  0  0  0  0  0  0  0  0  0  0
   -2.5938   -1.4273    0.5488 H   0  0  0  0  0  0  0  0  0  0  0  0
   -3.5313    0.1305    0.7985 H   0  0  0  0  0  0  0  0  0  0  0  0
   -2.0105    2.2957   -0.3831 H   0  0  0  0  0  0  0  0  0  0  0  0
    0.9016   -0.1757   -1.9851 H   0  0  0  0  0  0  0  0  0  0  0  0
    0.3171    1.3657   -1.2917 H   0  0  0  0  0  0  0  0  0  0  0  0
  1  2  1  0
  2  3  1  0
  3  4  1  0
  4  5  1  0
  5  6  1  0
  6  7  1  0
  6  8  1  0
  5  9  1  0
  9  2  1  0
  1 10  1  0
  1 11  1  0
  1 12  1  0
  2 13  1  0
  3 14  1  0
  3 15  1  0
  5 16  1  0
  6 17  1  0
  7 18  1  0
  7 19  1  0
  7 20  1  0
  8 21  1  0
  9 22  1  0
  9 23  1  0
M  END
