
     RDKit          3D

 18 18  0  0  0  0  0  0  0  0999 V2000
   -2.2900    0.4055    0.1472 C   0  0  0  0  0  0  0  0  0  0  0  0
   -0.8853    0.2969   -0.3000 C   0  0  0  0  0  0  0  0  0  0  0  0
    0.0251    1.3261    0.2308 C   0  0  0  0  0  0  0  0  0  0  0  0
    1.3214    1.0482    0.2969 C   0  0  0  0  0  0  0  0  0  0  0  0
    1.9408   -0.2102   -0.1169 C   0  0  0  0  0  0  0  0  0  0  0  0
    1.0113   -1.3434   -0.3334 C   0  0  0  0  0  0  0  0  0  0  0  0
   -0.3371   -1.0136    0.2141 C   0  0  0  0  0  0  0  0  0  0  0  0
   -0.9500   -1.6970    0.9849 O   0  0  0  0  0  0  0  0  0  0  0  0
   -2.4964    1.3192    0.7232 H   0  0  0  0  0  0  0  0  0  0  0  0
   -2.9464    0.3654   -0.7707 H   0  0  0  0  0  0  0  0  0  0  0  0
   -2.6487   -0.4513    0.7723 H   0  0  0  0  0  0  0  0  0  0  0  0
   -0.7829    0.3279   -1.4222 H   0  0  0  0  0  0  0  0  0  0  0  0
   -0.3841    2.2732    0.5500 H   0  0  0  0  0  0  0  0  0  0  0  0
    1.9751    1.8241    0.6927 H   0  0  0  0  0  0  0  0  0  0  0  0
    2.5653   -0.0951   -1.0402 H   0  0  0  0  0  0  0  0  0  0  0  0
    2.6731   -0.5112    0.6846 H   0  0  0  0  0  0  0  0  0  0  0  0
    0.8330   -1.5546   -1.4251 H   0  0  0  0  0  0  0  0  0  0  0  0
    1.3756   -2.3102    0.1118 H   0  0  0  0  0  0  0  0  0  0  0  0
  1  2  1  0
  2  3  1  0
  3  4  2  0
  4  5  1  0
  5  6  1  0
  6  7  1  0
  7  8  2  0
  7  2  1  0
  1  9  1  0
  1 10  1  0
  1 11  1  0
  2 12  1  0
  3 13  1  0
  4 14  1  0
  5 15  1  0
  5 16  1  0
  6 17  1  0
  6 18  1  0
M  END
