
     RDKit          3D

 21 22  0  0  0  0  0  0  0  0999 V2000
   -2.3918    0.2185    0.6373 C   0  0  0  0  0  0  0  0  0  0  0  0
   -1.5572    0.2622   -0.6084 C   0  0  0  0  0  0  0  0  0  0  0  0
   -0.5704   -0.8903   -0.6924 C   0  0  0  0  0  0  0  0  0  0  0  0
    0.7322   -0.3344   -0.2275 C   0  0  0  0  0  0  0  0  0  0  0  0
    1.5017   -1.1540    0.7871 C   0  0  0  0  0  0  0  0  0  0  0  0
    1.4851    0.6925   -0.9510 C   0  0  0  0  0  0  0  0  0  0  0  0
    2.7688    0.9617   -0.5194 O   0  0  0  0  0  0  0  0  0  0  0  0
    0.4154    1.0952    0.0371 C   0  0  0  0  0  0  0  0  0  0  0  0
   -0.7849    1.4036   -0.5743 O   0  0  0  0  0  0  0  0  0  0  0  0
   -3.4304    0.5792    0.4231 H   0  0  0  0  0  0  0  0  0  0  0  0
   -2.4403   -0.7588    1.1222 H   0  0  0  0  0  0  0  0  0  0  0  0
   -2.0003    0.9477    1.4025 H   0  0  0  0  0  0  0  0  0  0  0  0
   -2.2425    0.2361   -1.4951 H   0  0  0  0  0  0  0  0  0  0  0  0
   -0.5549   -1.3814   -1.6629 H   0  0  0  0  0  0  0  0  0  0  0  0
   -0.9170   -1.6388    0.0751 H   0  0  0  0  0  0  0  0  0  0  0  0
    2.5510   -0.7640    0.8885 H   0  0  0  0  0  0  0  0  0  0  0  0
    1.0121   -1.2117    1.7652 H   0  0  0  0  0  0  0  0  0  0  0  0
    1.6395   -2.1711    0.3141 H   0  0  0  0  0  0  0  0  0  0  0  0
    1.3314    0.8701   -2.0326 H   0  0  0  0  0  0  0  0  0  0  0  0
    2.7823    1.5709    0.2856 H   0  0  0  0  0  0  0  0  0  0  0  0
    0.6701    1.4665    1.0257 H   0  0  0  0  0  0  0  0  0  0  0  0
  1  2  1  0
  2  3  1  0
  3  4  1  0
  4  5  1  0
  4  6  1  0
  6  7  1  0
  6  8  1  0
  8  9  1  0
  9  2  1  0
  8  4  1  0
  1 10  1  0
  1 11  1  0
  1 12  1  0
  2 13  1  0
  3 14  1  0
  3 15  1  0
  5 16  1  0
  5 17  1  0
  5 18  1  0
  6 19  1  0
  7 20  1  0
  8 21  1  0
M  END
