
     RDKit          3D

 23 23  0  0  0  0  0  0  0  0999 V2000
    0.8455   -1.7123    1.0230 C   0  0  0  0  0  0  0  0  0  0  0  0
    0.3595   -0.9372   -0.1473 C   0  0  0  0  0  0  0  0  0  0  0  0
   -0.7391    0.0312   -0.1004 C   0  0  0  0  0  0  0  0  0  0  0  0
   -1.7347    0.1268   -1.2589 C   0  0  0  0  0  0  0  0  0  0  0  0
   -1.4373    0.1268    1.2632 C   0  0  0  0  0  0  0  0  0  0  0  0
    0.6192    0.5454   -0.2495 C   0  0  0  0  0  0  0  0  0  0  0  0
    1.2876    0.9254   -1.5341 C   0  0  0  0  0  0  0  0  0  0  0  0
    1.2556    1.2094    0.9211 C   0  0  0  0  0  0  0  0  0  0  0  0
    0.4842    2.0149    1.5008 O   0  0  0  0  0  0  0  0  0  0  0  0
    0.2036   -1.6222    1.9365 H   0  0  0  0  0  0  0  0  0  0  0  0
    0.8061   -2.8311    0.8054 H   0  0  0  0  0  0  0  0  0  0  0  0
    1.9205   -1.5475    1.2400 H   0  0  0  0  0  0  0  0  0  0  0  0
    0.4504   -1.5152   -1.1166 H   0  0  0  0  0  0  0  0  0  0  0  0
   -1.6657   -0.7865   -1.8481 H   0  0  0  0  0  0  0  0  0  0  0  0
   -1.5314    1.0573   -1.8527 H   0  0  0  0  0  0  0  0  0  0  0  0
   -2.7873    0.2320   -0.9022 H   0  0  0  0  0  0  0  0  0  0  0  0
   -0.7186    0.3993    2.0461 H   0  0  0  0  0  0  0  0  0  0  0  0
   -2.2449    0.8772    1.1534 H   0  0  0  0  0  0  0  0  0  0  0  0
   -1.9441   -0.8496    1.5139 H   0  0  0  0  0  0  0  0  0  0  0  0
    0.5189    1.2027   -2.3066 H   0  0  0  0  0  0  0  0  0  0  0  0
    1.8702    1.8874   -1.4254 H   0  0  0  0  0  0  0  0  0  0  0  0
    1.9442    0.1392   -1.9138 H   0  0  0  0  0  0  0  0  0  0  0  0
    2.2376    1.0266    1.2522 H   0  0  0  0  0  0  0  0  0  0  0  0
  1  2  1  0
  2  3  1  0
  3  4  1  0
  3  5  1  0
  3  6  1  0
  6  7  1  0
  6  8  1  0
  8  9  2  0
  6  2  1  0
  1 10  1  0
  1 11  1  0
  1 12  1  0
  2 13  1  0
  4 14  1  0
  4 15  1  0
  4 16  1  0
  5 17  1  0
  5 18  1  0
  5 19  1  0
  7 20  1  0
  7 21  1  0
  7 22  1  0
  8 23  1  0
M  END
