
     RDKit          3D

 19 19  0  0  0  0  0  0  0  0999 V2000
   -1.3916   -1.1147    0.3920 C   0  0  0  0  0  0  0  0  0  0  0  0
   -0.2093   -0.5560   -0.4114 C   0  0  0  0  0  0  0  0  0  0  0  0
    0.9763   -1.4187   -0.0870 C   0  0  0  0  0  0  0  0  0  0  0  0
    2.2046   -0.8213   -0.4299 O   0  0  0  0  0  0  0  0  0  0  0  0
    2.3822    0.5429   -0.2158 C   0  0  0  0  0  0  0  0  0  0  0  0
    3.5349    0.9936    0.0886 O   0  0  0  0  0  0  0  0  0  0  0  0
    1.2734    1.3527   -0.3480 O   0  0  0  0  0  0  0  0  0  0  0  0
    0.0227    0.8421    0.0904 C   0  0  0  0  0  0  0  0  0  0  0  0
   -1.1160    1.7616   -0.2521 C   0  0  0  0  0  0  0  0  0  0  0  0
   -1.4115   -0.6192    1.4033 H   0  0  0  0  0  0  0  0  0  0  0  0
   -2.3201   -0.9569   -0.1581 H   0  0  0  0  0  0  0  0  0  0  0  0
   -1.2728   -2.1977    0.5828 H   0  0  0  0  0  0  0  0  0  0  0  0
   -0.4483   -0.6189   -1.4784 H   0  0  0  0  0  0  0  0  0  0  0  0
    1.0028   -1.6059    1.0247 H   0  0  0  0  0  0  0  0  0  0  0  0
    0.8780   -2.4259   -0.5437 H   0  0  0  0  0  0  0  0  0  0  0  0
    0.0376    0.7707    1.2179 H   0  0  0  0  0  0  0  0  0  0  0  0
   -2.0630    1.2263   -0.0998 H   0  0  0  0  0  0  0  0  0  0  0  0
   -1.0564    2.6212    0.4760 H   0  0  0  0  0  0  0  0  0  0  0  0
   -1.0235    2.2241   -1.2515 H   0  0  0  0  0  0  0  0  0  0  0  0
  1  2  1  0
  2  3  1  0
  3  4  1  0
  4  5  1  0
  5  6  2  0
  5  7  1  0
  7  8  1  0
  8  9  1  0
  8  2  1  0
  1 10  1  0
  1 11  1  0
  1 12  1  0
  2 13  1  0
  3 14  1  0
  3 15  1  0
  8 16  1  0
  9 17  1  0
  9 18  1  0
  9 19  1  0
M  END
