
     RDKit          3D

 23 24  0  0  0  0  0  0  0  0999 V2000
    2.4431   -0.7302   -0.4448 C   0  0  0  0  0  0  0  0  0  0  0  0
    0.9659   -0.5714   -0.5541 C   0  0  0  0  0  0  0  0  0  0  0  0
    0.2284   -1.1297    0.6244 C   0  0  0  0  0  0  0  0  0  0  0  0
    0.7362   -0.0586    1.3488 O   0  0  0  0  0  0  0  0  0  0  0  0
    0.3486    0.5719    0.1733 C   0  0  0  0  0  0  0  0  0  0  0  0
    0.4276    1.9106   -0.1236 C   0  0  0  0  0  0  0  0  0  0  0  0
   -0.9150   -0.2522    0.2612 C   0  0  0  0  0  0  0  0  0  0  0  0
   -1.8088    0.1274    1.4045 C   0  0  0  0  0  0  0  0  0  0  0  0
   -1.5890   -0.5282   -1.0454 C   0  0  0  0  0  0  0  0  0  0  0  0
    2.9861    0.1360   -0.8763 H   0  0  0  0  0  0  0  0  0  0  0  0
    2.7315   -1.6157   -1.0695 H   0  0  0  0  0  0  0  0  0  0  0  0
    2.7409   -0.9717    0.5868 H   0  0  0  0  0  0  0  0  0  0  0  0
    0.5066   -0.7305   -1.5435 H   0  0  0  0  0  0  0  0  0  0  0  0
    0.2040   -2.0946    0.9202 H   0  0  0  0  0  0  0  0  0  0  0  0
    0.5219    2.5916    0.7730 H   0  0  0  0  0  0  0  0  0  0  0  0
   -0.4671    2.3195   -0.6811 H   0  0  0  0  0  0  0  0  0  0  0  0
    1.2979    2.2068   -0.7718 H   0  0  0  0  0  0  0  0  0  0  0  0
   -1.1420    0.5378    2.2146 H   0  0  0  0  0  0  0  0  0  0  0  0
   -2.5366    0.8948    1.1350 H   0  0  0  0  0  0  0  0  0  0  0  0
   -2.2997   -0.7576    1.8473 H   0  0  0  0  0  0  0  0  0  0  0  0
   -1.3203    0.2062   -1.8381 H   0  0  0  0  0  0  0  0  0  0  0  0
   -2.7087   -0.4878   -0.9635 H   0  0  0  0  0  0  0  0  0  0  0  0
   -1.3514   -1.5744   -1.3773 H   0  0  0  0  0  0  0  0  0  0  0  0
  1  2  1  0
  2  3  1  0
  3  4  1  0
  4  5  1  0
  5  6  1  0
  5  7  1  0
  7  8  1  0
  7  9  1  0
  5  2  1  0
  7  3  1  0
  1 10  1  0
  1 11  1  0
  1 12  1  0
  2 13  1  0
  3 14  1  0
  6 15  1  0
  6 16  1  0
  6 17  1  0
  8 18  1  0
  8 19  1  0
  8 20  1  0
  9 21  1  0
  9 22  1  0
  9 23  1  0
M  END
