
     RDKit          3D

 18 18  0  0  0  0  0  0  0  0999 V2000
   -2.0175    0.3845   -0.1191 C   0  0  0  0  0  0  0  0  0  0  0  0
   -0.6898    0.0441   -0.8161 C   0  0  0  0  0  0  0  0  0  0  0  0
   -0.1492   -1.1722   -0.1815 C   0  0  0  0  0  0  0  0  0  0  0  0
    0.8612   -0.9376    0.8948 C   0  0  0  0  0  0  0  0  0  0  0  0
    1.7972    0.0850    0.3740 C   0  0  0  0  0  0  0  0  0  0  0  0
    2.9912   -0.0396    0.3529 O   0  0  0  0  0  0  0  0  0  0  0  0
    1.1551    1.3049   -0.1337 C   0  0  0  0  0  0  0  0  0  0  0  0
    0.0551    1.1474   -0.8798 O   0  0  0  0  0  0  0  0  0  0  0  0
   -2.4522    1.2626   -0.6584 H   0  0  0  0  0  0  0  0  0  0  0  0
   -2.6973   -0.4812   -0.1302 H   0  0  0  0  0  0  0  0  0  0  0  0
   -1.7461    0.7335    0.8902 H   0  0  0  0  0  0  0  0  0  0  0  0
   -1.0145   -0.2301   -1.8658 H   0  0  0  0  0  0  0  0  0  0  0  0
    0.3331   -1.8357   -0.9551 H   0  0  0  0  0  0  0  0  0  0  0  0
   -0.9713   -1.7992    0.2619 H   0  0  0  0  0  0  0  0  0  0  0  0
    0.3374   -0.4951    1.7664 H   0  0  0  0  0  0  0  0  0  0  0  0
    1.4191   -1.8524    1.1285 H   0  0  0  0  0  0  0  0  0  0  0  0
    0.8970    1.9330    0.7688 H   0  0  0  0  0  0  0  0  0  0  0  0
    1.8915    1.9482   -0.6977 H   0  0  0  0  0  0  0  0  0  0  0  0
  1  2  1  0
  2  3  1  0
  3  4  1  0
  4  5  1  0
  5  6  2  0
  5  7  1  0
  7  8  1  0
  8  2  1  0
  1  9  1  0
  1 10  1  0
  1 11  1  0
  2 12  1  0
  3 13  1  0
  3 14  1  0
  4 15  1  0
  4 16  1  0
  7 17  1  0
  7 18  1  0
M  END
