
     RDKit          3D

 19 19  0  0  0  0  0  0  0  0999 V2000
   -2.1658   -0.9368   -0.3481 C   0  0  0  0  0  0  0  0  0  0  0  0
   -1.0715   -0.0760    0.2050 C   0  0  0  0  0  0  0  0  0  0  0  0
    0.2196   -0.8407    0.3803 C   0  0  0  0  0  0  0  0  0  0  0  0
    1.3501    0.1557    0.1735 C   0  0  0  0  0  0  0  0  0  0  0  0
    2.5746   -0.4796    0.7124 C   0  0  0  0  0  0  0  0  0  0  0  0
    3.2327   -0.0423    1.6281 O   0  0  0  0  0  0  0  0  0  0  0  0
    1.0085    1.3152    0.8129 O   0  0  0  0  0  0  0  0  0  0  0  0
   -0.0534    1.9150    0.1680 C   0  0  0  0  0  0  0  0  0  0  0  0
   -0.7720    1.0139   -0.6380 O   0  0  0  0  0  0  0  0  0  0  0  0
   -2.7058   -0.4451   -1.1931 H   0  0  0  0  0  0  0  0  0  0  0  0
   -1.7779   -1.9233   -0.6789 H   0  0  0  0  0  0  0  0  0  0  0  0
   -2.9491   -1.1326    0.4318 H   0  0  0  0  0  0  0  0  0  0  0  0
   -1.4031    0.3734    1.1825 H   0  0  0  0  0  0  0  0  0  0  0  0
    0.3122   -1.6439   -0.3797 H   0  0  0  0  0  0  0  0  0  0  0  0
    0.3140   -1.2261    1.4011 H   0  0  0  0  0  0  0  0  0  0  0  0
    1.5271    0.3527   -0.9030 H   0  0  0  0  0  0  0  0  0  0  0  0
    2.8896   -1.4115    0.2332 H   0  0  0  0  0  0  0  0  0  0  0  0
   -0.7918    2.2192    0.9658 H   0  0  0  0  0  0  0  0  0  0  0  0
    0.2620    2.8129   -0.4021 H   0  0  0  0  0  0  0  0  0  0  0  0
  1  2  1  0
  2  3  1  0
  3  4  1  0
  4  5  1  0
  5  6  2  0
  4  7  1  0
  7  8  1  0
  8  9  1  0
  9  2  1  0
  1 10  1  0
  1 11  1  0
  1 12  1  0
  2 13  1  0
  3 14  1  0
  3 15  1  0
  4 16  1  0
  5 17  1  0
  8 18  1  0
  8 19  1  0
M  END
