
     RDKit          3D

 18 20  0  0  0  0  0  0  0  0999 V2000
    1.9794   -0.5852   -0.6723 C   0  0  0  0  0  0  0  0  0  0  0  0
    1.1222    0.3593    0.0932 C   0  0  0  0  0  0  0  0  0  0  0  0
    0.0526   -0.2349    0.9594 C   0  0  0  0  0  0  0  0  0  0  0  0
   -0.6758   -0.5629   -0.2993 C   0  0  0  0  0  0  0  0  0  0  0  0
   -2.1034   -0.3247    0.0515 C   0  0  0  0  0  0  0  0  0  0  0  0
   -1.9953    0.8772    0.7955 O   0  0  0  0  0  0  0  0  0  0  0  0
   -0.6458    1.0945    0.8335 C   0  0  0  0  0  0  0  0  0  0  0  0
   -0.1499    0.8121   -0.5581 C   0  0  0  0  0  0  0  0  0  0  0  0
    2.0549   -1.6009   -0.2320 H   0  0  0  0  0  0  0  0  0  0  0  0
    1.6911   -0.6796   -1.7431 H   0  0  0  0  0  0  0  0  0  0  0  0
    3.0345   -0.1913   -0.6719 H   0  0  0  0  0  0  0  0  0  0  0  0
    1.6621    1.1753    0.5803 H   0  0  0  0  0  0  0  0  0  0  0  0
    0.1603   -0.7841    1.7866 H   0  0  0  0  0  0  0  0  0  0  0  0
   -0.3818   -1.3816   -0.9076 H   0  0  0  0  0  0  0  0  0  0  0  0
   -2.7864   -0.2229   -0.7972 H   0  0  0  0  0  0  0  0  0  0  0  0
   -2.5126   -1.0669    0.7893 H   0  0  0  0  0  0  0  0  0  0  0  0
   -0.2450    1.9360    1.3634 H   0  0  0  0  0  0  0  0  0  0  0  0
   -0.2612    1.3806   -1.3712 H   0  0  0  0  0  0  0  0  0  0  0  0
  1  2  1  0
  2  3  1  0
  3  4  1  0
  4  5  1  0
  5  6  1  0
  6  7  1  0
  7  8  1  0
  8  2  1  0
  7  3  1  0
  8  4  1  0
  1  9  1  0
  1 10  1  0
  1 11  1  0
  2 12  1  0
  3 13  1  0
  4 14  1  0
  5 15  1  0
  5 16  1  0
  7 17  1  0
  8 18  1  0
M  END
