
     RDKit          3D

 21 22  0  0  0  0  0  0  0  0999 V2000
    2.3088    0.3823    0.4335 C   0  0  0  0  0  0  0  0  0  0  0  0
    1.0813   -0.1919   -0.1674 C   0  0  0  0  0  0  0  0  0  0  0  0
    0.3090   -1.0933    0.8057 C   0  0  0  0  0  0  0  0  0  0  0  0
   -0.9438   -1.3433   -0.0351 C   0  0  0  0  0  0  0  0  0  0  0  0
   -2.1292   -1.3037    0.6544 O   0  0  0  0  0  0  0  0  0  0  0  0
   -2.3028    0.0501    0.3227 C   0  0  0  0  0  0  0  0  0  0  0  0
   -1.2012    0.0012   -0.6854 C   0  0  0  0  0  0  0  0  0  0  0  0
   -0.0037    0.8597   -0.4278 C   0  0  0  0  0  0  0  0  0  0  0  0
    0.3709    1.5376   -1.5692 O   0  0  0  0  0  0  0  0  0  0  0  0
    2.4543    1.4282    0.1069 H   0  0  0  0  0  0  0  0  0  0  0  0
    3.1878   -0.1910    0.0204 H   0  0  0  0  0  0  0  0  0  0  0  0
    2.3499    0.3509    1.5249 H   0  0  0  0  0  0  0  0  0  0  0  0
    1.2293   -0.7199   -1.1086 H   0  0  0  0  0  0  0  0  0  0  0  0
    0.8472   -2.0066    1.0438 H   0  0  0  0  0  0  0  0  0  0  0  0
   -0.0356   -0.5129    1.6855 H   0  0  0  0  0  0  0  0  0  0  0  0
   -0.8270   -2.1147   -0.8086 H   0  0  0  0  0  0  0  0  0  0  0  0
   -3.2933    0.1346   -0.2155 H   0  0  0  0  0  0  0  0  0  0  0  0
   -2.1782    0.7177    1.1807 H   0  0  0  0  0  0  0  0  0  0  0  0
   -1.4782   -0.0219   -1.7425 H   0  0  0  0  0  0  0  0  0  0  0  0
   -0.1081    1.5198    0.4620 H   0  0  0  0  0  0  0  0  0  0  0  0
    0.3628    2.5172   -1.4805 H   0  0  0  0  0  0  0  0  0  0  0  0
  1  2  1  0
  2  3  1  0
  3  4  1  0
  4  5  1  0
  5  6  1  0
  6  7  1  0
  7  8  1  0
  8  9  1  0
  8  2  1  0
  7  4  1  0
  1 10  1  0
  1 11  1  0
  1 12  1  0
  2 13  1  0
  3 14  1  0
  3 15  1  0
  4 16  1  0
  6 17  1  0
  6 18  1  0
  7 19  1  0
  8 20  1  0
  9 21  1  0
M  END
