
     RDKit          3D

 23 25  0  0  0  0  0  0  0  0999 V2000
   -1.9488   -0.7088   -0.4919 C   0  0  0  0  0  0  0  0  0  0  0  0
   -1.0086   -0.1990    0.5849 C   0  0  0  0  0  0  0  0  0  0  0  0
   -0.1115   -1.3391    0.9739 C   0  0  0  0  0  0  0  0  0  0  0  0
    1.3141   -0.8705    0.7160 C   0  0  0  0  0  0  0  0  0  0  0  0
    1.6281   -0.9478   -0.7810 C   0  0  0  0  0  0  0  0  0  0  0  0
    0.9429    0.3567   -0.9662 C   0  0  0  0  0  0  0  0  0  0  0  0
    1.1980    0.6003    0.5554 C   0  0  0  0  0  0  0  0  0  0  0  0
   -0.0988    0.8445   -0.0361 C   0  0  0  0  0  0  0  0  0  0  0  0
   -0.6127    2.2289   -0.1187 C   0  0  0  0  0  0  0  0  0  0  0  0
   -2.2250   -1.7527   -0.2054 H   0  0  0  0  0  0  0  0  0  0  0  0
   -2.8207   -0.0539   -0.5671 H   0  0  0  0  0  0  0  0  0  0  0  0
   -1.3817   -0.7637   -1.4441 H   0  0  0  0  0  0  0  0  0  0  0  0
   -1.5592    0.2353    1.4431 H   0  0  0  0  0  0  0  0  0  0  0  0
   -0.2636   -1.6691    2.0106 H   0  0  0  0  0  0  0  0  0  0  0  0
   -0.2722   -2.2490    0.3339 H   0  0  0  0  0  0  0  0  0  0  0  0
    2.0784   -1.2749    1.3717 H   0  0  0  0  0  0  0  0  0  0  0  0
    2.7444   -0.8078   -0.8833 H   0  0  0  0  0  0  0  0  0  0  0  0
    1.2392   -1.8249   -1.2940 H   0  0  0  0  0  0  0  0  0  0  0  0
    1.3572    1.1094   -1.6571 H   0  0  0  0  0  0  0  0  0  0  0  0
    1.9918    1.3013    0.7390 H   0  0  0  0  0  0  0  0  0  0  0  0
    0.2561    2.9157   -0.2961 H   0  0  0  0  0  0  0  0  0  0  0  0
   -1.4019    2.3443   -0.8693 H   0  0  0  0  0  0  0  0  0  0  0  0
   -1.0455    2.5248    0.8818 H   0  0  0  0  0  0  0  0  0  0  0  0
  1  2  1  0
  2  3  1  0
  3  4  1  0
  4  5  1  0
  5  6  1  0
  6  7  1  0
  7  8  1  0
  8  9  1  0
  8  2  1  0
  7  4  1  0
  8  6  1  0
  1 10  1  0
  1 11  1  0
  1 12  1  0
  2 13  1  0
  3 14  1  0
  3 15  1  0
  4 16  1  0
  5 17  1  0
  5 18  1  0
  6 19  1  0
  7 20  1  0
  9 21  1  0
  9 22  1  0
  9 23  1  0
M  END
