
     RDKit          3D

 23 23  0  0  0  0  0  0  0  0999 V2000
   -1.6200   -0.0769   -1.0957 C   0  0  0  0  0  0  0  0  0  0  0  0
   -1.2757    0.0067    0.3732 C   0  0  0  0  0  0  0  0  0  0  0  0
   -0.7857    1.3576    0.7824 C   0  0  0  0  0  0  0  0  0  0  0  0
    0.3379    1.8786    0.0148 C   0  0  0  0  0  0  0  0  0  0  0  0
    1.4770    1.4255   -0.4698 C   0  0  0  0  0  0  0  0  0  0  0  0
    2.1044    0.1112   -0.4184 C   0  0  0  0  0  0  0  0  0  0  0  0
    1.7281   -1.1635   -0.3408 C   0  0  0  0  0  0  0  0  0  0  0  0
    0.3764   -1.7783   -0.2707 C   0  0  0  0  0  0  0  0  0  0  0  0
   -0.3795   -1.1107    0.8297 C   0  0  0  0  0  0  0  0  0  0  0  0
   -2.0279   -1.0754   -1.3062 H   0  0  0  0  0  0  0  0  0  0  0  0
   -2.4319    0.6844   -1.2808 H   0  0  0  0  0  0  0  0  0  0  0  0
   -0.8023    0.1884   -1.7635 H   0  0  0  0  0  0  0  0  0  0  0  0
   -2.2582   -0.1462    0.9147 H   0  0  0  0  0  0  0  0  0  0  0  0
   -1.6594    2.0595    0.7018 H   0  0  0  0  0  0  0  0  0  0  0  0
   -0.5740    1.3055    1.8809 H   0  0  0  0  0  0  0  0  0  0  0  0
    0.2154    2.9409   -0.2363 H   0  0  0  0  0  0  0  0  0  0  0  0
    2.0660    2.1771   -1.0150 H   0  0  0  0  0  0  0  0  0  0  0  0
    3.1846    0.1877   -0.4552 H   0  0  0  0  0  0  0  0  0  0  0  0
    2.5495   -1.8686   -0.3267 H   0  0  0  0  0  0  0  0  0  0  0  0
   -0.0737   -1.6525   -1.2779 H   0  0  0  0  0  0  0  0  0  0  0  0
    0.4818   -2.8752   -0.1244 H   0  0  0  0  0  0  0  0  0  0  0  0
    0.3042   -0.6660    1.6081 H   0  0  0  0  0  0  0  0  0  0  0  0
   -0.9371   -1.9100    1.3807 H   0  0  0  0  0  0  0  0  0  0  0  0
  1  2  1  0
  2  3  1  0
  3  4  1  0
  4  5  2  3
  5  6  1  0
  6  7  2  3
  7  8  1  0
  8  9  1  0
  9  2  1  0
  1 10  1  0
  1 11  1  0
  1 12  1  0
  2 13  1  0
  3 14  1  0
  3 15  1  0
  4 16  1  0
  5 17  1  0
  6 18  1  0
  7 19  1  0
  8 20  1  0
  8 21  1  0
  9 22  1  0
  9 23  1  0
M  END
