
     RDKit          3D

 24 24  0  0  0  0  0  0  0  0999 V2000
    2.8161   -0.4133    0.1927 C   0  0  0  0  0  0  0  0  0  0  0  0
    1.3527   -0.1647   -0.0595 C   0  0  0  0  0  0  0  0  0  0  0  0
    0.5341   -1.2904    0.4829 C   0  0  0  0  0  0  0  0  0  0  0  0
   -0.8924   -1.0282    0.6954 C   0  0  0  0  0  0  0  0  0  0  0  0
   -1.3853    0.3527    0.6129 C   0  0  0  0  0  0  0  0  0  0  0  0
   -2.8003    0.3759    0.0160 C   0  0  0  0  0  0  0  0  0  0  0  0
   -0.5073    1.3245   -0.1131 C   0  0  0  0  0  0  0  0  0  0  0  0
    0.8904    1.1531    0.4935 C   0  0  0  0  0  0  0  0  0  0  0  0
    3.4307   -0.2285   -0.7228 H   0  0  0  0  0  0  0  0  0  0  0  0
    3.1878    0.1848    1.0533 H   0  0  0  0  0  0  0  0  0  0  0  0
    2.9471   -1.4960    0.4187 H   0  0  0  0  0  0  0  0  0  0  0  0
    1.2221   -0.1217   -1.1750 H   0  0  0  0  0  0  0  0  0  0  0  0
    0.6978   -2.1691   -0.2102 H   0  0  0  0  0  0  0  0  0  0  0  0
    1.0447   -1.6177    1.4377 H   0  0  0  0  0  0  0  0  0  0  0  0
   -1.1892   -1.4589    1.6985 H   0  0  0  0  0  0  0  0  0  0  0  0
   -1.4910   -1.6600   -0.0284 H   0  0  0  0  0  0  0  0  0  0  0  0
   -1.5226    0.7706    1.6534 H   0  0  0  0  0  0  0  0  0  0  0  0
   -2.8778   -0.5041   -0.6783 H   0  0  0  0  0  0  0  0  0  0  0  0
   -3.5505    0.2074    0.8069 H   0  0  0  0  0  0  0  0  0  0  0  0
   -3.0017    1.3299   -0.4876 H   0  0  0  0  0  0  0  0  0  0  0  0
   -0.4308    1.0644   -1.1890 H   0  0  0  0  0  0  0  0  0  0  0  0
   -0.8466    2.3458    0.0594 H   0  0  0  0  0  0  0  0  0  0  0  0
    0.8234    1.0548    1.6011 H   0  0  0  0  0  0  0  0  0  0  0  0
    1.5487    1.9888    0.2723 H   0  0  0  0  0  0  0  0  0  0  0  0
  1  2  1  0
  2  3  1  0
  3  4  1  0
  4  5  1  0
  5  6  1  0
  5  7  1  0
  7  8  1  0
  8  2  1  0
  1  9  1  0
  1 10  1  0
  1 11  1  0
  2 12  1  0
  3 13  1  0
  3 14  1  0
  4 15  1  0
  4 16  1  0
  5 17  1  0
  6 18  1  0
  6 19  1  0
  6 20  1  0
  7 21  1  0
  7 22  1  0
  8 23  1  0
  8 24  1  0
M  END
