
     RDKit          3D

 21 22  0  0  0  0  0  0  0  0999 V2000
   -2.8073   -0.3501   -0.1163 C   0  0  0  0  0  0  0  0  0  0  0  0
   -1.4012    0.0166    0.2605 C   0  0  0  0  0  0  0  0  0  0  0  0
   -0.8416    1.1432   -0.5922 C   0  0  0  0  0  0  0  0  0  0  0  0
    0.2398    1.8729    0.0764 C   0  0  0  0  0  0  0  0  0  0  0  0
    1.3296    1.1572    0.1118 C   0  0  0  0  0  0  0  0  0  0  0  0
    1.1006   -0.1372   -0.5330 C   0  0  0  0  0  0  0  0  0  0  0  0
    1.8039   -1.2744    0.1784 C   0  0  0  0  0  0  0  0  0  0  0  0
    3.1742   -1.0383    0.1878 O   0  0  0  0  0  0  0  0  0  0  0  0
   -0.3402   -0.3077   -0.6995 C   0  0  0  0  0  0  0  0  0  0  0  0
   -3.2468   -1.1183    0.5612 H   0  0  0  0  0  0  0  0  0  0  0  0
   -2.8985   -0.5899   -1.1763 H   0  0  0  0  0  0  0  0  0  0  0  0
   -3.4432    0.5679    0.0517 H   0  0  0  0  0  0  0  0  0  0  0  0
   -1.2195    0.0300    1.3500 H   0  0  0  0  0  0  0  0  0  0  0  0
   -1.4234    1.5615   -1.4065 H   0  0  0  0  0  0  0  0  0  0  0  0
    0.1363    2.8728    0.4830 H   0  0  0  0  0  0  0  0  0  0  0  0
    2.3032    1.4237    0.5432 H   0  0  0  0  0  0  0  0  0  0  0  0
    1.5488   -0.0500   -1.5772 H   0  0  0  0  0  0  0  0  0  0  0  0
    1.6432   -2.1821   -0.4665 H   0  0  0  0  0  0  0  0  0  0  0  0
    1.4030   -1.4800    1.1657 H   0  0  0  0  0  0  0  0  0  0  0  0
    3.5850   -1.2372    1.0703 H   0  0  0  0  0  0  0  0  0  0  0  0
   -0.6459   -0.8806   -1.6232 H   0  0  0  0  0  0  0  0  0  0  0  0
  1  2  1  0
  2  3  1  0
  3  4  1  0
  4  5  2  0
  5  6  1  0
  6  7  1  0
  7  8  1  0
  6  9  1  0
  9  2  1  0
  9  3  1  0
  1 10  1  0
  1 11  1  0
  1 12  1  0
  2 13  1  0
  3 14  1  0
  4 15  1  0
  5 16  1  0
  6 17  1  0
  7 18  1  0
  7 19  1  0
  8 20  1  0
  9 21  1  0
M  END
