
     RDKit          3D

 23 24  0  0  0  0  0  0  0  0999 V2000
   -2.1523    1.0144   -0.3962 C   0  0  0  0  0  0  0  0  0  0  0  0
   -1.2166   -0.0767    0.0286 C   0  0  0  0  0  0  0  0  0  0  0  0
   -0.7999    0.1365    1.4721 C   0  0  0  0  0  0  0  0  0  0  0  0
    0.6802   -0.0793    1.5338 C   0  0  0  0  0  0  0  0  0  0  0  0
    1.2584   -1.2189    1.0098 O   0  0  0  0  0  0  0  0  0  0  0  0
    1.1637   -0.0494    0.2020 C   0  0  0  0  0  0  0  0  0  0  0  0
    2.4180    0.6877   -0.1330 C   0  0  0  0  0  0  0  0  0  0  0  0
    0.0377   -0.1542   -0.7857 C   0  0  0  0  0  0  0  0  0  0  0  0
    0.0964   -1.5606   -1.3880 C   0  0  0  0  0  0  0  0  0  0  0  0
   -2.7703    1.2775    0.5038 H   0  0  0  0  0  0  0  0  0  0  0  0
   -1.6469    1.9507   -0.6929 H   0  0  0  0  0  0  0  0  0  0  0  0
   -2.8812    0.6968   -1.1753 H   0  0  0  0  0  0  0  0  0  0  0  0
   -1.8076   -1.0313    0.0170 H   0  0  0  0  0  0  0  0  0  0  0  0
   -1.2777   -0.5750    2.1625 H   0  0  0  0  0  0  0  0  0  0  0  0
   -0.9800    1.2043    1.7945 H   0  0  0  0  0  0  0  0  0  0  0  0
    1.2097    0.3514    2.3852 H   0  0  0  0  0  0  0  0  0  0  0  0
    2.7982    0.4891   -1.1467 H   0  0  0  0  0  0  0  0  0  0  0  0
    3.1890    0.4014    0.6306 H   0  0  0  0  0  0  0  0  0  0  0  0
    2.2621    1.7925    0.0436 H   0  0  0  0  0  0  0  0  0  0  0  0
    0.0970    0.5483   -1.6153 H   0  0  0  0  0  0  0  0  0  0  0  0
   -0.9066   -1.8881   -1.7453 H   0  0  0  0  0  0  0  0  0  0  0  0
    0.8671   -1.6592   -2.1517 H   0  0  0  0  0  0  0  0  0  0  0  0
    0.3615   -2.2578   -0.5535 H   0  0  0  0  0  0  0  0  0  0  0  0
  1  2  1  0
  2  3  1  0
  3  4  1  0
  4  5  1  0
  5  6  1  0
  6  7  1  0
  6  8  1  0
  8  9  1  0
  8  2  1  0
  6  4  1  0
  1 10  1  0
  1 11  1  0
  1 12  1  0
  2 13  1  0
  3 14  1  0
  3 15  1  0
  4 16  1  0
  7 17  1  0
  7 18  1  0
  7 19  1  0
  8 20  1  0
  9 21  1  0
  9 22  1  0
  9 23  1  0
M  END
