
     RDKit          3D

 21 22  0  0  0  0  0  0  0  0999 V2000
   -2.2640   -0.1161    0.3122 C   0  0  0  0  0  0  0  0  0  0  0  0
   -0.8149   -0.4560    0.2360 C   0  0  0  0  0  0  0  0  0  0  0  0
   -0.2813   -0.2439   -1.1555 C   0  0  0  0  0  0  0  0  0  0  0  0
   -0.3841    1.2273   -0.8743 C   0  0  0  0  0  0  0  0  0  0  0  0
    0.1675    0.6477    0.4087 C   0  0  0  0  0  0  0  0  0  0  0  0
    0.5195    1.2632    1.4374 O   0  0  0  0  0  0  0  0  0  0  0  0
    1.0763   -0.1594   -0.5165 C   0  0  0  0  0  0  0  0  0  0  0  0
    1.5453   -1.4584    0.0288 C   0  0  0  0  0  0  0  0  0  0  0  0
    1.9991    0.6485   -1.1315 O   0  0  0  0  0  0  0  0  0  0  0  0
   -2.8013   -1.0315    0.6856 H   0  0  0  0  0  0  0  0  0  0  0  0
   -2.7167    0.0807   -0.6931 H   0  0  0  0  0  0  0  0  0  0  0  0
   -2.5223    0.7084    0.9760 H   0  0  0  0  0  0  0  0  0  0  0  0
   -0.5040   -1.4024    0.7217 H   0  0  0  0  0  0  0  0  0  0  0  0
   -0.5382   -0.7309   -1.9879 H   0  0  0  0  0  0  0  0  0  0  0  0
    0.3604    1.7872   -1.4820 H   0  0  0  0  0  0  0  0  0  0  0  0
   -1.3895    1.6513   -0.8269 H   0  0  0  0  0  0  0  0  0  0  0  0
    0.7176    2.2133    1.3500 H   0  0  0  0  0  0  0  0  0  0  0  0
    1.5054   -1.5058    1.1361 H   0  0  0  0  0  0  0  0  0  0  0  0
    0.9751   -2.3242   -0.3986 H   0  0  0  0  0  0  0  0  0  0  0  0
    2.5994   -1.6166   -0.3370 H   0  0  0  0  0  0  0  0  0  0  0  0
    2.7506    0.8175   -0.5360 H   0  0  0  0  0  0  0  0  0  0  0  0
  1  2  1  0
  2  3  1  0
  3  4  1  0
  4  5  1  0
  5  6  1  0
  5  7  1  0
  7  8  1  0
  7  9  1  0
  5  2  1  0
  7  3  1  0
  1 10  1  0
  1 11  1  0
  1 12  1  0
  2 13  1  0
  3 14  1  0
  4 15  1  0
  4 16  1  0
  6 17  1  0
  8 18  1  0
  8 19  1  0
  8 20  1  0
  9 21  1  0
M  END
