
     RDKit          3D

 20 20  0  0  0  0  0  0  0  0999 V2000
    2.5280    0.2664   -0.3932 C   0  0  0  0  0  0  0  0  0  0  0  0
    1.0953    0.7190   -0.6758 C   0  0  0  0  0  0  0  0  0  0  0  0
    0.1859   -0.3404   -1.1963 C   0  0  0  0  0  0  0  0  0  0  0  0
   -0.7539   -0.0473   -0.0556 C   0  0  0  0  0  0  0  0  0  0  0  0
   -1.1291   -1.3326    0.6446 C   0  0  0  0  0  0  0  0  0  0  0  0
   -2.0179    0.6986   -0.4422 C   0  0  0  0  0  0  0  0  0  0  0  0
    0.2944    0.7574    0.5805 C   0  0  0  0  0  0  0  0  0  0  0  0
    0.5175    1.2820    1.6584 O   0  0  0  0  0  0  0  0  0  0  0  0
    2.8997    0.7671    0.5127 H   0  0  0  0  0  0  0  0  0  0  0  0
    3.1513    0.4110   -1.2868 H   0  0  0  0  0  0  0  0  0  0  0  0
    2.4577   -0.8145   -0.1536 H   0  0  0  0  0  0  0  0  0  0  0  0
    1.0589    1.6315   -1.2927 H   0  0  0  0  0  0  0  0  0  0  0  0
   -0.2336   -0.1898   -2.2124 H   0  0  0  0  0  0  0  0  0  0  0  0
    0.6701   -1.3438   -1.1571 H   0  0  0  0  0  0  0  0  0  0  0  0
   -0.2145   -1.8832    0.9268 H   0  0  0  0  0  0  0  0  0  0  0  0
   -1.7184   -1.9293   -0.1130 H   0  0  0  0  0  0  0  0  0  0  0  0
   -1.7715   -1.1658    1.5172 H   0  0  0  0  0  0  0  0  0  0  0  0
   -2.5376    0.1234   -1.2189 H   0  0  0  0  0  0  0  0  0  0  0  0
   -1.8041    1.7356   -0.7411 H   0  0  0  0  0  0  0  0  0  0  0  0
   -2.6781    0.6547    0.4727 H   0  0  0  0  0  0  0  0  0  0  0  0
  1  2  1  0
  2  3  1  0
  3  4  1  0
  4  5  1  0
  4  6  1  0
  4  7  1  0
  7  8  2  0
  7  2  1  0
  1  9  1  0
  1 10  1  0
  1 11  1  0
  2 12  1  0
  3 13  1  0
  3 14  1  0
  5 15  1  0
  5 16  1  0
  5 17  1  0
  6 18  1  0
  6 19  1  0
  6 20  1  0
M  END
