
     RDKit          3D

 20 21  0  0  0  0  0  0  0  0999 V2000
   -1.9758   -0.5601   -0.4307 C   0  0  0  0  0  0  0  0  0  0  0  0
   -1.0456    0.3338    0.3067 C   0  0  0  0  0  0  0  0  0  0  0  0
   -0.5930    1.5024   -0.5179 C   0  0  0  0  0  0  0  0  0  0  0  0
    0.7630    1.5897   -0.4647 O   0  0  0  0  0  0  0  0  0  0  0  0
    1.2585    0.7357    0.4776 C   0  0  0  0  0  0  0  0  0  0  0  0
    2.0705   -0.3654   -0.1844 C   0  0  0  0  0  0  0  0  0  0  0  0
    0.9069   -1.3074    0.0777 C   0  0  0  0  0  0  0  0  0  0  0  0
    0.1873   -0.2652    0.8239 C   0  0  0  0  0  0  0  0  0  0  0  0
   -2.7198   -1.0094    0.2836 H   0  0  0  0  0  0  0  0  0  0  0  0
   -2.5930    0.0765   -1.1264 H   0  0  0  0  0  0  0  0  0  0  0  0
   -1.5265   -1.3390   -1.0311 H   0  0  0  0  0  0  0  0  0  0  0  0
   -1.6231    0.7705    1.1747 H   0  0  0  0  0  0  0  0  0  0  0  0
   -0.9717    1.3482   -1.5547 H   0  0  0  0  0  0  0  0  0  0  0  0
   -1.0213    2.4737   -0.1758 H   0  0  0  0  0  0  0  0  0  0  0  0
    1.7038    1.1681    1.3825 H   0  0  0  0  0  0  0  0  0  0  0  0
    2.2887   -0.2089   -1.2487 H   0  0  0  0  0  0  0  0  0  0  0  0
    2.9774   -0.5466    0.3828 H   0  0  0  0  0  0  0  0  0  0  0  0
    1.3009   -2.1517    0.7185 H   0  0  0  0  0  0  0  0  0  0  0  0
    0.4619   -1.7423   -0.8196 H   0  0  0  0  0  0  0  0  0  0  0  0
    0.1507   -0.5028    1.9259 H   0  0  0  0  0  0  0  0  0  0  0  0
  1  2  1  0
  2  3  1  0
  3  4  1  0
  4  5  1  0
  5  6  1  0
  6  7  1  0
  7  8  1  0
  8  2  1  0
  8  5  1  0
  1  9  1  0
  1 10  1  0
  1 11  1  0
  2 12  1  0
  3 13  1  0
  3 14  1  0
  5 15  1  0
  6 16  1  0
  6 17  1  0
  7 18  1  0
  7 19  1  0
  8 20  1  0
M  END
