
     RDKit          3D

 20 21  0  0  0  0  0  0  0  0999 V2000
    1.7485   -0.6197   -0.7773 C   0  0  0  0  0  0  0  0  0  0  0  0
    0.9666    0.3313    0.0178 C   0  0  0  0  0  0  0  0  0  0  0  0
   -0.2570    0.8832   -0.7318 C   0  0  0  0  0  0  0  0  0  0  0  0
   -0.8541    1.6870    0.3940 C   0  0  0  0  0  0  0  0  0  0  0  0
   -0.6994    0.9278    1.4781 C   0  0  0  0  0  0  0  0  0  0  0  0
    0.1429   -0.2796    1.1363 C   0  0  0  0  0  0  0  0  0  0  0  0
   -0.7503   -1.2081    0.3714 C   0  0  0  0  0  0  0  0  0  0  0  0
   -1.0845   -0.3556   -0.8609 C   0  0  0  0  0  0  0  0  0  0  0  0
    2.7544   -0.7370   -0.3329 H   0  0  0  0  0  0  0  0  0  0  0  0
    1.9366   -0.1620   -1.7947 H   0  0  0  0  0  0  0  0  0  0  0  0
    1.3308   -1.6010   -0.9592 H   0  0  0  0  0  0  0  0  0  0  0  0
    1.5807    1.1297    0.4271 H   0  0  0  0  0  0  0  0  0  0  0  0
   -0.0302    1.4293   -1.6125 H   0  0  0  0  0  0  0  0  0  0  0  0
   -1.2992    2.6614    0.2956 H   0  0  0  0  0  0  0  0  0  0  0  0
   -1.0942    1.1124    2.4521 H   0  0  0  0  0  0  0  0  0  0  0  0
    0.6912   -0.6833    1.9527 H   0  0  0  0  0  0  0  0  0  0  0  0
   -1.6516   -1.4001    0.9788 H   0  0  0  0  0  0  0  0  0  0  0  0
   -0.3105   -2.1677    0.1098 H   0  0  0  0  0  0  0  0  0  0  0  0
   -2.1586   -0.0447   -0.7524 H   0  0  0  0  0  0  0  0  0  0  0  0
   -0.9619   -0.9034   -1.7918 H   0  0  0  0  0  0  0  0  0  0  0  0
  1  2  1  0
  2  3  1  0
  3  4  1  0
  4  5  2  0
  5  6  1  0
  6  7  1  0
  7  8  1  0
  6  2  1  0
  8  3  1  0
  1  9  1  0
  1 10  1  0
  1 11  1  0
  2 12  1  0
  3 13  1  0
  4 14  1  0
  5 15  1  0
  6 16  1  0
  7 17  1  0
  7 18  1  0
  8 19  1  0
  8 20  1  0
M  END
