
     RDKit          3D

 18 19  0  0  0  0  0  0  0  0999 V2000
    1.7421   -0.6289   -1.0373 C   0  0  0  0  0  0  0  0  0  0  0  0
    0.4834   -0.9550   -0.3163 C   0  0  0  0  0  0  0  0  0  0  0  0
   -0.7418   -0.1736   -0.6929 C   0  0  0  0  0  0  0  0  0  0  0  0
   -1.2325   -0.5021    0.6891 C   0  0  0  0  0  0  0  0  0  0  0  0
   -2.1044    0.3809    1.2689 O   0  0  0  0  0  0  0  0  0  0  0  0
    0.1939   -0.1003    0.9074 C   0  0  0  0  0  0  0  0  0  0  0  0
   -0.0635    1.0123   -0.0566 C   0  0  0  0  0  0  0  0  0  0  0  0
   -0.9738    1.9778    0.3308 O   0  0  0  0  0  0  0  0  0  0  0  0
    2.4316   -0.1292   -0.3000 H   0  0  0  0  0  0  0  0  0  0  0  0
    2.2748   -1.5818   -1.3037 H   0  0  0  0  0  0  0  0  0  0  0  0
    1.6449    0.0546   -1.8811 H   0  0  0  0  0  0  0  0  0  0  0  0
    0.2326   -2.0246   -0.2093 H   0  0  0  0  0  0  0  0  0  0  0  0
   -1.2514   -0.1972   -1.5480 H   0  0  0  0  0  0  0  0  0  0  0  0
   -1.4726   -1.5684    0.7684 H   0  0  0  0  0  0  0  0  0  0  0  0
   -2.0074    0.2738    2.2662 H   0  0  0  0  0  0  0  0  0  0  0  0
    0.7164   -0.0921    1.7545 H   0  0  0  0  0  0  0  0  0  0  0  0
    0.8258    1.4037   -0.5881 H   0  0  0  0  0  0  0  0  0  0  0  0
   -0.6980    2.8501   -0.0518 H   0  0  0  0  0  0  0  0  0  0  0  0
  1  2  1  0
  2  3  1  0
  3  4  1  0
  4  5  1  0
  4  6  1  0
  6  7  1  0
  7  8  1  0
  6  2  1  0
  7  3  1  0
  1  9  1  0
  1 10  1  0
  1 11  1  0
  2 12  1  0
  3 13  1  0
  4 14  1  0
  5 15  1  0
  6 16  1  0
  7 17  1  0
  8 18  1  0
M  END
