
     RDKit          3D

 21 21  0  0  0  0  0  0  0  0999 V2000
   -2.6165    0.4764   -0.0162 C   0  0  0  0  0  0  0  0  0  0  0  0
   -1.1746    0.1848   -0.2400 C   0  0  0  0  0  0  0  0  0  0  0  0
   -0.3077    0.9792    0.7093 C   0  0  0  0  0  0  0  0  0  0  0  0
    1.0115    1.0847    0.6635 C   0  0  0  0  0  0  0  0  0  0  0  0
    1.9301    0.4565   -0.3160 C   0  0  0  0  0  0  0  0  0  0  0  0
    3.2603    0.6992    0.0276 O   0  0  0  0  0  0  0  0  0  0  0  0
    1.6757   -0.9681   -0.5643 C   0  0  0  0  0  0  0  0  0  0  0  0
    0.5276   -1.6150   -0.4295 C   0  0  0  0  0  0  0  0  0  0  0  0
   -0.8316   -1.2503   -0.0244 C   0  0  0  0  0  0  0  0  0  0  0  0
   -3.2078    0.1972   -0.9045 H   0  0  0  0  0  0  0  0  0  0  0  0
   -2.7373    1.5916    0.1133 H   0  0  0  0  0  0  0  0  0  0  0  0
   -2.9646   -0.0712    0.8737 H   0  0  0  0  0  0  0  0  0  0  0  0
   -0.9028    0.4604   -1.2840 H   0  0  0  0  0  0  0  0  0  0  0  0
   -0.7838    1.5149    1.5006 H   0  0  0  0  0  0  0  0  0  0  0  0
    1.4669    1.7130    1.4473 H   0  0  0  0  0  0  0  0  0  0  0  0
    1.7615    0.9941   -1.2890 H   0  0  0  0  0  0  0  0  0  0  0  0
    3.2692    1.1933    0.8869 H   0  0  0  0  0  0  0  0  0  0  0  0
    2.5532   -1.5230   -0.8953 H   0  0  0  0  0  0  0  0  0  0  0  0
    0.6398   -2.6830   -0.6884 H   0  0  0  0  0  0  0  0  0  0  0  0
   -1.0185   -1.5443    1.0423 H   0  0  0  0  0  0  0  0  0  0  0  0
   -1.5507   -1.8903   -0.6129 H   0  0  0  0  0  0  0  0  0  0  0  0
  1  2  1  0
  2  3  1  0
  3  4  2  0
  4  5  1  0
  5  6  1  0
  5  7  1  0
  7  8  2  0
  8  9  1  0
  9  2  1  0
  1 10  1  0
  1 11  1  0
  1 12  1  0
  2 13  1  0
  3 14  1  0
  4 15  1  0
  5 16  1  0
  6 17  1  0
  7 18  1  0
  8 19  1  0
  9 20  1  0
  9 21  1  0
M  END
