
     RDKit          3D

 25 26  0  0  0  0  0  0  0  0999 V2000
    2.2535    0.5362    1.2815 C   0  0  0  0  0  0  0  0  0  0  0  0
    2.0055   -0.7809    0.5590 C   0  0  0  0  0  0  0  0  0  0  0  0
    2.2185   -0.7251   -0.9087 C   0  0  0  0  0  0  0  0  0  0  0  0
    0.8120   -0.9205   -0.3055 C   0  0  0  0  0  0  0  0  0  0  0  0
   -0.1021    0.2465   -0.5602 C   0  0  0  0  0  0  0  0  0  0  0  0
   -1.2744   -0.1077   -1.4792 C   0  0  0  0  0  0  0  0  0  0  0  0
   -1.5032    0.2435   -0.0712 C   0  0  0  0  0  0  0  0  0  0  0  0
   -2.1949    1.5504    0.1815 C   0  0  0  0  0  0  0  0  0  0  0  0
   -1.7951   -0.8190    0.9656 C   0  0  0  0  0  0  0  0  0  0  0  0
    1.9699    1.3779    0.6452 H   0  0  0  0  0  0  0  0  0  0  0  0
    3.3456    0.6486    1.5194 H   0  0  0  0  0  0  0  0  0  0  0  0
    1.6327    0.5075    2.2099 H   0  0  0  0  0  0  0  0  0  0  0  0
    2.4105   -1.6495    1.0828 H   0  0  0  0  0  0  0  0  0  0  0  0
    2.4506    0.2154   -1.4023 H   0  0  0  0  0  0  0  0  0  0  0  0
    2.6866   -1.6145   -1.3883 H   0  0  0  0  0  0  0  0  0  0  0  0
    0.4064   -1.9378   -0.4506 H   0  0  0  0  0  0  0  0  0  0  0  0
    0.3773    1.2167   -0.6505 H   0  0  0  0  0  0  0  0  0  0  0  0
   -1.4336   -1.1501   -1.7658 H   0  0  0  0  0  0  0  0  0  0  0  0
   -1.4546    0.6691   -2.2483 H   0  0  0  0  0  0  0  0  0  0  0  0
   -1.5420    2.3275    0.6128 H   0  0  0  0  0  0  0  0  0  0  0  0
   -3.0552    1.4471    0.8935 H   0  0  0  0  0  0  0  0  0  0  0  0
   -2.6288    1.9627   -0.7543 H   0  0  0  0  0  0  0  0  0  0  0  0
   -1.6419   -1.8453    0.5787 H   0  0  0  0  0  0  0  0  0  0  0  0
   -1.0972   -0.6483    1.8106 H   0  0  0  0  0  0  0  0  0  0  0  0
   -2.8462   -0.7505    1.3188 H   0  0  0  0  0  0  0  0  0  0  0  0
  1  2  1  0
  2  3  1  0
  3  4  1  0
  4  5  1  0
  5  6  1  0
  6  7  1  0
  7  8  1  0
  7  9  1  0
  4  2  1  0
  7  5  1  0
  1 10  1  0
  1 11  1  0
  1 12  1  0
  2 13  1  0
  3 14  1  0
  3 15  1  0
  4 16  1  0
  5 17  1  0
  6 18  1  0
  6 19  1  0
  8 20  1  0
  8 21  1  0
  8 22  1  0
  9 23  1  0
  9 24  1  0
  9 25  1  0
M  END
