
     RDKit          3D

 21 21  0  0  0  0  0  0  0  0999 V2000
   -1.8944    1.5940   -0.1129 C   0  0  0  0  0  0  0  0  0  0  0  0
   -0.9844    0.6306    0.6105 C   0  0  0  0  0  0  0  0  0  0  0  0
   -0.9258   -0.7909    0.2674 C   0  0  0  0  0  0  0  0  0  0  0  0
   -1.9103   -1.4460   -0.6673 C   0  0  0  0  0  0  0  0  0  0  0  0
    0.1376    0.0928   -0.2663 C   0  0  0  0  0  0  0  0  0  0  0  0
    1.4974    0.1442    0.3828 C   0  0  0  0  0  0  0  0  0  0  0  0
    2.4693   -0.3778   -0.5139 O   0  0  0  0  0  0  0  0  0  0  0  0
    3.7853   -0.4022   -0.0662 C   0  0  0  0  0  0  0  0  0  0  0  0
    4.0891    0.0188    1.0763 O   0  0  0  0  0  0  0  0  0  0  0  0
   -1.3824    2.5804   -0.1327 H   0  0  0  0  0  0  0  0  0  0  0  0
   -2.8804    1.7114    0.3851 H   0  0  0  0  0  0  0  0  0  0  0  0
   -2.0839    1.2964   -1.1534 H   0  0  0  0  0  0  0  0  0  0  0  0
   -0.7525    0.9315    1.6514 H   0  0  0  0  0  0  0  0  0  0  0  0
   -0.5811   -1.4889    1.0806 H   0  0  0  0  0  0  0  0  0  0  0  0
   -1.4324   -1.8861   -1.5600 H   0  0  0  0  0  0  0  0  0  0  0  0
   -2.5169   -2.1896   -0.0976 H   0  0  0  0  0  0  0  0  0  0  0  0
   -2.6309   -0.6682   -1.0049 H   0  0  0  0  0  0  0  0  0  0  0  0
    0.1128    0.2965   -1.3440 H   0  0  0  0  0  0  0  0  0  0  0  0
    1.7414    1.2116    0.5653 H   0  0  0  0  0  0  0  0  0  0  0  0
    1.5579   -0.4667    1.2992 H   0  0  0  0  0  0  0  0  0  0  0  0
    4.5847   -0.7917   -0.7065 H   0  0  0  0  0  0  0  0  0  0  0  0
  1  2  1  0
  2  3  1  0
  3  4  1  0
  3  5  1  0
  5  6  1  0
  6  7  1  0
  7  8  1  0
  8  9  2  0
  5  2  1  0
  1 10  1  0
  1 11  1  0
  1 12  1  0
  2 13  1  0
  3 14  1  0
  4 15  1  0
  4 16  1  0
  4 17  1  0
  5 18  1  0
  6 19  1  0
  6 20  1  0
  8 21  1  0
M  END
