
     RDKit          3D

 19 20  0  0  0  0  0  0  0  0999 V2000
    1.9993    0.6941    0.0092 C   0  0  0  0  0  0  0  0  0  0  0  0
    1.0715   -0.4236    0.3608 C   0  0  0  0  0  0  0  0  0  0  0  0
    0.0188   -0.5495   -0.7543 C   0  0  0  0  0  0  0  0  0  0  0  0
   -0.8632   -1.5903   -0.1503 C   0  0  0  0  0  0  0  0  0  0  0  0
   -0.9135   -1.1179    1.1890 O   0  0  0  0  0  0  0  0  0  0  0  0
   -0.1693    0.0232    1.1516 C   0  0  0  0  0  0  0  0  0  0  0  0
   -0.5385    0.7246   -0.1647 C   0  0  0  0  0  0  0  0  0  0  0  0
   -1.9614    0.9624   -0.3667 C   0  0  0  0  0  0  0  0  0  0  0  0
   -2.4648    1.9728    0.0807 O   0  0  0  0  0  0  0  0  0  0  0  0
    1.9336    1.0107   -1.0597 H   0  0  0  0  0  0  0  0  0  0  0  0
    3.0326    0.3653    0.1928 H   0  0  0  0  0  0  0  0  0  0  0  0
    1.8340    1.5994    0.6569 H   0  0  0  0  0  0  0  0  0  0  0  0
    1.5033   -1.3695    0.6827 H   0  0  0  0  0  0  0  0  0  0  0  0
    0.3466   -0.5865   -1.7500 H   0  0  0  0  0  0  0  0  0  0  0  0
   -1.8553   -1.6062   -0.6134 H   0  0  0  0  0  0  0  0  0  0  0  0
   -0.4408   -2.6158   -0.1911 H   0  0  0  0  0  0  0  0  0  0  0  0
   -0.0120    0.6308    2.0032 H   0  0  0  0  0  0  0  0  0  0  0  0
    0.0675    1.6002   -0.3778 H   0  0  0  0  0  0  0  0  0  0  0  0
   -2.5885    0.2759   -0.8990 H   0  0  0  0  0  0  0  0  0  0  0  0
  1  2  1  0
  2  3  1  0
  3  4  1  0
  4  5  1  0
  5  6  1  0
  6  7  1  0
  7  8  1  0
  8  9  2  0
  6  2  1  0
  7  3  1  0
  1 10  1  0
  1 11  1  0
  1 12  1  0
  2 13  1  0
  3 14  1  0
  4 15  1  0
  4 16  1  0
  6 17  1  0
  7 18  1  0
  8 19  1  0
M  END
