
     RDKit          3D

 19 19  0  0  0  0  0  0  0  0999 V2000
    2.5196    0.0783   -0.0954 C   0  0  0  0  0  0  0  0  0  0  0  0
    1.0979    0.5707   -0.1323 C   0  0  0  0  0  0  0  0  0  0  0  0
    0.2786   -0.1759    0.9135 C   0  0  0  0  0  0  0  0  0  0  0  0
   -0.7003   -0.1312   -0.2256 C   0  0  0  0  0  0  0  0  0  0  0  0
   -1.6316    1.0667   -0.0391 C   0  0  0  0  0  0  0  0  0  0  0  0
   -1.5097   -1.3757   -0.4456 C   0  0  0  0  0  0  0  0  0  0  0  0
    0.3140    0.0828   -1.1606 O   0  0  0  0  0  0  0  0  0  0  0  0
    2.6563   -0.9112   -0.5590 H   0  0  0  0  0  0  0  0  0  0  0  0
    3.2122    0.7908   -0.6087 H   0  0  0  0  0  0  0  0  0  0  0  0
    2.8305    0.0877    0.9809 H   0  0  0  0  0  0  0  0  0  0  0  0
    1.0254    1.6664   -0.0856 H   0  0  0  0  0  0  0  0  0  0  0  0
    0.0753    0.4963    1.7616 H   0  0  0  0  0  0  0  0  0  0  0  0
    0.6666   -1.1502    1.2047 H   0  0  0  0  0  0  0  0  0  0  0  0
   -2.2584    0.8337    0.8565 H   0  0  0  0  0  0  0  0  0  0  0  0
   -1.0413    1.9871    0.1786 H   0  0  0  0  0  0  0  0  0  0  0  0
   -2.2657    1.1681   -0.9425 H   0  0  0  0  0  0  0  0  0  0  0  0
   -2.6156   -1.1733   -0.4309 H   0  0  0  0  0  0  0  0  0  0  0  0
   -1.3160   -1.7596   -1.4841 H   0  0  0  0  0  0  0  0  0  0  0  0
   -1.3378   -2.1514    0.3138 H   0  0  0  0  0  0  0  0  0  0  0  0
  1  2  1  0
  2  3  1  0
  3  4  1  0
  4  5  1  0
  4  6  1  0
  4  7  1  0
  7  2  1  0
  1  8  1  0
  1  9  1  0
  1 10  1  0
  2 11  1  0
  3 12  1  0
  3 13  1  0
  5 14  1  0
  5 15  1  0
  5 16  1  0
  6 17  1  0
  6 18  1  0
  6 19  1  0
M  END
