
     RDKit          3D

 21 21  0  0  0  0  0  0  0  0999 V2000
   -2.0212    1.7816    0.1860 C   0  0  0  0  0  0  0  0  0  0  0  0
   -1.4818    0.4014    0.4805 C   0  0  0  0  0  0  0  0  0  0  0  0
   -2.4650   -0.7255    0.1775 C   0  0  0  0  0  0  0  0  0  0  0  0
   -1.1826   -0.5108   -0.6412 C   0  0  0  0  0  0  0  0  0  0  0  0
   -0.1751   -1.6009   -0.5349 C   0  0  0  0  0  0  0  0  0  0  0  0
    1.1739   -1.0774   -0.2271 C   0  0  0  0  0  0  0  0  0  0  0  0
    2.2703   -0.6347    0.0103 C   0  0  0  0  0  0  0  0  0  0  0  0
    3.6008   -0.0826    0.2778 C   0  0  0  0  0  0  0  0  0  0  0  0
    3.8235    1.0629   -0.4791 O   0  0  0  0  0  0  0  0  0  0  0  0
   -3.0326    1.7378   -0.2661 H   0  0  0  0  0  0  0  0  0  0  0  0
   -1.3609    2.3355   -0.5121 H   0  0  0  0  0  0  0  0  0  0  0  0
   -2.1550    2.3344    1.1547 H   0  0  0  0  0  0  0  0  0  0  0  0
   -0.8245    0.3075    1.3683 H   0  0  0  0  0  0  0  0  0  0  0  0
   -3.4298   -0.4719   -0.2925 H   0  0  0  0  0  0  0  0  0  0  0  0
   -2.4666   -1.5104    0.9429 H   0  0  0  0  0  0  0  0  0  0  0  0
   -1.3490   -0.1152   -1.6805 H   0  0  0  0  0  0  0  0  0  0  0  0
   -0.4769   -2.3228    0.2302 H   0  0  0  0  0  0  0  0  0  0  0  0
   -0.1635   -2.1658   -1.5075 H   0  0  0  0  0  0  0  0  0  0  0  0
    4.4132   -0.8162    0.0409 H   0  0  0  0  0  0  0  0  0  0  0  0
    3.6072    0.1839    1.3679 H   0  0  0  0  0  0  0  0  0  0  0  0
    3.6957    1.8891    0.0442 H   0  0  0  0  0  0  0  0  0  0  0  0
  1  2  1  0
  2  3  1  0
  3  4  1  0
  4  5  1  0
  5  6  1  0
  6  7  3  0
  7  8  1  0
  8  9  1  0
  4  2  1  0
  1 10  1  0
  1 11  1  0
  1 12  1  0
  2 13  1  0
  3 14  1  0
  3 15  1  0
  4 16  1  0
  5 17  1  0
  5 18  1  0
  8 19  1  0
  8 20  1  0
  9 21  1  0
M  END
