
     RDKit          3D

 21 22  0  0  0  0  0  0  0  0999 V2000
   -2.6876    0.0881   -0.3035 C   0  0  0  0  0  0  0  0  0  0  0  0
   -1.2441    0.4664   -0.3770 C   0  0  0  0  0  0  0  0  0  0  0  0
   -0.8442    1.2154    0.9037 C   0  0  0  0  0  0  0  0  0  0  0  0
    0.5345    1.1610    0.8181 O   0  0  0  0  0  0  0  0  0  0  0  0
    0.8985   -0.0926    0.3974 C   0  0  0  0  0  0  0  0  0  0  0  0
   -0.3162   -0.7324   -0.2467 C   0  0  0  0  0  0  0  0  0  0  0  0
    1.8609   -0.8668    1.1814 C   0  0  0  0  0  0  0  0  0  0  0  0
    2.2169   -0.3652   -0.2042 C   0  0  0  0  0  0  0  0  0  0  0  0
    3.1764    0.6367   -0.2912 O   0  0  0  0  0  0  0  0  0  0  0  0
   -2.9302   -0.7920   -0.9525 H   0  0  0  0  0  0  0  0  0  0  0  0
   -2.9406   -0.2279    0.7308 H   0  0  0  0  0  0  0  0  0  0  0  0
   -3.2993    0.9524   -0.5460 H   0  0  0  0  0  0  0  0  0  0  0  0
   -0.9871    1.0707   -1.2538 H   0  0  0  0  0  0  0  0  0  0  0  0
   -1.2313    2.2278    0.8937 H   0  0  0  0  0  0  0  0  0  0  0  0
   -1.2276    0.5779    1.7350 H   0  0  0  0  0  0  0  0  0  0  0  0
   -0.1067   -1.2254   -1.1917 H   0  0  0  0  0  0  0  0  0  0  0  0
   -0.7823   -1.4097    0.5154 H   0  0  0  0  0  0  0  0  0  0  0  0
    1.7148   -1.9468    1.3211 H   0  0  0  0  0  0  0  0  0  0  0  0
    2.3846   -0.3649    2.0400 H   0  0  0  0  0  0  0  0  0  0  0  0
    2.2431   -1.1421   -1.0061 H   0  0  0  0  0  0  0  0  0  0  0  0
    3.5675    0.7695    0.6135 H   0  0  0  0  0  0  0  0  0  0  0  0
  1  2  1  0
  2  3  1  0
  3  4  1  0
  4  5  1  0
  5  6  1  0
  5  7  1  0
  7  8  1  0
  8  9  1  0
  6  2  1  0
  8  5  1  0
  1 10  1  0
  1 11  1  0
  1 12  1  0
  2 13  1  0
  3 14  1  0
  3 15  1  0
  6 16  1  0
  6 17  1  0
  7 18  1  0
  7 19  1  0
  8 20  1  0
  9 21  1  0
M  END
