
     RDKit          3D

 21 22  0  0  0  0  0  0  0  0999 V2000
   -2.4118    0.8723    0.1927 C   0  0  0  0  0  0  0  0  0  0  0  0
   -1.3331   -0.1809    0.3351 C   0  0  0  0  0  0  0  0  0  0  0  0
   -1.3838   -1.1714   -0.8129 C   0  0  0  0  0  0  0  0  0  0  0  0
   -0.7930   -0.1782   -1.6102 O   0  0  0  0  0  0  0  0  0  0  0  0
   -0.1105    0.2329   -0.4453 C   0  0  0  0  0  0  0  0  0  0  0  0
    1.1355   -0.5336   -0.1892 C   0  0  0  0  0  0  0  0  0  0  0  0
    1.7801   -0.6175    1.1314 C   0  0  0  0  0  0  0  0  0  0  0  0
    2.3789    0.2520    0.0702 C   0  0  0  0  0  0  0  0  0  0  0  0
    2.2924    1.6271    0.2736 O   0  0  0  0  0  0  0  0  0  0  0  0
   -2.0557    1.8549    0.5850 H   0  0  0  0  0  0  0  0  0  0  0  0
   -3.3758    0.5580    0.6323 H   0  0  0  0  0  0  0  0  0  0  0  0
   -2.5818    0.9981   -0.9051 H   0  0  0  0  0  0  0  0  0  0  0  0
   -1.1761   -0.5922    1.3273 H   0  0  0  0  0  0  0  0  0  0  0  0
   -0.6691   -1.9876   -0.6560 H   0  0  0  0  0  0  0  0  0  0  0  0
   -2.4165   -1.4221   -1.0458 H   0  0  0  0  0  0  0  0  0  0  0  0
    0.0292    1.3144   -0.3963 H   0  0  0  0  0  0  0  0  0  0  0  0
    1.2959   -1.4163   -0.8673 H   0  0  0  0  0  0  0  0  0  0  0  0
    2.3858   -1.5389    1.3642 H   0  0  0  0  0  0  0  0  0  0  0  0
    1.3726   -0.1301    2.0285 H   0  0  0  0  0  0  0  0  0  0  0  0
    3.3337   -0.0423   -0.4269 H   0  0  0  0  0  0  0  0  0  0  0  0
    2.3030    2.1011   -0.5855 H   0  0  0  0  0  0  0  0  0  0  0  0
  1  2  1  0
  2  3  1  0
  3  4  1  0
  4  5  1  0
  5  6  1  0
  6  7  1  0
  7  8  1  0
  8  9  1  0
  5  2  1  0
  8  6  1  0
  1 10  1  0
  1 11  1  0
  1 12  1  0
  2 13  1  0
  3 14  1  0
  3 15  1  0
  5 16  1  0
  6 17  1  0
  7 18  1  0
  7 19  1  0
  8 20  1  0
  9 21  1  0
M  END
