
     RDKit          3D

 21 21  0  0  0  0  0  0  0  0999 V2000
   -2.2689    0.0681    0.2239 C   0  0  0  0  0  0  0  0  0  0  0  0
   -1.1168    0.3962   -0.6891 C   0  0  0  0  0  0  0  0  0  0  0  0
   -0.4057   -0.8077   -1.2151 C   0  0  0  0  0  0  0  0  0  0  0  0
    0.6258   -1.3643   -0.2689 C   0  0  0  0  0  0  0  0  0  0  0  0
    1.9421   -0.6406   -0.3353 C   0  0  0  0  0  0  0  0  0  0  0  0
    1.9677    0.5384    0.3678 O   0  0  0  0  0  0  0  0  0  0  0  0
    1.2373    1.5375   -0.3139 C   0  0  0  0  0  0  0  0  0  0  0  0
   -0.1969    1.2904    0.0372 C   0  0  0  0  0  0  0  0  0  0  0  0
   -0.6250    1.8741    0.9923 O   0  0  0  0  0  0  0  0  0  0  0  0
   -3.0816   -0.4847   -0.2645 H   0  0  0  0  0  0  0  0  0  0  0  0
   -2.7016    1.0440    0.5529 H   0  0  0  0  0  0  0  0  0  0  0  0
   -1.9184   -0.4286    1.1518 H   0  0  0  0  0  0  0  0  0  0  0  0
   -1.5184    0.9748   -1.5550 H   0  0  0  0  0  0  0  0  0  0  0  0
   -1.1200   -1.6113   -1.5056 H   0  0  0  0  0  0  0  0  0  0  0  0
    0.1513   -0.4879   -2.1356 H   0  0  0  0  0  0  0  0  0  0  0  0
    0.8374   -2.4157   -0.6272 H   0  0  0  0  0  0  0  0  0  0  0  0
    0.2374   -1.4777    0.7647 H   0  0  0  0  0  0  0  0  0  0  0  0
    2.7162   -1.3156    0.1336 H   0  0  0  0  0  0  0  0  0  0  0  0
    2.2177   -0.5396   -1.3923 H   0  0  0  0  0  0  0  0  0  0  0  0
    1.5932    2.5221   -0.0064 H   0  0  0  0  0  0  0  0  0  0  0  0
    1.4269    1.3283   -1.4022 H   0  0  0  0  0  0  0  0  0  0  0  0
  1  2  1  0
  2  3  1  0
  3  4  1  0
  4  5  1  0
  5  6  1  0
  6  7  1  0
  7  8  1  0
  8  9  2  0
  8  2  1  0
  1 10  1  0
  1 11  1  0
  1 12  1  0
  2 13  1  0
  3 14  1  0
  3 15  1  0
  4 16  1  0
  4 17  1  0
  5 18  1  0
  5 19  1  0
  7 20  1  0
  7 21  1  0
M  END
