
     RDKit          3D

 16 16  0  0  0  0  0  0  0  0999 V2000
   -1.9174   -0.7853    0.0506 C   0  0  0  0  0  0  0  0  0  0  0  0
   -0.6433   -0.4658   -0.6729 C   0  0  0  0  0  0  0  0  0  0  0  0
   -0.3058    1.0235   -0.6329 C   0  0  0  0  0  0  0  0  0  0  0  0
   -0.9855    1.8372    0.2562 O   0  0  0  0  0  0  0  0  0  0  0  0
    0.5704   -0.0074    0.0292 C   0  0  0  0  0  0  0  0  0  0  0  0
    1.8136   -0.1683   -0.5968 O   0  0  0  0  0  0  0  0  0  0  0  0
    3.0030   -0.4158    0.0777 C   0  0  0  0  0  0  0  0  0  0  0  0
    2.9545   -0.4991    1.3229 O   0  0  0  0  0  0  0  0  0  0  0  0
   -2.0418   -0.1747    0.9692 H   0  0  0  0  0  0  0  0  0  0  0  0
   -2.7589   -0.6037   -0.6657 H   0  0  0  0  0  0  0  0  0  0  0  0
   -1.9812   -1.8587    0.3146 H   0  0  0  0  0  0  0  0  0  0  0  0
   -0.4871   -1.0107   -1.6121 H   0  0  0  0  0  0  0  0  0  0  0  0
   -0.0102    1.4489   -1.6012 H   0  0  0  0  0  0  0  0  0  0  0  0
   -1.7580    2.3089   -0.1744 H   0  0  0  0  0  0  0  0  0  0  0  0
    0.5918   -0.0910    1.1206 H   0  0  0  0  0  0  0  0  0  0  0  0
    3.9557   -0.5380   -0.4164 H   0  0  0  0  0  0  0  0  0  0  0  0
  1  2  1  0
  2  3  1  0
  3  4  1  0
  3  5  1  0
  5  6  1  0
  6  7  1  0
  7  8  2  0
  5  2  1  0
  1  9  1  0
  1 10  1  0
  1 11  1  0
  2 12  1  0
  3 13  1  0
  4 14  1  0
  5 15  1  0
  7 16  1  0
M  END
