
     RDKit          3D

 21 22  0  0  0  0  0  0  0  0999 V2000
    2.7109   -0.4574    0.4993 C   0  0  0  0  0  0  0  0  0  0  0  0
    1.5546    0.4485    0.1469 C   0  0  0  0  0  0  0  0  0  0  0  0
    0.3493    0.0990    0.9992 C   0  0  0  0  0  0  0  0  0  0  0  0
   -0.4450   -0.0486   -0.2796 C   0  0  0  0  0  0  0  0  0  0  0  0
   -1.3701    1.0780   -0.4450 C   0  0  0  0  0  0  0  0  0  0  0  0
   -2.6037    0.6206   -0.3159 C   0  0  0  0  0  0  0  0  0  0  0  0
   -2.5079   -0.8393   -0.0592 C   0  0  0  0  0  0  0  0  0  0  0  0
   -1.2032   -1.1835   -0.3965 O   0  0  0  0  0  0  0  0  0  0  0  0
    0.8164    0.0040   -1.0985 C   0  0  0  0  0  0  0  0  0  0  0  0
    2.5844   -1.4668    0.0948 H   0  0  0  0  0  0  0  0  0  0  0  0
    2.7650   -0.5555    1.6116 H   0  0  0  0  0  0  0  0  0  0  0  0
    3.6315    0.0492    0.1772 H   0  0  0  0  0  0  0  0  0  0  0  0
    1.7917    1.5250    0.0815 H   0  0  0  0  0  0  0  0  0  0  0  0
    0.0687    0.9890    1.6149 H   0  0  0  0  0  0  0  0  0  0  0  0
    0.4648   -0.8294    1.5946 H   0  0  0  0  0  0  0  0  0  0  0  0
   -1.1237    2.1275   -0.6417 H   0  0  0  0  0  0  0  0  0  0  0  0
   -3.5452    1.2005   -0.3834 H   0  0  0  0  0  0  0  0  0  0  0  0
   -3.1652   -1.3791   -0.8012 H   0  0  0  0  0  0  0  0  0  0  0  0
   -2.7385   -1.1087    0.9734 H   0  0  0  0  0  0  0  0  0  0  0  0
    1.1596   -0.9896   -1.4396 H   0  0  0  0  0  0  0  0  0  0  0  0
    0.8057    0.7167   -1.9329 H   0  0  0  0  0  0  0  0  0  0  0  0
  1  2  1  0
  2  3  1  0
  3  4  1  0
  4  5  1  0
  5  6  2  0
  6  7  1  0
  7  8  1  0
  4  9  1  0
  9  2  1  0
  8  4  1  0
  1 10  1  0
  1 11  1  0
  1 12  1  0
  2 13  1  0
  3 14  1  0
  3 15  1  0
  5 16  1  0
  6 17  1  0
  7 18  1  0
  7 19  1  0
  9 20  1  0
  9 21  1  0
M  END
