
     RDKit          3D

 21 22  0  0  0  0  0  0  0  0999 V2000
   -1.8905   -0.5248   -0.7831 C   0  0  0  0  0  0  0  0  0  0  0  0
   -0.9686   -0.4426    0.3795 C   0  0  0  0  0  0  0  0  0  0  0  0
   -0.9873    0.9969    0.9182 C   0  0  0  0  0  0  0  0  0  0  0  0
   -0.1650    1.6904   -0.1021 C   0  0  0  0  0  0  0  0  0  0  0  0
    0.6811    0.8388   -0.6373 C   0  0  0  0  0  0  0  0  0  0  0  0
    1.7018    0.0522   -1.3624 C   0  0  0  0  0  0  0  0  0  0  0  0
    0.7989   -1.0393   -1.2371 O   0  0  0  0  0  0  0  0  0  0  0  0
    0.4942   -0.5272   -0.0036 C   0  0  0  0  0  0  0  0  0  0  0  0
    1.4242   -0.8180    1.1236 C   0  0  0  0  0  0  0  0  0  0  0  0
   -2.5630   -1.4133   -0.6678 H   0  0  0  0  0  0  0  0  0  0  0  0
   -2.5936    0.3582   -0.7897 H   0  0  0  0  0  0  0  0  0  0  0  0
   -1.3432   -0.5965   -1.7460 H   0  0  0  0  0  0  0  0  0  0  0  0
   -1.2065   -1.1716    1.1608 H   0  0  0  0  0  0  0  0  0  0  0  0
   -0.4460    0.9791    1.8891 H   0  0  0  0  0  0  0  0  0  0  0  0
   -2.0107    1.3855    1.0019 H   0  0  0  0  0  0  0  0  0  0  0  0
   -0.2724    2.7548   -0.3485 H   0  0  0  0  0  0  0  0  0  0  0  0
    2.5678   -0.1668   -0.7113 H   0  0  0  0  0  0  0  0  0  0  0  0
    1.9160    0.3443   -2.3935 H   0  0  0  0  0  0  0  0  0  0  0  0
    1.9714   -1.7611    0.9346 H   0  0  0  0  0  0  0  0  0  0  0  0
    2.0762    0.0458    1.3177 H   0  0  0  0  0  0  0  0  0  0  0  0
    0.8152   -0.9848    2.0568 H   0  0  0  0  0  0  0  0  0  0  0  0
  1  2  1  0
  2  3  1  0
  3  4  1  0
  4  5  2  0
  5  6  1  0
  6  7  1  0
  7  8  1  0
  8  9  1  0
  8  2  1  0
  8  5  1  0
  1 10  1  0
  1 11  1  0
  1 12  1  0
  2 13  1  0
  3 14  1  0
  3 15  1  0
  4 16  1  0
  6 17  1  0
  6 18  1  0
  9 19  1  0
  9 20  1  0
  9 21  1  0
M  END
