
     RDKit          3D

 23 24  0  0  0  0  0  0  0  0999 V2000
    2.8890    0.2657    0.5556 C   0  0  0  0  0  0  0  0  0  0  0  0
    1.7578    0.0117   -0.3560 C   0  0  0  0  0  0  0  0  0  0  0  0
    0.4835    0.8261   -0.0808 C   0  0  0  0  0  0  0  0  0  0  0  0
   -0.2251   -0.3519   -0.6657 C   0  0  0  0  0  0  0  0  0  0  0  0
   -0.0852   -0.4142   -2.0283 O   0  0  0  0  0  0  0  0  0  0  0  0
   -1.6077   -0.6307   -0.2126 C   0  0  0  0  0  0  0  0  0  0  0  0
   -2.5896    0.5254   -0.4944 C   0  0  0  0  0  0  0  0  0  0  0  0
   -2.2759    0.0382    0.8969 C   0  0  0  0  0  0  0  0  0  0  0  0
    0.8717   -1.1915    0.0017 C   0  0  0  0  0  0  0  0  0  0  0  0
    2.6112    0.9127    1.4108 H   0  0  0  0  0  0  0  0  0  0  0  0
    3.6674    0.8535   -0.0145 H   0  0  0  0  0  0  0  0  0  0  0  0
    3.3541   -0.6906    0.9367 H   0  0  0  0  0  0  0  0  0  0  0  0
    1.9404    0.0247   -1.4408 H   0  0  0  0  0  0  0  0  0  0  0  0
    0.3285    0.9911    1.0105 H   0  0  0  0  0  0  0  0  0  0  0  0
    0.5128    1.7423   -0.6701 H   0  0  0  0  0  0  0  0  0  0  0  0
   -0.8032    0.1053   -2.4664 H   0  0  0  0  0  0  0  0  0  0  0  0
   -1.9797   -1.6460   -0.5038 H   0  0  0  0  0  0  0  0  0  0  0  0
   -2.1622    1.5124   -0.7379 H   0  0  0  0  0  0  0  0  0  0  0  0
   -3.5664    0.2332   -0.9594 H   0  0  0  0  0  0  0  0  0  0  0  0
   -1.7746    0.7298    1.5975 H   0  0  0  0  0  0  0  0  0  0  0  0
   -3.1319   -0.5030    1.3801 H   0  0  0  0  0  0  0  0  0  0  0  0
    1.1077   -2.1034   -0.5378 H   0  0  0  0  0  0  0  0  0  0  0  0
    0.6774   -1.2409    1.0752 H   0  0  0  0  0  0  0  0  0  0  0  0
  1  2  1  0
  2  3  1  0
  3  4  1  0
  4  5  1  0
  4  6  1  0
  6  7  1  0
  7  8  1  0
  4  9  1  0
  9  2  1  0
  8  6  1  0
  1 10  1  0
  1 11  1  0
  1 12  1  0
  2 13  1  0
  3 14  1  0
  3 15  1  0
  5 16  1  0
  6 17  1  0
  7 18  1  0
  7 19  1  0
  8 20  1  0
  8 21  1  0
  9 22  1  0
  9 23  1  0
M  END
