
     RDKit          3D

 17 17  0  0  0  0  0  0  0  0999 V2000
   -1.5892   -1.2550   -0.2542 C   0  0  0  0  0  0  0  0  0  0  0  0
   -0.4346   -0.5054    0.4064 C   0  0  0  0  0  0  0  0  0  0  0  0
   -0.5782    0.9794    0.2539 C   0  0  0  0  0  0  0  0  0  0  0  0
    0.6901    1.7121   -0.0297 C   0  0  0  0  0  0  0  0  0  0  0  0
    1.8399    1.0674    0.5465 O   0  0  0  0  0  0  0  0  0  0  0  0
    2.0418   -0.2408    0.1188 C   0  0  0  0  0  0  0  0  0  0  0  0
    3.1619   -0.7857    0.0050 O   0  0  0  0  0  0  0  0  0  0  0  0
    0.8245   -0.9935   -0.2100 C   0  0  0  0  0  0  0  0  0  0  0  0
    0.8654   -2.0043   -0.9815 O   0  0  0  0  0  0  0  0  0  0  0  0
   -1.2016   -2.1783   -0.7498 H   0  0  0  0  0  0  0  0  0  0  0  0
   -2.2958   -1.5935    0.5325 H   0  0  0  0  0  0  0  0  0  0  0  0
   -2.0417   -0.5485   -0.9630 H   0  0  0  0  0  0  0  0  0  0  0  0
   -0.4365   -0.7620    1.5064 H   0  0  0  0  0  0  0  0  0  0  0  0
   -1.2703    1.1461   -0.6167 H   0  0  0  0  0  0  0  0  0  0  0  0
   -1.0419    1.4405    1.1720 H   0  0  0  0  0  0  0  0  0  0  0  0
    0.8228    1.7960   -1.1369 H   0  0  0  0  0  0  0  0  0  0  0  0
    0.6436    2.7253    0.4004 H   0  0  0  0  0  0  0  0  0  0  0  0
  1  2  1  0
  2  3  1  0
  3  4  1  0
  4  5  1  0
  5  6  1  0
  6  7  2  0
  6  8  1  0
  8  9  2  0
  8  2  1  0
  1 10  1  0
  1 11  1  0
  1 12  1  0
  2 13  1  0
  3 14  1  0
  3 15  1  0
  4 16  1  0
  4 17  1  0
M  END
