
     RDKit          3D

 25 25  0  0  0  0  0  0  0  0999 V2000
   -2.6921    0.9983    0.1669 C   0  0  0  0  0  0  0  0  0  0  0  0
   -1.7923   -0.1586    0.5295 C   0  0  0  0  0  0  0  0  0  0  0  0
   -1.5934   -1.1220   -0.5918 C   0  0  0  0  0  0  0  0  0  0  0  0
   -0.1398   -1.4929   -0.6396 C   0  0  0  0  0  0  0  0  0  0  0  0
    0.5671   -0.6849    0.3975 C   0  0  0  0  0  0  0  0  0  0  0  0
    1.7971   -0.0295   -0.1935 C   0  0  0  0  0  0  0  0  0  0  0  0
    2.5495    0.7960    0.8004 C   0  0  0  0  0  0  0  0  0  0  0  0
    3.6507    1.3469    0.1572 O   0  0  0  0  0  0  0  0  0  0  0  0
   -0.4097    0.4068    0.7663 C   0  0  0  0  0  0  0  0  0  0  0  0
   -3.3986    0.7091   -0.6342 H   0  0  0  0  0  0  0  0  0  0  0  0
   -3.2345    1.3622    1.0620 H   0  0  0  0  0  0  0  0  0  0  0  0
   -2.0971    1.8604   -0.2113 H   0  0  0  0  0  0  0  0  0  0  0  0
   -2.1551   -0.6203    1.4647 H   0  0  0  0  0  0  0  0  0  0  0  0
   -2.1929   -2.0562   -0.4451 H   0  0  0  0  0  0  0  0  0  0  0  0
   -1.9525   -0.6910   -1.5531 H   0  0  0  0  0  0  0  0  0  0  0  0
    0.0052   -2.5723   -0.4578 H   0  0  0  0  0  0  0  0  0  0  0  0
    0.2493   -1.2379   -1.6340 H   0  0  0  0  0  0  0  0  0  0  0  0
    0.8056   -1.2819    1.2938 H   0  0  0  0  0  0  0  0  0  0  0  0
    2.4947   -0.7754   -0.6455 H   0  0  0  0  0  0  0  0  0  0  0  0
    1.4661    0.6444   -1.0112 H   0  0  0  0  0  0  0  0  0  0  0  0
    2.8824    0.2412    1.6880 H   0  0  0  0  0  0  0  0  0  0  0  0
    1.9094    1.6368    1.1325 H   0  0  0  0  0  0  0  0  0  0  0  0
    3.9002    0.7600   -0.6041 H   0  0  0  0  0  0  0  0  0  0  0  0
   -0.2657    1.2425    0.0374 H   0  0  0  0  0  0  0  0  0  0  0  0
   -0.3539    0.7185    1.8110 H   0  0  0  0  0  0  0  0  0  0  0  0
  1  2  1  0
  2  3  1  0
  3  4  1  0
  4  5  1  0
  5  6  1  0
  6  7  1  0
  7  8  1  0
  5  9  1  0
  9  2  1  0
  1 10  1  0
  1 11  1  0
  1 12  1  0
  2 13  1  0
  3 14  1  0
  3 15  1  0
  4 16  1  0
  4 17  1  0
  5 18  1  0
  6 19  1  0
  6 20  1  0
  7 21  1  0
  7 22  1  0
  8 23  1  0
  9 24  1  0
  9 25  1  0
M  END
