
     RDKit          3D

 23 24  0  0  0  0  0  0  0  0999 V2000
   -2.5941    0.9516   -0.1282 C   0  0  0  0  0  0  0  0  0  0  0  0
   -1.2162    0.8576    0.4420 C   0  0  0  0  0  0  0  0  0  0  0  0
   -0.1401    0.5377   -0.5312 C   0  0  0  0  0  0  0  0  0  0  0  0
    1.2581    0.6241    0.0362 C   0  0  0  0  0  0  0  0  0  0  0  0
    2.3347    0.3416   -0.9614 C   0  0  0  0  0  0  0  0  0  0  0  0
    3.5756    0.4538   -0.3117 O   0  0  0  0  0  0  0  0  0  0  0  0
    0.8944   -0.5025    0.9669 C   0  0  0  0  0  0  0  0  0  0  0  0
   -0.5149   -0.4348    0.5106 C   0  0  0  0  0  0  0  0  0  0  0  0
   -1.2177   -1.7195    0.2081 C   0  0  0  0  0  0  0  0  0  0  0  0
   -3.2626    0.1372    0.1935 H   0  0  0  0  0  0  0  0  0  0  0  0
   -2.5898    0.9142   -1.2546 H   0  0  0  0  0  0  0  0  0  0  0  0
   -3.0242    1.9652    0.1051 H   0  0  0  0  0  0  0  0  0  0  0  0
   -0.9405    1.5896    1.2508 H   0  0  0  0  0  0  0  0  0  0  0  0
   -0.3142    0.3621   -1.5872 H   0  0  0  0  0  0  0  0  0  0  0  0
    1.4308    1.5631    0.5644 H   0  0  0  0  0  0  0  0  0  0  0  0
    2.2756    1.1427   -1.7455 H   0  0  0  0  0  0  0  0  0  0  0  0
    2.2424   -0.6534   -1.4413 H   0  0  0  0  0  0  0  0  0  0  0  0
    3.5613   -0.1798    0.4486 H   0  0  0  0  0  0  0  0  0  0  0  0
    1.4414   -1.4461    0.7024 H   0  0  0  0  0  0  0  0  0  0  0  0
    0.9914   -0.2374    2.0420 H   0  0  0  0  0  0  0  0  0  0  0  0
   -1.0603   -2.1071   -0.8028 H   0  0  0  0  0  0  0  0  0  0  0  0
   -0.8185   -2.4921    0.9149 H   0  0  0  0  0  0  0  0  0  0  0  0
   -2.3127   -1.6678    0.3782 H   0  0  0  0  0  0  0  0  0  0  0  0
  1  2  1  0
  2  3  1  0
  3  4  1  0
  4  5  1  0
  5  6  1  0
  4  7  1  0
  7  8  1  0
  8  9  1  0
  8  2  1  0
  8  3  1  0
  1 10  1  0
  1 11  1  0
  1 12  1  0
  2 13  1  0
  3 14  1  0
  4 15  1  0
  5 16  1  0
  5 17  1  0
  6 18  1  0
  7 19  1  0
  7 20  1  0
  9 21  1  0
  9 22  1  0
  9 23  1  0
M  END
