
     RDKit          3D

 23 24  0  0  0  0  0  0  0  0999 V2000
    1.9314    0.8886    0.3433 C   0  0  0  0  0  0  0  0  0  0  0  0
    0.8749    0.0257   -0.3603 C   0  0  0  0  0  0  0  0  0  0  0  0
    1.2202   -1.3785   -0.0638 C   0  0  0  0  0  0  0  0  0  0  0  0
    0.2774   -2.3237   -0.2829 O   0  0  0  0  0  0  0  0  0  0  0  0
   -1.0164   -2.0002   -0.0599 C   0  0  0  0  0  0  0  0  0  0  0  0
   -1.2412   -0.6824    0.6101 C   0  0  0  0  0  0  0  0  0  0  0  0
   -0.5116    0.4523   -0.0539 C   0  0  0  0  0  0  0  0  0  0  0  0
   -1.1805    1.3611   -1.0039 C   0  0  0  0  0  0  0  0  0  0  0  0
   -0.8778    1.8085    0.3804 C   0  0  0  0  0  0  0  0  0  0  0  0
    1.7318    1.9507    0.2067 H   0  0  0  0  0  0  0  0  0  0  0  0
    2.8997    0.6817   -0.1994 H   0  0  0  0  0  0  0  0  0  0  0  0
    2.0812    0.5613    1.3792 H   0  0  0  0  0  0  0  0  0  0  0  0
    1.0652    0.2024   -1.4600 H   0  0  0  0  0  0  0  0  0  0  0  0
    2.1169   -1.6522   -0.6994 H   0  0  0  0  0  0  0  0  0  0  0  0
    1.6184   -1.4659    0.9907 H   0  0  0  0  0  0  0  0  0  0  0  0
   -1.5861   -2.0134   -1.0177 H   0  0  0  0  0  0  0  0  0  0  0  0
   -1.5029   -2.7803    0.5775 H   0  0  0  0  0  0  0  0  0  0  0  0
   -0.8760   -0.7131    1.6738 H   0  0  0  0  0  0  0  0  0  0  0  0
   -2.3445   -0.4990    0.6178 H   0  0  0  0  0  0  0  0  0  0  0  0
   -2.2004    1.2124   -1.3720 H   0  0  0  0  0  0  0  0  0  0  0  0
   -0.5162    1.8325   -1.7842 H   0  0  0  0  0  0  0  0  0  0  0  0
   -0.1654    2.6175    0.5494 H   0  0  0  0  0  0  0  0  0  0  0  0
   -1.7981    1.9141    1.0284 H   0  0  0  0  0  0  0  0  0  0  0  0
  1  2  1  0
  2  3  1  0
  3  4  1  0
  4  5  1  0
  5  6  1  0
  6  7  1  0
  7  8  1  0
  8  9  1  0
  7  2  1  0
  9  7  1  0
  1 10  1  0
  1 11  1  0
  1 12  1  0
  2 13  1  0
  3 14  1  0
  3 15  1  0
  5 16  1  0
  5 17  1  0
  6 18  1  0
  6 19  1  0
  8 20  1  0
  8 21  1  0
  9 22  1  0
  9 23  1  0
M  END
