
     RDKit          3D

 23 23  0  0  0  0  0  0  0  0999 V2000
   -2.4433    0.6587   -0.1004 C   0  0  0  0  0  0  0  0  0  0  0  0
   -1.1951    0.2916    0.6703 C   0  0  0  0  0  0  0  0  0  0  0  0
   -0.9359   -1.1947    0.5300 C   0  0  0  0  0  0  0  0  0  0  0  0
   -0.0815   -1.2336   -0.7243 C   0  0  0  0  0  0  0  0  0  0  0  0
    0.8343   -0.0366   -0.6117 C   0  0  0  0  0  0  0  0  0  0  0  0
    1.2058    0.3177   -1.9083 O   0  0  0  0  0  0  0  0  0  0  0  0
    2.0530   -0.3257    0.2262 C   0  0  0  0  0  0  0  0  0  0  0  0
    2.8276    0.8328    0.2530 O   0  0  0  0  0  0  0  0  0  0  0  0
   -0.0297    0.9932    0.0441 C   0  0  0  0  0  0  0  0  0  0  0  0
   -3.3300    0.3127    0.4705 H   0  0  0  0  0  0  0  0  0  0  0  0
   -2.5033    1.7643   -0.1201 H   0  0  0  0  0  0  0  0  0  0  0  0
   -2.4376    0.2535   -1.1390 H   0  0  0  0  0  0  0  0  0  0  0  0
   -1.3516    0.5363    1.7243 H   0  0  0  0  0  0  0  0  0  0  0  0
   -1.9371   -1.6708    0.3178 H   0  0  0  0  0  0  0  0  0  0  0  0
   -0.4441   -1.6372    1.4008 H   0  0  0  0  0  0  0  0  0  0  0  0
   -0.7758   -1.0056   -1.5826 H   0  0  0  0  0  0  0  0  0  0  0  0
    0.4465   -2.1760   -0.8642 H   0  0  0  0  0  0  0  0  0  0  0  0
    1.8343    1.0886   -1.8940 H   0  0  0  0  0  0  0  0  0  0  0  0
    2.6185   -1.1957   -0.1017 H   0  0  0  0  0  0  0  0  0  0  0  0
    1.6859   -0.4775    1.2820 H   0  0  0  0  0  0  0  0  0  0  0  0
    3.7840    0.6576    0.4288 H   0  0  0  0  0  0  0  0  0  0  0  0
   -0.3638    1.7605   -0.6806 H   0  0  0  0  0  0  0  0  0  0  0  0
    0.5388    1.4860    0.8817 H   0  0  0  0  0  0  0  0  0  0  0  0
  1  2  1  0
  2  3  1  0
  3  4  1  0
  4  5  1  0
  5  6  1  0
  5  7  1  0
  7  8  1  0
  5  9  1  0
  9  2  1  0
  1 10  1  0
  1 11  1  0
  1 12  1  0
  2 13  1  0
  3 14  1  0
  3 15  1  0
  4 16  1  0
  4 17  1  0
  6 18  1  0
  7 19  1  0
  7 20  1  0
  8 21  1  0
  9 22  1  0
  9 23  1  0
M  END
