
     RDKit          3D

 21 22  0  0  0  0  0  0  0  0999 V2000
    2.4798   -0.0903    0.6891 C   0  0  0  0  0  0  0  0  0  0  0  0
    1.0803   -0.5913    0.3908 C   0  0  0  0  0  0  0  0  0  0  0  0
    0.6711   -0.1714   -1.0361 C   0  0  0  0  0  0  0  0  0  0  0  0
   -0.1918    0.9702   -0.6779 C   0  0  0  0  0  0  0  0  0  0  0  0
   -1.5386    1.1616   -0.3312 C   0  0  0  0  0  0  0  0  0  0  0  0
   -1.9569    2.2906    0.4204 O   0  0  0  0  0  0  0  0  0  0  0  0
   -0.9495    0.1187    0.4237 C   0  0  0  0  0  0  0  0  0  0  0  0
   -1.4383   -1.2535    0.0037 C   0  0  0  0  0  0  0  0  0  0  0  0
    0.1331    0.0339    1.2260 O   0  0  0  0  0  0  0  0  0  0  0  0
    2.6351    0.9541    0.3578 H   0  0  0  0  0  0  0  0  0  0  0  0
    2.6415   -0.2325    1.7771 H   0  0  0  0  0  0  0  0  0  0  0  0
    3.1785   -0.7849    0.1758 H   0  0  0  0  0  0  0  0  0  0  0  0
    1.1118   -1.6826    0.5026 H   0  0  0  0  0  0  0  0  0  0  0  0
    1.5880    0.1733   -1.5780 H   0  0  0  0  0  0  0  0  0  0  0  0
    0.2492   -0.9794   -1.6076 H   0  0  0  0  0  0  0  0  0  0  0  0
    0.4809    1.7867   -0.2533 H   0  0  0  0  0  0  0  0  0  0  0  0
   -2.3115    0.9668   -1.1087 H   0  0  0  0  0  0  0  0  0  0  0  0
   -2.8561    2.0781    0.7833 H   0  0  0  0  0  0  0  0  0  0  0  0
   -2.4556   -1.3352    0.5054 H   0  0  0  0  0  0  0  0  0  0  0  0
   -0.8702   -2.0931    0.4087 H   0  0  0  0  0  0  0  0  0  0  0  0
   -1.6806   -1.3197   -1.0717 H   0  0  0  0  0  0  0  0  0  0  0  0
  1  2  1  0
  2  3  1  0
  3  4  1  0
  4  5  1  0
  5  6  1  0
  5  7  1  0
  7  8  1  0
  7  9  1  0
  9  2  1  0
  7  4  1  0
  1 10  1  0
  1 11  1  0
  1 12  1  0
  2 13  1  0
  3 14  1  0
  3 15  1  0
  4 16  1  0
  5 17  1  0
  6 18  1  0
  8 19  1  0
  8 20  1  0
  8 21  1  0
M  END
