
     RDKit          3D

 18 18  0  0  0  0  0  0  0  0999 V2000
   -2.2928   -0.5722    0.3238 C   0  0  0  0  0  0  0  0  0  0  0  0
   -0.9059   -0.4041   -0.2961 C   0  0  0  0  0  0  0  0  0  0  0  0
   -0.6518    1.0368   -0.4173 C   0  0  0  0  0  0  0  0  0  0  0  0
    0.4521    1.7213   -0.1670 C   0  0  0  0  0  0  0  0  0  0  0  0
    1.7010    1.1183    0.3080 C   0  0  0  0  0  0  0  0  0  0  0  0
    2.0856   -0.1509    0.3682 C   0  0  0  0  0  0  0  0  0  0  0  0
    1.2261   -1.2913   -0.0823 C   0  0  0  0  0  0  0  0  0  0  0  0
   -0.0188   -1.0844    0.4854 O   0  0  0  0  0  0  0  0  0  0  0  0
   -2.7600    0.4014    0.5542 H   0  0  0  0  0  0  0  0  0  0  0  0
   -2.2562   -1.1701    1.2517 H   0  0  0  0  0  0  0  0  0  0  0  0
   -2.9852   -1.0725   -0.4056 H   0  0  0  0  0  0  0  0  0  0  0  0
   -0.8836   -0.8312   -1.3378 H   0  0  0  0  0  0  0  0  0  0  0  0
   -1.4962    1.6055   -0.7609 H   0  0  0  0  0  0  0  0  0  0  0  0
    0.4406    2.7940   -0.3201 H   0  0  0  0  0  0  0  0  0  0  0  0
    2.4386    1.8359    0.6739 H   0  0  0  0  0  0  0  0  0  0  0  0
    3.0639   -0.3815    0.7596 H   0  0  0  0  0  0  0  0  0  0  0  0
    1.6723   -2.2427    0.2722 H   0  0  0  0  0  0  0  0  0  0  0  0
    1.1702   -1.3121   -1.2098 H   0  0  0  0  0  0  0  0  0  0  0  0
  1  2  1  0
  2  3  1  0
  3  4  2  0
  4  5  1  0
  5  6  2  0
  6  7  1  0
  7  8  1  0
  8  2  1  0
  1  9  1  0
  1 10  1  0
  1 11  1  0
  2 12  1  0
  3 13  1  0
  4 14  1  0
  5 15  1  0
  6 16  1  0
  7 17  1  0
  7 18  1  0
M  END
