
     RDKit          3D

 16 17  0  0  0  0  0  0  0  0999 V2000
    1.8741    0.4333   -0.2318 C   0  0  0  0  0  0  0  0  0  0  0  0
    0.3951    0.3066   -0.4285 C   0  0  0  0  0  0  0  0  0  0  0  0
   -0.0781   -1.1249   -0.0791 C   0  0  0  0  0  0  0  0  0  0  0  0
   -1.4853   -0.8966    0.3464 C   0  0  0  0  0  0  0  0  0  0  0  0
   -2.1945   -1.7189    0.8525 O   0  0  0  0  0  0  0  0  0  0  0  0
   -1.7715    0.4789    0.0196 C   0  0  0  0  0  0  0  0  0  0  0  0
   -1.5705    1.6348    0.5929 O   0  0  0  0  0  0  0  0  0  0  0  0
   -0.4236    1.0233    0.6001 C   0  0  0  0  0  0  0  0  0  0  0  0
    2.3714   -0.1873   -0.9968 H   0  0  0  0  0  0  0  0  0  0  0  0
    2.1735    0.0940    0.7800 H   0  0  0  0  0  0  0  0  0  0  0  0
    2.1403    1.4940   -0.3585 H   0  0  0  0  0  0  0  0  0  0  0  0
    0.1223    0.5366   -1.4713 H   0  0  0  0  0  0  0  0  0  0  0  0
    0.4770   -1.4867    0.8076 H   0  0  0  0  0  0  0  0  0  0  0  0
    0.0087   -1.7882   -0.9515 H   0  0  0  0  0  0  0  0  0  0  0  0
   -1.8844    0.5862   -1.1075 H   0  0  0  0  0  0  0  0  0  0  0  0
   -0.1546    0.6149    1.6258 H   0  0  0  0  0  0  0  0  0  0  0  0
  1  2  1  0
  2  3  1  0
  3  4  1  0
  4  5  2  0
  4  6  1  0
  6  7  1  0
  7  8  1  0
  8  2  1  0
  8  6  1  0
  1  9  1  0
  1 10  1  0
  1 11  1  0
  2 12  1  0
  3 13  1  0
  3 14  1  0
  6 15  1  0
  8 16  1  0
M  END
