
     RDKit          3D

 21 22  0  0  0  0  0  0  0  0999 V2000
    2.5501    0.0215    0.2394 C   0  0  0  0  0  0  0  0  0  0  0  0
    1.1177   -0.0014   -0.3079 C   0  0  0  0  0  0  0  0  0  0  0  0
    0.4379   -1.2985   -0.0264 C   0  0  0  0  0  0  0  0  0  0  0  0
   -0.6054   -1.3399   -0.9847 O   0  0  0  0  0  0  0  0  0  0  0  0
   -1.7486   -0.9991   -0.3258 C   0  0  0  0  0  0  0  0  0  0  0  0
   -2.0241    0.4234   -0.1168 C   0  0  0  0  0  0  0  0  0  0  0  0
   -0.9610    1.4004   -0.0121 C   0  0  0  0  0  0  0  0  0  0  0  0
   -0.2916    1.2666    1.3387 O   0  0  0  0  0  0  0  0  0  0  0  0
    0.3734    1.2183    0.1158 C   0  0  0  0  0  0  0  0  0  0  0  0
    2.8082    0.9915    0.6775 H   0  0  0  0  0  0  0  0  0  0  0  0
    3.2927   -0.2070   -0.5456 H   0  0  0  0  0  0  0  0  0  0  0  0
    2.6433   -0.8000    0.9993 H   0  0  0  0  0  0  0  0  0  0  0  0
    1.2393    0.0685   -1.4305 H   0  0  0  0  0  0  0  0  0  0  0  0
    1.1676   -2.1129   -0.2001 H   0  0  0  0  0  0  0  0  0  0  0  0
    0.0425   -1.3944    0.9949 H   0  0  0  0  0  0  0  0  0  0  0  0
   -1.7349   -1.5528    0.6614 H   0  0  0  0  0  0  0  0  0  0  0  0
   -2.5860   -1.5226   -0.8836 H   0  0  0  0  0  0  0  0  0  0  0  0
   -2.6949    0.5147    0.7935 H   0  0  0  0  0  0  0  0  0  0  0  0
   -2.7353    0.7422   -0.9437 H   0  0  0  0  0  0  0  0  0  0  0  0
   -1.3585    2.4674   -0.0700 H   0  0  0  0  0  0  0  0  0  0  0  0
    1.0676    2.1141    0.0267 H   0  0  0  0  0  0  0  0  0  0  0  0
  1  2  1  0
  2  3  1  0
  3  4  1  0
  4  5  1  0
  5  6  1  0
  6  7  1  0
  7  8  1  0
  8  9  1  0
  9  2  1  0
  9  7  1  0
  1 10  1  0
  1 11  1  0
  1 12  1  0
  2 13  1  0
  3 14  1  0
  3 15  1  0
  5 16  1  0
  5 17  1  0
  6 18  1  0
  6 19  1  0
  7 20  1  0
  9 21  1  0
M  END
