
     RDKit          3D

 23 24  0  0  0  0  0  0  0  0999 V2000
   -2.3315   -0.1924    0.8246 C   0  0  0  0  0  0  0  0  0  0  0  0
   -1.1652    0.5762    0.2922 C   0  0  0  0  0  0  0  0  0  0  0  0
   -1.1238    0.5141   -1.2606 C   0  0  0  0  0  0  0  0  0  0  0  0
    0.3419    0.7143   -1.0769 C   0  0  0  0  0  0  0  0  0  0  0  0
    1.6230    1.0297   -1.1559 C   0  0  0  0  0  0  0  0  0  0  0  0
    2.3829    0.4954    0.0364 C   0  0  0  0  0  0  0  0  0  0  0  0
    1.2742    0.2322    1.0632 C   0  0  0  0  0  0  0  0  0  0  0  0
    0.1321   -0.1396    0.1783 C   0  0  0  0  0  0  0  0  0  0  0  0
    0.0763   -1.5981   -0.1438 C   0  0  0  0  0  0  0  0  0  0  0  0
   -2.0577   -0.8330    1.7060 H   0  0  0  0  0  0  0  0  0  0  0  0
   -3.0857    0.5585    1.1845 H   0  0  0  0  0  0  0  0  0  0  0  0
   -2.8176   -0.7762    0.0316 H   0  0  0  0  0  0  0  0  0  0  0  0
   -1.0626    1.5969    0.6665 H   0  0  0  0  0  0  0  0  0  0  0  0
   -1.6717    1.3238   -1.7360 H   0  0  0  0  0  0  0  0  0  0  0  0
   -1.3457   -0.5168   -1.5547 H   0  0  0  0  0  0  0  0  0  0  0  0
    2.1164    1.5865   -1.9343 H   0  0  0  0  0  0  0  0  0  0  0  0
    2.8867   -0.4283   -0.2759 H   0  0  0  0  0  0  0  0  0  0  0  0
    3.0379    1.2636    0.4884 H   0  0  0  0  0  0  0  0  0  0  0  0
    1.5989   -0.5666    1.7567 H   0  0  0  0  0  0  0  0  0  0  0  0
    1.0291    1.1549    1.6231 H   0  0  0  0  0  0  0  0  0  0  0  0
   -0.9597   -2.0090   -0.0440 H   0  0  0  0  0  0  0  0  0  0  0  0
    0.3932   -1.8042   -1.2083 H   0  0  0  0  0  0  0  0  0  0  0  0
    0.7285   -2.1818    0.5389 H   0  0  0  0  0  0  0  0  0  0  0  0
  1  2  1  0
  2  3  1  0
  3  4  1  0
  4  5  2  0
  5  6  1  0
  6  7  1  0
  7  8  1  0
  8  9  1  0
  8  2  1  0
  8  4  1  0
  1 10  1  0
  1 11  1  0
  1 12  1  0
  2 13  1  0
  3 14  1  0
  3 15  1  0
  5 16  1  0
  6 17  1  0
  6 18  1  0
  7 19  1  0
  7 20  1  0
  9 21  1  0
  9 22  1  0
  9 23  1  0
M  END
