
     RDKit          3D

 25 26  0  0  0  0  0  0  0  0999 V2000
   -3.1072    0.5332   -0.0164 C   0  0  0  0  0  0  0  0  0  0  0  0
   -1.6847    0.2456    0.3684 C   0  0  0  0  0  0  0  0  0  0  0  0
   -1.3751   -1.2540    0.2810 C   0  0  0  0  0  0  0  0  0  0  0  0
    0.1544   -1.1714    0.4349 C   0  0  0  0  0  0  0  0  0  0  0  0
    0.4773   -0.1846   -0.6405 C   0  0  0  0  0  0  0  0  0  0  0  0
    1.7700    0.5422   -0.4644 C   0  0  0  0  0  0  0  0  0  0  0  0
    3.0633   -0.1825   -0.4002 C   0  0  0  0  0  0  0  0  0  0  0  0
    2.5303    0.5789    0.7846 C   0  0  0  0  0  0  0  0  0  0  0  0
   -0.6770    0.8017   -0.5944 C   0  0  0  0  0  0  0  0  0  0  0  0
   -3.2099    1.6244   -0.1322 H   0  0  0  0  0  0  0  0  0  0  0  0
   -3.3748    0.0793   -0.9842 H   0  0  0  0  0  0  0  0  0  0  0  0
   -3.7507    0.2274    0.8224 H   0  0  0  0  0  0  0  0  0  0  0  0
   -1.4880    0.6117    1.3834 H   0  0  0  0  0  0  0  0  0  0  0  0
   -1.8341   -1.8175    1.0905 H   0  0  0  0  0  0  0  0  0  0  0  0
   -1.5808   -1.6010   -0.7281 H   0  0  0  0  0  0  0  0  0  0  0  0
    0.6134   -2.1654    0.2768 H   0  0  0  0  0  0  0  0  0  0  0  0
    0.3156   -0.7981    1.4617 H   0  0  0  0  0  0  0  0  0  0  0  0
    0.4800   -0.7511   -1.6104 H   0  0  0  0  0  0  0  0  0  0  0  0
    1.8188    1.4890   -1.0787 H   0  0  0  0  0  0  0  0  0  0  0  0
    3.0809   -1.2832   -0.2504 H   0  0  0  0  0  0  0  0  0  0  0  0
    3.9791    0.2661   -0.8508 H   0  0  0  0  0  0  0  0  0  0  0  0
    2.1649    0.0323    1.6611 H   0  0  0  0  0  0  0  0  0  0  0  0
    3.0546    1.5336    1.0779 H   0  0  0  0  0  0  0  0  0  0  0  0
   -1.1186    0.8523   -1.6081 H   0  0  0  0  0  0  0  0  0  0  0  0
   -0.3018    1.7911   -0.2841 H   0  0  0  0  0  0  0  0  0  0  0  0
  1  2  1  0
  2  3  1  0
  3  4  1  0
  4  5  1  0
  5  6  1  0
  6  7  1  0
  7  8  1  0
  5  9  1  0
  9  2  1  0
  8  6  1  0
  1 10  1  0
  1 11  1  0
  1 12  1  0
  2 13  1  0
  3 14  1  0
  3 15  1  0
  4 16  1  0
  4 17  1  0
  5 18  1  0
  6 19  1  0
  7 20  1  0
  7 21  1  0
  8 22  1  0
  8 23  1  0
  9 24  1  0
  9 25  1  0
M  END
