
     RDKit          3D

 19 20  0  0  0  0  0  0  0  0999 V2000
    2.2537    0.0620    0.7923 C   0  0  0  0  0  0  0  0  0  0  0  0
    1.2584   -0.5241   -0.1920 C   0  0  0  0  0  0  0  0  0  0  0  0
   -0.0697   -0.7470    0.4098 C   0  0  0  0  0  0  0  0  0  0  0  0
   -0.9858    0.0621   -0.0860 C   0  0  0  0  0  0  0  0  0  0  0  0
   -2.4246    0.1027    0.2989 C   0  0  0  0  0  0  0  0  0  0  0  0
   -2.6685   -0.8521    1.2740 O   0  0  0  0  0  0  0  0  0  0  0  0
   -0.4033    0.9645   -1.1112 C   0  0  0  0  0  0  0  0  0  0  0  0
    0.6876    1.7540   -0.7894 O   0  0  0  0  0  0  0  0  0  0  0  0
    1.0034    0.5003   -1.2514 C   0  0  0  0  0  0  0  0  0  0  0  0
    2.7524    0.9750    0.3725 H   0  0  0  0  0  0  0  0  0  0  0  0
    1.7541    0.3259    1.7296 H   0  0  0  0  0  0  0  0  0  0  0  0
    3.0814   -0.6631    1.0092 H   0  0  0  0  0  0  0  0  0  0  0  0
    1.7036   -1.4504   -0.6149 H   0  0  0  0  0  0  0  0  0  0  0  0
   -0.2539   -1.4999    1.1763 H   0  0  0  0  0  0  0  0  0  0  0  0
   -2.6646    1.1130    0.7373 H   0  0  0  0  0  0  0  0  0  0  0  0
   -3.0957   -0.0459   -0.5715 H   0  0  0  0  0  0  0  0  0  0  0  0
   -2.2790   -1.7226    1.0689 H   0  0  0  0  0  0  0  0  0  0  0  0
   -0.9950    1.3017   -1.9626 H   0  0  0  0  0  0  0  0  0  0  0  0
    1.3457    0.3440   -2.2896 H   0  0  0  0  0  0  0  0  0  0  0  0
  1  2  1  0
  2  3  1  0
  3  4  2  0
  4  5  1  0
  5  6  1  0
  4  7  1  0
  7  8  1  0
  8  9  1  0
  9  2  1  0
  9  7  1  0
  1 10  1  0
  1 11  1  0
  1 12  1  0
  2 13  1  0
  3 14  1  0
  5 15  1  0
  5 16  1  0
  6 17  1  0
  7 18  1  0
  9 19  1  0
M  END
