
     RDKit          3D

 20 20  0  0  0  0  0  0  0  0999 V2000
    0.8436    1.8559   -0.0315 C   0  0  0  0  0  0  0  0  0  0  0  0
    0.2921    0.5743    0.5203 C   0  0  0  0  0  0  0  0  0  0  0  0
    1.2069   -0.5890    0.2516 C   0  0  0  0  0  0  0  0  0  0  0  0
    2.3604   -0.2265   -0.4599 O   0  0  0  0  0  0  0  0  0  0  0  0
    0.1398   -1.2308   -0.5845 C   0  0  0  0  0  0  0  0  0  0  0  0
   -0.7873   -0.0924   -0.2544 C   0  0  0  0  0  0  0  0  0  0  0  0
   -1.9057   -0.5887    0.6553 C   0  0  0  0  0  0  0  0  0  0  0  0
   -1.2920    0.5997   -1.3462 O   0  0  0  0  0  0  0  0  0  0  0  0
    0.9842    1.8524   -1.1140 H   0  0  0  0  0  0  0  0  0  0  0  0
    0.2143    2.6833    0.3441 H   0  0  0  0  0  0  0  0  0  0  0  0
    1.8667    1.9878    0.4186 H   0  0  0  0  0  0  0  0  0  0  0  0
    0.0778    0.6949    1.6102 H   0  0  0  0  0  0  0  0  0  0  0  0
    1.4121   -1.2022    1.1609 H   0  0  0  0  0  0  0  0  0  0  0  0
    3.0051   -0.9536   -0.3326 H   0  0  0  0  0  0  0  0  0  0  0  0
    0.4663   -1.2811   -1.6559 H   0  0  0  0  0  0  0  0  0  0  0  0
   -0.1933   -2.2358   -0.2749 H   0  0  0  0  0  0  0  0  0  0  0  0
   -2.6352    0.2252    0.8585 H   0  0  0  0  0  0  0  0  0  0  0  0
   -1.4390   -0.9821    1.5818 H   0  0  0  0  0  0  0  0  0  0  0  0
   -2.3718   -1.4529    0.1291 H   0  0  0  0  0  0  0  0  0  0  0  0
   -2.2450    0.3614   -1.4765 H   0  0  0  0  0  0  0  0  0  0  0  0
  1  2  1  0
  2  3  1  0
  3  4  1  0
  3  5  1  0
  5  6  1  0
  6  7  1  0
  6  8  1  0
  6  2  1  0
  1  9  1  0
  1 10  1  0
  1 11  1  0
  2 12  1  0
  3 13  1  0
  4 14  1  0
  5 15  1  0
  5 16  1  0
  7 17  1  0
  7 18  1  0
  7 19  1  0
  8 20  1  0
M  END
