
     RDKit          3D

 23 24  0  0  0  0  0  0  0  0999 V2000
   -2.3082    1.1416    0.3589 C   0  0  0  0  0  0  0  0  0  0  0  0
   -1.2063    0.4877   -0.4268 C   0  0  0  0  0  0  0  0  0  0  0  0
   -1.4282   -1.0356   -0.3934 C   0  0  0  0  0  0  0  0  0  0  0  0
   -0.0199   -1.6481   -0.3900 C   0  0  0  0  0  0  0  0  0  0  0  0
    0.8511   -0.4991   -0.5723 C   0  0  0  0  0  0  0  0  0  0  0  0
    2.1289   -0.3984    0.1415 C   0  0  0  0  0  0  0  0  0  0  0  0
    2.1729    1.1098    0.4438 C   0  0  0  0  0  0  0  0  0  0  0  0
    0.9124    1.6180    0.0397 O   0  0  0  0  0  0  0  0  0  0  0  0
    0.0912    0.5722    0.2491 C   0  0  0  0  0  0  0  0  0  0  0  0
   -3.2966    0.7890   -0.0206 H   0  0  0  0  0  0  0  0  0  0  0  0
   -2.1929    2.2362    0.2999 H   0  0  0  0  0  0  0  0  0  0  0  0
   -2.1502    0.8405    1.4326 H   0  0  0  0  0  0  0  0  0  0  0  0
   -1.1405    0.8413   -1.4714 H   0  0  0  0  0  0  0  0  0  0  0  0
   -2.0290   -1.3798   -1.2332 H   0  0  0  0  0  0  0  0  0  0  0  0
   -1.8738   -1.2874    0.5995 H   0  0  0  0  0  0  0  0  0  0  0  0
    0.0267   -2.3024   -1.3088 H   0  0  0  0  0  0  0  0  0  0  0  0
    0.1493   -2.2978    0.4636 H   0  0  0  0  0  0  0  0  0  0  0  0
    0.9095   -0.1708   -1.6225 H   0  0  0  0  0  0  0  0  0  0  0  0
    2.0485   -0.9534    1.1128 H   0  0  0  0  0  0  0  0  0  0  0  0
    3.0156   -0.7362   -0.3925 H   0  0  0  0  0  0  0  0  0  0  0  0
    2.9931    1.5910   -0.1421 H   0  0  0  0  0  0  0  0  0  0  0  0
    2.2925    1.2480    1.5355 H   0  0  0  0  0  0  0  0  0  0  0  0
    0.0539    0.2337    1.2969 H   0  0  0  0  0  0  0  0  0  0  0  0
  1  2  1  0
  2  3  1  0
  3  4  1  0
  4  5  1  0
  5  6  1  0
  6  7  1  0
  7  8  1  0
  8  9  1  0
  9  2  1  0
  9  5  1  0
  1 10  1  0
  1 11  1  0
  1 12  1  0
  2 13  1  0
  3 14  1  0
  3 15  1  0
  4 16  1  0
  4 17  1  0
  5 18  1  0
  6 19  1  0
  6 20  1  0
  7 21  1  0
  7 22  1  0
  9 23  1  0
M  END
