
     RDKit          3D

 21 22  0  0  0  0  0  0  0  0999 V2000
   -2.3687   -1.0762   -0.1167 C   0  0  0  0  0  0  0  0  0  0  0  0
   -1.2126   -0.1738   -0.4076 C   0  0  0  0  0  0  0  0  0  0  0  0
   -1.3539    1.1804    0.1743 C   0  0  0  0  0  0  0  0  0  0  0  0
   -0.2435    1.7701    0.5905 C   0  0  0  0  0  0  0  0  0  0  0  0
    0.9766    0.9294    0.6836 C   0  0  0  0  0  0  0  0  0  0  0  0
    0.5392   -0.2760    1.2761 O   0  0  0  0  0  0  0  0  0  0  0  0
    0.1101   -0.7102    0.0302 C   0  0  0  0  0  0  0  0  0  0  0  0
    1.1801    0.1446   -0.5862 C   0  0  0  0  0  0  0  0  0  0  0  0
    2.5035   -0.5057   -0.7516 C   0  0  0  0  0  0  0  0  0  0  0  0
   -3.3063   -0.5008   -0.2747 H   0  0  0  0  0  0  0  0  0  0  0  0
   -2.2968   -1.5026    0.8921 H   0  0  0  0  0  0  0  0  0  0  0  0
   -2.3698   -1.9021   -0.8491 H   0  0  0  0  0  0  0  0  0  0  0  0
   -1.1803   -0.0283   -1.5280 H   0  0  0  0  0  0  0  0  0  0  0  0
   -2.3358    1.6323    0.2386 H   0  0  0  0  0  0  0  0  0  0  0  0
   -0.2417    2.8051    0.8442 H   0  0  0  0  0  0  0  0  0  0  0  0
    1.8521    1.3810    1.1363 H   0  0  0  0  0  0  0  0  0  0  0  0
    0.2508   -1.8027   -0.0716 H   0  0  0  0  0  0  0  0  0  0  0  0
    0.8700    0.7120   -1.4846 H   0  0  0  0  0  0  0  0  0  0  0  0
    3.2301   -0.1959    0.0377 H   0  0  0  0  0  0  0  0  0  0  0  0
    2.3876   -1.6204   -0.7328 H   0  0  0  0  0  0  0  0  0  0  0  0
    3.0094   -0.2600   -1.7189 H   0  0  0  0  0  0  0  0  0  0  0  0
  1  2  1  0
  2  3  1  0
  3  4  2  0
  4  5  1  0
  5  6  1  0
  6  7  1  0
  7  8  1  0
  8  9  1  0
  7  2  1  0
  8  5  1  0
  1 10  1  0
  1 11  1  0
  1 12  1  0
  2 13  1  0
  3 14  1  0
  4 15  1  0
  5 16  1  0
  7 17  1  0
  8 18  1  0
  9 19  1  0
  9 20  1  0
  9 21  1  0
M  END
