
     RDKit          3D

 23 24  0  0  0  0  0  0  0  0999 V2000
   -2.3788   -1.0115   -0.1953 C   0  0  0  0  0  0  0  0  0  0  0  0
   -1.2781   -0.0108    0.1862 C   0  0  0  0  0  0  0  0  0  0  0  0
   -1.3187    1.2226   -0.6413 C   0  0  0  0  0  0  0  0  0  0  0  0
   -0.0579    1.5253   -1.1183 O   0  0  0  0  0  0  0  0  0  0  0  0
    0.8879    1.5001   -0.0952 C   0  0  0  0  0  0  0  0  0  0  0  0
    1.2335    0.0685    0.1724 C   0  0  0  0  0  0  0  0  0  0  0  0
    2.5056   -0.4309   -0.5061 C   0  0  0  0  0  0  0  0  0  0  0  0
    0.8506   -0.6365    1.3984 C   0  0  0  0  0  0  0  0  0  0  0  0
    0.0175   -0.7602    0.1317 C   0  0  0  0  0  0  0  0  0  0  0  0
   -2.1272   -1.4334   -1.1832 H   0  0  0  0  0  0  0  0  0  0  0  0
   -3.3746   -0.5647   -0.1278 H   0  0  0  0  0  0  0  0  0  0  0  0
   -2.2571   -1.8490    0.5547 H   0  0  0  0  0  0  0  0  0  0  0  0
   -1.5388    0.2900    1.2442 H   0  0  0  0  0  0  0  0  0  0  0  0
   -2.0116    1.0995   -1.4989 H   0  0  0  0  0  0  0  0  0  0  0  0
   -1.7033    2.1208   -0.0829 H   0  0  0  0  0  0  0  0  0  0  0  0
    0.4704    2.0079    0.7835 H   0  0  0  0  0  0  0  0  0  0  0  0
    1.8011    2.0372   -0.4432 H   0  0  0  0  0  0  0  0  0  0  0  0
    2.8181    0.2157   -1.3396 H   0  0  0  0  0  0  0  0  0  0  0  0
    3.3084   -0.5947    0.2412 H   0  0  0  0  0  0  0  0  0  0  0  0
    2.2698   -1.4241   -0.9517 H   0  0  0  0  0  0  0  0  0  0  0  0
    1.3776   -1.5554    1.6601 H   0  0  0  0  0  0  0  0  0  0  0  0
    0.4063   -0.1182    2.2793 H   0  0  0  0  0  0  0  0  0  0  0  0
    0.0990   -1.6981   -0.4681 H   0  0  0  0  0  0  0  0  0  0  0  0
  1  2  1  0
  2  3  1  0
  3  4  1  0
  4  5  1  0
  5  6  1  0
  6  7  1  0
  6  8  1  0
  8  9  1  0
  9  2  1  0
  9  6  1  0
  1 10  1  0
  1 11  1  0
  1 12  1  0
  2 13  1  0
  3 14  1  0
  3 15  1  0
  5 16  1  0
  5 17  1  0
  7 18  1  0
  7 19  1  0
  7 20  1  0
  8 21  1  0
  8 22  1  0
  9 23  1  0
M  END
