
     RDKit          3D

 25 25  0  0  0  0  0  0  0  0999 V2000
    2.7662   -0.4193    0.3711 C   0  0  0  0  0  0  0  0  0  0  0  0
    1.3283    0.0225    0.4682 C   0  0  0  0  0  0  0  0  0  0  0  0
    1.0902    1.3032   -0.2294 C   0  0  0  0  0  0  0  0  0  0  0  0
    0.0029    2.0351   -0.2539 C   0  0  0  0  0  0  0  0  0  0  0  0
   -1.2951    1.7800    0.4143 C   0  0  0  0  0  0  0  0  0  0  0  0
   -1.5010    0.3032    0.5765 C   0  0  0  0  0  0  0  0  0  0  0  0
   -0.9144   -0.5284   -0.5163 C   0  0  0  0  0  0  0  0  0  0  0  0
   -1.7728   -1.7754   -0.7297 C   0  0  0  0  0  0  0  0  0  0  0  0
    0.4736   -1.0236   -0.2064 C   0  0  0  0  0  0  0  0  0  0  0  0
    3.3289    0.1024   -0.4164 H   0  0  0  0  0  0  0  0  0  0  0  0
    3.2295   -0.2271    1.3607 H   0  0  0  0  0  0  0  0  0  0  0  0
    2.7979   -1.5300    0.2390 H   0  0  0  0  0  0  0  0  0  0  0  0
    1.0043    0.1630    1.5245 H   0  0  0  0  0  0  0  0  0  0  0  0
    1.9262    1.6806   -0.7914 H   0  0  0  0  0  0  0  0  0  0  0  0
    0.0671    2.9396   -0.8381 H   0  0  0  0  0  0  0  0  0  0  0  0
   -2.1352    2.2753   -0.1131 H   0  0  0  0  0  0  0  0  0  0  0  0
   -1.2348    2.3005    1.4130 H   0  0  0  0  0  0  0  0  0  0  0  0
   -1.1732   -0.0477    1.5837 H   0  0  0  0  0  0  0  0  0  0  0  0
   -2.6168    0.1300    0.5667 H   0  0  0  0  0  0  0  0  0  0  0  0
   -0.9072    0.0300   -1.4627 H   0  0  0  0  0  0  0  0  0  0  0  0
   -1.3946   -2.5785   -0.0512 H   0  0  0  0  0  0  0  0  0  0  0  0
   -1.7159   -2.1411   -1.7622 H   0  0  0  0  0  0  0  0  0  0  0  0
   -2.8110   -1.5653   -0.4000 H   0  0  0  0  0  0  0  0  0  0  0  0
    0.9777   -1.2838   -1.1614 H   0  0  0  0  0  0  0  0  0  0  0  0
    0.4794   -1.9453    0.4147 H   0  0  0  0  0  0  0  0  0  0  0  0
  1  2  1  0
  2  3  1  0
  3  4  2  0
  4  5  1  0
  5  6  1  0
  6  7  1  0
  7  8  1  0
  7  9  1  0
  9  2  1  0
  1 10  1  0
  1 11  1  0
  1 12  1  0
  2 13  1  0
  3 14  1  0
  4 15  1  0
  5 16  1  0
  5 17  1  0
  6 18  1  0
  6 19  1  0
  7 20  1  0
  8 21  1  0
  8 22  1  0
  8 23  1  0
  9 24  1  0
  9 25  1  0
M  END
