
     RDKit          3D

 17 17  0  0  0  0  0  0  0  0999 V2000
    1.7307   -0.1337   -0.6467 C   0  0  0  0  0  0  0  0  0  0  0  0
    0.9145    0.0643    0.6254 C   0  0  0  0  0  0  0  0  0  0  0  0
   -0.2828   -0.8935    0.6450 C   0  0  0  0  0  0  0  0  0  0  0  0
   -1.1439   -0.3488   -0.4490 C   0  0  0  0  0  0  0  0  0  0  0  0
   -2.4977   -0.6116   -0.2578 O   0  0  0  0  0  0  0  0  0  0  0  0
   -0.9422    1.1397   -0.3449 C   0  0  0  0  0  0  0  0  0  0  0  0
   -1.6473    2.0361   -0.8792 O   0  0  0  0  0  0  0  0  0  0  0  0
    0.2282    1.3708    0.4939 C   0  0  0  0  0  0  0  0  0  0  0  0
    0.5172    2.5003    0.9690 O   0  0  0  0  0  0  0  0  0  0  0  0
    2.7370   -0.5539   -0.4141 H   0  0  0  0  0  0  0  0  0  0  0  0
    1.2436   -0.8678   -1.3227 H   0  0  0  0  0  0  0  0  0  0  0  0
    1.8361    0.8109   -1.2217 H   0  0  0  0  0  0  0  0  0  0  0  0
    1.5309   -0.0203    1.5200 H   0  0  0  0  0  0  0  0  0  0  0  0
   -0.7283   -0.7956    1.6425 H   0  0  0  0  0  0  0  0  0  0  0  0
    0.0562   -1.9290    0.4655 H   0  0  0  0  0  0  0  0  0  0  0  0
   -0.8615   -0.7316   -1.4291 H   0  0  0  0  0  0  0  0  0  0  0  0
   -2.6907   -1.0361    0.6039 H   0  0  0  0  0  0  0  0  0  0  0  0
  1  2  1  0
  2  3  1  0
  3  4  1  0
  4  5  1  0
  4  6  1  0
  6  7  2  0
  6  8  1  0
  8  9  2  0
  8  2  1  0
  1 10  1  0
  1 11  1  0
  1 12  1  0
  2 13  1  0
  3 14  1  0
  3 15  1  0
  4 16  1  0
  5 17  1  0
M  END
