
     RDKit          3D

 21 22  0  0  0  0  0  0  0  0999 V2000
   -1.7885    0.8800   -0.4848 C   0  0  0  0  0  0  0  0  0  0  0  0
   -0.4207    0.8601    0.0863 C   0  0  0  0  0  0  0  0  0  0  0  0
    0.7366    0.8690   -0.8638 C   0  0  0  0  0  0  0  0  0  0  0  0
    1.9487    0.7501    0.0417 C   0  0  0  0  0  0  0  0  0  0  0  0
    1.3763   -0.2595    1.0178 C   0  0  0  0  0  0  0  0  0  0  0  0
    1.8133   -0.7212    2.0229 O   0  0  0  0  0  0  0  0  0  0  0  0
    0.0662   -0.5544    0.3892 C   0  0  0  0  0  0  0  0  0  0  0  0
   -0.8352   -1.5112    0.9576 C   0  0  0  0  0  0  0  0  0  0  0  0
    0.4540   -0.6275   -1.0702 C   0  0  0  0  0  0  0  0  0  0  0  0
   -2.1121    1.9149   -0.7114 H   0  0  0  0  0  0  0  0  0  0  0  0
   -1.9579    0.2790   -1.3710 H   0  0  0  0  0  0  0  0  0  0  0  0
   -2.4889    0.4805    0.3066 H   0  0  0  0  0  0  0  0  0  0  0  0
   -0.3422    1.4968    0.9753 H   0  0  0  0  0  0  0  0  0  0  0  0
    0.7613    1.4949   -1.7077 H   0  0  0  0  0  0  0  0  0  0  0  0
    2.7455    0.2310   -0.4942 H   0  0  0  0  0  0  0  0  0  0  0  0
    2.2168    1.6812    0.5291 H   0  0  0  0  0  0  0  0  0  0  0  0
   -0.2841   -2.2702    1.5642 H   0  0  0  0  0  0  0  0  0  0  0  0
   -1.5333   -1.0186    1.6937 H   0  0  0  0  0  0  0  0  0  0  0  0
   -1.4607   -1.9944    0.1753 H   0  0  0  0  0  0  0  0  0  0  0  0
    1.4264   -1.1170   -1.2722 H   0  0  0  0  0  0  0  0  0  0  0  0
   -0.3217   -0.8634   -1.7841 H   0  0  0  0  0  0  0  0  0  0  0  0
  1  2  1  0
  2  3  1  0
  3  4  1  0
  4  5  1  0
  5  6  2  0
  5  7  1  0
  7  8  1  0
  7  9  1  0
  7  2  1  0
  9  3  1  0
  1 10  1  0
  1 11  1  0
  1 12  1  0
  2 13  1  0
  3 14  1  0
  4 15  1  0
  4 16  1  0
  8 17  1  0
  8 18  1  0
  8 19  1  0
  9 20  1  0
  9 21  1  0
M  END
