
     RDKit          3D

 21 21  0  0  0  0  0  0  0  0999 V2000
   -2.0839   -1.2426    0.4656 C   0  0  0  0  0  0  0  0  0  0  0  0
   -0.7928   -0.4310    0.5729 C   0  0  0  0  0  0  0  0  0  0  0  0
   -1.1275    0.9424   -0.0277 C   0  0  0  0  0  0  0  0  0  0  0  0
    0.0111    1.8632    0.2346 C   0  0  0  0  0  0  0  0  0  0  0  0
    1.2776    1.1964   -0.1512 C   0  0  0  0  0  0  0  0  0  0  0  0
    1.4266   -0.0993   -0.3442 C   0  0  0  0  0  0  0  0  0  0  0  0
    2.7570   -0.5770   -0.7222 C   0  0  0  0  0  0  0  0  0  0  0  0
    3.7307    0.1975   -0.8626 O   0  0  0  0  0  0  0  0  0  0  0  0
    0.3018   -1.0815   -0.1938 C   0  0  0  0  0  0  0  0  0  0  0  0
   -2.7714   -0.9138    1.2502 H   0  0  0  0  0  0  0  0  0  0  0  0
   -1.8941   -2.3230    0.4637 H   0  0  0  0  0  0  0  0  0  0  0  0
   -2.4838   -1.0018   -0.5623 H   0  0  0  0  0  0  0  0  0  0  0  0
   -0.4759   -0.3018    1.6253 H   0  0  0  0  0  0  0  0  0  0  0  0
   -2.0723    1.2521    0.4917 H   0  0  0  0  0  0  0  0  0  0  0  0
   -1.3011    0.8002   -1.1090 H   0  0  0  0  0  0  0  0  0  0  0  0
   -0.1269    2.7699   -0.4069 H   0  0  0  0  0  0  0  0  0  0  0  0
    0.0549    2.1229    1.3073 H   0  0  0  0  0  0  0  0  0  0  0  0
    2.1738    1.8326   -0.2898 H   0  0  0  0  0  0  0  0  0  0  0  0
    2.8764   -1.6341   -0.8792 H   0  0  0  0  0  0  0  0  0  0  0  0
   -0.0921   -1.3774   -1.1840 H   0  0  0  0  0  0  0  0  0  0  0  0
    0.6119   -1.9940    0.3215 H   0  0  0  0  0  0  0  0  0  0  0  0
  1  2  1  0
  2  3  1  0
  3  4  1  0
  4  5  1  0
  5  6  2  0
  6  7  1  0
  7  8  2  0
  6  9  1  0
  9  2  1  0
  1 10  1  0
  1 11  1  0
  1 12  1  0
  2 13  1  0
  3 14  1  0
  3 15  1  0
  4 16  1  0
  4 17  1  0
  5 18  1  0
  7 19  1  0
  9 20  1  0
  9 21  1  0
M  END
