
     RDKit          3D

 19 19  0  0  0  0  0  0  0  0999 V2000
   -2.2593   -0.1797    0.3794 C   0  0  0  0  0  0  0  0  0  0  0  0
   -0.8073    0.1813    0.4403 C   0  0  0  0  0  0  0  0  0  0  0  0
   -0.4266    1.1706   -0.6114 C   0  0  0  0  0  0  0  0  0  0  0  0
   -1.2680    1.7059   -1.3780 O   0  0  0  0  0  0  0  0  0  0  0  0
    1.0002    1.4834   -0.6976 C   0  0  0  0  0  0  0  0  0  0  0  0
    1.8822    0.6534   -0.1627 C   0  0  0  0  0  0  0  0  0  0  0  0
    1.5050   -0.6025    0.5343 C   0  0  0  0  0  0  0  0  0  0  0  0
    0.0897   -1.0300    0.2096 C   0  0  0  0  0  0  0  0  0  0  0  0
   -0.0598   -1.3825   -1.1272 O   0  0  0  0  0  0  0  0  0  0  0  0
   -2.7940    0.6896   -0.1025 H   0  0  0  0  0  0  0  0  0  0  0  0
   -2.4431   -1.0977   -0.2143 H   0  0  0  0  0  0  0  0  0  0  0  0
   -2.6197   -0.3400    1.4126 H   0  0  0  0  0  0  0  0  0  0  0  0
   -0.5168    0.5724    1.4592 H   0  0  0  0  0  0  0  0  0  0  0  0
    1.3306    2.3847   -1.1939 H   0  0  0  0  0  0  0  0  0  0  0  0
    2.9638    0.8565   -0.2085 H   0  0  0  0  0  0  0  0  0  0  0  0
    1.5602   -0.4639    1.6333 H   0  0  0  0  0  0  0  0  0  0  0  0
    2.2022   -1.4339    0.2715 H   0  0  0  0  0  0  0  0  0  0  0  0
   -0.1629   -1.8562    0.9070 H   0  0  0  0  0  0  0  0  0  0  0  0
    0.8236   -1.3115   -1.5511 H   0  0  0  0  0  0  0  0  0  0  0  0
  1  2  1  0
  2  3  1  0
  3  4  2  0
  3  5  1  0
  5  6  2  0
  6  7  1  0
  7  8  1  0
  8  9  1  0
  8  2  1  0
  1 10  1  0
  1 11  1  0
  1 12  1  0
  2 13  1  0
  5 14  1  0
  6 15  1  0
  7 16  1  0
  7 17  1  0
  8 18  1  0
  9 19  1  0
M  END
