
     RDKit          3D

 25 26  0  0  0  0  0  0  0  0999 V2000
   -0.7494    2.1081   -0.1720 C   0  0  0  0  0  0  0  0  0  0  0  0
   -0.5422    0.9364    0.7838 C   0  0  0  0  0  0  0  0  0  0  0  0
   -1.7279   -0.0276    0.6785 C   0  0  0  0  0  0  0  0  0  0  0  0
   -0.7655   -1.1485    0.2707 C   0  0  0  0  0  0  0  0  0  0  0  0
   -1.1071   -1.8726   -0.9686 C   0  0  0  0  0  0  0  0  0  0  0  0
    0.3239   -0.1573    0.2617 C   0  0  0  0  0  0  0  0  0  0  0  0
    1.5763   -0.4649    1.0139 C   0  0  0  0  0  0  0  0  0  0  0  0
    2.3317    0.3151   -0.0650 C   0  0  0  0  0  0  0  0  0  0  0  0
    1.1030    0.0907   -0.9563 C   0  0  0  0  0  0  0  0  0  0  0  0
   -1.6529    2.6523    0.2005 H   0  0  0  0  0  0  0  0  0  0  0  0
    0.0926    2.8093   -0.1276 H   0  0  0  0  0  0  0  0  0  0  0  0
   -0.9992    1.7640   -1.1865 H   0  0  0  0  0  0  0  0  0  0  0  0
   -0.3032    1.2731    1.7914 H   0  0  0  0  0  0  0  0  0  0  0  0
   -2.1658   -0.1532    1.6742 H   0  0  0  0  0  0  0  0  0  0  0  0
   -2.4204    0.1861   -0.1465 H   0  0  0  0  0  0  0  0  0  0  0  0
   -0.6359   -1.8652    1.1326 H   0  0  0  0  0  0  0  0  0  0  0  0
   -2.2080   -2.0989   -0.9508 H   0  0  0  0  0  0  0  0  0  0  0  0
   -0.6210   -2.8866   -0.9371 H   0  0  0  0  0  0  0  0  0  0  0  0
   -0.7939   -1.3999   -1.9098 H   0  0  0  0  0  0  0  0  0  0  0  0
    1.7055   -0.0289    2.0035 H   0  0  0  0  0  0  0  0  0  0  0  0
    1.7714   -1.5732    0.9736 H   0  0  0  0  0  0  0  0  0  0  0  0
    3.2510   -0.1438   -0.4182 H   0  0  0  0  0  0  0  0  0  0  0  0
    2.3969    1.3663    0.2498 H   0  0  0  0  0  0  0  0  0  0  0  0
    1.2628   -0.7155   -1.6786 H   0  0  0  0  0  0  0  0  0  0  0  0
    0.8770    1.0347   -1.5172 H   0  0  0  0  0  0  0  0  0  0  0  0
  1  2  1  0
  2  3  1  0
  3  4  1  0
  4  5  1  0
  4  6  1  0
  6  7  1  0
  7  8  1  0
  8  9  1  0
  6  2  1  0
  9  6  1  0
  1 10  1  0
  1 11  1  0
  1 12  1  0
  2 13  1  0
  3 14  1  0
  3 15  1  0
  4 16  1  0
  5 17  1  0
  5 18  1  0
  5 19  1  0
  7 20  1  0
  7 21  1  0
  8 22  1  0
  8 23  1  0
  9 24  1  0
  9 25  1  0
M  END
