
     RDKit          3D

 19 20  0  0  0  0  0  0  0  0999 V2000
   -1.9809    0.8503   -0.0851 C   0  0  0  0  0  0  0  0  0  0  0  0
   -1.0501   -0.1705   -0.6541 C   0  0  0  0  0  0  0  0  0  0  0  0
   -0.6559   -1.2996    0.2487 C   0  0  0  0  0  0  0  0  0  0  0  0
    0.6128   -1.3683   -0.5878 C   0  0  0  0  0  0  0  0  0  0  0  0
    0.4010    0.1005   -0.3650 C   0  0  0  0  0  0  0  0  0  0  0  0
    1.1000    1.0860   -0.7578 O   0  0  0  0  0  0  0  0  0  0  0  0
    2.4355    1.3479   -0.4995 C   0  0  0  0  0  0  0  0  0  0  0  0
    3.0496    0.5075    0.2173 O   0  0  0  0  0  0  0  0  0  0  0  0
    0.0687   -0.2736    1.0690 C   0  0  0  0  0  0  0  0  0  0  0  0
   -2.8452    0.9845   -0.7912 H   0  0  0  0  0  0  0  0  0  0  0  0
   -2.4482    0.5342    0.8765 H   0  0  0  0  0  0  0  0  0  0  0  0
   -1.4321    1.8100    0.0526 H   0  0  0  0  0  0  0  0  0  0  0  0
   -1.2312   -0.4894   -1.6945 H   0  0  0  0  0  0  0  0  0  0  0  0
   -1.2010   -2.0745    0.5579 H   0  0  0  0  0  0  0  0  0  0  0  0
    0.4014   -1.6649   -1.6158 H   0  0  0  0  0  0  0  0  0  0  0  0
    1.4770   -1.8181   -0.0928 H   0  0  0  0  0  0  0  0  0  0  0  0
    2.9370    2.2444   -0.8992 H   0  0  0  0  0  0  0  0  0  0  0  0
    0.9073   -0.7481    1.6231 H   0  0  0  0  0  0  0  0  0  0  0  0
   -0.5459    0.4417    1.6193 H   0  0  0  0  0  0  0  0  0  0  0  0
  1  2  1  0
  2  3  1  0
  3  4  1  0
  4  5  1  0
  5  6  1  0
  6  7  1  0
  7  8  2  0
  5  9  1  0
  5  2  1  0
  9  3  1  0
  1 10  1  0
  1 11  1  0
  1 12  1  0
  2 13  1  0
  3 14  1  0
  4 15  1  0
  4 16  1  0
  7 17  1  0
  9 18  1  0
  9 19  1  0
M  END
