
     RDKit          3D

 23 25  0  0  0  0  0  0  0  0999 V2000
   -1.9724   -0.7552   -0.8396 C   0  0  0  0  0  0  0  0  0  0  0  0
   -1.1867   -0.1870    0.3055 C   0  0  0  0  0  0  0  0  0  0  0  0
   -1.0815    1.2955    0.3056 C   0  0  0  0  0  0  0  0  0  0  0  0
    0.3763    1.5744    0.1404 C   0  0  0  0  0  0  0  0  0  0  0  0
    1.1587    0.4044    0.5534 C   0  0  0  0  0  0  0  0  0  0  0  0
    2.0896   -0.2311   -0.4908 C   0  0  0  0  0  0  0  0  0  0  0  0
    0.8777   -1.0918   -0.8376 C   0  0  0  0  0  0  0  0  0  0  0  0
    0.1911   -0.7650    0.4368 C   0  0  0  0  0  0  0  0  0  0  0  0
    0.8902   -0.4638    1.6925 C   0  0  0  0  0  0  0  0  0  0  0  0
   -2.0102   -0.0163   -1.6640 H   0  0  0  0  0  0  0  0  0  0  0  0
   -1.5282   -1.7331   -1.1642 H   0  0  0  0  0  0  0  0  0  0  0  0
   -3.0468   -0.9295   -0.5405 H   0  0  0  0  0  0  0  0  0  0  0  0
   -1.7426   -0.4805    1.2450 H   0  0  0  0  0  0  0  0  0  0  0  0
   -1.4219    1.7564    1.2623 H   0  0  0  0  0  0  0  0  0  0  0  0
   -1.6796    1.7087   -0.5438 H   0  0  0  0  0  0  0  0  0  0  0  0
    0.5483    1.7678   -0.9587 H   0  0  0  0  0  0  0  0  0  0  0  0
    0.6946    2.4999    0.6650 H   0  0  0  0  0  0  0  0  0  0  0  0
    2.8638   -0.8781   -0.0434 H   0  0  0  0  0  0  0  0  0  0  0  0
    2.4204    0.4516   -1.2781 H   0  0  0  0  0  0  0  0  0  0  0  0
    0.3854   -0.6193   -1.7382 H   0  0  0  0  0  0  0  0  0  0  0  0
    1.0963   -2.1329   -1.0629 H   0  0  0  0  0  0  0  0  0  0  0  0
    0.3210   -0.0680    2.5266 H   0  0  0  0  0  0  0  0  0  0  0  0
    1.7565   -1.1072    2.0286 H   0  0  0  0  0  0  0  0  0  0  0  0
  1  2  1  0
  2  3  1  0
  3  4  1  0
  4  5  1  0
  5  6  1  0
  6  7  1  0
  7  8  1  0
  8  9  1  0
  8  2  1  0
  8  5  1  0
  9  5  1  0
  1 10  1  0
  1 11  1  0
  1 12  1  0
  2 13  1  0
  3 14  1  0
  3 15  1  0
  4 16  1  0
  4 17  1  0
  6 18  1  0
  6 19  1  0
  7 20  1  0
  7 21  1  0
  9 22  1  0
  9 23  1  0
M  END
