
     RDKit          3D

 23 24  0  0  0  0  0  0  0  0999 V2000
    2.2949   -0.8152    0.4666 C   0  0  0  0  0  0  0  0  0  0  0  0
    1.4975   -0.1869   -0.5961 C   0  0  0  0  0  0  0  0  0  0  0  0
    1.0749    1.2401   -0.2078 C   0  0  0  0  0  0  0  0  0  0  0  0
   -0.3063    0.9649   -0.7729 C   0  0  0  0  0  0  0  0  0  0  0  0
   -1.3625    1.3611    0.2182 C   0  0  0  0  0  0  0  0  0  0  0  0
   -2.4243    0.2941    0.3386 C   0  0  0  0  0  0  0  0  0  0  0  0
   -2.0984   -0.9917    0.3696 C   0  0  0  0  0  0  0  0  0  0  0  0
   -0.6427   -1.2935    0.2791 C   0  0  0  0  0  0  0  0  0  0  0  0
    0.0481   -0.4951   -0.7445 C   0  0  0  0  0  0  0  0  0  0  0  0
    1.8103   -1.6216    1.0405 H   0  0  0  0  0  0  0  0  0  0  0  0
    2.6344   -0.0605    1.2238 H   0  0  0  0  0  0  0  0  0  0  0  0
    3.2438   -1.2620    0.0734 H   0  0  0  0  0  0  0  0  0  0  0  0
    2.0680   -0.1236   -1.5482 H   0  0  0  0  0  0  0  0  0  0  0  0
    1.6455    2.0274   -0.7108 H   0  0  0  0  0  0  0  0  0  0  0  0
    1.1005    1.4086    0.8944 H   0  0  0  0  0  0  0  0  0  0  0  0
   -0.4056    1.4331   -1.7707 H   0  0  0  0  0  0  0  0  0  0  0  0
   -0.9663    1.6301    1.1962 H   0  0  0  0  0  0  0  0  0  0  0  0
   -1.8855    2.2484   -0.1974 H   0  0  0  0  0  0  0  0  0  0  0  0
   -3.4741    0.5486    0.4026 H   0  0  0  0  0  0  0  0  0  0  0  0
   -2.8630   -1.7810    0.4572 H   0  0  0  0  0  0  0  0  0  0  0  0
   -0.2566   -1.2113    1.3091 H   0  0  0  0  0  0  0  0  0  0  0  0
   -0.5826   -2.3940    0.0336 H   0  0  0  0  0  0  0  0  0  0  0  0
   -0.1501   -0.9202   -1.7546 H   0  0  0  0  0  0  0  0  0  0  0  0
  1  2  1  0
  2  3  1  0
  3  4  1  0
  4  5  1  0
  5  6  1  0
  6  7  2  0
  7  8  1  0
  8  9  1  0
  9  2  1  0
  9  4  1  0
  1 10  1  0
  1 11  1  0
  1 12  1  0
  2 13  1  0
  3 14  1  0
  3 15  1  0
  4 16  1  0
  5 17  1  0
  5 18  1  0
  6 19  1  0
  7 20  1  0
  8 21  1  0
  8 22  1  0
  9 23  1  0
M  END
