
     RDKit          3D

 19 20  0  0  0  0  0  0  0  0999 V2000
    2.5431    0.5466    0.0220 C   0  0  0  0  0  0  0  0  0  0  0  0
    1.2974    0.2514    0.8100 C   0  0  0  0  0  0  0  0  0  0  0  0
    0.7030   -1.1352    0.5123 C   0  0  0  0  0  0  0  0  0  0  0  0
    0.0202    0.0796    0.1820 C   0  0  0  0  0  0  0  0  0  0  0  0
   -0.4106    0.5506   -1.0252 O   0  0  0  0  0  0  0  0  0  0  0  0
   -1.3395    1.3508   -0.3548 C   0  0  0  0  0  0  0  0  0  0  0  0
   -1.9729    2.4182   -0.5271 O   0  0  0  0  0  0  0  0  0  0  0  0
   -1.3090    0.3746    0.7692 C   0  0  0  0  0  0  0  0  0  0  0  0
   -2.2623   -0.7850    0.4609 C   0  0  0  0  0  0  0  0  0  0  0  0
    2.3190    0.5309   -1.0708 H   0  0  0  0  0  0  0  0  0  0  0  0
    3.2907   -0.2848    0.1774 H   0  0  0  0  0  0  0  0  0  0  0  0
    3.0369    1.4709    0.3003 H   0  0  0  0  0  0  0  0  0  0  0  0
    1.3284    0.5792    1.8708 H   0  0  0  0  0  0  0  0  0  0  0  0
    1.2422   -1.7985   -0.1732 H   0  0  0  0  0  0  0  0  0  0  0  0
    0.3750   -1.6789    1.4474 H   0  0  0  0  0  0  0  0  0  0  0  0
   -1.3728    0.7805    1.7714 H   0  0  0  0  0  0  0  0  0  0  0  0
   -2.4935   -0.8089   -0.6259 H   0  0  0  0  0  0  0  0  0  0  0  0
   -1.7874   -1.7646    0.7057 H   0  0  0  0  0  0  0  0  0  0  0  0
   -3.2077   -0.6774    0.9904 H   0  0  0  0  0  0  0  0  0  0  0  0
  1  2  1  0
  2  3  1  0
  3  4  1  0
  4  5  1  0
  5  6  1  0
  6  7  2  0
  6  8  1  0
  8  9  1  0
  4  2  1  0
  8  4  1  0
  1 10  1  0
  1 11  1  0
  1 12  1  0
  2 13  1  0
  3 14  1  0
  3 15  1  0
  8 16  1  0
  9 17  1  0
  9 18  1  0
  9 19  1  0
M  END
