
     RDKit          3D

 23 23  0  0  0  0  0  0  0  0999 V2000
   -1.8726    1.3886   -0.2406 C   0  0  0  0  0  0  0  0  0  0  0  0
   -0.6026    0.5476   -0.4768 C   0  0  0  0  0  0  0  0  0  0  0  0
    0.4504    1.1971    0.3294 C   0  0  0  0  0  0  0  0  0  0  0  0
    1.8535    0.8091   -0.0020 C   0  0  0  0  0  0  0  0  0  0  0  0
    2.0463   -0.6901   -0.0674 C   0  0  0  0  0  0  0  0  0  0  0  0
    1.1770   -1.2001    0.9237 O   0  0  0  0  0  0  0  0  0  0  0  0
    0.1089   -1.7572    0.2717 C   0  0  0  0  0  0  0  0  0  0  0  0
   -0.9600   -0.8459   -0.1505 C   0  0  0  0  0  0  0  0  0  0  0  0
   -1.9946   -0.8636    0.8159 O   0  0  0  0  0  0  0  0  0  0  0  0
   -1.5924    2.4163   -0.5465 H   0  0  0  0  0  0  0  0  0  0  0  0
   -2.0482    1.3899    0.8620 H   0  0  0  0  0  0  0  0  0  0  0  0
   -2.7142    1.0288   -0.8262 H   0  0  0  0  0  0  0  0  0  0  0  0
   -0.3653    0.7121   -1.5611 H   0  0  0  0  0  0  0  0  0  0  0  0
    0.3769    2.3099    0.1338 H   0  0  0  0  0  0  0  0  0  0  0  0
    0.2491    1.1085    1.4260 H   0  0  0  0  0  0  0  0  0  0  0  0
    2.2410    1.2633   -0.9119 H   0  0  0  0  0  0  0  0  0  0  0  0
    2.4944    1.1528    0.8638 H   0  0  0  0  0  0  0  0  0  0  0  0
    3.0824   -0.9991    0.1872 H   0  0  0  0  0  0  0  0  0  0  0  0
    1.7448   -1.0150   -1.0759 H   0  0  0  0  0  0  0  0  0  0  0  0
   -0.3254   -2.5313    0.9724 H   0  0  0  0  0  0  0  0  0  0  0  0
    0.5312   -2.3796   -0.5713 H   0  0  0  0  0  0  0  0  0  0  0  0
   -1.4495   -1.2821   -1.0741 H   0  0  0  0  0  0  0  0  0  0  0  0
   -2.4309   -1.7600    0.7186 H   0  0  0  0  0  0  0  0  0  0  0  0
  1  2  1  0
  2  3  1  0
  3  4  1  0
  4  5  1  0
  5  6  1  0
  6  7  1  0
  7  8  1  0
  8  9  1  0
  8  2  1  0
  1 10  1  0
  1 11  1  0
  1 12  1  0
  2 13  1  0
  3 14  1  0
  3 15  1  0
  4 16  1  0
  4 17  1  0
  5 18  1  0
  5 19  1  0
  7 20  1  0
  7 21  1  0
  8 22  1  0
  9 23  1  0
M  END
