
     RDKit          3D

 23 23  0  0  0  0  0  0  0  0999 V2000
   -3.2716    0.6456    0.0531 C   0  0  0  0  0  0  0  0  0  0  0  0
   -2.3547   -0.3409    0.7256 C   0  0  0  0  0  0  0  0  0  0  0  0
   -1.9474   -1.5005   -0.1752 C   0  0  0  0  0  0  0  0  0  0  0  0
   -0.9408   -0.4971    0.3038 C   0  0  0  0  0  0  0  0  0  0  0  0
   -0.3718    0.3875   -0.6053 O   0  0  0  0  0  0  0  0  0  0  0  0
    0.9196    0.7069   -0.2719 C   0  0  0  0  0  0  0  0  0  0  0  0
    1.8817   -0.4366   -0.2228 C   0  0  0  0  0  0  0  0  0  0  0  0
    3.2422    0.1599    0.1622 C   0  0  0  0  0  0  0  0  0  0  0  0
    3.6605    1.0913   -0.7597 O   0  0  0  0  0  0  0  0  0  0  0  0
   -4.1058    0.0683   -0.3991 H   0  0  0  0  0  0  0  0  0  0  0  0
   -3.7684    1.3218    0.8088 H   0  0  0  0  0  0  0  0  0  0  0  0
   -2.7921    1.2131   -0.7600 H   0  0  0  0  0  0  0  0  0  0  0  0
   -2.6439   -0.5877    1.7665 H   0  0  0  0  0  0  0  0  0  0  0  0
   -2.1817   -1.4350   -1.2559 H   0  0  0  0  0  0  0  0  0  0  0  0
   -1.9670   -2.5199    0.2817 H   0  0  0  0  0  0  0  0  0  0  0  0
   -0.2512   -0.7725    1.1282 H   0  0  0  0  0  0  0  0  0  0  0  0
    1.2754    1.5208   -0.9505 H   0  0  0  0  0  0  0  0  0  0  0  0
    0.9352    1.1697    0.7604 H   0  0  0  0  0  0  0  0  0  0  0  0
    1.6535   -1.1565    0.5861 H   0  0  0  0  0  0  0  0  0  0  0  0
    1.9805   -0.9796   -1.1722 H   0  0  0  0  0  0  0  0  0  0  0  0
    3.1241    0.6445    1.1634 H   0  0  0  0  0  0  0  0  0  0  0  0
    4.0071   -0.6298    0.2913 H   0  0  0  0  0  0  0  0  0  0  0  0
    3.9164    1.9266   -0.2947 H   0  0  0  0  0  0  0  0  0  0  0  0
  1  2  1  0
  2  3  1  0
  3  4  1  0
  4  5  1  0
  5  6  1  0
  6  7  1  0
  7  8  1  0
  8  9  1  0
  4  2  1  0
  1 10  1  0
  1 11  1  0
  1 12  1  0
  2 13  1  0
  3 14  1  0
  3 15  1  0
  4 16  1  0
  6 17  1  0
  6 18  1  0
  7 19  1  0
  7 20  1  0
  8 21  1  0
  8 22  1  0
  9 23  1  0
M  END
