
     RDKit          3D

 21 22  0  0  0  0  0  0  0  0999 V2000
   -2.5086   -0.0956   -0.1056 C   0  0  0  0  0  0  0  0  0  0  0  0
   -1.1241    0.0821    0.5369 C   0  0  0  0  0  0  0  0  0  0  0  0
   -0.5195   -1.3030    0.5529 C   0  0  0  0  0  0  0  0  0  0  0  0
    0.8272   -1.3231    0.7224 O   0  0  0  0  0  0  0  0  0  0  0  0
    1.5726   -0.5633   -0.1103 C   0  0  0  0  0  0  0  0  0  0  0  0
    2.5369    0.3102    0.6928 C   0  0  0  0  0  0  0  0  0  0  0  0
    2.0339    1.4071    0.0414 O   0  0  0  0  0  0  0  0  0  0  0  0
    1.0216    0.6803   -0.6298 C   0  0  0  0  0  0  0  0  0  0  0  0
   -0.3449    1.0728   -0.2468 C   0  0  0  0  0  0  0  0  0  0  0  0
   -3.0588    0.8449   -0.0575 H   0  0  0  0  0  0  0  0  0  0  0  0
   -2.2806   -0.2980   -1.1925 H   0  0  0  0  0  0  0  0  0  0  0  0
   -3.0191   -0.9639    0.3352 H   0  0  0  0  0  0  0  0  0  0  0  0
   -1.3376    0.4447    1.5772 H   0  0  0  0  0  0  0  0  0  0  0  0
   -0.9842   -1.8294    1.4353 H   0  0  0  0  0  0  0  0  0  0  0  0
   -0.8292   -1.9115   -0.3306 H   0  0  0  0  0  0  0  0  0  0  0  0
    2.0920   -1.2063   -0.8752 H   0  0  0  0  0  0  0  0  0  0  0  0
    3.5968    0.0939    0.5379 H   0  0  0  0  0  0  0  0  0  0  0  0
    2.2933    0.3471    1.7899 H   0  0  0  0  0  0  0  0  0  0  0  0
    1.2325    0.7991   -1.7344 H   0  0  0  0  0  0  0  0  0  0  0  0
   -0.2829    2.0260    0.3574 H   0  0  0  0  0  0  0  0  0  0  0  0
   -0.9174    1.3859   -1.1679 H   0  0  0  0  0  0  0  0  0  0  0  0
  1  2  1  0
  2  3  1  0
  3  4  1  0
  4  5  1  0
  5  6  1  0
  6  7  1  0
  7  8  1  0
  8  9  1  0
  9  2  1  0
  8  5  1  0
  1 10  1  0
  1 11  1  0
  1 12  1  0
  2 13  1  0
  3 14  1  0
  3 15  1  0
  5 16  1  0
  6 17  1  0
  6 18  1  0
  8 19  1  0
  9 20  1  0
  9 21  1  0
M  END
