
     RDKit          3D

 23 23  0  0  0  0  0  0  0  0999 V2000
    2.5196   -0.4313   -0.0143 C   0  0  0  0  0  0  0  0  0  0  0  0
    1.0421   -0.0861    0.0080 C   0  0  0  0  0  0  0  0  0  0  0  0
    0.2040   -1.2346    0.5200 C   0  0  0  0  0  0  0  0  0  0  0  0
   -0.9581   -1.4108   -0.4038 C   0  0  0  0  0  0  0  0  0  0  0  0
   -1.8774   -0.2574   -0.4983 C   0  0  0  0  0  0  0  0  0  0  0  0
   -1.6991    0.8107    0.5228 C   0  0  0  0  0  0  0  0  0  0  0  0
   -1.1197    1.9621   -0.0326 O   0  0  0  0  0  0  0  0  0  0  0  0
    0.2373    1.9997    0.0780 C   0  0  0  0  0  0  0  0  0  0  0  0
    0.8042    0.9983    0.8251 O   0  0  0  0  0  0  0  0  0  0  0  0
    3.0171    0.4137   -0.5686 H   0  0  0  0  0  0  0  0  0  0  0  0
    2.7009   -1.3429   -0.5878 H   0  0  0  0  0  0  0  0  0  0  0  0
    2.9743   -0.4814    0.9715 H   0  0  0  0  0  0  0  0  0  0  0  0
    0.7782    0.1414   -1.0658 H   0  0  0  0  0  0  0  0  0  0  0  0
   -0.0474   -1.1655    1.5784 H   0  0  0  0  0  0  0  0  0  0  0  0
    0.8461   -2.1531    0.4093 H   0  0  0  0  0  0  0  0  0  0  0  0
   -0.5212   -1.6109   -1.4258 H   0  0  0  0  0  0  0  0  0  0  0  0
   -1.4656   -2.3828   -0.1402 H   0  0  0  0  0  0  0  0  0  0  0  0
   -1.8057    0.2400   -1.5106 H   0  0  0  0  0  0  0  0  0  0  0  0
   -2.9310   -0.6677   -0.4871 H   0  0  0  0  0  0  0  0  0  0  0  0
   -2.7331    1.1463    0.8366 H   0  0  0  0  0  0  0  0  0  0  0  0
   -1.1878    0.5193    1.4353 H   0  0  0  0  0  0  0  0  0  0  0  0
    0.6582    2.0187   -0.9700 H   0  0  0  0  0  0  0  0  0  0  0  0
    0.5643    2.9744    0.5196 H   0  0  0  0  0  0  0  0  0  0  0  0
  1  2  1  0
  2  3  1  0
  3  4  1  0
  4  5  1  0
  5  6  1  0
  6  7  1  0
  7  8  1  0
  8  9  1  0
  9  2  1  0
  1 10  1  0
  1 11  1  0
  1 12  1  0
  2 13  1  0
  3 14  1  0
  3 15  1  0
  4 16  1  0
  4 17  1  0
  5 18  1  0
  5 19  1  0
  6 20  1  0
  6 21  1  0
  8 22  1  0
  8 23  1  0
M  END
