
     RDKit          3D

 23 23  0  0  0  0  0  0  0  0999 V2000
   -1.0021   -1.9984    0.1009 C   0  0  0  0  0  0  0  0  0  0  0  0
   -0.3280   -0.7761   -0.4277 C   0  0  0  0  0  0  0  0  0  0  0  0
   -1.4280    0.2575   -0.7256 C   0  0  0  0  0  0  0  0  0  0  0  0
   -0.7368    1.6026   -0.5674 C   0  0  0  0  0  0  0  0  0  0  0  0
   -1.3058    2.3039    0.5130 O   0  0  0  0  0  0  0  0  0  0  0  0
    0.6899    1.2973   -0.1597 C   0  0  0  0  0  0  0  0  0  0  0  0
    0.4800   -0.0292    0.5758 C   0  0  0  0  0  0  0  0  0  0  0  0
    1.8353   -0.6008    0.8502 C   0  0  0  0  0  0  0  0  0  0  0  0
    2.6024   -0.6342   -0.2921 O   0  0  0  0  0  0  0  0  0  0  0  0
   -0.3145   -2.8072    0.3675 H   0  0  0  0  0  0  0  0  0  0  0  0
   -1.6852   -2.3750   -0.7039 H   0  0  0  0  0  0  0  0  0  0  0  0
   -1.6755   -1.6891    0.9367 H   0  0  0  0  0  0  0  0  0  0  0  0
    0.1986   -0.9262   -1.3786 H   0  0  0  0  0  0  0  0  0  0  0  0
   -2.1724    0.1429    0.0953 H   0  0  0  0  0  0  0  0  0  0  0  0
   -1.8313    0.0933   -1.7243 H   0  0  0  0  0  0  0  0  0  0  0  0
   -0.8060    2.1929   -1.4931 H   0  0  0  0  0  0  0  0  0  0  0  0
   -2.2596    2.0969    0.5599 H   0  0  0  0  0  0  0  0  0  0  0  0
    1.2500    1.0502   -1.0808 H   0  0  0  0  0  0  0  0  0  0  0  0
    1.1425    2.0599    0.4670 H   0  0  0  0  0  0  0  0  0  0  0  0
   -0.0973    0.1595    1.4792 H   0  0  0  0  0  0  0  0  0  0  0  0
    1.7980   -1.5901    1.3445 H   0  0  0  0  0  0  0  0  0  0  0  0
    2.3379    0.0833    1.5674 H   0  0  0  0  0  0  0  0  0  0  0  0
    3.3079    0.0859   -0.3044 H   0  0  0  0  0  0  0  0  0  0  0  0
  1  2  1  0
  2  3  1  0
  3  4  1  0
  4  5  1  0
  4  6  1  0
  6  7  1  0
  7  8  1  0
  8  9  1  0
  7  2  1  0
  1 10  1  0
  1 11  1  0
  1 12  1  0
  2 13  1  0
  3 14  1  0
  3 15  1  0
  4 16  1  0
  5 17  1  0
  6 18  1  0
  6 19  1  0
  7 20  1  0
  8 21  1  0
  8 22  1  0
  9 23  1  0
M  END
