
     RDKit          3D

 19 19  0  0  0  0  0  0  0  0999 V2000
    2.1515    0.5384   -0.5871 C   0  0  0  0  0  0  0  0  0  0  0  0
    0.8796    0.4229    0.1936 C   0  0  0  0  0  0  0  0  0  0  0  0
   -0.2088    1.2211   -0.3870 C   0  0  0  0  0  0  0  0  0  0  0  0
   -1.4508    0.8511   -0.5468 C   0  0  0  0  0  0  0  0  0  0  0  0
   -1.8821   -0.5085   -0.1191 C   0  0  0  0  0  0  0  0  0  0  0  0
   -0.9622   -0.9236    1.0113 C   0  0  0  0  0  0  0  0  0  0  0  0
    0.4368   -1.0132    0.3858 C   0  0  0  0  0  0  0  0  0  0  0  0
    3.0067    0.8855    0.0548 H   0  0  0  0  0  0  0  0  0  0  0  0
    2.4827   -0.4569   -0.9912 H   0  0  0  0  0  0  0  0  0  0  0  0
    2.1011    1.2695   -1.4212 H   0  0  0  0  0  0  0  0  0  0  0  0
    1.0863    0.8121    1.2338 H   0  0  0  0  0  0  0  0  0  0  0  0
    0.0501    2.2404   -0.7236 H   0  0  0  0  0  0  0  0  0  0  0  0
   -2.2025    1.5081   -0.9894 H   0  0  0  0  0  0  0  0  0  0  0  0
   -1.7060   -1.2471   -0.9426 H   0  0  0  0  0  0  0  0  0  0  0  0
   -2.9285   -0.5453    0.2084 H   0  0  0  0  0  0  0  0  0  0  0  0
   -1.2793   -1.8741    1.4373 H   0  0  0  0  0  0  0  0  0  0  0  0
   -0.9883   -0.0718    1.7440 H   0  0  0  0  0  0  0  0  0  0  0  0
    0.2866   -1.5373   -0.5817 H   0  0  0  0  0  0  0  0  0  0  0  0
    1.1269   -1.5711    1.0206 H   0  0  0  0  0  0  0  0  0  0  0  0
  1  2  1  0
  2  3  1  0
  3  4  2  0
  4  5  1  0
  5  6  1  0
  6  7  1  0
  7  2  1  0
  1  8  1  0
  1  9  1  0
  1 10  1  0
  2 11  1  0
  3 12  1  0
  4 13  1  0
  5 14  1  0
  5 15  1  0
  6 16  1  0
  6 17  1  0
  7 18  1  0
  7 19  1  0
M  END
