
     RDKit          3D

 25 25  0  0  0  0  0  0  0  0999 V2000
   -2.1938    0.6244    0.7063 C   0  0  0  0  0  0  0  0  0  0  0  0
   -0.7212    0.5423    0.5830 C   0  0  0  0  0  0  0  0  0  0  0  0
   -0.1318    1.4681   -0.4487 C   0  0  0  0  0  0  0  0  0  0  0  0
    1.3613    1.5135   -0.0937 C   0  0  0  0  0  0  0  0  0  0  0  0
    1.9426    0.1914   -0.4119 C   0  0  0  0  0  0  0  0  0  0  0  0
    1.1922   -0.9978    0.0525 C   0  0  0  0  0  0  0  0  0  0  0  0
    1.7863   -1.5427    1.2154 O   0  0  0  0  0  0  0  0  0  0  0  0
   -0.2615   -0.8495    0.2528 C   0  0  0  0  0  0  0  0  0  0  0  0
   -1.0336   -1.4304   -0.9261 C   0  0  0  0  0  0  0  0  0  0  0  0
   -2.5557   -0.1939    1.3355 H   0  0  0  0  0  0  0  0  0  0  0  0
   -2.4451    1.6044    1.1956 H   0  0  0  0  0  0  0  0  0  0  0  0
   -2.7006    0.5426   -0.2807 H   0  0  0  0  0  0  0  0  0  0  0  0
   -0.2791    0.7901    1.5892 H   0  0  0  0  0  0  0  0  0  0  0  0
   -0.1574    1.0122   -1.4753 H   0  0  0  0  0  0  0  0  0  0  0  0
   -0.5692    2.4741   -0.4414 H   0  0  0  0  0  0  0  0  0  0  0  0
    1.4449    1.8350    0.9527 H   0  0  0  0  0  0  0  0  0  0  0  0
    1.8794    2.2849   -0.7057 H   0  0  0  0  0  0  0  0  0  0  0  0
    2.1661    0.1664   -1.5194 H   0  0  0  0  0  0  0  0  0  0  0  0
    2.9696    0.1492    0.0605 H   0  0  0  0  0  0  0  0  0  0  0  0
    1.3522   -1.8003   -0.7293 H   0  0  0  0  0  0  0  0  0  0  0  0
    1.0634   -2.0747    1.6792 H   0  0  0  0  0  0  0  0  0  0  0  0
   -0.5764   -1.4813    1.1368 H   0  0  0  0  0  0  0  0  0  0  0  0
   -1.3101   -0.6604   -1.6664 H   0  0  0  0  0  0  0  0  0  0  0  0
   -1.8894   -2.0441   -0.6077 H   0  0  0  0  0  0  0  0  0  0  0  0
   -0.3330   -2.1235   -1.4532 H   0  0  0  0  0  0  0  0  0  0  0  0
  1  2  1  0
  2  3  1  0
  3  4  1  0
  4  5  1  0
  5  6  1  0
  6  7  1  0
  6  8  1  0
  8  9  1  0
  8  2  1  0
  1 10  1  0
  1 11  1  0
  1 12  1  0
  2 13  1  0
  3 14  1  0
  3 15  1  0
  4 16  1  0
  4 17  1  0
  5 18  1  0
  5 19  1  0
  6 20  1  0
  7 21  1  0
  8 22  1  0
  9 23  1  0
  9 24  1  0
  9 25  1  0
M  END
