
     RDKit          3D

 25 25  0  0  0  0  0  0  0  0999 V2000
    2.4189   -0.2861    0.9903 C   0  0  0  0  0  0  0  0  0  0  0  0
    0.9775   -0.0307    0.5771 C   0  0  0  0  0  0  0  0  0  0  0  0
    1.0814    1.0223   -0.4887 C   0  0  0  0  0  0  0  0  0  0  0  0
   -0.2284    1.7352   -0.6871 C   0  0  0  0  0  0  0  0  0  0  0  0
   -1.0561    0.9474   -1.3995 O   0  0  0  0  0  0  0  0  0  0  0  0
   -1.6253   -0.1179   -0.7728 C   0  0  0  0  0  0  0  0  0  0  0  0
   -2.3095    0.2063    0.5308 C   0  0  0  0  0  0  0  0  0  0  0  0
   -0.7715   -1.3454   -0.6935 C   0  0  0  0  0  0  0  0  0  0  0  0
    0.4207   -1.3225    0.1303 C   0  0  0  0  0  0  0  0  0  0  0  0
    2.8872    0.6540    1.3376 H   0  0  0  0  0  0  0  0  0  0  0  0
    2.9462   -0.6309    0.0749 H   0  0  0  0  0  0  0  0  0  0  0  0
    2.4965   -1.1021    1.7287 H   0  0  0  0  0  0  0  0  0  0  0  0
    0.4837    0.4063    1.4719 H   0  0  0  0  0  0  0  0  0  0  0  0
    1.5099    0.6051   -1.4001 H   0  0  0  0  0  0  0  0  0  0  0  0
    1.8018    1.7951   -0.0954 H   0  0  0  0  0  0  0  0  0  0  0  0
    0.0036    2.6468   -1.3082 H   0  0  0  0  0  0  0  0  0  0  0  0
   -0.5684    2.1015    0.2763 H   0  0  0  0  0  0  0  0  0  0  0  0
   -2.4757   -0.4125   -1.4693 H   0  0  0  0  0  0  0  0  0  0  0  0
   -1.7820   -0.3647    1.3322 H   0  0  0  0  0  0  0  0  0  0  0  0
   -2.3764    1.2836    0.7418 H   0  0  0  0  0  0  0  0  0  0  0  0
   -3.3689   -0.1725    0.5768 H   0  0  0  0  0  0  0  0  0  0  0  0
   -1.4618   -2.1757   -0.3766 H   0  0  0  0  0  0  0  0  0  0  0  0
   -0.5101   -1.6182   -1.7599 H   0  0  0  0  0  0  0  0  0  0  0  0
    1.2561   -1.8880   -0.3853 H   0  0  0  0  0  0  0  0  0  0  0  0
    0.2507   -1.9364    1.0677 H   0  0  0  0  0  0  0  0  0  0  0  0
  1  2  1  0
  2  3  1  0
  3  4  1  0
  4  5  1  0
  5  6  1  0
  6  7  1  0
  6  8  1  0
  8  9  1  0
  9  2  1  0
  1 10  1  0
  1 11  1  0
  1 12  1  0
  2 13  1  0
  3 14  1  0
  3 15  1  0
  4 16  1  0
  4 17  1  0
  6 18  1  0
  7 19  1  0
  7 20  1  0
  7 21  1  0
  8 22  1  0
  8 23  1  0
  9 24  1  0
  9 25  1  0
M  END
