
     RDKit          3D

 21 22  0  0  0  0  0  0  0  0999 V2000
   -0.2649    2.1495    0.5840 C   0  0  0  0  0  0  0  0  0  0  0  0
   -0.1671    0.9257   -0.2964 C   0  0  0  0  0  0  0  0  0  0  0  0
    1.2593    0.4631   -0.4719 C   0  0  0  0  0  0  0  0  0  0  0  0
    1.4392   -1.0117   -0.4166 C   0  0  0  0  0  0  0  0  0  0  0  0
    0.7547   -1.6743    0.5168 C   0  0  0  0  0  0  0  0  0  0  0  0
   -0.0740   -0.7858    1.3368 C   0  0  0  0  0  0  0  0  0  0  0  0
   -1.3564   -0.5481    1.4160 O   0  0  0  0  0  0  0  0  0  0  0  0
   -0.9627   -0.1820    0.2131 C   0  0  0  0  0  0  0  0  0  0  0  0
   -1.4329   -1.1337   -0.8787 C   0  0  0  0  0  0  0  0  0  0  0  0
   -0.5018    1.7872    1.6063 H   0  0  0  0  0  0  0  0  0  0  0  0
    0.6796    2.7136    0.5413 H   0  0  0  0  0  0  0  0  0  0  0  0
   -1.1303    2.7418    0.2192 H   0  0  0  0  0  0  0  0  0  0  0  0
   -0.5176    1.2201   -1.3295 H   0  0  0  0  0  0  0  0  0  0  0  0
    1.7239    0.8639   -1.3944 H   0  0  0  0  0  0  0  0  0  0  0  0
    1.8665    0.8751    0.3645 H   0  0  0  0  0  0  0  0  0  0  0  0
    2.1120   -1.4961   -1.1268 H   0  0  0  0  0  0  0  0  0  0  0  0
    0.8746   -2.7289    0.5679 H   0  0  0  0  0  0  0  0  0  0  0  0
    0.5693   -0.0581    1.9061 H   0  0  0  0  0  0  0  0  0  0  0  0
   -1.3535   -0.7129   -1.8806 H   0  0  0  0  0  0  0  0  0  0  0  0
   -0.9831   -2.1279   -0.7986 H   0  0  0  0  0  0  0  0  0  0  0  0
   -2.5347   -1.2807   -0.6784 H   0  0  0  0  0  0  0  0  0  0  0  0
  1  2  1  0
  2  3  1  0
  3  4  1  0
  4  5  2  0
  5  6  1  0
  6  7  1  0
  7  8  1  0
  8  9  1  0
  8  2  1  0
  8  6  1  0
  1 10  1  0
  1 11  1  0
  1 12  1  0
  2 13  1  0
  3 14  1  0
  3 15  1  0
  4 16  1  0
  5 17  1  0
  6 18  1  0
  9 19  1  0
  9 20  1  0
  9 21  1  0
M  END
