
     RDKit          3D

 23 24  0  0  0  0  0  0  0  0999 V2000
    2.7673    0.8707   -0.3901 C   0  0  0  0  0  0  0  0  0  0  0  0
    1.7984    0.1321    0.4738 C   0  0  0  0  0  0  0  0  0  0  0  0
    1.0216   -0.9825   -0.2397 C   0  0  0  0  0  0  0  0  0  0  0  0
   -0.1876   -0.5242    0.5495 C   0  0  0  0  0  0  0  0  0  0  0  0
   -1.4973   -0.6406   -0.1544 C   0  0  0  0  0  0  0  0  0  0  0  0
   -1.8028   -1.9721   -0.5255 O   0  0  0  0  0  0  0  0  0  0  0  0
   -2.0426    0.3833   -1.0466 C   0  0  0  0  0  0  0  0  0  0  0  0
   -2.6644    0.1635    0.3112 C   0  0  0  0  0  0  0  0  0  0  0  0
    0.4394    0.8241    0.6388 C   0  0  0  0  0  0  0  0  0  0  0  0
    3.0730    0.1964   -1.2210 H   0  0  0  0  0  0  0  0  0  0  0  0
    2.4143    1.8534   -0.7302 H   0  0  0  0  0  0  0  0  0  0  0  0
    3.7005    1.0724    0.2064 H   0  0  0  0  0  0  0  0  0  0  0  0
    2.1561   -0.2379    1.4343 H   0  0  0  0  0  0  0  0  0  0  0  0
    1.3962   -1.9928    0.0229 H   0  0  0  0  0  0  0  0  0  0  0  0
    0.9042   -0.8153   -1.3284 H   0  0  0  0  0  0  0  0  0  0  0  0
   -0.2157   -1.0714    1.5121 H   0  0  0  0  0  0  0  0  0  0  0  0
   -1.4528   -2.0852   -1.4417 H   0  0  0  0  0  0  0  0  0  0  0  0
   -2.6661    0.0680   -1.9339 H   0  0  0  0  0  0  0  0  0  0  0  0
   -1.4849    1.3146   -1.2545 H   0  0  0  0  0  0  0  0  0  0  0  0
   -3.6718   -0.3450    0.3372 H   0  0  0  0  0  0  0  0  0  0  0  0
   -2.5206    1.0154    1.0219 H   0  0  0  0  0  0  0  0  0  0  0  0
    0.3049    1.2534    1.6562 H   0  0  0  0  0  0  0  0  0  0  0  0
    0.2305    1.5196   -0.1722 H   0  0  0  0  0  0  0  0  0  0  0  0
  1  2  1  0
  2  3  1  0
  3  4  1  0
  4  5  1  0
  5  6  1  0
  5  7  1  0
  7  8  1  0
  4  9  1  0
  9  2  1  0
  8  5  1  0
  1 10  1  0
  1 11  1  0
  1 12  1  0
  2 13  1  0
  3 14  1  0
  3 15  1  0
  4 16  1  0
  6 17  1  0
  7 18  1  0
  7 19  1  0
  8 20  1  0
  8 21  1  0
  9 22  1  0
  9 23  1  0
M  END
