
     RDKit          3D

 21 21  0  0  0  0  0  0  0  0999 V2000
   -1.9519   -1.1807   -0.0846 C   0  0  0  0  0  0  0  0  0  0  0  0
   -0.6153   -0.5646    0.1163 C   0  0  0  0  0  0  0  0  0  0  0  0
    0.2734   -0.6110   -1.0904 C   0  0  0  0  0  0  0  0  0  0  0  0
    1.6005    0.0130   -0.8225 C   0  0  0  0  0  0  0  0  0  0  0  0
    2.5512   -1.0227   -0.6728 O   0  0  0  0  0  0  0  0  0  0  0  0
    1.6725    0.8288    0.4163 C   0  0  0  0  0  0  0  0  0  0  0  0
    0.6064    1.2601    1.0462 C   0  0  0  0  0  0  0  0  0  0  0  0
   -0.7179    0.9191    0.4993 C   0  0  0  0  0  0  0  0  0  0  0  0
   -1.7529    1.1313    1.3991 O   0  0  0  0  0  0  0  0  0  0  0  0
   -2.6594   -0.3793   -0.3934 H   0  0  0  0  0  0  0  0  0  0  0  0
   -1.9404   -2.0300   -0.7817 H   0  0  0  0  0  0  0  0  0  0  0  0
   -2.3294   -1.5610    0.8900 H   0  0  0  0  0  0  0  0  0  0  0  0
   -0.0894   -1.1177    0.9365 H   0  0  0  0  0  0  0  0  0  0  0  0
   -0.1953   -0.0321   -1.9383 H   0  0  0  0  0  0  0  0  0  0  0  0
    0.4017   -1.6378   -1.4863 H   0  0  0  0  0  0  0  0  0  0  0  0
    1.9495    0.6429   -1.6892 H   0  0  0  0  0  0  0  0  0  0  0  0
    2.9546   -1.0309    0.2287 H   0  0  0  0  0  0  0  0  0  0  0  0
    2.6587    1.0787    0.8188 H   0  0  0  0  0  0  0  0  0  0  0  0
    0.6788    1.8440    1.9331 H   0  0  0  0  0  0  0  0  0  0  0  0
   -0.9003    1.4732   -0.4618 H   0  0  0  0  0  0  0  0  0  0  0  0
   -2.1950    1.9769    1.1368 H   0  0  0  0  0  0  0  0  0  0  0  0
  1  2  1  0
  2  3  1  0
  3  4  1  0
  4  5  1  0
  4  6  1  0
  6  7  2  0
  7  8  1  0
  8  9  1  0
  8  2  1  0
  1 10  1  0
  1 11  1  0
  1 12  1  0
  2 13  1  0
  3 14  1  0
  3 15  1  0
  4 16  1  0
  5 17  1  0
  6 18  1  0
  7 19  1  0
  8 20  1  0
  9 21  1  0
M  END
