
     RDKit          3D

 21 21  0  0  0  0  0  0  0  0999 V2000
   -2.1959    0.2646   -0.0190 C   0  0  0  0  0  0  0  0  0  0  0  0
   -0.7467   -0.0423    0.2137 C   0  0  0  0  0  0  0  0  0  0  0  0
   -0.2677   -1.2405   -0.5783 C   0  0  0  0  0  0  0  0  0  0  0  0
    1.0817   -1.6227    0.0406 C   0  0  0  0  0  0  0  0  0  0  0  0
    1.9611   -0.4392    0.1217 C   0  0  0  0  0  0  0  0  0  0  0  0
    3.1104   -0.5168   -0.2343 O   0  0  0  0  0  0  0  0  0  0  0  0
    1.4436    0.8453    0.6375 C   0  0  0  0  0  0  0  0  0  0  0  0
    0.1582    1.1190   -0.1587 C   0  0  0  0  0  0  0  0  0  0  0  0
   -0.3832    2.3437    0.1395 O   0  0  0  0  0  0  0  0  0  0  0  0
   -2.7671    0.2699    0.9328 H   0  0  0  0  0  0  0  0  0  0  0  0
   -2.3499    1.2772   -0.4648 H   0  0  0  0  0  0  0  0  0  0  0  0
   -2.6279   -0.5431   -0.6619 H   0  0  0  0  0  0  0  0  0  0  0  0
   -0.6189   -0.3258    1.2963 H   0  0  0  0  0  0  0  0  0  0  0  0
   -0.1018   -0.9588   -1.6370 H   0  0  0  0  0  0  0  0  0  0  0  0
   -0.9376   -2.1197   -0.4671 H   0  0  0  0  0  0  0  0  0  0  0  0
    0.8567   -2.0330    1.0547 H   0  0  0  0  0  0  0  0  0  0  0  0
    1.5060   -2.4297   -0.5736 H   0  0  0  0  0  0  0  0  0  0  0  0
    1.0871    0.7383    1.7035 H   0  0  0  0  0  0  0  0  0  0  0  0
    2.1462    1.6725    0.5588 H   0  0  0  0  0  0  0  0  0  0  0  0
    0.4596    1.0180   -1.2269 H   0  0  0  0  0  0  0  0  0  0  0  0
   -0.8139    2.7233   -0.6774 H   0  0  0  0  0  0  0  0  0  0  0  0
  1  2  1  0
  2  3  1  0
  3  4  1  0
  4  5  1  0
  5  6  2  0
  5  7  1  0
  7  8  1  0
  8  9  1  0
  8  2  1  0
  1 10  1  0
  1 11  1  0
  1 12  1  0
  2 13  1  0
  3 14  1  0
  3 15  1  0
  4 16  1  0
  4 17  1  0
  7 18  1  0
  7 19  1  0
  8 20  1  0
  9 21  1  0
M  END
