
     RDKit          3D

 25 26  0  0  0  0  0  0  0  0999 V2000
   -3.1785   -0.2105   -0.3670 C   0  0  0  0  0  0  0  0  0  0  0  0
   -1.9548    0.4927    0.1342 C   0  0  0  0  0  0  0  0  0  0  0  0
   -1.0884   -0.4970    0.9189 C   0  0  0  0  0  0  0  0  0  0  0  0
    0.0668   -0.0713    0.0734 C   0  0  0  0  0  0  0  0  0  0  0  0
   -0.8381    0.5437   -0.9114 C   0  0  0  0  0  0  0  0  0  0  0  0
    1.1322    0.7367    0.6963 C   0  0  0  0  0  0  0  0  0  0  0  0
    2.1553   -0.2373    0.0966 C   0  0  0  0  0  0  0  0  0  0  0  0
    2.8822    0.4081   -1.0513 C   0  0  0  0  0  0  0  0  0  0  0  0
    1.0111   -1.1305   -0.3824 C   0  0  0  0  0  0  0  0  0  0  0  0
   -3.8557   -0.4699    0.4581 H   0  0  0  0  0  0  0  0  0  0  0  0
   -2.8377   -1.1850   -0.8037 H   0  0  0  0  0  0  0  0  0  0  0  0
   -3.6785    0.3956   -1.1323 H   0  0  0  0  0  0  0  0  0  0  0  0
   -2.1189    1.4417    0.6481 H   0  0  0  0  0  0  0  0  0  0  0  0
   -1.3369   -1.5709    0.6971 H   0  0  0  0  0  0  0  0  0  0  0  0
   -0.9962   -0.2835    1.9876 H   0  0  0  0  0  0  0  0  0  0  0  0
   -1.0420   -0.1295   -1.7675 H   0  0  0  0  0  0  0  0  0  0  0  0
   -0.5955    1.5539   -1.2744 H   0  0  0  0  0  0  0  0  0  0  0  0
    1.1161    0.6600    1.8057 H   0  0  0  0  0  0  0  0  0  0  0  0
    1.2605    1.7820    0.3776 H   0  0  0  0  0  0  0  0  0  0  0  0
    2.7982   -0.6769    0.8657 H   0  0  0  0  0  0  0  0  0  0  0  0
    2.3030    0.4195   -1.9882 H   0  0  0  0  0  0  0  0  0  0  0  0
    3.1083    1.4516   -0.7489 H   0  0  0  0  0  0  0  0  0  0  0  0
    3.8560   -0.0895   -1.2030 H   0  0  0  0  0  0  0  0  0  0  0  0
    0.8740   -2.0519    0.2491 H   0  0  0  0  0  0  0  0  0  0  0  0
    0.9575   -1.2821   -1.4628 H   0  0  0  0  0  0  0  0  0  0  0  0
  1  2  1  0
  2  3  1  0
  3  4  1  0
  4  5  1  0
  4  6  1  0
  6  7  1  0
  7  8  1  0
  7  9  1  0
  5  2  1  0
  9  4  1  0
  1 10  1  0
  1 11  1  0
  1 12  1  0
  2 13  1  0
  3 14  1  0
  3 15  1  0
  5 16  1  0
  5 17  1  0
  6 18  1  0
  6 19  1  0
  7 20  1  0
  8 21  1  0
  8 22  1  0
  8 23  1  0
  9 24  1  0
  9 25  1  0
M  END
