
     RDKit          3D

 18 20  0  0  0  0  0  0  0  0999 V2000
   -2.6908    0.2188   -0.4999 C   0  0  0  0  0  0  0  0  0  0  0  0
   -1.3568   -0.4636   -0.6821 C   0  0  0  0  0  0  0  0  0  0  0  0
   -0.6159   -0.7928    0.5474 C   0  0  0  0  0  0  0  0  0  0  0  0
    0.6420   -1.3408    0.5340 O   0  0  0  0  0  0  0  0  0  0  0  0
    1.1278   -0.2841   -0.1502 C   0  0  0  0  0  0  0  0  0  0  0  0
    2.2365   -0.2608   -1.0702 C   0  0  0  0  0  0  0  0  0  0  0  0
    2.2904    0.5213    0.2152 C   0  0  0  0  0  0  0  0  0  0  0  0
   -0.1776    0.3878   -0.3150 C   0  0  0  0  0  0  0  0  0  0  0  0
   -3.0414    0.0487    0.5181 H   0  0  0  0  0  0  0  0  0  0  0  0
   -3.4547   -0.1116   -1.2204 H   0  0  0  0  0  0  0  0  0  0  0  0
   -2.5374    1.3172   -0.7133 H   0  0  0  0  0  0  0  0  0  0  0  0
   -1.2193   -1.0962   -1.5730 H   0  0  0  0  0  0  0  0  0  0  0  0
   -1.0050   -0.5704    1.5609 H   0  0  0  0  0  0  0  0  0  0  0  0
    2.9299   -1.1278   -1.0878 H   0  0  0  0  0  0  0  0  0  0  0  0
    2.1098    0.2986   -2.0350 H   0  0  0  0  0  0  0  0  0  0  0  0
    2.9357    0.2241    1.0398 H   0  0  0  0  0  0  0  0  0  0  0  0
    2.1729    1.6314    0.0966 H   0  0  0  0  0  0  0  0  0  0  0  0
   -0.3462    1.4000    0.1380 H   0  0  0  0  0  0  0  0  0  0  0  0
  1  2  1  0
  2  3  1  0
  3  4  1  0
  4  5  1  0
  5  6  1  0
  6  7  1  0
  5  8  1  0
  8  2  1  0
  8  3  1  0
  7  5  1  0
  1  9  1  0
  1 10  1  0
  1 11  1  0
  2 12  1  0
  3 13  1  0
  6 14  1  0
  6 15  1  0
  7 16  1  0
  7 17  1  0
  8 18  1  0
M  END
