
     RDKit          3D

 16 17  0  0  0  0  0  0  0  0999 V2000
    1.9827   -0.5492   -0.3322 C   0  0  0  0  0  0  0  0  0  0  0  0
    0.7460    0.2973   -0.3872 C   0  0  0  0  0  0  0  0  0  0  0  0
   -0.0486    0.3998    0.8354 C   0  0  0  0  0  0  0  0  0  0  0  0
   -1.2753    1.3067    0.7313 C   0  0  0  0  0  0  0  0  0  0  0  0
   -1.8306    0.3022   -0.2121 C   0  0  0  0  0  0  0  0  0  0  0  0
   -2.9352    0.1362   -0.6861 O   0  0  0  0  0  0  0  0  0  0  0  0
   -0.5533   -0.4003   -0.3488 C   0  0  0  0  0  0  0  0  0  0  0  0
   -0.5120   -1.7992   -0.2681 O   0  0  0  0  0  0  0  0  0  0  0  0
    2.6940   -0.2193    0.4732 H   0  0  0  0  0  0  0  0  0  0  0  0
    1.7085   -1.5995   -0.0454 H   0  0  0  0  0  0  0  0  0  0  0  0
    2.4430   -0.5510   -1.3230 H   0  0  0  0  0  0  0  0  0  0  0  0
    0.8686    1.2619   -0.9621 H   0  0  0  0  0  0  0  0  0  0  0  0
    0.1673   -0.1059    1.7746 H   0  0  0  0  0  0  0  0  0  0  0  0
   -1.7609    1.3649    1.7183 H   0  0  0  0  0  0  0  0  0  0  0  0
   -1.0332    2.2741    0.2438 H   0  0  0  0  0  0  0  0  0  0  0  0
   -0.6610   -2.1187   -1.2114 H   0  0  0  0  0  0  0  0  0  0  0  0
  1  2  1  0
  2  3  1  0
  3  4  1  0
  4  5  1  0
  5  6  2  0
  5  7  1  0
  7  8  1  0
  7  2  1  0
  7  3  1  0
  1  9  1  0
  1 10  1  0
  1 11  1  0
  2 12  1  0
  3 13  1  0
  4 14  1  0
  4 15  1  0
  8 16  1  0
M  END
