
     RDKit          3D

 21 22  0  0  0  0  0  0  0  0999 V2000
    2.4221   -0.4323    0.4000 C   0  0  0  0  0  0  0  0  0  0  0  0
    1.1379    0.1060   -0.1340 C   0  0  0  0  0  0  0  0  0  0  0  0
    0.1053   -0.9909   -0.3945 C   0  0  0  0  0  0  0  0  0  0  0  0
   -1.1455   -0.2363    0.0805 C   0  0  0  0  0  0  0  0  0  0  0  0
   -2.3435   -1.0823    0.1861 C   0  0  0  0  0  0  0  0  0  0  0  0
   -1.3045    0.9202   -0.6625 O   0  0  0  0  0  0  0  0  0  0  0  0
   -0.4833    1.8977   -0.0782 C   0  0  0  0  0  0  0  0  0  0  0  0
    0.3949    0.9977    0.8002 C   0  0  0  0  0  0  0  0  0  0  0  0
   -0.6409    0.1902    1.3345 O   0  0  0  0  0  0  0  0  0  0  0  0
    3.0024    0.4243    0.8022 H   0  0  0  0  0  0  0  0  0  0  0  0
    2.2700   -1.1402    1.2288 H   0  0  0  0  0  0  0  0  0  0  0  0
    2.9957   -0.8595   -0.4457 H   0  0  0  0  0  0  0  0  0  0  0  0
    1.3172    0.5931   -1.1083 H   0  0  0  0  0  0  0  0  0  0  0  0
    0.3284   -1.8046    0.2953 H   0  0  0  0  0  0  0  0  0  0  0  0
    0.0416   -1.2558   -1.4486 H   0  0  0  0  0  0  0  0  0  0  0  0
   -2.5418   -1.5018    1.2033 H   0  0  0  0  0  0  0  0  0  0  0  0
   -3.2450   -0.4362   -0.0259 H   0  0  0  0  0  0  0  0  0  0  0  0
   -2.3816   -1.8727   -0.5967 H   0  0  0  0  0  0  0  0  0  0  0  0
   -1.0397    2.5514    0.6033 H   0  0  0  0  0  0  0  0  0  0  0  0
    0.1501    2.4082   -0.8038 H   0  0  0  0  0  0  0  0  0  0  0  0
    0.9601    1.5239    1.5364 H   0  0  0  0  0  0  0  0  0  0  0  0
  1  2  1  0
  2  3  1  0
  3  4  1  0
  4  5  1  0
  4  6  1  0
  6  7  1  0
  7  8  1  0
  8  9  1  0
  8  2  1  0
  9  4  1  0
  1 10  1  0
  1 11  1  0
  1 12  1  0
  2 13  1  0
  3 14  1  0
  3 15  1  0
  5 16  1  0
  5 17  1  0
  5 18  1  0
  7 19  1  0
  7 20  1  0
  8 21  1  0
M  END
