
     RDKit          3D

 23 23  0  0  0  0  0  0  0  0999 V2000
    2.4412   -0.0729   -0.3503 C   0  0  0  0  0  0  0  0  0  0  0  0
    1.0431   -0.0695    0.1543 C   0  0  0  0  0  0  0  0  0  0  0  0
    0.3555    1.1965   -0.3720 C   0  0  0  0  0  0  0  0  0  0  0  0
   -0.9144    1.3254    0.4680 C   0  0  0  0  0  0  0  0  0  0  0  0
   -1.5151    2.5115    0.1444 O   0  0  0  0  0  0  0  0  0  0  0  0
   -1.8160    0.1446    0.2284 C   0  0  0  0  0  0  0  0  0  0  0  0
   -1.1203   -1.1599    0.3754 C   0  0  0  0  0  0  0  0  0  0  0  0
    0.2109   -1.2305   -0.3280 C   0  0  0  0  0  0  0  0  0  0  0  0
    0.8198   -2.4346    0.0545 O   0  0  0  0  0  0  0  0  0  0  0  0
    2.6503    0.7906   -1.0306 H   0  0  0  0  0  0  0  0  0  0  0  0
    2.6991   -0.9959   -0.8806 H   0  0  0  0  0  0  0  0  0  0  0  0
    3.1179    0.0903    0.5324 H   0  0  0  0  0  0  0  0  0  0  0  0
    0.9769   -0.0783    1.2724 H   0  0  0  0  0  0  0  0  0  0  0  0
    0.0829    1.0721   -1.4333 H   0  0  0  0  0  0  0  0  0  0  0  0
    1.0193    2.0412   -0.1630 H   0  0  0  0  0  0  0  0  0  0  0  0
   -0.6263    1.3387    1.5287 H   0  0  0  0  0  0  0  0  0  0  0  0
   -2.2881    2.4455   -0.4602 H   0  0  0  0  0  0  0  0  0  0  0  0
   -2.6261    0.1979    0.9904 H   0  0  0  0  0  0  0  0  0  0  0  0
   -2.3306    0.1935   -0.7604 H   0  0  0  0  0  0  0  0  0  0  0  0
   -1.7624   -1.9583   -0.0919 H   0  0  0  0  0  0  0  0  0  0  0  0
   -0.9900   -1.4573    1.4416 H   0  0  0  0  0  0  0  0  0  0  0  0
    0.0504   -1.2153   -1.4264 H   0  0  0  0  0  0  0  0  0  0  0  0
    0.5219   -2.6755    0.9693 H   0  0  0  0  0  0  0  0  0  0  0  0
  1  2  1  0
  2  3  1  0
  3  4  1  0
  4  5  1  0
  4  6  1  0
  6  7  1  0
  7  8  1  0
  8  9  1  0
  8  2  1  0
  1 10  1  0
  1 11  1  0
  1 12  1  0
  2 13  1  0
  3 14  1  0
  3 15  1  0
  4 16  1  0
  5 17  1  0
  6 18  1  0
  6 19  1  0
  7 20  1  0
  7 21  1  0
  8 22  1  0
  9 23  1  0
M  END
