
     RDKit          3D

 17 18  0  0  0  0  0  0  0  0999 V2000
   -2.0555   -0.1001   -0.0404 C   0  0  0  0  0  0  0  0  0  0  0  0
   -0.6366    0.1058    0.4301 C   0  0  0  0  0  0  0  0  0  0  0  0
    0.2176   -1.1461    0.1839 C   0  0  0  0  0  0  0  0  0  0  0  0
    1.4605   -0.4565   -0.3716 C   0  0  0  0  0  0  0  0  0  0  0  0
    0.8305    0.3836   -1.3254 O   0  0  0  0  0  0  0  0  0  0  0  0
    0.0657    1.1322   -0.3999 C   0  0  0  0  0  0  0  0  0  0  0  0
    1.1492    1.6670    0.3802 O   0  0  0  0  0  0  0  0  0  0  0  0
    1.9740    0.5637    0.5600 C   0  0  0  0  0  0  0  0  0  0  0  0
    2.9371    0.4964    1.3563 O   0  0  0  0  0  0  0  0  0  0  0  0
   -2.0936   -0.6883   -0.9552 H   0  0  0  0  0  0  0  0  0  0  0  0
   -2.6109   -0.5898    0.7616 H   0  0  0  0  0  0  0  0  0  0  0  0
   -2.4540    0.9322   -0.2684 H   0  0  0  0  0  0  0  0  0  0  0  0
   -0.6013    0.3671    1.4923 H   0  0  0  0  0  0  0  0  0  0  0  0
    0.4157   -1.6970    1.1032 H   0  0  0  0  0  0  0  0  0  0  0  0
   -0.2343   -1.7336   -0.6306 H   0  0  0  0  0  0  0  0  0  0  0  0
    2.1847   -1.1218   -0.7958 H   0  0  0  0  0  0  0  0  0  0  0  0
   -0.5487    1.8853   -0.8555 H   0  0  0  0  0  0  0  0  0  0  0  0
  1  2  1  0
  2  3  1  0
  3  4  1  0
  4  5  1  0
  5  6  1  0
  6  7  1  0
  7  8  1  0
  8  9  2  0
  6  2  1  0
  8  4  1  0
  1 10  1  0
  1 11  1  0
  1 12  1  0
  2 13  1  0
  3 14  1  0
  3 15  1  0
  4 16  1  0
  6 17  1  0
M  END
