
     RDKit          3D

 23 24  0  0  0  0  0  0  0  0999 V2000
    2.8997    0.3999    0.3535 C   0  0  0  0  0  0  0  0  0  0  0  0
    1.6417    0.2947   -0.4721 C   0  0  0  0  0  0  0  0  0  0  0  0
    1.3122   -1.1240   -0.6680 C   0  0  0  0  0  0  0  0  0  0  0  0
    0.0379   -1.3728   -0.4146 C   0  0  0  0  0  0  0  0  0  0  0  0
   -0.6399   -0.1419   -0.0166 C   0  0  0  0  0  0  0  0  0  0  0  0
   -1.6276   -0.3141    1.1127 C   0  0  0  0  0  0  0  0  0  0  0  0
   -2.7236    0.1236    0.1777 C   0  0  0  0  0  0  0  0  0  0  0  0
   -1.7437    0.2833   -0.9565 C   0  0  0  0  0  0  0  0  0  0  0  0
    0.4399    0.8649    0.2243 C   0  0  0  0  0  0  0  0  0  0  0  0
    2.6499    0.5863    1.4368 H   0  0  0  0  0  0  0  0  0  0  0  0
    3.4919   -0.5338    0.2555 H   0  0  0  0  0  0  0  0  0  0  0  0
    3.5541    1.2412    0.0428 H   0  0  0  0  0  0  0  0  0  0  0  0
    1.8513    0.8349   -1.4312 H   0  0  0  0  0  0  0  0  0  0  0  0
    1.9878   -1.9336   -0.9841 H   0  0  0  0  0  0  0  0  0  0  0  0
   -0.4769   -2.3528   -0.4820 H   0  0  0  0  0  0  0  0  0  0  0  0
   -1.4840    0.3698    1.9734 H   0  0  0  0  0  0  0  0  0  0  0  0
   -1.6620   -1.3699    1.4351 H   0  0  0  0  0  0  0  0  0  0  0  0
   -3.1815    1.1064    0.4493 H   0  0  0  0  0  0  0  0  0  0  0  0
   -3.4549   -0.7019    0.0182 H   0  0  0  0  0  0  0  0  0  0  0  0
   -1.5979    1.3000   -1.3272 H   0  0  0  0  0  0  0  0  0  0  0  0
   -1.9491   -0.4217   -1.7955 H   0  0  0  0  0  0  0  0  0  0  0  0
    0.1086    1.8319   -0.2261 H   0  0  0  0  0  0  0  0  0  0  0  0
    0.5662    1.0296    1.2945 H   0  0  0  0  0  0  0  0  0  0  0  0
  1  2  1  0
  2  3  1  0
  3  4  2  0
  4  5  1  0
  5  6  1  0
  6  7  1  0
  7  8  1  0
  5  9  1  0
  9  2  1  0
  8  5  1  0
  1 10  1  0
  1 11  1  0
  1 12  1  0
  2 13  1  0
  3 14  1  0
  4 15  1  0
  6 16  1  0
  6 17  1  0
  7 18  1  0
  7 19  1  0
  8 20  1  0
  8 21  1  0
  9 22  1  0
  9 23  1  0
M  END
