
     RDKit          3D

 23 23  0  0  0  0  0  0  0  0999 V2000
   -2.5203   -0.4876    0.6724 C   0  0  0  0  0  0  0  0  0  0  0  0
   -1.4426    0.1705   -0.1958 C   0  0  0  0  0  0  0  0  0  0  0  0
   -0.5197   -0.8229   -0.8107 C   0  0  0  0  0  0  0  0  0  0  0  0
    0.5388   -1.3449    0.1058 C   0  0  0  0  0  0  0  0  0  0  0  0
    1.9458   -0.9170   -0.3358 C   0  0  0  0  0  0  0  0  0  0  0  0
    2.1694    0.4183    0.3331 C   0  0  0  0  0  0  0  0  0  0  0  0
    1.4453    1.5062    0.4297 C   0  0  0  0  0  0  0  0  0  0  0  0
    0.0994    1.8950   -0.0737 C   0  0  0  0  0  0  0  0  0  0  0  0
   -0.8329    1.1249    0.5835 O   0  0  0  0  0  0  0  0  0  0  0  0
   -2.0436   -0.6951    1.6536 H   0  0  0  0  0  0  0  0  0  0  0  0
   -3.2954    0.2981    0.8698 H   0  0  0  0  0  0  0  0  0  0  0  0
   -2.9677   -1.3591    0.1938 H   0  0  0  0  0  0  0  0  0  0  0  0
   -1.9946    0.6770   -1.0391 H   0  0  0  0  0  0  0  0  0  0  0  0
   -1.1471   -1.6767   -1.1883 H   0  0  0  0  0  0  0  0  0  0  0  0
   -0.0184   -0.3507   -1.6795 H   0  0  0  0  0  0  0  0  0  0  0  0
    0.3154   -0.9912    1.1314 H   0  0  0  0  0  0  0  0  0  0  0  0
    0.5130   -2.4708    0.1566 H   0  0  0  0  0  0  0  0  0  0  0  0
    2.7064   -1.6443   -0.0674 H   0  0  0  0  0  0  0  0  0  0  0  0
    1.9615   -0.7007   -1.4237 H   0  0  0  0  0  0  0  0  0  0  0  0
    3.1316    0.4826    0.8360 H   0  0  0  0  0  0  0  0  0  0  0  0
    1.9400    2.2819    0.9987 H   0  0  0  0  0  0  0  0  0  0  0  0
   -0.0792    2.9840    0.0186 H   0  0  0  0  0  0  0  0  0  0  0  0
    0.0947    1.6225   -1.1690 H   0  0  0  0  0  0  0  0  0  0  0  0
  1  2  1  0
  2  3  1  0
  3  4  1  0
  4  5  1  0
  5  6  1  0
  6  7  2  3
  7  8  1  0
  8  9  1  0
  9  2  1  0
  1 10  1  0
  1 11  1  0
  1 12  1  0
  2 13  1  0
  3 14  1  0
  3 15  1  0
  4 16  1  0
  4 17  1  0
  5 18  1  0
  5 19  1  0
  6 20  1  0
  7 21  1  0
  8 22  1  0
  8 23  1  0
M  END
