
     RDKit          3D

 25 26  0  0  0  0  0  0  0  0999 V2000
    1.4202   -1.2066    1.2089 C   0  0  0  0  0  0  0  0  0  0  0  0
    1.3523   -0.6430   -0.1687 C   0  0  0  0  0  0  0  0  0  0  0  0
    1.2237    0.8629   -0.2337 C   0  0  0  0  0  0  0  0  0  0  0  0
    2.1788    1.5020   -1.2322 C   0  0  0  0  0  0  0  0  0  0  0  0
    0.1289   -0.0037   -0.7039 C   0  0  0  0  0  0  0  0  0  0  0  0
   -1.1705   -0.1101    0.0251 C   0  0  0  0  0  0  0  0  0  0  0  0
   -1.2920    0.4313    1.4458 C   0  0  0  0  0  0  0  0  0  0  0  0
   -2.1310   -1.2141   -0.3525 C   0  0  0  0  0  0  0  0  0  0  0  0
   -2.4153    0.1488   -0.8093 C   0  0  0  0  0  0  0  0  0  0  0  0
    1.7887   -0.4179    1.8956 H   0  0  0  0  0  0  0  0  0  0  0  0
    2.1876   -2.0310    1.2925 H   0  0  0  0  0  0  0  0  0  0  0  0
    0.4404   -1.5451    1.6130 H   0  0  0  0  0  0  0  0  0  0  0  0
    2.0209   -1.1576   -0.8983 H   0  0  0  0  0  0  0  0  0  0  0  0
    1.1354    1.4478    0.6874 H   0  0  0  0  0  0  0  0  0  0  0  0
    2.1468    0.9185   -2.1851 H   0  0  0  0  0  0  0  0  0  0  0  0
    1.9312    2.5554   -1.4078 H   0  0  0  0  0  0  0  0  0  0  0  0
    3.1975    1.3537   -0.8175 H   0  0  0  0  0  0  0  0  0  0  0  0
    0.0241   -0.0370   -1.8242 H   0  0  0  0  0  0  0  0  0  0  0  0
   -2.0201    1.2936    1.4727 H   0  0  0  0  0  0  0  0  0  0  0  0
   -1.7523   -0.3701    2.0439 H   0  0  0  0  0  0  0  0  0  0  0  0
   -0.3336    0.7057    1.8770 H   0  0  0  0  0  0  0  0  0  0  0  0
   -1.8049   -1.9641   -1.1116 H   0  0  0  0  0  0  0  0  0  0  0  0
   -2.7379   -1.6262    0.4688 H   0  0  0  0  0  0  0  0  0  0  0  0
   -3.2332    0.7636   -0.3823 H   0  0  0  0  0  0  0  0  0  0  0  0
   -2.2859    0.3431   -1.9034 H   0  0  0  0  0  0  0  0  0  0  0  0
  1  2  1  0
  2  3  1  0
  3  4  1  0
  3  5  1  0
  5  6  1  0
  6  7  1  0
  6  8  1  0
  8  9  1  0
  5  2  1  0
  9  6  1  0
  1 10  1  0
  1 11  1  0
  1 12  1  0
  2 13  1  0
  3 14  1  0
  4 15  1  0
  4 16  1  0
  4 17  1  0
  5 18  1  0
  7 19  1  0
  7 20  1  0
  7 21  1  0
  8 22  1  0
  8 23  1  0
  9 24  1  0
  9 25  1  0
M  END
