
     RDKit          3D

 23 24  0  0  0  0  0  0  0  0999 V2000
    2.6095   -0.1019   -0.0651 C   0  0  0  0  0  0  0  0  0  0  0  0
    1.1998    0.2216   -0.5032 C   0  0  0  0  0  0  0  0  0  0  0  0
    0.3884   -1.0121   -0.9013 C   0  0  0  0  0  0  0  0  0  0  0  0
   -0.7318   -0.4649   -0.0518 C   0  0  0  0  0  0  0  0  0  0  0  0
   -1.4599   -1.4757    0.7643 C   0  0  0  0  0  0  0  0  0  0  0  0
   -1.6144    0.5454   -0.6895 C   0  0  0  0  0  0  0  0  0  0  0  0
   -1.3324    1.8132    0.0387 C   0  0  0  0  0  0  0  0  0  0  0  0
   -0.2619    1.7141    0.8078 C   0  0  0  0  0  0  0  0  0  0  0  0
    0.3011    0.3607    0.6838 C   0  0  0  0  0  0  0  0  0  0  0  0
    2.6847   -0.2326    1.0189 H   0  0  0  0  0  0  0  0  0  0  0  0
    2.9929   -1.0087   -0.6158 H   0  0  0  0  0  0  0  0  0  0  0  0
    3.3016    0.7202   -0.3422 H   0  0  0  0  0  0  0  0  0  0  0  0
    1.1120    1.0007   -1.2626 H   0  0  0  0  0  0  0  0  0  0  0  0
    0.7897   -1.9433   -0.4589 H   0  0  0  0  0  0  0  0  0  0  0  0
    0.1998   -1.0528   -1.9873 H   0  0  0  0  0  0  0  0  0  0  0  0
   -2.0358   -0.9524    1.5466 H   0  0  0  0  0  0  0  0  0  0  0  0
   -0.7286   -2.1927    1.2046 H   0  0  0  0  0  0  0  0  0  0  0  0
   -2.1181   -2.0519    0.1122 H   0  0  0  0  0  0  0  0  0  0  0  0
   -1.4636    0.6710   -1.7702 H   0  0  0  0  0  0  0  0  0  0  0  0
   -2.7109    0.3082   -0.5581 H   0  0  0  0  0  0  0  0  0  0  0  0
   -1.9114    2.7532   -0.0171 H   0  0  0  0  0  0  0  0  0  0  0  0
    0.1451    2.4986    1.4343 H   0  0  0  0  0  0  0  0  0  0  0  0
    0.6442   -0.1181    1.6119 H   0  0  0  0  0  0  0  0  0  0  0  0
  1  2  1  0
  2  3  1  0
  3  4  1  0
  4  5  1  0
  4  6  1  0
  6  7  1  0
  7  8  2  0
  8  9  1  0
  9  2  1  0
  9  4  1  0
  1 10  1  0
  1 11  1  0
  1 12  1  0
  2 13  1  0
  3 14  1  0
  3 15  1  0
  5 16  1  0
  5 17  1  0
  5 18  1  0
  6 19  1  0
  6 20  1  0
  7 21  1  0
  8 22  1  0
  9 23  1  0
M  END
