
     RDKit          3D

 23 24  0  0  0  0  0  0  0  0999 V2000
   -3.0869    0.3776   -0.1541 C   0  0  0  0  0  0  0  0  0  0  0  0
   -1.8710   -0.3620    0.2857 C   0  0  0  0  0  0  0  0  0  0  0  0
   -0.8182    0.5254    0.9623 C   0  0  0  0  0  0  0  0  0  0  0  0
    0.2082   -0.1770    0.1591 C   0  0  0  0  0  0  0  0  0  0  0  0
   -0.8254   -0.6008   -0.8109 C   0  0  0  0  0  0  0  0  0  0  0  0
    0.8660   -1.2553    0.8628 O   0  0  0  0  0  0  0  0  0  0  0  0
    1.5598   -0.1574    0.1563 C   0  0  0  0  0  0  0  0  0  0  0  0
    2.3744   -0.6330   -1.0281 C   0  0  0  0  0  0  0  0  0  0  0  0
    2.3307    0.7506    1.1144 C   0  0  0  0  0  0  0  0  0  0  0  0
   -3.1504    0.4413   -1.2545 H   0  0  0  0  0  0  0  0  0  0  0  0
   -3.9821   -0.1596    0.2607 H   0  0  0  0  0  0  0  0  0  0  0  0
   -3.0793    1.4204    0.2516 H   0  0  0  0  0  0  0  0  0  0  0  0
   -2.0284   -1.3145    0.8261 H   0  0  0  0  0  0  0  0  0  0  0  0
   -0.7638    0.4304    2.0454 H   0  0  0  0  0  0  0  0  0  0  0  0
   -1.0098    1.5710    0.6475 H   0  0  0  0  0  0  0  0  0  0  0  0
   -0.9192    0.1242   -1.6495 H   0  0  0  0  0  0  0  0  0  0  0  0
   -0.8005   -1.6163   -1.2071 H   0  0  0  0  0  0  0  0  0  0  0  0
    1.9015   -0.2050   -1.9407 H   0  0  0  0  0  0  0  0  0  0  0  0
    2.2849   -1.7461   -1.1471 H   0  0  0  0  0  0  0  0  0  0  0  0
    3.4416   -0.3628   -0.9376 H   0  0  0  0  0  0  0  0  0  0  0  0
    1.7599    0.7435    2.0789 H   0  0  0  0  0  0  0  0  0  0  0  0
    3.3720    0.4278    1.2444 H   0  0  0  0  0  0  0  0  0  0  0  0
    2.2359    1.7778    0.7100 H   0  0  0  0  0  0  0  0  0  0  0  0
  1  2  1  0
  2  3  1  0
  3  4  1  0
  4  5  1  0
  4  6  1  0
  6  7  1  0
  7  8  1  0
  7  9  1  0
  5  2  1  0
  7  4  1  0
  1 10  1  0
  1 11  1  0
  1 12  1  0
  2 13  1  0
  3 14  1  0
  3 15  1  0
  5 16  1  0
  5 17  1  0
  8 18  1  0
  8 19  1  0
  8 20  1  0
  9 21  1  0
  9 22  1  0
  9 23  1  0
M  END
