
     RDKit          3D

 23 24  0  0  0  0  0  0  0  0999 V2000
    1.7365    0.4874    0.8819 C   0  0  0  0  0  0  0  0  0  0  0  0
    1.0490   -0.2869   -0.1616 C   0  0  0  0  0  0  0  0  0  0  0  0
    0.5753    0.4417   -1.3976 C   0  0  0  0  0  0  0  0  0  0  0  0
   -0.5242   -0.6350   -1.4638 C   0  0  0  0  0  0  0  0  0  0  0  0
   -0.4082   -0.6272    0.0691 C   0  0  0  0  0  0  0  0  0  0  0  0
   -0.5999   -1.9284    0.7331 C   0  0  0  0  0  0  0  0  0  0  0  0
   -1.2231    0.5361    0.5275 C   0  0  0  0  0  0  0  0  0  0  0  0
   -0.7133    1.8186   -0.0528 C   0  0  0  0  0  0  0  0  0  0  0  0
    0.0693    1.6819   -1.1591 O   0  0  0  0  0  0  0  0  0  0  0  0
    2.1119    1.4790    0.5379 H   0  0  0  0  0  0  0  0  0  0  0  0
    2.6700   -0.0752    1.1806 H   0  0  0  0  0  0  0  0  0  0  0  0
    1.1643    0.5779    1.8493 H   0  0  0  0  0  0  0  0  0  0  0  0
    1.5761   -1.2214   -0.4895 H   0  0  0  0  0  0  0  0  0  0  0  0
    1.2865    0.4178   -2.2166 H   0  0  0  0  0  0  0  0  0  0  0  0
   -0.1390   -1.5297   -1.9459 H   0  0  0  0  0  0  0  0  0  0  0  0
   -1.4579   -0.2032   -1.8400 H   0  0  0  0  0  0  0  0  0  0  0  0
    0.3691   -2.2157    1.2375 H   0  0  0  0  0  0  0  0  0  0  0  0
   -0.8344   -2.7750    0.0626 H   0  0  0  0  0  0  0  0  0  0  0  0
   -1.3458   -1.8170    1.5616 H   0  0  0  0  0  0  0  0  0  0  0  0
   -1.3856    0.5746    1.6239 H   0  0  0  0  0  0  0  0  0  0  0  0
   -2.2561    0.3783    0.0929 H   0  0  0  0  0  0  0  0  0  0  0  0
   -1.5798    2.4872   -0.3298 H   0  0  0  0  0  0  0  0  0  0  0  0
   -0.1407    2.4342    0.6990 H   0  0  0  0  0  0  0  0  0  0  0  0
  1  2  1  0
  2  3  1  0
  3  4  1  0
  4  5  1  0
  5  6  1  0
  5  7  1  0
  7  8  1  0
  8  9  1  0
  5  2  1  0
  9  3  1  0
  1 10  1  0
  1 11  1  0
  1 12  1  0
  2 13  1  0
  3 14  1  0
  4 15  1  0
  4 16  1  0
  6 17  1  0
  6 18  1  0
  6 19  1  0
  7 20  1  0
  7 21  1  0
  8 22  1  0
  8 23  1  0
M  END
