
     RDKit          3D

 18 19  0  0  0  0  0  0  0  0999 V2000
   -1.6322   -1.1110   -0.0250 C   0  0  0  0  0  0  0  0  0  0  0  0
   -0.5857   -0.2334    0.6233 C   0  0  0  0  0  0  0  0  0  0  0  0
   -0.8754    1.2461    0.3343 C   0  0  0  0  0  0  0  0  0  0  0  0
   -1.2731    1.4457   -0.9701 O   0  0  0  0  0  0  0  0  0  0  0  0
    0.0574    1.2877   -0.6755 C   0  0  0  0  0  0  0  0  0  0  0  0
    0.6116   -0.0695   -0.3072 C   0  0  0  0  0  0  0  0  0  0  0  0
    1.9236    0.1085    0.4420 C   0  0  0  0  0  0  0  0  0  0  0  0
    0.6460   -0.9125   -1.3849 O   0  0  0  0  0  0  0  0  0  0  0  0
   -2.1939   -0.5317   -0.7781 H   0  0  0  0  0  0  0  0  0  0  0  0
   -2.3001   -1.5729    0.7401 H   0  0  0  0  0  0  0  0  0  0  0  0
   -1.1303   -1.9317   -0.5590 H   0  0  0  0  0  0  0  0  0  0  0  0
   -0.3500   -0.4419    1.6652 H   0  0  0  0  0  0  0  0  0  0  0  0
   -1.1574    1.9055    1.1459 H   0  0  0  0  0  0  0  0  0  0  0  0
    0.7646    2.0498   -1.0225 H   0  0  0  0  0  0  0  0  0  0  0  0
    1.7106    0.8123    1.2825 H   0  0  0  0  0  0  0  0  0  0  0  0
    2.2810   -0.8255    0.8891 H   0  0  0  0  0  0  0  0  0  0  0  0
    2.6526    0.6194   -0.2060 H   0  0  0  0  0  0  0  0  0  0  0  0
    0.8507   -1.8447   -1.1943 H   0  0  0  0  0  0  0  0  0  0  0  0
  1  2  1  0
  2  3  1  0
  3  4  1  0
  4  5  1  0
  5  6  1  0
  6  7  1  0
  6  8  1  0
  6  2  1  0
  5  3  1  0
  1  9  1  0
  1 10  1  0
  1 11  1  0
  2 12  1  0
  3 13  1  0
  5 14  1  0
  7 15  1  0
  7 16  1  0
  7 17  1  0
  8 18  1  0
M  END
