
     RDKit          3D

 21 22  0  0  0  0  0  0  0  0999 V2000
    2.4111    0.4663    0.6272 C   0  0  0  0  0  0  0  0  0  0  0  0
    0.9516    0.2623    0.3580 C   0  0  0  0  0  0  0  0  0  0  0  0
    0.5329   -1.1813    0.3685 C   0  0  0  0  0  0  0  0  0  0  0  0
   -0.8529   -1.0785   -0.2629 C   0  0  0  0  0  0  0  0  0  0  0  0
   -1.8469   -0.3217    0.5890 C   0  0  0  0  0  0  0  0  0  0  0  0
   -1.7610    0.8625   -0.3296 C   0  0  0  0  0  0  0  0  0  0  0  0
   -0.8109    0.0959   -1.1981 C   0  0  0  0  0  0  0  0  0  0  0  0
    0.5815    0.6582   -1.0399 C   0  0  0  0  0  0  0  0  0  0  0  0
    1.2275    1.2750   -1.8515 O   0  0  0  0  0  0  0  0  0  0  0  0
    2.6215    1.5487    0.4897 H   0  0  0  0  0  0  0  0  0  0  0  0
    2.6027    0.2350    1.6805 H   0  0  0  0  0  0  0  0  0  0  0  0
    3.0366   -0.1517   -0.0545 H   0  0  0  0  0  0  0  0  0  0  0  0
    0.3734    0.8098    1.0994 H   0  0  0  0  0  0  0  0  0  0  0  0
    0.5102   -1.6438    1.3524 H   0  0  0  0  0  0  0  0  0  0  0  0
    1.1762   -1.7301   -0.3536 H   0  0  0  0  0  0  0  0  0  0  0  0
   -1.2276   -2.0003   -0.7199 H   0  0  0  0  0  0  0  0  0  0  0  0
   -2.8395   -0.8143    0.5382 H   0  0  0  0  0  0  0  0  0  0  0  0
   -1.5323   -0.1420    1.6385 H   0  0  0  0  0  0  0  0  0  0  0  0
   -2.7164    1.1474   -0.8340 H   0  0  0  0  0  0  0  0  0  0  0  0
   -1.3295    1.7942    0.1300 H   0  0  0  0  0  0  0  0  0  0  0  0
   -1.1083   -0.0916   -2.2272 H   0  0  0  0  0  0  0  0  0  0  0  0
  1  2  1  0
  2  3  1  0
  3  4  1  0
  4  5  1  0
  5  6  1  0
  6  7  1  0
  7  8  1  0
  8  9  2  0
  8  2  1  0
  7  4  1  0
  1 10  1  0
  1 11  1  0
  1 12  1  0
  2 13  1  0
  3 14  1  0
  3 15  1  0
  4 16  1  0
  5 17  1  0
  5 18  1  0
  6 19  1  0
  6 20  1  0
  7 21  1  0
M  END
