
     RDKit          3D

 21 22  0  0  0  0  0  0  0  0999 V2000
   -2.3231   -0.4286   -0.4020 C   0  0  0  0  0  0  0  0  0  0  0  0
   -1.1175   -0.5055    0.4781 C   0  0  0  0  0  0  0  0  0  0  0  0
    0.0253   -1.3383   -0.1078 C   0  0  0  0  0  0  0  0  0  0  0  0
    0.8999   -0.1731    0.0511 C   0  0  0  0  0  0  0  0  0  0  0  0
    2.1484   -0.1111    0.7799 C   0  0  0  0  0  0  0  0  0  0  0  0
    2.0510    0.2015   -0.7034 C   0  0  0  0  0  0  0  0  0  0  0  0
   -0.2270    0.7054    0.4717 C   0  0  0  0  0  0  0  0  0  0  0  0
   -0.6023    1.8003   -0.4264 C   0  0  0  0  0  0  0  0  0  0  0  0
   -0.9153    1.6512   -1.5977 O   0  0  0  0  0  0  0  0  0  0  0  0
   -2.8718   -1.4010   -0.2913 H   0  0  0  0  0  0  0  0  0  0  0  0
   -2.0160   -0.4076   -1.4830 H   0  0  0  0  0  0  0  0  0  0  0  0
   -2.9473    0.4372   -0.1593 H   0  0  0  0  0  0  0  0  0  0  0  0
   -1.3732   -0.9017    1.4828 H   0  0  0  0  0  0  0  0  0  0  0  0
    0.2648   -2.2465    0.4734 H   0  0  0  0  0  0  0  0  0  0  0  0
   -0.1987   -1.5644   -1.1839 H   0  0  0  0  0  0  0  0  0  0  0  0
    2.6281   -1.0289    1.1197 H   0  0  0  0  0  0  0  0  0  0  0  0
    2.4010    0.7746    1.4164 H   0  0  0  0  0  0  0  0  0  0  0  0
    2.3199    1.2128   -1.0409 H   0  0  0  0  0  0  0  0  0  0  0  0
    2.5543   -0.5918   -1.3289 H   0  0  0  0  0  0  0  0  0  0  0  0
   -0.0782    1.0658    1.5055 H   0  0  0  0  0  0  0  0  0  0  0  0
   -0.6222    2.8497   -0.0797 H   0  0  0  0  0  0  0  0  0  0  0  0
  1  2  1  0
  2  3  1  0
  3  4  1  0
  4  5  1  0
  5  6  1  0
  4  7  1  0
  7  8  1  0
  8  9  2  0
  7  2  1  0
  6  4  1  0
  1 10  1  0
  1 11  1  0
  1 12  1  0
  2 13  1  0
  3 14  1  0
  3 15  1  0
  5 16  1  0
  5 17  1  0
  6 18  1  0
  6 19  1  0
  7 20  1  0
  8 21  1  0
M  END
