
     RDKit          3D

 18 18  0  0  0  0  0  0  0  0999 V2000
   -1.3472   -1.4382    0.1891 C   0  0  0  0  0  0  0  0  0  0  0  0
   -0.8945   -0.2285   -0.6208 C   0  0  0  0  0  0  0  0  0  0  0  0
    0.5424   -0.1617   -0.9024 C   0  0  0  0  0  0  0  0  0  0  0  0
    1.5530   -1.0564   -0.2772 C   0  0  0  0  0  0  0  0  0  0  0  0
   -0.1429    0.8159    0.0770 C   0  0  0  0  0  0  0  0  0  0  0  0
   -0.1086    2.2458   -0.3721 C   0  0  0  0  0  0  0  0  0  0  0  0
   -1.4347   -2.3145   -0.4997 H   0  0  0  0  0  0  0  0  0  0  0  0
   -0.5213   -1.6731    0.8795 H   0  0  0  0  0  0  0  0  0  0  0  0
   -2.3144   -1.2507    0.7038 H   0  0  0  0  0  0  0  0  0  0  0  0
   -1.6115    0.0127   -1.4480 H   0  0  0  0  0  0  0  0  0  0  0  0
    0.8301    0.2384   -1.8966 H   0  0  0  0  0  0  0  0  0  0  0  0
    1.4590   -1.0795    0.8431 H   0  0  0  0  0  0  0  0  0  0  0  0
    2.5659   -0.6253   -0.4710 H   0  0  0  0  0  0  0  0  0  0  0  0
    1.5632   -2.0869   -0.6440 H   0  0  0  0  0  0  0  0  0  0  0  0
    0.0776    0.6773    1.1546 H   0  0  0  0  0  0  0  0  0  0  0  0
    0.7976    2.3979   -1.0032 H   0  0  0  0  0  0  0  0  0  0  0  0
   -0.9839    2.5556   -0.9602 H   0  0  0  0  0  0  0  0  0  0  0  0
   -0.0296    2.9713    0.4763 H   0  0  0  0  0  0  0  0  0  0  0  0
  1  2  1  0
  2  3  1  0
  3  4  1  0
  3  5  1  0
  5  6  1  0
  5  2  1  0
  1  7  1  0
  1  8  1  0
  1  9  1  0
  2 10  1  0
  3 11  1  0
  4 12  1  0
  4 13  1  0
  4 14  1  0
  5 15  1  0
  6 16  1  0
  6 17  1  0
  6 18  1  0
M  END
