
     RDKit          3D

 25 26  0  0  0  0  0  0  0  0999 V2000
    2.3190    0.6123    0.4218 C   0  0  0  0  0  0  0  0  0  0  0  0
    1.4012   -0.2461   -0.3790 C   0  0  0  0  0  0  0  0  0  0  0  0
    0.6864   -1.2943    0.4284 C   0  0  0  0  0  0  0  0  0  0  0  0
   -0.7405   -1.3367   -0.0519 C   0  0  0  0  0  0  0  0  0  0  0  0
   -1.6646   -0.5439    0.8118 C   0  0  0  0  0  0  0  0  0  0  0  0
   -1.6198    0.9232    0.6085 C   0  0  0  0  0  0  0  0  0  0  0  0
   -0.4253    1.4547   -0.0857 C   0  0  0  0  0  0  0  0  0  0  0  0
    0.2609    0.5314   -1.0178 C   0  0  0  0  0  0  0  0  0  0  0  0
   -0.6730   -0.6222   -1.4079 C   0  0  0  0  0  0  0  0  0  0  0  0
    2.1488    0.4412    1.5114 H   0  0  0  0  0  0  0  0  0  0  0  0
    3.3704    0.2732    0.2390 H   0  0  0  0  0  0  0  0  0  0  0  0
    2.2891    1.6750    0.1379 H   0  0  0  0  0  0  0  0  0  0  0  0
    1.9620   -0.7358   -1.2191 H   0  0  0  0  0  0  0  0  0  0  0  0
    1.1369   -2.2894    0.2052 H   0  0  0  0  0  0  0  0  0  0  0  0
    0.7802   -1.1499    1.5195 H   0  0  0  0  0  0  0  0  0  0  0  0
   -1.1009   -2.3622   -0.1443 H   0  0  0  0  0  0  0  0  0  0  0  0
   -2.7115   -0.9033    0.5805 H   0  0  0  0  0  0  0  0  0  0  0  0
   -1.5267   -0.8326    1.8958 H   0  0  0  0  0  0  0  0  0  0  0  0
   -1.6519    1.4052    1.6316 H   0  0  0  0  0  0  0  0  0  0  0  0
   -2.5663    1.2981    0.1180 H   0  0  0  0  0  0  0  0  0  0  0  0
    0.3238    1.8781    0.6454 H   0  0  0  0  0  0  0  0  0  0  0  0
   -0.7458    2.3602   -0.6818 H   0  0  0  0  0  0  0  0  0  0  0  0
    0.6327    1.0114   -1.9493 H   0  0  0  0  0  0  0  0  0  0  0  0
   -0.2117   -1.2884   -2.1361 H   0  0  0  0  0  0  0  0  0  0  0  0
   -1.6734   -0.2589   -1.6820 H   0  0  0  0  0  0  0  0  0  0  0  0
  1  2  1  0
  2  3  1  0
  3  4  1  0
  4  5  1  0
  5  6  1  0
  6  7  1  0
  7  8  1  0
  8  9  1  0
  8  2  1  0
  9  4  1  0
  1 10  1  0
  1 11  1  0
  1 12  1  0
  2 13  1  0
  3 14  1  0
  3 15  1  0
  4 16  1  0
  5 17  1  0
  5 18  1  0
  6 19  1  0
  6 20  1  0
  7 21  1  0
  7 22  1  0
  8 23  1  0
  9 24  1  0
  9 25  1  0
M  END
