
     RDKit          3D

 21 22  0  0  0  0  0  0  0  0999 V2000
   -1.2529   -1.4405   -0.3190 C   0  0  0  0  0  0  0  0  0  0  0  0
   -0.6541   -0.1075   -0.6574 C   0  0  0  0  0  0  0  0  0  0  0  0
   -1.5263    0.9539   -0.0312 C   0  0  0  0  0  0  0  0  0  0  0  0
   -0.5674    2.0152    0.3366 C   0  0  0  0  0  0  0  0  0  0  0  0
    0.6730    1.5545    0.3619 C   0  0  0  0  0  0  0  0  0  0  0  0
    0.6734    0.1291    0.0116 C   0  0  0  0  0  0  0  0  0  0  0  0
    1.0594   -0.8333    1.0851 C   0  0  0  0  0  0  0  0  0  0  0  0
    2.3167   -0.9505    0.4646 O   0  0  0  0  0  0  0  0  0  0  0  0
    1.8825   -0.3371   -0.7193 C   0  0  0  0  0  0  0  0  0  0  0  0
   -0.6539   -2.2975   -0.6698 H   0  0  0  0  0  0  0  0  0  0  0  0
   -2.2275   -1.5026   -0.8494 H   0  0  0  0  0  0  0  0  0  0  0  0
   -1.5103   -1.5113    0.7719 H   0  0  0  0  0  0  0  0  0  0  0  0
   -0.6366    0.0287   -1.7395 H   0  0  0  0  0  0  0  0  0  0  0  0
   -1.9580    0.5552    0.9206 H   0  0  0  0  0  0  0  0  0  0  0  0
   -2.2916    1.2797   -0.7338 H   0  0  0  0  0  0  0  0  0  0  0  0
   -0.8575    3.0309    0.5539 H   0  0  0  0  0  0  0  0  0  0  0  0
    1.5173    2.1834    0.6107 H   0  0  0  0  0  0  0  0  0  0  0  0
    1.1719   -0.4321    2.1026 H   0  0  0  0  0  0  0  0  0  0  0  0
    0.4983   -1.7852    0.9995 H   0  0  0  0  0  0  0  0  0  0  0  0
    2.5969    0.4996   -0.9441 H   0  0  0  0  0  0  0  0  0  0  0  0
    1.7467   -1.0326   -1.5554 H   0  0  0  0  0  0  0  0  0  0  0  0
  1  2  1  0
  2  3  1  0
  3  4  1  0
  4  5  2  0
  5  6  1  0
  6  7  1  0
  7  8  1  0
  8  9  1  0
  6  2  1  0
  9  6  1  0
  1 10  1  0
  1 11  1  0
  1 12  1  0
  2 13  1  0
  3 14  1  0
  3 15  1  0
  4 16  1  0
  5 17  1  0
  7 18  1  0
  7 19  1  0
  9 20  1  0
  9 21  1  0
M  END
