
     RDKit          3D

 23 23  0  0  0  0  0  0  0  0999 V2000
   -2.5254   -1.0290   -0.0210 C   0  0  0  0  0  0  0  0  0  0  0  0
   -1.2959   -0.1319   -0.1436 C   0  0  0  0  0  0  0  0  0  0  0  0
   -1.5162    1.1263    0.5946 C   0  0  0  0  0  0  0  0  0  0  0  0
   -0.5103    1.8849    0.9218 C   0  0  0  0  0  0  0  0  0  0  0  0
    0.8441    1.4721    0.5471 C   0  0  0  0  0  0  0  0  0  0  0  0
    1.0976   -0.0077    0.6096 C   0  0  0  0  0  0  0  0  0  0  0  0
    2.2075   -0.2938   -0.4127 C   0  0  0  0  0  0  0  0  0  0  0  0
    2.5195   -1.6514   -0.4329 O   0  0  0  0  0  0  0  0  0  0  0  0
   -0.0614   -0.8675    0.2911 C   0  0  0  0  0  0  0  0  0  0  0  0
   -3.4366   -0.4713   -0.2371 H   0  0  0  0  0  0  0  0  0  0  0  0
   -2.3494   -1.8785   -0.7353 H   0  0  0  0  0  0  0  0  0  0  0  0
   -2.4914   -1.4608    0.9900 H   0  0  0  0  0  0  0  0  0  0  0  0
   -1.2150    0.1250   -1.2281 H   0  0  0  0  0  0  0  0  0  0  0  0
   -2.5234    1.3999    0.8543 H   0  0  0  0  0  0  0  0  0  0  0  0
   -0.6154    2.8349    1.4713 H   0  0  0  0  0  0  0  0  0  0  0  0
    1.5748    1.9816    1.2063 H   0  0  0  0  0  0  0  0  0  0  0  0
    1.0575    1.8340   -0.4867 H   0  0  0  0  0  0  0  0  0  0  0  0
    1.5066   -0.2327    1.6178 H   0  0  0  0  0  0  0  0  0  0  0  0
    1.8816    0.0109   -1.4285 H   0  0  0  0  0  0  0  0  0  0  0  0
    3.1226    0.2981   -0.1798 H   0  0  0  0  0  0  0  0  0  0  0  0
    2.8833   -1.8811    0.4418 H   0  0  0  0  0  0  0  0  0  0  0  0
   -0.3496   -1.4336    1.2238 H   0  0  0  0  0  0  0  0  0  0  0  0
    0.1950   -1.6286   -0.4485 H   0  0  0  0  0  0  0  0  0  0  0  0
  1  2  1  0
  2  3  1  0
  3  4  2  0
  4  5  1  0
  5  6  1  0
  6  7  1  0
  7  8  1  0
  6  9  1  0
  9  2  1  0
  1 10  1  0
  1 11  1  0
  1 12  1  0
  2 13  1  0
  3 14  1  0
  4 15  1  0
  5 16  1  0
  5 17  1  0
  6 18  1  0
  7 19  1  0
  7 20  1  0
  8 21  1  0
  9 22  1  0
  9 23  1  0
M  END
