
     RDKit          3D

 21 23  0  0  0  0  0  0  0  0999 V2000
   -1.8620   -0.8888    0.6230 C   0  0  0  0  0  0  0  0  0  0  0  0
   -1.2178   -0.4314   -0.6068 C   0  0  0  0  0  0  0  0  0  0  0  0
   -1.4465    0.9698   -1.0320 C   0  0  0  0  0  0  0  0  0  0  0  0
   -1.6730    2.1066   -0.4418 O   0  0  0  0  0  0  0  0  0  0  0  0
   -0.6626    1.5597    0.1841 C   0  0  0  0  0  0  0  0  0  0  0  0
    0.6362    1.0092   -0.2211 C   0  0  0  0  0  0  0  0  0  0  0  0
    1.1388   -0.2421    0.5320 C   0  0  0  0  0  0  0  0  0  0  0  0
    2.6038   -0.4671    0.4087 C   0  0  0  0  0  0  0  0  0  0  0  0
    0.2956   -0.4735   -0.6144 C   0  0  0  0  0  0  0  0  0  0  0  0
   -2.5382   -0.1671    1.1261 H   0  0  0  0  0  0  0  0  0  0  0  0
   -2.5287   -1.7869    0.4422 H   0  0  0  0  0  0  0  0  0  0  0  0
   -1.0806   -1.2903    1.3293 H   0  0  0  0  0  0  0  0  0  0  0  0
   -1.5388   -1.0933   -1.4587 H   0  0  0  0  0  0  0  0  0  0  0  0
   -0.9209    1.1315   -2.0310 H   0  0  0  0  0  0  0  0  0  0  0  0
   -1.0028    1.1719    1.1957 H   0  0  0  0  0  0  0  0  0  0  0  0
    1.3347    1.5122   -0.8944 H   0  0  0  0  0  0  0  0  0  0  0  0
    0.7024   -0.3320    1.5618 H   0  0  0  0  0  0  0  0  0  0  0  0
    2.9350   -0.1709   -0.6083 H   0  0  0  0  0  0  0  0  0  0  0  0
    3.1580    0.2246    1.1094 H   0  0  0  0  0  0  0  0  0  0  0  0
    2.8574   -1.5176    0.5889 H   0  0  0  0  0  0  0  0  0  0  0  0
    0.8100   -0.8245   -1.5576 H   0  0  0  0  0  0  0  0  0  0  0  0
  1  2  1  0
  2  3  1  0
  3  4  1  0
  4  5  1  0
  5  6  1  0
  6  7  1  0
  7  8  1  0
  7  9  1  0
  9  2  1  0
  5  3  1  0
  9  6  1  0
  1 10  1  0
  1 11  1  0
  1 12  1  0
  2 13  1  0
  3 14  1  0
  5 15  1  0
  6 16  1  0
  7 17  1  0
  8 18  1  0
  8 19  1  0
  8 20  1  0
  9 21  1  0
M  END
