
     RDKit          3D

 20 20  0  0  0  0  0  0  0  0999 V2000
   -2.1106    1.0892   -0.2180 C   0  0  0  0  0  0  0  0  0  0  0  0
   -1.3815   -0.2148   -0.3004 C   0  0  0  0  0  0  0  0  0  0  0  0
   -1.4574   -1.0618    0.9694 C   0  0  0  0  0  0  0  0  0  0  0  0
   -0.1765   -1.5123    0.6395 O   0  0  0  0  0  0  0  0  0  0  0  0
    0.0486   -0.2130    0.1538 C   0  0  0  0  0  0  0  0  0  0  0  0
    1.0762   -0.1868   -0.9550 C   0  0  0  0  0  0  0  0  0  0  0  0
    2.4412   -0.1892   -0.2804 C   0  0  0  0  0  0  0  0  0  0  0  0
    2.4999    0.9636    0.5229 O   0  0  0  0  0  0  0  0  0  0  0  0
   -2.5237    1.3925   -1.2252 H   0  0  0  0  0  0  0  0  0  0  0  0
   -3.0153    0.9452    0.4173 H   0  0  0  0  0  0  0  0  0  0  0  0
   -1.5188    1.9180    0.1908 H   0  0  0  0  0  0  0  0  0  0  0  0
   -1.5750   -0.8069   -1.2245 H   0  0  0  0  0  0  0  0  0  0  0  0
   -1.3907   -0.4019    1.8593 H   0  0  0  0  0  0  0  0  0  0  0  0
   -2.2405   -1.8227    0.9703 H   0  0  0  0  0  0  0  0  0  0  0  0
    0.2230    0.5391    0.9325 H   0  0  0  0  0  0  0  0  0  0  0  0
    0.9357   -1.0274   -1.6374 H   0  0  0  0  0  0  0  0  0  0  0  0
    0.9060    0.7470   -1.5213 H   0  0  0  0  0  0  0  0  0  0  0  0
    2.5443   -1.0529    0.4086 H   0  0  0  0  0  0  0  0  0  0  0  0
    3.2722   -0.1977   -0.9919 H   0  0  0  0  0  0  0  0  0  0  0  0
    3.4429    1.0928    0.8347 H   0  0  0  0  0  0  0  0  0  0  0  0
  1  2  1  0
  2  3  1  0
  3  4  1  0
  4  5  1  0
  5  6  1  0
  6  7  1  0
  7  8  1  0
  5  2  1  0
  1  9  1  0
  1 10  1  0
  1 11  1  0
  2 12  1  0
  3 13  1  0
  3 14  1  0
  5 15  1  0
  6 16  1  0
  6 17  1  0
  7 18  1  0
  7 19  1  0
  8 20  1  0
M  END
