
     RDKit          3D

 21 22  0  0  0  0  0  0  0  0999 V2000
   -2.4205    0.5028    0.1197 C   0  0  0  0  0  0  0  0  0  0  0  0
   -0.9499    0.6488    0.1269 C   0  0  0  0  0  0  0  0  0  0  0  0
   -0.1578   -0.3892    0.8897 C   0  0  0  0  0  0  0  0  0  0  0  0
   -0.5332   -1.3455   -0.2012 C   0  0  0  0  0  0  0  0  0  0  0  0
   -0.1737   -0.0978   -0.9327 C   0  0  0  0  0  0  0  0  0  0  0  0
    0.9781    0.0500    0.0274 C   0  0  0  0  0  0  0  0  0  0  0  0
    2.1451   -0.8137   -0.1416 C   0  0  0  0  0  0  0  0  0  0  0  0
    1.4040    1.4679    0.2334 C   0  0  0  0  0  0  0  0  0  0  0  0
    1.4991    2.2429   -0.7252 O   0  0  0  0  0  0  0  0  0  0  0  0
   -2.7727    0.3242   -0.9385 H   0  0  0  0  0  0  0  0  0  0  0  0
   -2.8220   -0.2648    0.8095 H   0  0  0  0  0  0  0  0  0  0  0  0
   -2.8965    1.4640    0.4179 H   0  0  0  0  0  0  0  0  0  0  0  0
   -0.6138    1.6908    0.2487 H   0  0  0  0  0  0  0  0  0  0  0  0
   -0.1732   -0.5408    1.8778 H   0  0  0  0  0  0  0  0  0  0  0  0
   -1.6005   -1.6240   -0.2696 H   0  0  0  0  0  0  0  0  0  0  0  0
    0.0838   -2.2298   -0.3408 H   0  0  0  0  0  0  0  0  0  0  0  0
   -0.1720    0.0846   -1.9138 H   0  0  0  0  0  0  0  0  0  0  0  0
    2.0209   -1.7302   -0.7372 H   0  0  0  0  0  0  0  0  0  0  0  0
    2.9639   -0.2356   -0.6208 H   0  0  0  0  0  0  0  0  0  0  0  0
    2.5459   -1.0883    0.8746 H   0  0  0  0  0  0  0  0  0  0  0  0
    1.6448    1.8838    1.1959 H   0  0  0  0  0  0  0  0  0  0  0  0
  1  2  1  0
  2  3  1  0
  3  4  1  0
  4  5  1  0
  5  6  1  0
  6  7  1  0
  6  8  1  0
  8  9  2  0
  5  2  1  0
  6  3  1  0
  1 10  1  0
  1 11  1  0
  1 12  1  0
  2 13  1  0
  3 14  1  0
  4 15  1  0
  4 16  1  0
  5 17  1  0
  7 18  1  0
  7 19  1  0
  7 20  1  0
  8 21  1  0
M  END
