
     RDKit          3D

 21 22  0  0  0  0  0  0  0  0999 V2000
   -1.5525    1.2929   -0.7955 C   0  0  0  0  0  0  0  0  0  0  0  0
   -1.2054    0.2030    0.1726 C   0  0  0  0  0  0  0  0  0  0  0  0
   -1.5960   -1.1744   -0.2446 C   0  0  0  0  0  0  0  0  0  0  0  0
   -2.4640   -1.7106   -0.8698 O   0  0  0  0  0  0  0  0  0  0  0  0
   -0.3800   -1.6375    0.4863 C   0  0  0  0  0  0  0  0  0  0  0  0
    0.1876   -0.2788    0.2067 C   0  0  0  0  0  0  0  0  0  0  0  0
    1.1556    0.2905    1.1439 C   0  0  0  0  0  0  0  0  0  0  0  0
    2.1069    0.4831   -0.0474 C   0  0  0  0  0  0  0  0  0  0  0  0
    1.0488   -0.1243   -0.9813 C   0  0  0  0  0  0  0  0  0  0  0  0
   -1.2850    1.0748   -1.8279 H   0  0  0  0  0  0  0  0  0  0  0  0
   -2.6316    1.5213   -0.6760 H   0  0  0  0  0  0  0  0  0  0  0  0
   -1.0019    2.2098   -0.4618 H   0  0  0  0  0  0  0  0  0  0  0  0
   -1.6102    0.4010    1.1759 H   0  0  0  0  0  0  0  0  0  0  0  0
    0.1589   -2.4728    0.0319 H   0  0  0  0  0  0  0  0  0  0  0  0
   -0.6410   -1.7508    1.5590 H   0  0  0  0  0  0  0  0  0  0  0  0
    1.5402   -0.4233    1.8786 H   0  0  0  0  0  0  0  0  0  0  0  0
    0.8357    1.2696    1.5768 H   0  0  0  0  0  0  0  0  0  0  0  0
    2.9929   -0.1600   -0.0025 H   0  0  0  0  0  0  0  0  0  0  0  0
    2.2844    1.5545   -0.2575 H   0  0  0  0  0  0  0  0  0  0  0  0
    1.3595   -1.1189   -1.3897 H   0  0  0  0  0  0  0  0  0  0  0  0
    0.6969    0.5512   -1.7642 H   0  0  0  0  0  0  0  0  0  0  0  0
  1  2  1  0
  2  3  1  0
  3  4  2  0
  3  5  1  0
  5  6  1  0
  6  7  1  0
  7  8  1  0
  8  9  1  0
  6  2  1  0
  9  6  1  0
  1 10  1  0
  1 11  1  0
  1 12  1  0
  2 13  1  0
  5 14  1  0
  5 15  1  0
  7 16  1  0
  7 17  1  0
  8 18  1  0
  8 19  1  0
  9 20  1  0
  9 21  1  0
M  END
