
     RDKit          3D

 21 23  0  0  0  0  0  0  0  0999 V2000
   -2.1910    0.1622    0.3720 C   0  0  0  0  0  0  0  0  0  0  0  0
   -0.8901   -0.3119    1.0132 C   0  0  0  0  0  0  0  0  0  0  0  0
   -0.3470   -1.4047    0.1475 C   0  0  0  0  0  0  0  0  0  0  0  0
    0.4692   -0.7003   -0.9325 C   0  0  0  0  0  0  0  0  0  0  0  0
    1.9056   -0.6038   -0.4560 C   0  0  0  0  0  0  0  0  0  0  0  0
    1.4968    0.5329    0.4083 C   0  0  0  0  0  0  0  0  0  0  0  0
    0.1116    0.8038    0.8171 C   0  0  0  0  0  0  0  0  0  0  0  0
    0.3398    0.7403   -0.6244 C   0  0  0  0  0  0  0  0  0  0  0  0
    0.5458    1.7555   -1.4694 O   0  0  0  0  0  0  0  0  0  0  0  0
   -3.0089   -0.5255    0.5954 H   0  0  0  0  0  0  0  0  0  0  0  0
   -1.9879    0.2091   -0.7234 H   0  0  0  0  0  0  0  0  0  0  0  0
   -2.3711    1.2004    0.7010 H   0  0  0  0  0  0  0  0  0  0  0  0
   -1.0241   -0.5914    2.0658 H   0  0  0  0  0  0  0  0  0  0  0  0
   -1.1779   -1.9830   -0.2701 H   0  0  0  0  0  0  0  0  0  0  0  0
    0.2843   -2.1011    0.7392 H   0  0  0  0  0  0  0  0  0  0  0  0
    0.3138   -1.0447   -1.9456 H   0  0  0  0  0  0  0  0  0  0  0  0
    2.5403   -0.3024   -1.3392 H   0  0  0  0  0  0  0  0  0  0  0  0
    2.2781   -1.5086    0.0259 H   0  0  0  0  0  0  0  0  0  0  0  0
    2.2202    1.3418    0.5076 H   0  0  0  0  0  0  0  0  0  0  0  0
   -0.0807    1.7219    1.3658 H   0  0  0  0  0  0  0  0  0  0  0  0
    0.5733    2.6095   -0.9980 H   0  0  0  0  0  0  0  0  0  0  0  0
  1  2  1  0
  2  3  1  0
  3  4  1  0
  4  5  1  0
  5  6  1  0
  6  7  1  0
  7  8  1  0
  8  9  1  0
  7  2  1  0
  8  4  1  0
  8  6  1  0
  1 10  1  0
  1 11  1  0
  1 12  1  0
  2 13  1  0
  3 14  1  0
  3 15  1  0
  4 16  1  0
  5 17  1  0
  5 18  1  0
  6 19  1  0
  7 20  1  0
  9 21  1  0
M  END
