
     RDKit          3D

 21 22  0  0  0  0  0  0  0  0999 V2000
   -1.5713   -1.5624    0.5582 C   0  0  0  0  0  0  0  0  0  0  0  0
   -0.9784   -0.4898   -0.3060 C   0  0  0  0  0  0  0  0  0  0  0  0
   -1.4550    0.9285    0.0241 C   0  0  0  0  0  0  0  0  0  0  0  0
    0.0098    1.3529   -0.0943 C   0  0  0  0  0  0  0  0  0  0  0  0
    0.3389    2.0024   -1.2562 O   0  0  0  0  0  0  0  0  0  0  0  0
    0.3790   -0.0731    0.0437 C   0  0  0  0  0  0  0  0  0  0  0  0
    1.5421   -0.6000   -0.6824 C   0  0  0  0  0  0  0  0  0  0  0  0
    2.1899   -0.1783    0.6366 C   0  0  0  0  0  0  0  0  0  0  0  0
    0.9328   -0.4427    1.2348 O   0  0  0  0  0  0  0  0  0  0  0  0
   -1.0389   -1.7049    1.5101 H   0  0  0  0  0  0  0  0  0  0  0  0
   -1.4581   -2.5336    0.0007 H   0  0  0  0  0  0  0  0  0  0  0  0
   -2.6526   -1.4445    0.7270 H   0  0  0  0  0  0  0  0  0  0  0  0
   -1.1384   -0.7007   -1.3775 H   0  0  0  0  0  0  0  0  0  0  0  0
   -2.0598    1.4067   -0.7437 H   0  0  0  0  0  0  0  0  0  0  0  0
   -1.8416    0.9925    1.0635 H   0  0  0  0  0  0  0  0  0  0  0  0
    0.2895    1.9743    0.7889 H   0  0  0  0  0  0  0  0  0  0  0  0
   -0.2816    2.7851   -1.3411 H   0  0  0  0  0  0  0  0  0  0  0  0
    1.5355   -1.7060   -0.7482 H   0  0  0  0  0  0  0  0  0  0  0  0
    1.8816   -0.0530   -1.5649 H   0  0  0  0  0  0  0  0  0  0  0  0
    2.4391    0.9052    0.6163 H   0  0  0  0  0  0  0  0  0  0  0  0
    2.9375   -0.8584    1.0330 H   0  0  0  0  0  0  0  0  0  0  0  0
  1  2  1  0
  2  3  1  0
  3  4  1  0
  4  5  1  0
  4  6  1  0
  6  7  1  0
  7  8  1  0
  8  9  1  0
  6  2  1  0
  9  6  1  0
  1 10  1  0
  1 11  1  0
  1 12  1  0
  2 13  1  0
  3 14  1  0
  3 15  1  0
  4 16  1  0
  5 17  1  0
  7 18  1  0
  7 19  1  0
  8 20  1  0
  8 21  1  0
M  END
