
     RDKit          3D

 21 22  0  0  0  0  0  0  0  0999 V2000
    2.2779    0.7046    0.8744 C   0  0  0  0  0  0  0  0  0  0  0  0
    1.0852    0.0951    0.2276 C   0  0  0  0  0  0  0  0  0  0  0  0
    1.2622   -1.3380   -0.1788 C   0  0  0  0  0  0  0  0  0  0  0  0
    0.0762   -2.0594   -0.1111 O   0  0  0  0  0  0  0  0  0  0  0  0
   -1.0296   -1.3419   -0.5163 C   0  0  0  0  0  0  0  0  0  0  0  0
   -1.1229   -0.0133    0.1823 C   0  0  0  0  0  0  0  0  0  0  0  0
   -2.3539    0.7555    0.2893 C   0  0  0  0  0  0  0  0  0  0  0  0
   -1.3218    1.2370   -0.6810 C   0  0  0  0  0  0  0  0  0  0  0  0
   -0.0562    0.1237    1.0648 O   0  0  0  0  0  0  0  0  0  0  0  0
    2.8149   -0.0441    1.4524 H   0  0  0  0  0  0  0  0  0  0  0  0
    1.9387    1.5683    1.5173 H   0  0  0  0  0  0  0  0  0  0  0  0
    2.9756    1.1470    0.1428 H   0  0  0  0  0  0  0  0  0  0  0  0
    0.8179    0.7438   -0.6564 H   0  0  0  0  0  0  0  0  0  0  0  0
    1.6606   -1.4337   -1.1941 H   0  0  0  0  0  0  0  0  0  0  0  0
    1.9884   -1.7884    0.5607 H   0  0  0  0  0  0  0  0  0  0  0  0
   -1.9282   -1.9292   -0.2185 H   0  0  0  0  0  0  0  0  0  0  0  0
   -1.0726   -1.2485   -1.6264 H   0  0  0  0  0  0  0  0  0  0  0  0
   -2.5424    1.3507    1.1994 H   0  0  0  0  0  0  0  0  0  0  0  0
   -3.2665    0.2859   -0.1797 H   0  0  0  0  0  0  0  0  0  0  0  0
   -1.3861    1.0191   -1.7524 H   0  0  0  0  0  0  0  0  0  0  0  0
   -0.8176    2.1657   -0.3962 H   0  0  0  0  0  0  0  0  0  0  0  0
  1  2  1  0
  2  3  1  0
  3  4  1  0
  4  5  1  0
  5  6  1  0
  6  7  1  0
  7  8  1  0
  6  9  1  0
  9  2  1  0
  8  6  1  0
  1 10  1  0
  1 11  1  0
  1 12  1  0
  2 13  1  0
  3 14  1  0
  3 15  1  0
  5 16  1  0
  5 17  1  0
  7 18  1  0
  7 19  1  0
  8 20  1  0
  8 21  1  0
M  END
