
     RDKit          3D

 21 22  0  0  0  0  0  0  0  0999 V2000
    2.0631   -0.2287   -0.0546 C   0  0  0  0  0  0  0  0  0  0  0  0
    0.6705   -0.3910   -0.5788 C   0  0  0  0  0  0  0  0  0  0  0  0
   -0.1518   -1.4665    0.1100 C   0  0  0  0  0  0  0  0  0  0  0  0
   -0.3713   -0.4192    1.2060 C   0  0  0  0  0  0  0  0  0  0  0  0
   -0.3615    0.5410    0.0083 C   0  0  0  0  0  0  0  0  0  0  0  0
   -0.0489    1.9280    0.2351 C   0  0  0  0  0  0  0  0  0  0  0  0
   -1.6083    0.1311   -0.7199 C   0  0  0  0  0  0  0  0  0  0  0  0
   -1.4265   -1.3758   -0.6294 C   0  0  0  0  0  0  0  0  0  0  0  0
   -2.1277   -2.2502   -1.0453 O   0  0  0  0  0  0  0  0  0  0  0  0
    2.4078   -1.2405    0.2833 H   0  0  0  0  0  0  0  0  0  0  0  0
    2.7460    0.1108   -0.8545 H   0  0  0  0  0  0  0  0  0  0  0  0
    2.1273    0.4722    0.8027 H   0  0  0  0  0  0  0  0  0  0  0  0
    0.5558   -0.4219   -1.6821 H   0  0  0  0  0  0  0  0  0  0  0  0
    0.2846   -2.3858    0.3617 H   0  0  0  0  0  0  0  0  0  0  0  0
   -1.3673   -0.4442    1.6680 H   0  0  0  0  0  0  0  0  0  0  0  0
    0.4896   -0.2920    1.8703 H   0  0  0  0  0  0  0  0  0  0  0  0
    0.4746    2.0451    1.2289 H   0  0  0  0  0  0  0  0  0  0  0  0
    0.6675    2.3261   -0.5100 H   0  0  0  0  0  0  0  0  0  0  0  0
   -0.9678    2.5306    0.3130 H   0  0  0  0  0  0  0  0  0  0  0  0
   -1.5207    0.3799   -1.7795 H   0  0  0  0  0  0  0  0  0  0  0  0
   -2.5347    0.4510   -0.2332 H   0  0  0  0  0  0  0  0  0  0  0  0
  1  2  1  0
  2  3  1  0
  3  4  1  0
  4  5  1  0
  5  6  1  0
  5  7  1  0
  7  8  1  0
  8  9  2  0
  5  2  1  0
  8  3  1  0
  1 10  1  0
  1 11  1  0
  1 12  1  0
  2 13  1  0
  3 14  1  0
  4 15  1  0
  4 16  1  0
  6 17  1  0
  6 18  1  0
  6 19  1  0
  7 20  1  0
  7 21  1  0
M  END
