
     RDKit          3D

 23 24  0  0  0  0  0  0  0  0999 V2000
   -0.8620   -2.2360   -0.0381 C   0  0  0  0  0  0  0  0  0  0  0  0
   -0.5875   -0.7853    0.1549 C   0  0  0  0  0  0  0  0  0  0  0  0
   -1.8851    0.0488    0.1404 C   0  0  0  0  0  0  0  0  0  0  0  0
   -1.4188    1.3767    0.6727 C   0  0  0  0  0  0  0  0  0  0  0  0
   -0.3268    1.8930    0.1721 C   0  0  0  0  0  0  0  0  0  0  0  0
    0.4544    1.2706   -0.8561 C   0  0  0  0  0  0  0  0  0  0  0  0
    1.6080    0.3799   -0.6436 C   0  0  0  0  0  0  0  0  0  0  0  0
    2.2897    0.2449    0.6868 C   0  0  0  0  0  0  0  0  0  0  0  0
    0.2785   -0.2246   -0.9081 C   0  0  0  0  0  0  0  0  0  0  0  0
   -0.5331   -2.8479    0.8277 H   0  0  0  0  0  0  0  0  0  0  0  0
   -0.2663   -2.6149   -0.9122 H   0  0  0  0  0  0  0  0  0  0  0  0
   -1.9471   -2.4285   -0.1822 H   0  0  0  0  0  0  0  0  0  0  0  0
   -0.1950   -0.6391    1.1911 H   0  0  0  0  0  0  0  0  0  0  0  0
   -2.2743    0.1425   -0.8988 H   0  0  0  0  0  0  0  0  0  0  0  0
   -2.6376   -0.4179    0.7793 H   0  0  0  0  0  0  0  0  0  0  0  0
   -2.0262    1.8330    1.4521 H   0  0  0  0  0  0  0  0  0  0  0  0
   -0.0090    2.8668    0.5827 H   0  0  0  0  0  0  0  0  0  0  0  0
    0.4052    1.8325   -1.8459 H   0  0  0  0  0  0  0  0  0  0  0  0
    2.3195    0.3273   -1.4938 H   0  0  0  0  0  0  0  0  0  0  0  0
    3.0310    1.0836    0.8402 H   0  0  0  0  0  0  0  0  0  0  0  0
    1.6310    0.1908    1.5459 H   0  0  0  0  0  0  0  0  0  0  0  0
    2.9127   -0.6778    0.6641 H   0  0  0  0  0  0  0  0  0  0  0  0
    0.0387   -0.6185   -1.9310 H   0  0  0  0  0  0  0  0  0  0  0  0
  1  2  1  0
  2  3  1  0
  3  4  1  0
  4  5  2  0
  5  6  1  0
  6  7  1  0
  7  8  1  0
  7  9  1  0
  9  2  1  0
  9  6  1  0
  1 10  1  0
  1 11  1  0
  1 12  1  0
  2 13  1  0
  3 14  1  0
  3 15  1  0
  4 16  1  0
  5 17  1  0
  6 18  1  0
  7 19  1  0
  8 20  1  0
  8 21  1  0
  8 22  1  0
  9 23  1  0
M  END
