
     RDKit          3D

 19 20  0  0  0  0  0  0  0  0999 V2000
    2.0412   -0.1792   -0.4712 C   0  0  0  0  0  0  0  0  0  0  0  0
    0.9702   -0.0697    0.5665 C   0  0  0  0  0  0  0  0  0  0  0  0
    0.2728    1.2340    0.3939 C   0  0  0  0  0  0  0  0  0  0  0  0
    0.7803    2.3154    0.6314 O   0  0  0  0  0  0  0  0  0  0  0  0
   -1.0848    0.9449   -0.0978 C   0  0  0  0  0  0  0  0  0  0  0  0
   -2.0046    1.8581    0.4231 O   0  0  0  0  0  0  0  0  0  0  0  0
   -1.3766   -0.4620    0.3139 C   0  0  0  0  0  0  0  0  0  0  0  0
   -0.8179   -1.5115   -0.6344 C   0  0  0  0  0  0  0  0  0  0  0  0
   -0.0477   -1.1417    0.5407 C   0  0  0  0  0  0  0  0  0  0  0  0
    2.4469   -1.1804   -0.6093 H   0  0  0  0  0  0  0  0  0  0  0  0
    2.8993    0.4594   -0.1122 H   0  0  0  0  0  0  0  0  0  0  0  0
    1.6825    0.2593   -1.4268 H   0  0  0  0  0  0  0  0  0  0  0  0
    1.4579   -0.0297    1.5814 H   0  0  0  0  0  0  0  0  0  0  0  0
   -1.1778    0.9959   -1.2060 H   0  0  0  0  0  0  0  0  0  0  0  0
   -1.8092    2.7376   -0.0323 H   0  0  0  0  0  0  0  0  0  0  0  0
   -2.2364   -0.7008    0.9472 H   0  0  0  0  0  0  0  0  0  0  0  0
   -0.5301   -1.2300   -1.6532 H   0  0  0  0  0  0  0  0  0  0  0  0
   -1.3904   -2.4677   -0.5884 H   0  0  0  0  0  0  0  0  0  0  0  0
   -0.0758   -1.8321    1.4336 H   0  0  0  0  0  0  0  0  0  0  0  0
  1  2  1  0
  2  3  1  0
  3  4  2  0
  3  5  1  0
  5  6  1  0
  5  7  1  0
  7  8  1  0
  8  9  1  0
  9  2  1  0
  9  7  1  0
  1 10  1  0
  1 11  1  0
  1 12  1  0
  2 13  1  0
  5 14  1  0
  6 15  1  0
  7 16  1  0
  8 17  1  0
  8 18  1  0
  9 19  1  0
M  END
