
     RDKit          3D

 21 22  0  0  0  0  0  0  0  0999 V2000
    1.8283    0.3326   -1.3104 C   0  0  0  0  0  0  0  0  0  0  0  0
    1.0838    0.1556   -0.0382 C   0  0  0  0  0  0  0  0  0  0  0  0
    0.1002    1.3173    0.2225 C   0  0  0  0  0  0  0  0  0  0  0  0
   -1.1323    0.5094    0.5112 C   0  0  0  0  0  0  0  0  0  0  0  0
   -2.2688    1.0961    0.8627 O   0  0  0  0  0  0  0  0  0  0  0  0
   -0.6270   -0.6723    1.3019 C   0  0  0  0  0  0  0  0  0  0  0  0
    0.1301   -0.9755   -0.0029 C   0  0  0  0  0  0  0  0  0  0  0  0
    0.5035   -2.2279   -0.2359 O   0  0  0  0  0  0  0  0  0  0  0  0
   -1.1457   -0.4537   -0.6834 C   0  0  0  0  0  0  0  0  0  0  0  0
    1.4892    1.1701   -1.9297 H   0  0  0  0  0  0  0  0  0  0  0  0
    2.9107    0.5139   -1.0431 H   0  0  0  0  0  0  0  0  0  0  0  0
    1.8537   -0.5763   -1.9580 H   0  0  0  0  0  0  0  0  0  0  0  0
    1.7339    0.1193    0.8715 H   0  0  0  0  0  0  0  0  0  0  0  0
    0.4319    1.9525    1.0401 H   0  0  0  0  0  0  0  0  0  0  0  0
    0.0165    1.8429   -0.7576 H   0  0  0  0  0  0  0  0  0  0  0  0
   -2.4901    1.8317    0.2716 H   0  0  0  0  0  0  0  0  0  0  0  0
   -1.3460   -1.4721    1.4863 H   0  0  0  0  0  0  0  0  0  0  0  0
    0.0575   -0.4252    2.1439 H   0  0  0  0  0  0  0  0  0  0  0  0
   -0.2667   -2.8403   -0.1249 H   0  0  0  0  0  0  0  0  0  0  0  0
   -0.9171    0.0083   -1.6456 H   0  0  0  0  0  0  0  0  0  0  0  0
   -1.9454   -1.2064   -0.6464 H   0  0  0  0  0  0  0  0  0  0  0  0
  1  2  1  0
  2  3  1  0
  3  4  1  0
  4  5  1  0
  4  6  1  0
  6  7  1  0
  7  8  1  0
  7  9  1  0
  7  2  1  0
  9  4  1  0
  1 10  1  0
  1 11  1  0
  1 12  1  0
  2 13  1  0
  3 14  1  0
  3 15  1  0
  5 16  1  0
  6 17  1  0
  6 18  1  0
  8 19  1  0
  9 20  1  0
  9 21  1  0
M  END
