
     RDKit          3D

 20 20  0  0  0  0  0  0  0  0999 V2000
    2.4671   -0.1467    0.0806 C   0  0  0  0  0  0  0  0  0  0  0  0
    1.0417   -0.3220    0.5737 C   0  0  0  0  0  0  0  0  0  0  0  0
    0.2335    0.9184    0.4415 C   0  0  0  0  0  0  0  0  0  0  0  0
   -1.2348    0.7181    0.3455 C   0  0  0  0  0  0  0  0  0  0  0  0
   -1.8702    1.7159   -0.4193 O   0  0  0  0  0  0  0  0  0  0  0  0
   -1.6514   -0.6014   -0.2230 C   0  0  0  0  0  0  0  0  0  0  0  0
   -0.4495   -1.1571   -0.9902 C   0  0  0  0  0  0  0  0  0  0  0  0
    0.5237   -1.4277   -0.0572 O   0  0  0  0  0  0  0  0  0  0  0  0
    2.5678   -0.5935   -0.9522 H   0  0  0  0  0  0  0  0  0  0  0  0
    2.8037    0.8852    0.0669 H   0  0  0  0  0  0  0  0  0  0  0  0
    3.1147   -0.8178    0.7180 H   0  0  0  0  0  0  0  0  0  0  0  0
    1.0875   -0.5738    1.6736 H   0  0  0  0  0  0  0  0  0  0  0  0
    0.5866    1.5709   -0.4081 H   0  0  0  0  0  0  0  0  0  0  0  0
    0.4206    1.5562    1.3558 H   0  0  0  0  0  0  0  0  0  0  0  0
   -1.7150    0.7990    1.3645 H   0  0  0  0  0  0  0  0  0  0  0  0
   -2.7323    1.9912   -0.0297 H   0  0  0  0  0  0  0  0  0  0  0  0
   -2.4914   -0.5669   -0.9147 H   0  0  0  0  0  0  0  0  0  0  0  0
   -1.8034   -1.3303    0.6258 H   0  0  0  0  0  0  0  0  0  0  0  0
   -0.7558   -2.1203   -1.4449 H   0  0  0  0  0  0  0  0  0  0  0  0
   -0.1431   -0.4975   -1.8065 H   0  0  0  0  0  0  0  0  0  0  0  0
  1  2  1  0
  2  3  1  0
  3  4  1  0
  4  5  1  0
  4  6  1  0
  6  7  1  0
  7  8  1  0
  8  2  1  0
  1  9  1  0
  1 10  1  0
  1 11  1  0
  2 12  1  0
  3 13  1  0
  3 14  1  0
  4 15  1  0
  5 16  1  0
  6 17  1  0
  6 18  1  0
  7 19  1  0
  7 20  1  0
M  END
