
     RDKit          3D

 17 18  0  0  0  0  0  0  0  0999 V2000
    1.8702    0.1686    0.4258 C   0  0  0  0  0  0  0  0  0  0  0  0
    0.4557   -0.0595    0.8047 C   0  0  0  0  0  0  0  0  0  0  0  0
   -0.2310   -1.1099   -0.0861 C   0  0  0  0  0  0  0  0  0  0  0  0
   -1.6612   -0.7972    0.2530 C   0  0  0  0  0  0  0  0  0  0  0  0
   -1.6959    0.5504    0.6631 O   0  0  0  0  0  0  0  0  0  0  0  0
   -0.4615    1.0653    0.2859 C   0  0  0  0  0  0  0  0  0  0  0  0
   -0.3413    0.8455   -1.1784 C   0  0  0  0  0  0  0  0  0  0  0  0
   -0.5375    1.7400   -2.0365 O   0  0  0  0  0  0  0  0  0  0  0  0
    0.0135   -0.4870   -1.3549 O   0  0  0  0  0  0  0  0  0  0  0  0
    2.1190    1.2700    0.4692 H   0  0  0  0  0  0  0  0  0  0  0  0
    2.1294   -0.2034   -0.5793 H   0  0  0  0  0  0  0  0  0  0  0  0
    2.5344   -0.3917    1.1389 H   0  0  0  0  0  0  0  0  0  0  0  0
    0.2575   -0.2266    1.8603 H   0  0  0  0  0  0  0  0  0  0  0  0
    0.1125   -2.0975    0.0277 H   0  0  0  0  0  0  0  0  0  0  0  0
   -2.2535   -0.8269   -0.7044 H   0  0  0  0  0  0  0  0  0  0  0  0
   -2.0944   -1.4712    1.0103 H   0  0  0  0  0  0  0  0  0  0  0  0
   -0.2157    2.0311    0.6466 H   0  0  0  0  0  0  0  0  0  0  0  0
  1  2  1  0
  2  3  1  0
  3  4  1  0
  4  5  1  0
  5  6  1  0
  6  7  1  0
  7  8  2  0
  7  9  1  0
  6  2  1  0
  9  3  1  0
  1 10  1  0
  1 11  1  0
  1 12  1  0
  2 13  1  0
  3 14  1  0
  4 15  1  0
  4 16  1  0
  6 17  1  0
M  END
