
     RDKit          3D

 18 18  0  0  0  0  0  0  0  0999 V2000
    2.2398   -0.1164   -0.1003 C   0  0  0  0  0  0  0  0  0  0  0  0
    0.7839   -0.0264   -0.4850 C   0  0  0  0  0  0  0  0  0  0  0  0
    0.0399   -1.2665   -0.3263 C   0  0  0  0  0  0  0  0  0  0  0  0
   -1.2735   -1.2806   -0.1073 C   0  0  0  0  0  0  0  0  0  0  0  0
   -2.0872   -0.0411   -0.0069 C   0  0  0  0  0  0  0  0  0  0  0  0
   -1.2466    1.1337    0.3623 C   0  0  0  0  0  0  0  0  0  0  0  0
   -1.8429    2.1804    0.5894 O   0  0  0  0  0  0  0  0  0  0  0  0
    0.2085    1.0338    0.4464 C   0  0  0  0  0  0  0  0  0  0  0  0
    2.7436    0.7674   -0.5892 H   0  0  0  0  0  0  0  0  0  0  0  0
    2.3548    0.0637    1.0045 H   0  0  0  0  0  0  0  0  0  0  0  0
    2.7307   -1.0359   -0.4211 H   0  0  0  0  0  0  0  0  0  0  0  0
    0.7425    0.2831   -1.5401 H   0  0  0  0  0  0  0  0  0  0  0  0
    0.5178   -2.2394   -0.3783 H   0  0  0  0  0  0  0  0  0  0  0  0
   -1.8347   -2.2204    0.0125 H   0  0  0  0  0  0  0  0  0  0  0  0
   -2.8087   -0.1787    0.8302 H   0  0  0  0  0  0  0  0  0  0  0  0
   -2.5938    0.2125   -0.9541 H   0  0  0  0  0  0  0  0  0  0  0  0
    0.5768    0.7542    1.4701 H   0  0  0  0  0  0  0  0  0  0  0  0
    0.7492    1.9766    0.1931 H   0  0  0  0  0  0  0  0  0  0  0  0
  1  2  1  0
  2  3  1  0
  3  4  2  0
  4  5  1  0
  5  6  1  0
  6  7  2  0
  6  8  1  0
  8  2  1  0
  1  9  1  0
  1 10  1  0
  1 11  1  0
  2 12  1  0
  3 13  1  0
  4 14  1  0
  5 15  1  0
  5 16  1  0
  8 17  1  0
  8 18  1  0
M  END
