
     RDKit          3D

 18 18  0  0  0  0  0  0  0  0999 V2000
   -2.1328    0.1617   -0.3262 C   0  0  0  0  0  0  0  0  0  0  0  0
   -0.9325   -0.5803    0.1988 C   0  0  0  0  0  0  0  0  0  0  0  0
   -0.0825    0.2711    1.1349 C   0  0  0  0  0  0  0  0  0  0  0  0
    1.1306   -0.3933    0.5044 C   0  0  0  0  0  0  0  0  0  0  0  0
    2.2749    0.4963    0.2877 C   0  0  0  0  0  0  0  0  0  0  0  0
    2.1844    1.7099    0.2815 O   0  0  0  0  0  0  0  0  0  0  0  0
    0.2531   -0.6336   -0.7306 C   0  0  0  0  0  0  0  0  0  0  0  0
    0.2392    0.4449   -1.5965 O   0  0  0  0  0  0  0  0  0  0  0  0
   -1.9217    1.1862   -0.6321 H   0  0  0  0  0  0  0  0  0  0  0  0
   -2.8955    0.1518    0.4865 H   0  0  0  0  0  0  0  0  0  0  0  0
   -2.5660   -0.4416   -1.1644 H   0  0  0  0  0  0  0  0  0  0  0  0
   -1.2329   -1.5410    0.6241 H   0  0  0  0  0  0  0  0  0  0  0  0
   -0.1882    1.3442    0.8056 H   0  0  0  0  0  0  0  0  0  0  0  0
   -0.2265    0.0926    2.2008 H   0  0  0  0  0  0  0  0  0  0  0  0
    1.3551   -1.3474    1.0114 H   0  0  0  0  0  0  0  0  0  0  0  0
    3.2605    0.0786    0.1225 H   0  0  0  0  0  0  0  0  0  0  0  0
    0.3821   -1.6236   -1.1753 H   0  0  0  0  0  0  0  0  0  0  0  0
    1.0987    0.6237   -2.0328 H   0  0  0  0  0  0  0  0  0  0  0  0
  1  2  1  0
  2  3  1  0
  3  4  1  0
  4  5  1  0
  5  6  2  0
  4  7  1  0
  7  8  1  0
  7  2  1  0
  1  9  1  0
  1 10  1  0
  1 11  1  0
  2 12  1  0
  3 13  1  0
  3 14  1  0
  4 15  1  0
  5 16  1  0
  7 17  1  0
  8 18  1  0
M  END
