
     RDKit          3D

 19 20  0  0  0  0  0  0  0  0999 V2000
    2.2602    0.0359    0.0553 C   0  0  0  0  0  0  0  0  0  0  0  0
    0.8481   -0.4552    0.0571 C   0  0  0  0  0  0  0  0  0  0  0  0
   -0.0599    0.0529   -1.0061 C   0  0  0  0  0  0  0  0  0  0  0  0
   -0.0314    1.3766   -0.2827 C   0  0  0  0  0  0  0  0  0  0  0  0
   -0.1467    0.3521    0.8157 C   0  0  0  0  0  0  0  0  0  0  0  0
   -1.2029   -0.2466   -0.0715 C   0  0  0  0  0  0  0  0  0  0  0  0
   -2.2660    0.6460   -0.2177 O   0  0  0  0  0  0  0  0  0  0  0  0
   -1.6010   -1.6217    0.1356 C   0  0  0  0  0  0  0  0  0  0  0  0
   -2.8162   -1.8783    0.1640 O   0  0  0  0  0  0  0  0  0  0  0  0
    2.4068    1.0020    0.5765 H   0  0  0  0  0  0  0  0  0  0  0  0
    2.7047    0.0966   -0.9735 H   0  0  0  0  0  0  0  0  0  0  0  0
    2.8899   -0.6979    0.6020 H   0  0  0  0  0  0  0  0  0  0  0  0
    0.8163   -1.5441    0.1292 H   0  0  0  0  0  0  0  0  0  0  0  0
   -0.0316   -0.0937   -1.9942 H   0  0  0  0  0  0  0  0  0  0  0  0
    0.8662    1.9674   -0.3418 H   0  0  0  0  0  0  0  0  0  0  0  0
   -0.9302    2.0165   -0.4175 H   0  0  0  0  0  0  0  0  0  0  0  0
   -0.2045    0.5253    1.7977 H   0  0  0  0  0  0  0  0  0  0  0  0
   -2.5239    0.9440    0.6995 H   0  0  0  0  0  0  0  0  0  0  0  0
   -0.9777   -2.4778    0.2723 H   0  0  0  0  0  0  0  0  0  0  0  0
  1  2  1  0
  2  3  1  0
  3  4  1  0
  4  5  1  0
  5  6  1  0
  6  7  1  0
  6  8  1  0
  8  9  2  0
  5  2  1  0
  6  3  1  0
  1 10  1  0
  1 11  1  0
  1 12  1  0
  2 13  1  0
  3 14  1  0
  4 15  1  0
  4 16  1  0
  5 17  1  0
  7 18  1  0
  8 19  1  0
M  END
