
     RDKit          3D

 21 21  0  0  0  0  0  0  0  0999 V2000
   -1.6067   -0.8189    1.2129 C   0  0  0  0  0  0  0  0  0  0  0  0
   -1.1329    0.1185    0.1431 C   0  0  0  0  0  0  0  0  0  0  0  0
   -0.9988   -0.4708   -1.2672 C   0  0  0  0  0  0  0  0  0  0  0  0
    0.1526    0.0930   -0.5316 C   0  0  0  0  0  0  0  0  0  0  0  0
    0.6681    1.4605   -1.0442 C   0  0  0  0  0  0  0  0  0  0  0  0
    0.8034    2.3087    0.0357 O   0  0  0  0  0  0  0  0  0  0  0  0
    1.2968   -0.8129   -0.1847 C   0  0  0  0  0  0  0  0  0  0  0  0
    1.8004   -0.6280    1.1940 C   0  0  0  0  0  0  0  0  0  0  0  0
    1.4965   -1.3714    2.0993 O   0  0  0  0  0  0  0  0  0  0  0  0
   -2.6902   -1.0775    0.9621 H   0  0  0  0  0  0  0  0  0  0  0  0
   -1.6188   -0.3496    2.2226 H   0  0  0  0  0  0  0  0  0  0  0  0
   -1.0140   -1.7588    1.2425 H   0  0  0  0  0  0  0  0  0  0  0  0
   -1.6903    1.0952    0.1426 H   0  0  0  0  0  0  0  0  0  0  0  0
   -1.1994   -1.5501   -1.3118 H   0  0  0  0  0  0  0  0  0  0  0  0
   -1.4852    0.0858   -2.1058 H   0  0  0  0  0  0  0  0  0  0  0  0
   -0.0668    1.8279   -1.7989 H   0  0  0  0  0  0  0  0  0  0  0  0
    1.6658    1.3032   -1.4906 H   0  0  0  0  0  0  0  0  0  0  0  0
   -0.0312    2.8210    0.2298 H   0  0  0  0  0  0  0  0  0  0  0  0
    2.1469   -0.5686   -0.8722 H   0  0  0  0  0  0  0  0  0  0  0  0
    1.0257   -1.9045   -0.3432 H   0  0  0  0  0  0  0  0  0  0  0  0
    2.4781    0.1973    1.4655 H   0  0  0  0  0  0  0  0  0  0  0  0
  1  2  1  0
  2  3  1  0
  3  4  1  0
  4  5  1  0
  5  6  1  0
  4  7  1  0
  7  8  1  0
  8  9  2  0
  4  2  1  0
  1 10  1  0
  1 11  1  0
  1 12  1  0
  2 13  1  0
  3 14  1  0
  3 15  1  0
  5 16  1  0
  5 17  1  0
  6 18  1  0
  7 19  1  0
  7 20  1  0
  8 21  1  0
M  END
