
     RDKit          3D

 19 19  0  0  0  0  0  0  0  0999 V2000
   -2.4120   -0.6706   -0.1714 C   0  0  0  0  0  0  0  0  0  0  0  0
   -1.1584   -0.1705    0.4918 C   0  0  0  0  0  0  0  0  0  0  0  0
   -0.7070    1.1381    0.0126 C   0  0  0  0  0  0  0  0  0  0  0  0
    0.5809    1.4273    0.0947 C   0  0  0  0  0  0  0  0  0  0  0  0
    1.5865    0.4802    0.6524 C   0  0  0  0  0  0  0  0  0  0  0  0
    2.7040    0.2195   -0.2863 C   0  0  0  0  0  0  0  0  0  0  0  0
    2.9812   -0.9252   -0.5647 O   0  0  0  0  0  0  0  0  0  0  0  0
    1.0424   -0.7090    1.0540 O   0  0  0  0  0  0  0  0  0  0  0  0
   -0.0056   -1.1460    0.2237 C   0  0  0  0  0  0  0  0  0  0  0  0
   -2.2234   -1.0310   -1.2080 H   0  0  0  0  0  0  0  0  0  0  0  0
   -3.2022    0.0764   -0.1145 H   0  0  0  0  0  0  0  0  0  0  0  0
   -2.7540   -1.5566    0.4073 H   0  0  0  0  0  0  0  0  0  0  0  0
   -1.2833   -0.1510    1.5844 H   0  0  0  0  0  0  0  0  0  0  0  0
   -1.3967    1.8488   -0.3956 H   0  0  0  0  0  0  0  0  0  0  0  0
    0.9636    2.3839   -0.2472 H   0  0  0  0  0  0  0  0  0  0  0  0
    2.0003    0.9809    1.5741 H   0  0  0  0  0  0  0  0  0  0  0  0
    3.2883    1.0277   -0.7372 H   0  0  0  0  0  0  0  0  0  0  0  0
    0.3131   -1.0829   -0.8360 H   0  0  0  0  0  0  0  0  0  0  0  0
   -0.3179   -2.1400    0.5374 H   0  0  0  0  0  0  0  0  0  0  0  0
  1  2  1  0
  2  3  1  0
  3  4  2  0
  4  5  1  0
  5  6  1  0
  6  7  2  0
  5  8  1  0
  8  9  1  0
  9  2  1  0
  1 10  1  0
  1 11  1  0
  1 12  1  0
  2 13  1  0
  3 14  1  0
  4 15  1  0
  5 16  1  0
  6 17  1  0
  9 18  1  0
  9 19  1  0
M  END
