
     RDKit          3D

 21 22  0  0  0  0  0  0  0  0999 V2000
    2.2902   -0.4067    0.2025 C   0  0  0  0  0  0  0  0  0  0  0  0
    0.9114    0.1903    0.2794 C   0  0  0  0  0  0  0  0  0  0  0  0
    0.8861    1.5866   -0.3559 C   0  0  0  0  0  0  0  0  0  0  0  0
   -0.4473    1.8141   -0.5096 O   0  0  0  0  0  0  0  0  0  0  0  0
   -1.1357    0.6387   -0.6665 C   0  0  0  0  0  0  0  0  0  0  0  0
   -1.9588    0.2676    0.5394 C   0  0  0  0  0  0  0  0  0  0  0  0
   -1.8799   -1.2041    0.6203 C   0  0  0  0  0  0  0  0  0  0  0  0
   -0.8087   -1.6051   -0.0450 C   0  0  0  0  0  0  0  0  0  0  0  0
   -0.0819   -0.4806   -0.6241 C   0  0  0  0  0  0  0  0  0  0  0  0
    2.3996   -0.9385   -0.7396 H   0  0  0  0  0  0  0  0  0  0  0  0
    2.4711   -1.0560    1.0951 H   0  0  0  0  0  0  0  0  0  0  0  0
    3.0092    0.4554    0.3154 H   0  0  0  0  0  0  0  0  0  0  0  0
    0.5416    0.2865    1.2964 H   0  0  0  0  0  0  0  0  0  0  0  0
    1.3370    1.4416   -1.3676 H   0  0  0  0  0  0  0  0  0  0  0  0
    1.4085    2.3251    0.2494 H   0  0  0  0  0  0  0  0  0  0  0  0
   -1.7388    0.5878   -1.5862 H   0  0  0  0  0  0  0  0  0  0  0  0
   -1.4517    0.6614    1.4515 H   0  0  0  0  0  0  0  0  0  0  0  0
   -3.0042    0.6344    0.4652 H   0  0  0  0  0  0  0  0  0  0  0  0
   -2.5885   -1.8727    1.1445 H   0  0  0  0  0  0  0  0  0  0  0  0
   -0.5018   -2.6548   -0.1502 H   0  0  0  0  0  0  0  0  0  0  0  0
    0.3425   -0.6710   -1.6143 H   0  0  0  0  0  0  0  0  0  0  0  0
  1  2  1  0
  2  3  1  0
  3  4  1  0
  4  5  1  0
  5  6  1  0
  6  7  1  0
  7  8  2  0
  8  9  1  0
  9  2  1  0
  9  5  1  0
  1 10  1  0
  1 11  1  0
  1 12  1  0
  2 13  1  0
  3 14  1  0
  3 15  1  0
  5 16  1  0
  6 17  1  0
  6 18  1  0
  7 19  1  0
  8 20  1  0
  9 21  1  0
M  END
