
     RDKit          3D

 17 19  0  0  0  0  0  0  0  0999 V2000
    1.8982    0.0248   -0.3612 C   0  0  0  0  0  0  0  0  0  0  0  0
    0.7121   -0.3782    0.4316 C   0  0  0  0  0  0  0  0  0  0  0  0
   -0.0749    0.7598    1.0122 C   0  0  0  0  0  0  0  0  0  0  0  0
   -1.1693    0.0526    1.5307 O   0  0  0  0  0  0  0  0  0  0  0  0
   -1.6002   -0.7051    0.4224 C   0  0  0  0  0  0  0  0  0  0  0  0
   -1.3307    0.0857   -0.7967 C   0  0  0  0  0  0  0  0  0  0  0  0
   -0.7037    1.3147   -0.2277 C   0  0  0  0  0  0  0  0  0  0  0  0
   -0.7118    2.4434   -0.6636 O   0  0  0  0  0  0  0  0  0  0  0  0
   -0.3973   -0.9903   -0.4156 C   0  0  0  0  0  0  0  0  0  0  0  0
    2.2192   -0.8438   -0.9801 H   0  0  0  0  0  0  0  0  0  0  0  0
    2.7312    0.2365    0.3278 H   0  0  0  0  0  0  0  0  0  0  0  0
    1.6779    0.8435   -1.0565 H   0  0  0  0  0  0  0  0  0  0  0  0
    0.9481   -1.0769    1.2322 H   0  0  0  0  0  0  0  0  0  0  0  0
    0.4095    1.4392    1.6506 H   0  0  0  0  0  0  0  0  0  0  0  0
   -2.4247   -1.4022    0.5285 H   0  0  0  0  0  0  0  0  0  0  0  0
   -1.9372    0.1070   -1.6803 H   0  0  0  0  0  0  0  0  0  0  0  0
   -0.2464   -1.9108   -0.9544 H   0  0  0  0  0  0  0  0  0  0  0  0
  1  2  1  0
  2  3  1  0
  3  4  1  0
  4  5  1  0
  5  6  1  0
  6  7  1  0
  7  8  2  0
  6  9  1  0
  9  2  1  0
  7  3  1  0
  9  5  1  0
  1 10  1  0
  1 11  1  0
  1 12  1  0
  2 13  1  0
  3 14  1  0
  5 15  1  0
  6 16  1  0
  9 17  1  0
M  END
