
     RDKit          3D

 21 23  0  0  0  0  0  0  0  0999 V2000
    2.2274    0.6982   -0.0050 C   0  0  0  0  0  0  0  0  0  0  0  0
    0.7347    0.7053   -0.1942 C   0  0  0  0  0  0  0  0  0  0  0  0
    0.0780   -0.0348    0.9462 C   0  0  0  0  0  0  0  0  0  0  0  0
    0.6898   -1.2817    0.8168 O   0  0  0  0  0  0  0  0  0  0  0  0
    0.4521   -1.5947   -0.5433 C   0  0  0  0  0  0  0  0  0  0  0  0
    0.4373   -0.3210   -1.2989 C   0  0  0  0  0  0  0  0  0  0  0  0
   -0.8196   -0.9826   -0.9406 C   0  0  0  0  0  0  0  0  0  0  0  0
   -1.2824   -0.3395    0.3759 C   0  0  0  0  0  0  0  0  0  0  0  0
   -2.1067    0.8755    0.1007 C   0  0  0  0  0  0  0  0  0  0  0  0
    2.4961   -0.3245    0.3806 H   0  0  0  0  0  0  0  0  0  0  0  0
    2.7761    0.7825   -0.9758 H   0  0  0  0  0  0  0  0  0  0  0  0
    2.6029    1.4645    0.6694 H   0  0  0  0  0  0  0  0  0  0  0  0
    0.3059    1.6797   -0.4052 H   0  0  0  0  0  0  0  0  0  0  0  0
    0.1141    0.4206    1.8996 H   0  0  0  0  0  0  0  0  0  0  0  0
    0.8487   -2.5254   -0.9522 H   0  0  0  0  0  0  0  0  0  0  0  0
    0.8329   -0.1839   -2.2900 H   0  0  0  0  0  0  0  0  0  0  0  0
   -1.5416   -1.3976   -1.6225 H   0  0  0  0  0  0  0  0  0  0  0  0
   -1.7683   -1.0821    1.0348 H   0  0  0  0  0  0  0  0  0  0  0  0
   -3.1546    0.5270   -0.0869 H   0  0  0  0  0  0  0  0  0  0  0  0
   -2.1426    1.5676    0.9423 H   0  0  0  0  0  0  0  0  0  0  0  0
   -1.7802    1.3470   -0.8495 H   0  0  0  0  0  0  0  0  0  0  0  0
  1  2  1  0
  2  3  1  0
  3  4  1  0
  4  5  1  0
  5  6  1  0
  6  7  1  0
  7  8  1  0
  8  9  1  0
  6  2  1  0
  8  3  1  0
  7  5  1  0
  1 10  1  0
  1 11  1  0
  1 12  1  0
  2 13  1  0
  3 14  1  0
  5 15  1  0
  6 16  1  0
  7 17  1  0
  8 18  1  0
  9 19  1  0
  9 20  1  0
  9 21  1  0
M  END
