
     RDKit          3D

 21 21  0  0  0  0  0  0  0  0999 V2000
    2.5793    0.6634    0.7980 C   0  0  0  0  0  0  0  0  0  0  0  0
    1.7522    0.6459   -0.4513 C   0  0  0  0  0  0  0  0  0  0  0  0
    0.3145    0.9542   -0.2048 C   0  0  0  0  0  0  0  0  0  0  0  0
   -0.2836   -0.1970   -0.0372 C   0  0  0  0  0  0  0  0  0  0  0  0
   -1.7114   -0.5208    0.2387 C   0  0  0  0  0  0  0  0  0  0  0  0
   -2.5872    0.6843    0.3259 C   0  0  0  0  0  0  0  0  0  0  0  0
   -2.1487   -1.3323   -0.8190 O   0  0  0  0  0  0  0  0  0  0  0  0
    0.7407   -1.2625   -0.1591 C   0  0  0  0  0  0  0  0  0  0  0  0
    1.6938   -0.6631   -0.9557 O   0  0  0  0  0  0  0  0  0  0  0  0
    3.5316    1.2427    0.6528 H   0  0  0  0  0  0  0  0  0  0  0  0
    2.0086    1.0772    1.6579 H   0  0  0  0  0  0  0  0  0  0  0  0
    2.9171   -0.3735    1.0778 H   0  0  0  0  0  0  0  0  0  0  0  0
    2.2157    1.2836   -1.2085 H   0  0  0  0  0  0  0  0  0  0  0  0
   -0.1563    1.9174   -0.1680 H   0  0  0  0  0  0  0  0  0  0  0  0
   -1.7094   -1.1344    1.1746 H   0  0  0  0  0  0  0  0  0  0  0  0
   -2.0646    1.6296    0.4928 H   0  0  0  0  0  0  0  0  0  0  0  0
   -3.3600    0.5167    1.1325 H   0  0  0  0  0  0  0  0  0  0  0  0
   -3.2070    0.7827   -0.6136 H   0  0  0  0  0  0  0  0  0  0  0  0
   -1.9486   -2.2796   -0.6849 H   0  0  0  0  0  0  0  0  0  0  0  0
    0.3100   -2.1794   -0.6077 H   0  0  0  0  0  0  0  0  0  0  0  0
    1.1134   -1.4552    0.8804 H   0  0  0  0  0  0  0  0  0  0  0  0
  1  2  1  0
  2  3  1  0
  3  4  2  0
  4  5  1  0
  5  6  1  0
  5  7  1  0
  4  8  1  0
  8  9  1  0
  9  2  1  0
  1 10  1  0
  1 11  1  0
  1 12  1  0
  2 13  1  0
  3 14  1  0
  5 15  1  0
  6 16  1  0
  6 17  1  0
  6 18  1  0
  7 19  1  0
  8 20  1  0
  8 21  1  0
M  END
