
     RDKit          3D

 19 20  0  0  0  0  0  0  0  0999 V2000
    1.9348   -0.0670    0.8899 C   0  0  0  0  0  0  0  0  0  0  0  0
    1.0016   -0.5274   -0.1964 C   0  0  0  0  0  0  0  0  0  0  0  0
    0.2299    0.4334   -1.0171 C   0  0  0  0  0  0  0  0  0  0  0  0
   -0.2763    1.6861   -0.3428 C   0  0  0  0  0  0  0  0  0  0  0  0
   -1.0770    0.8089    0.5858 C   0  0  0  0  0  0  0  0  0  0  0  0
   -0.4447   -0.4111    0.0095 C   0  0  0  0  0  0  0  0  0  0  0  0
   -1.3120   -1.5656   -0.3663 C   0  0  0  0  0  0  0  0  0  0  0  0
    1.4467    0.6194    1.6193 H   0  0  0  0  0  0  0  0  0  0  0  0
    2.7911    0.4541    0.3921 H   0  0  0  0  0  0  0  0  0  0  0  0
    2.3508   -0.9757    1.3883 H   0  0  0  0  0  0  0  0  0  0  0  0
    1.3533   -1.4311   -0.7305 H   0  0  0  0  0  0  0  0  0  0  0  0
    0.0319    0.2872   -2.0853 H   0  0  0  0  0  0  0  0  0  0  0  0
    0.5231    2.2844    0.1211 H   0  0  0  0  0  0  0  0  0  0  0  0
   -0.9240    2.3255   -0.9526 H   0  0  0  0  0  0  0  0  0  0  0  0
   -0.9042    0.9654    1.6664 H   0  0  0  0  0  0  0  0  0  0  0  0
   -2.1808    0.8086    0.3468 H   0  0  0  0  0  0  0  0  0  0  0  0
   -0.7101   -2.3622   -0.8544 H   0  0  0  0  0  0  0  0  0  0  0  0
   -1.7018   -2.0152    0.5825 H   0  0  0  0  0  0  0  0  0  0  0  0
   -2.1322   -1.3178   -1.0566 H   0  0  0  0  0  0  0  0  0  0  0  0
  1  2  1  0
  2  3  1  0
  3  4  1  0
  4  5  1  0
  5  6  1  0
  6  7  1  0
  6  2  1  0
  6  3  1  0
  1  8  1  0
  1  9  1  0
  1 10  1  0
  2 11  1  0
  3 12  1  0
  4 13  1  0
  4 14  1  0
  5 15  1  0
  5 16  1  0
  7 17  1  0
  7 18  1  0
  7 19  1  0
M  END
