
     RDKit          3D

 19 19  0  0  0  0  0  0  0  0999 V2000
   -2.5452    0.4325    0.1025 C   0  0  0  0  0  0  0  0  0  0  0  0
   -1.1961    0.3250   -0.6143 C   0  0  0  0  0  0  0  0  0  0  0  0
   -0.6657   -1.0234   -0.3904 C   0  0  0  0  0  0  0  0  0  0  0  0
    0.4428   -1.4998    0.1486 C   0  0  0  0  0  0  0  0  0  0  0  0
    1.5580   -0.7578    0.7280 C   0  0  0  0  0  0  0  0  0  0  0  0
    2.0237    0.4111   -0.1129 C   0  0  0  0  0  0  0  0  0  0  0  0
    1.0157    1.5014   -0.0836 C   0  0  0  0  0  0  0  0  0  0  0  0
    1.5152    2.6438    0.0805 O   0  0  0  0  0  0  0  0  0  0  0  0
   -0.3379    1.3594   -0.2147 O   0  0  0  0  0  0  0  0  0  0  0  0
   -2.4077    1.0853    0.9991 H   0  0  0  0  0  0  0  0  0  0  0  0
   -3.2974    0.9071   -0.5594 H   0  0  0  0  0  0  0  0  0  0  0  0
   -2.9363   -0.5696    0.3649 H   0  0  0  0  0  0  0  0  0  0  0  0
   -1.3891    0.4552   -1.7012 H   0  0  0  0  0  0  0  0  0  0  0  0
   -1.3293   -1.8058   -0.7456 H   0  0  0  0  0  0  0  0  0  0  0  0
    0.5534   -2.5779    0.1718 H   0  0  0  0  0  0  0  0  0  0  0  0
    1.2702   -0.3293    1.7177 H   0  0  0  0  0  0  0  0  0  0  0  0
    2.4252   -1.4211    0.8700 H   0  0  0  0  0  0  0  0  0  0  0  0
    2.3143    0.1179   -1.1374 H   0  0  0  0  0  0  0  0  0  0  0  0
    2.9863    0.7459    0.3765 H   0  0  0  0  0  0  0  0  0  0  0  0
  1  2  1  0
  2  3  1  0
  3  4  2  0
  4  5  1  0
  5  6  1  0
  6  7  1  0
  7  8  2  0
  7  9  1  0
  9  2  1  0
  1 10  1  0
  1 11  1  0
  1 12  1  0
  2 13  1  0
  3 14  1  0
  4 15  1  0
  5 16  1  0
  5 17  1  0
  6 18  1  0
  6 19  1  0
M  END
