
     RDKit          3D

 19 19  0  0  0  0  0  0  0  0999 V2000
   -1.7745   -1.3171    0.4010 C   0  0  0  0  0  0  0  0  0  0  0  0
   -1.0213   -0.4222   -0.5920 C   0  0  0  0  0  0  0  0  0  0  0  0
    0.4271   -0.7649   -0.5710 C   0  0  0  0  0  0  0  0  0  0  0  0
    1.3392    0.0580   -0.0815 C   0  0  0  0  0  0  0  0  0  0  0  0
    2.7445   -0.2840   -0.0655 C   0  0  0  0  0  0  0  0  0  0  0  0
    3.6059    0.4949    0.3975 O   0  0  0  0  0  0  0  0  0  0  0  0
    0.8740    1.3775    0.4662 C   0  0  0  0  0  0  0  0  0  0  0  0
   -0.3945    1.1667    1.0000 O   0  0  0  0  0  0  0  0  0  0  0  0
   -1.2569    0.9947   -0.1082 C   0  0  0  0  0  0  0  0  0  0  0  0
   -2.8662   -1.1491    0.2158 H   0  0  0  0  0  0  0  0  0  0  0  0
   -1.6055   -0.9185    1.4392 H   0  0  0  0  0  0  0  0  0  0  0  0
   -1.4793   -2.3706    0.3079 H   0  0  0  0  0  0  0  0  0  0  0  0
   -1.4033   -0.5653   -1.6082 H   0  0  0  0  0  0  0  0  0  0  0  0
    0.7401   -1.7189   -0.9701 H   0  0  0  0  0  0  0  0  0  0  0  0
    3.0471   -1.2328   -0.4634 H   0  0  0  0  0  0  0  0  0  0  0  0
    0.7462    2.0930   -0.3667 H   0  0  0  0  0  0  0  0  0  0  0  0
    1.5868    1.7257    1.2402 H   0  0  0  0  0  0  0  0  0  0  0  0
   -1.0212    1.7097   -0.9164 H   0  0  0  0  0  0  0  0  0  0  0  0
   -2.2881    1.1232    0.2750 H   0  0  0  0  0  0  0  0  0  0  0  0
  1  2  1  0
  2  3  1  0
  3  4  2  0
  4  5  1  0
  5  6  2  0
  4  7  1  0
  7  8  1  0
  8  9  1  0
  9  2  1  0
  1 10  1  0
  1 11  1  0
  1 12  1  0
  2 13  1  0
  3 14  1  0
  5 15  1  0
  7 16  1  0
  7 17  1  0
  9 18  1  0
  9 19  1  0
M  END
