
     RDKit          3D

 16 16  0  0  0  0  0  0  0  0999 V2000
   -2.0060    0.0012   -0.4046 C   0  0  0  0  0  0  0  0  0  0  0  0
   -0.6193   -0.3988    0.0120 C   0  0  0  0  0  0  0  0  0  0  0  0
    0.4146   -0.0771   -1.0439 C   0  0  0  0  0  0  0  0  0  0  0  0
    1.6517   -0.4947   -0.6219 O   0  0  0  0  0  0  0  0  0  0  0  0
    2.1098    0.0832    0.5258 C   0  0  0  0  0  0  0  0  0  0  0  0
    1.1745    0.1476    1.5688 O   0  0  0  0  0  0  0  0  0  0  0  0
   -0.1733    0.2846    1.2556 C   0  0  0  0  0  0  0  0  0  0  0  0
   -0.9803    0.9405    1.9661 O   0  0  0  0  0  0  0  0  0  0  0  0
   -2.7040   -0.7662    0.0137 H   0  0  0  0  0  0  0  0  0  0  0  0
   -2.1544    0.0357   -1.4863 H   0  0  0  0  0  0  0  0  0  0  0  0
   -2.2523    0.9739    0.0714 H   0  0  0  0  0  0  0  0  0  0  0  0
   -0.5315   -1.4944    0.2178 H   0  0  0  0  0  0  0  0  0  0  0  0
    0.3703    0.9607   -1.3893 H   0  0  0  0  0  0  0  0  0  0  0  0
    0.1454   -0.7120   -1.9347 H   0  0  0  0  0  0  0  0  0  0  0  0
    2.5988    1.0788    0.3437 H   0  0  0  0  0  0  0  0  0  0  0  0
    2.9559   -0.5630    0.9061 H   0  0  0  0  0  0  0  0  0  0  0  0
  1  2  1  0
  2  3  1  0
  3  4  1  0
  4  5  1  0
  5  6  1  0
  6  7  1  0
  7  8  2  0
  7  2  1  0
  1  9  1  0
  1 10  1  0
  1 11  1  0
  2 12  1  0
  3 13  1  0
  3 14  1  0
  5 15  1  0
  5 16  1  0
M  END
