
     RDKit          3D

 21 23  0  0  0  0  0  0  0  0999 V2000
    1.8543   -0.7072    1.0036 C   0  0  0  0  0  0  0  0  0  0  0  0
    0.9388   -0.9054   -0.1575 C   0  0  0  0  0  0  0  0  0  0  0  0
    0.5872    0.4185   -0.8717 C   0  0  0  0  0  0  0  0  0  0  0  0
    0.9316    1.7027   -0.1849 C   0  0  0  0  0  0  0  0  0  0  0  0
   -0.4104   -0.4330   -0.2144 C   0  0  0  0  0  0  0  0  0  0  0  0
   -1.5451   -0.9913   -0.9584 C   0  0  0  0  0  0  0  0  0  0  0  0
   -2.4772   -0.3479    0.0745 C   0  0  0  0  0  0  0  0  0  0  0  0
   -2.2858   -0.6874    1.3933 O   0  0  0  0  0  0  0  0  0  0  0  0
   -1.2464    0.0595    0.8984 C   0  0  0  0  0  0  0  0  0  0  0  0
    2.6963   -0.0452    0.6445 H   0  0  0  0  0  0  0  0  0  0  0  0
    1.3593   -0.2651    1.8908 H   0  0  0  0  0  0  0  0  0  0  0  0
    2.3555   -1.6331    1.3528 H   0  0  0  0  0  0  0  0  0  0  0  0
    1.2797   -1.7210   -0.8562 H   0  0  0  0  0  0  0  0  0  0  0  0
    0.6301    0.4102   -1.9649 H   0  0  0  0  0  0  0  0  0  0  0  0
    1.7858    2.2137   -0.6568 H   0  0  0  0  0  0  0  0  0  0  0  0
    0.0230    2.3557   -0.1087 H   0  0  0  0  0  0  0  0  0  0  0  0
    1.2409    1.5382    0.8882 H   0  0  0  0  0  0  0  0  0  0  0  0
   -1.6818   -0.4605   -1.9467 H   0  0  0  0  0  0  0  0  0  0  0  0
   -1.6502   -2.0806   -1.0532 H   0  0  0  0  0  0  0  0  0  0  0  0
   -3.1818    0.4177   -0.2425 H   0  0  0  0  0  0  0  0  0  0  0  0
   -1.2035    1.1615    1.0700 H   0  0  0  0  0  0  0  0  0  0  0  0
  1  2  1  0
  2  3  1  0
  3  4  1  0
  3  5  1  0
  5  6  1  0
  6  7  1  0
  7  8  1  0
  8  9  1  0
  5  2  1  0
  9  7  1  0
  9  5  1  0
  1 10  1  0
  1 11  1  0
  1 12  1  0
  2 13  1  0
  3 14  1  0
  4 15  1  0
  4 16  1  0
  4 17  1  0
  6 18  1  0
  6 19  1  0
  7 20  1  0
  9 21  1  0
M  END
