
     RDKit          3D

 20 21  0  0  0  0  0  0  0  0999 V2000
    2.1897   -0.3854    0.2687 C   0  0  0  0  0  0  0  0  0  0  0  0
    1.1962    0.2669   -0.6789 C   0  0  0  0  0  0  0  0  0  0  0  0
    0.1530    1.0725    0.0953 C   0  0  0  0  0  0  0  0  0  0  0  0
    0.5756    1.4595    1.3501 O   0  0  0  0  0  0  0  0  0  0  0  0
   -0.8477   -0.0292    0.0203 C   0  0  0  0  0  0  0  0  0  0  0  0
   -2.2557    0.3209   -0.4043 C   0  0  0  0  0  0  0  0  0  0  0  0
   -0.4993   -1.4510    0.0539 C   0  0  0  0  0  0  0  0  0  0  0  0
    0.0623   -0.6733   -1.0694 C   0  0  0  0  0  0  0  0  0  0  0  0
    2.3633   -1.4474    0.0351 H   0  0  0  0  0  0  0  0  0  0  0  0
    1.8322   -0.3520    1.3264 H   0  0  0  0  0  0  0  0  0  0  0  0
    3.1273    0.2249    0.2313 H   0  0  0  0  0  0  0  0  0  0  0  0
    1.6252    0.7653   -1.5468 H   0  0  0  0  0  0  0  0  0  0  0  0
   -0.1725    1.9188   -0.5790 H   0  0  0  0  0  0  0  0  0  0  0  0
   -0.1530    1.9564    1.7778 H   0  0  0  0  0  0  0  0  0  0  0  0
   -2.9297   -0.1275    0.3825 H   0  0  0  0  0  0  0  0  0  0  0  0
   -2.4004    1.3990   -0.5218 H   0  0  0  0  0  0  0  0  0  0  0  0
   -2.4663   -0.2557   -1.3397 H   0  0  0  0  0  0  0  0  0  0  0  0
    0.2442   -1.8570    0.8008 H   0  0  0  0  0  0  0  0  0  0  0  0
   -1.2764   -2.1737   -0.1894 H   0  0  0  0  0  0  0  0  0  0  0  0
   -0.3680   -0.6321   -2.0647 H   0  0  0  0  0  0  0  0  0  0  0  0
  1  2  1  0
  2  3  1  0
  3  4  1  0
  3  5  1  0
  5  6  1  0
  5  7  1  0
  7  8  1  0
  8  2  1  0
  8  5  1  0
  1  9  1  0
  1 10  1  0
  1 11  1  0
  2 12  1  0
  3 13  1  0
  4 14  1  0
  6 15  1  0
  6 16  1  0
  6 17  1  0
  7 18  1  0
  7 19  1  0
  8 20  1  0
M  END
