
     RDKit          3D

 19 20  0  0  0  0  0  0  0  0999 V2000
   -2.4245    0.0903   -0.0098 C   0  0  0  0  0  0  0  0  0  0  0  0
   -1.0166   -0.3316   -0.4220 C   0  0  0  0  0  0  0  0  0  0  0  0
   -0.3079    0.8862   -0.8979 C   0  0  0  0  0  0  0  0  0  0  0  0
    0.9973    0.9857   -0.7631 C   0  0  0  0  0  0  0  0  0  0  0  0
    1.8196   -0.0704   -0.1500 C   0  0  0  0  0  0  0  0  0  0  0  0
    2.9663    0.5169    0.3832 O   0  0  0  0  0  0  0  0  0  0  0  0
    1.0682   -0.8678    0.8846 C   0  0  0  0  0  0  0  0  0  0  0  0
    0.5505   -2.0746    0.4439 O   0  0  0  0  0  0  0  0  0  0  0  0
   -0.3368   -1.0331    0.6984 C   0  0  0  0  0  0  0  0  0  0  0  0
   -3.2048   -0.3938   -0.5937 H   0  0  0  0  0  0  0  0  0  0  0  0
   -2.5917   -0.2310    1.0608 H   0  0  0  0  0  0  0  0  0  0  0  0
   -2.5144    1.2033    0.0147 H   0  0  0  0  0  0  0  0  0  0  0  0
   -1.1550   -0.9785   -1.3271 H   0  0  0  0  0  0  0  0  0  0  0  0
   -0.8605    1.6971   -1.3575 H   0  0  0  0  0  0  0  0  0  0  0  0
    1.5131    1.8939   -1.1210 H   0  0  0  0  0  0  0  0  0  0  0  0
    2.1531   -0.7464   -0.9763 H   0  0  0  0  0  0  0  0  0  0  0  0
    2.8132    1.4576    0.6143 H   0  0  0  0  0  0  0  0  0  0  0  0
    1.4972   -0.7909    1.9051 H   0  0  0  0  0  0  0  0  0  0  0  0
   -0.9663   -1.2130    1.6134 H   0  0  0  0  0  0  0  0  0  0  0  0
  1  2  1  0
  2  3  1  0
  3  4  2  0
  4  5  1  0
  5  6  1  0
  5  7  1  0
  7  8  1  0
  8  9  1  0
  9  2  1  0
  9  7  1  0
  1 10  1  0
  1 11  1  0
  1 12  1  0
  2 13  1  0
  3 14  1  0
  4 15  1  0
  5 16  1  0
  6 17  1  0
  7 18  1  0
  9 19  1  0
M  END
