
     RDKit          3D

 19 20  0  0  0  0  0  0  0  0999 V2000
    2.1590    0.5298   -0.6569 C   0  0  0  0  0  0  0  0  0  0  0  0
    0.6657    0.3834   -0.6087 C   0  0  0  0  0  0  0  0  0  0  0  0
    0.1531   -0.9999   -0.2816 C   0  0  0  0  0  0  0  0  0  0  0  0
   -1.3394   -0.8264   -0.2768 C   0  0  0  0  0  0  0  0  0  0  0  0
   -1.4074    0.5337    0.4508 C   0  0  0  0  0  0  0  0  0  0  0  0
   -2.2291    0.4918    1.5407 O   0  0  0  0  0  0  0  0  0  0  0  0
    0.0452    0.7054    0.7560 C   0  0  0  0  0  0  0  0  0  0  0  0
    0.4978   -0.6732    1.1511 C   0  0  0  0  0  0  0  0  0  0  0  0
    0.9225   -1.2319    2.1260 O   0  0  0  0  0  0  0  0  0  0  0  0
    2.4536    1.2974   -1.4163 H   0  0  0  0  0  0  0  0  0  0  0  0
    2.5463    0.8322    0.3232 H   0  0  0  0  0  0  0  0  0  0  0  0
    2.6378   -0.4158   -0.9952 H   0  0  0  0  0  0  0  0  0  0  0  0
    0.0998    0.9320   -1.3857 H   0  0  0  0  0  0  0  0  0  0  0  0
    0.6006   -1.8483   -0.7208 H   0  0  0  0  0  0  0  0  0  0  0  0
   -1.7971   -0.7792   -1.2647 H   0  0  0  0  0  0  0  0  0  0  0  0
   -1.7699   -1.5671    0.4112 H   0  0  0  0  0  0  0  0  0  0  0  0
   -1.6849    1.2684   -0.3225 H   0  0  0  0  0  0  0  0  0  0  0  0
   -2.9647   -0.1675    1.3896 H   0  0  0  0  0  0  0  0  0  0  0  0
    0.4111    1.5353    1.2905 H   0  0  0  0  0  0  0  0  0  0  0  0
  1  2  1  0
  2  3  1  0
  3  4  1  0
  4  5  1  0
  5  6  1  0
  5  7  1  0
  7  8  1  0
  8  9  2  0
  7  2  1  0
  8  3  1  0
  1 10  1  0
  1 11  1  0
  1 12  1  0
  2 13  1  0
  3 14  1  0
  4 15  1  0
  4 16  1  0
  5 17  1  0
  6 18  1  0
  7 19  1  0
M  END
