
     RDKit          3D

 18 19  0  0  0  0  0  0  0  0999 V2000
    2.3275   -0.4583   -0.0886 C   0  0  0  0  0  0  0  0  0  0  0  0
    0.8481   -0.3775   -0.2704 C   0  0  0  0  0  0  0  0  0  0  0  0
    0.1683    0.3549    0.8980 C   0  0  0  0  0  0  0  0  0  0  0  0
   -1.1427    0.6056    0.2155 C   0  0  0  0  0  0  0  0  0  0  0  0
   -0.7510    0.9000   -1.1751 C   0  0  0  0  0  0  0  0  0  0  0  0
    0.4452    0.2550   -1.4163 O   0  0  0  0  0  0  0  0  0  0  0  0
   -2.1390   -0.5352    0.4278 C   0  0  0  0  0  0  0  0  0  0  0  0
   -2.3094    0.8051    0.8020 O   0  0  0  0  0  0  0  0  0  0  0  0
    2.8090    0.5059   -0.2268 H   0  0  0  0  0  0  0  0  0  0  0  0
    2.5181   -0.7825    0.9709 H   0  0  0  0  0  0  0  0  0  0  0  0
    2.7111   -1.2651   -0.7421 H   0  0  0  0  0  0  0  0  0  0  0  0
    0.4508   -1.4297   -0.1898 H   0  0  0  0  0  0  0  0  0  0  0  0
    0.1135   -0.3165    1.7584 H   0  0  0  0  0  0  0  0  0  0  0  0
    0.7396    1.2831    1.0736 H   0  0  0  0  0  0  0  0  0  0  0  0
   -1.5713    0.5743   -1.8634 H   0  0  0  0  0  0  0  0  0  0  0  0
   -0.6117    1.9993   -1.3734 H   0  0  0  0  0  0  0  0  0  0  0  0
   -2.6190   -0.9153   -0.4774 H   0  0  0  0  0  0  0  0  0  0  0  0
   -1.9870   -1.2032    1.3031 H   0  0  0  0  0  0  0  0  0  0  0  0
  1  2  1  0
  2  3  1  0
  3  4  1  0
  4  5  1  0
  5  6  1  0
  4  7  1  0
  7  8  1  0
  6  2  1  0
  8  4  1  0
  1  9  1  0
  1 10  1  0
  1 11  1  0
  2 12  1  0
  3 13  1  0
  3 14  1  0
  5 15  1  0
  5 16  1  0
  7 17  1  0
  7 18  1  0
M  END
