
     RDKit          3D

 21 22  0  0  0  0  0  0  0  0999 V2000
    2.7255    0.5370    0.1181 C   0  0  0  0  0  0  0  0  0  0  0  0
    1.4775   -0.3102    0.1840 C   0  0  0  0  0  0  0  0  0  0  0  0
    1.0000   -0.7037   -1.1537 C   0  0  0  0  0  0  0  0  0  0  0  0
   -0.3181   -0.6307   -1.1777 C   0  0  0  0  0  0  0  0  0  0  0  0
   -0.8541   -0.1920    0.1045 C   0  0  0  0  0  0  0  0  0  0  0  0
    0.3253    0.4385    0.8076 C   0  0  0  0  0  0  0  0  0  0  0  0
   -1.9193   -0.8423    0.8480 C   0  0  0  0  0  0  0  0  0  0  0  0
   -2.1823    0.4756    0.1080 C   0  0  0  0  0  0  0  0  0  0  0  0
   -2.9883    0.3567   -0.9941 O   0  0  0  0  0  0  0  0  0  0  0  0
    2.9366    0.8454   -0.9339 H   0  0  0  0  0  0  0  0  0  0  0  0
    2.5797    1.4217    0.7596 H   0  0  0  0  0  0  0  0  0  0  0  0
    3.5987   -0.0143    0.5002 H   0  0  0  0  0  0  0  0  0  0  0  0
    1.7075   -1.2315    0.7535 H   0  0  0  0  0  0  0  0  0  0  0  0
    1.6610   -1.0120   -2.0025 H   0  0  0  0  0  0  0  0  0  0  0  0
   -0.8881   -0.8821   -2.0817 H   0  0  0  0  0  0  0  0  0  0  0  0
    0.2756    0.1412    1.8704 H   0  0  0  0  0  0  0  0  0  0  0  0
    0.3835    1.5253    0.6808 H   0  0  0  0  0  0  0  0  0  0  0  0
   -2.4815   -1.7235    0.5312 H   0  0  0  0  0  0  0  0  0  0  0  0
   -1.8755   -0.7319    1.9710 H   0  0  0  0  0  0  0  0  0  0  0  0
   -2.2304    1.4055    0.7146 H   0  0  0  0  0  0  0  0  0  0  0  0
   -2.9332    1.1273   -1.6077 H   0  0  0  0  0  0  0  0  0  0  0  0
  1  2  1  0
  2  3  1  0
  3  4  2  0
  4  5  1  0
  5  6  1  0
  5  7  1  0
  7  8  1  0
  8  9  1  0
  6  2  1  0
  8  5  1  0
  1 10  1  0
  1 11  1  0
  1 12  1  0
  2 13  1  0
  3 14  1  0
  4 15  1  0
  6 16  1  0
  6 17  1  0
  7 18  1  0
  7 19  1  0
  8 20  1  0
  9 21  1  0
M  END
