
     RDKit          3D

 23 23  0  0  0  0  0  0  0  0999 V2000
    3.3799   -0.2008    0.4753 C   0  0  0  0  0  0  0  0  0  0  0  0
    2.0678    0.4374    0.1102 C   0  0  0  0  0  0  0  0  0  0  0  0
    1.7169    0.3293   -1.3579 C   0  0  0  0  0  0  0  0  0  0  0  0
    0.8826   -0.3583   -0.2519 C   0  0  0  0  0  0  0  0  0  0  0  0
   -0.4673    0.2345   -0.0204 C   0  0  0  0  0  0  0  0  0  0  0  0
   -1.5886   -0.6966   -0.4397 C   0  0  0  0  0  0  0  0  0  0  0  0
   -2.9386   -0.0639   -0.1909 C   0  0  0  0  0  0  0  0  0  0  0  0
   -3.1556    0.2640    1.2321 C   0  0  0  0  0  0  0  0  0  0  0  0
   -4.1956    0.7749    1.5689 O   0  0  0  0  0  0  0  0  0  0  0  0
    3.3436   -0.7100    1.4624 H   0  0  0  0  0  0  0  0  0  0  0  0
    4.1315    0.6217    0.5344 H   0  0  0  0  0  0  0  0  0  0  0  0
    3.7522   -0.8816   -0.3274 H   0  0  0  0  0  0  0  0  0  0  0  0
    1.8879    1.4175    0.6196 H   0  0  0  0  0  0  0  0  0  0  0  0
    1.3029    1.2496   -1.7948 H   0  0  0  0  0  0  0  0  0  0  0  0
    2.3089   -0.3129   -2.0239 H   0  0  0  0  0  0  0  0  0  0  0  0
    0.9603   -1.4742   -0.2869 H   0  0  0  0  0  0  0  0  0  0  0  0
   -0.5865    0.5372    1.0375 H   0  0  0  0  0  0  0  0  0  0  0  0
   -0.6032    1.1668   -0.6350 H   0  0  0  0  0  0  0  0  0  0  0  0
   -1.5197   -0.9848   -1.4954 H   0  0  0  0  0  0  0  0  0  0  0  0
   -1.5302   -1.6070    0.1911 H   0  0  0  0  0  0  0  0  0  0  0  0
   -2.9721    0.9174   -0.7494 H   0  0  0  0  0  0  0  0  0  0  0  0
   -3.7689   -0.7178   -0.5203 H   0  0  0  0  0  0  0  0  0  0  0  0
   -2.4084    0.0576    1.9717 H   0  0  0  0  0  0  0  0  0  0  0  0
  1  2  1  0
  2  3  1  0
  3  4  1  0
  4  5  1  0
  5  6  1  0
  6  7  1  0
  7  8  1  0
  8  9  2  0
  4  2  1  0
  1 10  1  0
  1 11  1  0
  1 12  1  0
  2 13  1  0
  3 14  1  0
  3 15  1  0
  4 16  1  0
  5 17  1  0
  5 18  1  0
  6 19  1  0
  6 20  1  0
  7 21  1  0
  7 22  1  0
  8 23  1  0
M  END
