
     RDKit          3D

 22 22  0  0  0  0  0  0  0  0999 V2000
    1.3898   -1.5166    0.3800 C   0  0  0  0  0  0  0  0  0  0  0  0
    0.6236   -0.2386    0.2983 C   0  0  0  0  0  0  0  0  0  0  0  0
    1.3230    0.7839   -0.6079 C   0  0  0  0  0  0  0  0  0  0  0  0
    0.5444    2.0700   -0.4689 C   0  0  0  0  0  0  0  0  0  0  0  0
   -0.7687    1.9262   -0.8334 O   0  0  0  0  0  0  0  0  0  0  0  0
   -1.4374    0.9690   -0.0808 C   0  0  0  0  0  0  0  0  0  0  0  0
   -0.7638   -0.3934   -0.2644 C   0  0  0  0  0  0  0  0  0  0  0  0
   -1.5678   -1.4551    0.4260 C   0  0  0  0  0  0  0  0  0  0  0  0
    1.3256   -1.9052    1.4090 H   0  0  0  0  0  0  0  0  0  0  0  0
    1.1375   -2.2527   -0.4002 H   0  0  0  0  0  0  0  0  0  0  0  0
    2.4780   -1.2541    0.2309 H   0  0  0  0  0  0  0  0  0  0  0  0
    0.5080    0.2167    1.3149 H   0  0  0  0  0  0  0  0  0  0  0  0
    1.1999    0.4032   -1.6327 H   0  0  0  0  0  0  0  0  0  0  0  0
    2.3434    0.8893   -0.2592 H   0  0  0  0  0  0  0  0  0  0  0  0
    1.0191    2.8350   -1.0927 H   0  0  0  0  0  0  0  0  0  0  0  0
    0.5684    2.4468    0.5767 H   0  0  0  0  0  0  0  0  0  0  0  0
   -1.2645    1.2516    0.9948 H   0  0  0  0  0  0  0  0  0  0  0  0
   -2.4964    0.9438   -0.3210 H   0  0  0  0  0  0  0  0  0  0  0  0
   -0.7707   -0.5832   -1.3586 H   0  0  0  0  0  0  0  0  0  0  0  0
   -1.1724   -2.4518    0.1583 H   0  0  0  0  0  0  0  0  0  0  0  0
   -1.6164   -1.2869    1.5129 H   0  0  0  0  0  0  0  0  0  0  0  0
   -2.6027   -1.3978    0.0179 H   0  0  0  0  0  0  0  0  0  0  0  0
  1  2  1  0
  2  3  1  0
  3  4  1  0
  4  5  1  0
  5  6  1  0
  6  7  1  0
  7  8  1  0
  7  2  1  0
  1  9  1  0
  1 10  1  0
  1 11  1  0
  2 12  1  0
  3 13  1  0
  3 14  1  0
  4 15  1  0
  4 16  1  0
  6 17  1  0
  6 18  1  0
  7 19  1  0
  8 20  1  0
  8 21  1  0
  8 22  1  0
M  END
