
     RDKit          3D

 21 22  0  0  0  0  0  0  0  0999 V2000
   -1.9177   -0.8127   -0.7313 C   0  0  0  0  0  0  0  0  0  0  0  0
   -0.8928   -0.5238    0.3287 C   0  0  0  0  0  0  0  0  0  0  0  0
   -1.5089    0.3617    1.4034 C   0  0  0  0  0  0  0  0  0  0  0  0
   -0.9198    1.5049    0.8342 O   0  0  0  0  0  0  0  0  0  0  0  0
   -0.0618    0.6835    0.1617 C   0  0  0  0  0  0  0  0  0  0  0  0
    1.3877    0.6711    0.3232 C   0  0  0  0  0  0  0  0  0  0  0  0
    2.0470   -0.6701    0.5063 C   0  0  0  0  0  0  0  0  0  0  0  0
    0.7442    1.0289   -0.9792 C   0  0  0  0  0  0  0  0  0  0  0  0
    0.8873    0.2068   -2.0857 O   0  0  0  0  0  0  0  0  0  0  0  0
   -1.4870   -1.1853   -1.6743 H   0  0  0  0  0  0  0  0  0  0  0  0
   -2.5091    0.0863   -0.9520 H   0  0  0  0  0  0  0  0  0  0  0  0
   -2.5546   -1.6534   -0.3268 H   0  0  0  0  0  0  0  0  0  0  0  0
   -0.4279   -1.4056    0.7887 H   0  0  0  0  0  0  0  0  0  0  0  0
   -2.6213    0.3687    1.3901 H   0  0  0  0  0  0  0  0  0  0  0  0
   -1.1051    0.1625    2.4138 H   0  0  0  0  0  0  0  0  0  0  0  0
    1.8576    1.4718    0.9493 H   0  0  0  0  0  0  0  0  0  0  0  0
    3.0736   -0.6304    0.0882 H   0  0  0  0  0  0  0  0  0  0  0  0
    2.1140   -0.9065    1.5965 H   0  0  0  0  0  0  0  0  0  0  0  0
    1.5190   -1.4689   -0.0620 H   0  0  0  0  0  0  0  0  0  0  0  0
    0.8475    2.1193   -1.2400 H   0  0  0  0  0  0  0  0  0  0  0  0
    1.5281    0.5911   -2.7328 H   0  0  0  0  0  0  0  0  0  0  0  0
  1  2  1  0
  2  3  1  0
  3  4  1  0
  4  5  1  0
  5  6  1  0
  6  7  1  0
  6  8  1  0
  8  9  1  0
  5  2  1  0
  8  5  1  0
  1 10  1  0
  1 11  1  0
  1 12  1  0
  2 13  1  0
  3 14  1  0
  3 15  1  0
  6 16  1  0
  7 17  1  0
  7 18  1  0
  7 19  1  0
  8 20  1  0
  9 21  1  0
M  END
