
     RDKit          3D

 23 24  0  0  0  0  0  0  0  0999 V2000
    2.5346   -0.9151   -0.4620 C   0  0  0  0  0  0  0  0  0  0  0  0
    1.1000   -0.3650   -0.5286 C   0  0  0  0  0  0  0  0  0  0  0  0
    0.9798    0.7048    0.4918 C   0  0  0  0  0  0  0  0  0  0  0  0
   -0.0699    1.7431    0.1968 C   0  0  0  0  0  0  0  0  0  0  0  0
   -1.4825    1.1764    0.3195 C   0  0  0  0  0  0  0  0  0  0  0  0
   -1.5125   -0.0762   -0.4717 C   0  0  0  0  0  0  0  0  0  0  0  0
   -2.1931   -1.3034   -0.1043 C   0  0  0  0  0  0  0  0  0  0  0  0
   -0.8426   -1.1506    0.4028 C   0  0  0  0  0  0  0  0  0  0  0  0
    0.3102   -1.5033   -0.2329 O   0  0  0  0  0  0  0  0  0  0  0  0
    2.5430   -1.9594   -0.8706 H   0  0  0  0  0  0  0  0  0  0  0  0
    3.2348   -0.3128   -1.0365 H   0  0  0  0  0  0  0  0  0  0  0  0
    2.8277   -0.9945    0.6238 H   0  0  0  0  0  0  0  0  0  0  0  0
    0.8890   -0.0004   -1.5325 H   0  0  0  0  0  0  0  0  0  0  0  0
    1.9583    1.2715    0.4979 H   0  0  0  0  0  0  0  0  0  0  0  0
    0.8437    0.3527    1.5210 H   0  0  0  0  0  0  0  0  0  0  0  0
    0.0135    2.1928   -0.7926 H   0  0  0  0  0  0  0  0  0  0  0  0
    0.0125    2.5093    1.0043 H   0  0  0  0  0  0  0  0  0  0  0  0
   -1.7358    0.9881    1.3997 H   0  0  0  0  0  0  0  0  0  0  0  0
   -2.1636    1.9560   -0.1085 H   0  0  0  0  0  0  0  0  0  0  0  0
   -1.1500    0.0363   -1.5190 H   0  0  0  0  0  0  0  0  0  0  0  0
   -3.0250   -1.3496    0.6351 H   0  0  0  0  0  0  0  0  0  0  0  0
   -2.3449   -2.0547   -0.9196 H   0  0  0  0  0  0  0  0  0  0  0  0
   -0.7270   -0.9462    1.4863 H   0  0  0  0  0  0  0  0  0  0  0  0
  1  2  1  0
  2  3  1  0
  3  4  1  0
  4  5  1  0
  5  6  1  0
  6  7  1  0
  7  8  1  0
  8  9  1  0
  9  2  1  0
  8  6  1  0
  1 10  1  0
  1 11  1  0
  1 12  1  0
  2 13  1  0
  3 14  1  0
  3 15  1  0
  4 16  1  0
  4 17  1  0
  5 18  1  0
  5 19  1  0
  6 20  1  0
  7 21  1  0
  7 22  1  0
  8 23  1  0
M  END
