
     RDKit          3D

 18 19  0  0  0  0  0  0  0  0999 V2000
   -2.0383    0.1195   -0.3364 C   0  0  0  0  0  0  0  0  0  0  0  0
   -0.7565   -0.6045   -0.1995 C   0  0  0  0  0  0  0  0  0  0  0  0
    0.4722    0.0625   -0.7773 C   0  0  0  0  0  0  0  0  0  0  0  0
    0.4704    1.3849   -0.0972 C   0  0  0  0  0  0  0  0  0  0  0  0
    0.1502    1.0001    1.2311 O   0  0  0  0  0  0  0  0  0  0  0  0
    0.0049   -0.3559    1.1132 C   0  0  0  0  0  0  0  0  0  0  0  0
    1.2148   -0.7878    0.2665 C   0  0  0  0  0  0  0  0  0  0  0  0
    2.4088   -0.2573    0.6913 O   0  0  0  0  0  0  0  0  0  0  0  0
   -2.8709   -0.6398   -0.2496 H   0  0  0  0  0  0  0  0  0  0  0  0
   -2.1383    0.4979   -1.3955 H   0  0  0  0  0  0  0  0  0  0  0  0
   -2.2501    0.8832    0.4113 H   0  0  0  0  0  0  0  0  0  0  0  0
   -0.7441   -1.6888   -0.4191 H   0  0  0  0  0  0  0  0  0  0  0  0
    0.7207   -0.0614   -1.7900 H   0  0  0  0  0  0  0  0  0  0  0  0
   -0.2292    2.1215   -0.4924 H   0  0  0  0  0  0  0  0  0  0  0  0
    1.5044    1.8358   -0.0649 H   0  0  0  0  0  0  0  0  0  0  0  0
   -0.2470   -0.9665    1.9428 H   0  0  0  0  0  0  0  0  0  0  0  0
    1.1960   -1.8364   -0.0420 H   0  0  0  0  0  0  0  0  0  0  0  0
    3.1321   -0.7069    0.2077 H   0  0  0  0  0  0  0  0  0  0  0  0
  1  2  1  0
  2  3  1  0
  3  4  1  0
  4  5  1  0
  5  6  1  0
  6  7  1  0
  7  8  1  0
  6  2  1  0
  7  3  1  0
  1  9  1  0
  1 10  1  0
  1 11  1  0
  2 12  1  0
  3 13  1  0
  4 14  1  0
  4 15  1  0
  6 16  1  0
  7 17  1  0
  8 18  1  0
M  END
