
     RDKit          3D

 17 17  0  0  0  0  0  0  0  0999 V2000
   -1.9872    0.3207   -0.2881 C   0  0  0  0  0  0  0  0  0  0  0  0
   -0.5243    0.3084   -0.0902 C   0  0  0  0  0  0  0  0  0  0  0  0
   -0.0935    0.1919    1.3585 C   0  0  0  0  0  0  0  0  0  0  0  0
    1.2892    0.5391    1.4453 O   0  0  0  0  0  0  0  0  0  0  0  0
    2.1188    0.3713    0.3394 C   0  0  0  0  0  0  0  0  0  0  0  0
    3.2368    0.9793    0.2450 O   0  0  0  0  0  0  0  0  0  0  0  0
    1.6392   -0.5336   -0.6983 C   0  0  0  0  0  0  0  0  0  0  0  0
    2.4920   -1.0606   -1.4789 O   0  0  0  0  0  0  0  0  0  0  0  0
    0.1789   -0.8282   -0.8328 C   0  0  0  0  0  0  0  0  0  0  0  0
   -2.2875    1.3453   -0.6541 H   0  0  0  0  0  0  0  0  0  0  0  0
   -2.3882   -0.4010   -1.0013 H   0  0  0  0  0  0  0  0  0  0  0  0
   -2.4868    0.2463    0.7219 H   0  0  0  0  0  0  0  0  0  0  0  0
   -0.0395    1.2394   -0.4843 H   0  0  0  0  0  0  0  0  0  0  0  0
   -0.7272    0.8405    1.9668 H   0  0  0  0  0  0  0  0  0  0  0  0
   -0.2341   -0.8995    1.6138 H   0  0  0  0  0  0  0  0  0  0  0  0
   -0.1337   -0.8985   -1.8796 H   0  0  0  0  0  0  0  0  0  0  0  0
   -0.0529   -1.7607   -0.2831 H   0  0  0  0  0  0  0  0  0  0  0  0
  1  2  1  0
  2  3  1  0
  3  4  1  0
  4  5  1  0
  5  6  2  0
  5  7  1  0
  7  8  2  0
  7  9  1  0
  9  2  1  0
  1 10  1  0
  1 11  1  0
  1 12  1  0
  2 13  1  0
  3 14  1  0
  3 15  1  0
  9 16  1  0
  9 17  1  0
M  END
