
     RDKit          3D

 23 24  0  0  0  0  0  0  0  0999 V2000
    2.4130    0.0932    0.2780 C   0  0  0  0  0  0  0  0  0  0  0  0
    0.9091   -0.0905    0.3863 C   0  0  0  0  0  0  0  0  0  0  0  0
    0.4385   -1.3599   -0.2718 C   0  0  0  0  0  0  0  0  0  0  0  0
   -0.9615   -1.6369    0.2079 C   0  0  0  0  0  0  0  0  0  0  0  0
   -1.9298   -0.8984   -0.3728 O   0  0  0  0  0  0  0  0  0  0  0  0
   -1.8065    0.4357   -0.4299 C   0  0  0  0  0  0  0  0  0  0  0  0
   -1.1773    1.0972    0.7655 C   0  0  0  0  0  0  0  0  0  0  0  0
    0.1371    1.1139   -0.0264 C   0  0  0  0  0  0  0  0  0  0  0  0
   -0.6693    0.9549   -1.2662 C   0  0  0  0  0  0  0  0  0  0  0  0
    2.6451    1.0010    0.9042 H   0  0  0  0  0  0  0  0  0  0  0  0
    2.7512    0.2854   -0.7448 H   0  0  0  0  0  0  0  0  0  0  0  0
    2.8868   -0.7874    0.7557 H   0  0  0  0  0  0  0  0  0  0  0  0
    0.7167   -0.2411    1.4908 H   0  0  0  0  0  0  0  0  0  0  0  0
    0.5683   -1.3936   -1.3469 H   0  0  0  0  0  0  0  0  0  0  0  0
    1.0810   -2.1865    0.1532 H   0  0  0  0  0  0  0  0  0  0  0  0
   -1.1553   -2.7211   -0.0503 H   0  0  0  0  0  0  0  0  0  0  0  0
   -0.9293   -1.6133    1.3184 H   0  0  0  0  0  0  0  0  0  0  0  0
   -2.7716    0.9380   -0.6630 H   0  0  0  0  0  0  0  0  0  0  0  0
   -1.1476    0.5288    1.6929 H   0  0  0  0  0  0  0  0  0  0  0  0
   -1.4923    2.1662    0.8944 H   0  0  0  0  0  0  0  0  0  0  0  0
    0.7178    2.0350    0.0737 H   0  0  0  0  0  0  0  0  0  0  0  0
   -0.2979    0.3122   -2.0565 H   0  0  0  0  0  0  0  0  0  0  0  0
   -0.9261    1.9672   -1.6926 H   0  0  0  0  0  0  0  0  0  0  0  0
  1  2  1  0
  2  3  1  0
  3  4  1  0
  4  5  1  0
  5  6  1  0
  6  7  1  0
  7  8  1  0
  8  9  1  0
  8  2  1  0
  9  6  1  0
  1 10  1  0
  1 11  1  0
  1 12  1  0
  2 13  1  0
  3 14  1  0
  3 15  1  0
  4 16  1  0
  4 17  1  0
  6 18  1  0
  7 19  1  0
  7 20  1  0
  8 21  1  0
  9 22  1  0
  9 23  1  0
M  END
