
     RDKit          3D

 18 19  0  0  0  0  0  0  0  0999 V2000
    2.5505    0.8106    0.1288 C   0  0  0  0  0  0  0  0  0  0  0  0
    1.1983    0.5166   -0.5173 C   0  0  0  0  0  0  0  0  0  0  0  0
   -0.0562    0.7606    0.1921 C   0  0  0  0  0  0  0  0  0  0  0  0
   -1.1916    0.9637   -0.5579 O   0  0  0  0  0  0  0  0  0  0  0  0
   -2.2129    0.0876   -0.3202 C   0  0  0  0  0  0  0  0  0  0  0  0
   -1.6351   -1.2601    0.0817 C   0  0  0  0  0  0  0  0  0  0  0  0
   -0.4303   -1.3844   -0.6537 O   0  0  0  0  0  0  0  0  0  0  0  0
    0.5051   -0.6465    0.0414 C   0  0  0  0  0  0  0  0  0  0  0  0
    2.4192    1.2527    1.1279 H   0  0  0  0  0  0  0  0  0  0  0  0
    3.2216    1.3679   -0.5355 H   0  0  0  0  0  0  0  0  0  0  0  0
    3.0546   -0.1842    0.3076 H   0  0  0  0  0  0  0  0  0  0  0  0
    1.2027    0.7356   -1.6065 H   0  0  0  0  0  0  0  0  0  0  0  0
   -0.1220    1.0855    1.2457 H   0  0  0  0  0  0  0  0  0  0  0  0
   -2.8715    0.5101    0.4741 H   0  0  0  0  0  0  0  0  0  0  0  0
   -2.8252   -0.1202   -1.2440 H   0  0  0  0  0  0  0  0  0  0  0  0
   -2.2840   -2.0902   -0.2014 H   0  0  0  0  0  0  0  0  0  0  0  0
   -1.4314   -1.2477    1.1722 H   0  0  0  0  0  0  0  0  0  0  0  0
    0.9083   -1.1576    0.9411 H   0  0  0  0  0  0  0  0  0  0  0  0
  1  2  1  0
  2  3  1  0
  3  4  1  0
  4  5  1  0
  5  6  1  0
  6  7  1  0
  7  8  1  0
  8  2  1  0
  8  3  1  0
  1  9  1  0
  1 10  1  0
  1 11  1  0
  2 12  1  0
  3 13  1  0
  5 14  1  0
  5 15  1  0
  6 16  1  0
  6 17  1  0
  8 18  1  0
M  END
