
     RDKit          3D

 23 24  0  0  0  0  0  0  0  0999 V2000
   -1.6733    1.3861   -0.1554 C   0  0  0  0  0  0  0  0  0  0  0  0
   -0.9151    0.1251    0.1580 C   0  0  0  0  0  0  0  0  0  0  0  0
   -1.0568   -0.9713   -0.9059 C   0  0  0  0  0  0  0  0  0  0  0  0
   -0.2483   -2.0783   -0.3127 C   0  0  0  0  0  0  0  0  0  0  0  0
    0.9656   -1.2631    0.1821 C   0  0  0  0  0  0  0  0  0  0  0  0
    0.5266    0.1069   -0.2594 C   0  0  0  0  0  0  0  0  0  0  0  0
    1.3752    1.2487   -0.0202 C   0  0  0  0  0  0  0  0  0  0  0  0
    1.4434    1.5227    1.3457 O   0  0  0  0  0  0  0  0  0  0  0  0
    0.0178   -0.1734   -1.6587 C   0  0  0  0  0  0  0  0  0  0  0  0
   -1.1936    2.0138   -0.9235 H   0  0  0  0  0  0  0  0  0  0  0  0
   -2.6645    1.0806   -0.5713 H   0  0  0  0  0  0  0  0  0  0  0  0
   -1.8809    1.9252    0.7858 H   0  0  0  0  0  0  0  0  0  0  0  0
   -1.0236   -0.2267    1.1885 H   0  0  0  0  0  0  0  0  0  0  0  0
   -1.9909   -1.1228   -1.3618 H   0  0  0  0  0  0  0  0  0  0  0  0
    0.0632   -2.8163   -1.0746 H   0  0  0  0  0  0  0  0  0  0  0  0
   -0.7928   -2.5134    0.5400 H   0  0  0  0  0  0  0  0  0  0  0  0
    0.9667   -1.2756    1.2848 H   0  0  0  0  0  0  0  0  0  0  0  0
    1.8884   -1.6094   -0.2839 H   0  0  0  0  0  0  0  0  0  0  0  0
    1.0971    2.1945   -0.5228 H   0  0  0  0  0  0  0  0  0  0  0  0
    2.4285    1.0484   -0.3356 H   0  0  0  0  0  0  0  0  0  0  0  0
    2.3524    1.5552    1.6986 H   0  0  0  0  0  0  0  0  0  0  0  0
    0.6687   -0.8391   -2.2618 H   0  0  0  0  0  0  0  0  0  0  0  0
   -0.3539    0.6820   -2.2210 H   0  0  0  0  0  0  0  0  0  0  0  0
  1  2  1  0
  2  3  1  0
  3  4  1  0
  4  5  1  0
  5  6  1  0
  6  7  1  0
  7  8  1  0
  6  9  1  0
  6  2  1  0
  9  3  1  0
  1 10  1  0
  1 11  1  0
  1 12  1  0
  2 13  1  0
  3 14  1  0
  4 15  1  0
  4 16  1  0
  5 17  1  0
  5 18  1  0
  7 19  1  0
  7 20  1  0
  8 21  1  0
  9 22  1  0
  9 23  1  0
M  END
