
     RDKit          3D

 19 20  0  0  0  0  0  0  0  0999 V2000
    1.5670    1.0012   -0.3897 C   0  0  0  0  0  0  0  0  0  0  0  0
    0.9546   -0.3238   -0.0769 C   0  0  0  0  0  0  0  0  0  0  0  0
   -0.1864   -0.7496   -0.9903 C   0  0  0  0  0  0  0  0  0  0  0  0
   -1.1234    0.4290   -1.0034 C   0  0  0  0  0  0  0  0  0  0  0  0
   -1.0035    0.8030    0.4609 C   0  0  0  0  0  0  0  0  0  0  0  0
   -1.4898    1.7506    1.0350 O   0  0  0  0  0  0  0  0  0  0  0  0
   -0.1557   -0.2744    0.9790 C   0  0  0  0  0  0  0  0  0  0  0  0
    0.1636   -0.3783    2.2527 O   0  0  0  0  0  0  0  0  0  0  0  0
   -0.6957   -1.5098    0.2436 C   0  0  0  0  0  0  0  0  0  0  0  0
    2.2316    0.8876   -1.2491 H   0  0  0  0  0  0  0  0  0  0  0  0
    2.2069    1.2851    0.4783 H   0  0  0  0  0  0  0  0  0  0  0  0
    0.8403    1.7973   -0.6313 H   0  0  0  0  0  0  0  0  0  0  0  0
    1.7109   -1.0891    0.0791 H   0  0  0  0  0  0  0  0  0  0  0  0
    0.0209   -1.2957   -1.8650 H   0  0  0  0  0  0  0  0  0  0  0  0
   -2.1586    0.0579   -1.1489 H   0  0  0  0  0  0  0  0  0  0  0  0
   -0.8292    1.2394   -1.6614 H   0  0  0  0  0  0  0  0  0  0  0  0
   -0.1287    0.3643    2.8553 H   0  0  0  0  0  0  0  0  0  0  0  0
   -1.7847   -1.5630    0.1988 H   0  0  0  0  0  0  0  0  0  0  0  0
   -0.1402   -2.4318    0.4332 H   0  0  0  0  0  0  0  0  0  0  0  0
  1  2  1  0
  2  3  1  0
  3  4  1  0
  4  5  1  0
  5  6  2  0
  5  7  1  0
  7  8  1  0
  7  9  1  0
  7  2  1  0
  9  3  1  0
  1 10  1  0
  1 11  1  0
  1 12  1  0
  2 13  1  0
  3 14  1  0
  4 15  1  0
  4 16  1  0
  8 17  1  0
  9 18  1  0
  9 19  1  0
M  END
