
     RDKit          3D

 21 21  0  0  0  0  0  0  0  0999 V2000
    2.6017   -0.0191    0.0201 C   0  0  0  0  0  0  0  0  0  0  0  0
    1.2669   -0.2628   -0.6739 C   0  0  0  0  0  0  0  0  0  0  0  0
    0.3800   -0.9563    0.3431 C   0  0  0  0  0  0  0  0  0  0  0  0
   -0.9313   -1.2322   -0.3433 C   0  0  0  0  0  0  0  0  0  0  0  0
   -1.9683   -0.2121   -0.1208 C   0  0  0  0  0  0  0  0  0  0  0  0
   -1.5388    1.1651    0.1350 C   0  0  0  0  0  0  0  0  0  0  0  0
   -0.3376    1.6420   -0.5197 C   0  0  0  0  0  0  0  0  0  0  0  0
   -0.2615    2.9209   -0.5368 O   0  0  0  0  0  0  0  0  0  0  0  0
    0.7144    0.9529   -1.1148 O   0  0  0  0  0  0  0  0  0  0  0  0
    3.1956    0.7563   -0.5197 H   0  0  0  0  0  0  0  0  0  0  0  0
    3.1445   -0.9496    0.1683 H   0  0  0  0  0  0  0  0  0  0  0  0
    2.3366    0.3642    1.0407 H   0  0  0  0  0  0  0  0  0  0  0  0
    1.4466   -0.9137   -1.5606 H   0  0  0  0  0  0  0  0  0  0  0  0
    0.8697   -1.8846    0.6575 H   0  0  0  0  0  0  0  0  0  0  0  0
    0.2472   -0.2240    1.1861 H   0  0  0  0  0  0  0  0  0  0  0  0
   -0.7698   -1.3374   -1.4520 H   0  0  0  0  0  0  0  0  0  0  0  0
   -1.2810   -2.2260    0.0050 H   0  0  0  0  0  0  0  0  0  0  0  0
   -2.6818   -0.2254   -0.9960 H   0  0  0  0  0  0  0  0  0  0  0  0
   -2.6123   -0.5514    0.7441 H   0  0  0  0  0  0  0  0  0  0  0  0
   -1.4393    1.3332    1.2471 H   0  0  0  0  0  0  0  0  0  0  0  0
   -2.3812    1.8598   -0.1583 H   0  0  0  0  0  0  0  0  0  0  0  0
  1  2  1  0
  2  3  1  0
  3  4  1  0
  4  5  1  0
  5  6  1  0
  6  7  1  0
  7  8  2  0
  7  9  1  0
  9  2  1  0
  1 10  1  0
  1 11  1  0
  1 12  1  0
  2 13  1  0
  3 14  1  0
  3 15  1  0
  4 16  1  0
  4 17  1  0
  5 18  1  0
  5 19  1  0
  6 20  1  0
  6 21  1  0
M  END
