
     RDKit          3D

 25 25  0  0  0  0  0  0  0  0999 V2000
   -2.2313    0.4418   -1.2942 C   0  0  0  0  0  0  0  0  0  0  0  0
   -0.9428    0.5038   -0.4779 C   0  0  0  0  0  0  0  0  0  0  0  0
   -1.1885    0.4261    0.9754 C   0  0  0  0  0  0  0  0  0  0  0  0
   -0.4973   -0.6342    1.7319 C   0  0  0  0  0  0  0  0  0  0  0  0
    0.8153   -1.1027    1.2104 C   0  0  0  0  0  0  0  0  0  0  0  0
    1.1767   -0.6481   -0.1500 C   0  0  0  0  0  0  0  0  0  0  0  0
    1.9878    0.6314   -0.1608 C   0  0  0  0  0  0  0  0  0  0  0  0
    2.3051    1.0218   -1.4611 O   0  0  0  0  0  0  0  0  0  0  0  0
   -0.0356   -0.5707   -1.0153 C   0  0  0  0  0  0  0  0  0  0  0  0
   -3.0889    0.2879   -0.5759 H   0  0  0  0  0  0  0  0  0  0  0  0
   -2.2536   -0.4228   -1.9736 H   0  0  0  0  0  0  0  0  0  0  0  0
   -2.4447    1.3676   -1.8263 H   0  0  0  0  0  0  0  0  0  0  0  0
   -0.4599    1.4855   -0.7639 H   0  0  0  0  0  0  0  0  0  0  0  0
   -0.9750    1.4395    1.4303 H   0  0  0  0  0  0  0  0  0  0  0  0
   -2.3061    0.3219    1.1232 H   0  0  0  0  0  0  0  0  0  0  0  0
   -1.1957   -1.4880    1.8814 H   0  0  0  0  0  0  0  0  0  0  0  0
   -0.3112   -0.2441    2.7784 H   0  0  0  0  0  0  0  0  0  0  0  0
    0.8256   -2.2336    1.2174 H   0  0  0  0  0  0  0  0  0  0  0  0
    1.6766   -0.8308    1.8914 H   0  0  0  0  0  0  0  0  0  0  0  0
    1.8474   -1.4269   -0.6229 H   0  0  0  0  0  0  0  0  0  0  0  0
    1.3890    1.4722    0.2718 H   0  0  0  0  0  0  0  0  0  0  0  0
    2.9258    0.5464    0.3916 H   0  0  0  0  0  0  0  0  0  0  0  0
    3.2055    1.4362   -1.5150 H   0  0  0  0  0  0  0  0  0  0  0  0
   -0.5222   -1.5485   -1.0306 H   0  0  0  0  0  0  0  0  0  0  0  0
    0.2978   -0.2316   -2.0354 H   0  0  0  0  0  0  0  0  0  0  0  0
  1  2  1  0
  2  3  1  0
  3  4  1  0
  4  5  1  0
  5  6  1  0
  6  7  1  0
  7  8  1  0
  6  9  1  0
  9  2  1  0
  1 10  1  0
  1 11  1  0
  1 12  1  0
  2 13  1  0
  3 14  1  0
  3 15  1  0
  4 16  1  0
  4 17  1  0
  5 18  1  0
  5 19  1  0
  6 20  1  0
  7 21  1  0
  7 22  1  0
  8 23  1  0
  9 24  1  0
  9 25  1  0
M  END
