
     RDKit          3D

 21 21  0  0  0  0  0  0  0  0999 V2000
   -2.3620    0.3978    0.3071 C   0  0  0  0  0  0  0  0  0  0  0  0
   -1.2600    0.1000   -0.7096 C   0  0  0  0  0  0  0  0  0  0  0  0
   -0.3562    1.2697   -0.8602 C   0  0  0  0  0  0  0  0  0  0  0  0
    1.0038    1.1041   -0.3298 C   0  0  0  0  0  0  0  0  0  0  0  0
    1.5865   -0.0522   -0.2228 C   0  0  0  0  0  0  0  0  0  0  0  0
    2.9322   -0.1957    0.3042 C   0  0  0  0  0  0  0  0  0  0  0  0
    3.6028    0.8151    0.6867 O   0  0  0  0  0  0  0  0  0  0  0  0
    0.8538   -1.2594   -0.6514 C   0  0  0  0  0  0  0  0  0  0  0  0
   -0.6156   -1.1778   -0.3080 C   0  0  0  0  0  0  0  0  0  0  0  0
   -1.8399    0.5072    1.2952 H   0  0  0  0  0  0  0  0  0  0  0  0
   -2.9295    1.3056    0.0387 H   0  0  0  0  0  0  0  0  0  0  0  0
   -3.0010   -0.5173    0.3380 H   0  0  0  0  0  0  0  0  0  0  0  0
   -1.7698   -0.0494   -1.7063 H   0  0  0  0  0  0  0  0  0  0  0  0
   -0.8456    2.1574   -0.3710 H   0  0  0  0  0  0  0  0  0  0  0  0
   -0.2405    1.5915   -1.9374 H   0  0  0  0  0  0  0  0  0  0  0  0
    1.5297    1.9946   -0.0189 H   0  0  0  0  0  0  0  0  0  0  0  0
    3.4189   -1.1423    0.3957 H   0  0  0  0  0  0  0  0  0  0  0  0
    0.9345   -1.3282   -1.7468 H   0  0  0  0  0  0  0  0  0  0  0  0
    1.2674   -2.1306   -0.1143 H   0  0  0  0  0  0  0  0  0  0  0  0
   -0.7843   -1.3758    0.7894 H   0  0  0  0  0  0  0  0  0  0  0  0
   -1.1250   -2.0144   -0.8282 H   0  0  0  0  0  0  0  0  0  0  0  0
  1  2  1  0
  2  3  1  0
  3  4  1  0
  4  5  2  0
  5  6  1  0
  6  7  2  0
  5  8  1  0
  8  9  1  0
  9  2  1  0
  1 10  1  0
  1 11  1  0
  1 12  1  0
  2 13  1  0
  3 14  1  0
  3 15  1  0
  4 16  1  0
  6 17  1  0
  8 18  1  0
  8 19  1  0
  9 20  1  0
  9 21  1  0
M  END
