
     RDKit          3D

 18 19  0  0  0  0  0  0  0  0999 V2000
    2.5078    0.2911   -0.0281 C   0  0  0  0  0  0  0  0  0  0  0  0
    1.2114   -0.0762    0.6165 C   0  0  0  0  0  0  0  0  0  0  0  0
    0.7039   -1.4385    0.3098 C   0  0  0  0  0  0  0  0  0  0  0  0
    1.2190   -2.5362    0.4569 O   0  0  0  0  0  0  0  0  0  0  0  0
   -0.5744   -0.9296   -0.2020 C   0  0  0  0  0  0  0  0  0  0  0  0
   -1.3088    0.0748    0.6256 C   0  0  0  0  0  0  0  0  0  0  0  0
   -2.5831    0.6743    0.1337 C   0  0  0  0  0  0  0  0  0  0  0  0
   -0.0318    0.4855   -0.0049 C   0  0  0  0  0  0  0  0  0  0  0  0
    2.7416    1.3360    0.2477 H   0  0  0  0  0  0  0  0  0  0  0  0
    2.5659    0.1010   -1.1020 H   0  0  0  0  0  0  0  0  0  0  0  0
    3.3046   -0.3318    0.4563 H   0  0  0  0  0  0  0  0  0  0  0  0
    1.2342    0.1350    1.6928 H   0  0  0  0  0  0  0  0  0  0  0  0
   -0.9798   -1.2221   -1.1686 H   0  0  0  0  0  0  0  0  0  0  0  0
   -1.2672   -0.1033    1.7248 H   0  0  0  0  0  0  0  0  0  0  0  0
   -2.6262    0.7712   -0.9527 H   0  0  0  0  0  0  0  0  0  0  0  0
   -3.4246    0.0512    0.5237 H   0  0  0  0  0  0  0  0  0  0  0  0
   -2.7009    1.6667    0.6559 H   0  0  0  0  0  0  0  0  0  0  0  0
    0.0085    1.0508   -0.9515 H   0  0  0  0  0  0  0  0  0  0  0  0
  1  2  1  0
  2  3  1  0
  3  4  2  0
  3  5  1  0
  5  6  1  0
  6  7  1  0
  6  8  1  0
  8  2  1  0
  8  5  1  0
  1  9  1  0
  1 10  1  0
  1 11  1  0
  2 12  1  0
  5 13  1  0
  6 14  1  0
  7 15  1  0
  7 16  1  0
  7 17  1  0
  8 18  1  0
M  END
