
     RDKit          3D

 19 21  0  0  0  0  0  0  0  0999 V2000
   -2.0966    0.1455    0.2338 C   0  0  0  0  0  0  0  0  0  0  0  0
   -0.8316   -0.1140   -0.5551 C   0  0  0  0  0  0  0  0  0  0  0  0
    0.0250    1.1490   -0.6660 C   0  0  0  0  0  0  0  0  0  0  0  0
    1.5027    0.9373   -0.7392 C   0  0  0  0  0  0  0  0  0  0  0  0
    2.0076   -0.2793   -1.0985 O   0  0  0  0  0  0  0  0  0  0  0  0
    1.3541   -1.2830   -0.4378 C   0  0  0  0  0  0  0  0  0  0  0  0
    0.2331   -0.6638    0.3666 C   0  0  0  0  0  0  0  0  0  0  0  0
   -0.1770   -1.3183    1.4843 O   0  0  0  0  0  0  0  0  0  0  0  0
    0.7585    0.7329    0.5099 C   0  0  0  0  0  0  0  0  0  0  0  0
   -2.3955    1.1968    0.0212 H   0  0  0  0  0  0  0  0  0  0  0  0
   -1.9303    0.0561    1.3357 H   0  0  0  0  0  0  0  0  0  0  0  0
   -2.9163   -0.5453   -0.0612 H   0  0  0  0  0  0  0  0  0  0  0  0
   -0.9614   -0.6264   -1.5127 H   0  0  0  0  0  0  0  0  0  0  0  0
   -0.4435    2.1163   -0.7938 H   0  0  0  0  0  0  0  0  0  0  0  0
    2.1056    1.8174   -0.9459 H   0  0  0  0  0  0  0  0  0  0  0  0
    2.0308   -1.8184    0.2730 H   0  0  0  0  0  0  0  0  0  0  0  0
    0.9084   -2.0133   -1.1279 H   0  0  0  0  0  0  0  0  0  0  0  0
   -0.0672   -0.7282    2.2763 H   0  0  0  0  0  0  0  0  0  0  0  0
    0.8936    1.2385    1.4373 H   0  0  0  0  0  0  0  0  0  0  0  0
  1  2  1  0
  2  3  1  0
  3  4  1  0
  4  5  1  0
  5  6  1  0
  6  7  1  0
  7  8  1  0
  7  9  1  0
  7  2  1  0
  9  3  1  0
  9  4  1  0
  1 10  1  0
  1 11  1  0
  1 12  1  0
  2 13  1  0
  3 14  1  0
  4 15  1  0
  6 16  1  0
  6 17  1  0
  8 18  1  0
  9 19  1  0
M  END
