
     RDKit          3D

 23 24  0  0  0  0  0  0  0  0999 V2000
    2.3826    0.7696   -0.1910 C   0  0  0  0  0  0  0  0  0  0  0  0
    1.2826   -0.2013    0.0478 C   0  0  0  0  0  0  0  0  0  0  0  0
    0.2084    0.2337    1.0283 C   0  0  0  0  0  0  0  0  0  0  0  0
   -0.7097   -0.9457    1.0370 C   0  0  0  0  0  0  0  0  0  0  0  0
   -0.7058   -1.2829   -0.4685 C   0  0  0  0  0  0  0  0  0  0  0  0
   -0.0928   -2.5107   -0.6701 O   0  0  0  0  0  0  0  0  0  0  0  0
    0.1197   -0.1220   -0.9564 C   0  0  0  0  0  0  0  0  0  0  0  0
   -0.3523    1.0468   -0.1471 C   0  0  0  0  0  0  0  0  0  0  0  0
   -1.8074    1.2912   -0.0598 C   0  0  0  0  0  0  0  0  0  0  0  0
    2.8334    1.1844    0.7381 H   0  0  0  0  0  0  0  0  0  0  0  0
    2.1343    1.6064   -0.8608 H   0  0  0  0  0  0  0  0  0  0  0  0
    3.2177    0.2143   -0.6936 H   0  0  0  0  0  0  0  0  0  0  0  0
    1.6584   -1.2209    0.2196 H   0  0  0  0  0  0  0  0  0  0  0  0
    0.4753    0.7435    1.9081 H   0  0  0  0  0  0  0  0  0  0  0  0
   -0.3442   -1.7891    1.6368 H   0  0  0  0  0  0  0  0  0  0  0  0
   -1.7346   -0.6195    1.3053 H   0  0  0  0  0  0  0  0  0  0  0  0
   -1.7065   -1.3280   -0.8826 H   0  0  0  0  0  0  0  0  0  0  0  0
   -0.8117   -3.2184   -0.7195 H   0  0  0  0  0  0  0  0  0  0  0  0
    0.3599   -0.0205   -1.9795 H   0  0  0  0  0  0  0  0  0  0  0  0
    0.2147    1.9770   -0.2784 H   0  0  0  0  0  0  0  0  0  0  0  0
   -2.0720    2.2360   -0.5964 H   0  0  0  0  0  0  0  0  0  0  0  0
   -2.4624    0.5136   -0.4403 H   0  0  0  0  0  0  0  0  0  0  0  0
   -2.0875    1.4426    1.0228 H   0  0  0  0  0  0  0  0  0  0  0  0
  1  2  1  0
  2  3  1  0
  3  4  1  0
  4  5  1  0
  5  6  1  0
  5  7  1  0
  7  8  1  0
  8  9  1  0
  7  2  1  0
  8  3  1  0
  1 10  1  0
  1 11  1  0
  1 12  1  0
  2 13  1  0
  3 14  1  0
  4 15  1  0
  4 16  1  0
  5 17  1  0
  6 18  1  0
  7 19  1  0
  8 20  1  0
  9 21  1  0
  9 22  1  0
  9 23  1  0
M  END
