
     RDKit          3D

 19 20  0  0  0  0  0  0  0  0999 V2000
   -2.2907   -0.9598    0.0697 C   0  0  0  0  0  0  0  0  0  0  0  0
   -1.5311    0.3198    0.0263 C   0  0  0  0  0  0  0  0  0  0  0  0
   -0.3265    0.3615    0.9826 C   0  0  0  0  0  0  0  0  0  0  0  0
    0.5025    0.6002   -0.2586 C   0  0  0  0  0  0  0  0  0  0  0  0
    1.9761    0.5155   -0.2189 C   0  0  0  0  0  0  0  0  0  0  0  0
    2.5158   -0.7870    0.1909 C   0  0  0  0  0  0  0  0  0  0  0  0
    3.7292   -0.9144    0.2416 O   0  0  0  0  0  0  0  0  0  0  0  0
    0.0720    1.7888   -1.0114 O   0  0  0  0  0  0  0  0  0  0  0  0
   -0.4931    0.4130   -1.0926 C   0  0  0  0  0  0  0  0  0  0  0  0
   -1.7560   -1.7857   -0.4640 H   0  0  0  0  0  0  0  0  0  0  0  0
   -3.2438   -0.8171   -0.4707 H   0  0  0  0  0  0  0  0  0  0  0  0
   -2.5635   -1.2692    1.1084 H   0  0  0  0  0  0  0  0  0  0  0  0
   -2.1582    1.2158    0.1433 H   0  0  0  0  0  0  0  0  0  0  0  0
   -0.2972    1.2499    1.6277 H   0  0  0  0  0  0  0  0  0  0  0  0
   -0.0776   -0.6002    1.4238 H   0  0  0  0  0  0  0  0  0  0  0  0
    2.4686    0.8280   -1.1588 H   0  0  0  0  0  0  0  0  0  0  0  0
    2.3364    1.2632    0.5498 H   0  0  0  0  0  0  0  0  0  0  0  0
    1.9006   -1.6490    0.4531 H   0  0  0  0  0  0  0  0  0  0  0  0
   -0.7635    0.2269   -2.1143 H   0  0  0  0  0  0  0  0  0  0  0  0
  1  2  1  0
  2  3  1  0
  3  4  1  0
  4  5  1  0
  5  6  1  0
  6  7  2  0
  4  8  1  0
  8  9  1  0
  9  2  1  0
  9  4  1  0
  1 10  1  0
  1 11  1  0
  1 12  1  0
  2 13  1  0
  3 14  1  0
  3 15  1  0
  5 16  1  0
  5 17  1  0
  6 18  1  0
  9 19  1  0
M  END
