
     RDKit          3D

 19 20  0  0  0  0  0  0  0  0999 V2000
   -1.8371    0.8835    0.5449 C   0  0  0  0  0  0  0  0  0  0  0  0
   -1.0861   -0.4324    0.7960 C   0  0  0  0  0  0  0  0  0  0  0  0
    0.3108   -0.0242    1.1421 C   0  0  0  0  0  0  0  0  0  0  0  0
    0.6071    0.4719    2.1976 O   0  0  0  0  0  0  0  0  0  0  0  0
    1.1816   -0.3297    0.0153 C   0  0  0  0  0  0  0  0  0  0  0  0
    2.0111    0.8163   -0.4749 C   0  0  0  0  0  0  0  0  0  0  0  0
    0.3000   -0.9140   -1.0626 C   0  0  0  0  0  0  0  0  0  0  0  0
   -0.1657   -2.2001   -0.7293 O   0  0  0  0  0  0  0  0  0  0  0  0
   -1.0285   -1.1620   -0.4970 C   0  0  0  0  0  0  0  0  0  0  0  0
   -2.7132    0.7105   -0.1300 H   0  0  0  0  0  0  0  0  0  0  0  0
   -2.1272    1.3581    1.4812 H   0  0  0  0  0  0  0  0  0  0  0  0
   -1.1588    1.5691   -0.0034 H   0  0  0  0  0  0  0  0  0  0  0  0
   -1.5587   -1.0069    1.6234 H   0  0  0  0  0  0  0  0  0  0  0  0
    1.9000   -1.1508    0.2948 H   0  0  0  0  0  0  0  0  0  0  0  0
    2.5278    0.4470   -1.4087 H   0  0  0  0  0  0  0  0  0  0  0  0
    1.4340    1.7178   -0.7112 H   0  0  0  0  0  0  0  0  0  0  0  0
    2.8336    1.0063    0.2447 H   0  0  0  0  0  0  0  0  0  0  0  0
    0.4506   -0.6485   -2.1098 H   0  0  0  0  0  0  0  0  0  0  0  0
   -1.8812   -1.1122   -1.2131 H   0  0  0  0  0  0  0  0  0  0  0  0
  1  2  1  0
  2  3  1  0
  3  4  2  0
  3  5  1  0
  5  6  1  0
  5  7  1  0
  7  8  1  0
  8  9  1  0
  9  2  1  0
  9  7  1  0
  1 10  1  0
  1 11  1  0
  1 12  1  0
  2 13  1  0
  5 14  1  0
  6 15  1  0
  6 16  1  0
  6 17  1  0
  7 18  1  0
  9 19  1  0
M  END
