
     RDKit          3D

 20 20  0  0  0  0  0  0  0  0999 V2000
    2.4357    0.9255    0.3613 C   0  0  0  0  0  0  0  0  0  0  0  0
    1.1804    0.2724   -0.2092 C   0  0  0  0  0  0  0  0  0  0  0  0
    1.1882   -1.1749    0.1475 C   0  0  0  0  0  0  0  0  0  0  0  0
    0.0486   -1.8141   -0.0239 C   0  0  0  0  0  0  0  0  0  0  0  0
   -1.0942   -1.0333   -0.5434 C   0  0  0  0  0  0  0  0  0  0  0  0
   -1.1042    0.2460    0.2674 C   0  0  0  0  0  0  0  0  0  0  0  0
   -2.2966    1.1092   -0.0701 C   0  0  0  0  0  0  0  0  0  0  0  0
    0.0542    0.9556    0.1409 O   0  0  0  0  0  0  0  0  0  0  0  0
    3.1541    1.2037   -0.4388 H   0  0  0  0  0  0  0  0  0  0  0  0
    2.8924    0.2321    1.1061 H   0  0  0  0  0  0  0  0  0  0  0  0
    2.1050    1.8208    0.9394 H   0  0  0  0  0  0  0  0  0  0  0  0
    1.2469    0.3022   -1.3374 H   0  0  0  0  0  0  0  0  0  0  0  0
    2.0949   -1.6720    0.5302 H   0  0  0  0  0  0  0  0  0  0  0  0
   -0.0418   -2.8460    0.2024 H   0  0  0  0  0  0  0  0  0  0  0  0
   -2.0513   -1.5538   -0.4828 H   0  0  0  0  0  0  0  0  0  0  0  0
   -0.8282   -0.7309   -1.5899 H   0  0  0  0  0  0  0  0  0  0  0  0
   -1.1876   -0.0713    1.3370 H   0  0  0  0  0  0  0  0  0  0  0  0
   -2.3593    1.9030    0.6875 H   0  0  0  0  0  0  0  0  0  0  0  0
   -3.2038    0.4587    0.0770 H   0  0  0  0  0  0  0  0  0  0  0  0
   -2.2333    1.4669   -1.1012 H   0  0  0  0  0  0  0  0  0  0  0  0
  1  2  1  0
  2  3  1  0
  3  4  2  0
  4  5  1  0
  5  6  1  0
  6  7  1  0
  6  8  1  0
  8  2  1  0
  1  9  1  0
  1 10  1  0
  1 11  1  0
  2 12  1  0
  3 13  1  0
  4 14  1  0
  5 15  1  0
  5 16  1  0
  6 17  1  0
  7 18  1  0
  7 19  1  0
  7 20  1  0
M  END
