
     RDKit          3D

 17 17  0  0  0  0  0  0  0  0999 V2000
   -1.7032   -0.7165    0.3990 C   0  0  0  0  0  0  0  0  0  0  0  0
   -0.6941   -0.2146   -0.5840 C   0  0  0  0  0  0  0  0  0  0  0  0
   -0.5387    1.1970   -0.9869 C   0  0  0  0  0  0  0  0  0  0  0  0
    0.4829    0.5683   -0.0880 C   0  0  0  0  0  0  0  0  0  0  0  0
    0.4496    1.0875    1.3111 C   0  0  0  0  0  0  0  0  0  0  0  0
    0.0781    2.2647    1.4772 O   0  0  0  0  0  0  0  0  0  0  0  0
    1.7482    0.1350   -0.5076 O   0  0  0  0  0  0  0  0  0  0  0  0
    2.3199   -1.0788   -0.4234 C   0  0  0  0  0  0  0  0  0  0  0  0
    1.6703   -2.0719    0.0940 O   0  0  0  0  0  0  0  0  0  0  0  0
   -2.1357    0.0153    1.0485 H   0  0  0  0  0  0  0  0  0  0  0  0
   -1.2150   -1.5600    0.9657 H   0  0  0  0  0  0  0  0  0  0  0  0
   -2.5383   -1.1766   -0.2137 H   0  0  0  0  0  0  0  0  0  0  0  0
   -0.4791   -0.9634   -1.3787 H   0  0  0  0  0  0  0  0  0  0  0  0
   -1.3096    1.8664   -0.5303 H   0  0  0  0  0  0  0  0  0  0  0  0
   -0.2292    1.4879   -1.9893 H   0  0  0  0  0  0  0  0  0  0  0  0
    0.7346    0.4964    2.1712 H   0  0  0  0  0  0  0  0  0  0  0  0
    3.3593   -1.3368   -0.7648 H   0  0  0  0  0  0  0  0  0  0  0  0
  1  2  1  0
  2  3  1  0
  3  4  1  0
  4  5  1  0
  5  6  2  0
  4  7  1  0
  7  8  1  0
  8  9  2  0
  4  2  1  0
  1 10  1  0
  1 11  1  0
  1 12  1  0
  2 13  1  0
  3 14  1  0
  3 15  1  0
  5 16  1  0
  8 17  1  0
M  END
