
     RDKit          3D

 23 24  0  0  0  0  0  0  0  0999 V2000
    2.3191    1.0066    0.4164 C   0  0  0  0  0  0  0  0  0  0  0  0
    1.5897   -0.0583   -0.3170 C   0  0  0  0  0  0  0  0  0  0  0  0
    1.4627   -1.4032    0.3474 C   0  0  0  0  0  0  0  0  0  0  0  0
    0.2800   -0.5765    0.0825 C   0  0  0  0  0  0  0  0  0  0  0  0
   -0.4568   -0.0947    1.2679 C   0  0  0  0  0  0  0  0  0  0  0  0
   -1.4862    0.7398    1.1173 C   0  0  0  0  0  0  0  0  0  0  0  0
   -1.8074    1.1223   -0.3002 C   0  0  0  0  0  0  0  0  0  0  0  0
   -1.9256   -0.1798   -1.0644 C   0  0  0  0  0  0  0  0  0  0  0  0
   -0.7270   -1.0504   -0.9334 C   0  0  0  0  0  0  0  0  0  0  0  0
    2.7204    1.7634   -0.3135 H   0  0  0  0  0  0  0  0  0  0  0  0
    1.6929    1.5877    1.1249 H   0  0  0  0  0  0  0  0  0  0  0  0
    3.1936    0.6475    1.0039 H   0  0  0  0  0  0  0  0  0  0  0  0
    1.8303   -0.1424   -1.4151 H   0  0  0  0  0  0  0  0  0  0  0  0
    1.5653   -2.3287   -0.2536 H   0  0  0  0  0  0  0  0  0  0  0  0
    1.9074   -1.4824    1.3600 H   0  0  0  0  0  0  0  0  0  0  0  0
   -0.2181   -0.3758    2.2856 H   0  0  0  0  0  0  0  0  0  0  0  0
   -2.0698    1.1317    1.9426 H   0  0  0  0  0  0  0  0  0  0  0  0
   -0.9846    1.7652   -0.6659 H   0  0  0  0  0  0  0  0  0  0  0  0
   -2.7369    1.7068   -0.3233 H   0  0  0  0  0  0  0  0  0  0  0  0
   -2.7979   -0.7067   -0.6260 H   0  0  0  0  0  0  0  0  0  0  0  0
   -2.1069    0.0833   -2.1400 H   0  0  0  0  0  0  0  0  0  0  0  0
   -0.2003   -1.0732   -1.9190 H   0  0  0  0  0  0  0  0  0  0  0  0
   -1.0438   -2.0820   -0.6772 H   0  0  0  0  0  0  0  0  0  0  0  0
  1  2  1  0
  2  3  1  0
  3  4  1  0
  4  5  1  0
  5  6  2  0
  6  7  1  0
  7  8  1  0
  8  9  1  0
  4  2  1  0
  9  4  1  0
  1 10  1  0
  1 11  1  0
  1 12  1  0
  2 13  1  0
  3 14  1  0
  3 15  1  0
  5 16  1  0
  6 17  1  0
  7 18  1  0
  7 19  1  0
  8 20  1  0
  8 21  1  0
  9 22  1  0
  9 23  1  0
M  END
