
     RDKit          3D

 21 21  0  0  0  0  0  0  0  0999 V2000
    2.2680   -0.1010    0.6603 C   0  0  0  0  0  0  0  0  0  0  0  0
    1.1030   -0.2002   -0.2684 C   0  0  0  0  0  0  0  0  0  0  0  0
    0.3907   -1.5591   -0.2636 C   0  0  0  0  0  0  0  0  0  0  0  0
   -0.9084   -0.7591   -0.4339 C   0  0  0  0  0  0  0  0  0  0  0  0
   -2.0589   -1.3254    0.2726 C   0  0  0  0  0  0  0  0  0  0  0  0
   -2.1021   -2.4834    0.6437 O   0  0  0  0  0  0  0  0  0  0  0  0
   -0.2000    0.3894    0.2496 C   0  0  0  0  0  0  0  0  0  0  0  0
   -0.4867    1.7520   -0.3575 C   0  0  0  0  0  0  0  0  0  0  0  0
   -1.6883    2.2294    0.1591 O   0  0  0  0  0  0  0  0  0  0  0  0
    2.6171   -1.0610    1.0645 H   0  0  0  0  0  0  0  0  0  0  0  0
    3.1214    0.3376    0.0634 H   0  0  0  0  0  0  0  0  0  0  0  0
    2.0409    0.6493    1.4441 H   0  0  0  0  0  0  0  0  0  0  0  0
    1.2970    0.0760   -1.3340 H   0  0  0  0  0  0  0  0  0  0  0  0
    0.4498   -2.0850    0.7197 H   0  0  0  0  0  0  0  0  0  0  0  0
    0.6114   -2.1923   -1.1326 H   0  0  0  0  0  0  0  0  0  0  0  0
   -1.0497   -0.5439   -1.4946 H   0  0  0  0  0  0  0  0  0  0  0  0
   -2.9155   -0.6997    0.4810 H   0  0  0  0  0  0  0  0  0  0  0  0
   -0.2653    0.4127    1.3427 H   0  0  0  0  0  0  0  0  0  0  0  0
   -0.5510    1.6870   -1.4557 H   0  0  0  0  0  0  0  0  0  0  0  0
    0.3168    2.4478   -0.0114 H   0  0  0  0  0  0  0  0  0  0  0  0
   -1.9901    3.0291   -0.3489 H   0  0  0  0  0  0  0  0  0  0  0  0
  1  2  1  0
  2  3  1  0
  3  4  1  0
  4  5  1  0
  5  6  2  0
  4  7  1  0
  7  8  1  0
  8  9  1  0
  7  2  1  0
  1 10  1  0
  1 11  1  0
  1 12  1  0
  2 13  1  0
  3 14  1  0
  3 15  1  0
  4 16  1  0
  5 17  1  0
  7 18  1  0
  8 19  1  0
  8 20  1  0
  9 21  1  0
M  END
