
     RDKit          3D

 23 25  0  0  0  0  0  0  0  0999 V2000
    1.9029   -1.1669   -0.1771 C   0  0  0  0  0  0  0  0  0  0  0  0
    1.2191    0.1179   -0.1272 C   0  0  0  0  0  0  0  0  0  0  0  0
   -0.0068    0.2815   -0.9766 C   0  0  0  0  0  0  0  0  0  0  0  0
   -0.2184    1.7868   -0.6804 C   0  0  0  0  0  0  0  0  0  0  0  0
   -0.2592    1.6601    0.8477 C   0  0  0  0  0  0  0  0  0  0  0  0
    0.6430    0.5171    1.2081 C   0  0  0  0  0  0  0  0  0  0  0  0
   -0.8252    0.3266    1.1674 C   0  0  0  0  0  0  0  0  0  0  0  0
   -1.1789   -0.2056   -0.2024 C   0  0  0  0  0  0  0  0  0  0  0  0
   -1.4947   -1.6338   -0.2707 C   0  0  0  0  0  0  0  0  0  0  0  0
    3.0010   -1.0339   -0.2925 H   0  0  0  0  0  0  0  0  0  0  0  0
    1.7824   -1.6883    0.8178 H   0  0  0  0  0  0  0  0  0  0  0  0
    1.6063   -1.8697   -0.9733 H   0  0  0  0  0  0  0  0  0  0  0  0
    1.9213    0.9399   -0.4117 H   0  0  0  0  0  0  0  0  0  0  0  0
    0.0654    0.0506   -2.0063 H   0  0  0  0  0  0  0  0  0  0  0  0
    0.6333    2.3725   -1.0235 H   0  0  0  0  0  0  0  0  0  0  0  0
   -1.1939    2.0850   -1.0812 H   0  0  0  0  0  0  0  0  0  0  0  0
   -0.3683    2.5347    1.4650 H   0  0  0  0  0  0  0  0  0  0  0  0
    1.2300    0.5173    2.1123 H   0  0  0  0  0  0  0  0  0  0  0  0
   -1.4273    0.1117    2.0370 H   0  0  0  0  0  0  0  0  0  0  0  0
   -2.0720    0.3652   -0.5406 H   0  0  0  0  0  0  0  0  0  0  0  0
   -2.1892   -1.8053   -1.1448 H   0  0  0  0  0  0  0  0  0  0  0  0
   -0.6831   -2.3367   -0.3759 H   0  0  0  0  0  0  0  0  0  0  0  0
   -2.0878   -1.9268    0.6288 H   0  0  0  0  0  0  0  0  0  0  0  0
  1  2  1  0
  2  3  1  0
  3  4  1  0
  4  5  1  0
  5  6  1  0
  6  7  1  0
  7  8  1  0
  8  9  1  0
  6  2  1  0
  8  3  1  0
  7  5  1  0
  1 10  1  0
  1 11  1  0
  1 12  1  0
  2 13  1  0
  3 14  1  0
  4 15  1  0
  4 16  1  0
  5 17  1  0
  6 18  1  0
  7 19  1  0
  8 20  1  0
  9 21  1  0
  9 22  1  0
  9 23  1  0
M  END
