
     RDKit          3D

 23 24  0  0  0  0  0  0  0  0999 V2000
   -2.7878    0.5013   -0.0214 C   0  0  0  0  0  0  0  0  0  0  0  0
   -1.5887   -0.3566   -0.2271 C   0  0  0  0  0  0  0  0  0  0  0  0
   -0.3650    0.3554   -0.8045 C   0  0  0  0  0  0  0  0  0  0  0  0
    0.4489   -0.3596    0.2042 C   0  0  0  0  0  0  0  0  0  0  0  0
    1.3961   -1.4198   -0.0529 C   0  0  0  0  0  0  0  0  0  0  0  0
    1.7877   -0.0707    0.6047 C   0  0  0  0  0  0  0  0  0  0  0  0
    2.6318    0.8124   -0.3167 C   0  0  0  0  0  0  0  0  0  0  0  0
   -0.7422   -0.5900    1.0336 C   0  0  0  0  0  0  0  0  0  0  0  0
   -1.0146    0.2860    2.0618 O   0  0  0  0  0  0  0  0  0  0  0  0
   -3.6962   -0.1518   -0.1639 H   0  0  0  0  0  0  0  0  0  0  0  0
   -2.8878    0.8768    1.0318 H   0  0  0  0  0  0  0  0  0  0  0  0
   -2.8827    1.3382   -0.7310 H   0  0  0  0  0  0  0  0  0  0  0  0
   -1.7746   -1.2815   -0.7864 H   0  0  0  0  0  0  0  0  0  0  0  0
   -0.3781    1.4581   -0.6487 H   0  0  0  0  0  0  0  0  0  0  0  0
   -0.0993    0.0733   -1.8256 H   0  0  0  0  0  0  0  0  0  0  0  0
    1.8573   -1.6663   -1.0137 H   0  0  0  0  0  0  0  0  0  0  0  0
    1.3649   -2.3060    0.6417 H   0  0  0  0  0  0  0  0  0  0  0  0
    2.0967   -0.1128    1.6713 H   0  0  0  0  0  0  0  0  0  0  0  0
    2.6122    0.4286   -1.3671 H   0  0  0  0  0  0  0  0  0  0  0  0
    3.6841    0.7749    0.0007 H   0  0  0  0  0  0  0  0  0  0  0  0
    2.1982    1.8219   -0.3535 H   0  0  0  0  0  0  0  0  0  0  0  0
   -0.8822   -1.6397    1.3618 H   0  0  0  0  0  0  0  0  0  0  0  0
   -0.9790    1.2280    1.8029 H   0  0  0  0  0  0  0  0  0  0  0  0
  1  2  1  0
  2  3  1  0
  3  4  1  0
  4  5  1  0
  5  6  1  0
  6  7  1  0
  4  8  1  0
  8  9  1  0
  8  2  1  0
  6  4  1  0
  1 10  1  0
  1 11  1  0
  1 12  1  0
  2 13  1  0
  3 14  1  0
  3 15  1  0
  5 16  1  0
  5 17  1  0
  6 18  1  0
  7 19  1  0
  7 20  1  0
  7 21  1  0
  8 22  1  0
  9 23  1  0
M  END
