
     RDKit          3D

 17 18  0  0  0  0  0  0  0  0999 V2000
    1.6700    0.5112   -0.7528 C   0  0  0  0  0  0  0  0  0  0  0  0
    0.2852    0.6400   -0.2256 C   0  0  0  0  0  0  0  0  0  0  0  0
   -0.6813   -0.4535   -0.5302 C   0  0  0  0  0  0  0  0  0  0  0  0
    0.1616   -1.3354    0.3580 C   0  0  0  0  0  0  0  0  0  0  0  0
    0.0726   -0.0411    1.1072 C   0  0  0  0  0  0  0  0  0  0  0  0
   -1.3855   -0.0464    0.7419 C   0  0  0  0  0  0  0  0  0  0  0  0
   -2.0242    1.1598    0.7372 O   0  0  0  0  0  0  0  0  0  0  0  0
    2.1163    1.5440   -0.8452 H   0  0  0  0  0  0  0  0  0  0  0  0
    1.7506    0.0284   -1.7360 H   0  0  0  0  0  0  0  0  0  0  0  0
    2.3522   -0.0146   -0.0326 H   0  0  0  0  0  0  0  0  0  0  0  0
   -0.1543    1.6372   -0.3367 H   0  0  0  0  0  0  0  0  0  0  0  0
   -1.1050   -0.7016   -1.3997 H   0  0  0  0  0  0  0  0  0  0  0  0
    1.1283   -1.6465   -0.0189 H   0  0  0  0  0  0  0  0  0  0  0  0
   -0.4510   -2.1229    0.8647 H   0  0  0  0  0  0  0  0  0  0  0  0
    0.4870    0.2036    1.9805 H   0  0  0  0  0  0  0  0  0  0  0  0
   -1.9055   -0.8617    1.2669 H   0  0  0  0  0  0  0  0  0  0  0  0
   -2.3170    1.4995   -0.1218 H   0  0  0  0  0  0  0  0  0  0  0  0
  1  2  1  0
  2  3  1  0
  3  4  1  0
  4  5  1  0
  5  6  1  0
  6  7  1  0
  5  2  1  0
  6  3  1  0
  1  8  1  0
  1  9  1  0
  1 10  1  0
  2 11  1  0
  3 12  1  0
  4 13  1  0
  4 14  1  0
  5 15  1  0
  6 16  1  0
  7 17  1  0
M  END
