
     RDKit          3D

 21 22  0  0  0  0  0  0  0  0999 V2000
   -1.9050   -1.0032   -0.6336 C   0  0  0  0  0  0  0  0  0  0  0  0
   -0.5731   -0.3240   -0.6433 C   0  0  0  0  0  0  0  0  0  0  0  0
   -0.5727    1.1579   -0.3957 C   0  0  0  0  0  0  0  0  0  0  0  0
   -1.6859    1.6065    0.3085 O   0  0  0  0  0  0  0  0  0  0  0  0
    0.6118    0.9249    0.5484 C   0  0  0  0  0  0  0  0  0  0  0  0
    1.9202    0.6856   -0.1318 C   0  0  0  0  0  0  0  0  0  0  0  0
    2.1510   -0.6631   -0.1938 O   0  0  0  0  0  0  0  0  0  0  0  0
    1.2905   -1.3177    0.6421 C   0  0  0  0  0  0  0  0  0  0  0  0
    0.0744   -0.4679    0.7400 C   0  0  0  0  0  0  0  0  0  0  0  0
   -2.0468   -1.5595   -1.5998 H   0  0  0  0  0  0  0  0  0  0  0  0
   -1.9162   -1.8188    0.1485 H   0  0  0  0  0  0  0  0  0  0  0  0
   -2.7537   -0.3456   -0.4442 H   0  0  0  0  0  0  0  0  0  0  0  0
    0.0606   -0.6194   -1.4814 H   0  0  0  0  0  0  0  0  0  0  0  0
   -0.2505    1.8039   -1.2104 H   0  0  0  0  0  0  0  0  0  0  0  0
   -1.8485    2.5825    0.1553 H   0  0  0  0  0  0  0  0  0  0  0  0
    0.6390    1.5542    1.4299 H   0  0  0  0  0  0  0  0  0  0  0  0
    2.7510    1.1404    0.4638 H   0  0  0  0  0  0  0  0  0  0  0  0
    1.9978    1.1360   -1.1412 H   0  0  0  0  0  0  0  0  0  0  0  0
    1.7118   -1.5236    1.6428 H   0  0  0  0  0  0  0  0  0  0  0  0
    0.9655   -2.3220    0.2431 H   0  0  0  0  0  0  0  0  0  0  0  0
   -0.6213   -0.6272    1.5530 H   0  0  0  0  0  0  0  0  0  0  0  0
  1  2  1  0
  2  3  1  0
  3  4  1  0
  3  5  1  0
  5  6  1  0
  6  7  1  0
  7  8  1  0
  8  9  1  0
  9  2  1  0
  9  5  1  0
  1 10  1  0
  1 11  1  0
  1 12  1  0
  2 13  1  0
  3 14  1  0
  4 15  1  0
  5 16  1  0
  6 17  1  0
  6 18  1  0
  8 19  1  0
  8 20  1  0
  9 21  1  0
M  END
