
     RDKit          3D

 21 22  0  0  0  0  0  0  0  0999 V2000
   -1.9392   -1.1878    0.5805 C   0  0  0  0  0  0  0  0  0  0  0  0
   -1.2315   -0.3021   -0.3802 C   0  0  0  0  0  0  0  0  0  0  0  0
   -1.4425    1.1973   -0.1451 C   0  0  0  0  0  0  0  0  0  0  0  0
   -0.0512    1.3608   -0.7479 C   0  0  0  0  0  0  0  0  0  0  0  0
    0.2128   -0.0230   -0.1381 C   0  0  0  0  0  0  0  0  0  0  0  0
    1.2109   -0.8256   -0.8147 C   0  0  0  0  0  0  0  0  0  0  0  0
    2.3419   -0.7260   -0.1243 C   0  0  0  0  0  0  0  0  0  0  0  0
    2.0327    0.1696    1.0194 C   0  0  0  0  0  0  0  0  0  0  0  0
    0.6288    0.1257    1.1588 O   0  0  0  0  0  0  0  0  0  0  0  0
   -1.3171   -2.0497    0.8981 H   0  0  0  0  0  0  0  0  0  0  0  0
   -2.8114   -1.6484    0.0302 H   0  0  0  0  0  0  0  0  0  0  0  0
   -2.3955   -0.6472    1.4328 H   0  0  0  0  0  0  0  0  0  0  0  0
   -1.4207   -0.5112   -1.4471 H   0  0  0  0  0  0  0  0  0  0  0  0
   -2.2020    1.6628   -0.7695 H   0  0  0  0  0  0  0  0  0  0  0  0
   -1.4065    1.4947    0.9227 H   0  0  0  0  0  0  0  0  0  0  0  0
    0.5522    2.1635   -0.3102 H   0  0  0  0  0  0  0  0  0  0  0  0
   -0.0661    1.2997   -1.8517 H   0  0  0  0  0  0  0  0  0  0  0  0
    1.0859   -1.4071   -1.7148 H   0  0  0  0  0  0  0  0  0  0  0  0
    3.3138   -1.1631   -0.2858 H   0  0  0  0  0  0  0  0  0  0  0  0
    2.3585    1.2118    0.7578 H   0  0  0  0  0  0  0  0  0  0  0  0
    2.5461   -0.1949    1.9291 H   0  0  0  0  0  0  0  0  0  0  0  0
  1  2  1  0
  2  3  1  0
  3  4  1  0
  4  5  1  0
  5  6  1  0
  6  7  2  0
  7  8  1  0
  8  9  1  0
  5  2  1  0
  9  5  1  0
  1 10  1  0
  1 11  1  0
  1 12  1  0
  2 13  1  0
  3 14  1  0
  3 15  1  0
  4 16  1  0
  4 17  1  0
  6 18  1  0
  7 19  1  0
  8 20  1  0
  8 21  1  0
M  END
