
     RDKit          3D

 17 18  0  0  0  0  0  0  0  0999 V2000
    3.0673    0.1009   -0.1424 C   0  0  0  0  0  0  0  0  0  0  0  0
    1.5886    0.1770   -0.0743 C   0  0  0  0  0  0  0  0  0  0  0  0
    0.7885   -0.8884    0.2909 C   0  0  0  0  0  0  0  0  0  0  0  0
   -0.5279   -0.4765    0.2493 C   0  0  0  0  0  0  0  0  0  0  0  0
   -0.4639    0.8551   -0.1498 C   0  0  0  0  0  0  0  0  0  0  0  0
    0.7918    1.1916   -0.3266 O   0  0  0  0  0  0  0  0  0  0  0  0
   -1.8435    1.3278   -0.2055 C   0  0  0  0  0  0  0  0  0  0  0  0
   -2.6845    0.3639    0.1321 C   0  0  0  0  0  0  0  0  0  0  0  0
   -1.9307   -0.8742    0.4533 C   0  0  0  0  0  0  0  0  0  0  0  0
    3.4386   -0.3245   -1.0846 H   0  0  0  0  0  0  0  0  0  0  0  0
    3.4407   -0.5466    0.6740 H   0  0  0  0  0  0  0  0  0  0  0  0
    3.5076    1.1095    0.0428 H   0  0  0  0  0  0  0  0  0  0  0  0
    1.1103   -1.8830    0.5663 H   0  0  0  0  0  0  0  0  0  0  0  0
   -2.1943    2.3191   -0.4782 H   0  0  0  0  0  0  0  0  0  0  0  0
   -3.7825    0.4144    0.1844 H   0  0  0  0  0  0  0  0  0  0  0  0
   -2.0577   -1.1498    1.5104 H   0  0  0  0  0  0  0  0  0  0  0  0
   -2.2484   -1.7161   -0.2134 H   0  0  0  0  0  0  0  0  0  0  0  0
  1  2  1  0
  2  3  2  0
  3  4  1  0
  4  5  2  0
  5  6  1  0
  5  7  1  0
  7  8  2  0
  8  9  1  0
  6  2  1  0
  9  4  1  0
  1 10  1  0
  1 11  1  0
  1 12  1  0
  3 13  1  0
  7 14  1  0
  8 15  1  0
  9 16  1  0
  9 17  1  0
M  END
