
     RDKit          3D

 21 23  0  0  0  0  0  0  0  0999 V2000
    2.8511    0.1203    0.4980 C   0  0  0  0  0  0  0  0  0  0  0  0
    1.4708   -0.4403    0.3926 C   0  0  0  0  0  0  0  0  0  0  0  0
    1.1456   -1.0922   -0.9257 C   0  0  0  0  0  0  0  0  0  0  0  0
    0.4346    0.2178   -0.4460 C   0  0  0  0  0  0  0  0  0  0  0  0
   -0.9115    0.1248   -0.1469 C   0  0  0  0  0  0  0  0  0  0  0  0
   -2.0518    0.7157   -0.8723 C   0  0  0  0  0  0  0  0  0  0  0  0
   -2.6110   -0.1311    0.2250 C   0  0  0  0  0  0  0  0  0  0  0  0
   -1.5878    0.4642    1.1411 C   0  0  0  0  0  0  0  0  0  0  0  0
   -1.6432   -1.0701   -0.1167 O   0  0  0  0  0  0  0  0  0  0  0  0
    2.9567    1.0113   -0.1598 H   0  0  0  0  0  0  0  0  0  0  0  0
    3.1203    0.4384    1.5226 H   0  0  0  0  0  0  0  0  0  0  0  0
    3.5590   -0.6540    0.1155 H   0  0  0  0  0  0  0  0  0  0  0  0
    1.1104   -0.9721    1.3153 H   0  0  0  0  0  0  0  0  0  0  0  0
    0.5369   -2.0125   -0.8925 H   0  0  0  0  0  0  0  0  0  0  0  0
    1.8340   -1.0118   -1.7649 H   0  0  0  0  0  0  0  0  0  0  0  0
    0.8243    1.1218   -0.9997 H   0  0  0  0  0  0  0  0  0  0  0  0
   -2.2102    1.7912   -0.8106 H   0  0  0  0  0  0  0  0  0  0  0  0
   -2.2589    0.3043   -1.8877 H   0  0  0  0  0  0  0  0  0  0  0  0
   -3.5807   -0.3146    0.4274 H   0  0  0  0  0  0  0  0  0  0  0  0
   -1.2956   -0.1549    2.0165 H   0  0  0  0  0  0  0  0  0  0  0  0
   -1.6929    1.5440    1.3688 H   0  0  0  0  0  0  0  0  0  0  0  0
  1  2  1  0
  2  3  1  0
  3  4  1  0
  4  5  1  0
  5  6  1  0
  6  7  1  0
  7  8  1  0
  7  9  1  0
  4  2  1  0
  8  5  1  0
  9  5  1  0
  1 10  1  0
  1 11  1  0
  1 12  1  0
  2 13  1  0
  3 14  1  0
  3 15  1  0
  4 16  1  0
  6 17  1  0
  6 18  1  0
  7 19  1  0
  8 20  1  0
  8 21  1  0
M  END
