
     RDKit          3D

 19 20  0  0  0  0  0  0  0  0999 V2000
    1.8514    1.1011    0.3947 C   0  0  0  0  0  0  0  0  0  0  0  0
    2.2159   -0.2283   -0.2055 C   0  0  0  0  0  0  0  0  0  0  0  0
    1.7100   -0.5607   -1.5751 C   0  0  0  0  0  0  0  0  0  0  0  0
    1.2406   -1.3318   -0.3155 C   0  0  0  0  0  0  0  0  0  0  0  0
   -0.1394   -0.9973    0.0983 C   0  0  0  0  0  0  0  0  0  0  0  0
   -1.2572   -0.7224    0.4553 C   0  0  0  0  0  0  0  0  0  0  0  0
   -2.6319   -0.3889    0.8734 C   0  0  0  0  0  0  0  0  0  0  0  0
   -3.2594    0.8278    0.3745 C   0  0  0  0  0  0  0  0  0  0  0  0
   -2.7892    0.6891    1.7199 O   0  0  0  0  0  0  0  0  0  0  0  0
    2.4060    1.9075   -0.1573 H   0  0  0  0  0  0  0  0  0  0  0  0
    0.7599    1.3232    0.2523 H   0  0  0  0  0  0  0  0  0  0  0  0
    2.1071    1.0955    1.4619 H   0  0  0  0  0  0  0  0  0  0  0  0
    3.2598   -0.5464    0.0483 H   0  0  0  0  0  0  0  0  0  0  0  0
    1.0072    0.1857   -1.9941 H   0  0  0  0  0  0  0  0  0  0  0  0
    2.3272   -1.1660   -2.2567 H   0  0  0  0  0  0  0  0  0  0  0  0
    1.5413   -2.3877   -0.2293 H   0  0  0  0  0  0  0  0  0  0  0  0
   -3.3065   -1.2825    0.9855 H   0  0  0  0  0  0  0  0  0  0  0  0
   -2.7078    1.6381   -0.1384 H   0  0  0  0  0  0  0  0  0  0  0  0
   -4.3351    0.8438    0.2077 H   0  0  0  0  0  0  0  0  0  0  0  0
  1  2  1  0
  2  3  1  0
  3  4  1  0
  4  5  1  0
  5  6  3  0
  6  7  1  0
  7  8  1  0
  8  9  1  0
  4  2  1  0
  9  7  1  0
  1 10  1  0
  1 11  1  0
  1 12  1  0
  2 13  1  0
  3 14  1  0
  3 15  1  0
  4 16  1  0
  7 17  1  0
  8 18  1  0
  8 19  1  0
M  END
