
     RDKit          3D

 23 24  0  0  0  0  0  0  0  0999 V2000
   -2.6361   -0.5908   -0.0902 C   0  0  0  0  0  0  0  0  0  0  0  0
   -1.5126    0.4059   -0.2267 C   0  0  0  0  0  0  0  0  0  0  0  0
   -0.8087    0.7208    1.0671 C   0  0  0  0  0  0  0  0  0  0  0  0
    0.4824    0.2854    0.4094 C   0  0  0  0  0  0  0  0  0  0  0  0
    1.6200    1.2446    0.3131 C   0  0  0  0  0  0  0  0  0  0  0  0
    1.3072    2.3946   -0.4050 O   0  0  0  0  0  0  0  0  0  0  0  0
    0.5587   -1.1180    0.0102 C   0  0  0  0  0  0  0  0  0  0  0  0
    1.7685   -1.7339   -0.5960 C   0  0  0  0  0  0  0  0  0  0  0  0
   -0.2555   -0.1595   -0.8060 C   0  0  0  0  0  0  0  0  0  0  0  0
   -2.3060   -1.4676    0.5315 H   0  0  0  0  0  0  0  0  0  0  0  0
   -3.4823   -0.1049    0.4322 H   0  0  0  0  0  0  0  0  0  0  0  0
   -2.9253   -1.0051   -1.0656 H   0  0  0  0  0  0  0  0  0  0  0  0
   -1.8760    1.3285   -0.7137 H   0  0  0  0  0  0  0  0  0  0  0  0
   -1.0874   -0.0531    1.8351 H   0  0  0  0  0  0  0  0  0  0  0  0
   -0.8452    1.7540    1.4095 H   0  0  0  0  0  0  0  0  0  0  0  0
    1.9229    1.5503    1.3363 H   0  0  0  0  0  0  0  0  0  0  0  0
    2.4744    0.7167   -0.1572 H   0  0  0  0  0  0  0  0  0  0  0  0
    1.3192    3.2088    0.1621 H   0  0  0  0  0  0  0  0  0  0  0  0
   -0.0682   -1.8349    0.6169 H   0  0  0  0  0  0  0  0  0  0  0  0
    2.6854   -1.3124   -0.1506 H   0  0  0  0  0  0  0  0  0  0  0  0
    1.7715   -1.5211   -1.6879 H   0  0  0  0  0  0  0  0  0  0  0  0
    1.8204   -2.8451   -0.4012 H   0  0  0  0  0  0  0  0  0  0  0  0
    0.0729    0.1367   -1.8234 H   0  0  0  0  0  0  0  0  0  0  0  0
  1  2  1  0
  2  3  1  0
  3  4  1  0
  4  5  1  0
  5  6  1  0
  4  7  1  0
  7  8  1  0
  7  9  1  0
  9  2  1  0
  9  4  1  0
  1 10  1  0
  1 11  1  0
  1 12  1  0
  2 13  1  0
  3 14  1  0
  3 15  1  0
  5 16  1  0
  5 17  1  0
  6 18  1  0
  7 19  1  0
  8 20  1  0
  8 21  1  0
  8 22  1  0
  9 23  1  0
M  END
