
     RDKit          3D

 23 24  0  0  0  0  0  0  0  0999 V2000
    2.6738   -0.5226    0.3415 C   0  0  0  0  0  0  0  0  0  0  0  0
    1.6381    0.4846   -0.0690 C   0  0  0  0  0  0  0  0  0  0  0  0
    0.6997    1.0025    0.9540 C   0  0  0  0  0  0  0  0  0  0  0  0
    0.2172    0.1873   -0.1707 C   0  0  0  0  0  0  0  0  0  0  0  0
   -0.3597   -1.1843    0.0976 C   0  0  0  0  0  0  0  0  0  0  0  0
   -1.7245   -0.9764    0.7116 C   0  0  0  0  0  0  0  0  0  0  0  0
   -2.2860    0.2338    0.4458 O   0  0  0  0  0  0  0  0  0  0  0  0
   -2.0938    0.7503   -0.7954 C   0  0  0  0  0  0  0  0  0  0  0  0
   -0.6635    0.7935   -1.2563 C   0  0  0  0  0  0  0  0  0  0  0  0
    3.2641   -0.7798   -0.5496 H   0  0  0  0  0  0  0  0  0  0  0  0
    2.2721   -1.4120    0.8357 H   0  0  0  0  0  0  0  0  0  0  0  0
    3.3529   -0.0266    1.0691 H   0  0  0  0  0  0  0  0  0  0  0  0
    2.0367    1.2350   -0.8109 H   0  0  0  0  0  0  0  0  0  0  0  0
    0.7934    0.5173    1.9577 H   0  0  0  0  0  0  0  0  0  0  0  0
    0.3694    2.0504    0.9869 H   0  0  0  0  0  0  0  0  0  0  0  0
    0.2688   -1.7883    0.7527 H   0  0  0  0  0  0  0  0  0  0  0  0
   -0.4886   -1.7462   -0.8610 H   0  0  0  0  0  0  0  0  0  0  0  0
   -1.5612   -1.0297    1.8301 H   0  0  0  0  0  0  0  0  0  0  0  0
   -2.4146   -1.8362    0.5034 H   0  0  0  0  0  0  0  0  0  0  0  0
   -2.4411    1.8265   -0.7654 H   0  0  0  0  0  0  0  0  0  0  0  0
   -2.7294    0.2893   -1.5973 H   0  0  0  0  0  0  0  0  0  0  0  0
   -0.5283    0.1232   -2.1488 H   0  0  0  0  0  0  0  0  0  0  0  0
   -0.2956    1.8083   -1.4617 H   0  0  0  0  0  0  0  0  0  0  0  0
  1  2  1  0
  2  3  1  0
  3  4  1  0
  4  5  1  0
  5  6  1  0
  6  7  1  0
  7  8  1  0
  8  9  1  0
  4  2  1  0
  9  4  1  0
  1 10  1  0
  1 11  1  0
  1 12  1  0
  2 13  1  0
  3 14  1  0
  3 15  1  0
  5 16  1  0
  5 17  1  0
  6 18  1  0
  6 19  1  0
  8 20  1  0
  8 21  1  0
  9 22  1  0
  9 23  1  0
M  END
