
     RDKit          3D

 21 22  0  0  0  0  0  0  0  0999 V2000
   -2.3786   -0.3996    0.9178 C   0  0  0  0  0  0  0  0  0  0  0  0
   -1.8724    0.5323   -0.1472 C   0  0  0  0  0  0  0  0  0  0  0  0
   -1.4465   -0.0979   -1.4237 C   0  0  0  0  0  0  0  0  0  0  0  0
   -0.4398    0.5990   -0.4881 C   0  0  0  0  0  0  0  0  0  0  0  0
    0.5857   -0.3017    0.0990 C   0  0  0  0  0  0  0  0  0  0  0  0
    0.6878   -0.2166    1.4864 O   0  0  0  0  0  0  0  0  0  0  0  0
    1.9413    0.0255   -0.5376 C   0  0  0  0  0  0  0  0  0  0  0  0
    3.0804    0.3017    0.3395 C   0  0  0  0  0  0  0  0  0  0  0  0
    2.4006    1.3957   -0.1892 O   0  0  0  0  0  0  0  0  0  0  0  0
   -3.4550   -0.1996    1.1071 H   0  0  0  0  0  0  0  0  0  0  0  0
   -1.8607   -0.2462    1.8929 H   0  0  0  0  0  0  0  0  0  0  0  0
   -2.3218   -1.4633    0.5757 H   0  0  0  0  0  0  0  0  0  0  0  0
   -2.4451    1.4758   -0.2528 H   0  0  0  0  0  0  0  0  0  0  0  0
   -1.6304    0.3767   -2.3994 H   0  0  0  0  0  0  0  0  0  0  0  0
   -1.4252   -1.1987   -1.4665 H   0  0  0  0  0  0  0  0  0  0  0  0
   -0.0448    1.5700   -0.8906 H   0  0  0  0  0  0  0  0  0  0  0  0
    0.3851   -1.3584   -0.1392 H   0  0  0  0  0  0  0  0  0  0  0  0
    1.2011   -1.0113    1.7753 H   0  0  0  0  0  0  0  0  0  0  0  0
    2.0018   -0.0687   -1.6227 H   0  0  0  0  0  0  0  0  0  0  0  0
    2.9333    0.1137    1.4195 H   0  0  0  0  0  0  0  0  0  0  0  0
    4.1032    0.1718   -0.0561 H   0  0  0  0  0  0  0  0  0  0  0  0
  1  2  1  0
  2  3  1  0
  3  4  1  0
  4  5  1  0
  5  6  1  0
  5  7  1  0
  7  8  1  0
  8  9  1  0
  4  2  1  0
  9  7  1  0
  1 10  1  0
  1 11  1  0
  1 12  1  0
  2 13  1  0
  3 14  1  0
  3 15  1  0
  4 16  1  0
  5 17  1  0
  6 18  1  0
  7 19  1  0
  8 20  1  0
  8 21  1  0
M  END
