
     RDKit          3D

 19 21  0  0  0  0  0  0  0  0999 V2000
    1.6863   -1.0773   -0.1873 C   0  0  0  0  0  0  0  0  0  0  0  0
    0.9251    0.0498    0.4487 C   0  0  0  0  0  0  0  0  0  0  0  0
    1.3054    1.3808   -0.2092 C   0  0  0  0  0  0  0  0  0  0  0  0
    0.9731    1.5843   -1.5258 O   0  0  0  0  0  0  0  0  0  0  0  0
   -0.1332    1.5551   -0.6991 C   0  0  0  0  0  0  0  0  0  0  0  0
   -0.4518    0.2965    0.0197 C   0  0  0  0  0  0  0  0  0  0  0  0
   -1.5385    0.1931    0.9971 C   0  0  0  0  0  0  0  0  0  0  0  0
   -1.5005   -0.6249   -0.2697 C   0  0  0  0  0  0  0  0  0  0  0  0
   -1.3684   -2.0116   -0.1834 O   0  0  0  0  0  0  0  0  0  0  0  0
    1.6353   -1.0029   -1.2863 H   0  0  0  0  0  0  0  0  0  0  0  0
    1.3462   -2.0672    0.1356 H   0  0  0  0  0  0  0  0  0  0  0  0
    2.7558   -0.9935    0.1524 H   0  0  0  0  0  0  0  0  0  0  0  0
    1.0605    0.1254    1.5400 H   0  0  0  0  0  0  0  0  0  0  0  0
    1.6329    2.2014    0.4440 H   0  0  0  0  0  0  0  0  0  0  0  0
   -0.6580    2.4988   -0.4764 H   0  0  0  0  0  0  0  0  0  0  0  0
   -1.2967   -0.3702    1.9329 H   0  0  0  0  0  0  0  0  0  0  0  0
   -2.2097    1.0738    1.0670 H   0  0  0  0  0  0  0  0  0  0  0  0
   -2.2864   -0.3188   -1.0210 H   0  0  0  0  0  0  0  0  0  0  0  0
   -1.8774   -2.4928   -0.8793 H   0  0  0  0  0  0  0  0  0  0  0  0
  1  2  1  0
  2  3  1  0
  3  4  1  0
  4  5  1  0
  5  6  1  0
  6  7  1  0
  7  8  1  0
  8  9  1  0
  6  2  1  0
  5  3  1  0
  8  6  1  0
  1 10  1  0
  1 11  1  0
  1 12  1  0
  2 13  1  0
  3 14  1  0
  5 15  1  0
  7 16  1  0
  7 17  1  0
  8 18  1  0
  9 19  1  0
M  END
