
     RDKit          3D

 21 22  0  0  0  0  0  0  0  0999 V2000
    1.3459   -1.6362    0.3130 C   0  0  0  0  0  0  0  0  0  0  0  0
    0.3746   -0.5157    0.5857 C   0  0  0  0  0  0  0  0  0  0  0  0
    0.3560    0.4810   -0.5960 C   0  0  0  0  0  0  0  0  0  0  0  0
    1.4207    1.5187   -0.3558 C   0  0  0  0  0  0  0  0  0  0  0  0
   -0.9756    0.8133    0.0145 C   0  0  0  0  0  0  0  0  0  0  0  0
   -0.7073    1.4298    1.2706 O   0  0  0  0  0  0  0  0  0  0  0  0
   -2.1703    0.0444    0.0934 C   0  0  0  0  0  0  0  0  0  0  0  0
   -1.0076   -0.7728    0.0506 C   0  0  0  0  0  0  0  0  0  0  0  0
   -0.8429   -1.3884   -1.2240 O   0  0  0  0  0  0  0  0  0  0  0  0
    1.6468   -2.1387    1.2314 H   0  0  0  0  0  0  0  0  0  0  0  0
    2.2079   -1.2497   -0.2931 H   0  0  0  0  0  0  0  0  0  0  0  0
    0.8545   -2.3994   -0.3440 H   0  0  0  0  0  0  0  0  0  0  0  0
    0.4852   -0.0361    1.5468 H   0  0  0  0  0  0  0  0  0  0  0  0
    0.3834    0.0298   -1.5791 H   0  0  0  0  0  0  0  0  0  0  0  0
    2.0313    1.3260    0.5427 H   0  0  0  0  0  0  0  0  0  0  0  0
    2.1525    1.5796   -1.2070 H   0  0  0  0  0  0  0  0  0  0  0  0
    0.9285    2.5121   -0.1767 H   0  0  0  0  0  0  0  0  0  0  0  0
   -1.1608    2.3219    1.2194 H   0  0  0  0  0  0  0  0  0  0  0  0
   -2.8083   -0.0778    1.0230 H   0  0  0  0  0  0  0  0  0  0  0  0
   -2.8825    0.1603   -0.7800 H   0  0  0  0  0  0  0  0  0  0  0  0
   -1.6321   -2.0018   -1.3355 H   0  0  0  0  0  0  0  0  0  0  0  0
  1  2  1  0
  2  3  1  0
  3  4  1  0
  3  5  1  0
  5  6  1  0
  5  7  1  0
  7  8  1  0
  8  9  1  0
  8  2  1  0
  8  5  1  0
  1 10  1  0
  1 11  1  0
  1 12  1  0
  2 13  1  0
  3 14  1  0
  4 15  1  0
  4 16  1  0
  4 17  1  0
  6 18  1  0
  7 19  1  0
  7 20  1  0
  9 21  1  0
M  END
