
     RDKit          3D

 19 20  0  0  0  0  0  0  0  0999 V2000
   -1.9035    1.0191   -0.5030 C   0  0  0  0  0  0  0  0  0  0  0  0
   -0.5858    0.3745   -0.3771 C   0  0  0  0  0  0  0  0  0  0  0  0
   -0.6476   -1.1329   -0.1773 C   0  0  0  0  0  0  0  0  0  0  0  0
    0.8249   -1.4190    0.0348 C   0  0  0  0  0  0  0  0  0  0  0  0
    1.5693   -1.0188   -1.0852 O   0  0  0  0  0  0  0  0  0  0  0  0
    2.1458    0.0469   -0.4124 C   0  0  0  0  0  0  0  0  0  0  0  0
    3.0023    0.9380   -0.6449 O   0  0  0  0  0  0  0  0  0  0  0  0
    1.3332   -0.2425    0.7979 C   0  0  0  0  0  0  0  0  0  0  0  0
    0.1800    0.7618    0.8779 C   0  0  0  0  0  0  0  0  0  0  0  0
   -2.4685    1.1437    0.4403 H   0  0  0  0  0  0  0  0  0  0  0  0
   -1.7790    2.0069   -0.9978 H   0  0  0  0  0  0  0  0  0  0  0  0
   -2.5509    0.4222   -1.1785 H   0  0  0  0  0  0  0  0  0  0  0  0
    0.0197    0.5797   -1.2713 H   0  0  0  0  0  0  0  0  0  0  0  0
   -1.0623   -1.6683   -1.0237 H   0  0  0  0  0  0  0  0  0  0  0  0
   -1.2205   -1.2874    0.7667 H   0  0  0  0  0  0  0  0  0  0  0  0
    1.0604   -2.4177    0.4337 H   0  0  0  0  0  0  0  0  0  0  0  0
    1.8732   -0.4113    1.7212 H   0  0  0  0  0  0  0  0  0  0  0  0
    0.6152    1.7614    0.8276 H   0  0  0  0  0  0  0  0  0  0  0  0
   -0.4059    0.5437    1.7711 H   0  0  0  0  0  0  0  0  0  0  0  0
  1  2  1  0
  2  3  1  0
  3  4  1  0
  4  5  1  0
  5  6  1  0
  6  7  2  0
  6  8  1  0
  8  9  1  0
  9  2  1  0
  8  4  1  0
  1 10  1  0
  1 11  1  0
  1 12  1  0
  2 13  1  0
  3 14  1  0
  3 15  1  0
  4 16  1  0
  8 17  1  0
  9 18  1  0
  9 19  1  0
M  END
