
     RDKit          3D

 23 23  0  0  0  0  0  0  0  0999 V2000
   -2.5349   -0.6760    0.0512 C   0  0  0  0  0  0  0  0  0  0  0  0
   -1.2104   -0.0891   -0.4433 C   0  0  0  0  0  0  0  0  0  0  0  0
   -1.2085    1.3231   -0.0493 C   0  0  0  0  0  0  0  0  0  0  0  0
   -0.0951    1.9977    0.1541 C   0  0  0  0  0  0  0  0  0  0  0  0
    1.1932    1.2874   -0.0266 C   0  0  0  0  0  0  0  0  0  0  0  0
    1.1361   -0.1091    0.4679 C   0  0  0  0  0  0  0  0  0  0  0  0
    2.4073   -0.8444    0.0442 C   0  0  0  0  0  0  0  0  0  0  0  0
   -0.0614   -0.8866    0.0783 C   0  0  0  0  0  0  0  0  0  0  0  0
   -0.4282   -1.7315    1.1461 O   0  0  0  0  0  0  0  0  0  0  0  0
   -2.6381   -1.7340   -0.1804 H   0  0  0  0  0  0  0  0  0  0  0  0
   -3.3314   -0.1150   -0.5065 H   0  0  0  0  0  0  0  0  0  0  0  0
   -2.6182   -0.4358    1.1317 H   0  0  0  0  0  0  0  0  0  0  0  0
   -1.2638   -0.1328   -1.5531 H   0  0  0  0  0  0  0  0  0  0  0  0
   -2.1494    1.8766    0.0922 H   0  0  0  0  0  0  0  0  0  0  0  0
   -0.1463    3.0557    0.4486 H   0  0  0  0  0  0  0  0  0  0  0  0
    1.5341    1.3420   -1.1004 H   0  0  0  0  0  0  0  0  0  0  0  0
    1.9416    1.8419    0.6123 H   0  0  0  0  0  0  0  0  0  0  0  0
    1.1954   -0.0718    1.5960 H   0  0  0  0  0  0  0  0  0  0  0  0
    3.1977   -0.7726    0.8162 H   0  0  0  0  0  0  0  0  0  0  0  0
    2.1417   -1.8802   -0.1610 H   0  0  0  0  0  0  0  0  0  0  0  0
    2.8061   -0.3161   -0.8670 H   0  0  0  0  0  0  0  0  0  0  0  0
    0.2466   -1.5980   -0.7431 H   0  0  0  0  0  0  0  0  0  0  0  0
   -0.1140   -1.3313    2.0126 H   0  0  0  0  0  0  0  0  0  0  0  0
  1  2  1  0
  2  3  1  0
  3  4  2  0
  4  5  1  0
  5  6  1  0
  6  7  1  0
  6  8  1  0
  8  9  1  0
  8  2  1  0
  1 10  1  0
  1 11  1  0
  1 12  1  0
  2 13  1  0
  3 14  1  0
  4 15  1  0
  5 16  1  0
  5 17  1  0
  6 18  1  0
  7 19  1  0
  7 20  1  0
  7 21  1  0
  8 22  1  0
  9 23  1  0
M  END
