
     RDKit          3D

 21 23  0  0  0  0  0  0  0  0999 V2000
   -2.4437    0.1179    0.6084 C   0  0  0  0  0  0  0  0  0  0  0  0
   -1.3799   -0.6083   -0.1389 C   0  0  0  0  0  0  0  0  0  0  0  0
   -0.8168   -0.1344   -1.4137 C   0  0  0  0  0  0  0  0  0  0  0  0
   -0.0843    0.1528   -0.2391 C   0  0  0  0  0  0  0  0  0  0  0  0
    1.0922   -0.4478    0.3633 C   0  0  0  0  0  0  0  0  0  0  0  0
    2.1649   -1.0223   -0.4949 C   0  0  0  0  0  0  0  0  0  0  0  0
    1.4383    0.9272    0.9532 C   0  0  0  0  0  0  0  0  0  0  0  0
    0.5017    1.5160    1.7601 O   0  0  0  0  0  0  0  0  0  0  0  0
    0.0907    1.4576    0.4463 C   0  0  0  0  0  0  0  0  0  0  0  0
   -2.6873   -0.4913    1.5268 H   0  0  0  0  0  0  0  0  0  0  0  0
   -2.1034    1.1055    1.0277 H   0  0  0  0  0  0  0  0  0  0  0  0
   -3.3799    0.2584    0.0650 H   0  0  0  0  0  0  0  0  0  0  0  0
   -1.3229   -1.7245    0.0301 H   0  0  0  0  0  0  0  0  0  0  0  0
   -0.4231   -0.8999   -2.1365 H   0  0  0  0  0  0  0  0  0  0  0  0
   -1.2914    0.7174   -1.9836 H   0  0  0  0  0  0  0  0  0  0  0  0
    0.8255   -1.1086    1.2402 H   0  0  0  0  0  0  0  0  0  0  0  0
    2.9364   -0.2939   -0.7743 H   0  0  0  0  0  0  0  0  0  0  0  0
    1.7828   -1.4885   -1.4251 H   0  0  0  0  0  0  0  0  0  0  0  0
    2.6802   -1.8376    0.0649 H   0  0  0  0  0  0  0  0  0  0  0  0
    2.3558    1.4216    0.6477 H   0  0  0  0  0  0  0  0  0  0  0  0
    0.0642    2.3826   -0.1277 H   0  0  0  0  0  0  0  0  0  0  0  0
  1  2  1  0
  2  3  1  0
  3  4  1  0
  4  5  1  0
  5  6  1  0
  5  7  1  0
  7  8  1  0
  8  9  1  0
  4  2  1  0
  9  7  1  0
  9  4  1  0
  1 10  1  0
  1 11  1  0
  1 12  1  0
  2 13  1  0
  3 14  1  0
  3 15  1  0
  5 16  1  0
  6 17  1  0
  6 18  1  0
  6 19  1  0
  7 20  1  0
  9 21  1  0
M  END
