
     RDKit          3D

 21 22  0  0  0  0  0  0  0  0999 V2000
    2.3468   -0.7822   -0.4625 C   0  0  0  0  0  0  0  0  0  0  0  0
    1.0705   -0.3097    0.1513 C   0  0  0  0  0  0  0  0  0  0  0  0
   -0.1296   -1.1246   -0.3397 C   0  0  0  0  0  0  0  0  0  0  0  0
   -1.2317   -0.3205    0.3539 C   0  0  0  0  0  0  0  0  0  0  0  0
   -2.5742   -0.7646   -0.0789 C   0  0  0  0  0  0  0  0  0  0  0  0
   -3.5212   -0.0808    0.2584 O   0  0  0  0  0  0  0  0  0  0  0  0
   -0.8901    1.0719   -0.1354 C   0  0  0  0  0  0  0  0  0  0  0  0
   -0.0684    1.9733    0.6876 C   0  0  0  0  0  0  0  0  0  0  0  0
    0.6650    1.0709   -0.2322 C   0  0  0  0  0  0  0  0  0  0  0  0
    3.1776   -0.2374   -0.0145 H   0  0  0  0  0  0  0  0  0  0  0  0
    2.4395   -1.8749   -0.2109 H   0  0  0  0  0  0  0  0  0  0  0  0
    2.2973   -0.6835   -1.5548 H   0  0  0  0  0  0  0  0  0  0  0  0
    1.0672   -0.4057    1.2501 H   0  0  0  0  0  0  0  0  0  0  0  0
   -0.0981   -2.1600   -0.0180 H   0  0  0  0  0  0  0  0  0  0  0  0
   -0.1985   -0.9933   -1.4455 H   0  0  0  0  0  0  0  0  0  0  0  0
   -1.0566   -0.4395    1.4389 H   0  0  0  0  0  0  0  0  0  0  0  0
   -2.7331   -1.6548   -0.6701 H   0  0  0  0  0  0  0  0  0  0  0  0
   -1.4404    1.4022   -1.0249 H   0  0  0  0  0  0  0  0  0  0  0  0
   -0.0744    1.7569    1.7821 H   0  0  0  0  0  0  0  0  0  0  0  0
   -0.0855    3.0391    0.4263 H   0  0  0  0  0  0  0  0  0  0  0  0
    1.0379    1.5172   -1.1929 H   0  0  0  0  0  0  0  0  0  0  0  0
  1  2  1  0
  2  3  1  0
  3  4  1  0
  4  5  1  0
  5  6  2  0
  4  7  1  0
  7  8  1  0
  8  9  1  0
  9  2  1  0
  9  7  1  0
  1 10  1  0
  1 11  1  0
  1 12  1  0
  2 13  1  0
  3 14  1  0
  3 15  1  0
  4 16  1  0
  5 17  1  0
  7 18  1  0
  8 19  1  0
  8 20  1  0
  9 21  1  0
M  END
