
     RDKit          3D

 21 22  0  0  0  0  0  0  0  0999 V2000
    2.5243   -0.5644   -0.0826 C   0  0  0  0  0  0  0  0  0  0  0  0
    1.4889    0.4066    0.4996 C   0  0  0  0  0  0  0  0  0  0  0  0
    0.9225    1.3197   -0.5629 C   0  0  0  0  0  0  0  0  0  0  0  0
    0.1248    0.1939    0.1000 C   0  0  0  0  0  0  0  0  0  0  0  0
   -1.1064    0.6925    0.7655 C   0  0  0  0  0  0  0  0  0  0  0  0
   -2.2261    0.4004   -0.2477 C   0  0  0  0  0  0  0  0  0  0  0  0
   -2.4756   -0.9518   -0.1223 O   0  0  0  0  0  0  0  0  0  0  0  0
   -1.2410   -1.6070   -0.0672 C   0  0  0  0  0  0  0  0  0  0  0  0
   -0.2340   -0.8997   -0.7041 O   0  0  0  0  0  0  0  0  0  0  0  0
    2.4377   -1.5251    0.4448 H   0  0  0  0  0  0  0  0  0  0  0  0
    2.2713   -0.7828   -1.1562 H   0  0  0  0  0  0  0  0  0  0  0  0
    3.5293   -0.1300   -0.0922 H   0  0  0  0  0  0  0  0  0  0  0  0
    1.8186    0.8363    1.4531 H   0  0  0  0  0  0  0  0  0  0  0  0
    0.7605    2.3527   -0.2302 H   0  0  0  0  0  0  0  0  0  0  0  0
    1.1390    1.1517   -1.6207 H   0  0  0  0  0  0  0  0  0  0  0  0
   -1.3663    0.1925    1.7071 H   0  0  0  0  0  0  0  0  0  0  0  0
   -1.1186    1.7791    0.9555 H   0  0  0  0  0  0  0  0  0  0  0  0
   -1.8232    0.5478   -1.2928 H   0  0  0  0  0  0  0  0  0  0  0  0
   -3.0800    1.0498   -0.1223 H   0  0  0  0  0  0  0  0  0  0  0  0
   -0.9733   -1.8782    0.9840 H   0  0  0  0  0  0  0  0  0  0  0  0
   -1.3724   -2.5840   -0.6083 H   0  0  0  0  0  0  0  0  0  0  0  0
  1  2  1  0
  2  3  1  0
  3  4  1  0
  4  5  1  0
  5  6  1  0
  6  7  1  0
  7  8  1  0
  8  9  1  0
  4  2  1  0
  9  4  1  0
  1 10  1  0
  1 11  1  0
  1 12  1  0
  2 13  1  0
  3 14  1  0
  3 15  1  0
  5 16  1  0
  5 17  1  0
  6 18  1  0
  6 19  1  0
  8 20  1  0
  8 21  1  0
M  END
