
     RDKit          3D

 23 25  0  0  0  0  0  0  0  0999 V2000
   -2.7425    0.0682   -0.3713 C   0  0  0  0  0  0  0  0  0  0  0  0
   -1.4752   -0.5589    0.1418 C   0  0  0  0  0  0  0  0  0  0  0  0
   -0.7526    0.4470    0.9870 C   0  0  0  0  0  0  0  0  0  0  0  0
    0.6894    0.1502    0.8141 C   0  0  0  0  0  0  0  0  0  0  0  0
    0.8366   -0.9688   -0.1774 C   0  0  0  0  0  0  0  0  0  0  0  0
   -0.4880   -0.8592   -0.9478 C   0  0  0  0  0  0  0  0  0  0  0  0
    1.9172   -0.2582   -0.9087 C   0  0  0  0  0  0  0  0  0  0  0  0
    2.8711    0.6588   -0.3093 C   0  0  0  0  0  0  0  0  0  0  0  0
    1.4465    1.0196   -0.1709 C   0  0  0  0  0  0  0  0  0  0  0  0
   -2.5582    1.0595   -0.8500 H   0  0  0  0  0  0  0  0  0  0  0  0
   -3.3749    0.2874    0.5277 H   0  0  0  0  0  0  0  0  0  0  0  0
   -3.3268   -0.6129   -1.0163 H   0  0  0  0  0  0  0  0  0  0  0  0
   -1.7413   -1.4866    0.6685 H   0  0  0  0  0  0  0  0  0  0  0  0
   -1.0483    1.4909    0.7883 H   0  0  0  0  0  0  0  0  0  0  0  0
   -1.0350    0.2227    2.0571 H   0  0  0  0  0  0  0  0  0  0  0  0
    1.2771    0.0654    1.7446 H   0  0  0  0  0  0  0  0  0  0  0  0
    1.0386   -1.9566    0.2321 H   0  0  0  0  0  0  0  0  0  0  0  0
   -0.4308   -0.0367   -1.6674 H   0  0  0  0  0  0  0  0  0  0  0  0
   -0.7046   -1.8108   -1.4532 H   0  0  0  0  0  0  0  0  0  0  0  0
    1.8326   -0.2549   -2.0158 H   0  0  0  0  0  0  0  0  0  0  0  0
    3.4774    1.2840   -0.9626 H   0  0  0  0  0  0  0  0  0  0  0  0
    3.3676    0.3272    0.6448 H   0  0  0  0  0  0  0  0  0  0  0  0
    0.9241    1.7227   -0.8132 H   0  0  0  0  0  0  0  0  0  0  0  0
  1  2  1  0
  2  3  1  0
  3  4  1  0
  4  5  1  0
  5  6  1  0
  5  7  1  0
  7  8  1  0
  8  9  1  0
  6  2  1  0
  9  7  1  0
  9  4  1  0
  1 10  1  0
  1 11  1  0
  1 12  1  0
  2 13  1  0
  3 14  1  0
  3 15  1  0
  4 16  1  0
  5 17  1  0
  6 18  1  0
  6 19  1  0
  7 20  1  0
  8 21  1  0
  8 22  1  0
  9 23  1  0
M  END
