
     RDKit          3D

 18 18  0  0  0  0  0  0  0  0999 V2000
   -1.6657    0.3638   -1.0353 C   0  0  0  0  0  0  0  0  0  0  0  0
   -0.9313   -0.1833    0.1654 C   0  0  0  0  0  0  0  0  0  0  0  0
   -0.0359    0.8214    0.9050 C   0  0  0  0  0  0  0  0  0  0  0  0
   -0.1311    0.7628    2.3091 O   0  0  0  0  0  0  0  0  0  0  0  0
    0.5386   -0.3308    0.1662 C   0  0  0  0  0  0  0  0  0  0  0  0
    1.3494   -0.1234   -1.0798 C   0  0  0  0  0  0  0  0  0  0  0  0
    1.0486   -1.4132    1.0455 C   0  0  0  0  0  0  0  0  0  0  0  0
    0.5032   -1.7126    2.1029 O   0  0  0  0  0  0  0  0  0  0  0  0
   -1.1073    1.1471   -1.5705 H   0  0  0  0  0  0  0  0  0  0  0  0
   -2.6097    0.8173   -0.6449 H   0  0  0  0  0  0  0  0  0  0  0  0
   -1.9539   -0.4955   -1.6628 H   0  0  0  0  0  0  0  0  0  0  0  0
   -1.5546   -0.8552    0.7883 H   0  0  0  0  0  0  0  0  0  0  0  0
    0.1192    1.8099    0.4314 H   0  0  0  0  0  0  0  0  0  0  0  0
   -0.3101    1.6484    2.6821 H   0  0  0  0  0  0  0  0  0  0  0  0
    2.3846    0.1625   -0.7612 H   0  0  0  0  0  0  0  0  0  0  0  0
    1.4612   -1.1187   -1.5703 H   0  0  0  0  0  0  0  0  0  0  0  0
    0.9639    0.6498   -1.7484 H   0  0  0  0  0  0  0  0  0  0  0  0
    1.9309   -1.9503    0.7355 H   0  0  0  0  0  0  0  0  0  0  0  0
  1  2  1  0
  2  3  1  0
  3  4  1  0
  3  5  1  0
  5  6  1  0
  5  7  1  0
  7  8  2  0
  5  2  1  0
  1  9  1  0
  1 10  1  0
  1 11  1  0
  2 12  1  0
  3 13  1  0
  4 14  1  0
  6 15  1  0
  6 16  1  0
  6 17  1  0
  7 18  1  0
M  END
