
     RDKit          3D

 21 23  0  0  0  0  0  0  0  0999 V2000
    2.5882    1.0883   -0.3782 C   0  0  0  0  0  0  0  0  0  0  0  0
    1.5247    0.0395   -0.2938 C   0  0  0  0  0  0  0  0  0  0  0  0
    0.8815   -0.3442    0.9619 C   0  0  0  0  0  0  0  0  0  0  0  0
    0.0006   -1.5862    0.8996 C   0  0  0  0  0  0  0  0  0  0  0  0
   -0.4967   -1.5067   -0.4235 O   0  0  0  0  0  0  0  0  0  0  0  0
   -1.0237   -0.2246   -0.4014 C   0  0  0  0  0  0  0  0  0  0  0  0
   -2.3686   -0.1196    0.2538 C   0  0  0  0  0  0  0  0  0  0  0  0
   -2.1354    0.2267   -1.1966 C   0  0  0  0  0  0  0  0  0  0  0  0
    0.1207    0.6045    0.0567 C   0  0  0  0  0  0  0  0  0  0  0  0
    2.1732    2.1170   -0.2432 H   0  0  0  0  0  0  0  0  0  0  0  0
    3.4080    0.9752    0.3359 H   0  0  0  0  0  0  0  0  0  0  0  0
    3.0441    1.0896   -1.3945 H   0  0  0  0  0  0  0  0  0  0  0  0
    1.5162   -0.7051   -1.1387 H   0  0  0  0  0  0  0  0  0  0  0  0
    1.1804    0.0617    1.9340 H   0  0  0  0  0  0  0  0  0  0  0  0
    0.5450   -2.5102    1.0867 H   0  0  0  0  0  0  0  0  0  0  0  0
   -0.8739   -1.4145    1.5492 H   0  0  0  0  0  0  0  0  0  0  0  0
   -2.9057   -1.0598    0.5146 H   0  0  0  0  0  0  0  0  0  0  0  0
   -2.4455    0.6659    1.0141 H   0  0  0  0  0  0  0  0  0  0  0  0
   -2.6014   -0.3884   -1.9893 H   0  0  0  0  0  0  0  0  0  0  0  0
   -2.1776    1.3292   -1.4344 H   0  0  0  0  0  0  0  0  0  0  0  0
    0.0458    1.6616    0.2871 H   0  0  0  0  0  0  0  0  0  0  0  0
  1  2  1  0
  2  3  1  0
  3  4  1  0
  4  5  1  0
  5  6  1  0
  6  7  1  0
  7  8  1  0
  6  9  1  0
  9  2  1  0
  9  3  1  0
  8  6  1  0
  1 10  1  0
  1 11  1  0
  1 12  1  0
  2 13  1  0
  3 14  1  0
  4 15  1  0
  4 16  1  0
  7 17  1  0
  7 18  1  0
  8 19  1  0
  8 20  1  0
  9 21  1  0
M  END
