
     RDKit          3D

 15 15  0  0  0  0  0  0  0  0999 V2000
   -1.9303   -0.9388    0.2749 C   0  0  0  0  0  0  0  0  0  0  0  0
   -0.8571    0.0644    0.4535 C   0  0  0  0  0  0  0  0  0  0  0  0
    0.0103    0.3581   -0.7532 C   0  0  0  0  0  0  0  0  0  0  0  0
    1.0018    0.5715    0.3937 C   0  0  0  0  0  0  0  0  0  0  0  0
    2.4045    0.2781    0.0606 C   0  0  0  0  0  0  0  0  0  0  0  0
    2.9892   -0.7461    0.3576 O   0  0  0  0  0  0  0  0  0  0  0  0
    0.3165   -0.3961    1.0933 O   0  0  0  0  0  0  0  0  0  0  0  0
   -1.8229   -1.7238    1.0708 H   0  0  0  0  0  0  0  0  0  0  0  0
   -2.9177   -0.4244    0.4503 H   0  0  0  0  0  0  0  0  0  0  0  0
   -1.9442   -1.4637   -0.6873 H   0  0  0  0  0  0  0  0  0  0  0  0
   -1.1820    1.0117    0.9384 H   0  0  0  0  0  0  0  0  0  0  0  0
   -0.1640    1.3126   -1.2506 H   0  0  0  0  0  0  0  0  0  0  0  0
    0.2677   -0.5027   -1.3710 H   0  0  0  0  0  0  0  0  0  0  0  0
    0.8767    1.5631    0.8767 H   0  0  0  0  0  0  0  0  0  0  0  0
    2.9514    1.0362   -0.4910 H   0  0  0  0  0  0  0  0  0  0  0  0
  1  2  1  0
  2  3  1  0
  3  4  1  0
  4  5  1  0
  5  6  2  0
  4  7  1  0
  7  2  1  0
  1  8  1  0
  1  9  1  0
  1 10  1  0
  2 11  1  0
  3 12  1  0
  3 13  1  0
  4 14  1  0
  5 15  1  0
M  END
