
     RDKit          3D

 19 20  0  0  0  0  0  0  0  0999 V2000
    2.3102   -0.3545    0.0999 C   0  0  0  0  0  0  0  0  0  0  0  0
    0.9399   -0.1935   -0.4962 C   0  0  0  0  0  0  0  0  0  0  0  0
    0.4746    1.2117   -0.5211 C   0  0  0  0  0  0  0  0  0  0  0  0
   -0.6790    1.5252    0.0463 C   0  0  0  0  0  0  0  0  0  0  0  0
   -1.4795    0.4532    0.7498 C   0  0  0  0  0  0  0  0  0  0  0  0
   -2.0527   -0.4674   -0.2914 C   0  0  0  0  0  0  0  0  0  0  0  0
   -1.0564   -1.4252   -0.5154 O   0  0  0  0  0  0  0  0  0  0  0  0
   -0.0177   -1.0730    0.3067 C   0  0  0  0  0  0  0  0  0  0  0  0
   -0.5472   -0.3615    1.3859 O   0  0  0  0  0  0  0  0  0  0  0  0
    2.2763   -0.7850    1.1259 H   0  0  0  0  0  0  0  0  0  0  0  0
    2.9021   -1.1061   -0.5014 H   0  0  0  0  0  0  0  0  0  0  0  0
    2.8997    0.5775    0.0923 H   0  0  0  0  0  0  0  0  0  0  0  0
    0.9796   -0.5659   -1.5546 H   0  0  0  0  0  0  0  0  0  0  0  0
    1.0442    1.9894   -0.9862 H   0  0  0  0  0  0  0  0  0  0  0  0
   -1.1234    2.5103    0.0568 H   0  0  0  0  0  0  0  0  0  0  0  0
   -2.2136    0.8837    1.4232 H   0  0  0  0  0  0  0  0  0  0  0  0
   -2.2186    0.1296   -1.2163 H   0  0  0  0  0  0  0  0  0  0  0  0
   -2.9596   -1.0056    0.0437 H   0  0  0  0  0  0  0  0  0  0  0  0
    0.5211   -1.9430    0.7523 H   0  0  0  0  0  0  0  0  0  0  0  0
  1  2  1  0
  2  3  1  0
  3  4  2  0
  4  5  1  0
  5  6  1  0
  6  7  1  0
  7  8  1  0
  8  9  1  0
  8  2  1  0
  9  5  1  0
  1 10  1  0
  1 11  1  0
  1 12  1  0
  2 13  1  0
  3 14  1  0
  4 15  1  0
  5 16  1  0
  6 17  1  0
  6 18  1  0
  8 19  1  0
M  END
