
     RDKit          3D

 21 21  0  0  0  0  0  0  0  0999 V2000
    2.3624   -0.4168   -0.0860 C   0  0  0  0  0  0  0  0  0  0  0  0
    0.8811   -0.4417   -0.2877 C   0  0  0  0  0  0  0  0  0  0  0  0
    0.1167   -1.3214    0.6281 C   0  0  0  0  0  0  0  0  0  0  0  0
    0.3001   -2.3668    1.1752 O   0  0  0  0  0  0  0  0  0  0  0  0
   -0.9758   -0.3194    0.5581 C   0  0  0  0  0  0  0  0  0  0  0  0
   -1.8154   -0.5679   -0.6738 C   0  0  0  0  0  0  0  0  0  0  0  0
   -1.6716   -0.0890    1.7175 O   0  0  0  0  0  0  0  0  0  0  0  0
    0.1243    0.7118    0.3664 C   0  0  0  0  0  0  0  0  0  0  0  0
   -0.1916    1.8575   -0.5122 C   0  0  0  0  0  0  0  0  0  0  0  0
    2.7932    0.1760   -0.9360 H   0  0  0  0  0  0  0  0  0  0  0  0
    2.7449   -1.4632   -0.2603 H   0  0  0  0  0  0  0  0  0  0  0  0
    2.6797   -0.0509    0.8962 H   0  0  0  0  0  0  0  0  0  0  0  0
    0.6402   -0.5683   -1.3679 H   0  0  0  0  0  0  0  0  0  0  0  0
   -2.0527    0.3558   -1.2291 H   0  0  0  0  0  0  0  0  0  0  0  0
   -2.7754   -1.0179   -0.3416 H   0  0  0  0  0  0  0  0  0  0  0  0
   -1.3519   -1.3328   -1.3520 H   0  0  0  0  0  0  0  0  0  0  0  0
   -1.5217   -0.7236    2.4390 H   0  0  0  0  0  0  0  0  0  0  0  0
    0.5806    0.9611    1.3347 H   0  0  0  0  0  0  0  0  0  0  0  0
    0.4893    2.7100   -0.2202 H   0  0  0  0  0  0  0  0  0  0  0  0
   -1.2194    2.2364   -0.2591 H   0  0  0  0  0  0  0  0  0  0  0  0
   -0.1368    1.6715   -1.5893 H   0  0  0  0  0  0  0  0  0  0  0  0
  1  2  1  0
  2  3  1  0
  3  4  2  0
  3  5  1  0
  5  6  1  0
  5  7  1  0
  5  8  1  0
  8  9  1  0
  8  2  1  0
  1 10  1  0
  1 11  1  0
  1 12  1  0
  2 13  1  0
  6 14  1  0
  6 15  1  0
  6 16  1  0
  7 17  1  0
  8 18  1  0
  9 19  1  0
  9 20  1  0
  9 21  1  0
M  END
