
     RDKit          3D

 23 24  0  0  0  0  0  0  0  0999 V2000
   -2.2597   -1.0057    0.5148 C   0  0  0  0  0  0  0  0  0  0  0  0
   -1.1112   -0.6246   -0.3766 C   0  0  0  0  0  0  0  0  0  0  0  0
    0.0016   -1.6131   -0.3151 C   0  0  0  0  0  0  0  0  0  0  0  0
    1.1880   -1.0468   -0.2673 C   0  0  0  0  0  0  0  0  0  0  0  0
    2.6186   -0.6672   -0.2059 C   0  0  0  0  0  0  0  0  0  0  0  0
    2.1228    0.5692    0.5847 C   0  0  0  0  0  0  0  0  0  0  0  0
    0.9301    0.4552   -0.3322 C   0  0  0  0  0  0  0  0  0  0  0  0
   -0.4385    0.6006    0.2828 C   0  0  0  0  0  0  0  0  0  0  0  0
   -1.1445    1.8070   -0.2895 C   0  0  0  0  0  0  0  0  0  0  0  0
   -3.0775   -1.4870   -0.0464 H   0  0  0  0  0  0  0  0  0  0  0  0
   -2.6823   -0.0483    0.9310 H   0  0  0  0  0  0  0  0  0  0  0  0
   -1.9350   -1.5847    1.4003 H   0  0  0  0  0  0  0  0  0  0  0  0
   -1.4364   -0.3986   -1.3931 H   0  0  0  0  0  0  0  0  0  0  0  0
   -0.2040   -2.6985   -0.3125 H   0  0  0  0  0  0  0  0  0  0  0  0
    2.9612   -0.3322   -1.2023 H   0  0  0  0  0  0  0  0  0  0  0  0
    3.2830   -1.3185    0.3631 H   0  0  0  0  0  0  0  0  0  0  0  0
    2.7603    1.4455    0.4603 H   0  0  0  0  0  0  0  0  0  0  0  0
    1.8297    0.2980    1.6204 H   0  0  0  0  0  0  0  0  0  0  0  0
    1.0282    0.8766   -1.3299 H   0  0  0  0  0  0  0  0  0  0  0  0
   -0.4579    0.5393    1.3671 H   0  0  0  0  0  0  0  0  0  0  0  0
   -0.5278    2.7332   -0.2193 H   0  0  0  0  0  0  0  0  0  0  0  0
   -1.3048    1.5821   -1.3791 H   0  0  0  0  0  0  0  0  0  0  0  0
   -2.1440    1.9185    0.1448 H   0  0  0  0  0  0  0  0  0  0  0  0
  1  2  1  0
  2  3  1  0
  3  4  2  0
  4  5  1  0
  5  6  1  0
  6  7  1  0
  7  8  1  0
  8  9  1  0
  8  2  1  0
  7  4  1  0
  1 10  1  0
  1 11  1  0
  1 12  1  0
  2 13  1  0
  3 14  1  0
  5 15  1  0
  5 16  1  0
  6 17  1  0
  6 18  1  0
  7 19  1  0
  8 20  1  0
  9 21  1  0
  9 22  1  0
  9 23  1  0
M  END
