
     RDKit          3D

 18 19  0  0  0  0  0  0  0  0999 V2000
   -1.9468   -0.0977   -0.5575 C   0  0  0  0  0  0  0  0  0  0  0  0
   -0.8496   -0.1655    0.5155 C   0  0  0  0  0  0  0  0  0  0  0  0
    0.0704    1.0207    0.3311 C   0  0  0  0  0  0  0  0  0  0  0  0
    0.7468    1.3965    1.5104 O   0  0  0  0  0  0  0  0  0  0  0  0
    0.9931    0.0700   -0.4339 C   0  0  0  0  0  0  0  0  0  0  0  0
    1.2119    0.2461   -1.7620 O   0  0  0  0  0  0  0  0  0  0  0  0
    1.6357   -0.9398    0.4055 C   0  0  0  0  0  0  0  0  0  0  0  0
    0.2168   -1.1075    0.0759 C   0  0  0  0  0  0  0  0  0  0  0  0
   -2.7686    0.5705   -0.2559 H   0  0  0  0  0  0  0  0  0  0  0  0
   -2.2838   -1.1405   -0.7641 H   0  0  0  0  0  0  0  0  0  0  0  0
   -1.4858    0.2800   -1.4908 H   0  0  0  0  0  0  0  0  0  0  0  0
   -1.2300   -0.2522    1.5323 H   0  0  0  0  0  0  0  0  0  0  0  0
   -0.2981    1.8391   -0.2819 H   0  0  0  0  0  0  0  0  0  0  0  0
    0.0630    1.4381    2.2143 H   0  0  0  0  0  0  0  0  0  0  0  0
    1.7976    1.0473   -1.8795 H   0  0  0  0  0  0  0  0  0  0  0  0
    2.3476   -1.6165   -0.0613 H   0  0  0  0  0  0  0  0  0  0  0  0
    1.8435   -0.6488    1.4771 H   0  0  0  0  0  0  0  0  0  0  0  0
   -0.0637   -1.9397   -0.5753 H   0  0  0  0  0  0  0  0  0  0  0  0
  1  2  1  0
  2  3  1  0
  3  4  1  0
  3  5  1  0
  5  6  1  0
  5  7  1  0
  7  8  1  0
  8  2  1  0
  8  5  1  0
  1  9  1  0
  1 10  1  0
  1 11  1  0
  2 12  1  0
  3 13  1  0
  4 14  1  0
  6 15  1  0
  7 16  1  0
  7 17  1  0
  8 18  1  0
M  END
