
     RDKit          3D

 21 22  0  0  0  0  0  0  0  0999 V2000
    2.3381   -0.6588    0.5668 C   0  0  0  0  0  0  0  0  0  0  0  0
    1.2521    0.2368    0.0140 C   0  0  0  0  0  0  0  0  0  0  0  0
    0.3320   -0.5450   -0.9254 C   0  0  0  0  0  0  0  0  0  0  0  0
   -1.0505   -0.4321   -0.3937 C   0  0  0  0  0  0  0  0  0  0  0  0
   -1.4139    1.0340   -0.3181 C   0  0  0  0  0  0  0  0  0  0  0  0
   -0.3872    1.6996    0.5863 C   0  0  0  0  0  0  0  0  0  0  0  0
    0.5443    0.7856    1.0756 O   0  0  0  0  0  0  0  0  0  0  0  0
   -1.9624   -1.4309   -0.1042 C   0  0  0  0  0  0  0  0  0  0  0  0
   -1.1007   -0.9881    0.9907 O   0  0  0  0  0  0  0  0  0  0  0  0
    3.3422   -0.3255    0.1925 H   0  0  0  0  0  0  0  0  0  0  0  0
    2.2249   -1.7132    0.2494 H   0  0  0  0  0  0  0  0  0  0  0  0
    2.3472   -0.6758    1.6817 H   0  0  0  0  0  0  0  0  0  0  0  0
    1.7309    1.0842   -0.5216 H   0  0  0  0  0  0  0  0  0  0  0  0
    0.6788   -1.5805   -1.0752 H   0  0  0  0  0  0  0  0  0  0  0  0
    0.3629   -0.0394   -1.9173 H   0  0  0  0  0  0  0  0  0  0  0  0
   -2.4409    1.1741    0.0193 H   0  0  0  0  0  0  0  0  0  0  0  0
   -1.2680    1.4546   -1.3541 H   0  0  0  0  0  0  0  0  0  0  0  0
   -0.9363    2.1708    1.4315 H   0  0  0  0  0  0  0  0  0  0  0  0
    0.1896    2.4842    0.0535 H   0  0  0  0  0  0  0  0  0  0  0  0
   -3.0326   -1.2268    0.0327 H   0  0  0  0  0  0  0  0  0  0  0  0
   -1.7506   -2.5079   -0.2845 H   0  0  0  0  0  0  0  0  0  0  0  0
  1  2  1  0
  2  3  1  0
  3  4  1  0
  4  5  1  0
  5  6  1  0
  6  7  1  0
  4  8  1  0
  8  9  1  0
  7  2  1  0
  9  4  1  0
  1 10  1  0
  1 11  1  0
  1 12  1  0
  2 13  1  0
  3 14  1  0
  3 15  1  0
  5 16  1  0
  5 17  1  0
  6 18  1  0
  6 19  1  0
  8 20  1  0
  8 21  1  0
M  END
