
     RDKit          3D

 23 25  0  0  0  0  0  0  0  0999 V2000
    2.6626   -0.0266    0.2314 C   0  0  0  0  0  0  0  0  0  0  0  0
    1.4037   -0.2448   -0.5274 C   0  0  0  0  0  0  0  0  0  0  0  0
    0.4624   -1.2295    0.1915 C   0  0  0  0  0  0  0  0  0  0  0  0
   -0.7970   -0.4310    0.1557 C   0  0  0  0  0  0  0  0  0  0  0  0
   -2.0517   -1.0082    0.6072 C   0  0  0  0  0  0  0  0  0  0  0  0
   -0.3800    0.9240    0.6335 C   0  0  0  0  0  0  0  0  0  0  0  0
   -1.4644    1.4605   -0.2579 C   0  0  0  0  0  0  0  0  0  0  0  0
   -0.7820    0.4090   -1.0989 C   0  0  0  0  0  0  0  0  0  0  0  0
    0.4973    0.9532   -0.5867 C   0  0  0  0  0  0  0  0  0  0  0  0
    2.5601    0.0354    1.3172 H   0  0  0  0  0  0  0  0  0  0  0  0
    3.3620   -0.8652   -0.0255 H   0  0  0  0  0  0  0  0  0  0  0  0
    3.1342    0.9163   -0.1093 H   0  0  0  0  0  0  0  0  0  0  0  0
    1.6007   -0.6791   -1.5133 H   0  0  0  0  0  0  0  0  0  0  0  0
    0.3717   -2.1730   -0.3552 H   0  0  0  0  0  0  0  0  0  0  0  0
    0.8244   -1.4582    1.2073 H   0  0  0  0  0  0  0  0  0  0  0  0
   -1.9628   -2.0894    0.8359 H   0  0  0  0  0  0  0  0  0  0  0  0
   -2.8473   -0.9354   -0.1909 H   0  0  0  0  0  0  0  0  0  0  0  0
   -2.5055   -0.5035    1.4948 H   0  0  0  0  0  0  0  0  0  0  0  0
   -0.1487    1.2139    1.5602 H   0  0  0  0  0  0  0  0  0  0  0  0
   -1.2865    2.4858   -0.6342 H   0  0  0  0  0  0  0  0  0  0  0  0
   -2.4965    1.2411    0.0188 H   0  0  0  0  0  0  0  0  0  0  0  0
   -1.0377    0.1167   -2.0191 H   0  0  0  0  0  0  0  0  0  0  0  0
    0.8808    1.8879   -0.9353 H   0  0  0  0  0  0  0  0  0  0  0  0
  1  2  1  0
  2  3  1  0
  3  4  1  0
  4  5  1  0
  4  6  1  0
  6  7  1  0
  7  8  1  0
  8  9  1  0
  9  2  1  0
  8  4  1  0
  9  6  1  0
  1 10  1  0
  1 11  1  0
  1 12  1  0
  2 13  1  0
  3 14  1  0
  3 15  1  0
  5 16  1  0
  5 17  1  0
  5 18  1  0
  6 19  1  0
  7 20  1  0
  7 21  1  0
  8 22  1  0
  9 23  1  0
M  END
