
     RDKit          3D

 17 19  0  0  0  0  0  0  0  0999 V2000
    1.3977   -0.6402    0.8380 C   0  0  0  0  0  0  0  0  0  0  0  0
    0.8487    0.5007    0.0415 C   0  0  0  0  0  0  0  0  0  0  0  0
    0.0923    0.1193   -1.2176 C   0  0  0  0  0  0  0  0  0  0  0  0
   -0.7204    1.3238   -0.9471 C   0  0  0  0  0  0  0  0  0  0  0  0
   -1.2723    2.1730   -1.5742 O   0  0  0  0  0  0  0  0  0  0  0  0
   -0.5321    0.9875    0.4781 C   0  0  0  0  0  0  0  0  0  0  0  0
   -1.2835   -0.3059    0.5919 C   0  0  0  0  0  0  0  0  0  0  0  0
   -2.1455   -0.6870   -0.4278 O   0  0  0  0  0  0  0  0  0  0  0  0
   -0.8079   -0.9694   -0.7153 C   0  0  0  0  0  0  0  0  0  0  0  0
    0.7266   -0.9104    1.6548 H   0  0  0  0  0  0  0  0  0  0  0  0
    1.5998   -1.5122    0.1749 H   0  0  0  0  0  0  0  0  0  0  0  0
    2.3543   -0.2809    1.3070 H   0  0  0  0  0  0  0  0  0  0  0  0
    1.5396    1.3579   -0.1137 H   0  0  0  0  0  0  0  0  0  0  0  0
    0.6189    0.0166   -2.1282 H   0  0  0  0  0  0  0  0  0  0  0  0
   -0.5963    1.7275    1.2265 H   0  0  0  0  0  0  0  0  0  0  0  0
   -1.3075   -0.8900    1.5032 H   0  0  0  0  0  0  0  0  0  0  0  0
   -0.5127   -2.0103   -0.6920 H   0  0  0  0  0  0  0  0  0  0  0  0
  1  2  1  0
  2  3  1  0
  3  4  1  0
  4  5  2  0
  4  6  1  0
  6  7  1  0
  7  8  1  0
  8  9  1  0
  6  2  1  0
  9  7  1  0
  9  3  1  0
  1 10  1  0
  1 11  1  0
  1 12  1  0
  2 13  1  0
  3 14  1  0
  6 15  1  0
  7 16  1  0
  9 17  1  0
M  END
