
     RDKit          3D

 21 23  0  0  0  0  0  0  0  0999 V2000
   -2.0663    0.4096    0.7037 C   0  0  0  0  0  0  0  0  0  0  0  0
   -1.0272    0.5894   -0.3920 C   0  0  0  0  0  0  0  0  0  0  0  0
   -0.8767   -0.7936   -1.0546 C   0  0  0  0  0  0  0  0  0  0  0  0
    0.4554   -1.1829   -0.5007 C   0  0  0  0  0  0  0  0  0  0  0  0
    0.6028   -0.5510    0.8577 C   0  0  0  0  0  0  0  0  0  0  0  0
    2.0570   -0.3546    0.4951 C   0  0  0  0  0  0  0  0  0  0  0  0
    1.3051    0.0127   -0.7582 C   0  0  0  0  0  0  0  0  0  0  0  0
    0.3544    0.7338    0.1619 C   0  0  0  0  0  0  0  0  0  0  0  0
    0.7365    1.8970    0.7106 O   0  0  0  0  0  0  0  0  0  0  0  0
   -3.0195    0.8388    0.3247 H   0  0  0  0  0  0  0  0  0  0  0  0
   -2.2577   -0.6602    0.9282 H   0  0  0  0  0  0  0  0  0  0  0  0
   -1.7412    0.8681    1.6641 H   0  0  0  0  0  0  0  0  0  0  0  0
   -1.3058    1.3557   -1.1209 H   0  0  0  0  0  0  0  0  0  0  0  0
   -1.6998   -1.4555   -0.8152 H   0  0  0  0  0  0  0  0  0  0  0  0
   -0.7441   -0.5783   -2.1369 H   0  0  0  0  0  0  0  0  0  0  0  0
    0.8394   -2.1667   -0.6622 H   0  0  0  0  0  0  0  0  0  0  0  0
    0.2448   -0.8915    1.7263 H   0  0  0  0  0  0  0  0  0  0  0  0
    2.5701    0.4823    0.9781 H   0  0  0  0  0  0  0  0  0  0  0  0
    2.6033   -1.3125    0.4733 H   0  0  0  0  0  0  0  0  0  0  0  0
    1.6858    0.3474   -1.6182 H   0  0  0  0  0  0  0  0  0  0  0  0
    1.2838    2.4124    0.0351 H   0  0  0  0  0  0  0  0  0  0  0  0
  1  2  1  0
  2  3  1  0
  3  4  1  0
  4  5  1  0
  5  6  1  0
  6  7  1  0
  7  8  1  0
  8  9  1  0
  8  2  1  0
  7  4  1  0
  8  5  1  0
  1 10  1  0
  1 11  1  0
  1 12  1  0
  2 13  1  0
  3 14  1  0
  3 15  1  0
  4 16  1  0
  5 17  1  0
  6 18  1  0
  6 19  1  0
  7 20  1  0
  9 21  1  0
M  END
