
     RDKit          3D

 25 26  0  0  0  0  0  0  0  0999 V2000
   -3.1217    0.1728   -0.4658 C   0  0  0  0  0  0  0  0  0  0  0  0
   -1.9099    0.2737    0.4441 C   0  0  0  0  0  0  0  0  0  0  0  0
   -1.0094   -0.9498    0.2326 C   0  0  0  0  0  0  0  0  0  0  0  0
    0.0553   -0.0398   -0.1997 C   0  0  0  0  0  0  0  0  0  0  0  0
   -0.8189    1.1630   -0.1287 C   0  0  0  0  0  0  0  0  0  0  0  0
    0.9701   -0.2017   -1.3012 C   0  0  0  0  0  0  0  0  0  0  0  0
    1.4520   -0.0887    0.1440 C   0  0  0  0  0  0  0  0  0  0  0  0
    2.2462    1.1297    0.5427 C   0  0  0  0  0  0  0  0  0  0  0  0
    2.0351   -1.3924    0.6814 C   0  0  0  0  0  0  0  0  0  0  0  0
   -2.7805   -0.1542   -1.4700 H   0  0  0  0  0  0  0  0  0  0  0  0
   -3.6373    1.1470   -0.5829 H   0  0  0  0  0  0  0  0  0  0  0  0
   -3.7979   -0.6066   -0.0808 H   0  0  0  0  0  0  0  0  0  0  0  0
   -2.1409    0.5003    1.4866 H   0  0  0  0  0  0  0  0  0  0  0  0
   -0.7553   -1.4748    1.1860 H   0  0  0  0  0  0  0  0  0  0  0  0
   -1.4129   -1.6877   -0.4781 H   0  0  0  0  0  0  0  0  0  0  0  0
   -0.4080    1.9122    0.5608 H   0  0  0  0  0  0  0  0  0  0  0  0
   -1.1070    1.5523   -1.1399 H   0  0  0  0  0  0  0  0  0  0  0  0
    1.0261   -1.1863   -1.8025 H   0  0  0  0  0  0  0  0  0  0  0  0
    1.2577    0.6862   -1.9181 H   0  0  0  0  0  0  0  0  0  0  0  0
    3.3448    0.9912    0.3961 H   0  0  0  0  0  0  0  0  0  0  0  0
    2.0736    1.3930    1.6002 H   0  0  0  0  0  0  0  0  0  0  0  0
    1.9439    2.0313   -0.0604 H   0  0  0  0  0  0  0  0  0  0  0  0
    1.3575   -2.2246    0.3763 H   0  0  0  0  0  0  0  0  0  0  0  0
    2.1212   -1.3259    1.7806 H   0  0  0  0  0  0  0  0  0  0  0  0
    3.0160   -1.6204    0.1967 H   0  0  0  0  0  0  0  0  0  0  0  0
  1  2  1  0
  2  3  1  0
  3  4  1  0
  4  5  1  0
  4  6  1  0
  6  7  1  0
  7  8  1  0
  7  9  1  0
  5  2  1  0
  7  4  1  0
  1 10  1  0
  1 11  1  0
  1 12  1  0
  2 13  1  0
  3 14  1  0
  3 15  1  0
  5 16  1  0
  5 17  1  0
  6 18  1  0
  6 19  1  0
  8 20  1  0
  8 21  1  0
  8 22  1  0
  9 23  1  0
  9 24  1  0
  9 25  1  0
M  END
