
     RDKit          3D

 25 26  0  0  0  0  0  0  0  0999 V2000
    2.4277   -0.9336   -0.3119 C   0  0  0  0  0  0  0  0  0  0  0  0
    1.4360    0.1651   -0.2630 C   0  0  0  0  0  0  0  0  0  0  0  0
    0.8131    0.4651    1.0702 C   0  0  0  0  0  0  0  0  0  0  0  0
   -0.4785    0.7810    0.3158 C   0  0  0  0  0  0  0  0  0  0  0  0
   -0.6569    2.2002   -0.0831 C   0  0  0  0  0  0  0  0  0  0  0  0
   -1.6339    0.0457    0.8696 C   0  0  0  0  0  0  0  0  0  0  0  0
   -1.8305   -1.1963    0.0392 C   0  0  0  0  0  0  0  0  0  0  0  0
   -0.5451   -1.3723   -0.7566 C   0  0  0  0  0  0  0  0  0  0  0  0
    0.0904   -0.0497   -0.8340 C   0  0  0  0  0  0  0  0  0  0  0  0
    2.9334   -0.9053   -1.3044 H   0  0  0  0  0  0  0  0  0  0  0  0
    3.2045   -0.7606    0.4899 H   0  0  0  0  0  0  0  0  0  0  0  0
    2.0497   -1.9376   -0.1531 H   0  0  0  0  0  0  0  0  0  0  0  0
    1.8899    1.1107   -0.6812 H   0  0  0  0  0  0  0  0  0  0  0  0
    1.2516    1.3502    1.5881 H   0  0  0  0  0  0  0  0  0  0  0  0
    0.7176   -0.4126    1.7509 H   0  0  0  0  0  0  0  0  0  0  0  0
   -1.6043    2.5824    0.3128 H   0  0  0  0  0  0  0  0  0  0  0  0
   -0.6836    2.2767   -1.1988 H   0  0  0  0  0  0  0  0  0  0  0  0
    0.2312    2.8079    0.2227 H   0  0  0  0  0  0  0  0  0  0  0  0
   -1.4061   -0.3120    1.9135 H   0  0  0  0  0  0  0  0  0  0  0  0
   -2.5202    0.7053    0.8895 H   0  0  0  0  0  0  0  0  0  0  0  0
   -2.0248   -2.1003    0.6545 H   0  0  0  0  0  0  0  0  0  0  0  0
   -2.7074   -1.0287   -0.6025 H   0  0  0  0  0  0  0  0  0  0  0  0
    0.0318   -2.1835   -0.3220 H   0  0  0  0  0  0  0  0  0  0  0  0
   -0.8787   -1.7318   -1.7734 H   0  0  0  0  0  0  0  0  0  0  0  0
   -0.1069    0.4341   -1.8327 H   0  0  0  0  0  0  0  0  0  0  0  0
  1  2  1  0
  2  3  1  0
  3  4  1  0
  4  5  1  0
  4  6  1  0
  6  7  1  0
  7  8  1  0
  8  9  1  0
  9  2  1  0
  9  4  1  0
  1 10  1  0
  1 11  1  0
  1 12  1  0
  2 13  1  0
  3 14  1  0
  3 15  1  0
  5 16  1  0
  5 17  1  0
  5 18  1  0
  6 19  1  0
  6 20  1  0
  7 21  1  0
  7 22  1  0
  8 23  1  0
  8 24  1  0
  9 25  1  0
M  END
