
     RDKit          3D

 23 24  0  0  0  0  0  0  0  0999 V2000
   -1.5447    1.4619   -0.7185 C   0  0  0  0  0  0  0  0  0  0  0  0
   -0.6195    0.2977   -0.7899 C   0  0  0  0  0  0  0  0  0  0  0  0
   -1.2425   -0.9724   -0.1876 C   0  0  0  0  0  0  0  0  0  0  0  0
   -0.0221   -1.7978    0.2106 C   0  0  0  0  0  0  0  0  0  0  0  0
    1.0726   -1.0362   -0.4024 C   0  0  0  0  0  0  0  0  0  0  0  0
    1.9173    0.0153   -0.0225 C   0  0  0  0  0  0  0  0  0  0  0  0
    2.6610    0.7417   -0.9842 O   0  0  0  0  0  0  0  0  0  0  0  0
    0.5514    0.3730    0.0965 C   0  0  0  0  0  0  0  0  0  0  0  0
    0.0957    0.5032    1.5266 C   0  0  0  0  0  0  0  0  0  0  0  0
   -2.0746    1.5465   -1.7001 H   0  0  0  0  0  0  0  0  0  0  0  0
   -2.2889    1.3777    0.0995 H   0  0  0  0  0  0  0  0  0  0  0  0
   -0.9485    2.3823   -0.5252 H   0  0  0  0  0  0  0  0  0  0  0  0
   -0.4004    0.0432   -1.8439 H   0  0  0  0  0  0  0  0  0  0  0  0
   -1.8589   -0.7718    0.6835 H   0  0  0  0  0  0  0  0  0  0  0  0
   -1.8773   -1.4861   -0.9334 H   0  0  0  0  0  0  0  0  0  0  0  0
    0.0275   -2.0349    1.2632 H   0  0  0  0  0  0  0  0  0  0  0  0
   -0.1660   -2.7986   -0.3017 H   0  0  0  0  0  0  0  0  0  0  0  0
    1.0375   -1.1866   -1.5300 H   0  0  0  0  0  0  0  0  0  0  0  0
    2.5616   -0.1420    0.8755 H   0  0  0  0  0  0  0  0  0  0  0  0
    3.0176    1.5708   -0.5830 H   0  0  0  0  0  0  0  0  0  0  0  0
   -0.9691    0.7724    1.6617 H   0  0  0  0  0  0  0  0  0  0  0  0
    0.6374    1.4282    1.9071 H   0  0  0  0  0  0  0  0  0  0  0  0
    0.4328   -0.2875    2.1983 H   0  0  0  0  0  0  0  0  0  0  0  0
  1  2  1  0
  2  3  1  0
  3  4  1  0
  4  5  1  0
  5  6  1  0
  6  7  1  0
  6  8  1  0
  8  9  1  0
  8  2  1  0
  8  5  1  0
  1 10  1  0
  1 11  1  0
  1 12  1  0
  2 13  1  0
  3 14  1  0
  3 15  1  0
  4 16  1  0
  4 17  1  0
  5 18  1  0
  6 19  1  0
  7 20  1  0
  9 21  1  0
  9 22  1  0
  9 23  1  0
M  END
