
     RDKit          3D

 23 24  0  0  0  0  0  0  0  0999 V2000
    1.8631    0.6659   -0.8560 C   0  0  0  0  0  0  0  0  0  0  0  0
    1.1473   -0.3525   -0.0548 C   0  0  0  0  0  0  0  0  0  0  0  0
    1.3290   -0.2356    1.4689 C   0  0  0  0  0  0  0  0  0  0  0  0
   -0.0732   -0.8666    1.5423 C   0  0  0  0  0  0  0  0  0  0  0  0
   -0.2891   -0.1787    0.2208 C   0  0  0  0  0  0  0  0  0  0  0  0
   -0.8723    1.1667    0.3059 C   0  0  0  0  0  0  0  0  0  0  0  0
   -1.9165    0.7254   -0.7287 C   0  0  0  0  0  0  0  0  0  0  0  0
   -1.3067   -0.6830   -0.6881 C   0  0  0  0  0  0  0  0  0  0  0  0
   -0.8905   -1.0340   -1.9847 O   0  0  0  0  0  0  0  0  0  0  0  0
    2.7450    1.0419   -0.3027 H   0  0  0  0  0  0  0  0  0  0  0  0
    2.2527    0.1559   -1.7849 H   0  0  0  0  0  0  0  0  0  0  0  0
    1.2244    1.4923   -1.2403 H   0  0  0  0  0  0  0  0  0  0  0  0
    1.3726   -1.4277   -0.3130 H   0  0  0  0  0  0  0  0  0  0  0  0
    1.2739    0.8241    1.7524 H   0  0  0  0  0  0  0  0  0  0  0  0
    2.1270   -0.8453    1.8825 H   0  0  0  0  0  0  0  0  0  0  0  0
    0.0545   -1.9642    1.5014 H   0  0  0  0  0  0  0  0  0  0  0  0
   -0.6949   -0.5020    2.3563 H   0  0  0  0  0  0  0  0  0  0  0  0
   -1.3303    1.3402    1.3236 H   0  0  0  0  0  0  0  0  0  0  0  0
   -0.2839    2.0364    0.0288 H   0  0  0  0  0  0  0  0  0  0  0  0
   -1.7511    1.2702   -1.6600 H   0  0  0  0  0  0  0  0  0  0  0  0
   -2.9528    0.7739   -0.3340 H   0  0  0  0  0  0  0  0  0  0  0  0
   -2.0598   -1.3956   -0.3227 H   0  0  0  0  0  0  0  0  0  0  0  0
   -0.9684   -2.0079   -2.1131 H   0  0  0  0  0  0  0  0  0  0  0  0
  1  2  1  0
  2  3  1  0
  3  4  1  0
  4  5  1  0
  5  6  1  0
  6  7  1  0
  7  8  1  0
  8  9  1  0
  5  2  1  0
  8  5  1  0
  1 10  1  0
  1 11  1  0
  1 12  1  0
  2 13  1  0
  3 14  1  0
  3 15  1  0
  4 16  1  0
  4 17  1  0
  6 18  1  0
  6 19  1  0
  7 20  1  0
  7 21  1  0
  8 22  1  0
  9 23  1  0
M  END
