
     RDKit          3D

 18 19  0  0  0  0  0  0  0  0999 V2000
   -2.1162    0.4390   -0.1657 C   0  0  0  0  0  0  0  0  0  0  0  0
   -0.8652   -0.2332   -0.6322 C   0  0  0  0  0  0  0  0  0  0  0  0
    0.2597    0.7064   -1.0213 C   0  0  0  0  0  0  0  0  0  0  0  0
    0.9825    0.3118    0.2080 C   0  0  0  0  0  0  0  0  0  0  0  0
    2.3201    0.3825    0.5368 C   0  0  0  0  0  0  0  0  0  0  0  0
    1.2711    1.1830    1.2223 O   0  0  0  0  0  0  0  0  0  0  0  0
    0.0234   -0.7856    0.4820 C   0  0  0  0  0  0  0  0  0  0  0  0
    0.5197   -2.0560    0.1950 O   0  0  0  0  0  0  0  0  0  0  0  0
   -2.9116    0.3630   -0.9547 H   0  0  0  0  0  0  0  0  0  0  0  0
   -2.5239   -0.1262    0.7051 H   0  0  0  0  0  0  0  0  0  0  0  0
   -1.9422    1.4837    0.1315 H   0  0  0  0  0  0  0  0  0  0  0  0
   -1.1085   -1.0116   -1.3876 H   0  0  0  0  0  0  0  0  0  0  0  0
   -0.0253    1.7689   -1.1242 H   0  0  0  0  0  0  0  0  0  0  0  0
    0.7531    0.3024   -1.9428 H   0  0  0  0  0  0  0  0  0  0  0  0
    3.0110    1.1030    0.0528 H   0  0  0  0  0  0  0  0  0  0  0  0
    2.7922   -0.3624    1.2371 H   0  0  0  0  0  0  0  0  0  0  0  0
   -0.5337   -0.7096    1.4414 H   0  0  0  0  0  0  0  0  0  0  0  0
    0.0938   -2.7592    0.7436 H   0  0  0  0  0  0  0  0  0  0  0  0
  1  2  1  0
  2  3  1  0
  3  4  1  0
  4  5  1  0
  5  6  1  0
  4  7  1  0
  7  8  1  0
  7  2  1  0
  6  4  1  0
  1  9  1  0
  1 10  1  0
  1 11  1  0
  2 12  1  0
  3 13  1  0
  3 14  1  0
  5 15  1  0
  5 16  1  0
  7 17  1  0
  8 18  1  0
M  END
