
     RDKit          3D

 18 20  0  0  0  0  0  0  0  0999 V2000
    1.9758    0.2289    0.4965 C   0  0  0  0  0  0  0  0  0  0  0  0
    0.4614    0.2127    0.7265 C   0  0  0  0  0  0  0  0  0  0  0  0
   -0.3306    0.8138   -0.3569 C   0  0  0  0  0  0  0  0  0  0  0  0
   -1.6408    1.1206   -0.5825 C   0  0  0  0  0  0  0  0  0  0  0  0
   -1.3772   -0.2857   -0.7016 C   0  0  0  0  0  0  0  0  0  0  0  0
   -0.2834   -1.2679   -0.7406 C   0  0  0  0  0  0  0  0  0  0  0  0
    0.0913   -2.2534    0.0531 O   0  0  0  0  0  0  0  0  0  0  0  0
    0.0354   -1.1929    0.7923 C   0  0  0  0  0  0  0  0  0  0  0  0
    2.1657    0.1369   -0.6133 H   0  0  0  0  0  0  0  0  0  0  0  0
    2.4536   -0.6325    0.9631 H   0  0  0  0  0  0  0  0  0  0  0  0
    2.3691    1.2085    0.7988 H   0  0  0  0  0  0  0  0  0  0  0  0
    0.3395    0.7138    1.7207 H   0  0  0  0  0  0  0  0  0  0  0  0
    0.3493    0.9597   -1.2710 H   0  0  0  0  0  0  0  0  0  0  0  0
   -1.9817    1.6371   -1.5301 H   0  0  0  0  0  0  0  0  0  0  0  0
   -2.1829    1.6458    0.2690 H   0  0  0  0  0  0  0  0  0  0  0  0
   -2.1205   -0.7351   -0.0261 H   0  0  0  0  0  0  0  0  0  0  0  0
    0.5824   -1.0510   -1.4378 H   0  0  0  0  0  0  0  0  0  0  0  0
   -0.9064   -1.2593    1.4400 H   0  0  0  0  0  0  0  0  0  0  0  0
  1  2  1  0
  2  3  1  0
  3  4  1  0
  4  5  1  0
  5  6  1  0
  6  7  1  0
  7  8  1  0
  8  2  1  0
  5  3  1  0
  8  6  1  0
  1  9  1  0
  1 10  1  0
  1 11  1  0
  2 12  1  0
  3 13  1  0
  4 14  1  0
  4 15  1  0
  5 16  1  0
  6 17  1  0
  8 18  1  0
M  END
