
     RDKit          3D

 21 22  0  0  0  0  0  0  0  0999 V2000
    2.6046    1.3467    0.0877 C   0  0  0  0  0  0  0  0  0  0  0  0
    1.8273    0.1243   -0.2632 C   0  0  0  0  0  0  0  0  0  0  0  0
    0.6350   -0.1105    0.6702 C   0  0  0  0  0  0  0  0  0  0  0  0
   -0.0031   -0.3599   -0.6383 C   0  0  0  0  0  0  0  0  0  0  0  0
   -0.5835   -1.6685   -0.9133 C   0  0  0  0  0  0  0  0  0  0  0  0
   -1.4164   -0.4229   -0.9153 C   0  0  0  0  0  0  0  0  0  0  0  0
   -2.4646   -0.2018    0.1348 C   0  0  0  0  0  0  0  0  0  0  0  0
   -2.2906    1.1005    0.6554 O   0  0  0  0  0  0  0  0  0  0  0  0
    0.9523    0.2637   -1.3644 O   0  0  0  0  0  0  0  0  0  0  0  0
    3.5788    1.0330    0.5588 H   0  0  0  0  0  0  0  0  0  0  0  0
    2.8294    1.9911   -0.7868 H   0  0  0  0  0  0  0  0  0  0  0  0
    2.0555    1.9119    0.8866 H   0  0  0  0  0  0  0  0  0  0  0  0
    2.4461   -0.7765   -0.4323 H   0  0  0  0  0  0  0  0  0  0  0  0
    0.3651    0.8026    1.2206 H   0  0  0  0  0  0  0  0  0  0  0  0
    0.8255   -1.0187    1.2698 H   0  0  0  0  0  0  0  0  0  0  0  0
   -0.3209   -2.1615   -1.8530 H   0  0  0  0  0  0  0  0  0  0  0  0
   -0.6594   -2.3707   -0.0357 H   0  0  0  0  0  0  0  0  0  0  0  0
   -1.7617   -0.1294   -1.9433 H   0  0  0  0  0  0  0  0  0  0  0  0
   -2.3452   -0.9071    0.9835 H   0  0  0  0  0  0  0  0  0  0  0  0
   -3.4874   -0.2042   -0.2938 H   0  0  0  0  0  0  0  0  0  0  0  0
   -2.7867    1.7580    0.0725 H   0  0  0  0  0  0  0  0  0  0  0  0
  1  2  1  0
  2  3  1  0
  3  4  1  0
  4  5  1  0
  5  6  1  0
  6  7  1  0
  7  8  1  0
  4  9  1  0
  9  2  1  0
  6  4  1  0
  1 10  1  0
  1 11  1  0
  1 12  1  0
  2 13  1  0
  3 14  1  0
  3 15  1  0
  5 16  1  0
  5 17  1  0
  6 18  1  0
  7 19  1  0
  7 20  1  0
  8 21  1  0
M  END
