
     RDKit          3D

 15 16  0  0  0  0  0  0  0  0999 V2000
   -1.6750   -0.3971   -0.3881 C   0  0  0  0  0  0  0  0  0  0  0  0
   -0.5958    0.6647   -0.4043 C   0  0  0  0  0  0  0  0  0  0  0  0
   -0.1274    0.9211    0.9822 C   0  0  0  0  0  0  0  0  0  0  0  0
   -0.6612    1.4713    1.9257 O   0  0  0  0  0  0  0  0  0  0  0  0
    1.1776    0.2797    0.7836 C   0  0  0  0  0  0  0  0  0  0  0  0
    1.3001   -1.0307    0.0995 C   0  0  0  0  0  0  0  0  0  0  0  0
    0.7873    0.1447   -0.7108 C   0  0  0  0  0  0  0  0  0  0  0  0
   -2.5961    0.0771    0.0029 H   0  0  0  0  0  0  0  0  0  0  0  0
   -1.8019   -0.8253   -1.3901 H   0  0  0  0  0  0  0  0  0  0  0  0
   -1.3933   -1.1785    0.3601 H   0  0  0  0  0  0  0  0  0  0  0  0
   -0.8401    1.5392   -1.0099 H   0  0  0  0  0  0  0  0  0  0  0  0
    2.1030    0.8189    1.0186 H   0  0  0  0  0  0  0  0  0  0  0  0
    2.3089   -1.3482   -0.1879 H   0  0  0  0  0  0  0  0  0  0  0  0
    0.5559   -1.8257    0.2981 H   0  0  0  0  0  0  0  0  0  0  0  0
    1.4581    0.6887   -1.3796 H   0  0  0  0  0  0  0  0  0  0  0  0
  1  2  1  0
  2  3  1  0
  3  4  2  0
  3  5  1  0
  5  6  1  0
  6  7  1  0
  7  2  1  0
  7  5  1  0
  1  8  1  0
  1  9  1  0
  1 10  1  0
  2 11  1  0
  5 12  1  0
  6 13  1  0
  6 14  1  0
  7 15  1  0
M  END
