
     RDKit          3D

 17 18  0  0  0  0  0  0  0  0999 V2000
    1.8505    0.6009   -0.0028 C   0  0  0  0  0  0  0  0  0  0  0  0
    0.3855    0.5898    0.2778 C   0  0  0  0  0  0  0  0  0  0  0  0
   -0.1968   -0.7478    0.6752 C   0  0  0  0  0  0  0  0  0  0  0  0
    0.0117   -1.3775    1.7378 O   0  0  0  0  0  0  0  0  0  0  0  0
   -1.5185   -0.1719    0.2053 C   0  0  0  0  0  0  0  0  0  0  0  0
   -0.5137    0.2124   -0.8681 C   0  0  0  0  0  0  0  0  0  0  0  0
   -0.7490    0.8646   -1.9110 O   0  0  0  0  0  0  0  0  0  0  0  0
    0.0123   -1.1457   -0.7116 C   0  0  0  0  0  0  0  0  0  0  0  0
    0.3907   -2.0407   -1.4374 O   0  0  0  0  0  0  0  0  0  0  0  0
    2.1204   -0.0229   -0.8591 H   0  0  0  0  0  0  0  0  0  0  0  0
    2.3688    0.2617    0.9414 H   0  0  0  0  0  0  0  0  0  0  0  0
    2.1582    1.6455   -0.1854 H   0  0  0  0  0  0  0  0  0  0  0  0
    0.0032    1.4094    0.8795 H   0  0  0  0  0  0  0  0  0  0  0  0
   -0.6606   -1.2471    2.4591 H   0  0  0  0  0  0  0  0  0  0  0  0
   -1.8247    0.6562    0.8471 H   0  0  0  0  0  0  0  0  0  0  0  0
   -2.2731   -0.8975   -0.1062 H   0  0  0  0  0  0  0  0  0  0  0  0
   -1.5647    1.4106   -1.9416 H   0  0  0  0  0  0  0  0  0  0  0  0
  1  2  1  0
  2  3  1  0
  3  4  1  0
  3  5  1  0
  5  6  1  0
  6  7  1  0
  6  8  1  0
  8  9  2  0
  6  2  1  0
  8  3  1  0
  1 10  1  0
  1 11  1  0
  1 12  1  0
  2 13  1  0
  4 14  1  0
  5 15  1  0
  5 16  1  0
  7 17  1  0
M  END
