
     RDKit          3D

 25 26  0  0  0  0  0  0  0  0999 V2000
    2.7265   -0.9696   -0.1150 C   0  0  0  0  0  0  0  0  0  0  0  0
    1.4061   -0.3937    0.2748 C   0  0  0  0  0  0  0  0  0  0  0  0
    0.3120   -1.4000    0.4347 C   0  0  0  0  0  0  0  0  0  0  0  0
   -0.9079   -0.4713    0.5523 C   0  0  0  0  0  0  0  0  0  0  0  0
   -2.1434   -1.1238   -0.0129 C   0  0  0  0  0  0  0  0  0  0  0  0
   -0.5281    0.7898   -0.1415 C   0  0  0  0  0  0  0  0  0  0  0  0
   -1.4379    1.8005   -0.6167 C   0  0  0  0  0  0  0  0  0  0  0  0
   -0.5738    2.1154    0.5564 C   0  0  0  0  0  0  0  0  0  0  0  0
    0.8092    0.4946   -0.8034 C   0  0  0  0  0  0  0  0  0  0  0  0
    2.6875   -1.4945   -1.0766 H   0  0  0  0  0  0  0  0  0  0  0  0
    3.0261   -1.6931    0.6562 H   0  0  0  0  0  0  0  0  0  0  0  0
    3.4719   -0.1580   -0.1121 H   0  0  0  0  0  0  0  0  0  0  0  0
    1.4957    0.1748    1.2068 H   0  0  0  0  0  0  0  0  0  0  0  0
    0.4064   -2.0581    1.2991 H   0  0  0  0  0  0  0  0  0  0  0  0
    0.1675   -1.9469   -0.5310 H   0  0  0  0  0  0  0  0  0  0  0  0
   -1.0393   -0.2261    1.6441 H   0  0  0  0  0  0  0  0  0  0  0  0
   -2.8960   -1.2867    0.8113 H   0  0  0  0  0  0  0  0  0  0  0  0
   -1.8709   -2.0417   -0.5306 H   0  0  0  0  0  0  0  0  0  0  0  0
   -2.6176   -0.4361   -0.7611 H   0  0  0  0  0  0  0  0  0  0  0  0
   -1.2622    2.3661   -1.5622 H   0  0  0  0  0  0  0  0  0  0  0  0
   -2.5157    1.6885   -0.3910 H   0  0  0  0  0  0  0  0  0  0  0  0
    0.2497    2.8556    0.3549 H   0  0  0  0  0  0  0  0  0  0  0  0
   -0.9624    2.1253    1.5824 H   0  0  0  0  0  0  0  0  0  0  0  0
    0.5998   -0.0952   -1.7163 H   0  0  0  0  0  0  0  0  0  0  0  0
    1.3972    1.3842   -1.0026 H   0  0  0  0  0  0  0  0  0  0  0  0
  1  2  1  0
  2  3  1  0
  3  4  1  0
  4  5  1  0
  4  6  1  0
  6  7  1  0
  7  8  1  0
  6  9  1  0
  9  2  1  0
  8  6  1  0
  1 10  1  0
  1 11  1  0
  1 12  1  0
  2 13  1  0
  3 14  1  0
  3 15  1  0
  4 16  1  0
  5 17  1  0
  5 18  1  0
  5 19  1  0
  7 20  1  0
  7 21  1  0
  8 22  1  0
  8 23  1  0
  9 24  1  0
  9 25  1  0
M  END
