
     RDKit          3D

 21 21  0  0  0  0  0  0  0  0999 V2000
   -2.6140    0.5046    0.0441 C   0  0  0  0  0  0  0  0  0  0  0  0
   -1.3803   -0.3881    0.1979 C   0  0  0  0  0  0  0  0  0  0  0  0
   -0.2507    0.3706    0.8872 C   0  0  0  0  0  0  0  0  0  0  0  0
    0.9580   -0.1209    0.1319 C   0  0  0  0  0  0  0  0  0  0  0  0
    1.6547    1.0925   -0.4423 C   0  0  0  0  0  0  0  0  0  0  0  0
    1.8683   -0.9379    0.9664 C   0  0  0  0  0  0  0  0  0  0  0  0
    2.5991   -1.7351    0.4031 O   0  0  0  0  0  0  0  0  0  0  0  0
    0.3961   -1.0190   -0.9429 C   0  0  0  0  0  0  0  0  0  0  0  0
   -0.8933   -0.5594   -1.1018 O   0  0  0  0  0  0  0  0  0  0  0  0
   -3.3471    0.3455    0.8353 H   0  0  0  0  0  0  0  0  0  0  0  0
   -2.2503    1.5319   -0.0683 H   0  0  0  0  0  0  0  0  0  0  0  0
   -3.1450    0.2635   -0.9232 H   0  0  0  0  0  0  0  0  0  0  0  0
   -1.6155   -1.3281    0.7035 H   0  0  0  0  0  0  0  0  0  0  0  0
   -0.2165    0.1722    1.9612 H   0  0  0  0  0  0  0  0  0  0  0  0
   -0.4598    1.4477    0.7134 H   0  0  0  0  0  0  0  0  0  0  0  0
    1.9087    1.7664    0.3842 H   0  0  0  0  0  0  0  0  0  0  0  0
    2.5827    0.8251   -0.9932 H   0  0  0  0  0  0  0  0  0  0  0  0
    0.9779    1.6064   -1.1226 H   0  0  0  0  0  0  0  0  0  0  0  0
    1.8812   -0.8281    2.0382 H   0  0  0  0  0  0  0  0  0  0  0  0
    0.9695   -0.9469   -1.8794 H   0  0  0  0  0  0  0  0  0  0  0  0
    0.3764   -2.0629   -0.5547 H   0  0  0  0  0  0  0  0  0  0  0  0
  1  2  1  0
  2  3  1  0
  3  4  1  0
  4  5  1  0
  4  6  1  0
  6  7  2  0
  4  8  1  0
  8  9  1  0
  9  2  1  0
  1 10  1  0
  1 11  1  0
  1 12  1  0
  2 13  1  0
  3 14  1  0
  3 15  1  0
  5 16  1  0
  5 17  1  0
  5 18  1  0
  6 19  1  0
  8 20  1  0
  8 21  1  0
M  END
