
     RDKit          3D

 24 24  0  0  0  0  0  0  0  0999 V2000
    1.6438    0.2155    1.0485 C   0  0  0  0  0  0  0  0  0  0  0  0
    1.2229   -0.1390   -0.3406 C   0  0  0  0  0  0  0  0  0  0  0  0
    0.8265   -1.5962   -0.4834 C   0  0  0  0  0  0  0  0  0  0  0  0
   -0.6719   -1.6462   -0.4536 C   0  0  0  0  0  0  0  0  0  0  0  0
   -1.1835   -0.2439   -0.3803 C   0  0  0  0  0  0  0  0  0  0  0  0
   -1.6956    0.1265    0.9813 C   0  0  0  0  0  0  0  0  0  0  0  0
    0.0003    0.5721   -0.8167 C   0  0  0  0  0  0  0  0  0  0  0  0
   -0.0732    2.0090   -0.4430 C   0  0  0  0  0  0  0  0  0  0  0  0
    1.3300    1.2219    1.3764 H   0  0  0  0  0  0  0  0  0  0  0  0
    1.3294   -0.5869    1.7738 H   0  0  0  0  0  0  0  0  0  0  0  0
    2.7713    0.2123    1.1216 H   0  0  0  0  0  0  0  0  0  0  0  0
    2.0748    0.0816   -1.0190 H   0  0  0  0  0  0  0  0  0  0  0  0
    1.1675   -1.9323   -1.4767 H   0  0  0  0  0  0  0  0  0  0  0  0
    1.2399   -2.1639    0.3582 H   0  0  0  0  0  0  0  0  0  0  0  0
   -1.0475   -2.2798    0.3726 H   0  0  0  0  0  0  0  0  0  0  0  0
   -1.0807   -2.0994   -1.3905 H   0  0  0  0  0  0  0  0  0  0  0  0
   -2.0091   -0.0398   -1.1139 H   0  0  0  0  0  0  0  0  0  0  0  0
   -2.3541   -0.7088    1.3256 H   0  0  0  0  0  0  0  0  0  0  0  0
   -0.9193    0.2540    1.7393 H   0  0  0  0  0  0  0  0  0  0  0  0
   -2.2869    1.0488    0.9404 H   0  0  0  0  0  0  0  0  0  0  0  0
    0.0145    0.5230   -1.9456 H   0  0  0  0  0  0  0  0  0  0  0  0
   -0.5143    2.2008    0.5478 H   0  0  0  0  0  0  0  0  0  0  0  0
   -0.7242    2.5209   -1.2052 H   0  0  0  0  0  0  0  0  0  0  0  0
    0.9394    2.4500   -0.5169 H   0  0  0  0  0  0  0  0  0  0  0  0
  1  2  1  0
  2  3  1  0
  3  4  1  0
  4  5  1  0
  5  6  1  0
  5  7  1  0
  7  8  1  0
  7  2  1  0
  1  9  1  0
  1 10  1  0
  1 11  1  0
  2 12  1  0
  3 13  1  0
  3 14  1  0
  4 15  1  0
  4 16  1  0
  5 17  1  0
  6 18  1  0
  6 19  1  0
  6 20  1  0
  7 21  1  0
  8 22  1  0
  8 23  1  0
  8 24  1  0
M  END
