
     RDKit          3D

 21 22  0  0  0  0  0  0  0  0999 V2000
    2.6006    0.4799   -0.4585 C   0  0  0  0  0  0  0  0  0  0  0  0
    1.4870   -0.1028    0.3020 C   0  0  0  0  0  0  0  0  0  0  0  0
    0.6716   -1.1852   -0.4386 C   0  0  0  0  0  0  0  0  0  0  0  0
   -0.3748   -0.7757    0.5631 C   0  0  0  0  0  0  0  0  0  0  0  0
    0.2058    0.6185    0.3549 C   0  0  0  0  0  0  0  0  0  0  0  0
   -0.7898    1.4693    0.3653 C   0  0  0  0  0  0  0  0  0  0  0  0
   -2.0861    0.7687    0.5697 C   0  0  0  0  0  0  0  0  0  0  0  0
   -1.7895   -0.6357    0.0913 C   0  0  0  0  0  0  0  0  0  0  0  0
   -1.9790   -0.8252   -1.2442 O   0  0  0  0  0  0  0  0  0  0  0  0
    2.3983    1.4544   -0.9447 H   0  0  0  0  0  0  0  0  0  0  0  0
    3.4762    0.6219    0.2410 H   0  0  0  0  0  0  0  0  0  0  0  0
    2.9854   -0.1983   -1.2526 H   0  0  0  0  0  0  0  0  0  0  0  0
    1.7465   -0.5039    1.2979 H   0  0  0  0  0  0  0  0  0  0  0  0
    0.4450   -0.8523   -1.4668 H   0  0  0  0  0  0  0  0  0  0  0  0
    1.1144   -2.1713   -0.3254 H   0  0  0  0  0  0  0  0  0  0  0  0
   -0.1963   -1.1931    1.5489 H   0  0  0  0  0  0  0  0  0  0  0  0
   -0.7483    2.5741    0.2445 H   0  0  0  0  0  0  0  0  0  0  0  0
   -2.2552    0.6953    1.6758 H   0  0  0  0  0  0  0  0  0  0  0  0
   -2.9183    1.2449    0.0407 H   0  0  0  0  0  0  0  0  0  0  0  0
   -2.4210   -1.3516    0.6526 H   0  0  0  0  0  0  0  0  0  0  0  0
   -1.5725   -0.1319   -1.8169 H   0  0  0  0  0  0  0  0  0  0  0  0
  1  2  1  0
  2  3  1  0
  3  4  1  0
  4  5  1  0
  5  6  2  0
  6  7  1  0
  7  8  1  0
  8  9  1  0
  5  2  1  0
  8  4  1  0
  1 10  1  0
  1 11  1  0
  1 12  1  0
  2 13  1  0
  3 14  1  0
  3 15  1  0
  4 16  1  0
  6 17  1  0
  7 18  1  0
  7 19  1  0
  8 20  1  0
  9 21  1  0
M  END
