
     RDKit          3D

 21 22  0  0  0  0  0  0  0  0999 V2000
    1.9583   -0.3669   -1.1182 C   0  0  0  0  0  0  0  0  0  0  0  0
    1.2884   -0.2835    0.2223 C   0  0  0  0  0  0  0  0  0  0  0  0
    0.2664   -1.3872    0.5837 C   0  0  0  0  0  0  0  0  0  0  0  0
    0.3869   -1.9154    1.8559 O   0  0  0  0  0  0  0  0  0  0  0  0
   -0.1428   -0.0428    0.2812 C   0  0  0  0  0  0  0  0  0  0  0  0
   -0.8049    0.9061    1.2162 C   0  0  0  0  0  0  0  0  0  0  0  0
   -1.3978    1.5949   -0.0148 C   0  0  0  0  0  0  0  0  0  0  0  0
   -0.9874    0.3859   -0.8597 C   0  0  0  0  0  0  0  0  0  0  0  0
   -2.1362   -0.3770   -1.1063 O   0  0  0  0  0  0  0  0  0  0  0  0
    1.2824   -0.7341   -1.9024 H   0  0  0  0  0  0  0  0  0  0  0  0
    2.3452    0.6439   -1.3579 H   0  0  0  0  0  0  0  0  0  0  0  0
    2.8576   -1.0255   -1.0118 H   0  0  0  0  0  0  0  0  0  0  0  0
    1.9276    0.0951    1.0357 H   0  0  0  0  0  0  0  0  0  0  0  0
    0.1795   -2.1685   -0.2111 H   0  0  0  0  0  0  0  0  0  0  0  0
    0.3036   -1.2518    2.5733 H   0  0  0  0  0  0  0  0  0  0  0  0
   -0.0873    1.6220    1.6991 H   0  0  0  0  0  0  0  0  0  0  0  0
   -1.5484    0.4918    1.9134 H   0  0  0  0  0  0  0  0  0  0  0  0
   -0.8405    2.4945   -0.3436 H   0  0  0  0  0  0  0  0  0  0  0  0
   -2.4664    1.7931    0.0292 H   0  0  0  0  0  0  0  0  0  0  0  0
   -0.4286    0.6774   -1.7874 H   0  0  0  0  0  0  0  0  0  0  0  0
   -1.9555   -1.1521   -1.6968 H   0  0  0  0  0  0  0  0  0  0  0  0
  1  2  1  0
  2  3  1  0
  3  4  1  0
  3  5  1  0
  5  6  1  0
  6  7  1  0
  7  8  1  0
  8  9  1  0
  5  2  1  0
  8  5  1  0
  1 10  1  0
  1 11  1  0
  1 12  1  0
  2 13  1  0
  3 14  1  0
  4 15  1  0
  6 16  1  0
  6 17  1  0
  7 18  1  0
  7 19  1  0
  8 20  1  0
  9 21  1  0
M  END
