
     RDKit          3D

 23 25  0  0  0  0  0  0  0  0999 V2000
    2.5382    0.0736   -0.9791 C   0  0  0  0  0  0  0  0  0  0  0  0
    1.6497   -0.5819    0.0415 C   0  0  0  0  0  0  0  0  0  0  0  0
    1.1790    0.3029    1.1801 C   0  0  0  0  0  0  0  0  0  0  0  0
    0.2708   -0.2652    0.0858 C   0  0  0  0  0  0  0  0  0  0  0  0
   -0.8431   -1.1739    0.5946 C   0  0  0  0  0  0  0  0  0  0  0  0
   -2.0178   -0.3938    0.0671 C   0  0  0  0  0  0  0  0  0  0  0  0
   -1.6082    1.0643    0.3219 C   0  0  0  0  0  0  0  0  0  0  0  0
   -0.4996    0.7192   -0.6870 C   0  0  0  0  0  0  0  0  0  0  0  0
   -1.6057   -0.1101   -1.3570 C   0  0  0  0  0  0  0  0  0  0  0  0
    2.9605    1.0358   -0.5828 H   0  0  0  0  0  0  0  0  0  0  0  0
    3.4218   -0.5571   -1.2428 H   0  0  0  0  0  0  0  0  0  0  0  0
    1.9908    0.2881   -1.9237 H   0  0  0  0  0  0  0  0  0  0  0  0
    1.9956   -1.5948    0.3534 H   0  0  0  0  0  0  0  0  0  0  0  0
    1.0934   -0.1113    2.1960 H   0  0  0  0  0  0  0  0  0  0  0  0
    1.3841    1.3872    1.1494 H   0  0  0  0  0  0  0  0  0  0  0  0
   -0.8333   -1.2818    1.6808 H   0  0  0  0  0  0  0  0  0  0  0  0
   -0.8294   -2.1535    0.0996 H   0  0  0  0  0  0  0  0  0  0  0  0
   -3.0049   -0.6805    0.2907 H   0  0  0  0  0  0  0  0  0  0  0  0
   -2.3065    1.8070   -0.0486 H   0  0  0  0  0  0  0  0  0  0  0  0
   -1.2236    1.1494    1.3398 H   0  0  0  0  0  0  0  0  0  0  0  0
   -0.0696    1.5103   -1.2366 H   0  0  0  0  0  0  0  0  0  0  0  0
   -2.3886    0.5306   -1.8365 H   0  0  0  0  0  0  0  0  0  0  0  0
   -1.2535   -0.9642   -1.9345 H   0  0  0  0  0  0  0  0  0  0  0  0
  1  2  1  0
  2  3  1  0
  3  4  1  0
  4  5  1  0
  5  6  1  0
  6  7  1  0
  7  8  1  0
  8  9  1  0
  4  2  1  0
  9  6  1  0
  8  4  1  0
  1 10  1  0
  1 11  1  0
  1 12  1  0
  2 13  1  0
  3 14  1  0
  3 15  1  0
  5 16  1  0
  5 17  1  0
  6 18  1  0
  7 19  1  0
  7 20  1  0
  8 21  1  0
  9 22  1  0
  9 23  1  0
M  END
