
     RDKit          3D

 17 18  0  0  0  0  0  0  0  0999 V2000
   -1.5823    1.1411   -0.2623 C   0  0  0  0  0  0  0  0  0  0  0  0
   -0.8774   -0.1935   -0.5025 C   0  0  0  0  0  0  0  0  0  0  0  0
   -1.3178   -1.1915    0.5440 C   0  0  0  0  0  0  0  0  0  0  0  0
   -0.2782   -1.1668    1.4755 O   0  0  0  0  0  0  0  0  0  0  0  0
    0.8925   -0.6614    0.9392 C   0  0  0  0  0  0  0  0  0  0  0  0
    2.1753   -0.5448    1.1508 O   0  0  0  0  0  0  0  0  0  0  0  0
    2.7799    0.0877    0.1946 C   0  0  0  0  0  0  0  0  0  0  0  0
    1.8036    0.4176   -0.7320 C   0  0  0  0  0  0  0  0  0  0  0  0
    0.5836   -0.0628   -0.2577 C   0  0  0  0  0  0  0  0  0  0  0  0
   -0.7765    1.9247   -0.2383 H   0  0  0  0  0  0  0  0  0  0  0  0
   -2.2543    1.4129   -1.0740 H   0  0  0  0  0  0  0  0  0  0  0  0
   -2.0487    1.1665    0.7426 H   0  0  0  0  0  0  0  0  0  0  0  0
   -1.0047   -0.5555   -1.5250 H   0  0  0  0  0  0  0  0  0  0  0  0
   -2.2912   -0.8701    1.0187 H   0  0  0  0  0  0  0  0  0  0  0  0
   -1.5235   -2.1907    0.1156 H   0  0  0  0  0  0  0  0  0  0  0  0
    3.8274    0.3397    0.0807 H   0  0  0  0  0  0  0  0  0  0  0  0
    1.8921    0.9466   -1.6698 H   0  0  0  0  0  0  0  0  0  0  0  0
  1  2  1  0
  2  3  1  0
  3  4  1  0
  4  5  1  0
  5  6  1  0
  6  7  1  0
  7  8  2  0
  8  9  1  0
  9  2  1  0
  9  5  2  0
  1 10  1  0
  1 11  1  0
  1 12  1  0
  2 13  1  0
  3 14  1  0
  3 15  1  0
  7 16  1  0
  8 17  1  0
M  END
