
     RDKit          3D

 19 19  0  0  0  0  0  0  0  0999 V2000
    2.3726   -0.0033   -0.2002 C   0  0  0  0  0  0  0  0  0  0  0  0
    0.8458    0.0782   -0.1917 C   0  0  0  0  0  0  0  0  0  0  0  0
    0.2745   -1.3227   -0.3770 C   0  0  0  0  0  0  0  0  0  0  0  0
   -0.9286   -1.4852    0.2813 O   0  0  0  0  0  0  0  0  0  0  0  0
   -1.9286   -0.6629   -0.1764 C   0  0  0  0  0  0  0  0  0  0  0  0
   -1.6625    0.7796    0.1509 C   0  0  0  0  0  0  0  0  0  0  0  0
   -2.3973    1.5792   -0.3849 O   0  0  0  0  0  0  0  0  0  0  0  0
   -0.6343    1.3695    1.0319 C   0  0  0  0  0  0  0  0  0  0  0  0
    0.4690    0.5282    1.0496 O   0  0  0  0  0  0  0  0  0  0  0  0
    2.7840    0.4937   -1.0894 H   0  0  0  0  0  0  0  0  0  0  0  0
    2.6723   -1.0590   -0.1719 H   0  0  0  0  0  0  0  0  0  0  0  0
    2.8110    0.4985    0.6880 H   0  0  0  0  0  0  0  0  0  0  0  0
    0.4707    0.6782   -1.0326 H   0  0  0  0  0  0  0  0  0  0  0  0
    0.1578   -1.5893   -1.4417 H   0  0  0  0  0  0  0  0  0  0  0  0
    1.0038   -2.0179    0.0558 H   0  0  0  0  0  0  0  0  0  0  0  0
   -2.0598   -0.7003   -1.2807 H   0  0  0  0  0  0  0  0  0  0  0  0
   -2.8757   -0.9733    0.3229 H   0  0  0  0  0  0  0  0  0  0  0  0
   -1.0173    1.4044    2.0755 H   0  0  0  0  0  0  0  0  0  0  0  0
   -0.3575    2.4044    0.6904 H   0  0  0  0  0  0  0  0  0  0  0  0
  1  2  1  0
  2  3  1  0
  3  4  1  0
  4  5  1  0
  5  6  1  0
  6  7  2  0
  6  8  1  0
  8  9  1  0
  9  2  1  0
  1 10  1  0
  1 11  1  0
  1 12  1  0
  2 13  1  0
  3 14  1  0
  3 15  1  0
  5 16  1  0
  5 17  1  0
  8 18  1  0
  8 19  1  0
M  END
