
     RDKit          3D

 19 19  0  0  0  0  0  0  0  0999 V2000
   -0.9197   -1.5877    0.8800 C   0  0  0  0  0  0  0  0  0  0  0  0
   -0.8418   -0.6552   -0.2875 C   0  0  0  0  0  0  0  0  0  0  0  0
   -1.3788    0.7534   -0.0058 C   0  0  0  0  0  0  0  0  0  0  0  0
   -0.2449    1.2587   -0.9074 C   0  0  0  0  0  0  0  0  0  0  0  0
    0.3459    2.4240   -0.4907 O   0  0  0  0  0  0  0  0  0  0  0  0
    0.5022   -0.0227   -0.5281 C   0  0  0  0  0  0  0  0  0  0  0  0
    1.3309    0.1048    0.5837 O   0  0  0  0  0  0  0  0  0  0  0  0
    2.6453   -0.3579    0.5494 C   0  0  0  0  0  0  0  0  0  0  0  0
    3.1133   -0.9005   -0.4846 O   0  0  0  0  0  0  0  0  0  0  0  0
   -1.9837   -1.9209    0.9644 H   0  0  0  0  0  0  0  0  0  0  0  0
   -0.3253   -2.4790    0.6643 H   0  0  0  0  0  0  0  0  0  0  0  0
   -0.6796   -1.0834    1.8232 H   0  0  0  0  0  0  0  0  0  0  0  0
   -1.2985   -1.0313   -1.2031 H   0  0  0  0  0  0  0  0  0  0  0  0
   -1.2767    1.0654    1.0437 H   0  0  0  0  0  0  0  0  0  0  0  0
   -2.3870    0.9314   -0.3947 H   0  0  0  0  0  0  0  0  0  0  0  0
   -0.5507    1.1857   -1.9596 H   0  0  0  0  0  0  0  0  0  0  0  0
   -0.3536    3.0970   -0.2530 H   0  0  0  0  0  0  0  0  0  0  0  0
    0.9880   -0.5160   -1.4122 H   0  0  0  0  0  0  0  0  0  0  0  0
    3.3148   -0.2658    1.4179 H   0  0  0  0  0  0  0  0  0  0  0  0
  1  2  1  0
  2  3  1  0
  3  4  1  0
  4  5  1  0
  4  6  1  0
  6  7  1  0
  7  8  1  0
  8  9  2  0
  6  2  1  0
  1 10  1  0
  1 11  1  0
  1 12  1  0
  2 13  1  0
  3 14  1  0
  3 15  1  0
  4 16  1  0
  5 17  1  0
  6 18  1  0
  8 19  1  0
M  END
