
     RDKit          3D

 19 21  0  0  0  0  0  0  0  0999 V2000
   -1.1392    1.1978   -0.5967 C   0  0  0  0  0  0  0  0  0  0  0  0
   -1.0901   -0.2747   -0.4525 C   0  0  0  0  0  0  0  0  0  0  0  0
   -1.5205   -0.8549    0.8699 C   0  0  0  0  0  0  0  0  0  0  0  0
   -0.2826   -1.6760    0.9368 C   0  0  0  0  0  0  0  0  0  0  0  0
    0.3528   -2.1745   -0.1609 O   0  0  0  0  0  0  0  0  0  0  0  0
    0.2797   -0.7937   -0.1886 C   0  0  0  0  0  0  0  0  0  0  0  0
    1.4242    0.0455    0.2431 C   0  0  0  0  0  0  0  0  0  0  0  0
    2.2203    0.8466   -0.7432 C   0  0  0  0  0  0  0  0  0  0  0  0
    1.3574    1.4309    0.2158 O   0  0  0  0  0  0  0  0  0  0  0  0
   -0.3738    1.5069   -1.3385 H   0  0  0  0  0  0  0  0  0  0  0  0
   -0.9404    1.7705    0.3354 H   0  0  0  0  0  0  0  0  0  0  0  0
   -2.1021    1.5886   -0.9851 H   0  0  0  0  0  0  0  0  0  0  0  0
   -1.6378   -0.7603   -1.3052 H   0  0  0  0  0  0  0  0  0  0  0  0
   -1.5689   -0.0825    1.6688 H   0  0  0  0  0  0  0  0  0  0  0  0
   -2.4684   -1.4304    0.8382 H   0  0  0  0  0  0  0  0  0  0  0  0
    0.2940   -1.7563    1.8811 H   0  0  0  0  0  0  0  0  0  0  0  0
    2.0288   -0.3252    1.1235 H   0  0  0  0  0  0  0  0  0  0  0  0
    3.3064    0.9824   -0.5558 H   0  0  0  0  0  0  0  0  0  0  0  0
    1.8601    0.7593   -1.7861 H   0  0  0  0  0  0  0  0  0  0  0  0
  1  2  1  0
  2  3  1  0
  3  4  1  0
  4  5  1  0
  5  6  1  0
  6  7  1  0
  7  8  1  0
  8  9  1  0
  6  2  1  0
  9  7  1  0
  6  4  1  0
  1 10  1  0
  1 11  1  0
  1 12  1  0
  2 13  1  0
  3 14  1  0
  3 15  1  0
  4 16  1  0
  7 17  1  0
  8 18  1  0
  8 19  1  0
M  END
