
     RDKit          3D

 19 20  0  0  0  0  0  0  0  0999 V2000
    2.8819    0.0168    0.7055 C   0  0  0  0  0  0  0  0  0  0  0  0
    1.5674   -0.4241    0.1321 C   0  0  0  0  0  0  0  0  0  0  0  0
    0.7958    0.7804   -0.2853 C   0  0  0  0  0  0  0  0  0  0  0  0
   -0.4778    0.4519   -0.1183 C   0  0  0  0  0  0  0  0  0  0  0  0
   -1.9045    0.8483   -0.2136 C   0  0  0  0  0  0  0  0  0  0  0  0
   -2.5932   -0.2371    0.5715 C   0  0  0  0  0  0  0  0  0  0  0  0
   -1.6080   -0.9667    1.2419 O   0  0  0  0  0  0  0  0  0  0  0  0
   -0.4957   -0.9651    0.4094 C   0  0  0  0  0  0  0  0  0  0  0  0
    0.7148   -0.9548    1.1159 O   0  0  0  0  0  0  0  0  0  0  0  0
    3.4852   -0.8346    1.0674 H   0  0  0  0  0  0  0  0  0  0  0  0
    3.4123    0.5862   -0.0854 H   0  0  0  0  0  0  0  0  0  0  0  0
    2.6680    0.7216    1.5326 H   0  0  0  0  0  0  0  0  0  0  0  0
    1.6601   -1.1177   -0.7076 H   0  0  0  0  0  0  0  0  0  0  0  0
    1.1675    1.7318   -0.6502 H   0  0  0  0  0  0  0  0  0  0  0  0
   -2.0595    1.8627    0.2331 H   0  0  0  0  0  0  0  0  0  0  0  0
   -2.2631    0.8410   -1.2766 H   0  0  0  0  0  0  0  0  0  0  0  0
   -3.2163   -0.8862   -0.0895 H   0  0  0  0  0  0  0  0  0  0  0  0
   -3.2072    0.2508    1.3469 H   0  0  0  0  0  0  0  0  0  0  0  0
   -0.5278   -1.7052   -0.3920 H   0  0  0  0  0  0  0  0  0  0  0  0
  1  2  1  0
  2  3  1  0
  3  4  2  0
  4  5  1  0
  5  6  1  0
  6  7  1  0
  7  8  1  0
  8  9  1  0
  9  2  1  0
  8  4  1  0
  1 10  1  0
  1 11  1  0
  1 12  1  0
  2 13  1  0
  3 14  1  0
  5 15  1  0
  5 16  1  0
  6 17  1  0
  6 18  1  0
  8 19  1  0
M  END
