
     RDKit          3D

 20 21  0  0  0  0  0  0  0  0999 V2000
    2.0594   -0.1786   -0.3834 C   0  0  0  0  0  0  0  0  0  0  0  0
    0.8517   -0.1786    0.4669 C   0  0  0  0  0  0  0  0  0  0  0  0
   -0.2053   -1.1609    0.0848 C   0  0  0  0  0  0  0  0  0  0  0  0
   -1.3187   -0.7141    1.0480 C   0  0  0  0  0  0  0  0  0  0  0  0
   -1.3211    0.5152    0.1351 C   0  0  0  0  0  0  0  0  0  0  0  0
   -1.0445   -0.4841   -0.9918 C   0  0  0  0  0  0  0  0  0  0  0  0
    0.0310    1.1210    0.3312 C   0  0  0  0  0  0  0  0  0  0  0  0
    0.4685    1.8185   -0.8024 O   0  0  0  0  0  0  0  0  0  0  0  0
    2.8198   -0.8610    0.0979 H   0  0  0  0  0  0  0  0  0  0  0  0
    1.8615   -0.5417   -1.3994 H   0  0  0  0  0  0  0  0  0  0  0  0
    2.5655    0.8032   -0.4554 H   0  0  0  0  0  0  0  0  0  0  0  0
    1.0464   -0.2928    1.5527 H   0  0  0  0  0  0  0  0  0  0  0  0
   -0.0073   -2.1942    0.0082 H   0  0  0  0  0  0  0  0  0  0  0  0
   -2.2148   -1.3231    0.9775 H   0  0  0  0  0  0  0  0  0  0  0  0
   -0.8715   -0.5533    2.0344 H   0  0  0  0  0  0  0  0  0  0  0  0
   -2.1927    1.1027    0.0834 H   0  0  0  0  0  0  0  0  0  0  0  0
   -1.9482   -1.0760   -1.2248 H   0  0  0  0  0  0  0  0  0  0  0  0
   -0.4876   -0.0585   -1.8253 H   0  0  0  0  0  0  0  0  0  0  0  0
    0.0826    1.7229    1.2488 H   0  0  0  0  0  0  0  0  0  0  0  0
   -0.1747    2.5335   -0.9863 H   0  0  0  0  0  0  0  0  0  0  0  0
  1  2  1  0
  2  3  1  0
  3  4  1  0
  4  5  1  0
  5  6  1  0
  5  7  1  0
  7  8  1  0
  7  2  1  0
  6  3  1  0
  1  9  1  0
  1 10  1  0
  1 11  1  0
  2 12  1  0
  3 13  1  0
  4 14  1  0
  4 15  1  0
  5 16  1  0
  6 17  1  0
  6 18  1  0
  7 19  1  0
  8 20  1  0
M  END
