
     RDKit          3D

 23 24  0  0  0  0  0  0  0  0999 V2000
    0.1433    2.2813    0.2828 C   0  0  0  0  0  0  0  0  0  0  0  0
   -0.7502    1.1708   -0.0648 C   0  0  0  0  0  0  0  0  0  0  0  0
   -0.1858    0.1103   -1.0167 C   0  0  0  0  0  0  0  0  0  0  0  0
    1.2525   -0.0839   -0.6600 C   0  0  0  0  0  0  0  0  0  0  0  0
    1.4604   -0.3187    0.7950 C   0  0  0  0  0  0  0  0  0  0  0  0
    0.3444   -0.2361    1.5660 O   0  0  0  0  0  0  0  0  0  0  0  0
   -0.8287    0.0162    0.9432 C   0  0  0  0  0  0  0  0  0  0  0  0
   -1.1108   -0.8209   -0.2714 C   0  0  0  0  0  0  0  0  0  0  0  0
   -0.8053   -2.2430   -0.2605 C   0  0  0  0  0  0  0  0  0  0  0  0
    0.6656    2.1856    1.2672 H   0  0  0  0  0  0  0  0  0  0  0  0
    0.8719    2.5519   -0.5249 H   0  0  0  0  0  0  0  0  0  0  0  0
   -0.4842    3.2145    0.4036 H   0  0  0  0  0  0  0  0  0  0  0  0
   -1.7859    1.4127   -0.3905 H   0  0  0  0  0  0  0  0  0  0  0  0
   -0.3894    0.2712   -2.0666 H   0  0  0  0  0  0  0  0  0  0  0  0
    1.7039   -0.9421   -1.2219 H   0  0  0  0  0  0  0  0  0  0  0  0
    1.8243    0.8121   -1.0020 H   0  0  0  0  0  0  0  0  0  0  0  0
    1.9311   -1.3289    0.9876 H   0  0  0  0  0  0  0  0  0  0  0  0
    2.2569    0.3915    1.1706 H   0  0  0  0  0  0  0  0  0  0  0  0
   -1.6561    0.1793    1.6319 H   0  0  0  0  0  0  0  0  0  0  0  0
   -2.1638   -0.6203   -0.6153 H   0  0  0  0  0  0  0  0  0  0  0  0
   -1.7419   -2.8241   -0.0276 H   0  0  0  0  0  0  0  0  0  0  0  0
   -0.5422   -2.5754   -1.3078 H   0  0  0  0  0  0  0  0  0  0  0  0
   -0.0100   -2.6040    0.3821 H   0  0  0  0  0  0  0  0  0  0  0  0
  1  2  1  0
  2  3  1  0
  3  4  1  0
  4  5  1  0
  5  6  1  0
  6  7  1  0
  7  8  1  0
  8  9  1  0
  7  2  1  0
  8  3  1  0
  1 10  1  0
  1 11  1  0
  1 12  1  0
  2 13  1  0
  3 14  1  0
  4 15  1  0
  4 16  1  0
  5 17  1  0
  5 18  1  0
  7 19  1  0
  8 20  1  0
  9 21  1  0
  9 22  1  0
  9 23  1  0
M  END
