
     RDKit          3D

 23 24  0  0  0  0  0  0  0  0999 V2000
    1.9728    0.3060   -0.6554 C   0  0  0  0  0  0  0  0  0  0  0  0
    0.8491   -0.5945   -0.3044 C   0  0  0  0  0  0  0  0  0  0  0  0
   -0.1199   -0.8203   -1.4802 C   0  0  0  0  0  0  0  0  0  0  0  0
   -1.4070   -0.5614   -0.7613 C   0  0  0  0  0  0  0  0  0  0  0  0
   -1.2173   -1.1037    0.6526 C   0  0  0  0  0  0  0  0  0  0  0  0
   -0.1174   -0.0330    0.6965 C   0  0  0  0  0  0  0  0  0  0  0  0
    0.3301    0.4411    1.9785 C   0  0  0  0  0  0  0  0  0  0  0  0
   -1.0992    0.7990   -0.1122 C   0  0  0  0  0  0  0  0  0  0  0  0
   -0.5218    1.7002   -0.9803 O   0  0  0  0  0  0  0  0  0  0  0  0
    2.3318    0.8135    0.2683 H   0  0  0  0  0  0  0  0  0  0  0  0
    2.8362   -0.3197   -0.9996 H   0  0  0  0  0  0  0  0  0  0  0  0
    1.7299    1.1025   -1.3761 H   0  0  0  0  0  0  0  0  0  0  0  0
    1.2139   -1.5836   -0.0023 H   0  0  0  0  0  0  0  0  0  0  0  0
    0.0572   -0.0900   -2.2792 H   0  0  0  0  0  0  0  0  0  0  0  0
   -0.0893   -1.8664   -1.8224 H   0  0  0  0  0  0  0  0  0  0  0  0
   -2.3411   -0.6819   -1.2343 H   0  0  0  0  0  0  0  0  0  0  0  0
   -2.0974   -0.8877    1.2482 H   0  0  0  0  0  0  0  0  0  0  0  0
   -0.7537   -2.0876    0.7150 H   0  0  0  0  0  0  0  0  0  0  0  0
    0.5394    1.5453    1.9425 H   0  0  0  0  0  0  0  0  0  0  0  0
   -0.4323    0.2055    2.7753 H   0  0  0  0  0  0  0  0  0  0  0  0
    1.2939   -0.0273    2.2563 H   0  0  0  0  0  0  0  0  0  0  0  0
   -1.9249    1.1867    0.4946 H   0  0  0  0  0  0  0  0  0  0  0  0
   -1.0329    2.5573   -1.0202 H   0  0  0  0  0  0  0  0  0  0  0  0
  1  2  1  0
  2  3  1  0
  3  4  1  0
  4  5  1  0
  5  6  1  0
  6  7  1  0
  6  8  1  0
  8  9  1  0
  6  2  1  0
  8  4  1  0
  1 10  1  0
  1 11  1  0
  1 12  1  0
  2 13  1  0
  3 14  1  0
  3 15  1  0
  4 16  1  0
  5 17  1  0
  5 18  1  0
  7 19  1  0
  7 20  1  0
  7 21  1  0
  8 22  1  0
  9 23  1  0
M  END
