
     RDKit          3D

 22 22  0  0  0  0  0  0  0  0999 V2000
    1.8893   -0.4817   -0.5734 C   0  0  0  0  0  0  0  0  0  0  0  0
    0.5357   -0.0815   -1.1150 C   0  0  0  0  0  0  0  0  0  0  0  0
   -0.1702    1.1025   -0.4891 C   0  0  0  0  0  0  0  0  0  0  0  0
    0.6109    1.7637    0.6070 C   0  0  0  0  0  0  0  0  0  0  0  0
   -0.6935   -0.2752   -0.3647 C   0  0  0  0  0  0  0  0  0  0  0  0
   -1.9438   -0.5493   -1.2157 C   0  0  0  0  0  0  0  0  0  0  0  0
   -0.7520   -0.9687    0.9699 C   0  0  0  0  0  0  0  0  0  0  0  0
    0.0016   -0.3692    1.9511 O   0  0  0  0  0  0  0  0  0  0  0  0
    2.5789    0.3857   -0.5912 H   0  0  0  0  0  0  0  0  0  0  0  0
    2.3236   -1.2475   -1.2332 H   0  0  0  0  0  0  0  0  0  0  0  0
    1.8298   -0.8215    0.4924 H   0  0  0  0  0  0  0  0  0  0  0  0
    0.5033   -0.0692   -2.2244 H   0  0  0  0  0  0  0  0  0  0  0  0
   -0.7017    1.8286   -1.1640 H   0  0  0  0  0  0  0  0  0  0  0  0
   -0.0538    1.9875    1.4708 H   0  0  0  0  0  0  0  0  0  0  0  0
    1.4708    1.1419    0.9457 H   0  0  0  0  0  0  0  0  0  0  0  0
    0.9866    2.7406    0.2139 H   0  0  0  0  0  0  0  0  0  0  0  0
   -2.8453   -0.4549   -0.6019 H   0  0  0  0  0  0  0  0  0  0  0  0
   -1.8137   -1.5984   -1.6016 H   0  0  0  0  0  0  0  0  0  0  0  0
   -1.9734    0.1552   -2.0525 H   0  0  0  0  0  0  0  0  0  0  0  0
   -0.3384   -2.0124    0.8418 H   0  0  0  0  0  0  0  0  0  0  0  0
   -1.8052   -1.1224    1.2828 H   0  0  0  0  0  0  0  0  0  0  0  0
    0.3606   -1.0537    2.5964 H   0  0  0  0  0  0  0  0  0  0  0  0
  1  2  1  0
  2  3  1  0
  3  4  1  0
  3  5  1  0
  5  6  1  0
  5  7  1  0
  7  8  1  0
  5  2  1  0
  1  9  1  0
  1 10  1  0
  1 11  1  0
  2 12  1  0
  3 13  1  0
  4 14  1  0
  4 15  1  0
  4 16  1  0
  6 17  1  0
  6 18  1  0
  6 19  1  0
  7 20  1  0
  7 21  1  0
  8 22  1  0
M  END
