
     RDKit          3D

 23 24  0  0  0  0  0  0  0  0999 V2000
   -1.4276    2.0285   -0.3078 C   0  0  0  0  0  0  0  0  0  0  0  0
   -1.1109    0.6790    0.2568 C   0  0  0  0  0  0  0  0  0  0  0  0
   -1.1896   -0.4436   -0.7364 C   0  0  0  0  0  0  0  0  0  0  0  0
   -2.1289   -1.5774   -0.3072 C   0  0  0  0  0  0  0  0  0  0  0  0
    0.2455   -0.8269   -0.4525 C   0  0  0  0  0  0  0  0  0  0  0  0
    1.3269    0.2004   -0.5355 C   0  0  0  0  0  0  0  0  0  0  0  0
    2.6803   -0.3111   -0.0883 C   0  0  0  0  0  0  0  0  0  0  0  0
    3.6655    0.6527   -0.1724 O   0  0  0  0  0  0  0  0  0  0  0  0
    0.3160    0.3689    0.5264 C   0  0  0  0  0  0  0  0  0  0  0  0
   -2.1337    1.8914   -1.1584 H   0  0  0  0  0  0  0  0  0  0  0  0
   -1.9674    2.6533    0.4543 H   0  0  0  0  0  0  0  0  0  0  0  0
   -0.5638    2.5842   -0.6828 H   0  0  0  0  0  0  0  0  0  0  0  0
   -1.7493    0.4680    1.1500 H   0  0  0  0  0  0  0  0  0  0  0  0
   -1.4044   -0.0640   -1.7366 H   0  0  0  0  0  0  0  0  0  0  0  0
   -2.4933   -1.4274    0.7304 H   0  0  0  0  0  0  0  0  0  0  0  0
   -2.9442   -1.7197   -1.0160 H   0  0  0  0  0  0  0  0  0  0  0  0
   -1.5407   -2.5377   -0.2736 H   0  0  0  0  0  0  0  0  0  0  0  0
    0.4441   -1.8248   -0.0194 H   0  0  0  0  0  0  0  0  0  0  0  0
    1.3177    0.8106   -1.4471 H   0  0  0  0  0  0  0  0  0  0  0  0
    2.6217   -0.6847    0.9735 H   0  0  0  0  0  0  0  0  0  0  0  0
    2.9049   -1.2052   -0.7072 H   0  0  0  0  0  0  0  0  0  0  0  0
    4.5313    0.1971   -0.0109 H   0  0  0  0  0  0  0  0  0  0  0  0
    0.5996    0.0884    1.5713 H   0  0  0  0  0  0  0  0  0  0  0  0
  1  2  1  0
  2  3  1  0
  3  4  1  0
  3  5  1  0
  5  6  1  0
  6  7  1  0
  7  8  1  0
  6  9  1  0
  9  2  1  0
  9  5  1  0
  1 10  1  0
  1 11  1  0
  1 12  1  0
  2 13  1  0
  3 14  1  0
  4 15  1  0
  4 16  1  0
  4 17  1  0
  5 18  1  0
  6 19  1  0
  7 20  1  0
  7 21  1  0
  8 22  1  0
  9 23  1  0
M  END
