
     RDKit          3D

 21 22  0  0  0  0  0  0  0  0999 V2000
   -1.5092   -1.0631   -0.0631 C   0  0  0  0  0  0  0  0  0  0  0  0
   -0.6481    0.0227   -0.6787 C   0  0  0  0  0  0  0  0  0  0  0  0
   -1.3196    1.3847   -0.5140 C   0  0  0  0  0  0  0  0  0  0  0  0
   -0.7198    2.0010    0.5621 O   0  0  0  0  0  0  0  0  0  0  0  0
   -0.0715    1.0135    1.3098 C   0  0  0  0  0  0  0  0  0  0  0  0
    0.5516    0.2203    0.2037 C   0  0  0  0  0  0  0  0  0  0  0  0
    1.3657   -0.9445    0.4823 C   0  0  0  0  0  0  0  0  0  0  0  0
    2.1497   -0.3396   -0.6894 C   0  0  0  0  0  0  0  0  0  0  0  0
    1.6174    0.9008   -0.3494 O   0  0  0  0  0  0  0  0  0  0  0  0
   -2.2874   -0.5663    0.5389 H   0  0  0  0  0  0  0  0  0  0  0  0
   -1.9310   -1.6657   -0.8933 H   0  0  0  0  0  0  0  0  0  0  0  0
   -0.9632   -1.7414    0.5903 H   0  0  0  0  0  0  0  0  0  0  0  0
   -0.3892   -0.1980   -1.7179 H   0  0  0  0  0  0  0  0  0  0  0  0
   -1.1656    1.9256   -1.4703 H   0  0  0  0  0  0  0  0  0  0  0  0
   -2.3988    1.1741   -0.3670 H   0  0  0  0  0  0  0  0  0  0  0  0
   -0.8551    0.4692    1.8619 H   0  0  0  0  0  0  0  0  0  0  0  0
    0.6383    1.4763    1.9966 H   0  0  0  0  0  0  0  0  0  0  0  0
    1.0157   -1.9576    0.1475 H   0  0  0  0  0  0  0  0  0  0  0  0
    1.9779   -1.0245    1.3639 H   0  0  0  0  0  0  0  0  0  0  0  0
    1.7140   -0.6412   -1.6840 H   0  0  0  0  0  0  0  0  0  0  0  0
    3.2284   -0.4463   -0.6299 H   0  0  0  0  0  0  0  0  0  0  0  0
  1  2  1  0
  2  3  1  0
  3  4  1  0
  4  5  1  0
  5  6  1  0
  6  7  1  0
  7  8  1  0
  8  9  1  0
  6  2  1  0
  9  6  1  0
  1 10  1  0
  1 11  1  0
  1 12  1  0
  2 13  1  0
  3 14  1  0
  3 15  1  0
  5 16  1  0
  5 17  1  0
  7 18  1  0
  7 19  1  0
  8 20  1  0
  8 21  1  0
M  END
