
     RDKit          3D

 21 22  0  0  0  0  0  0  0  0999 V2000
    2.0853   -0.1161   -0.3751 C   0  0  0  0  0  0  0  0  0  0  0  0
    0.8311   -0.4176    0.3610 C   0  0  0  0  0  0  0  0  0  0  0  0
   -0.0329   -1.5174   -0.2731 C   0  0  0  0  0  0  0  0  0  0  0  0
   -0.0922   -1.1357   -1.5840 O   0  0  0  0  0  0  0  0  0  0  0  0
   -0.4843    0.2242   -1.4975 C   0  0  0  0  0  0  0  0  0  0  0  0
   -0.3878    0.4314   -0.0279 C   0  0  0  0  0  0  0  0  0  0  0  0
   -0.5928    1.6959    0.5975 C   0  0  0  0  0  0  0  0  0  0  0  0
   -1.1794   -0.7942    0.4556 C   0  0  0  0  0  0  0  0  0  0  0  0
   -1.1217   -1.0133    1.8093 O   0  0  0  0  0  0  0  0  0  0  0  0
    2.6819    0.5869    0.2333 H   0  0  0  0  0  0  0  0  0  0  0  0
    1.9124    0.3440   -1.3432 H   0  0  0  0  0  0  0  0  0  0  0  0
    2.7158   -1.0444   -0.4693 H   0  0  0  0  0  0  0  0  0  0  0  0
    0.8926   -0.4732    1.4507 H   0  0  0  0  0  0  0  0  0  0  0  0
    0.1660   -2.5182    0.0127 H   0  0  0  0  0  0  0  0  0  0  0  0
   -1.5770    0.2230   -1.7686 H   0  0  0  0  0  0  0  0  0  0  0  0
    0.1075    0.8786   -2.1230 H   0  0  0  0  0  0  0  0  0  0  0  0
   -1.3604    1.7945    1.3912 H   0  0  0  0  0  0  0  0  0  0  0  0
    0.3590    2.0792    1.0678 H   0  0  0  0  0  0  0  0  0  0  0  0
   -0.8502    2.4933   -0.1597 H   0  0  0  0  0  0  0  0  0  0  0  0
   -2.1403   -0.9362   -0.0468 H   0  0  0  0  0  0  0  0  0  0  0  0
   -1.9326   -0.7846    2.2892 H   0  0  0  0  0  0  0  0  0  0  0  0
  1  2  1  0
  2  3  1  0
  3  4  1  0
  4  5  1  0
  5  6  1  0
  6  7  1  0
  6  8  1  0
  8  9  1  0
  6  2  1  0
  8  3  1  0
  1 10  1  0
  1 11  1  0
  1 12  1  0
  2 13  1  0
  3 14  1  0
  5 15  1  0
  5 16  1  0
  7 17  1  0
  7 18  1  0
  7 19  1  0
  8 20  1  0
  9 21  1  0
M  END
