
     RDKit          3D

 23 24  0  0  0  0  0  0  0  0999 V2000
    2.9241   -0.2505    0.2267 C   0  0  0  0  0  0  0  0  0  0  0  0
    1.5470   -0.0606   -0.2986 C   0  0  0  0  0  0  0  0  0  0  0  0
    0.6398   -1.2643   -0.0045 C   0  0  0  0  0  0  0  0  0  0  0  0
   -0.7038   -0.6866   -0.4643 C   0  0  0  0  0  0  0  0  0  0  0  0
   -1.5741   -0.1030    0.5749 C   0  0  0  0  0  0  0  0  0  0  0  0
   -3.0327    0.0468    0.1916 C   0  0  0  0  0  0  0  0  0  0  0  0
   -0.6347    0.7769   -0.1382 C   0  0  0  0  0  0  0  0  0  0  0  0
   -1.1287    1.7192   -1.0220 O   0  0  0  0  0  0  0  0  0  0  0  0
    0.7712    1.0271    0.4168 C   0  0  0  0  0  0  0  0  0  0  0  0
    3.4617   -0.9502   -0.4102 H   0  0  0  0  0  0  0  0  0  0  0  0
    2.8644   -0.6904    1.2406 H   0  0  0  0  0  0  0  0  0  0  0  0
    3.4503    0.7059    0.2189 H   0  0  0  0  0  0  0  0  0  0  0  0
    1.4751    0.1334   -1.3754 H   0  0  0  0  0  0  0  0  0  0  0  0
    0.5972   -1.3844    1.0915 H   0  0  0  0  0  0  0  0  0  0  0  0
    0.9292   -2.1506   -0.5617 H   0  0  0  0  0  0  0  0  0  0  0  0
   -1.0922   -1.0216   -1.4394 H   0  0  0  0  0  0  0  0  0  0  0  0
   -1.3981   -0.4563    1.6079 H   0  0  0  0  0  0  0  0  0  0  0  0
   -3.2075    0.8413   -0.5473 H   0  0  0  0  0  0  0  0  0  0  0  0
   -3.6243    0.2319    1.0997 H   0  0  0  0  0  0  0  0  0  0  0  0
   -3.3613   -0.9500   -0.2038 H   0  0  0  0  0  0  0  0  0  0  0  0
   -0.7327    1.6675   -1.9196 H   0  0  0  0  0  0  0  0  0  0  0  0
    1.1320    2.0319    0.2122 H   0  0  0  0  0  0  0  0  0  0  0  0
    0.6981    0.7866    1.5041 H   0  0  0  0  0  0  0  0  0  0  0  0
  1  2  1  0
  2  3  1  0
  3  4  1  0
  4  5  1  0
  5  6  1  0
  5  7  1  0
  7  8  1  0
  7  9  1  0
  9  2  1  0
  7  4  1  0
  1 10  1  0
  1 11  1  0
  1 12  1  0
  2 13  1  0
  3 14  1  0
  3 15  1  0
  4 16  1  0
  5 17  1  0
  6 18  1  0
  6 19  1  0
  6 20  1  0
  8 21  1  0
  9 22  1  0
  9 23  1  0
M  END
