
     RDKit          3D

 19 20  0  0  0  0  0  0  0  0999 V2000
   -2.2176   -0.8006   -0.0756 C   0  0  0  0  0  0  0  0  0  0  0  0
   -0.9797   -0.1917   -0.6762 C   0  0  0  0  0  0  0  0  0  0  0  0
    0.1259   -1.2092   -0.8259 C   0  0  0  0  0  0  0  0  0  0  0  0
    0.2797   -2.1770   -1.5354 O   0  0  0  0  0  0  0  0  0  0  0  0
    0.8469   -0.4695    0.2461 C   0  0  0  0  0  0  0  0  0  0  0  0
    2.3297   -0.5012    0.3249 C   0  0  0  0  0  0  0  0  0  0  0  0
    0.1925   -0.2211    1.4506 O   0  0  0  0  0  0  0  0  0  0  0  0
   -0.0734    0.5126    0.3250 C   0  0  0  0  0  0  0  0  0  0  0  0
    0.0103    1.9963    0.2979 C   0  0  0  0  0  0  0  0  0  0  0  0
   -2.3318   -0.6147    1.0005 H   0  0  0  0  0  0  0  0  0  0  0  0
   -2.1993   -1.9151   -0.2447 H   0  0  0  0  0  0  0  0  0  0  0  0
   -3.1362   -0.4017   -0.5662 H   0  0  0  0  0  0  0  0  0  0  0  0
   -1.1548    0.4205   -1.5706 H   0  0  0  0  0  0  0  0  0  0  0  0
    2.7874   -1.1736   -0.4332 H   0  0  0  0  0  0  0  0  0  0  0  0
    2.6296   -0.9333    1.3211 H   0  0  0  0  0  0  0  0  0  0  0  0
    2.8126    0.5021    0.2502 H   0  0  0  0  0  0  0  0  0  0  0  0
    0.8123    2.3237   -0.4013 H   0  0  0  0  0  0  0  0  0  0  0  0
    0.2110    2.4668    1.2668 H   0  0  0  0  0  0  0  0  0  0  0  0
   -0.9451    2.3866   -0.1540 H   0  0  0  0  0  0  0  0  0  0  0  0
  1  2  1  0
  2  3  1  0
  3  4  2  0
  3  5  1  0
  5  6  1  0
  5  7  1  0
  7  8  1  0
  8  9  1  0
  8  2  1  0
  8  5  1  0
  1 10  1  0
  1 11  1  0
  1 12  1  0
  2 13  1  0
  6 14  1  0
  6 15  1  0
  6 16  1  0
  9 17  1  0
  9 18  1  0
  9 19  1  0
M  END
