
     RDKit          3D

 21 21  0  0  0  0  0  0  0  0999 V2000
   -2.6073    0.1244   -0.8952 C   0  0  0  0  0  0  0  0  0  0  0  0
   -1.9177    0.3528    0.4279 C   0  0  0  0  0  0  0  0  0  0  0  0
   -1.4002   -0.9013    1.0548 C   0  0  0  0  0  0  0  0  0  0  0  0
    0.0009   -0.7072    1.0961 O   0  0  0  0  0  0  0  0  0  0  0  0
    0.1849    0.0727   -0.0361 C   0  0  0  0  0  0  0  0  0  0  0  0
    1.5510    0.7103   -0.0865 C   0  0  0  0  0  0  0  0  0  0  0  0
    2.6682   -0.2958   -0.0922 C   0  0  0  0  0  0  0  0  0  0  0  0
    3.8672    0.4080   -0.1397 O   0  0  0  0  0  0  0  0  0  0  0  0
   -0.7551    1.0816    0.1558 O   0  0  0  0  0  0  0  0  0  0  0  0
   -3.0272   -0.8899   -0.9449 H   0  0  0  0  0  0  0  0  0  0  0  0
   -1.8875    0.2473   -1.7482 H   0  0  0  0  0  0  0  0  0  0  0  0
   -3.3617    0.9269   -1.0254 H   0  0  0  0  0  0  0  0  0  0  0  0
   -2.5300    0.9704    1.1216 H   0  0  0  0  0  0  0  0  0  0  0  0
   -1.8203   -1.0120    2.0759 H   0  0  0  0  0  0  0  0  0  0  0  0
   -1.6469   -1.8158    0.4793 H   0  0  0  0  0  0  0  0  0  0  0  0
   -0.0121   -0.5425   -0.9184 H   0  0  0  0  0  0  0  0  0  0  0  0
    1.6452    1.4696    0.7022 H   0  0  0  0  0  0  0  0  0  0  0  0
    1.6048    1.2595   -1.0602 H   0  0  0  0  0  0  0  0  0  0  0  0
    2.5727   -0.9052    0.8380 H   0  0  0  0  0  0  0  0  0  0  0  0
    2.5748   -0.9038   -1.0106 H   0  0  0  0  0  0  0  0  0  0  0  0
    4.2961    0.3499   -1.0516 H   0  0  0  0  0  0  0  0  0  0  0  0
  1  2  1  0
  2  3  1  0
  3  4  1  0
  4  5  1  0
  5  6  1  0
  6  7  1  0
  7  8  1  0
  5  9  1  0
  9  2  1  0
  1 10  1  0
  1 11  1  0
  1 12  1  0
  2 13  1  0
  3 14  1  0
  3 15  1  0
  5 16  1  0
  6 17  1  0
  6 18  1  0
  7 19  1  0
  7 20  1  0
  8 21  1  0
M  END
