
     RDKit          3D

 20 20  0  0  0  0  0  0  0  0999 V2000
   -1.5866   -0.1111    1.0457 C   0  0  0  0  0  0  0  0  0  0  0  0
   -0.9913    0.0659   -0.3083 C   0  0  0  0  0  0  0  0  0  0  0  0
   -0.6907   -1.1904   -1.0845 C   0  0  0  0  0  0  0  0  0  0  0  0
    0.5762   -0.6343   -1.3682 O   0  0  0  0  0  0  0  0  0  0  0  0
    0.4789    0.3505   -0.3766 C   0  0  0  0  0  0  0  0  0  0  0  0
    0.8700    1.6804   -0.9665 C   0  0  0  0  0  0  0  0  0  0  0  0
    1.2893   -0.0735    0.8255 C   0  0  0  0  0  0  0  0  0  0  0  0
    0.7804   -1.2817    1.2997 O   0  0  0  0  0  0  0  0  0  0  0  0
   -0.9387    0.1945    1.8735 H   0  0  0  0  0  0  0  0  0  0  0  0
   -2.5811    0.3996    1.1249 H   0  0  0  0  0  0  0  0  0  0  0  0
   -1.8219   -1.2062    1.1942 H   0  0  0  0  0  0  0  0  0  0  0  0
   -1.6015    0.7670   -0.9302 H   0  0  0  0  0  0  0  0  0  0  0  0
   -1.2442   -1.3147   -2.0173 H   0  0  0  0  0  0  0  0  0  0  0  0
   -0.6203   -2.1164   -0.4774 H   0  0  0  0  0  0  0  0  0  0  0  0
    0.7925    2.5145   -0.2668 H   0  0  0  0  0  0  0  0  0  0  0  0
    1.9299    1.6299   -1.3067 H   0  0  0  0  0  0  0  0  0  0  0  0
    0.2184    1.8666   -1.8387 H   0  0  0  0  0  0  0  0  0  0  0  0
    1.3343    0.6791    1.6144 H   0  0  0  0  0  0  0  0  0  0  0  0
    2.3329   -0.2763    0.4495 H   0  0  0  0  0  0  0  0  0  0  0  0
    1.4734   -1.9435    1.5135 H   0  0  0  0  0  0  0  0  0  0  0  0
  1  2  1  0
  2  3  1  0
  3  4  1  0
  4  5  1  0
  5  6  1  0
  5  7  1  0
  7  8  1  0
  5  2  1  0
  1  9  1  0
  1 10  1  0
  1 11  1  0
  2 12  1  0
  3 13  1  0
  3 14  1  0
  6 15  1  0
  6 16  1  0
  6 17  1  0
  7 18  1  0
  7 19  1  0
  8 20  1  0
M  END
