
     RDKit          3D

 21 22  0  0  0  0  0  0  0  0999 V2000
   -2.5138   -0.8243    0.2413 C   0  0  0  0  0  0  0  0  0  0  0  0
   -1.2757   -0.3425   -0.4270 C   0  0  0  0  0  0  0  0  0  0  0  0
   -0.8625    1.0588   -0.0545 C   0  0  0  0  0  0  0  0  0  0  0  0
    0.4786    1.2855   -0.7135 C   0  0  0  0  0  0  0  0  0  0  0  0
    1.1128   -0.0657   -0.3229 C   0  0  0  0  0  0  0  0  0  0  0  0
    2.2112    0.1299    0.6807 C   0  0  0  0  0  0  0  0  0  0  0  0
    1.4649   -0.8046   -1.4189 O   0  0  0  0  0  0  0  0  0  0  0  0
   -0.0791   -0.6157    0.4303 C   0  0  0  0  0  0  0  0  0  0  0  0
   -0.4639    0.5219    1.1789 O   0  0  0  0  0  0  0  0  0  0  0  0
   -3.3236   -1.1102   -0.4419 H   0  0  0  0  0  0  0  0  0  0  0  0
   -2.8600   -0.0979    1.0284 H   0  0  0  0  0  0  0  0  0  0  0  0
   -2.2612   -1.7563    0.8289 H   0  0  0  0  0  0  0  0  0  0  0  0
   -1.1814   -0.6093   -1.4895 H   0  0  0  0  0  0  0  0  0  0  0  0
   -1.5864    1.8393   -0.0598 H   0  0  0  0  0  0  0  0  0  0  0  0
    0.9972    2.0982   -0.1866 H   0  0  0  0  0  0  0  0  0  0  0  0
    0.4229    1.4040   -1.7997 H   0  0  0  0  0  0  0  0  0  0  0  0
    3.0530    0.7254    0.3086 H   0  0  0  0  0  0  0  0  0  0  0  0
    1.7314    0.6181    1.5804 H   0  0  0  0  0  0  0  0  0  0  0  0
    2.5072   -0.8786    1.0354 H   0  0  0  0  0  0  0  0  0  0  0  0
    2.4139   -1.0381   -1.3483 H   0  0  0  0  0  0  0  0  0  0  0  0
    0.0147   -1.5377    0.9496 H   0  0  0  0  0  0  0  0  0  0  0  0
  1  2  1  0
  2  3  1  0
  3  4  1  0
  4  5  1  0
  5  6  1  0
  5  7  1  0
  5  8  1  0
  8  9  1  0
  8  2  1  0
  9  3  1  0
  1 10  1  0
  1 11  1  0
  1 12  1  0
  2 13  1  0
  3 14  1  0
  4 15  1  0
  4 16  1  0
  6 17  1  0
  6 18  1  0
  6 19  1  0
  7 20  1  0
  8 21  1  0
M  END
