
     RDKit          3D

 21 21  0  0  0  0  0  0  0  0999 V2000
   -0.3747    1.9232    0.4361 C   0  0  0  0  0  0  0  0  0  0  0  0
   -0.3849    0.4410    0.4161 C   0  0  0  0  0  0  0  0  0  0  0  0
   -1.7028   -0.1435   -0.0903 C   0  0  0  0  0  0  0  0  0  0  0  0
   -1.3019   -1.6041   -0.3460 C   0  0  0  0  0  0  0  0  0  0  0  0
    0.1636   -1.5897   -0.5119 C   0  0  0  0  0  0  0  0  0  0  0  0
    0.9153   -2.5215   -0.5834 O   0  0  0  0  0  0  0  0  0  0  0  0
    0.5613   -0.1709   -0.5774 C   0  0  0  0  0  0  0  0  0  0  0  0
    2.0044    0.0644   -0.2448 C   0  0  0  0  0  0  0  0  0  0  0  0
    2.3730   -0.4558    0.9834 O   0  0  0  0  0  0  0  0  0  0  0  0
   -0.0472    2.3393   -0.5516 H   0  0  0  0  0  0  0  0  0  0  0  0
   -1.3952    2.2946    0.6998 H   0  0  0  0  0  0  0  0  0  0  0  0
    0.3242    2.2949    1.2245 H   0  0  0  0  0  0  0  0  0  0  0  0
   -0.2460    0.0539    1.4384 H   0  0  0  0  0  0  0  0  0  0  0  0
   -2.4938   -0.1020    0.6624 H   0  0  0  0  0  0  0  0  0  0  0  0
   -2.0315    0.3257   -1.0313 H   0  0  0  0  0  0  0  0  0  0  0  0
   -1.7849   -1.9574   -1.2966 H   0  0  0  0  0  0  0  0  0  0  0  0
   -1.6434   -2.2233    0.5134 H   0  0  0  0  0  0  0  0  0  0  0  0
    0.3682    0.2919   -1.5648 H   0  0  0  0  0  0  0  0  0  0  0  0
    2.6106   -0.4065   -1.0301 H   0  0  0  0  0  0  0  0  0  0  0  0
    2.1776    1.1523   -0.2780 H   0  0  0  0  0  0  0  0  0  0  0  0
    1.9081   -0.0065    1.7322 H   0  0  0  0  0  0  0  0  0  0  0  0
  1  2  1  0
  2  3  1  0
  3  4  1  0
  4  5  1  0
  5  6  2  0
  5  7  1  0
  7  8  1  0
  8  9  1  0
  7  2  1  0
  1 10  1  0
  1 11  1  0
  1 12  1  0
  2 13  1  0
  3 14  1  0
  3 15  1  0
  4 16  1  0
  4 17  1  0
  7 18  1  0
  8 19  1  0
  8 20  1  0
  9 21  1  0
M  END
