
     RDKit          3D

 20 21  0  0  0  0  0  0  0  0999 V2000
    2.1978   -0.3543    0.3823 C   0  0  0  0  0  0  0  0  0  0  0  0
    0.9574    0.4372    0.2074 C   0  0  0  0  0  0  0  0  0  0  0  0
   -0.2437    0.0562    1.0077 C   0  0  0  0  0  0  0  0  0  0  0  0
   -1.2897    1.0236    0.5105 C   0  0  0  0  0  0  0  0  0  0  0  0
   -0.9777    0.9583   -1.0006 C   0  0  0  0  0  0  0  0  0  0  0  0
    0.1270   -0.0584   -0.9705 C   0  0  0  0  0  0  0  0  0  0  0  0
   -0.4441   -1.0808   -0.0058 C   0  0  0  0  0  0  0  0  0  0  0  0
   -1.8269   -1.2586   -0.1682 O   0  0  0  0  0  0  0  0  0  0  0  0
    2.6842   -0.2292    1.3689 H   0  0  0  0  0  0  0  0  0  0  0  0
    2.1058   -1.4352    0.2081 H   0  0  0  0  0  0  0  0  0  0  0  0
    2.9319    0.0093   -0.3967 H   0  0  0  0  0  0  0  0  0  0  0  0
    1.1513    1.5114    0.2061 H   0  0  0  0  0  0  0  0  0  0  0  0
   -0.1805   -0.1921    2.0281 H   0  0  0  0  0  0  0  0  0  0  0  0
   -1.1055    2.0216    0.9139 H   0  0  0  0  0  0  0  0  0  0  0  0
   -2.3165    0.6478    0.7101 H   0  0  0  0  0  0  0  0  0  0  0  0
   -0.6790    1.9364   -1.3880 H   0  0  0  0  0  0  0  0  0  0  0  0
   -1.8094    0.5474   -1.5679 H   0  0  0  0  0  0  0  0  0  0  0  0
    0.6109   -0.3748   -1.8483 H   0  0  0  0  0  0  0  0  0  0  0  0
    0.1406   -1.9734    0.1707 H   0  0  0  0  0  0  0  0  0  0  0  0
   -2.0340   -2.1922   -0.3678 H   0  0  0  0  0  0  0  0  0  0  0  0
  1  2  1  0
  2  3  1  0
  3  4  1  0
  4  5  1  0
  5  6  1  0
  6  7  1  0
  7  8  1  0
  6  2  1  0
  7  3  1  0
  1  9  1  0
  1 10  1  0
  1 11  1  0
  2 12  1  0
  3 13  1  0
  4 14  1  0
  4 15  1  0
  5 16  1  0
  5 17  1  0
  6 18  1  0
  7 19  1  0
  8 20  1  0
M  END
