
     RDKit          3D

 19 21  0  0  0  0  0  0  0  0999 V2000
    1.7505   -0.9337   -0.2426 C   0  0  0  0  0  0  0  0  0  0  0  0
    0.9133    0.3035   -0.2977 C   0  0  0  0  0  0  0  0  0  0  0  0
    1.1911    1.2101    0.8870 C   0  0  0  0  0  0  0  0  0  0  0  0
   -0.0914    0.9681    1.4206 O   0  0  0  0  0  0  0  0  0  0  0  0
   -0.4179    0.2834    0.3106 C   0  0  0  0  0  0  0  0  0  0  0  0
   -1.4946    0.8045   -0.5868 C   0  0  0  0  0  0  0  0  0  0  0  0
   -2.1037   -0.6031   -0.5070 C   0  0  0  0  0  0  0  0  0  0  0  0
   -2.4963   -0.9505    0.7566 O   0  0  0  0  0  0  0  0  0  0  0  0
   -1.1564   -1.0037    0.4266 C   0  0  0  0  0  0  0  0  0  0  0  0
    2.8176   -0.6081   -0.1735 H   0  0  0  0  0  0  0  0  0  0  0  0
    1.6774   -1.5278   -1.1808 H   0  0  0  0  0  0  0  0  0  0  0  0
    1.4711   -1.5452    0.6221 H   0  0  0  0  0  0  0  0  0  0  0  0
    0.9677    0.8824   -1.2329 H   0  0  0  0  0  0  0  0  0  0  0  0
    1.9485    0.8246    1.5928 H   0  0  0  0  0  0  0  0  0  0  0  0
    1.4053    2.2565    0.6478 H   0  0  0  0  0  0  0  0  0  0  0  0
   -1.1202    1.0668   -1.5886 H   0  0  0  0  0  0  0  0  0  0  0  0
   -2.0912    1.5791   -0.0786 H   0  0  0  0  0  0  0  0  0  0  0  0
   -2.5167   -1.0594   -1.3962 H   0  0  0  0  0  0  0  0  0  0  0  0
   -0.6540   -1.9475    0.6209 H   0  0  0  0  0  0  0  0  0  0  0  0
  1  2  1  0
  2  3  1  0
  3  4  1  0
  4  5  1  0
  5  6  1  0
  6  7  1  0
  7  8  1  0
  8  9  1  0
  5  2  1  0
  9  7  1  0
  9  5  1  0
  1 10  1  0
  1 11  1  0
  1 12  1  0
  2 13  1  0
  3 14  1  0
  3 15  1  0
  6 16  1  0
  6 17  1  0
  7 18  1  0
  9 19  1  0
M  END
