
     RDKit          3D

 23 24  0  0  0  0  0  0  0  0999 V2000
    2.1749    0.6684   -0.7570 C   0  0  0  0  0  0  0  0  0  0  0  0
    1.4679   -0.4982   -0.0732 C   0  0  0  0  0  0  0  0  0  0  0  0
    1.0958   -0.1610    1.3435 C   0  0  0  0  0  0  0  0  0  0  0  0
   -0.3871    0.0513    1.3883 C   0  0  0  0  0  0  0  0  0  0  0  0
   -0.8622   -0.1180   -0.0049 C   0  0  0  0  0  0  0  0  0  0  0  0
   -2.2000   -0.7653   -0.2078 C   0  0  0  0  0  0  0  0  0  0  0  0
   -2.4275    0.1531   -1.2501 O   0  0  0  0  0  0  0  0  0  0  0  0
   -1.6040    1.0523   -0.5574 C   0  0  0  0  0  0  0  0  0  0  0  0
    0.1910   -0.7381   -0.8300 C   0  0  0  0  0  0  0  0  0  0  0  0
    1.8221    0.7676   -1.8103 H   0  0  0  0  0  0  0  0  0  0  0  0
    1.8413    1.5920   -0.2239 H   0  0  0  0  0  0  0  0  0  0  0  0
    3.2627    0.5293   -0.7528 H   0  0  0  0  0  0  0  0  0  0  0  0
    2.0986   -1.4068   -0.0465 H   0  0  0  0  0  0  0  0  0  0  0  0
    1.3331   -0.9863    2.0539 H   0  0  0  0  0  0  0  0  0  0  0  0
    1.6572    0.7537    1.6448 H   0  0  0  0  0  0  0  0  0  0  0  0
   -0.9186   -0.6583    2.0571 H   0  0  0  0  0  0  0  0  0  0  0  0
   -0.5785    1.1064    1.7094 H   0  0  0  0  0  0  0  0  0  0  0  0
   -2.8344   -0.6418    0.6740 H   0  0  0  0  0  0  0  0  0  0  0  0
   -2.1594   -1.7864   -0.6537 H   0  0  0  0  0  0  0  0  0  0  0  0
   -2.2253    1.5217    0.2544 H   0  0  0  0  0  0  0  0  0  0  0  0
   -1.0453    1.7591   -1.1876 H   0  0  0  0  0  0  0  0  0  0  0  0
    0.0426   -1.8422   -0.8934 H   0  0  0  0  0  0  0  0  0  0  0  0
    0.2551   -0.3528   -1.8768 H   0  0  0  0  0  0  0  0  0  0  0  0
  1  2  1  0
  2  3  1  0
  3  4  1  0
  4  5  1  0
  5  6  1  0
  6  7  1  0
  7  8  1  0
  5  9  1  0
  9  2  1  0
  8  5  1  0
  1 10  1  0
  1 11  1  0
  1 12  1  0
  2 13  1  0
  3 14  1  0
  3 15  1  0
  4 16  1  0
  4 17  1  0
  6 18  1  0
  6 19  1  0
  8 20  1  0
  8 21  1  0
  9 22  1  0
  9 23  1  0
M  END
