
     RDKit          3D

 25 26  0  0  0  0  0  0  0  0999 V2000
    1.6490   -1.0518   -0.7983 C   0  0  0  0  0  0  0  0  0  0  0  0
    0.8503    0.1624   -0.5460 C   0  0  0  0  0  0  0  0  0  0  0  0
    0.9873    0.6858    0.8928 C   0  0  0  0  0  0  0  0  0  0  0  0
    0.3433   -0.4418    1.6599 C   0  0  0  0  0  0  0  0  0  0  0  0
   -0.7459   -0.9908    0.7490 C   0  0  0  0  0  0  0  0  0  0  0  0
   -0.6581   -0.1172   -0.4494 C   0  0  0  0  0  0  0  0  0  0  0  0
   -1.2530   -0.6130   -1.6844 C   0  0  0  0  0  0  0  0  0  0  0  0
   -1.1216    1.2813   -0.0301 C   0  0  0  0  0  0  0  0  0  0  0  0
    0.0182    1.8258    0.8441 C   0  0  0  0  0  0  0  0  0  0  0  0
    2.5257   -0.7609   -1.4479 H   0  0  0  0  0  0  0  0  0  0  0  0
    1.1344   -1.8548   -1.3643 H   0  0  0  0  0  0  0  0  0  0  0  0
    2.1210   -1.4285    0.1426 H   0  0  0  0  0  0  0  0  0  0  0  0
    1.0235    1.0117   -1.2009 H   0  0  0  0  0  0  0  0  0  0  0  0
    1.9956    0.9225    1.1687 H   0  0  0  0  0  0  0  0  0  0  0  0
   -0.0797   -0.0546    2.6188 H   0  0  0  0  0  0  0  0  0  0  0  0
    1.0307   -1.2846    1.8604 H   0  0  0  0  0  0  0  0  0  0  0  0
   -1.7336   -0.8335    1.2666 H   0  0  0  0  0  0  0  0  0  0  0  0
   -0.6287   -2.0618    0.5451 H   0  0  0  0  0  0  0  0  0  0  0  0
   -1.9849    0.1129   -2.0847 H   0  0  0  0  0  0  0  0  0  0  0  0
   -1.8071   -1.5734   -1.4704 H   0  0  0  0  0  0  0  0  0  0  0  0
   -0.5089   -0.8445   -2.4960 H   0  0  0  0  0  0  0  0  0  0  0  0
   -1.2917    1.8946   -0.9160 H   0  0  0  0  0  0  0  0  0  0  0  0
   -1.9878    1.1832    0.6388 H   0  0  0  0  0  0  0  0  0  0  0  0
   -0.3272    2.1360    1.8293 H   0  0  0  0  0  0  0  0  0  0  0  0
    0.4494    2.6950    0.2721 H   0  0  0  0  0  0  0  0  0  0  0  0
  1  2  1  0
  2  3  1  0
  3  4  1  0
  4  5  1  0
  5  6  1  0
  6  7  1  0
  6  8  1  0
  8  9  1  0
  6  2  1  0
  9  3  1  0
  1 10  1  0
  1 11  1  0
  1 12  1  0
  2 13  1  0
  3 14  1  0
  4 15  1  0
  4 16  1  0
  5 17  1  0
  5 18  1  0
  7 19  1  0
  7 20  1  0
  7 21  1  0
  8 22  1  0
  8 23  1  0
  9 24  1  0
  9 25  1  0
M  END
