
     RDKit          3D

 19 21  0  0  0  0  0  0  0  0999 V2000
    2.5841   -0.4656    0.0966 C   0  0  0  0  0  0  0  0  0  0  0  0
    1.2358    0.1667   -0.1323 C   0  0  0  0  0  0  0  0  0  0  0  0
    0.0990   -0.5949   -0.6415 C   0  0  0  0  0  0  0  0  0  0  0  0
   -0.9873    0.1370   -1.3856 C   0  0  0  0  0  0  0  0  0  0  0  0
   -2.1167    0.4754   -0.7888 C   0  0  0  0  0  0  0  0  0  0  0  0
   -2.1737    0.0741    0.6013 C   0  0  0  0  0  0  0  0  0  0  0  0
   -2.0564    0.7037    1.7456 O   0  0  0  0  0  0  0  0  0  0  0  0
   -0.8910    0.7779    1.1251 C   0  0  0  0  0  0  0  0  0  0  0  0
    0.1662   -0.1807    0.8311 C   0  0  0  0  0  0  0  0  0  0  0  0
    3.1165    0.1959    0.8351 H   0  0  0  0  0  0  0  0  0  0  0  0
    3.2105   -0.5211   -0.7997 H   0  0  0  0  0  0  0  0  0  0  0  0
    2.4699   -1.4595    0.6097 H   0  0  0  0  0  0  0  0  0  0  0  0
    1.3175    1.2311   -0.4894 H   0  0  0  0  0  0  0  0  0  0  0  0
    0.2460   -1.6659   -0.8819 H   0  0  0  0  0  0  0  0  0  0  0  0
   -0.8248    0.3885   -2.4448 H   0  0  0  0  0  0  0  0  0  0  0  0
   -2.8845    0.9852   -1.2929 H   0  0  0  0  0  0  0  0  0  0  0  0
   -2.1943   -1.0494    0.6945 H   0  0  0  0  0  0  0  0  0  0  0  0
   -0.6743    1.8061    0.7570 H   0  0  0  0  0  0  0  0  0  0  0  0
    0.3573   -1.0046    1.5608 H   0  0  0  0  0  0  0  0  0  0  0  0
  1  2  1  0
  2  3  1  0
  3  4  1  0
  4  5  2  0
  5  6  1  0
  6  7  1  0
  7  8  1  0
  8  9  1  0
  9  2  1  0
  9  3  1  0
  8  6  1  0
  1 10  1  0
  1 11  1  0
  1 12  1  0
  2 13  1  0
  3 14  1  0
  4 15  1  0
  5 16  1  0
  6 17  1  0
  8 18  1  0
  9 19  1  0
M  END
