
     RDKit          3D

 19 21  0  0  0  0  0  0  0  0999 V2000
    2.8483    0.2341   -0.0721 C   0  0  0  0  0  0  0  0  0  0  0  0
    1.4700   -0.0874   -0.5527 C   0  0  0  0  0  0  0  0  0  0  0  0
    0.5767   -0.8319    0.3850 C   0  0  0  0  0  0  0  0  0  0  0  0
    0.5170    0.3265    1.1382 O   0  0  0  0  0  0  0  0  0  0  0  0
    0.3732    0.8361   -0.1424 C   0  0  0  0  0  0  0  0  0  0  0  0
   -0.5830   -0.2863   -0.3933 C   0  0  0  0  0  0  0  0  0  0  0  0
   -1.8857   -0.2190    0.3251 C   0  0  0  0  0  0  0  0  0  0  0  0
   -3.0769    0.2967   -0.3535 C   0  0  0  0  0  0  0  0  0  0  0  0
   -2.8698   -1.0847   -0.3747 O   0  0  0  0  0  0  0  0  0  0  0  0
    3.0348   -0.0511    0.9727 H   0  0  0  0  0  0  0  0  0  0  0  0
    3.0929    1.2920   -0.2958 H   0  0  0  0  0  0  0  0  0  0  0  0
    3.5651   -0.3720   -0.6906 H   0  0  0  0  0  0  0  0  0  0  0  0
    1.3769   -0.4367   -1.6023 H   0  0  0  0  0  0  0  0  0  0  0  0
    0.6889   -1.7738    0.7212 H   0  0  0  0  0  0  0  0  0  0  0  0
    0.2558    1.8042   -0.3982 H   0  0  0  0  0  0  0  0  0  0  0  0
   -0.6168   -0.6339   -1.4245 H   0  0  0  0  0  0  0  0  0  0  0  0
   -1.8931   -0.4880    1.4012 H   0  0  0  0  0  0  0  0  0  0  0  0
   -3.9773    0.6005    0.1918 H   0  0  0  0  0  0  0  0  0  0  0  0
   -2.8970    0.8748   -1.2816 H   0  0  0  0  0  0  0  0  0  0  0  0
  1  2  1  0
  2  3  1  0
  3  4  1  0
  4  5  1  0
  5  6  1  0
  6  7  1  0
  7  8  1  0
  8  9  1  0
  5  2  1  0
  9  7  1  0
  6  3  1  0
  1 10  1  0
  1 11  1  0
  1 12  1  0
  2 13  1  0
  3 14  1  0
  5 15  1  0
  6 16  1  0
  7 17  1  0
  8 18  1  0
  8 19  1  0
M  END
