
     RDKit          3D

 21 22  0  0  0  0  0  0  0  0999 V2000
    2.2681    0.5041   -0.4133 C   0  0  0  0  0  0  0  0  0  0  0  0
    1.2150   -0.2196    0.3397 C   0  0  0  0  0  0  0  0  0  0  0  0
    0.3600   -1.1794   -0.4286 C   0  0  0  0  0  0  0  0  0  0  0  0
   -0.8982   -0.4645   -0.0326 C   0  0  0  0  0  0  0  0  0  0  0  0
   -1.9317   -1.2562    0.7238 C   0  0  0  0  0  0  0  0  0  0  0  0
   -1.0106    0.9916   -0.1393 C   0  0  0  0  0  0  0  0  0  0  0  0
   -0.7380    1.7318   -1.3729 C   0  0  0  0  0  0  0  0  0  0  0  0
    0.1592    1.4188   -2.1058 O   0  0  0  0  0  0  0  0  0  0  0  0
   -0.0044    0.4875    0.7900 C   0  0  0  0  0  0  0  0  0  0  0  0
    3.2818    0.2885    0.0656 H   0  0  0  0  0  0  0  0  0  0  0  0
    2.2169    1.6058   -0.3910 H   0  0  0  0  0  0  0  0  0  0  0  0
    2.4296    0.1356   -1.4682 H   0  0  0  0  0  0  0  0  0  0  0  0
    1.6862   -0.7246    1.2652 H   0  0  0  0  0  0  0  0  0  0  0  0
    0.4143   -2.1998    0.0010 H   0  0  0  0  0  0  0  0  0  0  0  0
    0.5577   -1.2404   -1.5165 H   0  0  0  0  0  0  0  0  0  0  0  0
   -2.6999   -0.5970    1.1784 H   0  0  0  0  0  0  0  0  0  0  0  0
   -1.3901   -1.8369    1.5009 H   0  0  0  0  0  0  0  0  0  0  0  0
   -2.3996   -1.9530    0.0198 H   0  0  0  0  0  0  0  0  0  0  0  0
   -1.9537    1.4090    0.3759 H   0  0  0  0  0  0  0  0  0  0  0  0
   -1.3421    2.5795   -1.6502 H   0  0  0  0  0  0  0  0  0  0  0  0
   -0.2205    0.5193    1.9078 H   0  0  0  0  0  0  0  0  0  0  0  0
  1  2  1  0
  2  3  1  0
  3  4  1  0
  4  5  1  0
  4  6  1  0
  6  7  1  0
  7  8  2  0
  6  9  1  0
  9  2  1  0
  9  4  1  0
  1 10  1  0
  1 11  1  0
  1 12  1  0
  2 13  1  0
  3 14  1  0
  3 15  1  0
  5 16  1  0
  5 17  1  0
  5 18  1  0
  6 19  1  0
  7 20  1  0
  9 21  1  0
M  END
