
     RDKit          3D

 23 24  0  0  0  0  0  0  0  0999 V2000
    2.7136    0.0699   -0.5404 C   0  0  0  0  0  0  0  0  0  0  0  0
    1.3492   -0.2709   -0.0615 C   0  0  0  0  0  0  0  0  0  0  0  0
    0.8076    0.6720    0.9829 C   0  0  0  0  0  0  0  0  0  0  0  0
   -0.5134    0.3511    1.2365 O   0  0  0  0  0  0  0  0  0  0  0  0
   -1.2545    0.0592    0.1224 C   0  0  0  0  0  0  0  0  0  0  0  0
   -2.7240    0.1195    0.3005 C   0  0  0  0  0  0  0  0  0  0  0  0
   -0.6902    0.7602   -1.0994 C   0  0  0  0  0  0  0  0  0  0  0  0
    0.3228   -0.3919   -1.1490 C   0  0  0  0  0  0  0  0  0  0  0  0
   -0.8055   -1.2475   -0.5517 C   0  0  0  0  0  0  0  0  0  0  0  0
    2.7254    0.5306   -1.5558 H   0  0  0  0  0  0  0  0  0  0  0  0
    3.2263    0.7079    0.2174 H   0  0  0  0  0  0  0  0  0  0  0  0
    3.3740   -0.8420   -0.6290 H   0  0  0  0  0  0  0  0  0  0  0  0
    1.4121   -1.2828    0.4361 H   0  0  0  0  0  0  0  0  0  0  0  0
    0.9632    1.7327    0.7061 H   0  0  0  0  0  0  0  0  0  0  0  0
    1.3603    0.5281    1.9437 H   0  0  0  0  0  0  0  0  0  0  0  0
   -3.1829   -0.8715    0.0353 H   0  0  0  0  0  0  0  0  0  0  0  0
   -2.9269    0.2206    1.4070 H   0  0  0  0  0  0  0  0  0  0  0  0
   -3.2335    0.9612   -0.1733 H   0  0  0  0  0  0  0  0  0  0  0  0
   -1.3671    0.6828   -1.9657 H   0  0  0  0  0  0  0  0  0  0  0  0
   -0.2523    1.7441   -0.9322 H   0  0  0  0  0  0  0  0  0  0  0  0
    0.6531   -0.6818   -2.1365 H   0  0  0  0  0  0  0  0  0  0  0  0
   -1.4906   -1.5301   -1.3542 H   0  0  0  0  0  0  0  0  0  0  0  0
   -0.4667   -2.0213    0.1434 H   0  0  0  0  0  0  0  0  0  0  0  0
  1  2  1  0
  2  3  1  0
  3  4  1  0
  4  5  1  0
  5  6  1  0
  5  7  1  0
  7  8  1  0
  8  9  1  0
  8  2  1  0
  9  5  1  0
  1 10  1  0
  1 11  1  0
  1 12  1  0
  2 13  1  0
  3 14  1  0
  3 15  1  0
  6 16  1  0
  6 17  1  0
  6 18  1  0
  7 19  1  0
  7 20  1  0
  8 21  1  0
  9 22  1  0
  9 23  1  0
M  END
