
     RDKit          3D

 18 18  0  0  0  0  0  0  0  0999 V2000
   -2.1375   -0.5275    0.1517 C   0  0  0  0  0  0  0  0  0  0  0  0
   -0.6955   -0.1159    0.4613 C   0  0  0  0  0  0  0  0  0  0  0  0
   -0.5243    1.2824    0.0518 C   0  0  0  0  0  0  0  0  0  0  0  0
    0.7284    1.7126   -0.1264 C   0  0  0  0  0  0  0  0  0  0  0  0
    1.8402    0.7953    0.0888 C   0  0  0  0  0  0  0  0  0  0  0  0
    2.9215    1.2515    0.5606 O   0  0  0  0  0  0  0  0  0  0  0  0
    1.6501   -0.6307   -0.2563 C   0  0  0  0  0  0  0  0  0  0  0  0
    0.2333   -1.0707   -0.2031 C   0  0  0  0  0  0  0  0  0  0  0  0
   -2.8409    0.2855    0.3980 H   0  0  0  0  0  0  0  0  0  0  0  0
   -2.1661   -0.6893   -0.9576 H   0  0  0  0  0  0  0  0  0  0  0  0
   -2.4023   -1.4601    0.6847 H   0  0  0  0  0  0  0  0  0  0  0  0
   -0.5034   -0.1628    1.5672 H   0  0  0  0  0  0  0  0  0  0  0  0
   -1.3206    1.9834   -0.1150 H   0  0  0  0  0  0  0  0  0  0  0  0
    0.9229    2.7342   -0.4275 H   0  0  0  0  0  0  0  0  0  0  0  0
    2.3445   -1.3022    0.3243 H   0  0  0  0  0  0  0  0  0  0  0  0
    1.9989   -0.7403   -1.3224 H   0  0  0  0  0  0  0  0  0  0  0  0
   -0.1899   -1.2915   -1.2228 H   0  0  0  0  0  0  0  0  0  0  0  0
    0.1407   -2.0541    0.3427 H   0  0  0  0  0  0  0  0  0  0  0  0
  1  2  1  0
  2  3  1  0
  3  4  2  0
  4  5  1  0
  5  6  2  0
  5  7  1  0
  7  8  1  0
  8  2  1  0
  1  9  1  0
  1 10  1  0
  1 11  1  0
  2 12  1  0
  3 13  1  0
  4 14  1  0
  7 15  1  0
  7 16  1  0
  8 17  1  0
  8 18  1  0
M  END
