
     RDKit          3D

 19 21  0  0  0  0  0  0  0  0999 V2000
    2.0557   -0.0198    0.5788 C   0  0  0  0  0  0  0  0  0  0  0  0
    0.8771   -0.3891   -0.2470 C   0  0  0  0  0  0  0  0  0  0  0  0
   -0.2571   -1.0899    0.4767 C   0  0  0  0  0  0  0  0  0  0  0  0
   -1.3028   -1.6379   -0.4175 C   0  0  0  0  0  0  0  0  0  0  0  0
   -1.2595   -0.1836   -0.2650 C   0  0  0  0  0  0  0  0  0  0  0  0
   -2.2433    0.4400    0.4786 O   0  0  0  0  0  0  0  0  0  0  0  0
   -0.0904    0.6652   -0.6169 C   0  0  0  0  0  0  0  0  0  0  0  0
   -0.0549    2.0319   -0.4345 C   0  0  0  0  0  0  0  0  0  0  0  0
   -0.0241    1.3833   -1.7741 O   0  0  0  0  0  0  0  0  0  0  0  0
    2.9874   -0.1593   -0.0447 H   0  0  0  0  0  0  0  0  0  0  0  0
    2.0199    0.9691    1.0403 H   0  0  0  0  0  0  0  0  0  0  0  0
    2.1575   -0.8021    1.3866 H   0  0  0  0  0  0  0  0  0  0  0  0
    1.1561   -1.0031   -1.1525 H   0  0  0  0  0  0  0  0  0  0  0  0
   -0.2962   -1.1263    1.5580 H   0  0  0  0  0  0  0  0  0  0  0  0
   -0.8942   -2.1627   -1.3261 H   0  0  0  0  0  0  0  0  0  0  0  0
   -2.1437   -2.1617    0.0638 H   0  0  0  0  0  0  0  0  0  0  0  0
   -2.5336   -0.0449    1.2640 H   0  0  0  0  0  0  0  0  0  0  0  0
   -1.0001    2.6323   -0.3124 H   0  0  0  0  0  0  0  0  0  0  0  0
    0.8460    2.6585   -0.2560 H   0  0  0  0  0  0  0  0  0  0  0  0
  1  2  1  0
  2  3  1  0
  3  4  1  0
  4  5  1  0
  5  6  1  0
  5  7  1  0
  7  8  1  0
  8  9  1  0
  7  2  1  0
  5  3  1  0
  9  7  1  0
  1 10  1  0
  1 11  1  0
  1 12  1  0
  2 13  1  0
  3 14  1  0
  4 15  1  0
  4 16  1  0
  6 17  1  0
  8 18  1  0
  8 19  1  0
M  END
