
     RDKit          3D

 25 26  0  0  0  0  0  0  0  0999 V2000
   -0.7444   -2.1592    0.8012 C   0  0  0  0  0  0  0  0  0  0  0  0
    0.2795   -1.2071    0.2910 C   0  0  0  0  0  0  0  0  0  0  0  0
    0.0948   -0.6603   -1.0833 C   0  0  0  0  0  0  0  0  0  0  0  0
    0.8755    0.5436   -0.6292 C   0  0  0  0  0  0  0  0  0  0  0  0
    2.3271    0.3882   -0.4332 C   0  0  0  0  0  0  0  0  0  0  0  0
   -0.0414    0.2762    0.5165 C   0  0  0  0  0  0  0  0  0  0  0  0
   -0.1532    0.8989    1.7195 C   0  0  0  0  0  0  0  0  0  0  0  0
   -1.1010    0.0826   -0.5413 C   0  0  0  0  0  0  0  0  0  0  0  0
   -1.4761    1.3300   -1.3017 C   0  0  0  0  0  0  0  0  0  0  0  0
   -0.2744   -2.8302    1.5800 H   0  0  0  0  0  0  0  0  0  0  0  0
   -1.5845   -1.6553    1.3610 H   0  0  0  0  0  0  0  0  0  0  0  0
   -1.1361   -2.8644    0.0318 H   0  0  0  0  0  0  0  0  0  0  0  0
    1.2965   -1.5042    0.5485 H   0  0  0  0  0  0  0  0  0  0  0  0
    0.1623   -1.1305   -1.9646 H   0  0  0  0  0  0  0  0  0  0  0  0
    0.6342    1.4088   -1.2706 H   0  0  0  0  0  0  0  0  0  0  0  0
    2.6541    0.0179    0.5451 H   0  0  0  0  0  0  0  0  0  0  0  0
    2.8196    1.3998   -0.5517 H   0  0  0  0  0  0  0  0  0  0  0  0
    2.7690   -0.2152   -1.2785 H   0  0  0  0  0  0  0  0  0  0  0  0
   -1.1776    1.3149    1.9610 H   0  0  0  0  0  0  0  0  0  0  0  0
    0.0754    0.2571    2.6243 H   0  0  0  0  0  0  0  0  0  0  0  0
    0.5228    1.7939    1.8713 H   0  0  0  0  0  0  0  0  0  0  0  0
   -1.9731   -0.4978   -0.2735 H   0  0  0  0  0  0  0  0  0  0  0  0
   -1.1048    1.3066   -2.3529 H   0  0  0  0  0  0  0  0  0  0  0  0
   -2.5950    1.4404   -1.4000 H   0  0  0  0  0  0  0  0  0  0  0  0
   -1.1492    2.2652   -0.7709 H   0  0  0  0  0  0  0  0  0  0  0  0
  1  2  1  0
  2  3  1  0
  3  4  1  0
  4  5  1  0
  4  6  1  0
  6  7  1  0
  6  8  1  0
  8  9  1  0
  6  2  1  0
  8  3  1  0
  1 10  1  0
  1 11  1  0
  1 12  1  0
  2 13  1  0
  3 14  1  0
  4 15  1  0
  5 16  1  0
  5 17  1  0
  5 18  1  0
  7 19  1  0
  7 20  1  0
  7 21  1  0
  8 22  1  0
  9 23  1  0
  9 24  1  0
  9 25  1  0
M  END
