
     RDKit          3D

 23 24  0  0  0  0  0  0  0  0999 V2000
    2.7331   -0.5863   -0.0492 C   0  0  0  0  0  0  0  0  0  0  0  0
    1.2998   -0.3853   -0.4263 C   0  0  0  0  0  0  0  0  0  0  0  0
    0.9554    1.0793   -0.6624 C   0  0  0  0  0  0  0  0  0  0  0  0
   -0.3340    1.1596    0.1649 C   0  0  0  0  0  0  0  0  0  0  0  0
    0.1355    0.5198    1.3388 O   0  0  0  0  0  0  0  0  0  0  0  0
    0.4411   -0.7330    0.7541 C   0  0  0  0  0  0  0  0  0  0  0  0
   -0.9571   -1.1094    0.2675 C   0  0  0  0  0  0  0  0  0  0  0  0
   -1.3488    0.2160   -0.4020 C   0  0  0  0  0  0  0  0  0  0  0  0
   -2.7534    0.5269    0.0156 C   0  0  0  0  0  0  0  0  0  0  0  0
    3.4267   -0.6207   -0.9144 H   0  0  0  0  0  0  0  0  0  0  0  0
    3.0695    0.1051    0.7475 H   0  0  0  0  0  0  0  0  0  0  0  0
    2.8027   -1.6145    0.4137 H   0  0  0  0  0  0  0  0  0  0  0  0
    1.0674   -0.9429   -1.3382 H   0  0  0  0  0  0  0  0  0  0  0  0
    1.6755    1.7612   -0.1623 H   0  0  0  0  0  0  0  0  0  0  0  0
    0.7952    1.3229   -1.7087 H   0  0  0  0  0  0  0  0  0  0  0  0
   -0.6687    2.1687    0.3353 H   0  0  0  0  0  0  0  0  0  0  0  0
    0.8631   -1.4374    1.4503 H   0  0  0  0  0  0  0  0  0  0  0  0
   -0.9551   -1.9434   -0.4314 H   0  0  0  0  0  0  0  0  0  0  0  0
   -1.5754   -1.2619    1.1751 H   0  0  0  0  0  0  0  0  0  0  0  0
   -1.2705    0.1042   -1.5106 H   0  0  0  0  0  0  0  0  0  0  0  0
   -2.9831    0.0375    0.9885 H   0  0  0  0  0  0  0  0  0  0  0  0
   -3.4339    0.0300   -0.7340 H   0  0  0  0  0  0  0  0  0  0  0  0
   -2.9853    1.6035   -0.0001 H   0  0  0  0  0  0  0  0  0  0  0  0
  1  2  1  0
  2  3  1  0
  3  4  1  0
  4  5  1  0
  5  6  1  0
  6  7  1  0
  7  8  1  0
  8  9  1  0
  6  2  1  0
  8  4  1  0
  1 10  1  0
  1 11  1  0
  1 12  1  0
  2 13  1  0
  3 14  1  0
  3 15  1  0
  4 16  1  0
  6 17  1  0
  7 18  1  0
  7 19  1  0
  8 20  1  0
  9 21  1  0
  9 22  1  0
  9 23  1  0
M  END
