
     RDKit          3D

 21 22  0  0  0  0  0  0  0  0999 V2000
   -3.0811   -0.2856   -0.8843 C   0  0  0  0  0  0  0  0  0  0  0  0
   -1.9420    0.5781   -0.4000 C   0  0  0  0  0  0  0  0  0  0  0  0
   -1.5475    0.4864    1.0623 C   0  0  0  0  0  0  0  0  0  0  0  0
   -0.6620   -0.0416   -0.0534 C   0  0  0  0  0  0  0  0  0  0  0  0
    0.5501    0.6408   -0.1504 O   0  0  0  0  0  0  0  0  0  0  0  0
    1.5607   -0.2580   -0.3664 C   0  0  0  0  0  0  0  0  0  0  0  0
    2.7735   -0.1174    0.5278 C   0  0  0  0  0  0  0  0  0  0  0  0
    3.5492   -0.5460   -0.5540 O   0  0  0  0  0  0  0  0  0  0  0  0
    2.5924    0.0804   -1.3846 C   0  0  0  0  0  0  0  0  0  0  0  0
   -2.9120   -0.6960   -1.8996 H   0  0  0  0  0  0  0  0  0  0  0  0
   -4.0353    0.2776   -0.9192 H   0  0  0  0  0  0  0  0  0  0  0  0
   -3.1439   -1.1649   -0.1996 H   0  0  0  0  0  0  0  0  0  0  0  0
   -2.0093    1.6345   -0.7614 H   0  0  0  0  0  0  0  0  0  0  0  0
   -1.2466    1.4082    1.6004 H   0  0  0  0  0  0  0  0  0  0  0  0
   -2.0443   -0.2583    1.7132 H   0  0  0  0  0  0  0  0  0  0  0  0
   -0.6168   -1.1637   -0.1625 H   0  0  0  0  0  0  0  0  0  0  0  0
    1.2454   -1.3132   -0.4219 H   0  0  0  0  0  0  0  0  0  0  0  0
    2.7548   -0.8858    1.3221 H   0  0  0  0  0  0  0  0  0  0  0  0
    3.0097    0.8999    0.8509 H   0  0  0  0  0  0  0  0  0  0  0  0
    2.4114   -0.4400   -2.3384 H   0  0  0  0  0  0  0  0  0  0  0  0
    2.7935    1.1647   -1.4465 H   0  0  0  0  0  0  0  0  0  0  0  0
  1  2  1  0
  2  3  1  0
  3  4  1  0
  4  5  1  0
  5  6  1  0
  6  7  1  0
  7  8  1  0
  8  9  1  0
  4  2  1  0
  9  6  1  0
  1 10  1  0
  1 11  1  0
  1 12  1  0
  2 13  1  0
  3 14  1  0
  3 15  1  0
  4 16  1  0
  6 17  1  0
  7 18  1  0
  7 19  1  0
  9 20  1  0
  9 21  1  0
M  END
