
     RDKit          3D

 19 21  0  0  0  0  0  0  0  0999 V2000
    1.9867   -0.6073    0.3776 C   0  0  0  0  0  0  0  0  0  0  0  0
    0.7839   -0.2197   -0.4524 C   0  0  0  0  0  0  0  0  0  0  0  0
    0.6359    1.2542   -0.6291 C   0  0  0  0  0  0  0  0  0  0  0  0
    0.3817    2.0907    0.4241 O   0  0  0  0  0  0  0  0  0  0  0  0
   -0.7595    1.6172   -0.1769 C   0  0  0  0  0  0  0  0  0  0  0  0
   -1.3851    0.3809    0.3886 C   0  0  0  0  0  0  0  0  0  0  0  0
   -1.7623   -0.7444   -0.5683 C   0  0  0  0  0  0  0  0  0  0  0  0
   -0.4817   -0.7472    0.1637 C   0  0  0  0  0  0  0  0  0  0  0  0
   -0.2953   -1.6242    1.2233 O   0  0  0  0  0  0  0  0  0  0  0  0
    2.2042   -1.6786    0.1197 H   0  0  0  0  0  0  0  0  0  0  0  0
    2.8553    0.0376    0.1237 H   0  0  0  0  0  0  0  0  0  0  0  0
    1.7298   -0.5348    1.4663 H   0  0  0  0  0  0  0  0  0  0  0  0
    0.9154   -0.6645   -1.4780 H   0  0  0  0  0  0  0  0  0  0  0  0
    1.0653    1.7473   -1.5193 H   0  0  0  0  0  0  0  0  0  0  0  0
   -1.3203    2.2097   -0.9130 H   0  0  0  0  0  0  0  0  0  0  0  0
   -2.0438    0.4669    1.2852 H   0  0  0  0  0  0  0  0  0  0  0  0
   -2.5467   -1.4406   -0.2312 H   0  0  0  0  0  0  0  0  0  0  0  0
   -1.7964   -0.4513   -1.6410 H   0  0  0  0  0  0  0  0  0  0  0  0
   -0.1672   -1.0921    2.0371 H   0  0  0  0  0  0  0  0  0  0  0  0
  1  2  1  0
  2  3  1  0
  3  4  1  0
  4  5  1  0
  5  6  1  0
  6  7  1  0
  7  8  1  0
  8  9  1  0
  8  2  1  0
  5  3  1  0
  8  6  1  0
  1 10  1  0
  1 11  1  0
  1 12  1  0
  2 13  1  0
  3 14  1  0
  5 15  1  0
  6 16  1  0
  7 17  1  0
  7 18  1  0
  9 19  1  0
M  END
