
     RDKit          3D

 19 20  0  0  0  0  0  0  0  0999 V2000
   -1.6295    1.3373   -0.2808 C   0  0  0  0  0  0  0  0  0  0  0  0
   -0.8440    0.2991    0.4920 C   0  0  0  0  0  0  0  0  0  0  0  0
   -1.2370   -1.0969    0.1170 C   0  0  0  0  0  0  0  0  0  0  0  0
    0.0081   -1.8499   -0.2119 C   0  0  0  0  0  0  0  0  0  0  0  0
    1.1052   -0.8648   -0.1597 C   0  0  0  0  0  0  0  0  0  0  0  0
    2.3889   -0.7334   -0.3595 O   0  0  0  0  0  0  0  0  0  0  0  0
    2.7650    0.5182   -0.1081 C   0  0  0  0  0  0  0  0  0  0  0  0
    1.6642    1.2481    0.2785 C   0  0  0  0  0  0  0  0  0  0  0  0
    0.6034    0.3730    0.2478 C   0  0  0  0  0  0  0  0  0  0  0  0
   -2.0046    0.8561   -1.1978 H   0  0  0  0  0  0  0  0  0  0  0  0
   -1.0615    2.2624   -0.4495 H   0  0  0  0  0  0  0  0  0  0  0  0
   -2.5512    1.6476    0.2917 H   0  0  0  0  0  0  0  0  0  0  0  0
   -1.1030    0.4587    1.5734 H   0  0  0  0  0  0  0  0  0  0  0  0
   -1.7627   -1.6072    0.9547 H   0  0  0  0  0  0  0  0  0  0  0  0
   -1.9112   -1.0512   -0.7712 H   0  0  0  0  0  0  0  0  0  0  0  0
   -0.0409   -2.2458   -1.2653 H   0  0  0  0  0  0  0  0  0  0  0  0
    0.1909   -2.6664    0.5140 H   0  0  0  0  0  0  0  0  0  0  0  0
    3.7851    0.8263   -0.2149 H   0  0  0  0  0  0  0  0  0  0  0  0
    1.6349    2.2889    0.5497 H   0  0  0  0  0  0  0  0  0  0  0  0
  1  2  1  0
  2  3  1  0
  3  4  1  0
  4  5  1  0
  5  6  1  0
  6  7  1  0
  7  8  2  0
  8  9  1  0
  9  2  1  0
  9  5  2  0
  1 10  1  0
  1 11  1  0
  1 12  1  0
  2 13  1  0
  3 14  1  0
  3 15  1  0
  4 16  1  0
  4 17  1  0
  7 18  1  0
  8 19  1  0
M  END
