
     RDKit          3D

 21 22  0  0  0  0  0  0  0  0999 V2000
    2.3168   -0.7896    0.0071 C   0  0  0  0  0  0  0  0  0  0  0  0
    0.9112   -0.5095    0.4123 C   0  0  0  0  0  0  0  0  0  0  0  0
   -0.1435   -1.4587   -0.0424 C   0  0  0  0  0  0  0  0  0  0  0  0
   -0.9927   -0.2593   -0.4380 C   0  0  0  0  0  0  0  0  0  0  0  0
   -2.1710    0.1117    0.3908 C   0  0  0  0  0  0  0  0  0  0  0  0
   -0.4634    0.5623   -1.5271 C   0  0  0  0  0  0  0  0  0  0  0  0
    0.2417    0.6627   -0.2320 C   0  0  0  0  0  0  0  0  0  0  0  0
    0.0481    1.8780    0.5822 C   0  0  0  0  0  0  0  0  0  0  0  0
    0.5065    2.0166    1.7008 O   0  0  0  0  0  0  0  0  0  0  0  0
    2.8897    0.1783    0.1114 H   0  0  0  0  0  0  0  0  0  0  0  0
    2.4557   -1.1591   -1.0046 H   0  0  0  0  0  0  0  0  0  0  0  0
    2.7694   -1.4700    0.7705 H   0  0  0  0  0  0  0  0  0  0  0  0
    0.8593   -0.4038    1.5356 H   0  0  0  0  0  0  0  0  0  0  0  0
   -0.5999   -2.1048    0.7185 H   0  0  0  0  0  0  0  0  0  0  0  0
    0.1884   -2.0131   -0.9578 H   0  0  0  0  0  0  0  0  0  0  0  0
   -3.1473   -0.1540   -0.0660 H   0  0  0  0  0  0  0  0  0  0  0  0
   -2.0906   -0.4479    1.3658 H   0  0  0  0  0  0  0  0  0  0  0  0
   -2.1528    1.1914    0.6928 H   0  0  0  0  0  0  0  0  0  0  0  0
    0.0958    0.0231   -2.3278 H   0  0  0  0  0  0  0  0  0  0  0  0
   -0.9916    1.4482   -1.8691 H   0  0  0  0  0  0  0  0  0  0  0  0
   -0.5297    2.6977    0.1768 H   0  0  0  0  0  0  0  0  0  0  0  0
  1  2  1  0
  2  3  1  0
  3  4  1  0
  4  5  1  0
  4  6  1  0
  6  7  1  0
  7  8  1  0
  8  9  2  0
  7  2  1  0
  7  4  1  0
  1 10  1  0
  1 11  1  0
  1 12  1  0
  2 13  1  0
  3 14  1  0
  3 15  1  0
  5 16  1  0
  5 17  1  0
  5 18  1  0
  6 19  1  0
  6 20  1  0
  8 21  1  0
M  END
