
     RDKit          3D

 23 24  0  0  0  0  0  0  0  0999 V2000
    2.7953    0.3415   -0.0556 C   0  0  0  0  0  0  0  0  0  0  0  0
    1.3472    0.7533   -0.0661 C   0  0  0  0  0  0  0  0  0  0  0  0
    0.4868   -0.1922   -0.9179 C   0  0  0  0  0  0  0  0  0  0  0  0
   -0.3455   -0.4118    0.2673 C   0  0  0  0  0  0  0  0  0  0  0  0
   -0.8299   -1.7799    0.5737 C   0  0  0  0  0  0  0  0  0  0  0  0
   -1.9927   -1.4591   -0.1724 O   0  0  0  0  0  0  0  0  0  0  0  0
   -1.7820   -0.1308    0.2650 C   0  0  0  0  0  0  0  0  0  0  0  0
   -2.3303    0.9301   -0.6074 C   0  0  0  0  0  0  0  0  0  0  0  0
    0.5663    0.2822    1.1708 C   0  0  0  0  0  0  0  0  0  0  0  0
    3.0940   -0.0196   -1.0739 H   0  0  0  0  0  0  0  0  0  0  0  0
    3.4057    1.2359    0.2085 H   0  0  0  0  0  0  0  0  0  0  0  0
    3.0019   -0.4926    0.6417 H   0  0  0  0  0  0  0  0  0  0  0  0
    1.2146    1.8111   -0.2894 H   0  0  0  0  0  0  0  0  0  0  0  0
    0.0674    0.2539   -1.8170 H   0  0  0  0  0  0  0  0  0  0  0  0
    1.0669   -1.1058   -1.1925 H   0  0  0  0  0  0  0  0  0  0  0  0
   -1.1451   -1.9030    1.6310 H   0  0  0  0  0  0  0  0  0  0  0  0
   -0.2678   -2.6339    0.1720 H   0  0  0  0  0  0  0  0  0  0  0  0
   -2.1879   -0.0748    1.3155 H   0  0  0  0  0  0  0  0  0  0  0  0
   -1.6255    1.2962   -1.3593 H   0  0  0  0  0  0  0  0  0  0  0  0
   -3.2748    0.6250   -1.1194 H   0  0  0  0  0  0  0  0  0  0  0  0
   -2.6390    1.7935    0.0522 H   0  0  0  0  0  0  0  0  0  0  0  0
    1.2206   -0.2936    1.8379 H   0  0  0  0  0  0  0  0  0  0  0  0
    0.1540    1.1745    1.7103 H   0  0  0  0  0  0  0  0  0  0  0  0
  1  2  1  0
  2  3  1  0
  3  4  1  0
  4  5  1  0
  5  6  1  0
  6  7  1  0
  7  8  1  0
  4  9  1  0
  9  2  1  0
  7  4  1  0
  1 10  1  0
  1 11  1  0
  1 12  1  0
  2 13  1  0
  3 14  1  0
  3 15  1  0
  5 16  1  0
  5 17  1  0
  7 18  1  0
  8 19  1  0
  8 20  1  0
  8 21  1  0
  9 22  1  0
  9 23  1  0
M  END
