
     RDKit          3D

 21 22  0  0  0  0  0  0  0  0999 V2000
    1.0397   -0.8301   -1.3355 C   0  0  0  0  0  0  0  0  0  0  0  0
    0.5464   -0.6282    0.0547 C   0  0  0  0  0  0  0  0  0  0  0  0
   -0.9310   -1.0330    0.2108 C   0  0  0  0  0  0  0  0  0  0  0  0
   -1.1465   -0.4339    1.5897 C   0  0  0  0  0  0  0  0  0  0  0  0
   -0.4707    0.7968    1.5125 O   0  0  0  0  0  0  0  0  0  0  0  0
    0.2103    0.8500    0.3278 C   0  0  0  0  0  0  0  0  0  0  0  0
    1.3824    1.7253    0.2770 C   0  0  0  0  0  0  0  0  0  0  0  0
   -0.6990    1.0602   -0.7364 O   0  0  0  0  0  0  0  0  0  0  0  0
   -1.5504   -0.0476   -0.7466 C   0  0  0  0  0  0  0  0  0  0  0  0
    0.2294   -0.8341   -2.0819 H   0  0  0  0  0  0  0  0  0  0  0  0
    1.8397   -0.0979   -1.5753 H   0  0  0  0  0  0  0  0  0  0  0  0
    1.5179   -1.8311   -1.3834 H   0  0  0  0  0  0  0  0  0  0  0  0
    1.1629   -1.0599    0.8397 H   0  0  0  0  0  0  0  0  0  0  0  0
   -1.1394   -2.0563    0.0861 H   0  0  0  0  0  0  0  0  0  0  0  0
   -2.1978   -0.3291    1.8545 H   0  0  0  0  0  0  0  0  0  0  0  0
   -0.5625   -1.0600    2.3011 H   0  0  0  0  0  0  0  0  0  0  0  0
    2.2512    1.2620    0.7806 H   0  0  0  0  0  0  0  0  0  0  0  0
    1.6075    2.0104   -0.7718 H   0  0  0  0  0  0  0  0  0  0  0  0
    1.1701    2.6651    0.8257 H   0  0  0  0  0  0  0  0  0  0  0  0
   -1.7440   -0.4501   -1.7370 H   0  0  0  0  0  0  0  0  0  0  0  0
   -2.5162    0.3216   -0.2921 H   0  0  0  0  0  0  0  0  0  0  0  0
  1  2  1  0
  2  3  1  0
  3  4  1  0
  4  5  1  0
  5  6  1  0
  6  7  1  0
  6  8  1  0
  8  9  1  0
  6  2  1  0
  9  3  1  0
  1 10  1  0
  1 11  1  0
  1 12  1  0
  2 13  1  0
  3 14  1  0
  4 15  1  0
  4 16  1  0
  7 17  1  0
  7 18  1  0
  7 19  1  0
  9 20  1  0
  9 21  1  0
M  END
