
     RDKit          3D

 21 23  0  0  0  0  0  0  0  0999 V2000
    2.2409    0.3206   -0.5807 C   0  0  0  0  0  0  0  0  0  0  0  0
    1.1221   -0.4302    0.0233 C   0  0  0  0  0  0  0  0  0  0  0  0
    0.1980    0.4612    0.8790 C   0  0  0  0  0  0  0  0  0  0  0  0
   -0.6786   -0.7232    1.3364 C   0  0  0  0  0  0  0  0  0  0  0  0
   -1.1649   -1.0262   -0.0973 C   0  0  0  0  0  0  0  0  0  0  0  0
   -1.9516    0.3003   -0.2167 C   0  0  0  0  0  0  0  0  0  0  0  0
   -0.6396    1.1209   -0.1512 C   0  0  0  0  0  0  0  0  0  0  0  0
   -0.1479    0.6318   -1.3931 O   0  0  0  0  0  0  0  0  0  0  0  0
   -0.0098   -0.7243   -0.9852 C   0  0  0  0  0  0  0  0  0  0  0  0
    2.6234    1.0745    0.1612 H   0  0  0  0  0  0  0  0  0  0  0  0
    2.0290    0.8309   -1.5257 H   0  0  0  0  0  0  0  0  0  0  0  0
    3.1056   -0.3985   -0.6968 H   0  0  0  0  0  0  0  0  0  0  0  0
    1.3859   -1.3542    0.5413 H   0  0  0  0  0  0  0  0  0  0  0  0
    0.6610    1.0075    1.6348 H   0  0  0  0  0  0  0  0  0  0  0  0
   -1.4897   -0.4058    1.9833 H   0  0  0  0  0  0  0  0  0  0  0  0
   -0.0113   -1.4886    1.7124 H   0  0  0  0  0  0  0  0  0  0  0  0
   -1.7235   -1.8962   -0.2182 H   0  0  0  0  0  0  0  0  0  0  0  0
   -2.5787    0.4764    0.6509 H   0  0  0  0  0  0  0  0  0  0  0  0
   -2.4302    0.3945   -1.1936 H   0  0  0  0  0  0  0  0  0  0  0  0
   -0.7865    2.1668   -0.1126 H   0  0  0  0  0  0  0  0  0  0  0  0
    0.2466   -1.4001   -1.7513 H   0  0  0  0  0  0  0  0  0  0  0  0
  1  2  1  0
  2  3  1  0
  3  4  1  0
  4  5  1  0
  5  6  1  0
  6  7  1  0
  7  8  1  0
  8  9  1  0
  9  2  1  0
  7  3  1  0
  9  5  1  0
  1 10  1  0
  1 11  1  0
  1 12  1  0
  2 13  1  0
  3 14  1  0
  4 15  1  0
  4 16  1  0
  5 17  1  0
  6 18  1  0
  6 19  1  0
  7 20  1  0
  9 21  1  0
M  END
