
     RDKit          3D

 21 23  0  0  0  0  0  0  0  0999 V2000
    2.2516   -1.0309   -0.0121 C   0  0  0  0  0  0  0  0  0  0  0  0
    0.8693   -0.6230    0.4753 C   0  0  0  0  0  0  0  0  0  0  0  0
   -0.2028   -0.7079   -0.5237 C   0  0  0  0  0  0  0  0  0  0  0  0
   -1.6487   -0.7769   -0.0437 C   0  0  0  0  0  0  0  0  0  0  0  0
   -2.5709    0.1460   -0.7534 C   0  0  0  0  0  0  0  0  0  0  0  0
   -1.9030    0.5666    0.4810 C   0  0  0  0  0  0  0  0  0  0  0  0
   -0.7392    1.2908    0.5191 O   0  0  0  0  0  0  0  0  0  0  0  0
    0.2369    0.6175   -0.1680 C   0  0  0  0  0  0  0  0  0  0  0  0
    1.2140    1.4461   -0.9371 C   0  0  0  0  0  0  0  0  0  0  0  0
    3.0114   -0.2748    0.2332 H   0  0  0  0  0  0  0  0  0  0  0  0
    2.2557   -1.1392   -1.1218 H   0  0  0  0  0  0  0  0  0  0  0  0
    2.4845   -1.9899    0.4916 H   0  0  0  0  0  0  0  0  0  0  0  0
    0.6750   -0.7390    1.5500 H   0  0  0  0  0  0  0  0  0  0  0  0
   -0.0148   -1.2416   -1.4543 H   0  0  0  0  0  0  0  0  0  0  0  0
   -2.0046   -1.6693    0.4796 H   0  0  0  0  0  0  0  0  0  0  0  0
   -3.6460   -0.1243   -0.6776 H   0  0  0  0  0  0  0  0  0  0  0  0
   -2.2680    0.4865   -1.7633 H   0  0  0  0  0  0  0  0  0  0  0  0
   -2.5587    0.7421    1.3838 H   0  0  0  0  0  0  0  0  0  0  0  0
    1.9636    1.8970   -0.2213 H   0  0  0  0  0  0  0  0  0  0  0  0
    1.8451    0.8208   -1.6239 H   0  0  0  0  0  0  0  0  0  0  0  0
    0.7496    2.3035   -1.4468 H   0  0  0  0  0  0  0  0  0  0  0  0
  1  2  1  0
  2  3  1  0
  3  4  1  0
  4  5  1  0
  5  6  1  0
  6  7  1  0
  7  8  1  0
  8  9  1  0
  8  2  1  0
  8  3  1  0
  6  4  1  0
  1 10  1  0
  1 11  1  0
  1 12  1  0
  2 13  1  0
  3 14  1  0
  4 15  1  0
  5 16  1  0
  5 17  1  0
  6 18  1  0
  9 19  1  0
  9 20  1  0
  9 21  1  0
M  END
