
     RDKit          3D

 19 21  0  0  0  0  0  0  0  0999 V2000
    2.0412   -0.2708   -0.4066 C   0  0  0  0  0  0  0  0  0  0  0  0
    0.7607   -0.1390    0.3555 C   0  0  0  0  0  0  0  0  0  0  0  0
   -0.0311   -1.4242    0.1355 C   0  0  0  0  0  0  0  0  0  0  0  0
   -1.4743   -0.9169    0.1431 C   0  0  0  0  0  0  0  0  0  0  0  0
   -1.8159   -0.1910    1.2733 O   0  0  0  0  0  0  0  0  0  0  0  0
   -1.4593    0.9788    0.6573 C   0  0  0  0  0  0  0  0  0  0  0  0
   -1.3380    0.3523   -0.6541 C   0  0  0  0  0  0  0  0  0  0  0  0
   -0.1340    0.9629   -0.1627 C   0  0  0  0  0  0  0  0  0  0  0  0
    0.3479    2.1997   -0.4467 O   0  0  0  0  0  0  0  0  0  0  0  0
    2.5340    0.6852   -0.6248 H   0  0  0  0  0  0  0  0  0  0  0  0
    2.7253   -0.9095    0.2159 H   0  0  0  0  0  0  0  0  0  0  0  0
    1.8730   -0.8006   -1.3656 H   0  0  0  0  0  0  0  0  0  0  0  0
    0.9097   -0.0607    1.4506 H   0  0  0  0  0  0  0  0  0  0  0  0
    0.1437   -1.8180   -0.8860 H   0  0  0  0  0  0  0  0  0  0  0  0
    0.1557   -2.1712    0.9096 H   0  0  0  0  0  0  0  0  0  0  0  0
   -2.2155   -1.6058   -0.2561 H   0  0  0  0  0  0  0  0  0  0  0  0
   -1.9175    1.9353    0.8619 H   0  0  0  0  0  0  0  0  0  0  0  0
   -1.9164    0.5647   -1.5273 H   0  0  0  0  0  0  0  0  0  0  0  0
    0.8110    2.6289    0.3275 H   0  0  0  0  0  0  0  0  0  0  0  0
  1  2  1  0
  2  3  1  0
  3  4  1  0
  4  5  1  0
  5  6  1  0
  6  7  1  0
  7  8  1  0
  8  9  1  0
  8  2  1  0
  7  4  1  0
  8  6  1  0
  1 10  1  0
  1 11  1  0
  1 12  1  0
  2 13  1  0
  3 14  1  0
  3 15  1  0
  4 16  1  0
  6 17  1  0
  7 18  1  0
  9 19  1  0
M  END
