
     RDKit          3D

 19 21  0  0  0  0  0  0  0  0999 V2000
   -1.9671   -0.9049   -0.2761 C   0  0  0  0  0  0  0  0  0  0  0  0
   -0.7506   -0.3462    0.3755 C   0  0  0  0  0  0  0  0  0  0  0  0
    0.5596   -1.0330    0.0463 C   0  0  0  0  0  0  0  0  0  0  0  0
    1.7153   -0.5538    0.8425 C   0  0  0  0  0  0  0  0  0  0  0  0
    2.9079   -1.2057    0.6123 O   0  0  0  0  0  0  0  0  0  0  0  0
    1.2014    0.3714   -0.1726 C   0  0  0  0  0  0  0  0  0  0  0  0
   -0.1833    0.9070   -0.1567 C   0  0  0  0  0  0  0  0  0  0  0  0
   -0.6030    2.2033   -0.1263 C   0  0  0  0  0  0  0  0  0  0  0  0
   -0.7531    1.4514   -1.2777 O   0  0  0  0  0  0  0  0  0  0  0  0
   -1.9084   -2.0305   -0.2312 H   0  0  0  0  0  0  0  0  0  0  0  0
   -2.8601   -0.6467    0.3421 H   0  0  0  0  0  0  0  0  0  0  0  0
   -2.1226   -0.5488   -1.3053 H   0  0  0  0  0  0  0  0  0  0  0  0
   -0.8586   -0.3484    1.4937 H   0  0  0  0  0  0  0  0  0  0  0  0
    0.6435   -1.6889   -0.8126 H   0  0  0  0  0  0  0  0  0  0  0  0
    1.4947   -0.4238    1.9369 H   0  0  0  0  0  0  0  0  0  0  0  0
    3.1422   -1.2762   -0.3369 H   0  0  0  0  0  0  0  0  0  0  0  0
    1.8188    0.4849   -1.0883 H   0  0  0  0  0  0  0  0  0  0  0  0
   -1.5755    2.5287    0.3436 H   0  0  0  0  0  0  0  0  0  0  0  0
    0.0989    3.0601   -0.2092 H   0  0  0  0  0  0  0  0  0  0  0  0
  1  2  1  0
  2  3  1  0
  3  4  1  0
  4  5  1  0
  4  6  1  0
  6  7  1  0
  7  8  1  0
  8  9  1  0
  7  2  1  0
  6  3  1  0
  9  7  1  0
  1 10  1  0
  1 11  1  0
  1 12  1  0
  2 13  1  0
  3 14  1  0
  4 15  1  0
  5 16  1  0
  6 17  1  0
  8 18  1  0
  8 19  1  0
M  END
