
     RDKit          3D

 21 24  0  0  0  0  0  0  0  0999 V2000
    2.3158   -0.5743    0.3561 C   0  0  0  0  0  0  0  0  0  0  0  0
    1.1135   -0.3311   -0.4552 C   0  0  0  0  0  0  0  0  0  0  0  0
   -0.1479   -0.9414    0.0230 C   0  0  0  0  0  0  0  0  0  0  0  0
   -0.8251    0.0767    0.9330 C   0  0  0  0  0  0  0  0  0  0  0  0
   -2.1121   -0.3718    0.2152 C   0  0  0  0  0  0  0  0  0  0  0  0
   -1.1572   -0.3945   -0.9900 C   0  0  0  0  0  0  0  0  0  0  0  0
   -0.6211    0.9925   -1.1965 C   0  0  0  0  0  0  0  0  0  0  0  0
    0.7173    1.1071   -0.6231 C   0  0  0  0  0  0  0  0  0  0  0  0
   -0.3813    1.3580    0.3130 C   0  0  0  0  0  0  0  0  0  0  0  0
    2.2859   -1.6531    0.6844 H   0  0  0  0  0  0  0  0  0  0  0  0
    2.4848    0.0764    1.2098 H   0  0  0  0  0  0  0  0  0  0  0  0
    3.2204   -0.5350   -0.3195 H   0  0  0  0  0  0  0  0  0  0  0  0
    1.3069   -0.7250   -1.4968 H   0  0  0  0  0  0  0  0  0  0  0  0
   -0.2160   -1.9695    0.2802 H   0  0  0  0  0  0  0  0  0  0  0  0
   -0.7783   -0.0762    1.9835 H   0  0  0  0  0  0  0  0  0  0  0  0
   -2.4325   -1.3549    0.5587 H   0  0  0  0  0  0  0  0  0  0  0  0
   -2.8562    0.4102    0.0839 H   0  0  0  0  0  0  0  0  0  0  0  0
   -1.4184   -1.0050   -1.8132 H   0  0  0  0  0  0  0  0  0  0  0  0
   -1.1188    1.7177   -1.8167 H   0  0  0  0  0  0  0  0  0  0  0  0
    1.4062    1.8708   -0.9494 H   0  0  0  0  0  0  0  0  0  0  0  0
   -0.7857    2.3225    0.5668 H   0  0  0  0  0  0  0  0  0  0  0  0
  1  2  1  0
  2  3  1  0
  3  4  1  0
  4  5  1  0
  5  6  1  0
  6  7  1  0
  7  8  1  0
  8  9  1  0
  8  2  1  0
  6  3  1  0
  9  7  1  0
  9  4  1  0
  1 10  1  0
  1 11  1  0
  1 12  1  0
  2 13  1  0
  3 14  1  0
  4 15  1  0
  5 16  1  0
  5 17  1  0
  6 18  1  0
  7 19  1  0
  8 20  1  0
  9 21  1  0
M  END
