
     RDKit          3D

 24 24  0  0  0  0  0  0  0  0999 V2000
    2.5273    0.4606    0.3928 C   0  0  0  0  0  0  0  0  0  0  0  0
    1.0355    0.2111    0.3308 C   0  0  0  0  0  0  0  0  0  0  0  0
    0.8210   -1.2370    0.0294 C   0  0  0  0  0  0  0  0  0  0  0  0
   -0.5783   -1.5882   -0.3551 C   0  0  0  0  0  0  0  0  0  0  0  0
   -1.6302   -0.8339    0.3954 C   0  0  0  0  0  0  0  0  0  0  0  0
   -2.0128    0.4683   -0.2667 C   0  0  0  0  0  0  0  0  0  0  0  0
   -0.9675    1.5351   -0.0549 C   0  0  0  0  0  0  0  0  0  0  0  0
    0.3442    1.0944   -0.6747 C   0  0  0  0  0  0  0  0  0  0  0  0
    2.9340    0.8674   -0.5397 H   0  0  0  0  0  0  0  0  0  0  0  0
    2.7915    1.1660    1.2216 H   0  0  0  0  0  0  0  0  0  0  0  0
    3.0992   -0.4795    0.6162 H   0  0  0  0  0  0  0  0  0  0  0  0
    0.6572    0.3847    1.3785 H   0  0  0  0  0  0  0  0  0  0  0  0
    1.1518   -1.8143    0.9360 H   0  0  0  0  0  0  0  0  0  0  0  0
    1.4911   -1.6154   -0.7962 H   0  0  0  0  0  0  0  0  0  0  0  0
   -0.7130   -2.6837   -0.1357 H   0  0  0  0  0  0  0  0  0  0  0  0
   -0.7462   -1.4144   -1.4384 H   0  0  0  0  0  0  0  0  0  0  0  0
   -2.5558   -1.4696    0.3898 H   0  0  0  0  0  0  0  0  0  0  0  0
   -1.3873   -0.6618    1.4568 H   0  0  0  0  0  0  0  0  0  0  0  0
   -2.2374    0.2912   -1.3259 H   0  0  0  0  0  0  0  0  0  0  0  0
   -2.9467    0.8348    0.2312 H   0  0  0  0  0  0  0  0  0  0  0  0
   -0.8275    1.6202    1.0576 H   0  0  0  0  0  0  0  0  0  0  0  0
   -1.3319    2.4904   -0.4317 H   0  0  0  0  0  0  0  0  0  0  0  0
    0.9562    1.9286   -1.0295 H   0  0  0  0  0  0  0  0  0  0  0  0
    0.1255    0.4449   -1.5663 H   0  0  0  0  0  0  0  0  0  0  0  0
  1  2  1  0
  2  3  1  0
  3  4  1  0
  4  5  1  0
  5  6  1  0
  6  7  1  0
  7  8  1  0
  8  2  1  0
  1  9  1  0
  1 10  1  0
  1 11  1  0
  2 12  1  0
  3 13  1  0
  3 14  1  0
  4 15  1  0
  4 16  1  0
  5 17  1  0
  5 18  1  0
  6 19  1  0
  6 20  1  0
  7 21  1  0
  7 22  1  0
  8 23  1  0
  8 24  1  0
M  END
