
     RDKit          3D

 23 24  0  0  0  0  0  0  0  0999 V2000
    2.4196    1.0008    0.0856 C   0  0  0  0  0  0  0  0  0  0  0  0
    1.1283    0.4929   -0.4807 C   0  0  0  0  0  0  0  0  0  0  0  0
    1.1584   -1.0370   -0.3710 C   0  0  0  0  0  0  0  0  0  0  0  0
   -0.2632   -1.5032   -0.5147 C   0  0  0  0  0  0  0  0  0  0  0  0
   -1.0730   -1.3220    0.7449 C   0  0  0  0  0  0  0  0  0  0  0  0
   -1.1824    0.0613    0.1464 C   0  0  0  0  0  0  0  0  0  0  0  0
   -2.4806    0.7246    0.4867 C   0  0  0  0  0  0  0  0  0  0  0  0
    0.0038    0.9312    0.4665 C   0  0  0  0  0  0  0  0  0  0  0  0
   -1.0833   -0.5125   -1.1021 O   0  0  0  0  0  0  0  0  0  0  0  0
    3.2649    0.3427   -0.1559 H   0  0  0  0  0  0  0  0  0  0  0  0
    2.6531    2.0129   -0.2698 H   0  0  0  0  0  0  0  0  0  0  0  0
    2.3426    1.0101    1.2024 H   0  0  0  0  0  0  0  0  0  0  0  0
    0.9469    0.8298   -1.5060 H   0  0  0  0  0  0  0  0  0  0  0  0
    1.7831   -1.4959   -1.1396 H   0  0  0  0  0  0  0  0  0  0  0  0
    1.5633   -1.2325    0.6630 H   0  0  0  0  0  0  0  0  0  0  0  0
   -0.3630   -2.4581   -1.0334 H   0  0  0  0  0  0  0  0  0  0  0  0
   -2.0257   -1.8594    0.6605 H   0  0  0  0  0  0  0  0  0  0  0  0
   -0.5425   -1.4013    1.6920 H   0  0  0  0  0  0  0  0  0  0  0  0
   -3.3240    0.0199    0.3688 H   0  0  0  0  0  0  0  0  0  0  0  0
   -2.6299    1.6356   -0.1151 H   0  0  0  0  0  0  0  0  0  0  0  0
   -2.4264    1.0173    1.5649 H   0  0  0  0  0  0  0  0  0  0  0  0
   -0.2631    1.9761    0.2576 H   0  0  0  0  0  0  0  0  0  0  0  0
    0.3930    0.7665    1.4918 H   0  0  0  0  0  0  0  0  0  0  0  0
  1  2  1  0
  2  3  1  0
  3  4  1  0
  4  5  1  0
  5  6  1  0
  6  7  1  0
  6  8  1  0
  6  9  1  0
  8  2  1  0
  9  4  1  0
  1 10  1  0
  1 11  1  0
  1 12  1  0
  2 13  1  0
  3 14  1  0
  3 15  1  0
  4 16  1  0
  5 17  1  0
  5 18  1  0
  7 19  1  0
  7 20  1  0
  7 21  1  0
  8 22  1  0
  8 23  1  0
M  END
