
     RDKit          3D

 20 21  0  0  0  0  0  0  0  0999 V2000
    2.3090   -0.8619   -0.1555 C   0  0  0  0  0  0  0  0  0  0  0  0
    1.2596    0.1815   -0.0251 C   0  0  0  0  0  0  0  0  0  0  0  0
    0.2850    0.0487    1.0893 C   0  0  0  0  0  0  0  0  0  0  0  0
   -0.8396    1.0050    1.2876 C   0  0  0  0  0  0  0  0  0  0  0  0
   -1.0473    1.1905   -0.2067 C   0  0  0  0  0  0  0  0  0  0  0  0
   -2.3270    1.0118   -0.6617 O   0  0  0  0  0  0  0  0  0  0  0  0
   -0.1309    0.0062   -0.4084 C   0  0  0  0  0  0  0  0  0  0  0  0
   -0.7845   -1.2550   -0.7983 C   0  0  0  0  0  0  0  0  0  0  0  0
    2.0672   -1.8276    0.3316 H   0  0  0  0  0  0  0  0  0  0  0  0
    2.5093   -1.0026   -1.2557 H   0  0  0  0  0  0  0  0  0  0  0  0
    3.2558   -0.5105    0.3314 H   0  0  0  0  0  0  0  0  0  0  0  0
    1.6645    1.2330   -0.1137 H   0  0  0  0  0  0  0  0  0  0  0  0
    0.3032   -0.8982    1.6341 H   0  0  0  0  0  0  0  0  0  0  0  0
   -0.6032    1.9657    1.7572 H   0  0  0  0  0  0  0  0  0  0  0  0
   -1.7223    0.4725    1.7205 H   0  0  0  0  0  0  0  0  0  0  0  0
   -0.5346    2.1078   -0.6133 H   0  0  0  0  0  0  0  0  0  0  0  0
   -2.5862    1.8203   -1.2021 H   0  0  0  0  0  0  0  0  0  0  0  0
   -1.3837   -1.0899   -1.7419 H   0  0  0  0  0  0  0  0  0  0  0  0
   -1.5773   -1.4891   -0.0273 H   0  0  0  0  0  0  0  0  0  0  0  0
   -0.1168   -2.1081   -0.9421 H   0  0  0  0  0  0  0  0  0  0  0  0
  1  2  1  0
  2  3  1  0
  3  4  1  0
  4  5  1  0
  5  6  1  0
  5  7  1  0
  7  8  1  0
  7  2  1  0
  7  3  1  0
  1  9  1  0
  1 10  1  0
  1 11  1  0
  2 12  1  0
  3 13  1  0
  4 14  1  0
  4 15  1  0
  5 16  1  0
  6 17  1  0
  8 18  1  0
  8 19  1  0
  8 20  1  0
M  END
