
     RDKit          3D

 20 21  0  0  0  0  0  0  0  0999 V2000
    0.9421    1.6900   -0.6807 C   0  0  0  0  0  0  0  0  0  0  0  0
    0.5497    0.8074    0.4670 C   0  0  0  0  0  0  0  0  0  0  0  0
    1.4622   -0.4090    0.6549 C   0  0  0  0  0  0  0  0  0  0  0  0
    0.1896   -1.1941    0.9938 C   0  0  0  0  0  0  0  0  0  0  0  0
    0.1198   -2.4494    0.4554 O   0  0  0  0  0  0  0  0  0  0  0  0
   -0.5684   -0.1341    0.2649 C   0  0  0  0  0  0  0  0  0  0  0  0
   -1.3337   -0.3236   -0.9383 C   0  0  0  0  0  0  0  0  0  0  0  0
   -1.9746    0.1379    0.4070 C   0  0  0  0  0  0  0  0  0  0  0  0
    0.2545    2.5374   -0.7130 H   0  0  0  0  0  0  0  0  0  0  0  0
    1.9533    2.1123   -0.4429 H   0  0  0  0  0  0  0  0  0  0  0  0
    0.9557    1.1901   -1.6555 H   0  0  0  0  0  0  0  0  0  0  0  0
    0.5405    1.3892    1.4074 H   0  0  0  0  0  0  0  0  0  0  0  0
    1.8753   -0.8178   -0.2807 H   0  0  0  0  0  0  0  0  0  0  0  0
    2.1732   -0.3056    1.4676 H   0  0  0  0  0  0  0  0  0  0  0  0
    0.0190   -1.1164    2.0836 H   0  0  0  0  0  0  0  0  0  0  0  0
    0.8987   -2.7421   -0.0403 H   0  0  0  0  0  0  0  0  0  0  0  0
   -1.3664    0.4414   -1.7312 H   0  0  0  0  0  0  0  0  0  0  0  0
   -1.6708   -1.3228   -1.2869 H   0  0  0  0  0  0  0  0  0  0  0  0
   -2.6050   -0.6308    0.9160 H   0  0  0  0  0  0  0  0  0  0  0  0
   -2.4146    1.1400    0.4275 H   0  0  0  0  0  0  0  0  0  0  0  0
  1  2  1  0
  2  3  1  0
  3  4  1  0
  4  5  1  0
  4  6  1  0
  6  7  1  0
  7  8  1  0
  6  2  1  0
  8  6  1  0
  1  9  1  0
  1 10  1  0
  1 11  1  0
  2 12  1  0
  3 13  1  0
  3 14  1  0
  4 15  1  0
  5 16  1  0
  7 17  1  0
  7 18  1  0
  8 19  1  0
  8 20  1  0
M  END
