
     RDKit          3D

 22 22  0  0  0  0  0  0  0  0999 V2000
   -1.3323   -1.5556    0.1631 C   0  0  0  0  0  0  0  0  0  0  0  0
   -0.9378   -0.2731   -0.4826 C   0  0  0  0  0  0  0  0  0  0  0  0
   -1.3843    0.9847    0.2314 C   0  0  0  0  0  0  0  0  0  0  0  0
   -0.0359    1.5987   -0.1468 C   0  0  0  0  0  0  0  0  0  0  0  0
    0.4753    0.1766   -0.3183 C   0  0  0  0  0  0  0  0  0  0  0  0
    1.3058   -0.0441   -1.5623 C   0  0  0  0  0  0  0  0  0  0  0  0
    1.1969   -0.2831    0.8998 C   0  0  0  0  0  0  0  0  0  0  0  0
    0.5935    0.1268    2.0841 O   0  0  0  0  0  0  0  0  0  0  0  0
   -2.3190   -1.3732    0.6819 H   0  0  0  0  0  0  0  0  0  0  0  0
   -1.5447   -2.3574   -0.5718 H   0  0  0  0  0  0  0  0  0  0  0  0
   -0.6529   -1.9158    0.9454 H   0  0  0  0  0  0  0  0  0  0  0  0
   -1.2283   -0.2140   -1.5643 H   0  0  0  0  0  0  0  0  0  0  0  0
   -1.5329    0.8548    1.3128 H   0  0  0  0  0  0  0  0  0  0  0  0
   -2.2587    1.4943   -0.2182 H   0  0  0  0  0  0  0  0  0  0  0  0
   -0.0994    2.1794   -1.0914 H   0  0  0  0  0  0  0  0  0  0  0  0
    0.4550    2.1601    0.6511 H   0  0  0  0  0  0  0  0  0  0  0  0
    1.6829    0.8884   -2.0069 H   0  0  0  0  0  0  0  0  0  0  0  0
    0.7157   -0.5893   -2.3158 H   0  0  0  0  0  0  0  0  0  0  0  0
    2.2018   -0.6794   -1.3548 H   0  0  0  0  0  0  0  0  0  0  0  0
    2.2100    0.1999    0.8900 H   0  0  0  0  0  0  0  0  0  0  0  0
    1.3119   -1.3644    0.9265 H   0  0  0  0  0  0  0  0  0  0  0  0
    1.1775   -0.0144    2.8472 H   0  0  0  0  0  0  0  0  0  0  0  0
  1  2  1  0
  2  3  1  0
  3  4  1  0
  4  5  1  0
  5  6  1  0
  5  7  1  0
  7  8  1  0
  5  2  1  0
  1  9  1  0
  1 10  1  0
  1 11  1  0
  2 12  1  0
  3 13  1  0
  3 14  1  0
  4 15  1  0
  4 16  1  0
  6 17  1  0
  6 18  1  0
  6 19  1  0
  7 20  1  0
  7 21  1  0
  8 22  1  0
M  END
