
     RDKit          3D

 23 24  0  0  0  0  0  0  0  0999 V2000
    2.5190   -0.3625   -0.4522 C   0  0  0  0  0  0  0  0  0  0  0  0
    1.5292    0.6655    0.1130 C   0  0  0  0  0  0  0  0  0  0  0  0
    1.1027    0.3417    1.5198 C   0  0  0  0  0  0  0  0  0  0  0  0
    0.1823    0.1839    0.3999 C   0  0  0  0  0  0  0  0  0  0  0  0
   -0.2030   -1.1536   -0.1715 C   0  0  0  0  0  0  0  0  0  0  0  0
   -1.6758   -1.0340   -0.5422 C   0  0  0  0  0  0  0  0  0  0  0  0
   -2.1434   -0.0321    0.5224 C   0  0  0  0  0  0  0  0  0  0  0  0
   -1.0456    1.0275    0.3470 C   0  0  0  0  0  0  0  0  0  0  0  0
   -1.1899    1.5050   -0.9525 O   0  0  0  0  0  0  0  0  0  0  0  0
    3.4938   -0.2064    0.0361 H   0  0  0  0  0  0  0  0  0  0  0  0
    2.5570   -0.3289   -1.5512 H   0  0  0  0  0  0  0  0  0  0  0  0
    2.1605   -1.3690   -0.1173 H   0  0  0  0  0  0  0  0  0  0  0  0
    1.6392    1.7036   -0.2217 H   0  0  0  0  0  0  0  0  0  0  0  0
    0.9723    1.2536    2.1656 H   0  0  0  0  0  0  0  0  0  0  0  0
    1.5704   -0.4882    2.0657 H   0  0  0  0  0  0  0  0  0  0  0  0
    0.3731   -1.2580   -1.1359 H   0  0  0  0  0  0  0  0  0  0  0  0
   -0.0043   -1.9926    0.4915 H   0  0  0  0  0  0  0  0  0  0  0  0
   -2.2133   -1.9768   -0.4739 H   0  0  0  0  0  0  0  0  0  0  0  0
   -1.7367   -0.5493   -1.5293 H   0  0  0  0  0  0  0  0  0  0  0  0
   -2.0063   -0.4582    1.5257 H   0  0  0  0  0  0  0  0  0  0  0  0
   -3.1359    0.3581    0.3224 H   0  0  0  0  0  0  0  0  0  0  0  0
   -1.0951    1.8027    1.1149 H   0  0  0  0  0  0  0  0  0  0  0  0
   -1.6502    2.3683   -1.0048 H   0  0  0  0  0  0  0  0  0  0  0  0
  1  2  1  0
  2  3  1  0
  3  4  1  0
  4  5  1  0
  5  6  1  0
  6  7  1  0
  7  8  1  0
  8  9  1  0
  4  2  1  0
  8  4  1  0
  1 10  1  0
  1 11  1  0
  1 12  1  0
  2 13  1  0
  3 14  1  0
  3 15  1  0
  5 16  1  0
  5 17  1  0
  6 18  1  0
  6 19  1  0
  7 20  1  0
  7 21  1  0
  8 22  1  0
  9 23  1  0
M  END
