
     RDKit          3D

 19 20  0  0  0  0  0  0  0  0999 V2000
    2.1226   -0.7550   -0.5862 C   0  0  0  0  0  0  0  0  0  0  0  0
    0.7843   -0.7354    0.1061 C   0  0  0  0  0  0  0  0  0  0  0  0
    0.8697    0.1417    1.2955 C   0  0  0  0  0  0  0  0  0  0  0  0
    0.0801    1.1919    1.1539 C   0  0  0  0  0  0  0  0  0  0  0  0
   -0.6466    1.1686   -0.1493 C   0  0  0  0  0  0  0  0  0  0  0  0
   -2.0233    1.1670    0.0222 O   0  0  0  0  0  0  0  0  0  0  0  0
   -2.4667   -0.1182   -0.1215 C   0  0  0  0  0  0  0  0  0  0  0  0
   -1.4511   -0.9182   -0.5498 O   0  0  0  0  0  0  0  0  0  0  0  0
   -0.3137   -0.1626   -0.7247 C   0  0  0  0  0  0  0  0  0  0  0  0
    2.3872    0.2147   -1.0512 H   0  0  0  0  0  0  0  0  0  0  0  0
    2.2194   -1.5974   -1.3017 H   0  0  0  0  0  0  0  0  0  0  0  0
    2.8983   -0.9378    0.1963 H   0  0  0  0  0  0  0  0  0  0  0  0
    0.5735   -1.7782    0.4283 H   0  0  0  0  0  0  0  0  0  0  0  0
    1.5078   -0.0664    2.1690 H   0  0  0  0  0  0  0  0  0  0  0  0
    0.0045    1.9665    1.9392 H   0  0  0  0  0  0  0  0  0  0  0  0
   -0.3337    2.0258   -0.7770 H   0  0  0  0  0  0  0  0  0  0  0  0
   -2.7918   -0.4733    0.8993 H   0  0  0  0  0  0  0  0  0  0  0  0
   -3.3415   -0.1862   -0.8313 H   0  0  0  0  0  0  0  0  0  0  0  0
   -0.0790   -0.1475   -1.8100 H   0  0  0  0  0  0  0  0  0  0  0  0
  1  2  1  0
  2  3  1  0
  3  4  2  0
  4  5  1  0
  5  6  1  0
  6  7  1  0
  7  8  1  0
  8  9  1  0
  9  2  1  0
  9  5  1  0
  1 10  1  0
  1 11  1  0
  1 12  1  0
  2 13  1  0
  3 14  1  0
  4 15  1  0
  5 16  1  0
  7 17  1  0
  7 18  1  0
  9 19  1  0
M  END
