
     RDKit          3D

 14 14  0  0  0  0  0  0  0  0999 V2000
    1.5613    0.0568    0.0967 C   0  0  0  0  0  0  0  0  0  0  0  0
    0.2601   -0.3438   -0.5365 C   0  0  0  0  0  0  0  0  0  0  0  0
   -0.7409    0.7834   -0.6946 C   0  0  0  0  0  0  0  0  0  0  0  0
   -1.1807    0.4795    0.7141 C   0  0  0  0  0  0  0  0  0  0  0  0
   -1.6768    1.1068    1.6029 O   0  0  0  0  0  0  0  0  0  0  0  0
   -0.7175   -0.9170    0.4698 C   0  0  0  0  0  0  0  0  0  0  0  0
    2.1965    0.5276   -0.6894 H   0  0  0  0  0  0  0  0  0  0  0  0
    2.0848   -0.8686    0.4377 H   0  0  0  0  0  0  0  0  0  0  0  0
    1.4158    0.7463    0.9529 H   0  0  0  0  0  0  0  0  0  0  0  0
    0.4106   -0.9354   -1.4459 H   0  0  0  0  0  0  0  0  0  0  0  0
   -1.5460    0.4530   -1.3788 H   0  0  0  0  0  0  0  0  0  0  0  0
   -0.3342    1.7774   -0.8394 H   0  0  0  0  0  0  0  0  0  0  0  0
   -1.4966   -1.4980   -0.0373 H   0  0  0  0  0  0  0  0  0  0  0  0
   -0.2366   -1.3677    1.3480 H   0  0  0  0  0  0  0  0  0  0  0  0
  1  2  1  0
  2  3  1  0
  3  4  1  0
  4  5  2  0
  4  6  1  0
  6  2  1  0
  1  7  1  0
  1  8  1  0
  1  9  1  0
  2 10  1  0
  3 11  1  0
  3 12  1  0
  6 13  1  0
  6 14  1  0
M  END
