
     RDKit          3D

 17 18  0  0  0  0  0  0  0  0999 V2000
    1.8047   -0.5941    0.8718 C   0  0  0  0  0  0  0  0  0  0  0  0
    0.8599   -0.2252   -0.2362 C   0  0  0  0  0  0  0  0  0  0  0  0
   -0.3016    0.6621    0.1392 C   0  0  0  0  0  0  0  0  0  0  0  0
   -0.6494    1.8380   -0.7172 C   0  0  0  0  0  0  0  0  0  0  0  0
   -0.9908    0.3750    1.3123 O   0  0  0  0  0  0  0  0  0  0  0  0
   -1.2788   -0.9243    0.9875 C   0  0  0  0  0  0  0  0  0  0  0  0
   -1.8759   -1.9421    1.4249 O   0  0  0  0  0  0  0  0  0  0  0  0
   -0.5260   -0.7307   -0.2864 C   0  0  0  0  0  0  0  0  0  0  0  0
   -1.1376   -1.0070   -1.4896 O   0  0  0  0  0  0  0  0  0  0  0  0
    2.2543   -1.6086    0.7255 H   0  0  0  0  0  0  0  0  0  0  0  0
    2.6848    0.1090    0.7905 H   0  0  0  0  0  0  0  0  0  0  0  0
    1.3978   -0.4555    1.8773 H   0  0  0  0  0  0  0  0  0  0  0  0
    1.3491   -0.0637   -1.2081 H   0  0  0  0  0  0  0  0  0  0  0  0
   -1.6152    1.7632   -1.2311 H   0  0  0  0  0  0  0  0  0  0  0  0
   -0.5892    2.7643   -0.0888 H   0  0  0  0  0  0  0  0  0  0  0  0
    0.1782    1.9482   -1.4696 H   0  0  0  0  0  0  0  0  0  0  0  0
   -1.5642   -1.9086   -1.4020 H   0  0  0  0  0  0  0  0  0  0  0  0
  1  2  1  0
  2  3  1  0
  3  4  1  0
  3  5  1  0
  5  6  1  0
  6  7  2  0
  6  8  1  0
  8  9  1  0
  8  2  1  0
  8  3  1  0
  1 10  1  0
  1 11  1  0
  1 12  1  0
  2 13  1  0
  4 14  1  0
  4 15  1  0
  4 16  1  0
  9 17  1  0
M  END
