
     RDKit          3D

 21 22  0  0  0  0  0  0  0  0999 V2000
    2.3952   -0.0706   -0.2761 C   0  0  0  0  0  0  0  0  0  0  0  0
    1.0728   -0.0619    0.3978 C   0  0  0  0  0  0  0  0  0  0  0  0
    0.2422    1.1403   -0.0021 C   0  0  0  0  0  0  0  0  0  0  0  0
   -0.8276    1.3749    0.8233 O   0  0  0  0  0  0  0  0  0  0  0  0
   -2.0274    1.0234    0.1575 C   0  0  0  0  0  0  0  0  0  0  0  0
   -1.8117   -0.3228   -0.4267 C   0  0  0  0  0  0  0  0  0  0  0  0
   -2.2308   -1.4896    0.1088 O   0  0  0  0  0  0  0  0  0  0  0  0
   -1.0593   -1.1268    0.6500 C   0  0  0  0  0  0  0  0  0  0  0  0
    0.2935   -1.3525    0.0951 C   0  0  0  0  0  0  0  0  0  0  0  0
    2.3451    0.0146   -1.3759 H   0  0  0  0  0  0  0  0  0  0  0  0
    3.0640    0.6841    0.1413 H   0  0  0  0  0  0  0  0  0  0  0  0
    2.8758   -1.0648   -0.0723 H   0  0  0  0  0  0  0  0  0  0  0  0
    1.2367   -0.0163    1.4927 H   0  0  0  0  0  0  0  0  0  0  0  0
    0.9116    2.0336    0.0617 H   0  0  0  0  0  0  0  0  0  0  0  0
   -0.0882    1.0870   -1.0537 H   0  0  0  0  0  0  0  0  0  0  0  0
   -2.9056    1.1462    0.7832 H   0  0  0  0  0  0  0  0  0  0  0  0
   -2.1065    1.7722   -0.6833 H   0  0  0  0  0  0  0  0  0  0  0  0
   -1.4491   -0.3742   -1.4646 H   0  0  0  0  0  0  0  0  0  0  0  0
   -1.0807   -0.7567    1.6899 H   0  0  0  0  0  0  0  0  0  0  0  0
    0.8385   -2.2111    0.4801 H   0  0  0  0  0  0  0  0  0  0  0  0
    0.3116   -1.4290   -1.0261 H   0  0  0  0  0  0  0  0  0  0  0  0
  1  2  1  0
  2  3  1  0
  3  4  1  0
  4  5  1  0
  5  6  1  0
  6  7  1  0
  7  8  1  0
  8  9  1  0
  9  2  1  0
  8  6  1  0
  1 10  1  0
  1 11  1  0
  1 12  1  0
  2 13  1  0
  3 14  1  0
  3 15  1  0
  5 16  1  0
  5 17  1  0
  6 18  1  0
  8 19  1  0
  9 20  1  0
  9 21  1  0
M  END
