
     RDKit          3D

 21 21  0  0  0  0  0  0  0  0999 V2000
   -0.3671    1.8906   -0.5177 C   0  0  0  0  0  0  0  0  0  0  0  0
   -0.6744    0.4260   -0.4502 C   0  0  0  0  0  0  0  0  0  0  0  0
   -1.5085    0.1796    0.8111 C   0  0  0  0  0  0  0  0  0  0  0  0
   -2.0022   -1.1190    0.6952 O   0  0  0  0  0  0  0  0  0  0  0  0
   -0.9566   -1.9675    0.3716 C   0  0  0  0  0  0  0  0  0  0  0  0
    0.2954   -1.3927    0.6475 O   0  0  0  0  0  0  0  0  0  0  0  0
    0.5264   -0.4544   -0.3586 C   0  0  0  0  0  0  0  0  0  0  0  0
    1.8194    0.2827   -0.1608 C   0  0  0  0  0  0  0  0  0  0  0  0
    2.8408   -0.6965   -0.1748 O   0  0  0  0  0  0  0  0  0  0  0  0
   -1.3169    2.4225   -0.7423 H   0  0  0  0  0  0  0  0  0  0  0  0
   -0.0762    2.2445    0.5122 H   0  0  0  0  0  0  0  0  0  0  0  0
    0.3532    2.1748   -1.2800 H   0  0  0  0  0  0  0  0  0  0  0  0
   -1.3245    0.1389   -1.3030 H   0  0  0  0  0  0  0  0  0  0  0  0
   -0.8498    0.1978    1.7194 H   0  0  0  0  0  0  0  0  0  0  0  0
   -2.3208    0.9291    0.9092 H   0  0  0  0  0  0  0  0  0  0  0  0
   -0.9550   -2.1578   -0.7377 H   0  0  0  0  0  0  0  0  0  0  0  0
   -1.0758   -2.9497    0.8656 H   0  0  0  0  0  0  0  0  0  0  0  0
    0.6297   -1.0451   -1.3015 H   0  0  0  0  0  0  0  0  0  0  0  0
    2.0495    0.9454   -1.0186 H   0  0  0  0  0  0  0  0  0  0  0  0
    1.8880    0.8570    0.7574 H   0  0  0  0  0  0  0  0  0  0  0  0
    3.0250   -0.9063    0.7559 H   0  0  0  0  0  0  0  0  0  0  0  0
  1  2  1  0
  2  3  1  0
  3  4  1  0
  4  5  1  0
  5  6  1  0
  6  7  1  0
  7  8  1  0
  8  9  1  0
  7  2  1  0
  1 10  1  0
  1 11  1  0
  1 12  1  0
  2 13  1  0
  3 14  1  0
  3 15  1  0
  5 16  1  0
  5 17  1  0
  7 18  1  0
  8 19  1  0
  8 20  1  0
  9 21  1  0
M  END
