
     RDKit          3D

 21 22  0  0  0  0  0  0  0  0999 V2000
    2.4971   -0.6232   -0.4385 C   0  0  0  0  0  0  0  0  0  0  0  0
    1.1485    0.0530   -0.7054 C   0  0  0  0  0  0  0  0  0  0  0  0
    1.0622    1.2296    0.2149 C   0  0  0  0  0  0  0  0  0  0  0  0
    0.3211    0.9764    1.3606 O   0  0  0  0  0  0  0  0  0  0  0  0
   -0.9495    0.5247    1.1146 C   0  0  0  0  0  0  0  0  0  0  0  0
   -1.3144   -0.9071    1.3895 C   0  0  0  0  0  0  0  0  0  0  0  0
   -1.0255   -0.3923   -0.0292 C   0  0  0  0  0  0  0  0  0  0  0  0
   -2.2124   -0.1884   -0.9518 C   0  0  0  0  0  0  0  0  0  0  0  0
    0.1393   -0.8475   -0.5503 O   0  0  0  0  0  0  0  0  0  0  0  0
    2.4850   -1.6854   -0.6734 H   0  0  0  0  0  0  0  0  0  0  0  0
    3.2528   -0.0472   -1.0328 H   0  0  0  0  0  0  0  0  0  0  0  0
    2.7638   -0.4407    0.6395 H   0  0  0  0  0  0  0  0  0  0  0  0
    1.1389    0.4129   -1.7719 H   0  0  0  0  0  0  0  0  0  0  0  0
    0.6851    2.1107   -0.3580 H   0  0  0  0  0  0  0  0  0  0  0  0
    2.0832    1.5392    0.5682 H   0  0  0  0  0  0  0  0  0  0  0  0
   -1.7623    1.2397    1.3071 H   0  0  0  0  0  0  0  0  0  0  0  0
   -2.3410   -1.2061    1.5589 H   0  0  0  0  0  0  0  0  0  0  0  0
   -0.5336   -1.4794    1.9067 H   0  0  0  0  0  0  0  0  0  0  0  0
   -1.8159    0.3434   -1.8470 H   0  0  0  0  0  0  0  0  0  0  0  0
   -2.6645   -1.1462   -1.1953 H   0  0  0  0  0  0  0  0  0  0  0  0
   -2.9579    0.5340   -0.5064 H   0  0  0  0  0  0  0  0  0  0  0  0
  1  2  1  0
  2  3  1  0
  3  4  1  0
  4  5  1  0
  5  6  1  0
  6  7  1  0
  7  8  1  0
  7  9  1  0
  9  2  1  0
  7  5  1  0
  1 10  1  0
  1 11  1  0
  1 12  1  0
  2 13  1  0
  3 14  1  0
  3 15  1  0
  5 16  1  0
  6 17  1  0
  6 18  1  0
  8 19  1  0
  8 20  1  0
  8 21  1  0
M  END
