
     RDKit          3D

 18 19  0  0  0  0  0  0  0  0999 V2000
    2.2928    0.0311    0.3316 C   0  0  0  0  0  0  0  0  0  0  0  0
    0.8260    0.2159    0.5808 C   0  0  0  0  0  0  0  0  0  0  0  0
   -0.0081   -1.0156    0.3124 C   0  0  0  0  0  0  0  0  0  0  0  0
   -1.1529   -1.1244    1.0397 O   0  0  0  0  0  0  0  0  0  0  0  0
   -2.0861   -0.2360    0.5982 C   0  0  0  0  0  0  0  0  0  0  0  0
   -1.5114    0.5811   -0.5118 C   0  0  0  0  0  0  0  0  0  0  0  0
   -0.0771    0.1665   -0.5737 C   0  0  0  0  0  0  0  0  0  0  0  0
    0.4893    0.1310   -1.8298 O   0  0  0  0  0  0  0  0  0  0  0  0
    2.6011   -1.0185    0.6110 H   0  0  0  0  0  0  0  0  0  0  0  0
    2.5998    0.2497   -0.7115 H   0  0  0  0  0  0  0  0  0  0  0  0
    2.9319    0.6975    0.9706 H   0  0  0  0  0  0  0  0  0  0  0  0
    0.5949    0.8610    1.4479 H   0  0  0  0  0  0  0  0  0  0  0  0
    0.4721   -1.9070   -0.1071 H   0  0  0  0  0  0  0  0  0  0  0  0
   -2.9883   -0.8321    0.2707 H   0  0  0  0  0  0  0  0  0  0  0  0
   -2.3851    0.4044    1.4770 H   0  0  0  0  0  0  0  0  0  0  0  0
   -1.6816    1.6568   -0.4206 H   0  0  0  0  0  0  0  0  0  0  0  0
   -2.0017    0.2258   -1.4640 H   0  0  0  0  0  0  0  0  0  0  0  0
    1.0843    0.9129   -2.0214 H   0  0  0  0  0  0  0  0  0  0  0  0
  1  2  1  0
  2  3  1  0
  3  4  1  0
  4  5  1  0
  5  6  1  0
  6  7  1  0
  7  8  1  0
  7  2  1  0
  7  3  1  0
  1  9  1  0
  1 10  1  0
  1 11  1  0
  2 12  1  0
  3 13  1  0
  5 14  1  0
  5 15  1  0
  6 16  1  0
  6 17  1  0
  8 18  1  0
M  END
