
     RDKit          3D

 23 23  0  0  0  0  0  0  0  0999 V2000
    2.5686   -0.6072    0.5991 C   0  0  0  0  0  0  0  0  0  0  0  0
    1.2247   -0.3330    0.0171 C   0  0  0  0  0  0  0  0  0  0  0  0
    0.7044    1.0483    0.2909 C   0  0  0  0  0  0  0  0  0  0  0  0
   -0.1114    1.5762   -0.8278 C   0  0  0  0  0  0  0  0  0  0  0  0
   -0.8284    0.7077   -1.5536 O   0  0  0  0  0  0  0  0  0  0  0  0
   -1.4812   -0.3087   -0.9480 C   0  0  0  0  0  0  0  0  0  0  0  0
   -2.3507    0.0772    0.2154 C   0  0  0  0  0  0  0  0  0  0  0  0
   -0.5740   -1.4974   -0.6078 C   0  0  0  0  0  0  0  0  0  0  0  0
    0.2414   -1.2307    0.4732 O   0  0  0  0  0  0  0  0  0  0  0  0
    3.2062    0.2852    0.4914 H   0  0  0  0  0  0  0  0  0  0  0  0
    3.0442   -1.4105   -0.0350 H   0  0  0  0  0  0  0  0  0  0  0  0
    2.4956   -0.9329    1.6506 H   0  0  0  0  0  0  0  0  0  0  0  0
    1.3292   -0.4123   -1.1056 H   0  0  0  0  0  0  0  0  0  0  0  0
    1.6152    1.7015    0.4447 H   0  0  0  0  0  0  0  0  0  0  0  0
    0.1641    1.1180    1.2771 H   0  0  0  0  0  0  0  0  0  0  0  0
   -0.7423    2.4208   -0.4228 H   0  0  0  0  0  0  0  0  0  0  0  0
    0.6040    2.1034   -1.5299 H   0  0  0  0  0  0  0  0  0  0  0  0
   -2.1869   -0.7450   -1.7198 H   0  0  0  0  0  0  0  0  0  0  0  0
   -2.6777    1.1155    0.1441 H   0  0  0  0  0  0  0  0  0  0  0  0
   -3.2964   -0.5425    0.2319 H   0  0  0  0  0  0  0  0  0  0  0  0
   -1.8684   -0.1556    1.2059 H   0  0  0  0  0  0  0  0  0  0  0  0
    0.1083   -1.5891   -1.5035 H   0  0  0  0  0  0  0  0  0  0  0  0
   -1.1884   -2.3890   -0.4962 H   0  0  0  0  0  0  0  0  0  0  0  0
  1  2  1  0
  2  3  1  0
  3  4  1  0
  4  5  1  0
  5  6  1  0
  6  7  1  0
  6  8  1  0
  8  9  1  0
  9  2  1  0
  1 10  1  0
  1 11  1  0
  1 12  1  0
  2 13  1  0
  3 14  1  0
  3 15  1  0
  4 16  1  0
  4 17  1  0
  6 18  1  0
  7 19  1  0
  7 20  1  0
  7 21  1  0
  8 22  1  0
  8 23  1  0
M  END
