
     RDKit          3D

 23 25  0  0  0  0  0  0  0  0999 V2000
    2.3351    0.6395    0.1688 C   0  0  0  0  0  0  0  0  0  0  0  0
    1.3093   -0.2729    0.8538 C   0  0  0  0  0  0  0  0  0  0  0  0
    0.8959   -1.3683   -0.0823 C   0  0  0  0  0  0  0  0  0  0  0  0
   -0.3825   -0.9195   -0.7632 C   0  0  0  0  0  0  0  0  0  0  0  0
   -1.5730   -1.2888    0.1160 C   0  0  0  0  0  0  0  0  0  0  0  0
   -1.2782   -0.0975    0.9505 C   0  0  0  0  0  0  0  0  0  0  0  0
    0.0328    0.5652    1.0029 C   0  0  0  0  0  0  0  0  0  0  0  0
   -0.5654    0.4873   -0.3104 C   0  0  0  0  0  0  0  0  0  0  0  0
   -1.3532    1.4947   -1.0139 C   0  0  0  0  0  0  0  0  0  0  0  0
    3.2663    0.6950    0.7591 H   0  0  0  0  0  0  0  0  0  0  0  0
    1.9566    1.6489    0.0125 H   0  0  0  0  0  0  0  0  0  0  0  0
    2.6038    0.2327   -0.8331 H   0  0  0  0  0  0  0  0  0  0  0  0
    1.6782   -0.6279    1.8255 H   0  0  0  0  0  0  0  0  0  0  0  0
    1.6918   -1.6359   -0.8165 H   0  0  0  0  0  0  0  0  0  0  0  0
    0.6682   -2.2773    0.5431 H   0  0  0  0  0  0  0  0  0  0  0  0
   -0.4794   -1.1485   -1.8187 H   0  0  0  0  0  0  0  0  0  0  0  0
   -1.5074   -2.2784    0.5732 H   0  0  0  0  0  0  0  0  0  0  0  0
   -2.5045   -1.1108   -0.4927 H   0  0  0  0  0  0  0  0  0  0  0  0
   -2.1335    0.4518    1.3380 H   0  0  0  0  0  0  0  0  0  0  0  0
    0.1271    1.4460    1.6290 H   0  0  0  0  0  0  0  0  0  0  0  0
   -0.8389    2.4917   -1.1062 H   0  0  0  0  0  0  0  0  0  0  0  0
   -1.6160    1.1364   -2.0288 H   0  0  0  0  0  0  0  0  0  0  0  0
   -2.3332    1.7365   -0.5067 H   0  0  0  0  0  0  0  0  0  0  0  0
  1  2  1  0
  2  3  1  0
  3  4  1  0
  4  5  1  0
  5  6  1  0
  6  7  1  0
  7  8  1  0
  8  9  1  0
  7  2  1  0
  8  4  1  0
  8  6  1  0
  1 10  1  0
  1 11  1  0
  1 12  1  0
  2 13  1  0
  3 14  1  0
  3 15  1  0
  4 16  1  0
  5 17  1  0
  5 18  1  0
  6 19  1  0
  7 20  1  0
  9 21  1  0
  9 22  1  0
  9 23  1  0
M  END
