
     RDKit          3D

 15 16  0  0  0  0  0  0  0  0999 V2000
    2.1055    0.1041    0.0138 C   0  0  0  0  0  0  0  0  0  0  0  0
    0.7033   -0.4068    0.2220 C   0  0  0  0  0  0  0  0  0  0  0  0
   -0.3010    0.0402   -0.7452 C   0  0  0  0  0  0  0  0  0  0  0  0
   -1.6908   -0.5410   -0.5405 C   0  0  0  0  0  0  0  0  0  0  0  0
   -1.7293    0.1975    0.7504 C   0  0  0  0  0  0  0  0  0  0  0  0
   -2.6345    0.4161    1.5329 O   0  0  0  0  0  0  0  0  0  0  0  0
   -0.3062    0.5506    0.7219 C   0  0  0  0  0  0  0  0  0  0  0  0
    2.0689    1.1332   -0.3659 H   0  0  0  0  0  0  0  0  0  0  0  0
    2.7337   -0.0393    0.9044 H   0  0  0  0  0  0  0  0  0  0  0  0
    2.5598   -0.5177   -0.8087 H   0  0  0  0  0  0  0  0  0  0  0  0
    0.6281   -1.4788    0.5391 H   0  0  0  0  0  0  0  0  0  0  0  0
   -0.1534    0.8327   -1.4760 H   0  0  0  0  0  0  0  0  0  0  0  0
   -2.4302   -0.2441   -1.2899 H   0  0  0  0  0  0  0  0  0  0  0  0
   -1.5874   -1.6269   -0.3468 H   0  0  0  0  0  0  0  0  0  0  0  0
    0.0334    1.5802    0.8886 H   0  0  0  0  0  0  0  0  0  0  0  0
  1  2  1  0
  2  3  1  0
  3  4  1  0
  4  5  1  0
  5  6  2  0
  5  7  1  0
  7  2  1  0
  7  3  1  0
  1  8  1  0
  1  9  1  0
  1 10  1  0
  2 11  1  0
  3 12  1  0
  4 13  1  0
  4 14  1  0
  7 15  1  0
M  END
