
     RDKit          3D

 21 23  0  0  0  0  0  0  0  0999 V2000
   -2.3820    0.1021    1.0338 C   0  0  0  0  0  0  0  0  0  0  0  0
   -1.3503    0.3093   -0.0434 C   0  0  0  0  0  0  0  0  0  0  0  0
   -1.0233   -0.9834   -0.8651 C   0  0  0  0  0  0  0  0  0  0  0  0
   -0.0681   -0.2846   -0.0895 C   0  0  0  0  0  0  0  0  0  0  0  0
    0.7460   -0.8099    1.0669 C   0  0  0  0  0  0  0  0  0  0  0  0
    1.2169    0.6304    1.0521 C   0  0  0  0  0  0  0  0  0  0  0  0
    2.0329    1.3085    0.1139 C   0  0  0  0  0  0  0  0  0  0  0  0
    1.2345    0.2916   -0.5011 C   0  0  0  0  0  0  0  0  0  0  0  0
    2.0593   -0.8204   -0.8459 O   0  0  0  0  0  0  0  0  0  0  0  0
   -2.9465    1.0208    1.2712 H   0  0  0  0  0  0  0  0  0  0  0  0
   -1.8792   -0.2744    1.9458 H   0  0  0  0  0  0  0  0  0  0  0  0
   -3.1592   -0.6477    0.7137 H   0  0  0  0  0  0  0  0  0  0  0  0
   -1.5832    1.2106   -0.6834 H   0  0  0  0  0  0  0  0  0  0  0  0
   -1.0407   -0.8403   -1.9802 H   0  0  0  0  0  0  0  0  0  0  0  0
   -1.4747   -1.9220   -0.4826 H   0  0  0  0  0  0  0  0  0  0  0  0
    1.4725   -1.5763    0.8088 H   0  0  0  0  0  0  0  0  0  0  0  0
    0.1937   -1.0707    1.9797 H   0  0  0  0  0  0  0  0  0  0  0  0
    0.3091    1.2476    1.3626 H   0  0  0  0  0  0  0  0  0  0  0  0
    3.1516    1.2484    0.2864 H   0  0  0  0  0  0  0  0  0  0  0  0
    1.8132    2.3650   -0.2346 H   0  0  0  0  0  0  0  0  0  0  0  0
    2.6774   -0.5046   -1.5781 H   0  0  0  0  0  0  0  0  0  0  0  0
  1  2  1  0
  2  3  1  0
  3  4  1  0
  4  5  1  0
  5  6  1  0
  6  7  1  0
  7  8  1  0
  8  9  1  0
  4  2  1  0
  8  6  1  0
  8  4  1  0
  1 10  1  0
  1 11  1  0
  1 12  1  0
  2 13  1  0
  3 14  1  0
  3 15  1  0
  5 16  1  0
  5 17  1  0
  6 18  1  0
  7 19  1  0
  7 20  1  0
  9 21  1  0
M  END
