
     RDKit          3D

 17 18  0  0  0  0  0  0  0  0999 V2000
   -1.8024   -1.1215    0.5285 C   0  0  0  0  0  0  0  0  0  0  0  0
   -1.0303   -0.1858   -0.3300 C   0  0  0  0  0  0  0  0  0  0  0  0
   -1.1419    1.2630    0.0929 C   0  0  0  0  0  0  0  0  0  0  0  0
   -0.0240    1.7960   -0.6366 O   0  0  0  0  0  0  0  0  0  0  0  0
    1.0020    0.8486   -0.4161 C   0  0  0  0  0  0  0  0  0  0  0  0
    2.3693    0.6908   -0.3208 C   0  0  0  0  0  0  0  0  0  0  0  0
    2.5654   -0.6465   -0.0706 C   0  0  0  0  0  0  0  0  0  0  0  0
    1.4122   -1.2484   -0.0188 O   0  0  0  0  0  0  0  0  0  0  0  0
    0.4509   -0.3907   -0.2202 C   0  0  0  0  0  0  0  0  0  0  0  0
   -2.8275   -0.6726    0.6640 H   0  0  0  0  0  0  0  0  0  0  0  0
   -1.3834   -1.3238    1.5133 H   0  0  0  0  0  0  0  0  0  0  0  0
   -1.9147   -2.0844   -0.0306 H   0  0  0  0  0  0  0  0  0  0  0  0
   -1.3333   -0.3197   -1.3869 H   0  0  0  0  0  0  0  0  0  0  0  0
   -2.0821    1.7339   -0.1776 H   0  0  0  0  0  0  0  0  0  0  0  0
   -0.8822    1.3252    1.1705 H   0  0  0  0  0  0  0  0  0  0  0  0
    3.1092    1.4817   -0.4269 H   0  0  0  0  0  0  0  0  0  0  0  0
    3.5129   -1.1457    0.0657 H   0  0  0  0  0  0  0  0  0  0  0  0
  1  2  1  0
  2  3  1  0
  3  4  1  0
  4  5  1  0
  5  6  1  0
  6  7  2  0
  7  8  1  0
  8  9  1  0
  9  2  1  0
  9  5  2  0
  1 10  1  0
  1 11  1  0
  1 12  1  0
  2 13  1  0
  3 14  1  0
  3 15  1  0
  6 16  1  0
  7 17  1  0
M  END
