
     RDKit          3D

 19 20  0  0  0  0  0  0  0  0999 V2000
   -1.1187   -1.4405   -0.6044 C   0  0  0  0  0  0  0  0  0  0  0  0
   -1.1013   -0.0337   -0.0591 C   0  0  0  0  0  0  0  0  0  0  0  0
   -0.0861    0.9501   -0.4652 C   0  0  0  0  0  0  0  0  0  0  0  0
   -0.4692    2.3105   -0.4764 O   0  0  0  0  0  0  0  0  0  0  0  0
    1.1983    0.5676   -1.0635 C   0  0  0  0  0  0  0  0  0  0  0  0
    1.8811   -0.2768   -0.3144 C   0  0  0  0  0  0  0  0  0  0  0  0
    1.1505   -0.6041    0.9329 C   0  0  0  0  0  0  0  0  0  0  0  0
   -0.0146    0.3326    0.9029 C   0  0  0  0  0  0  0  0  0  0  0  0
   -0.2566    1.1362    1.9879 O   0  0  0  0  0  0  0  0  0  0  0  0
   -0.1599   -1.7877   -0.9837 H   0  0  0  0  0  0  0  0  0  0  0  0
   -1.5561   -2.1637    0.1335 H   0  0  0  0  0  0  0  0  0  0  0  0
   -1.8351   -1.4453   -1.4664 H   0  0  0  0  0  0  0  0  0  0  0  0
   -2.1146    0.3648    0.1505 H   0  0  0  0  0  0  0  0  0  0  0  0
   -1.4514    2.3451   -0.6222 H   0  0  0  0  0  0  0  0  0  0  0  0
    1.5583    0.9330   -2.0179 H   0  0  0  0  0  0  0  0  0  0  0  0
    2.8625   -0.6984   -0.5564 H   0  0  0  0  0  0  0  0  0  0  0  0
    1.7610   -0.5651    1.8303 H   0  0  0  0  0  0  0  0  0  0  0  0
    0.7676   -1.6510    0.8404 H   0  0  0  0  0  0  0  0  0  0  0  0
   -1.0157    1.7266    1.8514 H   0  0  0  0  0  0  0  0  0  0  0  0
  1  2  1  0
  2  3  1  0
  3  4  1  0
  3  5  1  0
  5  6  2  0
  6  7  1  0
  7  8  1  0
  8  9  1  0
  8  2  1  0
  8  3  1  0
  1 10  1  0
  1 11  1  0
  1 12  1  0
  2 13  1  0
  4 14  1  0
  5 15  1  0
  6 16  1  0
  7 17  1  0
  7 18  1  0
  9 19  1  0
M  END
