
     RDKit          3D

 20 20  0  0  0  0  0  0  0  0999 V2000
   -2.1469    1.3896    0.0786 C   0  0  0  0  0  0  0  0  0  0  0  0
   -1.1767    0.2835    0.3044 C   0  0  0  0  0  0  0  0  0  0  0  0
   -1.0750   -0.7037   -0.8046 C   0  0  0  0  0  0  0  0  0  0  0  0
    0.4269   -1.0208   -0.8049 C   0  0  0  0  0  0  0  0  0  0  0  0
    0.8357   -0.4499    0.5193 C   0  0  0  0  0  0  0  0  0  0  0  0
    2.3227   -0.2522    0.6513 C   0  0  0  0  0  0  0  0  0  0  0  0
    2.8552    0.5185   -0.3576 O   0  0  0  0  0  0  0  0  0  0  0  0
    0.1367    0.7545    0.5449 O   0  0  0  0  0  0  0  0  0  0  0  0
   -2.9410    1.1064   -0.6600 H   0  0  0  0  0  0  0  0  0  0  0  0
   -1.6462    2.3210   -0.2665 H   0  0  0  0  0  0  0  0  0  0  0  0
   -2.6422    1.6022    1.0713 H   0  0  0  0  0  0  0  0  0  0  0  0
   -1.4304   -0.2966    1.2402 H   0  0  0  0  0  0  0  0  0  0  0  0
   -1.5917   -1.6786   -0.5776 H   0  0  0  0  0  0  0  0  0  0  0  0
   -1.4300   -0.3724   -1.7743 H   0  0  0  0  0  0  0  0  0  0  0  0
    0.6101   -2.1022   -0.8226 H   0  0  0  0  0  0  0  0  0  0  0  0
    0.8609   -0.4701   -1.6477 H   0  0  0  0  0  0  0  0  0  0  0  0
    0.4713   -1.0634    1.3442 H   0  0  0  0  0  0  0  0  0  0  0  0
    2.4706    0.3338    1.6068 H   0  0  0  0  0  0  0  0  0  0  0  0
    2.8223   -1.2118    0.8162 H   0  0  0  0  0  0  0  0  0  0  0  0
    2.2678    1.3122   -0.4612 H   0  0  0  0  0  0  0  0  0  0  0  0
  1  2  1  0
  2  3  1  0
  3  4  1  0
  4  5  1  0
  5  6  1  0
  6  7  1  0
  5  8  1  0
  8  2  1  0
  1  9  1  0
  1 10  1  0
  1 11  1  0
  2 12  1  0
  3 13  1  0
  3 14  1  0
  4 15  1  0
  4 16  1  0
  5 17  1  0
  6 18  1  0
  6 19  1  0
  7 20  1  0
M  END
