
     RDKit          3D

 16 16  0  0  0  0  0  0  0  0999 V2000
   -1.9758   -0.3015    0.0380 C   0  0  0  0  0  0  0  0  0  0  0  0
   -0.6388    0.1197   -0.4923 C   0  0  0  0  0  0  0  0  0  0  0  0
    0.1414    1.0611    0.4228 C   0  0  0  0  0  0  0  0  0  0  0  0
    1.3895    0.3583   -0.1356 C   0  0  0  0  0  0  0  0  0  0  0  0
    2.4335    0.2503    0.7376 O   0  0  0  0  0  0  0  0  0  0  0  0
    0.4865   -0.8807   -0.2314 C   0  0  0  0  0  0  0  0  0  0  0  0
   -2.3250   -1.1537   -0.5881 H   0  0  0  0  0  0  0  0  0  0  0  0
   -2.6820    0.5183   -0.1169 H   0  0  0  0  0  0  0  0  0  0  0  0
   -1.9429   -0.6688    1.0729 H   0  0  0  0  0  0  0  0  0  0  0  0
   -0.6935    0.5170   -1.5009 H   0  0  0  0  0  0  0  0  0  0  0  0
    0.0613    0.7991    1.4955 H   0  0  0  0  0  0  0  0  0  0  0  0
    0.1110    2.1138    0.1536 H   0  0  0  0  0  0  0  0  0  0  0  0
    1.6054    0.6962   -1.1623 H   0  0  0  0  0  0  0  0  0  0  0  0
    2.9848   -0.5361    0.4534 H   0  0  0  0  0  0  0  0  0  0  0  0
    0.7163   -1.5567   -1.0505 H   0  0  0  0  0  0  0  0  0  0  0  0
    0.3283   -1.3363    0.7662 H   0  0  0  0  0  0  0  0  0  0  0  0
  1  2  1  0
  2  3  1  0
  3  4  1  0
  4  5  1  0
  4  6  1  0
  6  2  1  0
  1  7  1  0
  1  8  1  0
  1  9  1  0
  2 10  1  0
  3 11  1  0
  3 12  1  0
  4 13  1  0
  5 14  1  0
  6 15  1  0
  6 16  1  0
M  END
