
     RDKit          3D

 17 18  0  0  0  0  0  0  0  0999 V2000
   -1.4595   -0.1182   -1.0352 C   0  0  0  0  0  0  0  0  0  0  0  0
   -0.8316   -0.2568    0.3155 C   0  0  0  0  0  0  0  0  0  0  0  0
   -0.8441    1.0759    1.0700 C   0  0  0  0  0  0  0  0  0  0  0  0
    0.4814    0.8540    1.4926 O   0  0  0  0  0  0  0  0  0  0  0  0
    0.6141   -0.0270    0.4420 C   0  0  0  0  0  0  0  0  0  0  0  0
    1.6516   -1.0514    0.3598 C   0  0  0  0  0  0  0  0  0  0  0  0
    1.5628    0.1307   -0.6423 C   0  0  0  0  0  0  0  0  0  0  0  0
   -1.3130    0.8693   -1.5024 H   0  0  0  0  0  0  0  0  0  0  0  0
   -2.5748   -0.2102   -0.8824 H   0  0  0  0  0  0  0  0  0  0  0  0
   -1.1912   -0.9631   -1.6992 H   0  0  0  0  0  0  0  0  0  0  0  0
   -1.3101   -1.0298    0.9396 H   0  0  0  0  0  0  0  0  0  0  0  0
   -0.9602    1.9189    0.3711 H   0  0  0  0  0  0  0  0  0  0  0  0
   -1.5298    1.1149    1.9195 H   0  0  0  0  0  0  0  0  0  0  0  0
    1.4747   -2.0553   -0.0509 H   0  0  0  0  0  0  0  0  0  0  0  0
    2.4700   -0.9826    1.1216 H   0  0  0  0  0  0  0  0  0  0  0  0
    1.3632   -0.1419   -1.6856 H   0  0  0  0  0  0  0  0  0  0  0  0
    2.3967    0.8728   -0.5335 H   0  0  0  0  0  0  0  0  0  0  0  0
  1  2  1  0
  2  3  1  0
  3  4  1  0
  4  5  1  0
  5  6  1  0
  6  7  1  0
  5  2  1  0
  7  5  1  0
  1  8  1  0
  1  9  1  0
  1 10  1  0
  2 11  1  0
  3 12  1  0
  3 13  1  0
  6 14  1  0
  6 15  1  0
  7 16  1  0
  7 17  1  0
M  END
