
     RDKit          3D

 21 22  0  0  0  0  0  0  0  0999 V2000
    1.7350   -1.1417   -0.3561 C   0  0  0  0  0  0  0  0  0  0  0  0
    1.3328    0.2396   -0.7348 C   0  0  0  0  0  0  0  0  0  0  0  0
    1.6277    1.3198    0.2427 C   0  0  0  0  0  0  0  0  0  0  0  0
    0.4311    1.9374   -0.1122 O   0  0  0  0  0  0  0  0  0  0  0  0
   -0.0395    0.6928   -0.5498 C   0  0  0  0  0  0  0  0  0  0  0  0
   -0.9163    0.0788    0.4811 C   0  0  0  0  0  0  0  0  0  0  0  0
   -0.4922   -0.2167    1.7427 O   0  0  0  0  0  0  0  0  0  0  0  0
   -1.9823   -0.8733   -0.0697 C   0  0  0  0  0  0  0  0  0  0  0  0
   -2.3980    0.4824    0.3610 C   0  0  0  0  0  0  0  0  0  0  0  0
    2.8585   -1.1976   -0.4621 H   0  0  0  0  0  0  0  0  0  0  0  0
    1.5150   -1.4345    0.6640 H   0  0  0  0  0  0  0  0  0  0  0  0
    1.3414   -1.8518   -1.1232 H   0  0  0  0  0  0  0  0  0  0  0  0
    1.7293    0.4887   -1.7513 H   0  0  0  0  0  0  0  0  0  0  0  0
    2.5374    1.9135   -0.0308 H   0  0  0  0  0  0  0  0  0  0  0  0
    1.6817    0.9706    1.2860 H   0  0  0  0  0  0  0  0  0  0  0  0
   -0.5778    0.8405   -1.5070 H   0  0  0  0  0  0  0  0  0  0  0  0
   -0.5067   -1.1692    1.9315 H   0  0  0  0  0  0  0  0  0  0  0  0
   -2.2814   -1.7403    0.5424 H   0  0  0  0  0  0  0  0  0  0  0  0
   -1.9424   -1.1070   -1.1569 H   0  0  0  0  0  0  0  0  0  0  0  0
   -2.9887    0.5190    1.3047 H   0  0  0  0  0  0  0  0  0  0  0  0
   -2.6647    1.2491   -0.3749 H   0  0  0  0  0  0  0  0  0  0  0  0
  1  2  1  0
  2  3  1  0
  3  4  1  0
  4  5  1  0
  5  6  1  0
  6  7  1  0
  6  8  1  0
  8  9  1  0
  5  2  1  0
  9  6  1  0
  1 10  1  0
  1 11  1  0
  1 12  1  0
  2 13  1  0
  3 14  1  0
  3 15  1  0
  5 16  1  0
  7 17  1  0
  8 18  1  0
  8 19  1  0
  9 20  1  0
  9 21  1  0
M  END
