
     RDKit          3D

 21 22  0  0  0  0  0  0  0  0999 V2000
   -1.9486   -0.4509    0.6070 C   0  0  0  0  0  0  0  0  0  0  0  0
   -1.4756   -0.3346   -0.8105 C   0  0  0  0  0  0  0  0  0  0  0  0
   -0.3410    0.5382   -1.1893 C   0  0  0  0  0  0  0  0  0  0  0  0
    0.2657    1.5416   -0.3073 C   0  0  0  0  0  0  0  0  0  0  0  0
    0.8462    1.1532    0.9553 C   0  0  0  0  0  0  0  0  0  0  0  0
    1.4893    0.0481    1.2871 C   0  0  0  0  0  0  0  0  0  0  0  0
    1.7566   -1.0992    0.3389 C   0  0  0  0  0  0  0  0  0  0  0  0
    0.5266   -1.4890   -0.1068 O   0  0  0  0  0  0  0  0  0  0  0  0
   -0.0386   -0.8497   -1.1373 C   0  0  0  0  0  0  0  0  0  0  0  0
   -1.4031    0.2060    1.3129 H   0  0  0  0  0  0  0  0  0  0  0  0
   -1.6985   -1.5024    0.9384 H   0  0  0  0  0  0  0  0  0  0  0  0
   -3.0261   -0.3570    0.6501 H   0  0  0  0  0  0  0  0  0  0  0  0
   -2.2644   -0.5878   -1.5613 H   0  0  0  0  0  0  0  0  0  0  0  0
   -0.4736    0.9677   -2.2394 H   0  0  0  0  0  0  0  0  0  0  0  0
   -0.4943    2.3577   -0.1412 H   0  0  0  0  0  0  0  0  0  0  0  0
    1.0830    2.0776   -0.8808 H   0  0  0  0  0  0  0  0  0  0  0  0
    0.7494    1.8628    1.7638 H   0  0  0  0  0  0  0  0  0  0  0  0
    1.8407   -0.0274    2.3030 H   0  0  0  0  0  0  0  0  0  0  0  0
    2.3395   -0.6796   -0.5286 H   0  0  0  0  0  0  0  0  0  0  0  0
    2.2803   -1.9215    0.8433 H   0  0  0  0  0  0  0  0  0  0  0  0
   -0.0137   -1.4539   -2.0972 H   0  0  0  0  0  0  0  0  0  0  0  0
  1  2  1  0
  2  3  1  0
  3  4  1  0
  4  5  1  0
  5  6  2  0
  6  7  1  0
  7  8  1  0
  8  9  1  0
  9  2  1  0
  9  3  1  0
  1 10  1  0
  1 11  1  0
  1 12  1  0
  2 13  1  0
  3 14  1  0
  4 15  1  0
  4 16  1  0
  5 17  1  0
  6 18  1  0
  7 19  1  0
  7 20  1  0
  9 21  1  0
M  END
