
     RDKit          3D

 25 25  0  0  0  0  0  0  0  0999 V2000
   -2.4006   -0.7201    0.7448 C   0  0  0  0  0  0  0  0  0  0  0  0
   -1.0636   -0.0686    0.5981 C   0  0  0  0  0  0  0  0  0  0  0  0
   -1.2468    1.0019   -0.4891 C   0  0  0  0  0  0  0  0  0  0  0  0
    0.0237    1.7860   -0.4964 C   0  0  0  0  0  0  0  0  0  0  0  0
    1.2192    0.9728   -0.8474 C   0  0  0  0  0  0  0  0  0  0  0  0
    1.2437   -0.4105   -0.3356 C   0  0  0  0  0  0  0  0  0  0  0  0
    2.3039   -0.4802    0.7735 C   0  0  0  0  0  0  0  0  0  0  0  0
   -0.0225   -1.0084    0.1138 C   0  0  0  0  0  0  0  0  0  0  0  0
   -0.5983   -1.8071   -0.9022 O   0  0  0  0  0  0  0  0  0  0  0  0
   -2.7162   -1.0842   -0.2484 H   0  0  0  0  0  0  0  0  0  0  0  0
   -3.1264    0.0999    1.0255 H   0  0  0  0  0  0  0  0  0  0  0  0
   -2.4360   -1.4920    1.5334 H   0  0  0  0  0  0  0  0  0  0  0  0
   -0.7931    0.4244    1.5606 H   0  0  0  0  0  0  0  0  0  0  0  0
   -2.0716    1.6315   -0.1300 H   0  0  0  0  0  0  0  0  0  0  0  0
   -1.4520    0.4845   -1.4344 H   0  0  0  0  0  0  0  0  0  0  0  0
    0.1290    2.2864    0.4834 H   0  0  0  0  0  0  0  0  0  0  0  0
   -0.1029    2.6100   -1.2546 H   0  0  0  0  0  0  0  0  0  0  0  0
    1.3145    0.9993   -1.9740 H   0  0  0  0  0  0  0  0  0  0  0  0
    2.1197    1.5663   -0.5055 H   0  0  0  0  0  0  0  0  0  0  0  0
    1.6625   -1.0722   -1.1531 H   0  0  0  0  0  0  0  0  0  0  0  0
    3.0609    0.3254    0.6516 H   0  0  0  0  0  0  0  0  0  0  0  0
    1.8036   -0.4001    1.7633 H   0  0  0  0  0  0  0  0  0  0  0  0
    2.8704   -1.4376    0.7158 H   0  0  0  0  0  0  0  0  0  0  0  0
    0.1734   -1.7375    0.9542 H   0  0  0  0  0  0  0  0  0  0  0  0
    0.1055   -2.4698   -1.1473 H   0  0  0  0  0  0  0  0  0  0  0  0
  1  2  1  0
  2  3  1  0
  3  4  1  0
  4  5  1  0
  5  6  1  0
  6  7  1  0
  6  8  1  0
  8  9  1  0
  8  2  1  0
  1 10  1  0
  1 11  1  0
  1 12  1  0
  2 13  1  0
  3 14  1  0
  3 15  1  0
  4 16  1  0
  4 17  1  0
  5 18  1  0
  5 19  1  0
  6 20  1  0
  7 21  1  0
  7 22  1  0
  7 23  1  0
  8 24  1  0
  9 25  1  0
M  END
