
     RDKit          3D

 21 22  0  0  0  0  0  0  0  0999 V2000
   -3.1631   -0.1708    0.7521 C   0  0  0  0  0  0  0  0  0  0  0  0
   -1.9004   -0.6633    0.0971 C   0  0  0  0  0  0  0  0  0  0  0  0
   -1.1243    0.4861   -0.5563 C   0  0  0  0  0  0  0  0  0  0  0  0
   -0.0105   -0.4603   -0.1550 C   0  0  0  0  0  0  0  0  0  0  0  0
    1.2521    0.2793    0.1448 C   0  0  0  0  0  0  0  0  0  0  0  0
    2.2352    0.1291   -0.9981 C   0  0  0  0  0  0  0  0  0  0  0  0
    3.1844    0.1977    0.1801 C   0  0  0  0  0  0  0  0  0  0  0  0
    2.1654   -0.3458    0.9616 O   0  0  0  0  0  0  0  0  0  0  0  0
   -0.8014   -0.7923    0.9478 O   0  0  0  0  0  0  0  0  0  0  0  0
   -3.6296   -0.9582    1.3424 H   0  0  0  0  0  0  0  0  0  0  0  0
   -2.9853    0.7600    1.3092 H   0  0  0  0  0  0  0  0  0  0  0  0
   -3.8712    0.0814   -0.0883 H   0  0  0  0  0  0  0  0  0  0  0  0
   -2.0426   -1.4928   -0.5941 H   0  0  0  0  0  0  0  0  0  0  0  0
   -1.2971    0.5717   -1.6429 H   0  0  0  0  0  0  0  0  0  0  0  0
   -1.0841    1.4051    0.0258 H   0  0  0  0  0  0  0  0  0  0  0  0
    0.1069   -1.3250   -0.8328 H   0  0  0  0  0  0  0  0  0  0  0  0
    1.0634    1.3419    0.3975 H   0  0  0  0  0  0  0  0  0  0  0  0
    2.2929    0.9972   -1.6826 H   0  0  0  0  0  0  0  0  0  0  0  0
    2.1663   -0.8576   -1.4869 H   0  0  0  0  0  0  0  0  0  0  0  0
    4.0873   -0.4360    0.0792 H   0  0  0  0  0  0  0  0  0  0  0  0
    3.3556    1.2526    0.4582 H   0  0  0  0  0  0  0  0  0  0  0  0
  1  2  1  0
  2  3  1  0
  3  4  1  0
  4  5  1  0
  5  6  1  0
  6  7  1  0
  7  8  1  0
  4  9  1  0
  9  2  1  0
  8  5  1  0
  1 10  1  0
  1 11  1  0
  1 12  1  0
  2 13  1  0
  3 14  1  0
  3 15  1  0
  4 16  1  0
  5 17  1  0
  6 18  1  0
  6 19  1  0
  7 20  1  0
  7 21  1  0
M  END
