
     RDKit          3D

 25 26  0  0  0  0  0  0  0  0999 V2000
    2.4758   -0.6116    0.2894 C   0  0  0  0  0  0  0  0  0  0  0  0
    1.4024    0.0697   -0.5433 C   0  0  0  0  0  0  0  0  0  0  0  0
    1.0341    1.4244   -0.0139 C   0  0  0  0  0  0  0  0  0  0  0  0
   -0.3720    1.4789    0.5137 C   0  0  0  0  0  0  0  0  0  0  0  0
   -0.7539    0.2299    1.2719 C   0  0  0  0  0  0  0  0  0  0  0  0
   -1.0119   -0.4153   -0.0603 C   0  0  0  0  0  0  0  0  0  0  0  0
   -2.1145   -1.4021   -0.1249 C   0  0  0  0  0  0  0  0  0  0  0  0
    0.2300   -0.8288   -0.7842 C   0  0  0  0  0  0  0  0  0  0  0  0
   -1.3616    0.9964   -0.5573 C   0  0  0  0  0  0  0  0  0  0  0  0
    2.4576   -1.6920   -0.0141 H   0  0  0  0  0  0  0  0  0  0  0  0
    3.4792   -0.1542    0.1140 H   0  0  0  0  0  0  0  0  0  0  0  0
    2.2899   -0.5756    1.3582 H   0  0  0  0  0  0  0  0  0  0  0  0
    1.8862    0.2498   -1.5493 H   0  0  0  0  0  0  0  0  0  0  0  0
    1.1012    2.2277   -0.8056 H   0  0  0  0  0  0  0  0  0  0  0  0
    1.7097    1.7549    0.7899 H   0  0  0  0  0  0  0  0  0  0  0  0
   -0.6179    2.4322    0.9737 H   0  0  0  0  0  0  0  0  0  0  0  0
   -1.7121    0.3933    1.8020 H   0  0  0  0  0  0  0  0  0  0  0  0
   -0.0144   -0.2103    1.9202 H   0  0  0  0  0  0  0  0  0  0  0  0
   -3.1170   -0.9411   -0.0061 H   0  0  0  0  0  0  0  0  0  0  0  0
   -2.0031   -2.1242    0.7358 H   0  0  0  0  0  0  0  0  0  0  0  0
   -2.0292   -2.0174   -1.0333 H   0  0  0  0  0  0  0  0  0  0  0  0
    0.4950   -1.8800   -0.5241 H   0  0  0  0  0  0  0  0  0  0  0  0
   -0.0397   -0.8741   -1.8812 H   0  0  0  0  0  0  0  0  0  0  0  0
   -1.0397    1.1541   -1.5839 H   0  0  0  0  0  0  0  0  0  0  0  0
   -2.3743    1.3154   -0.2873 H   0  0  0  0  0  0  0  0  0  0  0  0
  1  2  1  0
  2  3  1  0
  3  4  1  0
  4  5  1  0
  5  6  1  0
  6  7  1  0
  6  8  1  0
  6  9  1  0
  8  2  1  0
  9  4  1  0
  1 10  1  0
  1 11  1  0
  1 12  1  0
  2 13  1  0
  3 14  1  0
  3 15  1  0
  4 16  1  0
  5 17  1  0
  5 18  1  0
  7 19  1  0
  7 20  1  0
  7 21  1  0
  8 22  1  0
  8 23  1  0
  9 24  1  0
  9 25  1  0
M  END
