
     RDKit          3D

 23 24  0  0  0  0  0  0  0  0999 V2000
   -2.4920   -0.7544    0.0204 C   0  0  0  0  0  0  0  0  0  0  0  0
   -1.0477   -0.7946   -0.3814 C   0  0  0  0  0  0  0  0  0  0  0  0
   -0.0884   -0.5064    0.7622 C   0  0  0  0  0  0  0  0  0  0  0  0
    1.2474   -1.1643    0.6158 C   0  0  0  0  0  0  0  0  0  0  0  0
    2.0624   -0.1546   -0.1599 C   0  0  0  0  0  0  0  0  0  0  0  0
    2.7212    0.6845    0.7431 O   0  0  0  0  0  0  0  0  0  0  0  0
    1.0591    0.5886   -1.0071 C   0  0  0  0  0  0  0  0  0  0  0  0
   -0.2748    0.4536   -0.3561 C   0  0  0  0  0  0  0  0  0  0  0  0
   -1.0444    1.7512   -0.1273 C   0  0  0  0  0  0  0  0  0  0  0  0
   -3.0693   -0.3000   -0.8021 H   0  0  0  0  0  0  0  0  0  0  0  0
   -2.6548   -0.2324    0.9999 H   0  0  0  0  0  0  0  0  0  0  0  0
   -2.8448   -1.8047    0.2046 H   0  0  0  0  0  0  0  0  0  0  0  0
   -0.8041   -1.6353   -1.0787 H   0  0  0  0  0  0  0  0  0  0  0  0
   -0.4984   -0.2694    1.7605 H   0  0  0  0  0  0  0  0  0  0  0  0
    1.7678   -1.3473    1.5672 H   0  0  0  0  0  0  0  0  0  0  0  0
    1.1986   -2.0912    0.0216 H   0  0  0  0  0  0  0  0  0  0  0  0
    2.8181   -0.6213   -0.8090 H   0  0  0  0  0  0  0  0  0  0  0  0
    3.1166    0.0885    1.4368 H   0  0  0  0  0  0  0  0  0  0  0  0
    1.3741    1.6662   -0.9866 H   0  0  0  0  0  0  0  0  0  0  0  0
    1.0831    0.2901   -2.0724 H   0  0  0  0  0  0  0  0  0  0  0  0
   -1.3598    2.0931   -1.1457 H   0  0  0  0  0  0  0  0  0  0  0  0
   -1.9542    1.6064    0.4629 H   0  0  0  0  0  0  0  0  0  0  0  0
   -0.3156    2.4536    0.3315 H   0  0  0  0  0  0  0  0  0  0  0  0
  1  2  1  0
  2  3  1  0
  3  4  1  0
  4  5  1  0
  5  6  1  0
  5  7  1  0
  7  8  1  0
  8  9  1  0
  8  2  1  0
  8  3  1  0
  1 10  1  0
  1 11  1  0
  1 12  1  0
  2 13  1  0
  3 14  1  0
  4 15  1  0
  4 16  1  0
  5 17  1  0
  6 18  1  0
  7 19  1  0
  7 20  1  0
  9 21  1  0
  9 22  1  0
  9 23  1  0
M  END
