
     RDKit          3D

 22 23  0  0  0  0  0  0  0  0999 V2000
    1.9181    0.9230    0.3537 C   0  0  0  0  0  0  0  0  0  0  0  0
    0.4766    0.9626    0.0326 C   0  0  0  0  0  0  0  0  0  0  0  0
   -0.3854    0.2064    1.0574 C   0  0  0  0  0  0  0  0  0  0  0  0
   -0.0229   -1.2195    0.8502 C   0  0  0  0  0  0  0  0  0  0  0  0
    0.5183   -1.2918   -0.5805 C   0  0  0  0  0  0  0  0  0  0  0  0
    0.1004    0.0447   -1.1403 C   0  0  0  0  0  0  0  0  0  0  0  0
   -1.4010    0.1162   -1.0677 C   0  0  0  0  0  0  0  0  0  0  0  0
   -1.7512    0.3975    0.3920 C   0  0  0  0  0  0  0  0  0  0  0  0
    2.2429    0.1642    1.0618 H   0  0  0  0  0  0  0  0  0  0  0  0
    2.5113    0.8515   -0.5944 H   0  0  0  0  0  0  0  0  0  0  0  0
    2.2047    1.9231    0.7895 H   0  0  0  0  0  0  0  0  0  0  0  0
    0.0503    1.9480   -0.1427 H   0  0  0  0  0  0  0  0  0  0  0  0
   -0.3203    0.5991    2.0479 H   0  0  0  0  0  0  0  0  0  0  0  0
    0.6496   -1.6576    1.5796 H   0  0  0  0  0  0  0  0  0  0  0  0
   -0.9456   -1.8717    0.8357 H   0  0  0  0  0  0  0  0  0  0  0  0
    1.6096   -1.4035   -0.4829 H   0  0  0  0  0  0  0  0  0  0  0  0
    0.0871   -2.1077   -1.1545 H   0  0  0  0  0  0  0  0  0  0  0  0
    0.5461    0.3262   -2.0722 H   0  0  0  0  0  0  0  0  0  0  0  0
   -1.7943   -0.8587   -1.4002 H   0  0  0  0  0  0  0  0  0  0  0  0
   -1.7701    0.9657   -1.6506 H   0  0  0  0  0  0  0  0  0  0  0  0
   -2.3827   -0.4191    0.7469 H   0  0  0  0  0  0  0  0  0  0  0  0
   -2.1414    1.4013    0.5386 H   0  0  0  0  0  0  0  0  0  0  0  0
  1  2  1  0
  2  3  1  0
  3  4  1  0
  4  5  1  0
  5  6  1  0
  6  7  1  0
  7  8  1  0
  6  2  1  0
  8  3  1  0
  1  9  1  0
  1 10  1  0
  1 11  1  0
  2 12  1  0
  3 13  1  0
  4 14  1  0
  4 15  1  0
  5 16  1  0
  5 17  1  0
  6 18  1  0
  7 19  1  0
  7 20  1  0
  8 21  1  0
  8 22  1  0
M  END
