
     RDKit          3D

 25 26  0  0  0  0  0  0  0  0999 V2000
    3.0584    0.2328   -0.4145 C   0  0  0  0  0  0  0  0  0  0  0  0
    1.8598   -0.2778    0.3102 C   0  0  0  0  0  0  0  0  0  0  0  0
    0.8329   -1.0045   -0.5610 C   0  0  0  0  0  0  0  0  0  0  0  0
   -0.1890   -0.0971   -0.0351 C   0  0  0  0  0  0  0  0  0  0  0  0
    0.8392    0.8509    0.4811 C   0  0  0  0  0  0  0  0  0  0  0  0
   -1.3951    0.3440   -0.7190 C   0  0  0  0  0  0  0  0  0  0  0  0
   -1.7139    1.8349   -0.5998 C   0  0  0  0  0  0  0  0  0  0  0  0
   -1.4339   -0.4229    0.5978 C   0  0  0  0  0  0  0  0  0  0  0  0
   -2.0510   -1.8056    0.5687 C   0  0  0  0  0  0  0  0  0  0  0  0
    3.8578   -0.5155   -0.5357 H   0  0  0  0  0  0  0  0  0  0  0  0
    2.7606    0.5794   -1.4310 H   0  0  0  0  0  0  0  0  0  0  0  0
    3.4757    1.0823    0.2016 H   0  0  0  0  0  0  0  0  0  0  0  0
    2.0955   -0.7984    1.2616 H   0  0  0  0  0  0  0  0  0  0  0  0
    1.1397   -0.8783   -1.6248 H   0  0  0  0  0  0  0  0  0  0  0  0
    0.6634   -2.0557   -0.2946 H   0  0  0  0  0  0  0  0  0  0  0  0
    0.9802    1.6898   -0.2492 H   0  0  0  0  0  0  0  0  0  0  0  0
    0.6897    1.1672    1.5264 H   0  0  0  0  0  0  0  0  0  0  0  0
   -1.6734   -0.1672   -1.6503 H   0  0  0  0  0  0  0  0  0  0  0  0
   -1.0706    2.3052    0.1711 H   0  0  0  0  0  0  0  0  0  0  0  0
   -2.7544    1.9077   -0.2119 H   0  0  0  0  0  0  0  0  0  0  0  0
   -1.5561    2.3383   -1.5567 H   0  0  0  0  0  0  0  0  0  0  0  0
   -1.7406    0.1627    1.5055 H   0  0  0  0  0  0  0  0  0  0  0  0
   -1.3283   -2.6010    0.8489 H   0  0  0  0  0  0  0  0  0  0  0  0
   -2.9197   -1.8786    1.2511 H   0  0  0  0  0  0  0  0  0  0  0  0
   -2.4271   -1.9927   -0.4616 H   0  0  0  0  0  0  0  0  0  0  0  0
  1  2  1  0
  2  3  1  0
  3  4  1  0
  4  5  1  0
  4  6  1  0
  6  7  1  0
  6  8  1  0
  8  9  1  0
  5  2  1  0
  8  4  1  0
  1 10  1  0
  1 11  1  0
  1 12  1  0
  2 13  1  0
  3 14  1  0
  3 15  1  0
  5 16  1  0
  5 17  1  0
  6 18  1  0
  7 19  1  0
  7 20  1  0
  7 21  1  0
  8 22  1  0
  9 23  1  0
  9 24  1  0
  9 25  1  0
M  END
