
     RDKit          3D

 21 22  0  0  0  0  0  0  0  0999 V2000
    1.7199   -0.4287   -0.7955 C   0  0  0  0  0  0  0  0  0  0  0  0
    0.7473   -0.5405    0.3433 C   0  0  0  0  0  0  0  0  0  0  0  0
    0.7665    0.7668    1.0971 C   0  0  0  0  0  0  0  0  0  0  0  0
    0.3432    1.8797    0.2049 C   0  0  0  0  0  0  0  0  0  0  0  0
   -0.6871    1.6695   -0.5959 C   0  0  0  0  0  0  0  0  0  0  0  0
   -1.3855    0.3937   -0.6063 C   0  0  0  0  0  0  0  0  0  0  0  0
   -0.6593   -0.7881   -0.0914 C   0  0  0  0  0  0  0  0  0  0  0  0
   -1.3826   -1.9125    0.5849 C   0  0  0  0  0  0  0  0  0  0  0  0
   -0.9888   -1.9937   -0.7344 O   0  0  0  0  0  0  0  0  0  0  0  0
    2.7290   -0.2577   -0.3426 H   0  0  0  0  0  0  0  0  0  0  0  0
    1.5342    0.4489   -1.4438 H   0  0  0  0  0  0  0  0  0  0  0  0
    1.8025   -1.3571   -1.3781 H   0  0  0  0  0  0  0  0  0  0  0  0
    1.0752   -1.3395    1.0110 H   0  0  0  0  0  0  0  0  0  0  0  0
    0.0722    0.6615    1.9478 H   0  0  0  0  0  0  0  0  0  0  0  0
    1.7895    0.9939    1.4614 H   0  0  0  0  0  0  0  0  0  0  0  0
    0.8463    2.8406    0.1928 H   0  0  0  0  0  0  0  0  0  0  0  0
   -1.0168    2.4638   -1.2569 H   0  0  0  0  0  0  0  0  0  0  0  0
   -2.3445    0.5021   -0.0305 H   0  0  0  0  0  0  0  0  0  0  0  0
   -1.6891    0.1978   -1.6758 H   0  0  0  0  0  0  0  0  0  0  0  0
   -2.4583   -1.6657    0.8211 H   0  0  0  0  0  0  0  0  0  0  0  0
   -0.8139   -2.5350    1.2867 H   0  0  0  0  0  0  0  0  0  0  0  0
  1  2  1  0
  2  3  1  0
  3  4  1  0
  4  5  2  0
  5  6  1  0
  6  7  1  0
  7  8  1  0
  8  9  1  0
  7  2  1  0
  9  7  1  0
  1 10  1  0
  1 11  1  0
  1 12  1  0
  2 13  1  0
  3 14  1  0
  3 15  1  0
  4 16  1  0
  5 17  1  0
  6 18  1  0
  6 19  1  0
  8 20  1  0
  8 21  1  0
M  END
