
     RDKit          3D

 18 19  0  0  0  0  0  0  0  0999 V2000
    1.8221   -0.2623    0.4807 C   0  0  0  0  0  0  0  0  0  0  0  0
    0.6407   -0.0889   -0.4180 C   0  0  0  0  0  0  0  0  0  0  0  0
    0.4011    1.3537   -0.8171 C   0  0  0  0  0  0  0  0  0  0  0  0
   -0.9753    1.5747   -0.6693 O   0  0  0  0  0  0  0  0  0  0  0  0
   -1.2874    0.8695    0.5123 C   0  0  0  0  0  0  0  0  0  0  0  0
   -0.6301   -0.4417    0.2852 C   0  0  0  0  0  0  0  0  0  0  0  0
   -1.3379   -1.6413   -0.1589 C   0  0  0  0  0  0  0  0  0  0  0  0
   -0.7427   -1.5001    1.1249 O   0  0  0  0  0  0  0  0  0  0  0  0
    2.6640   -0.6449   -0.1470 H   0  0  0  0  0  0  0  0  0  0  0  0
    1.5827   -1.0788    1.2109 H   0  0  0  0  0  0  0  0  0  0  0  0
    2.0875    0.6269    1.0696 H   0  0  0  0  0  0  0  0  0  0  0  0
    0.7533   -0.7042   -1.3424 H   0  0  0  0  0  0  0  0  0  0  0  0
    0.6117    1.5275   -1.9030 H   0  0  0  0  0  0  0  0  0  0  0  0
    0.9043    2.0733   -0.1576 H   0  0  0  0  0  0  0  0  0  0  0  0
   -2.3503    0.7859    0.6921 H   0  0  0  0  0  0  0  0  0  0  0  0
   -0.8478    1.4724    1.3348 H   0  0  0  0  0  0  0  0  0  0  0  0
   -2.4356   -1.5796   -0.2276 H   0  0  0  0  0  0  0  0  0  0  0  0
   -0.8603   -2.3422   -0.8696 H   0  0  0  0  0  0  0  0  0  0  0  0
  1  2  1  0
  2  3  1  0
  3  4  1  0
  4  5  1  0
  5  6  1  0
  6  7  1  0
  7  8  1  0
  6  2  1  0
  8  6  1  0
  1  9  1  0
  1 10  1  0
  1 11  1  0
  2 12  1  0
  3 13  1  0
  3 14  1  0
  5 15  1  0
  5 16  1  0
  7 17  1  0
  7 18  1  0
M  END
