
     RDKit          3D

 21 22  0  0  0  0  0  0  0  0999 V2000
   -1.1516   -1.6668   -0.0882 C   0  0  0  0  0  0  0  0  0  0  0  0
   -0.9505   -0.2441   -0.5562 C   0  0  0  0  0  0  0  0  0  0  0  0
   -1.2360    0.7994    0.4596 C   0  0  0  0  0  0  0  0  0  0  0  0
   -1.9210    1.9167   -0.0186 O   0  0  0  0  0  0  0  0  0  0  0  0
    0.1845    0.5639   -0.0479 C   0  0  0  0  0  0  0  0  0  0  0  0
    0.7674    1.5851   -0.9949 C   0  0  0  0  0  0  0  0  0  0  0  0
    1.1469   -0.0944    0.8791 C   0  0  0  0  0  0  0  0  0  0  0  0
    1.9055   -1.2320    0.5335 C   0  0  0  0  0  0  0  0  0  0  0  0
    2.5332    0.0011    0.4341 O   0  0  0  0  0  0  0  0  0  0  0  0
   -2.2528   -1.8282   -0.0255 H   0  0  0  0  0  0  0  0  0  0  0  0
   -0.6950   -2.3240   -0.8625 H   0  0  0  0  0  0  0  0  0  0  0  0
   -0.7525   -1.8539    0.9171 H   0  0  0  0  0  0  0  0  0  0  0  0
   -1.2596   -0.0837   -1.6097 H   0  0  0  0  0  0  0  0  0  0  0  0
   -1.3916    0.5434    1.5104 H   0  0  0  0  0  0  0  0  0  0  0  0
   -2.8809    1.7669    0.2405 H   0  0  0  0  0  0  0  0  0  0  0  0
    1.4253    2.2494   -0.3899 H   0  0  0  0  0  0  0  0  0  0  0  0
    0.0070    2.2237   -1.4622 H   0  0  0  0  0  0  0  0  0  0  0  0
    1.4203    1.0726   -1.7285 H   0  0  0  0  0  0  0  0  0  0  0  0
    1.1034    0.2891    1.9280 H   0  0  0  0  0  0  0  0  0  0  0  0
    2.3232   -1.9019    1.3045 H   0  0  0  0  0  0  0  0  0  0  0  0
    1.6749   -1.7823   -0.4228 H   0  0  0  0  0  0  0  0  0  0  0  0
  1  2  1  0
  2  3  1  0
  3  4  1  0
  3  5  1  0
  5  6  1  0
  5  7  1  0
  7  8  1  0
  8  9  1  0
  5  2  1  0
  9  7  1  0
  1 10  1  0
  1 11  1  0
  1 12  1  0
  2 13  1  0
  3 14  1  0
  4 15  1  0
  6 16  1  0
  6 17  1  0
  6 18  1  0
  7 19  1  0
  8 20  1  0
  8 21  1  0
M  END
