
     RDKit          3D

 23 24  0  0  0  0  0  0  0  0999 V2000
    2.4115    0.4211   -0.1295 C   0  0  0  0  0  0  0  0  0  0  0  0
    1.1605   -0.3823    0.2199 C   0  0  0  0  0  0  0  0  0  0  0  0
    0.4313   -0.7303   -1.0488 C   0  0  0  0  0  0  0  0  0  0  0  0
   -1.0671   -0.7012   -0.8905 C   0  0  0  0  0  0  0  0  0  0  0  0
   -1.3897   -1.2615    0.5000 C   0  0  0  0  0  0  0  0  0  0  0  0
   -1.1429    0.1613    1.0081 C   0  0  0  0  0  0  0  0  0  0  0  0
    0.3227    0.4715    1.1168 C   0  0  0  0  0  0  0  0  0  0  0  0
   -1.5803    0.6210   -0.3907 C   0  0  0  0  0  0  0  0  0  0  0  0
   -0.9206    1.7363   -0.8562 O   0  0  0  0  0  0  0  0  0  0  0  0
    2.8323    0.9357    0.7556 H   0  0  0  0  0  0  0  0  0  0  0  0
    3.2249   -0.2378   -0.5127 H   0  0  0  0  0  0  0  0  0  0  0  0
    2.1263    1.2040   -0.8596 H   0  0  0  0  0  0  0  0  0  0  0  0
    1.5395   -1.2946    0.7476 H   0  0  0  0  0  0  0  0  0  0  0  0
    0.7945   -0.1194   -1.8978 H   0  0  0  0  0  0  0  0  0  0  0  0
    0.6979   -1.7875   -1.3082 H   0  0  0  0  0  0  0  0  0  0  0  0
   -1.5956   -1.1686   -1.7156 H   0  0  0  0  0  0  0  0  0  0  0  0
   -0.6944   -2.0155    0.8684 H   0  0  0  0  0  0  0  0  0  0  0  0
   -2.4815   -1.4808    0.6398 H   0  0  0  0  0  0  0  0  0  0  0  0
   -1.7779    0.4868    1.8235 H   0  0  0  0  0  0  0  0  0  0  0  0
    0.7184    0.4349    2.1368 H   0  0  0  0  0  0  0  0  0  0  0  0
    0.4463    1.5350    0.7623 H   0  0  0  0  0  0  0  0  0  0  0  0
   -2.6874    0.6354   -0.4481 H   0  0  0  0  0  0  0  0  0  0  0  0
   -1.3686    2.5366   -0.5210 H   0  0  0  0  0  0  0  0  0  0  0  0
  1  2  1  0
  2  3  1  0
  3  4  1  0
  4  5  1  0
  5  6  1  0
  6  7  1  0
  6  8  1  0
  8  9  1  0
  7  2  1  0
  8  4  1  0
  1 10  1  0
  1 11  1  0
  1 12  1  0
  2 13  1  0
  3 14  1  0
  3 15  1  0
  4 16  1  0
  5 17  1  0
  5 18  1  0
  6 19  1  0
  7 20  1  0
  7 21  1  0
  8 22  1  0
  9 23  1  0
M  END
