
     RDKit          3D

 21 22  0  0  0  0  0  0  0  0999 V2000
   -1.0426    1.8534    0.6378 C   0  0  0  0  0  0  0  0  0  0  0  0
   -0.9243    0.7802   -0.4186 C   0  0  0  0  0  0  0  0  0  0  0  0
    0.3624    0.3895   -0.9948 C   0  0  0  0  0  0  0  0  0  0  0  0
    1.6752    0.6230   -0.3255 C   0  0  0  0  0  0  0  0  0  0  0  0
    1.8164   -0.5815    0.5404 C   0  0  0  0  0  0  0  0  0  0  0  0
    2.8467   -1.2062    0.7124 O   0  0  0  0  0  0  0  0  0  0  0  0
    0.4580   -0.8104    1.1060 C   0  0  0  0  0  0  0  0  0  0  0  0
   -0.4231   -0.5638   -0.0880 C   0  0  0  0  0  0  0  0  0  0  0  0
   -1.0551   -1.7778   -0.6976 C   0  0  0  0  0  0  0  0  0  0  0  0
   -1.9427    1.5850    1.2583 H   0  0  0  0  0  0  0  0  0  0  0  0
   -1.3427    2.7919    0.0899 H   0  0  0  0  0  0  0  0  0  0  0  0
   -0.1429    1.9940    1.2348 H   0  0  0  0  0  0  0  0  0  0  0  0
   -1.7833    0.8002   -1.1396 H   0  0  0  0  0  0  0  0  0  0  0  0
    0.4224    0.0327   -2.0315 H   0  0  0  0  0  0  0  0  0  0  0  0
    1.6848    1.5602    0.2840 H   0  0  0  0  0  0  0  0  0  0  0  0
    2.4895    0.7218   -1.0552 H   0  0  0  0  0  0  0  0  0  0  0  0
    0.3399   -1.8296    1.5313 H   0  0  0  0  0  0  0  0  0  0  0  0
    0.2490   -0.0808    1.9394 H   0  0  0  0  0  0  0  0  0  0  0  0
   -0.5474   -2.7034   -0.3438 H   0  0  0  0  0  0  0  0  0  0  0  0
   -0.9991   -1.7075   -1.7933 H   0  0  0  0  0  0  0  0  0  0  0  0
   -2.1413   -1.8711   -0.4463 H   0  0  0  0  0  0  0  0  0  0  0  0
  1  2  1  0
  2  3  1  0
  3  4  1  0
  4  5  1  0
  5  6  2  0
  5  7  1  0
  7  8  1  0
  8  9  1  0
  8  2  1  0
  8  3  1  0
  1 10  1  0
  1 11  1  0
  1 12  1  0
  2 13  1  0
  3 14  1  0
  4 15  1  0
  4 16  1  0
  7 17  1  0
  7 18  1  0
  9 19  1  0
  9 20  1  0
  9 21  1  0
M  END
