
     RDKit          3D

 20 20  0  0  0  0  0  0  0  0999 V2000
   -2.0366    1.1344    0.2283 C   0  0  0  0  0  0  0  0  0  0  0  0
   -1.3100   -0.0522   -0.4122 C   0  0  0  0  0  0  0  0  0  0  0  0
    0.0104    0.3567   -0.9310 C   0  0  0  0  0  0  0  0  0  0  0  0
    1.1552   -0.5357   -0.6295 C   0  0  0  0  0  0  0  0  0  0  0  0
    2.2302    0.2256    0.1617 C   0  0  0  0  0  0  0  0  0  0  0  0
    0.8404   -1.6812    0.0676 O   0  0  0  0  0  0  0  0  0  0  0  0
   -0.1673   -1.4948    1.0015 C   0  0  0  0  0  0  0  0  0  0  0  0
   -1.3456   -1.0813    0.4733 O   0  0  0  0  0  0  0  0  0  0  0  0
   -2.2159    0.9580    1.3125 H   0  0  0  0  0  0  0  0  0  0  0  0
   -1.3408    2.0231    0.1988 H   0  0  0  0  0  0  0  0  0  0  0  0
   -2.9511    1.4057   -0.2961 H   0  0  0  0  0  0  0  0  0  0  0  0
   -1.9569   -0.3545   -1.2895 H   0  0  0  0  0  0  0  0  0  0  0  0
    0.2379    1.3971   -0.5510 H   0  0  0  0  0  0  0  0  0  0  0  0
   -0.0157    0.4968   -2.0539 H   0  0  0  0  0  0  0  0  0  0  0  0
    1.6999   -0.8800   -1.5593 H   0  0  0  0  0  0  0  0  0  0  0  0
    2.1193    1.3042   -0.1563 H   0  0  0  0  0  0  0  0  0  0  0  0
    3.2388   -0.0747   -0.1177 H   0  0  0  0  0  0  0  0  0  0  0  0
    1.9941    0.1991    1.2231 H   0  0  0  0  0  0  0  0  0  0  0  0
   -0.3433   -2.5010    1.4737 H   0  0  0  0  0  0  0  0  0  0  0  0
    0.1571   -0.8452    1.8563 H   0  0  0  0  0  0  0  0  0  0  0  0
  1  2  1  0
  2  3  1  0
  3  4  1  0
  4  5  1  0
  4  6  1  0
  6  7  1  0
  7  8  1  0
  8  2  1  0
  1  9  1  0
  1 10  1  0
  1 11  1  0
  2 12  1  0
  3 13  1  0
  3 14  1  0
  4 15  1  0
  5 16  1  0
  5 17  1  0
  5 18  1  0
  7 19  1  0
  7 20  1  0
M  END
