
     RDKit          3D

 21 21  0  0  0  0  0  0  0  0999 V2000
   -2.5813   -0.3455    0.4353 C   0  0  0  0  0  0  0  0  0  0  0  0
   -1.2300   -0.0930   -0.1714 C   0  0  0  0  0  0  0  0  0  0  0  0
   -0.7146    1.2787    0.2655 C   0  0  0  0  0  0  0  0  0  0  0  0
    0.6347    1.4407   -0.2859 C   0  0  0  0  0  0  0  0  0  0  0  0
    1.7991    0.8126   -0.2300 C   0  0  0  0  0  0  0  0  0  0  0  0
    2.3588   -0.3791    0.4130 C   0  0  0  0  0  0  0  0  0  0  0  0
    1.8004   -1.5653    0.0420 O   0  0  0  0  0  0  0  0  0  0  0  0
    0.5600   -1.4820   -0.5356 C   0  0  0  0  0  0  0  0  0  0  0  0
   -0.3434   -1.0222    0.4203 O   0  0  0  0  0  0  0  0  0  0  0  0
   -3.4050    0.1857   -0.0837 H   0  0  0  0  0  0  0  0  0  0  0  0
   -2.7396   -1.4553    0.4207 H   0  0  0  0  0  0  0  0  0  0  0  0
   -2.5155   -0.0670    1.5084 H   0  0  0  0  0  0  0  0  0  0  0  0
   -1.2093   -0.1424   -1.2664 H   0  0  0  0  0  0  0  0  0  0  0  0
   -1.3810    2.0825   -0.0502 H   0  0  0  0  0  0  0  0  0  0  0  0
   -0.7322    1.2525    1.3860 H   0  0  0  0  0  0  0  0  0  0  0  0
    0.7097    2.3159   -0.9164 H   0  0  0  0  0  0  0  0  0  0  0  0
    2.5230    1.3444   -0.8339 H   0  0  0  0  0  0  0  0  0  0  0  0
    2.2468   -0.2698    1.5137 H   0  0  0  0  0  0  0  0  0  0  0  0
    3.4577   -0.4408    0.2215 H   0  0  0  0  0  0  0  0  0  0  0  0
    0.5241   -0.9226   -1.4738 H   0  0  0  0  0  0  0  0  0  0  0  0
    0.2377   -2.5281   -0.7792 H   0  0  0  0  0  0  0  0  0  0  0  0
  1  2  1  0
  2  3  1  0
  3  4  1  0
  4  5  2  3
  5  6  1  0
  6  7  1  0
  7  8  1  0
  8  9  1  0
  9  2  1  0
  1 10  1  0
  1 11  1  0
  1 12  1  0
  2 13  1  0
  3 14  1  0
  3 15  1  0
  4 16  1  0
  5 17  1  0
  6 18  1  0
  6 19  1  0
  8 20  1  0
  8 21  1  0
M  END
