
     RDKit          3D

 21 22  0  0  0  0  0  0  0  0999 V2000
    0.2961    1.8268    0.8175 C   0  0  0  0  0  0  0  0  0  0  0  0
   -0.2442    0.8943   -0.1957 C   0  0  0  0  0  0  0  0  0  0  0  0
   -0.6949   -0.4465    0.4119 C   0  0  0  0  0  0  0  0  0  0  0  0
   -2.1499   -0.6468    0.1526 C   0  0  0  0  0  0  0  0  0  0  0  0
    0.1350   -1.3327   -0.5029 C   0  0  0  0  0  0  0  0  0  0  0  0
    0.0171   -0.6871   -1.7563 O   0  0  0  0  0  0  0  0  0  0  0  0
    0.7825    0.3398   -1.1489 C   0  0  0  0  0  0  0  0  0  0  0  0
    1.5086   -0.7578   -0.4462 C   0  0  0  0  0  0  0  0  0  0  0  0
    1.9985   -0.4798    0.8180 O   0  0  0  0  0  0  0  0  0  0  0  0
   -0.5029    2.5942    1.0359 H   0  0  0  0  0  0  0  0  0  0  0  0
    1.1735    2.4177    0.4687 H   0  0  0  0  0  0  0  0  0  0  0  0
    0.5222    1.3653    1.8005 H   0  0  0  0  0  0  0  0  0  0  0  0
   -1.0768    1.3192   -0.8032 H   0  0  0  0  0  0  0  0  0  0  0  0
   -0.3902   -0.5158    1.4571 H   0  0  0  0  0  0  0  0  0  0  0  0
   -2.3011   -0.6860   -0.9456 H   0  0  0  0  0  0  0  0  0  0  0  0
   -2.6885    0.2546    0.5477 H   0  0  0  0  0  0  0  0  0  0  0  0
   -2.4876   -1.5685    0.6590 H   0  0  0  0  0  0  0  0  0  0  0  0
   -0.0218   -2.3824   -0.4739 H   0  0  0  0  0  0  0  0  0  0  0  0
    1.3042    1.0050   -1.8023 H   0  0  0  0  0  0  0  0  0  0  0  0
    2.1924   -1.2772   -1.1297 H   0  0  0  0  0  0  0  0  0  0  0  0
    2.6279   -1.2363    1.0361 H   0  0  0  0  0  0  0  0  0  0  0  0
  1  2  1  0
  2  3  1  0
  3  4  1  0
  3  5  1  0
  5  6  1  0
  6  7  1  0
  7  8  1  0
  8  9  1  0
  7  2  1  0
  8  5  1  0
  1 10  1  0
  1 11  1  0
  1 12  1  0
  2 13  1  0
  3 14  1  0
  4 15  1  0
  4 16  1  0
  4 17  1  0
  5 18  1  0
  7 19  1  0
  8 20  1  0
  9 21  1  0
M  END
