
     RDKit          3D

 17 17  0  0  0  0  0  0  0  0999 V2000
   -2.3527   -0.0454   -0.5941 C   0  0  0  0  0  0  0  0  0  0  0  0
   -0.8777   -0.0718   -0.4571 C   0  0  0  0  0  0  0  0  0  0  0  0
   -0.2528    1.1728    0.1852 C   0  0  0  0  0  0  0  0  0  0  0  0
    0.8086    0.1619    0.6496 C   0  0  0  0  0  0  0  0  0  0  0  0
    1.6478   -0.2999   -0.3741 O   0  0  0  0  0  0  0  0  0  0  0  0
    3.0008   -0.5103   -0.2591 C   0  0  0  0  0  0  0  0  0  0  0  0
    3.5287   -0.2682    0.8568 O   0  0  0  0  0  0  0  0  0  0  0  0
   -0.3536   -0.8026    0.7592 C   0  0  0  0  0  0  0  0  0  0  0  0
   -0.7002   -1.7112    1.4662 O   0  0  0  0  0  0  0  0  0  0  0  0
   -2.7868    0.9569   -0.7729 H   0  0  0  0  0  0  0  0  0  0  0  0
   -2.6358   -0.7481   -1.4313 H   0  0  0  0  0  0  0  0  0  0  0  0
   -2.8580   -0.4773    0.3058 H   0  0  0  0  0  0  0  0  0  0  0  0
   -0.2872   -0.3026   -1.3800 H   0  0  0  0  0  0  0  0  0  0  0  0
    0.1161    1.9169   -0.5208 H   0  0  0  0  0  0  0  0  0  0  0  0
   -0.7999    1.5251    1.0700 H   0  0  0  0  0  0  0  0  0  0  0  0
    1.2519    0.3746    1.6180 H   0  0  0  0  0  0  0  0  0  0  0  0
    3.5508   -0.8708   -1.1213 H   0  0  0  0  0  0  0  0  0  0  0  0
  1  2  1  0
  2  3  1  0
  3  4  1  0
  4  5  1  0
  5  6  1  0
  6  7  2  0
  4  8  1  0
  8  9  2  0
  8  2  1  0
  1 10  1  0
  1 11  1  0
  1 12  1  0
  2 13  1  0
  3 14  1  0
  3 15  1  0
  4 16  1  0
  6 17  1  0
M  END
