
     RDKit          3D

 21 22  0  0  0  0  0  0  0  0999 V2000
    2.5116    0.4016    0.5592 C   0  0  0  0  0  0  0  0  0  0  0  0
    1.4165   -0.5178    0.1686 C   0  0  0  0  0  0  0  0  0  0  0  0
    0.9486   -0.4875   -1.2483 C   0  0  0  0  0  0  0  0  0  0  0  0
   -0.1067    0.5212   -0.8569 C   0  0  0  0  0  0  0  0  0  0  0  0
   -1.3891    0.2465   -1.2903 O   0  0  0  0  0  0  0  0  0  0  0  0
   -2.3119    0.4396   -0.2664 C   0  0  0  0  0  0  0  0  0  0  0  0
   -2.1152   -0.6976    0.7203 C   0  0  0  0  0  0  0  0  0  0  0  0
   -0.7821   -0.9174    0.9590 O   0  0  0  0  0  0  0  0  0  0  0  0
    0.0607    0.0809    0.5706 C   0  0  0  0  0  0  0  0  0  0  0  0
    2.1637    1.1628    1.3114 H   0  0  0  0  0  0  0  0  0  0  0  0
    3.3427   -0.1473    1.0759 H   0  0  0  0  0  0  0  0  0  0  0  0
    2.9302    0.9786   -0.2775 H   0  0  0  0  0  0  0  0  0  0  0  0
    1.5813   -1.5415    0.5326 H   0  0  0  0  0  0  0  0  0  0  0  0
    1.6682   -0.1703   -2.0097 H   0  0  0  0  0  0  0  0  0  0  0  0
    0.4415   -1.4476   -1.5148 H   0  0  0  0  0  0  0  0  0  0  0  0
    0.2661    1.5412   -1.0573 H   0  0  0  0  0  0  0  0  0  0  0  0
   -3.3405    0.3153   -0.6757 H   0  0  0  0  0  0  0  0  0  0  0  0
   -2.2070    1.4355    0.2222 H   0  0  0  0  0  0  0  0  0  0  0  0
   -2.7103   -0.5464    1.6450 H   0  0  0  0  0  0  0  0  0  0  0  0
   -2.5123   -1.6153    0.1988 H   0  0  0  0  0  0  0  0  0  0  0  0
    0.1442    0.9655    1.2334 H   0  0  0  0  0  0  0  0  0  0  0  0
  1  2  1  0
  2  3  1  0
  3  4  1  0
  4  5  1  0
  5  6  1  0
  6  7  1  0
  7  8  1  0
  8  9  1  0
  9  2  1  0
  9  4  1  0
  1 10  1  0
  1 11  1  0
  1 12  1  0
  2 13  1  0
  3 14  1  0
  3 15  1  0
  4 16  1  0
  6 17  1  0
  6 18  1  0
  7 19  1  0
  7 20  1  0
  9 21  1  0
M  END
