
     RDKit          3D

 21 22  0  0  0  0  0  0  0  0999 V2000
   -2.2407   -1.0275   -0.5297 C   0  0  0  0  0  0  0  0  0  0  0  0
   -1.2462    0.1063   -0.6702 C   0  0  0  0  0  0  0  0  0  0  0  0
   -1.5288    1.2105    0.3433 C   0  0  0  0  0  0  0  0  0  0  0  0
   -0.1691    1.7375    0.5964 C   0  0  0  0  0  0  0  0  0  0  0  0
    0.7525    0.8649    0.2495 C   0  0  0  0  0  0  0  0  0  0  0  0
    2.2301    0.5983    0.1702 C   0  0  0  0  0  0  0  0  0  0  0  0
    2.2607   -0.8832    0.3879 C   0  0  0  0  0  0  0  0  0  0  0  0
    0.9922   -1.3435   -0.2089 C   0  0  0  0  0  0  0  0  0  0  0  0
    0.1206   -0.3601   -0.2798 C   0  0  0  0  0  0  0  0  0  0  0  0
   -3.2157   -0.7251   -0.9073 H   0  0  0  0  0  0  0  0  0  0  0  0
   -2.2712   -1.2967    0.5545 H   0  0  0  0  0  0  0  0  0  0  0  0
   -1.8158   -1.9115   -1.0474 H   0  0  0  0  0  0  0  0  0  0  0  0
   -1.2999    0.4827   -1.6896 H   0  0  0  0  0  0  0  0  0  0  0  0
   -2.1947    1.9972   -0.1086 H   0  0  0  0  0  0  0  0  0  0  0  0
   -1.9651    0.7341    1.2261 H   0  0  0  0  0  0  0  0  0  0  0  0
    0.0642    2.7052    1.0097 H   0  0  0  0  0  0  0  0  0  0  0  0
    2.7753    1.1769    0.9421 H   0  0  0  0  0  0  0  0  0  0  0  0
    2.5977    0.8032   -0.8582 H   0  0  0  0  0  0  0  0  0  0  0  0
    2.2137   -1.1598    1.4664 H   0  0  0  0  0  0  0  0  0  0  0  0
    3.1472   -1.3448   -0.0960 H   0  0  0  0  0  0  0  0  0  0  0  0
    0.7932   -2.3646   -0.5502 H   0  0  0  0  0  0  0  0  0  0  0  0
  1  2  1  0
  2  3  1  0
  3  4  1  0
  4  5  2  0
  5  6  1  0
  6  7  1  0
  7  8  1  0
  8  9  2  0
  9  2  1  0
  9  5  1  0
  1 10  1  0
  1 11  1  0
  1 12  1  0
  2 13  1  0
  3 14  1  0
  3 15  1  0
  4 16  1  0
  6 17  1  0
  6 18  1  0
  7 19  1  0
  7 20  1  0
  8 21  1  0
M  END
