
     RDKit          3D

 21 22  0  0  0  0  0  0  0  0999 V2000
    1.9884   -0.8490   -0.2849 C   0  0  0  0  0  0  0  0  0  0  0  0
    0.9363   -0.0161    0.3519 C   0  0  0  0  0  0  0  0  0  0  0  0
    0.8549    1.3672   -0.1959 C   0  0  0  0  0  0  0  0  0  0  0  0
    1.6275    1.9102   -0.9663 O   0  0  0  0  0  0  0  0  0  0  0  0
   -0.3914    1.8906    0.4357 C   0  0  0  0  0  0  0  0  0  0  0  0
   -1.3482    0.7517    0.2769 C   0  0  0  0  0  0  0  0  0  0  0  0
   -1.4183   -0.3834    1.1951 C   0  0  0  0  0  0  0  0  0  0  0  0
   -0.4683   -0.5059    0.0937 C   0  0  0  0  0  0  0  0  0  0  0  0
   -0.7573   -1.2520   -1.1736 C   0  0  0  0  0  0  0  0  0  0  0  0
    2.9689   -0.5749    0.1795 H   0  0  0  0  0  0  0  0  0  0  0  0
    2.1111   -0.7063   -1.3693 H   0  0  0  0  0  0  0  0  0  0  0  0
    1.8114   -1.9071   -0.0106 H   0  0  0  0  0  0  0  0  0  0  0  0
    1.1319    0.0761    1.4320 H   0  0  0  0  0  0  0  0  0  0  0  0
   -0.7351    2.8315    0.0023 H   0  0  0  0  0  0  0  0  0  0  0  0
   -0.1662    1.9731    1.5358 H   0  0  0  0  0  0  0  0  0  0  0  0
   -2.1780    0.9038   -0.4237 H   0  0  0  0  0  0  0  0  0  0  0  0
   -0.9663   -0.3276    2.2266 H   0  0  0  0  0  0  0  0  0  0  0  0
   -2.3844   -0.9496    1.2227 H   0  0  0  0  0  0  0  0  0  0  0  0
   -0.2937   -0.7350   -2.0373 H   0  0  0  0  0  0  0  0  0  0  0  0
   -1.8664   -1.1826   -1.3425 H   0  0  0  0  0  0  0  0  0  0  0  0
   -0.4570   -2.3148   -1.1479 H   0  0  0  0  0  0  0  0  0  0  0  0
  1  2  1  0
  2  3  1  0
  3  4  2  0
  3  5  1  0
  5  6  1  0
  6  7  1  0
  7  8  1  0
  8  9  1  0
  8  2  1  0
  8  6  1  0
  1 10  1  0
  1 11  1  0
  1 12  1  0
  2 13  1  0
  5 14  1  0
  5 15  1  0
  6 16  1  0
  7 17  1  0
  7 18  1  0
  9 19  1  0
  9 20  1  0
  9 21  1  0
M  END
