
     RDKit          3D

 23 25  0  0  0  0  0  0  0  0999 V2000
    2.0286    1.4491   -0.0793 C   0  0  0  0  0  0  0  0  0  0  0  0
    1.4686    0.1290   -0.4749 C   0  0  0  0  0  0  0  0  0  0  0  0
    1.1865   -0.8227    0.6204 C   0  0  0  0  0  0  0  0  0  0  0  0
    0.8054   -2.2132    0.1471 C   0  0  0  0  0  0  0  0  0  0  0  0
   -0.4667   -1.5808   -0.4048 C   0  0  0  0  0  0  0  0  0  0  0  0
    0.0665   -0.2186   -0.1674 C   0  0  0  0  0  0  0  0  0  0  0  0
   -0.8516    0.7878    0.4207 C   0  0  0  0  0  0  0  0  0  0  0  0
   -2.2484    0.5301    0.7548 C   0  0  0  0  0  0  0  0  0  0  0  0
   -1.9525    1.2449   -0.5430 C   0  0  0  0  0  0  0  0  0  0  0  0
    1.7041    1.7196    0.9556 H   0  0  0  0  0  0  0  0  0  0  0  0
    1.8419    2.2645   -0.8087 H   0  0  0  0  0  0  0  0  0  0  0  0
    3.1522    1.3720   -0.0148 H   0  0  0  0  0  0  0  0  0  0  0  0
    1.9005   -0.2860   -1.4259 H   0  0  0  0  0  0  0  0  0  0  0  0
    1.3431   -0.6128    1.6723 H   0  0  0  0  0  0  0  0  0  0  0  0
    0.6657   -2.9377    0.9460 H   0  0  0  0  0  0  0  0  0  0  0  0
    1.4466   -2.5068   -0.7083 H   0  0  0  0  0  0  0  0  0  0  0  0
   -0.7467   -1.8745   -1.4131 H   0  0  0  0  0  0  0  0  0  0  0  0
   -1.2995   -1.8208    0.3124 H   0  0  0  0  0  0  0  0  0  0  0  0
   -0.3314    1.5952    1.0027 H   0  0  0  0  0  0  0  0  0  0  0  0
   -2.7622   -0.4301    0.6238 H   0  0  0  0  0  0  0  0  0  0  0  0
   -2.7306    1.1847    1.5115 H   0  0  0  0  0  0  0  0  0  0  0  0
   -2.1315    2.3276   -0.6270 H   0  0  0  0  0  0  0  0  0  0  0  0
   -2.0887    0.6995   -1.4867 H   0  0  0  0  0  0  0  0  0  0  0  0
  1  2  1  0
  2  3  1  0
  3  4  1  0
  4  5  1  0
  5  6  1  0
  6  7  1  0
  7  8  1  0
  8  9  1  0
  6  2  1  0
  9  7  1  0
  6  3  1  0
  1 10  1  0
  1 11  1  0
  1 12  1  0
  2 13  1  0
  3 14  1  0
  4 15  1  0
  4 16  1  0
  5 17  1  0
  5 18  1  0
  7 19  1  0
  8 20  1  0
  8 21  1  0
  9 22  1  0
  9 23  1  0
M  END
