
     RDKit          3D

 21 21  0  0  0  0  0  0  0  0999 V2000
   -2.4544    0.3109    0.3859 C   0  0  0  0  0  0  0  0  0  0  0  0
   -1.0107    0.1319   -0.0908 C   0  0  0  0  0  0  0  0  0  0  0  0
   -0.6340   -1.3248   -0.1736 C   0  0  0  0  0  0  0  0  0  0  0  0
    0.8229   -1.5582    0.1808 C   0  0  0  0  0  0  0  0  0  0  0  0
    1.7059   -0.5541   -0.4322 C   0  0  0  0  0  0  0  0  0  0  0  0
    2.3217   -0.9259   -1.4187 O   0  0  0  0  0  0  0  0  0  0  0  0
    1.9575    0.8540   -0.0218 C   0  0  0  0  0  0  0  0  0  0  0  0
    0.6494    1.6198    0.0945 C   0  0  0  0  0  0  0  0  0  0  0  0
   -0.2208    0.8327    0.8217 O   0  0  0  0  0  0  0  0  0  0  0  0
   -2.6708    1.4014    0.2471 H   0  0  0  0  0  0  0  0  0  0  0  0
   -2.4783    0.0437    1.4750 H   0  0  0  0  0  0  0  0  0  0  0  0
   -3.1037   -0.3280   -0.2151 H   0  0  0  0  0  0  0  0  0  0  0  0
   -0.9226    0.5470   -1.1166 H   0  0  0  0  0  0  0  0  0  0  0  0
   -1.2902   -1.8660    0.5445 H   0  0  0  0  0  0  0  0  0  0  0  0
   -0.8172   -1.7248   -1.2014 H   0  0  0  0  0  0  0  0  0  0  0  0
    1.1045   -2.5676   -0.1809 H   0  0  0  0  0  0  0  0  0  0  0  0
    0.9193   -1.5980    1.3017 H   0  0  0  0  0  0  0  0  0  0  0  0
    2.4434    0.9141    0.9736 H   0  0  0  0  0  0  0  0  0  0  0  0
    2.5591    1.3920   -0.7863 H   0  0  0  0  0  0  0  0  0  0  0  0
    0.8318    2.5943    0.5649 H   0  0  0  0  0  0  0  0  0  0  0  0
    0.2871    1.8056   -0.9523 H   0  0  0  0  0  0  0  0  0  0  0  0
  1  2  1  0
  2  3  1  0
  3  4  1  0
  4  5  1  0
  5  6  2  0
  5  7  1  0
  7  8  1  0
  8  9  1  0
  9  2  1  0
  1 10  1  0
  1 11  1  0
  1 12  1  0
  2 13  1  0
  3 14  1  0
  3 15  1  0
  4 16  1  0
  4 17  1  0
  7 18  1  0
  7 19  1  0
  8 20  1  0
  8 21  1  0
M  END
