
     RDKit          3D

 21 22  0  0  0  0  0  0  0  0999 V2000
   -2.5680   -0.1537   -0.3105 C   0  0  0  0  0  0  0  0  0  0  0  0
   -1.0725    0.1558   -0.4025 C   0  0  0  0  0  0  0  0  0  0  0  0
   -0.2785   -1.0625   -0.1173 C   0  0  0  0  0  0  0  0  0  0  0  0
    1.1767   -0.9656   -0.4410 C   0  0  0  0  0  0  0  0  0  0  0  0
    1.8422    0.1877    0.2659 C   0  0  0  0  0  0  0  0  0  0  0  0
    2.7726    0.7761   -0.5996 O   0  0  0  0  0  0  0  0  0  0  0  0
    0.8121    1.1738    0.7504 C   0  0  0  0  0  0  0  0  0  0  0  0
   -0.5253    0.5289    0.9507 C   0  0  0  0  0  0  0  0  0  0  0  0
   -0.4411   -0.8334    1.2395 O   0  0  0  0  0  0  0  0  0  0  0  0
   -2.7406   -1.2630   -0.3188 H   0  0  0  0  0  0  0  0  0  0  0  0
   -2.9901    0.1977    0.6574 H   0  0  0  0  0  0  0  0  0  0  0  0
   -3.1209    0.2487   -1.1812 H   0  0  0  0  0  0  0  0  0  0  0  0
   -0.7773    0.7856   -1.2419 H   0  0  0  0  0  0  0  0  0  0  0  0
   -0.7446   -1.9620   -0.5313 H   0  0  0  0  0  0  0  0  0  0  0  0
    1.6642   -1.8965   -0.0464 H   0  0  0  0  0  0  0  0  0  0  0  0
    1.4038   -0.9468   -1.5201 H   0  0  0  0  0  0  0  0  0  0  0  0
    2.4064   -0.1493    1.1741 H   0  0  0  0  0  0  0  0  0  0  0  0
    2.5562    0.4992   -1.5222 H   0  0  0  0  0  0  0  0  0  0  0  0
    1.1515    1.7407    1.6233 H   0  0  0  0  0  0  0  0  0  0  0  0
    0.6886    1.9275   -0.0773 H   0  0  0  0  0  0  0  0  0  0  0  0
   -1.2152    1.0110    1.6490 H   0  0  0  0  0  0  0  0  0  0  0  0
  1  2  1  0
  2  3  1  0
  3  4  1  0
  4  5  1  0
  5  6  1  0
  5  7  1  0
  7  8  1  0
  8  9  1  0
  8  2  1  0
  9  3  1  0
  1 10  1  0
  1 11  1  0
  1 12  1  0
  2 13  1  0
  3 14  1  0
  4 15  1  0
  4 16  1  0
  5 17  1  0
  6 18  1  0
  7 19  1  0
  7 20  1  0
  8 21  1  0
M  END
