
     RDKit          3D

 20 20  0  0  0  0  0  0  0  0999 V2000
    1.7305    0.8565   -0.2998 C   0  0  0  0  0  0  0  0  0  0  0  0
    1.0565   -0.4444   -0.0074 C   0  0  0  0  0  0  0  0  0  0  0  0
    0.3371   -0.9949   -1.2142 C   0  0  0  0  0  0  0  0  0  0  0  0
   -0.9291   -1.3627   -0.7962 O   0  0  0  0  0  0  0  0  0  0  0  0
   -1.2860   -0.5500    0.2563 C   0  0  0  0  0  0  0  0  0  0  0  0
   -1.8638    0.7305   -0.2779 C   0  0  0  0  0  0  0  0  0  0  0  0
   -0.0206   -0.3717    1.0190 C   0  0  0  0  0  0  0  0  0  0  0  0
    0.0246    0.7264    1.8335 O   0  0  0  0  0  0  0  0  0  0  0  0
    1.0763    1.6800   -0.5586 H   0  0  0  0  0  0  0  0  0  0  0  0
    2.3417    1.1568    0.5662 H   0  0  0  0  0  0  0  0  0  0  0  0
    2.4230    0.6918   -1.1547 H   0  0  0  0  0  0  0  0  0  0  0  0
    1.8617   -1.1705    0.2893 H   0  0  0  0  0  0  0  0  0  0  0  0
    0.3509   -0.2829   -2.0475 H   0  0  0  0  0  0  0  0  0  0  0  0
    0.8392   -1.9235   -1.5755 H   0  0  0  0  0  0  0  0  0  0  0  0
   -2.0827   -1.0455    0.8520 H   0  0  0  0  0  0  0  0  0  0  0  0
   -2.1419    1.4528    0.5033 H   0  0  0  0  0  0  0  0  0  0  0  0
   -1.2195    1.1830   -1.0499 H   0  0  0  0  0  0  0  0  0  0  0  0
   -2.8141    0.4470   -0.8129 H   0  0  0  0  0  0  0  0  0  0  0  0
    0.0936   -1.2780    1.6841 H   0  0  0  0  0  0  0  0  0  0  0  0
    0.2228    0.4993    2.7908 H   0  0  0  0  0  0  0  0  0  0  0  0
  1  2  1  0
  2  3  1  0
  3  4  1  0
  4  5  1  0
  5  6  1  0
  5  7  1  0
  7  8  1  0
  7  2  1  0
  1  9  1  0
  1 10  1  0
  1 11  1  0
  2 12  1  0
  3 13  1  0
  3 14  1  0
  5 15  1  0
  6 16  1  0
  6 17  1  0
  6 18  1  0
  7 19  1  0
  8 20  1  0
M  END
