
     RDKit          3D

 23 23  0  0  0  0  0  0  0  0999 V2000
   -2.9724   -0.6335    0.1438 C   0  0  0  0  0  0  0  0  0  0  0  0
   -1.7525    0.1650   -0.1913 C   0  0  0  0  0  0  0  0  0  0  0  0
   -0.5523   -0.2351    0.6763 C   0  0  0  0  0  0  0  0  0  0  0  0
    0.2898   -0.3310   -0.5649 C   0  0  0  0  0  0  0  0  0  0  0  0
    1.2271    0.8287   -0.7518 C   0  0  0  0  0  0  0  0  0  0  0  0
    2.1855    0.9394    0.4074 C   0  0  0  0  0  0  0  0  0  0  0  0
    3.0071   -0.2907    0.5464 C   0  0  0  0  0  0  0  0  0  0  0  0
    3.8200   -0.3148    1.4540 O   0  0  0  0  0  0  0  0  0  0  0  0
   -0.9695   -0.2853   -1.3951 C   0  0  0  0  0  0  0  0  0  0  0  0
   -2.9467   -1.0097    1.2081 H   0  0  0  0  0  0  0  0  0  0  0  0
   -3.8778    0.0284    0.0207 H   0  0  0  0  0  0  0  0  0  0  0  0
   -3.1466   -1.5032   -0.4901 H   0  0  0  0  0  0  0  0  0  0  0  0
   -1.9000    1.2751   -0.2487 H   0  0  0  0  0  0  0  0  0  0  0  0
   -0.2879    0.5824    1.3820 H   0  0  0  0  0  0  0  0  0  0  0  0
   -0.7019   -1.2299    1.1509 H   0  0  0  0  0  0  0  0  0  0  0  0
    0.8251   -1.2848   -0.7166 H   0  0  0  0  0  0  0  0  0  0  0  0
    1.8246    0.6836   -1.6727 H   0  0  0  0  0  0  0  0  0  0  0  0
    0.6142    1.7424   -0.8286 H   0  0  0  0  0  0  0  0  0  0  0  0
    1.6836    1.1062    1.3702 H   0  0  0  0  0  0  0  0  0  0  0  0
    2.9136    1.7680    0.1654 H   0  0  0  0  0  0  0  0  0  0  0  0
    2.9015   -1.1428   -0.1236 H   0  0  0  0  0  0  0  0  0  0  0  0
   -0.9199    0.4326   -2.2389 H   0  0  0  0  0  0  0  0  0  0  0  0
   -1.2646   -1.2909   -1.8037 H   0  0  0  0  0  0  0  0  0  0  0  0
  1  2  1  0
  2  3  1  0
  3  4  1  0
  4  5  1  0
  5  6  1  0
  6  7  1  0
  7  8  2  0
  4  9  1  0
  9  2  1  0
  1 10  1  0
  1 11  1  0
  1 12  1  0
  2 13  1  0
  3 14  1  0
  3 15  1  0
  4 16  1  0
  5 17  1  0
  5 18  1  0
  6 19  1  0
  6 20  1  0
  7 21  1  0
  9 22  1  0
  9 23  1  0
M  END
