
     RDKit          3D

 25 25  0  0  0  0  0  0  0  0999 V2000
   -1.8777   -1.4884    0.3753 C   0  0  0  0  0  0  0  0  0  0  0  0
   -0.9505   -0.6694   -0.4112 C   0  0  0  0  0  0  0  0  0  0  0  0
    0.4712   -1.1354   -0.0715 C   0  0  0  0  0  0  0  0  0  0  0  0
    1.1716    0.1611    0.1458 C   0  0  0  0  0  0  0  0  0  0  0  0
    1.6959    0.6541   -1.1822 C   0  0  0  0  0  0  0  0  0  0  0  0
    2.3753    0.0454    1.0627 C   0  0  0  0  0  0  0  0  0  0  0  0
    0.2058    0.9746    0.6885 O   0  0  0  0  0  0  0  0  0  0  0  0
   -0.8872    0.7736   -0.1847 C   0  0  0  0  0  0  0  0  0  0  0  0
   -2.1057    1.4776    0.2449 C   0  0  0  0  0  0  0  0  0  0  0  0
   -2.8288   -1.0669    0.6593 H   0  0  0  0  0  0  0  0  0  0  0  0
   -1.3951   -1.8910    1.3138 H   0  0  0  0  0  0  0  0  0  0  0  0
   -2.1174   -2.4242   -0.2138 H   0  0  0  0  0  0  0  0  0  0  0  0
   -1.0827   -0.8808   -1.4984 H   0  0  0  0  0  0  0  0  0  0  0  0
    0.4794   -1.7046    0.8819 H   0  0  0  0  0  0  0  0  0  0  0  0
    0.9276   -1.7004   -0.8905 H   0  0  0  0  0  0  0  0  0  0  0  0
    1.9343    1.7126   -1.1205 H   0  0  0  0  0  0  0  0  0  0  0  0
    2.6668    0.0995   -1.3487 H   0  0  0  0  0  0  0  0  0  0  0  0
    1.0519    0.3620   -2.0291 H   0  0  0  0  0  0  0  0  0  0  0  0
    3.1104   -0.6021    0.5402 H   0  0  0  0  0  0  0  0  0  0  0  0
    2.1205   -0.2849    2.0684 H   0  0  0  0  0  0  0  0  0  0  0  0
    2.8475    1.0721    1.0586 H   0  0  0  0  0  0  0  0  0  0  0  0
   -0.5439    1.2784   -1.1387 H   0  0  0  0  0  0  0  0  0  0  0  0
   -2.7826    0.9571    0.9072 H   0  0  0  0  0  0  0  0  0  0  0  0
   -1.7940    2.4221    0.7811 H   0  0  0  0  0  0  0  0  0  0  0  0
   -2.6928    1.8582   -0.6383 H   0  0  0  0  0  0  0  0  0  0  0  0
  1  2  1  0
  2  3  1  0
  3  4  1  0
  4  5  1  0
  4  6  1  0
  4  7  1  0
  7  8  1  0
  8  9  1  0
  8  2  1  0
  1 10  1  0
  1 11  1  0
  1 12  1  0
  2 13  1  0
  3 14  1  0
  3 15  1  0
  5 16  1  0
  5 17  1  0
  5 18  1  0
  6 19  1  0
  6 20  1  0
  6 21  1  0
  8 22  1  0
  9 23  1  0
  9 24  1  0
  9 25  1  0
M  END
