
     RDKit          3D

 16 18  0  0  0  0  0  0  0  0999 V2000
   -1.1897   -1.3618   -0.2216 C   0  0  0  0  0  0  0  0  0  0  0  0
   -0.6887   -0.0459    0.2914 C   0  0  0  0  0  0  0  0  0  0  0  0
   -1.0798    1.1752   -0.4585 C   0  0  0  0  0  0  0  0  0  0  0  0
   -0.4893    1.5488   -1.6331 O   0  0  0  0  0  0  0  0  0  0  0  0
    0.4076    1.5204   -0.5776 C   0  0  0  0  0  0  0  0  0  0  0  0
    0.7326    0.1810   -0.0574 C   0  0  0  0  0  0  0  0  0  0  0  0
    1.8799   -0.3979    0.3904 C   0  0  0  0  0  0  0  0  0  0  0  0
    1.3662   -0.7174   -0.9614 O   0  0  0  0  0  0  0  0  0  0  0  0
   -2.0456   -1.6885    0.4091 H   0  0  0  0  0  0  0  0  0  0  0  0
   -1.4195   -1.3497   -1.3005 H   0  0  0  0  0  0  0  0  0  0  0  0
   -0.3366   -2.0926   -0.1093 H   0  0  0  0  0  0  0  0  0  0  0  0
   -0.8854    0.0444    1.3900 H   0  0  0  0  0  0  0  0  0  0  0  0
   -1.7393    1.9304    0.0260 H   0  0  0  0  0  0  0  0  0  0  0  0
    0.7578    2.4517   -0.1092 H   0  0  0  0  0  0  0  0  0  0  0  0
    2.8708    0.0942    0.3737 H   0  0  0  0  0  0  0  0  0  0  0  0
    1.8589   -1.2923    1.0614 H   0  0  0  0  0  0  0  0  0  0  0  0
  1  2  1  0
  2  3  1  0
  3  4  1  0
  4  5  1  0
  5  6  1  0
  6  7  1  0
  7  8  1  0
  6  2  1  0
  5  3  1  0
  8  6  1  0
  1  9  1  0
  1 10  1  0
  1 11  1  0
  2 12  1  0
  3 13  1  0
  5 14  1  0
  7 15  1  0
  7 16  1  0
M  END
