
     RDKit          3D

 19 19  0  0  0  0  0  0  0  0999 V2000
   -1.8835   -1.3941   -0.3285 C   0  0  0  0  0  0  0  0  0  0  0  0
   -1.3743   -0.0192   -0.0251 C   0  0  0  0  0  0  0  0  0  0  0  0
   -2.1798    1.0886    0.1590 C   0  0  0  0  0  0  0  0  0  0  0  0
   -1.3760    2.0867    0.4025 O   0  0  0  0  0  0  0  0  0  0  0  0
   -0.1263    1.7364    0.3944 C   0  0  0  0  0  0  0  0  0  0  0  0
   -0.0691    0.3926    0.1247 C   0  0  0  0  0  0  0  0  0  0  0  0
    1.1031   -0.4991   -0.0114 C   0  0  0  0  0  0  0  0  0  0  0  0
    2.3927    0.0985    0.4692 C   0  0  0  0  0  0  0  0  0  0  0  0
    1.1936   -0.8627   -1.3779 O   0  0  0  0  0  0  0  0  0  0  0  0
   -2.6086   -1.6705    0.4904 H   0  0  0  0  0  0  0  0  0  0  0  0
   -2.4510   -1.3398   -1.2725 H   0  0  0  0  0  0  0  0  0  0  0  0
   -1.0140   -2.0821   -0.3608 H   0  0  0  0  0  0  0  0  0  0  0  0
   -3.2806    1.1237    0.1103 H   0  0  0  0  0  0  0  0  0  0  0  0
    0.7629    2.3492    0.5639 H   0  0  0  0  0  0  0  0  0  0  0  0
    0.8814   -1.4316    0.5396 H   0  0  0  0  0  0  0  0  0  0  0  0
    2.9906   -0.7024    1.0061 H   0  0  0  0  0  0  0  0  0  0  0  0
    2.1868    0.8491    1.2605 H   0  0  0  0  0  0  0  0  0  0  0  0
    3.0165    0.5276   -0.3197 H   0  0  0  0  0  0  0  0  0  0  0  0
    1.8355   -0.2510   -1.8250 H   0  0  0  0  0  0  0  0  0  0  0  0
  1  2  1  0
  2  3  2  0
  3  4  1  0
  4  5  1  0
  5  6  2  0
  6  7  1  0
  7  8  1  0
  7  9  1  0
  6  2  1  0
  1 10  1  0
  1 11  1  0
  1 12  1  0
  3 13  1  0
  5 14  1  0
  7 15  1  0
  8 16  1  0
  8 17  1  0
  8 18  1  0
  9 19  1  0
M  END
