
     RDKit          3D

 21 22  0  0  0  0  0  0  0  0999 V2000
    2.4474   -0.3700   -0.3143 C   0  0  0  0  0  0  0  0  0  0  0  0
    1.1487   -0.2876    0.4414 C   0  0  0  0  0  0  0  0  0  0  0  0
    0.9246    1.1151    0.8529 C   0  0  0  0  0  0  0  0  0  0  0  0
   -0.0784    1.6773    0.2168 C   0  0  0  0  0  0  0  0  0  0  0  0
   -0.6801    0.7124   -0.7293 C   0  0  0  0  0  0  0  0  0  0  0  0
   -1.9542    0.0544   -0.2793 C   0  0  0  0  0  0  0  0  0  0  0  0
   -2.5910    0.6182    0.7995 O   0  0  0  0  0  0  0  0  0  0  0  0
   -1.2073   -1.2006    0.1305 C   0  0  0  0  0  0  0  0  0  0  0  0
    0.0317   -0.5986   -0.4877 C   0  0  0  0  0  0  0  0  0  0  0  0
    2.7951    0.6171   -0.6849 H   0  0  0  0  0  0  0  0  0  0  0  0
    2.3152   -1.0224   -1.2218 H   0  0  0  0  0  0  0  0  0  0  0  0
    3.2307   -0.8768    0.2910 H   0  0  0  0  0  0  0  0  0  0  0  0
    1.1786   -0.9473    1.3429 H   0  0  0  0  0  0  0  0  0  0  0  0
    1.5472    1.6018    1.6099 H   0  0  0  0  0  0  0  0  0  0  0  0
   -0.4194    2.6861    0.3550 H   0  0  0  0  0  0  0  0  0  0  0  0
   -0.6744    1.0479   -1.7879 H   0  0  0  0  0  0  0  0  0  0  0  0
   -2.6033   -0.1517   -1.1677 H   0  0  0  0  0  0  0  0  0  0  0  0
   -3.0682   -0.1256    1.2754 H   0  0  0  0  0  0  0  0  0  0  0  0
   -1.1476   -1.3533    1.2331 H   0  0  0  0  0  0  0  0  0  0  0  0
   -1.5054   -2.1226   -0.4100 H   0  0  0  0  0  0  0  0  0  0  0  0
    0.3101   -1.0739   -1.4656 H   0  0  0  0  0  0  0  0  0  0  0  0
  1  2  1  0
  2  3  1  0
  3  4  2  0
  4  5  1  0
  5  6  1  0
  6  7  1  0
  6  8  1  0
  8  9  1  0
  9  2  1  0
  9  5  1  0
  1 10  1  0
  1 11  1  0
  1 12  1  0
  2 13  1  0
  3 14  1  0
  4 15  1  0
  5 16  1  0
  6 17  1  0
  7 18  1  0
  8 19  1  0
  8 20  1  0
  9 21  1  0
M  END
