
     RDKit          3D

 21 23  0  0  0  0  0  0  0  0999 V2000
    2.6368    0.1494   -0.6334 C   0  0  0  0  0  0  0  0  0  0  0  0
    1.4955   -0.6275   -0.0501 C   0  0  0  0  0  0  0  0  0  0  0  0
    0.7881    0.0654    1.1475 C   0  0  0  0  0  0  0  0  0  0  0  0
    0.1229   -0.2651   -0.0777 C   0  0  0  0  0  0  0  0  0  0  0  0
   -1.0603   -1.1117   -0.2727 C   0  0  0  0  0  0  0  0  0  0  0  0
   -2.1860   -0.3384    0.4174 C   0  0  0  0  0  0  0  0  0  0  0  0
   -1.8250    1.0501   -0.1491 C   0  0  0  0  0  0  0  0  0  0  0  0
   -0.6175    0.6065   -0.9826 C   0  0  0  0  0  0  0  0  0  0  0  0
   -1.1575   -0.5617   -1.5730 O   0  0  0  0  0  0  0  0  0  0  0  0
    3.5263   -0.0423    0.0368 H   0  0  0  0  0  0  0  0  0  0  0  0
    2.9157   -0.2290   -1.6216 H   0  0  0  0  0  0  0  0  0  0  0  0
    2.4838    1.2451   -0.5929 H   0  0  0  0  0  0  0  0  0  0  0  0
    1.7643   -1.7058    0.1514 H   0  0  0  0  0  0  0  0  0  0  0  0
    0.6186   -0.5653    2.0476 H   0  0  0  0  0  0  0  0  0  0  0  0
    1.1597    1.0811    1.4110 H   0  0  0  0  0  0  0  0  0  0  0  0
   -1.0473   -2.1668   -0.1802 H   0  0  0  0  0  0  0  0  0  0  0  0
   -3.1713   -0.6683    0.0154 H   0  0  0  0  0  0  0  0  0  0  0  0
   -2.1117   -0.3658    1.5037 H   0  0  0  0  0  0  0  0  0  0  0  0
   -1.5322    1.7151    0.6759 H   0  0  0  0  0  0  0  0  0  0  0  0
   -2.6344    1.4134   -0.7801 H   0  0  0  0  0  0  0  0  0  0  0  0
   -0.1685    1.3218   -1.6247 H   0  0  0  0  0  0  0  0  0  0  0  0
  1  2  1  0
  2  3  1  0
  3  4  1  0
  4  5  1  0
  5  6  1  0
  6  7  1  0
  7  8  1  0
  8  9  1  0
  4  2  1  0
  9  5  1  0
  8  4  1  0
  1 10  1  0
  1 11  1  0
  1 12  1  0
  2 13  1  0
  3 14  1  0
  3 15  1  0
  5 16  1  0
  6 17  1  0
  6 18  1  0
  7 19  1  0
  7 20  1  0
  8 21  1  0
M  END
