
     RDKit          3D

 19 21  0  0  0  0  0  0  0  0999 V2000
   -2.2731   -0.0078   -0.0020 C   0  0  0  0  0  0  0  0  0  0  0  0
   -0.8606   -0.2470    0.4003 C   0  0  0  0  0  0  0  0  0  0  0  0
   -0.1593   -1.3305   -0.4278 C   0  0  0  0  0  0  0  0  0  0  0  0
    1.0708   -0.5021   -0.2435 C   0  0  0  0  0  0  0  0  0  0  0  0
    2.2238   -0.7752    0.4269 C   0  0  0  0  0  0  0  0  0  0  0  0
    2.1510   -0.5663   -1.0463 O   0  0  0  0  0  0  0  0  0  0  0  0
    0.1792    0.6809   -0.1341 C   0  0  0  0  0  0  0  0  0  0  0  0
    0.4321    1.9913    0.1354 C   0  0  0  0  0  0  0  0  0  0  0  0
   -0.0615    1.5273   -1.1803 O   0  0  0  0  0  0  0  0  0  0  0  0
   -2.7294    0.6937    0.7118 H   0  0  0  0  0  0  0  0  0  0  0  0
   -2.8127   -0.9980    0.0697 H   0  0  0  0  0  0  0  0  0  0  0  0
   -2.3075    0.3215   -1.0398 H   0  0  0  0  0  0  0  0  0  0  0  0
   -0.6805   -0.4678    1.4701 H   0  0  0  0  0  0  0  0  0  0  0  0
   -0.1778   -2.3224    0.0204 H   0  0  0  0  0  0  0  0  0  0  0  0
   -0.5640   -1.2664   -1.4686 H   0  0  0  0  0  0  0  0  0  0  0  0
    2.5678   -1.8237    0.6596 H   0  0  0  0  0  0  0  0  0  0  0  0
    2.8564   -0.0159    0.9290 H   0  0  0  0  0  0  0  0  0  0  0  0
   -0.2932    2.6597    0.6545 H   0  0  0  0  0  0  0  0  0  0  0  0
    1.4384    2.4488    0.0648 H   0  0  0  0  0  0  0  0  0  0  0  0
  1  2  1  0
  2  3  1  0
  3  4  1  0
  4  5  1  0
  5  6  1  0
  4  7  1  0
  7  8  1  0
  8  9  1  0
  7  2  1  0
  6  4  1  0
  9  7  1  0
  1 10  1  0
  1 11  1  0
  1 12  1  0
  2 13  1  0
  3 14  1  0
  3 15  1  0
  5 16  1  0
  5 17  1  0
  8 18  1  0
  8 19  1  0
M  END
