
     RDKit          3D

 21 22  0  0  0  0  0  0  0  0999 V2000
    2.3748   -0.7191    0.0342 C   0  0  0  0  0  0  0  0  0  0  0  0
    1.3879    0.3462   -0.3701 C   0  0  0  0  0  0  0  0  0  0  0  0
    0.7273    1.0789    0.8078 C   0  0  0  0  0  0  0  0  0  0  0  0
    0.6649    2.4650    0.6080 O   0  0  0  0  0  0  0  0  0  0  0  0
   -0.0482    0.1999   -0.0522 C   0  0  0  0  0  0  0  0  0  0  0  0
   -1.0763    0.7850   -0.9266 C   0  0  0  0  0  0  0  0  0  0  0  0
   -2.2347    0.1517   -0.7760 C   0  0  0  0  0  0  0  0  0  0  0  0
   -2.0823   -0.9341    0.2313 C   0  0  0  0  0  0  0  0  0  0  0  0
   -0.5922   -1.1269    0.3685 C   0  0  0  0  0  0  0  0  0  0  0  0
    2.6018   -1.3741   -0.8486 H   0  0  0  0  0  0  0  0  0  0  0  0
    3.2997   -0.1730    0.3723 H   0  0  0  0  0  0  0  0  0  0  0  0
    2.0184   -1.3207    0.8950 H   0  0  0  0  0  0  0  0  0  0  0  0
    1.6689    0.9127   -1.2557 H   0  0  0  0  0  0  0  0  0  0  0  0
    1.0823    0.8185    1.8226 H   0  0  0  0  0  0  0  0  0  0  0  0
   -0.0435    2.7179   -0.0313 H   0  0  0  0  0  0  0  0  0  0  0  0
   -0.8954    1.6277   -1.6036 H   0  0  0  0  0  0  0  0  0  0  0  0
   -3.1482    0.3798   -1.2964 H   0  0  0  0  0  0  0  0  0  0  0  0
   -2.5577   -1.8729   -0.1197 H   0  0  0  0  0  0  0  0  0  0  0  0
   -2.5719   -0.6413    1.1809 H   0  0  0  0  0  0  0  0  0  0  0  0
   -0.2903   -1.4486    1.3630 H   0  0  0  0  0  0  0  0  0  0  0  0
   -0.2854   -1.8724   -0.4035 H   0  0  0  0  0  0  0  0  0  0  0  0
  1  2  1  0
  2  3  1  0
  3  4  1  0
  3  5  1  0
  5  6  1  0
  6  7  2  0
  7  8  1  0
  8  9  1  0
  5  2  1  0
  9  5  1  0
  1 10  1  0
  1 11  1  0
  1 12  1  0
  2 13  1  0
  3 14  1  0
  4 15  1  0
  6 16  1  0
  7 17  1  0
  8 18  1  0
  8 19  1  0
  9 20  1  0
  9 21  1  0
M  END
