
     RDKit          3D

 23 24  0  0  0  0  0  0  0  0999 V2000
    2.8032    0.9589   -0.6190 C   0  0  0  0  0  0  0  0  0  0  0  0
    1.5570    0.4298    0.0122 C   0  0  0  0  0  0  0  0  0  0  0  0
    1.6250   -1.0749    0.3366 C   0  0  0  0  0  0  0  0  0  0  0  0
    0.6620   -0.5298   -0.6289 C   0  0  0  0  0  0  0  0  0  0  0  0
   -0.7981   -0.5712   -0.2090 C   0  0  0  0  0  0  0  0  0  0  0  0
   -1.5866   -1.5151   -0.8683 O   0  0  0  0  0  0  0  0  0  0  0  0
   -1.0840   -0.3516    1.2718 C   0  0  0  0  0  0  0  0  0  0  0  0
   -1.4690    0.6689    0.2663 C   0  0  0  0  0  0  0  0  0  0  0  0
   -2.8992    0.8412   -0.1519 C   0  0  0  0  0  0  0  0  0  0  0  0
    3.2498    0.1593   -1.2799 H   0  0  0  0  0  0  0  0  0  0  0  0
    2.6839    1.8695   -1.2026 H   0  0  0  0  0  0  0  0  0  0  0  0
    3.5642    1.0732    0.2070 H   0  0  0  0  0  0  0  0  0  0  0  0
    1.1215    1.0823    0.8035 H   0  0  0  0  0  0  0  0  0  0  0  0
    2.4665   -1.6541   -0.0845 H   0  0  0  0  0  0  0  0  0  0  0  0
    1.3882   -1.3240    1.3711 H   0  0  0  0  0  0  0  0  0  0  0  0
    0.7923   -0.8020   -1.7153 H   0  0  0  0  0  0  0  0  0  0  0  0
   -1.4207   -2.4262   -0.4662 H   0  0  0  0  0  0  0  0  0  0  0  0
   -0.2086   -0.1044    1.9345 H   0  0  0  0  0  0  0  0  0  0  0  0
   -1.8059   -1.0237    1.7440 H   0  0  0  0  0  0  0  0  0  0  0  0
   -0.8566    1.5919    0.1951 H   0  0  0  0  0  0  0  0  0  0  0  0
   -2.9404    1.5964   -0.9739 H   0  0  0  0  0  0  0  0  0  0  0  0
   -3.5468    1.2145    0.6550 H   0  0  0  0  0  0  0  0  0  0  0  0
   -3.2976   -0.1086   -0.5974 H   0  0  0  0  0  0  0  0  0  0  0  0
  1  2  1  0
  2  3  1  0
  3  4  1  0
  4  5  1  0
  5  6  1  0
  5  7  1  0
  7  8  1  0
  8  9  1  0
  4  2  1  0
  8  5  1  0
  1 10  1  0
  1 11  1  0
  1 12  1  0
  2 13  1  0
  3 14  1  0
  3 15  1  0
  4 16  1  0
  6 17  1  0
  7 18  1  0
  7 19  1  0
  8 20  1  0
  9 21  1  0
  9 22  1  0
  9 23  1  0
M  END
