
     RDKit          3D

 16 16  0  0  0  0  0  0  0  0999 V2000
   -1.8183    0.1659    0.2979 C   0  0  0  0  0  0  0  0  0  0  0  0
   -0.3832   -0.2120    0.3869 C   0  0  0  0  0  0  0  0  0  0  0  0
    0.5523    0.9911    0.1987 C   0  0  0  0  0  0  0  0  0  0  0  0
    1.8227    0.1912   -0.1228 C   0  0  0  0  0  0  0  0  0  0  0  0
    1.3441   -0.6580   -1.1170 O   0  0  0  0  0  0  0  0  0  0  0  0
    0.0957   -1.0839   -0.7459 C   0  0  0  0  0  0  0  0  0  0  0  0
   -2.1707    0.3803    1.3502 H   0  0  0  0  0  0  0  0  0  0  0  0
   -2.4505   -0.6667   -0.0517 H   0  0  0  0  0  0  0  0  0  0  0  0
   -2.0092    1.0892   -0.2661 H   0  0  0  0  0  0  0  0  0  0  0  0
   -0.1031   -0.6461    1.3744 H   0  0  0  0  0  0  0  0  0  0  0  0
    0.6513    1.5875    1.1004 H   0  0  0  0  0  0  0  0  0  0  0  0
    0.2304    1.5522   -0.7024 H   0  0  0  0  0  0  0  0  0  0  0  0
    2.6326    0.8266   -0.4501 H   0  0  0  0  0  0  0  0  0  0  0  0
    2.0182   -0.4219    0.7717 H   0  0  0  0  0  0  0  0  0  0  0  0
    0.1701   -2.1281   -0.4041 H   0  0  0  0  0  0  0  0  0  0  0  0
   -0.5824   -0.9671   -1.6201 H   0  0  0  0  0  0  0  0  0  0  0  0
  1  2  1  0
  2  3  1  0
  3  4  1  0
  4  5  1  0
  5  6  1  0
  6  2  1  0
  1  7  1  0
  1  8  1  0
  1  9  1  0
  2 10  1  0
  3 11  1  0
  3 12  1  0
  4 13  1  0
  4 14  1  0
  6 15  1  0
  6 16  1  0
M  END
