
     RDKit          3D

 22 22  0  0  0  0  0  0  0  0999 V2000
    2.6098    0.8945   -0.0455 C   0  0  0  0  0  0  0  0  0  0  0  0
    1.8354   -0.3532   -0.3612 C   0  0  0  0  0  0  0  0  0  0  0  0
    0.9623   -0.8695    0.7618 C   0  0  0  0  0  0  0  0  0  0  0  0
    0.0771    0.1992    0.2147 C   0  0  0  0  0  0  0  0  0  0  0  0
   -1.4080   -0.0747    0.2791 C   0  0  0  0  0  0  0  0  0  0  0  0
   -2.1622    1.0978   -0.3115 C   0  0  0  0  0  0  0  0  0  0  0  0
   -1.7128   -1.2839   -0.5699 C   0  0  0  0  0  0  0  0  0  0  0  0
    0.6508   -0.0086   -1.0363 O   0  0  0  0  0  0  0  0  0  0  0  0
    2.0465    1.8295   -0.3093 H   0  0  0  0  0  0  0  0  0  0  0  0
    3.5185    0.9153   -0.6830 H   0  0  0  0  0  0  0  0  0  0  0  0
    2.9417    0.9476    1.0080 H   0  0  0  0  0  0  0  0  0  0  0  0
    2.4206   -1.1547   -0.8253 H   0  0  0  0  0  0  0  0  0  0  0  0
    1.3747   -0.7037    1.7732 H   0  0  0  0  0  0  0  0  0  0  0  0
    0.6337   -1.8845    0.5461 H   0  0  0  0  0  0  0  0  0  0  0  0
    0.2934    1.1674    0.6914 H   0  0  0  0  0  0  0  0  0  0  0  0
   -1.6838   -0.2013    1.3325 H   0  0  0  0  0  0  0  0  0  0  0  0
   -3.1683    0.7511   -0.5580 H   0  0  0  0  0  0  0  0  0  0  0  0
   -1.6692    1.4054   -1.2654 H   0  0  0  0  0  0  0  0  0  0  0  0
   -2.1508    1.9789    0.3772 H   0  0  0  0  0  0  0  0  0  0  0  0
   -2.8377   -1.3468   -0.6257 H   0  0  0  0  0  0  0  0  0  0  0  0
   -1.2988   -2.1678   -0.0435 H   0  0  0  0  0  0  0  0  0  0  0  0
   -1.2728   -1.1380   -1.5665 H   0  0  0  0  0  0  0  0  0  0  0  0
  1  2  1  0
  2  3  1  0
  3  4  1  0
  4  5  1  0
  5  6  1  0
  5  7  1  0
  4  8  1  0
  8  2  1  0
  1  9  1  0
  1 10  1  0
  1 11  1  0
  2 12  1  0
  3 13  1  0
  3 14  1  0
  4 15  1  0
  5 16  1  0
  6 17  1  0
  6 18  1  0
  6 19  1  0
  7 20  1  0
  7 21  1  0
  7 22  1  0
M  END
