
     RDKit          3D

 21 22  0  0  0  0  0  0  0  0999 V2000
    1.4944    1.1492    0.4705 C   0  0  0  0  0  0  0  0  0  0  0  0
    1.1833   -0.0931   -0.2422 C   0  0  0  0  0  0  0  0  0  0  0  0
    0.8255   -1.1865    0.7677 C   0  0  0  0  0  0  0  0  0  0  0  0
   -0.4796   -1.2722    1.1112 O   0  0  0  0  0  0  0  0  0  0  0  0
   -1.3870   -1.2175    0.0288 C   0  0  0  0  0  0  0  0  0  0  0  0
   -1.1648    0.0963   -0.6053 C   0  0  0  0  0  0  0  0  0  0  0  0
   -1.4244    1.2455    0.2980 C   0  0  0  0  0  0  0  0  0  0  0  0
   -0.7886    0.5305   -1.7877 O   0  0  0  0  0  0  0  0  0  0  0  0
    0.1947   -0.1481   -1.2873 C   0  0  0  0  0  0  0  0  0  0  0  0
    1.5018    2.0686   -0.1379 H   0  0  0  0  0  0  0  0  0  0  0  0
    0.9043    1.2501    1.4213 H   0  0  0  0  0  0  0  0  0  0  0  0
    2.5559    1.0906    0.8702 H   0  0  0  0  0  0  0  0  0  0  0  0
    2.1707   -0.4665   -0.6762 H   0  0  0  0  0  0  0  0  0  0  0  0
    1.1761   -2.1708    0.4028 H   0  0  0  0  0  0  0  0  0  0  0  0
    1.4104   -0.9490    1.6788 H   0  0  0  0  0  0  0  0  0  0  0  0
   -1.1871   -2.0928   -0.5836 H   0  0  0  0  0  0  0  0  0  0  0  0
   -2.3981   -1.3438    0.4904 H   0  0  0  0  0  0  0  0  0  0  0  0
   -2.5091    1.5323    0.1016 H   0  0  0  0  0  0  0  0  0  0  0  0
   -1.4636    0.9567    1.3899 H   0  0  0  0  0  0  0  0  0  0  0  0
   -0.8727    2.1653    0.1060 H   0  0  0  0  0  0  0  0  0  0  0  0
    0.2580   -1.1447   -1.8462 H   0  0  0  0  0  0  0  0  0  0  0  0
  1  2  1  0
  2  3  1  0
  3  4  1  0
  4  5  1  0
  5  6  1  0
  6  7  1  0
  6  8  1  0
  8  9  1  0
  9  2  1  0
  9  6  1  0
  1 10  1  0
  1 11  1  0
  1 12  1  0
  2 13  1  0
  3 14  1  0
  3 15  1  0
  5 16  1  0
  5 17  1  0
  7 18  1  0
  7 19  1  0
  7 20  1  0
  9 21  1  0
M  END
