
     RDKit          3D

 21 22  0  0  0  0  0  0  0  0999 V2000
    0.3929    1.9343   -0.2973 C   0  0  0  0  0  0  0  0  0  0  0  0
    0.0589    0.9376    0.7824 C   0  0  0  0  0  0  0  0  0  0  0  0
   -0.8809   -0.1432    0.4252 C   0  0  0  0  0  0  0  0  0  0  0  0
   -1.5296   -0.2238   -0.9245 C   0  0  0  0  0  0  0  0  0  0  0  0
   -1.2158   -1.1521    1.4925 C   0  0  0  0  0  0  0  0  0  0  0  0
    0.1691   -1.2926    1.7374 O   0  0  0  0  0  0  0  0  0  0  0  0
    0.4996   -0.4724    0.6922 C   0  0  0  0  0  0  0  0  0  0  0  0
    1.4938   -0.9472   -0.2954 C   0  0  0  0  0  0  0  0  0  0  0  0
    1.7352   -0.0215   -1.2983 O   0  0  0  0  0  0  0  0  0  0  0  0
   -0.1438    2.8818   -0.0918 H   0  0  0  0  0  0  0  0  0  0  0  0
    1.5099    2.0667   -0.2641 H   0  0  0  0  0  0  0  0  0  0  0  0
    0.0571    1.6064   -1.3079 H   0  0  0  0  0  0  0  0  0  0  0  0
    0.0927    1.3774    1.8046 H   0  0  0  0  0  0  0  0  0  0  0  0
   -0.8141   -0.1813   -1.7665 H   0  0  0  0  0  0  0  0  0  0  0  0
   -2.2378    0.6460   -0.9952 H   0  0  0  0  0  0  0  0  0  0  0  0
   -2.1712   -1.1278   -0.9614 H   0  0  0  0  0  0  0  0  0  0  0  0
   -1.6807   -2.0538    1.0703 H   0  0  0  0  0  0  0  0  0  0  0  0
   -1.7505   -0.6841    2.3430 H   0  0  0  0  0  0  0  0  0  0  0  0
    1.2797   -1.9193   -0.7615 H   0  0  0  0  0  0  0  0  0  0  0  0
    2.4756   -1.0821    0.2461 H   0  0  0  0  0  0  0  0  0  0  0  0
    2.6601   -0.1492   -1.6299 H   0  0  0  0  0  0  0  0  0  0  0  0
  1  2  1  0
  2  3  1  0
  3  4  1  0
  3  5  1  0
  5  6  1  0
  6  7  1  0
  7  8  1  0
  8  9  1  0
  7  2  1  0
  7  3  1  0
  1 10  1  0
  1 11  1  0
  1 12  1  0
  2 13  1  0
  4 14  1  0
  4 15  1  0
  4 16  1  0
  5 17  1  0
  5 18  1  0
  8 19  1  0
  8 20  1  0
  9 21  1  0
M  END
