
     RDKit          3D

 23 23  0  0  0  0  0  0  0  0999 V2000
    2.4505    0.4534   -0.0657 C   0  0  0  0  0  0  0  0  0  0  0  0
    1.3461   -0.3377   -0.7486 C   0  0  0  0  0  0  0  0  0  0  0  0
    0.9957   -1.5901   -0.0040 C   0  0  0  0  0  0  0  0  0  0  0  0
   -0.2512   -2.0677   -0.2487 O   0  0  0  0  0  0  0  0  0  0  0  0
   -1.2550   -1.1557   -0.3441 C   0  0  0  0  0  0  0  0  0  0  0  0
   -0.8418    0.2747   -0.2935 C   0  0  0  0  0  0  0  0  0  0  0  0
   -0.8320    0.8455    1.1155 C   0  0  0  0  0  0  0  0  0  0  0  0
   -1.9286    1.1007   -1.0093 C   0  0  0  0  0  0  0  0  0  0  0  0
    0.3072    0.5050   -0.9875 O   0  0  0  0  0  0  0  0  0  0  0  0
    2.4316    1.4684   -0.5603 H   0  0  0  0  0  0  0  0  0  0  0  0
    2.2669    0.6201    0.9949 H   0  0  0  0  0  0  0  0  0  0  0  0
    3.4404    0.0298   -0.2055 H   0  0  0  0  0  0  0  0  0  0  0  0
    1.7734   -0.6402   -1.7500 H   0  0  0  0  0  0  0  0  0  0  0  0
    1.1706   -1.5001    1.1054 H   0  0  0  0  0  0  0  0  0  0  0  0
    1.7334   -2.3848   -0.3225 H   0  0  0  0  0  0  0  0  0  0  0  0
   -2.0309   -1.4088    0.4105 H   0  0  0  0  0  0  0  0  0  0  0  0
   -1.7655   -1.3173   -1.3391 H   0  0  0  0  0  0  0  0  0  0  0  0
   -1.8129    0.6377    1.5703 H   0  0  0  0  0  0  0  0  0  0  0  0
   -0.7353    1.9516    1.0064 H   0  0  0  0  0  0  0  0  0  0  0  0
   -0.0145    0.4914    1.7287 H   0  0  0  0  0  0  0  0  0  0  0  0
   -2.8238    1.1290   -0.3666 H   0  0  0  0  0  0  0  0  0  0  0  0
   -1.5194    2.1539   -0.9885 H   0  0  0  0  0  0  0  0  0  0  0  0
   -2.1049    0.7412   -2.0242 H   0  0  0  0  0  0  0  0  0  0  0  0
  1  2  1  0
  2  3  1  0
  3  4  1  0
  4  5  1  0
  5  6  1  0
  6  7  1  0
  6  8  1  0
  6  9  1  0
  9  2  1  0
  1 10  1  0
  1 11  1  0
  1 12  1  0
  2 13  1  0
  3 14  1  0
  3 15  1  0
  5 16  1  0
  5 17  1  0
  7 18  1  0
  7 19  1  0
  7 20  1  0
  8 21  1  0
  8 22  1  0
  8 23  1  0
M  END
