
     RDKit          3D

 21 22  0  0  0  0  0  0  0  0999 V2000
   -0.9601   -1.5833    0.1216 C   0  0  0  0  0  0  0  0  0  0  0  0
   -1.0942   -0.1610    0.4804 C   0  0  0  0  0  0  0  0  0  0  0  0
   -1.4477    0.7012   -0.7392 C   0  0  0  0  0  0  0  0  0  0  0  0
   -0.3289    1.7400   -0.6431 C   0  0  0  0  0  0  0  0  0  0  0  0
    0.8343    1.0889   -1.0380 O   0  0  0  0  0  0  0  0  0  0  0  0
    1.3108    0.4766    0.1057 C   0  0  0  0  0  0  0  0  0  0  0  0
    1.9632   -0.8238   -0.0808 C   0  0  0  0  0  0  0  0  0  0  0  0
    0.1263    0.5100    1.0179 C   0  0  0  0  0  0  0  0  0  0  0  0
   -0.2425    1.8646    0.7657 O   0  0  0  0  0  0  0  0  0  0  0  0
   -0.1841   -2.1535    0.6375 H   0  0  0  0  0  0  0  0  0  0  0  0
   -0.8523   -1.6514   -0.9994 H   0  0  0  0  0  0  0  0  0  0  0  0
   -1.9339   -2.0973    0.3810 H   0  0  0  0  0  0  0  0  0  0  0  0
   -1.9081   -0.0094    1.2306 H   0  0  0  0  0  0  0  0  0  0  0  0
   -2.3932    1.2290   -0.6088 H   0  0  0  0  0  0  0  0  0  0  0  0
   -1.3745    0.1269   -1.6749 H   0  0  0  0  0  0  0  0  0  0  0  0
   -0.5436    2.6630   -1.1471 H   0  0  0  0  0  0  0  0  0  0  0  0
    2.0682    1.1919    0.5437 H   0  0  0  0  0  0  0  0  0  0  0  0
    2.0592   -1.3430    0.8853 H   0  0  0  0  0  0  0  0  0  0  0  0
    1.5367   -1.4682   -0.8877 H   0  0  0  0  0  0  0  0  0  0  0  0
    3.0272   -0.6387   -0.4182 H   0  0  0  0  0  0  0  0  0  0  0  0
    0.3373    0.3374    2.0679 H   0  0  0  0  0  0  0  0  0  0  0  0
  1  2  1  0
  2  3  1  0
  3  4  1  0
  4  5  1  0
  5  6  1  0
  6  7  1  0
  6  8  1  0
  8  9  1  0
  8  2  1  0
  9  4  1  0
  1 10  1  0
  1 11  1  0
  1 12  1  0
  2 13  1  0
  3 14  1  0
  3 15  1  0
  4 16  1  0
  6 17  1  0
  7 18  1  0
  7 19  1  0
  7 20  1  0
  8 21  1  0
M  END
