
     RDKit          3D

 23 24  0  0  0  0  0  0  0  0999 V2000
    2.4084   -0.6550   -0.2304 C   0  0  0  0  0  0  0  0  0  0  0  0
    0.9769   -0.6365    0.1308 C   0  0  0  0  0  0  0  0  0  0  0  0
   -0.0238   -0.5256   -0.9873 C   0  0  0  0  0  0  0  0  0  0  0  0
    0.4412    0.8930   -1.1583 C   0  0  0  0  0  0  0  0  0  0  0  0
    0.3408    0.7321    0.3229 C   0  0  0  0  0  0  0  0  0  0  0  0
    0.5825    1.5506    1.2346 O   0  0  0  0  0  0  0  0  0  0  0  0
   -0.9564   -0.0024    0.0602 C   0  0  0  0  0  0  0  0  0  0  0  0
   -1.3598   -0.9864    1.1334 C   0  0  0  0  0  0  0  0  0  0  0  0
   -2.1065    0.8177   -0.3870 C   0  0  0  0  0  0  0  0  0  0  0  0
    2.8842    0.3282   -0.3688 H   0  0  0  0  0  0  0  0  0  0  0  0
    2.6062   -1.3511   -1.0893 H   0  0  0  0  0  0  0  0  0  0  0  0
    2.9767   -1.1225    0.6283 H   0  0  0  0  0  0  0  0  0  0  0  0
    0.7097   -1.3803    0.9205 H   0  0  0  0  0  0  0  0  0  0  0  0
   -0.2115   -1.1983   -1.7034 H   0  0  0  0  0  0  0  0  0  0  0  0
    1.4214    1.0398   -1.5997 H   0  0  0  0  0  0  0  0  0  0  0  0
   -0.2817    1.6125   -1.5519 H   0  0  0  0  0  0  0  0  0  0  0  0
    1.4675    1.4599    1.7035 H   0  0  0  0  0  0  0  0  0  0  0  0
   -2.4586   -0.8881    1.3764 H   0  0  0  0  0  0  0  0  0  0  0  0
   -0.8410   -0.7514    2.0880 H   0  0  0  0  0  0  0  0  0  0  0  0
   -1.2199   -2.0424    0.8159 H   0  0  0  0  0  0  0  0  0  0  0  0
   -2.0676    1.7974    0.1710 H   0  0  0  0  0  0  0  0  0  0  0  0
   -2.2104    0.9517   -1.4678 H   0  0  0  0  0  0  0  0  0  0  0  0
   -3.0781    0.3571   -0.0416 H   0  0  0  0  0  0  0  0  0  0  0  0
  1  2  1  0
  2  3  1  0
  3  4  1  0
  4  5  1  0
  5  6  1  0
  5  7  1  0
  7  8  1  0
  7  9  1  0
  5  2  1  0
  7  3  1  0
  1 10  1  0
  1 11  1  0
  1 12  1  0
  2 13  1  0
  3 14  1  0
  4 15  1  0
  4 16  1  0
  6 17  1  0
  8 18  1  0
  8 19  1  0
  8 20  1  0
  9 21  1  0
  9 22  1  0
  9 23  1  0
M  END
