
     RDKit          3D

 21 21  0  0  0  0  0  0  0  0999 V2000
   -1.8358   -0.1956    0.7259 C   0  0  0  0  0  0  0  0  0  0  0  0
   -1.1641   -0.2504   -0.6375 C   0  0  0  0  0  0  0  0  0  0  0  0
   -0.1954   -1.3768   -0.7169 C   0  0  0  0  0  0  0  0  0  0  0  0
    0.9714   -1.5645   -0.1286 C   0  0  0  0  0  0  0  0  0  0  0  0
    1.6859   -0.6632    0.8260 C   0  0  0  0  0  0  0  0  0  0  0  0
    1.6047    0.7033    0.2627 C   0  0  0  0  0  0  0  0  0  0  0  0
    2.6682    1.1559   -0.0927 O   0  0  0  0  0  0  0  0  0  0  0  0
    0.4311    1.5508    0.0872 C   0  0  0  0  0  0  0  0  0  0  0  0
   -0.5186    1.0608   -0.9770 C   0  0  0  0  0  0  0  0  0  0  0  0
   -2.2996   -1.1727    0.9383 H   0  0  0  0  0  0  0  0  0  0  0  0
   -1.1227    0.0150    1.5256 H   0  0  0  0  0  0  0  0  0  0  0  0
   -2.6417    0.5533    0.6556 H   0  0  0  0  0  0  0  0  0  0  0  0
   -1.9871   -0.4074   -1.3725 H   0  0  0  0  0  0  0  0  0  0  0  0
   -0.4740   -2.2007   -1.3655 H   0  0  0  0  0  0  0  0  0  0  0  0
    1.5169   -2.4858   -0.3412 H   0  0  0  0  0  0  0  0  0  0  0  0
    2.7208   -0.9904    0.9869 H   0  0  0  0  0  0  0  0  0  0  0  0
    1.1642   -0.7371    1.8075 H   0  0  0  0  0  0  0  0  0  0  0  0
    0.7682    2.5593   -0.2296 H   0  0  0  0  0  0  0  0  0  0  0  0
   -0.0740    1.7024    1.0644 H   0  0  0  0  0  0  0  0  0  0  0  0
    0.0773    0.9121   -1.9014 H   0  0  0  0  0  0  0  0  0  0  0  0
   -1.2957    1.8316   -1.1171 H   0  0  0  0  0  0  0  0  0  0  0  0
  1  2  1  0
  2  3  1  0
  3  4  2  0
  4  5  1  0
  5  6  1  0
  6  7  2  0
  6  8  1  0
  8  9  1  0
  9  2  1  0
  1 10  1  0
  1 11  1  0
  1 12  1  0
  2 13  1  0
  3 14  1  0
  4 15  1  0
  5 16  1  0
  5 17  1  0
  8 18  1  0
  8 19  1  0
  9 20  1  0
  9 21  1  0
M  END
