
     RDKit          3D

 20 22  0  0  0  0  0  0  0  0999 V2000
    2.1854    0.4635    0.0210 C   0  0  0  0  0  0  0  0  0  0  0  0
    1.0438   -0.4796   -0.0995 C   0  0  0  0  0  0  0  0  0  0  0  0
    0.2237   -0.5971    1.1417 C   0  0  0  0  0  0  0  0  0  0  0  0
   -1.2228   -0.4903    0.7116 C   0  0  0  0  0  0  0  0  0  0  0  0
   -1.5340    0.9722    0.3987 C   0  0  0  0  0  0  0  0  0  0  0  0
   -1.0928    0.6948   -1.0183 C   0  0  0  0  0  0  0  0  0  0  0  0
    0.0876   -0.1711   -1.2079 C   0  0  0  0  0  0  0  0  0  0  0  0
   -1.1787   -0.7478   -0.7447 C   0  0  0  0  0  0  0  0  0  0  0  0
    1.9554    1.3801    0.5993 H   0  0  0  0  0  0  0  0  0  0  0  0
    2.9892   -0.0602    0.6166 H   0  0  0  0  0  0  0  0  0  0  0  0
    2.6303    0.7048   -0.9408 H   0  0  0  0  0  0  0  0  0  0  0  0
    1.4634   -1.5042   -0.3120 H   0  0  0  0  0  0  0  0  0  0  0  0
    0.4185    0.2022    1.8830 H   0  0  0  0  0  0  0  0  0  0  0  0
    0.3398   -1.5701    1.6449 H   0  0  0  0  0  0  0  0  0  0  0  0
   -1.9570   -1.0103    1.3188 H   0  0  0  0  0  0  0  0  0  0  0  0
   -2.6068    1.2250    0.4555 H   0  0  0  0  0  0  0  0  0  0  0  0
   -0.8337    1.6891    0.8675 H   0  0  0  0  0  0  0  0  0  0  0  0
   -1.5529    1.1994   -1.8590 H   0  0  0  0  0  0  0  0  0  0  0  0
    0.4304   -0.4439   -2.2075 H   0  0  0  0  0  0  0  0  0  0  0  0
   -1.7888   -1.4567   -1.2688 H   0  0  0  0  0  0  0  0  0  0  0  0
  1  2  1  0
  2  3  1  0
  3  4  1  0
  4  5  1  0
  5  6  1  0
  6  7  1  0
  7  8  1  0
  7  2  1  0
  8  4  1  0
  8  6  1  0
  1  9  1  0
  1 10  1  0
  1 11  1  0
  2 12  1  0
  3 13  1  0
  3 14  1  0
  4 15  1  0
  5 16  1  0
  5 17  1  0
  6 18  1  0
  7 19  1  0
  8 20  1  0
M  END
