
     RDKit          3D

 21 21  0  0  0  0  0  0  0  0999 V2000
   -2.5726    0.5559    0.2624 C   0  0  0  0  0  0  0  0  0  0  0  0
   -1.1217    0.7751   -0.0285 C   0  0  0  0  0  0  0  0  0  0  0  0
   -0.1661    0.0707    0.9429 C   0  0  0  0  0  0  0  0  0  0  0  0
    0.6685   -0.2805   -0.2628 C   0  0  0  0  0  0  0  0  0  0  0  0
    1.2352   -1.6538   -0.3072 C   0  0  0  0  0  0  0  0  0  0  0  0
    1.5774    0.7072   -0.6279 O   0  0  0  0  0  0  0  0  0  0  0  0
    2.5490    1.0994    0.2787 C   0  0  0  0  0  0  0  0  0  0  0  0
    2.5675    0.5400    1.4034 O   0  0  0  0  0  0  0  0  0  0  0  0
   -0.6050   -0.2024   -1.0935 C   0  0  0  0  0  0  0  0  0  0  0  0
   -2.9103   -0.4120   -0.1149 H   0  0  0  0  0  0  0  0  0  0  0  0
   -2.7097    0.6102    1.3616 H   0  0  0  0  0  0  0  0  0  0  0  0
   -3.1346    1.3899   -0.2460 H   0  0  0  0  0  0  0  0  0  0  0  0
   -0.8079    1.7880   -0.3059 H   0  0  0  0  0  0  0  0  0  0  0  0
    0.2576    0.8402    1.6163 H   0  0  0  0  0  0  0  0  0  0  0  0
   -0.6834   -0.7606    1.4309 H   0  0  0  0  0  0  0  0  0  0  0  0
    1.5361   -1.8609   -1.3754 H   0  0  0  0  0  0  0  0  0  0  0  0
    0.5099   -2.4366   -0.0466 H   0  0  0  0  0  0  0  0  0  0  0  0
    2.1700   -1.7195    0.2818 H   0  0  0  0  0  0  0  0  0  0  0  0
    3.2542    1.8682   -0.0095 H   0  0  0  0  0  0  0  0  0  0  0  0
   -0.4211    0.2355   -2.0722 H   0  0  0  0  0  0  0  0  0  0  0  0
   -1.1930   -1.1539   -1.0874 H   0  0  0  0  0  0  0  0  0  0  0  0
  1  2  1  0
  2  3  1  0
  3  4  1  0
  4  5  1  0
  4  6  1  0
  6  7  1  0
  7  8  2  0
  4  9  1  0
  9  2  1  0
  1 10  1  0
  1 11  1  0
  1 12  1  0
  2 13  1  0
  3 14  1  0
  3 15  1  0
  5 16  1  0
  5 17  1  0
  5 18  1  0
  7 19  1  0
  9 20  1  0
  9 21  1  0
M  END
