
     RDKit          3D

 25 26  0  0  0  0  0  0  0  0999 V2000
    2.5154    0.0545    1.1641 C   0  0  0  0  0  0  0  0  0  0  0  0
    1.4367   -0.6336    0.3319 C   0  0  0  0  0  0  0  0  0  0  0  0
    1.2675   -0.0427   -1.0438 C   0  0  0  0  0  0  0  0  0  0  0  0
   -0.0875    0.4391   -0.6377 C   0  0  0  0  0  0  0  0  0  0  0  0
   -0.3269    1.9249   -0.7074 C   0  0  0  0  0  0  0  0  0  0  0  0
    0.0888   -0.1187    0.7213 C   0  0  0  0  0  0  0  0  0  0  0  0
   -1.1169   -0.4493   -0.0914 C   0  0  0  0  0  0  0  0  0  0  0  0
   -1.2419   -1.8942   -0.4799 C   0  0  0  0  0  0  0  0  0  0  0  0
   -2.4075    0.2071    0.3380 C   0  0  0  0  0  0  0  0  0  0  0  0
    2.2003    0.0930    2.2308 H   0  0  0  0  0  0  0  0  0  0  0  0
    3.4437   -0.5379    1.0134 H   0  0  0  0  0  0  0  0  0  0  0  0
    2.6624    1.0974    0.8286 H   0  0  0  0  0  0  0  0  0  0  0  0
    1.5284   -1.7223    0.2675 H   0  0  0  0  0  0  0  0  0  0  0  0
    1.9556    0.7793   -1.2968 H   0  0  0  0  0  0  0  0  0  0  0  0
    1.2154   -0.7665   -1.8796 H   0  0  0  0  0  0  0  0  0  0  0  0
   -1.1741    2.0866   -1.3978 H   0  0  0  0  0  0  0  0  0  0  0  0
    0.5606    2.4483   -1.1137 H   0  0  0  0  0  0  0  0  0  0  0  0
   -0.5149    2.3435    0.3136 H   0  0  0  0  0  0  0  0  0  0  0  0
   -0.0657    0.4475    1.6375 H   0  0  0  0  0  0  0  0  0  0  0  0
   -0.2485   -2.3225   -0.7452 H   0  0  0  0  0  0  0  0  0  0  0  0
   -2.0120   -2.0769   -1.2320 H   0  0  0  0  0  0  0  0  0  0  0  0
   -1.5583   -2.4462    0.4497 H   0  0  0  0  0  0  0  0  0  0  0  0
   -2.4808    0.0459    1.4486 H   0  0  0  0  0  0  0  0  0  0  0  0
   -2.3965    1.2935    0.0930 H   0  0  0  0  0  0  0  0  0  0  0  0
   -3.2430   -0.2500   -0.2128 H   0  0  0  0  0  0  0  0  0  0  0  0
  1  2  1  0
  2  3  1  0
  3  4  1  0
  4  5  1  0
  4  6  1  0
  6  7  1  0
  7  8  1  0
  7  9  1  0
  6  2  1  0
  7  4  1  0
  1 10  1  0
  1 11  1  0
  1 12  1  0
  2 13  1  0
  3 14  1  0
  3 15  1  0
  5 16  1  0
  5 17  1  0
  5 18  1  0
  6 19  1  0
  8 20  1  0
  8 21  1  0
  8 22  1  0
  9 23  1  0
  9 24  1  0
  9 25  1  0
M  END
