
     RDKit          3D

 17 18  0  0  0  0  0  0  0  0999 V2000
    1.9810    0.1781    0.5559 C   0  0  0  0  0  0  0  0  0  0  0  0
    1.0894    0.2408   -0.6555 C   0  0  0  0  0  0  0  0  0  0  0  0
    0.6403   -1.0219   -1.3110 C   0  0  0  0  0  0  0  0  0  0  0  0
   -0.3157   -0.1348   -0.6397 C   0  0  0  0  0  0  0  0  0  0  0  0
   -1.2408    0.6136   -1.3544 O   0  0  0  0  0  0  0  0  0  0  0  0
   -2.2698    0.9504   -0.5149 C   0  0  0  0  0  0  0  0  0  0  0  0
   -2.1521    0.1572    0.6644 O   0  0  0  0  0  0  0  0  0  0  0  0
   -1.0193   -0.6388    0.5529 C   0  0  0  0  0  0  0  0  0  0  0  0
   -0.7365   -1.5681    1.3472 O   0  0  0  0  0  0  0  0  0  0  0  0
    3.0330    0.0975    0.1871 H   0  0  0  0  0  0  0  0  0  0  0  0
    1.8547    1.1073    1.1270 H   0  0  0  0  0  0  0  0  0  0  0  0
    1.7519   -0.6669    1.2225 H   0  0  0  0  0  0  0  0  0  0  0  0
    1.3822    1.0503   -1.3629 H   0  0  0  0  0  0  0  0  0  0  0  0
    0.9276   -1.9729   -0.8135 H   0  0  0  0  0  0  0  0  0  0  0  0
    0.5648   -1.1008   -2.4087 H   0  0  0  0  0  0  0  0  0  0  0  0
   -3.2278    0.6724   -1.0470 H   0  0  0  0  0  0  0  0  0  0  0  0
   -2.2629    2.0365   -0.2585 H   0  0  0  0  0  0  0  0  0  0  0  0
  1  2  1  0
  2  3  1  0
  3  4  1  0
  4  5  1  0
  5  6  1  0
  6  7  1  0
  7  8  1  0
  8  9  2  0
  4  2  1  0
  8  4  1  0
  1 10  1  0
  1 11  1  0
  1 12  1  0
  2 13  1  0
  3 14  1  0
  3 15  1  0
  6 16  1  0
  6 17  1  0
M  END
