
     RDKit          3D

 21 21  0  0  0  0  0  0  0  0999 V2000
    2.4803   -0.1300    0.0671 C   0  0  0  0  0  0  0  0  0  0  0  0
    1.0193   -0.1068   -0.4045 C   0  0  0  0  0  0  0  0  0  0  0  0
    0.6110    1.3499   -0.4191 C   0  0  0  0  0  0  0  0  0  0  0  0
   -0.7102    1.5487   -0.7293 O   0  0  0  0  0  0  0  0  0  0  0  0
   -1.5957    1.0008    0.1672 C   0  0  0  0  0  0  0  0  0  0  0  0
   -1.9561   -0.3893   -0.3303 C   0  0  0  0  0  0  0  0  0  0  0  0
   -1.1361   -1.4528    0.3429 C   0  0  0  0  0  0  0  0  0  0  0  0
    0.2320   -0.9068    0.5677 C   0  0  0  0  0  0  0  0  0  0  0  0
    0.7628   -1.1368    1.6564 O   0  0  0  0  0  0  0  0  0  0  0  0
    3.0727    0.5219   -0.6304 H   0  0  0  0  0  0  0  0  0  0  0  0
    2.8702   -1.1431    0.1440 H   0  0  0  0  0  0  0  0  0  0  0  0
    2.4652    0.4158    1.0490 H   0  0  0  0  0  0  0  0  0  0  0  0
    0.9880   -0.5729   -1.4008 H   0  0  0  0  0  0  0  0  0  0  0  0
    1.2197    1.8353   -1.2158 H   0  0  0  0  0  0  0  0  0  0  0  0
    0.8335    1.7805    0.5701 H   0  0  0  0  0  0  0  0  0  0  0  0
   -2.5440    1.5985    0.0997 H   0  0  0  0  0  0  0  0  0  0  0  0
   -1.2142    0.9924    1.2029 H   0  0  0  0  0  0  0  0  0  0  0  0
   -3.0228   -0.6180   -0.2101 H   0  0  0  0  0  0  0  0  0  0  0  0
   -1.7548   -0.4532   -1.4370 H   0  0  0  0  0  0  0  0  0  0  0  0
   -1.0258   -2.3028   -0.3681 H   0  0  0  0  0  0  0  0  0  0  0  0
   -1.5949   -1.8315    1.2784 H   0  0  0  0  0  0  0  0  0  0  0  0
  1  2  1  0
  2  3  1  0
  3  4  1  0
  4  5  1  0
  5  6  1  0
  6  7  1  0
  7  8  1  0
  8  9  2  0
  8  2  1  0
  1 10  1  0
  1 11  1  0
  1 12  1  0
  2 13  1  0
  3 14  1  0
  3 15  1  0
  5 16  1  0
  5 17  1  0
  6 18  1  0
  6 19  1  0
  7 20  1  0
  7 21  1  0
M  END
