
     RDKit          3D

 23 25  0  0  0  0  0  0  0  0999 V2000
    1.8238    1.0157    0.5346 C   0  0  0  0  0  0  0  0  0  0  0  0
    1.7663   -0.3194   -0.1529 C   0  0  0  0  0  0  0  0  0  0  0  0
    0.8617   -0.5011   -1.3454 C   0  0  0  0  0  0  0  0  0  0  0  0
   -0.3238    0.3968   -1.4730 C   0  0  0  0  0  0  0  0  0  0  0  0
   -1.3844   -0.1361   -0.5868 C   0  0  0  0  0  0  0  0  0  0  0  0
   -1.8458    0.6942    0.5618 C   0  0  0  0  0  0  0  0  0  0  0  0
   -1.0055   -0.1441    1.5156 C   0  0  0  0  0  0  0  0  0  0  0  0
   -0.6880   -1.0490    0.3812 C   0  0  0  0  0  0  0  0  0  0  0  0
    0.6913   -1.2797   -0.0341 C   0  0  0  0  0  0  0  0  0  0  0  0
    0.9594    1.6567    0.3766 H   0  0  0  0  0  0  0  0  0  0  0  0
    2.7022    1.5914    0.1137 H   0  0  0  0  0  0  0  0  0  0  0  0
    2.1014    0.8926    1.6226 H   0  0  0  0  0  0  0  0  0  0  0  0
    2.8010   -0.7243   -0.3550 H   0  0  0  0  0  0  0  0  0  0  0  0
    1.1738   -1.1213   -2.1966 H   0  0  0  0  0  0  0  0  0  0  0  0
   -0.1019    1.4725   -1.3534 H   0  0  0  0  0  0  0  0  0  0  0  0
   -0.6939    0.2972   -2.5364 H   0  0  0  0  0  0  0  0  0  0  0  0
   -2.2790   -0.5779   -1.1108 H   0  0  0  0  0  0  0  0  0  0  0  0
   -1.4308    1.7216    0.5288 H   0  0  0  0  0  0  0  0  0  0  0  0
   -2.9358    0.6861    0.7657 H   0  0  0  0  0  0  0  0  0  0  0  0
   -0.2016    0.3697    2.0300 H   0  0  0  0  0  0  0  0  0  0  0  0
   -1.6976   -0.5779    2.2971 H   0  0  0  0  0  0  0  0  0  0  0  0
   -1.2948   -1.9914    0.4749 H   0  0  0  0  0  0  0  0  0  0  0  0
    1.0020   -2.3722   -0.0584 H   0  0  0  0  0  0  0  0  0  0  0  0
  1  2  1  0
  2  3  1  0
  3  4  1  0
  4  5  1  0
  5  6  1  0
  6  7  1  0
  7  8  1  0
  8  9  1  0
  9  2  1  0
  9  3  1  0
  8  5  1  0
  1 10  1  0
  1 11  1  0
  1 12  1  0
  2 13  1  0
  3 14  1  0
  4 15  1  0
  4 16  1  0
  5 17  1  0
  6 18  1  0
  6 19  1  0
  7 20  1  0
  7 21  1  0
  8 22  1  0
  9 23  1  0
M  END
