
     RDKit          3D

 19 20  0  0  0  0  0  0  0  0999 V2000
    2.7541    0.5480    0.4887 C   0  0  0  0  0  0  0  0  0  0  0  0
    1.5387    0.0232   -0.2161 C   0  0  0  0  0  0  0  0  0  0  0  0
    0.2749    0.5871    0.2528 C   0  0  0  0  0  0  0  0  0  0  0  0
   -0.6556   -0.3481    0.1052 C   0  0  0  0  0  0  0  0  0  0  0  0
   -2.0880   -0.3047    0.4190 C   0  0  0  0  0  0  0  0  0  0  0  0
   -2.7730    0.8296    0.9705 C   0  0  0  0  0  0  0  0  0  0  0  0
   -2.8244    0.5656   -0.5123 O   0  0  0  0  0  0  0  0  0  0  0  0
    0.0849   -1.5282   -0.4748 C   0  0  0  0  0  0  0  0  0  0  0  0
    1.3935   -1.3403    0.0301 O   0  0  0  0  0  0  0  0  0  0  0  0
    3.1141    1.4620   -0.0252 H   0  0  0  0  0  0  0  0  0  0  0  0
    3.5686   -0.2161    0.3279 H   0  0  0  0  0  0  0  0  0  0  0  0
    2.6290    0.6845    1.5683 H   0  0  0  0  0  0  0  0  0  0  0  0
    1.6992    0.1418   -1.3065 H   0  0  0  0  0  0  0  0  0  0  0  0
    0.1103    1.5949    0.6547 H   0  0  0  0  0  0  0  0  0  0  0  0
   -2.5846   -1.3067    0.5122 H   0  0  0  0  0  0  0  0  0  0  0  0
   -2.2885    1.8049    1.1377 H   0  0  0  0  0  0  0  0  0  0  0  0
   -3.7894    0.7193    1.3429 H   0  0  0  0  0  0  0  0  0  0  0  0
    0.1830   -1.4347   -1.5761 H   0  0  0  0  0  0  0  0  0  0  0  0
   -0.3465   -2.4822   -0.1449 H   0  0  0  0  0  0  0  0  0  0  0  0
  1  2  1  0
  2  3  1  0
  3  4  2  0
  4  5  1  0
  5  6  1  0
  6  7  1  0
  4  8  1  0
  8  9  1  0
  9  2  1  0
  7  5  1  0
  1 10  1  0
  1 11  1  0
  1 12  1  0
  2 13  1  0
  3 14  1  0
  5 15  1  0
  6 16  1  0
  6 17  1  0
  8 18  1  0
  8 19  1  0
M  END
