
     RDKit          3D

 21 22  0  0  0  0  0  0  0  0999 V2000
    2.3695   -0.0609    0.1223 C   0  0  0  0  0  0  0  0  0  0  0  0
    0.9291    0.1703    0.4278 C   0  0  0  0  0  0  0  0  0  0  0  0
    0.0756    0.5624   -0.7894 C   0  0  0  0  0  0  0  0  0  0  0  0
    0.0671   -0.9331   -1.0863 C   0  0  0  0  0  0  0  0  0  0  0  0
    0.0420   -1.0374    0.4453 C   0  0  0  0  0  0  0  0  0  0  0  0
   -1.3089   -0.4472    0.7498 C   0  0  0  0  0  0  0  0  0  0  0  0
   -1.4955   -0.1300    2.0722 O   0  0  0  0  0  0  0  0  0  0  0  0
   -1.2340    0.8154   -0.1353 C   0  0  0  0  0  0  0  0  0  0  0  0
   -2.3064    0.9199   -0.9741 O   0  0  0  0  0  0  0  0  0  0  0  0
    2.5971   -0.1673   -0.9488 H   0  0  0  0  0  0  0  0  0  0  0  0
    2.7651   -0.9110    0.7383 H   0  0  0  0  0  0  0  0  0  0  0  0
    2.9375    0.8410    0.4924 H   0  0  0  0  0  0  0  0  0  0  0  0
    0.7074    0.8667    1.2439 H   0  0  0  0  0  0  0  0  0  0  0  0
    0.4965    1.2224   -1.4955 H   0  0  0  0  0  0  0  0  0  0  0  0
    0.9945   -1.3095   -1.5417 H   0  0  0  0  0  0  0  0  0  0  0  0
   -0.8831   -1.2908   -1.4841 H   0  0  0  0  0  0  0  0  0  0  0  0
    0.3526   -1.9415    0.8886 H   0  0  0  0  0  0  0  0  0  0  0  0
   -2.1067   -1.0894    0.3181 H   0  0  0  0  0  0  0  0  0  0  0  0
   -1.8803    0.7561    2.1800 H   0  0  0  0  0  0  0  0  0  0  0  0
   -1.1040    1.7049    0.5452 H   0  0  0  0  0  0  0  0  0  0  0  0
   -2.0152    1.4590   -1.7686 H   0  0  0  0  0  0  0  0  0  0  0  0
  1  2  1  0
  2  3  1  0
  3  4  1  0
  4  5  1  0
  5  6  1  0
  6  7  1  0
  6  8  1  0
  8  9  1  0
  5  2  1  0
  8  3  1  0
  1 10  1  0
  1 11  1  0
  1 12  1  0
  2 13  1  0
  3 14  1  0
  4 15  1  0
  4 16  1  0
  5 17  1  0
  6 18  1  0
  7 19  1  0
  8 20  1  0
  9 21  1  0
M  END
