
     RDKit          3D

 20 21  0  0  0  0  0  0  0  0999 V2000
    2.5104    0.1356    0.0688 C   0  0  0  0  0  0  0  0  0  0  0  0
    1.1626    0.3572   -0.5250 C   0  0  0  0  0  0  0  0  0  0  0  0
    0.1398    1.0143    0.4041 C   0  0  0  0  0  0  0  0  0  0  0  0
   -0.7877   -0.0616    0.0725 C   0  0  0  0  0  0  0  0  0  0  0  0
   -1.9590    0.1448   -0.7742 C   0  0  0  0  0  0  0  0  0  0  0  0
   -2.5966   -0.9117   -0.0813 O   0  0  0  0  0  0  0  0  0  0  0  0
   -1.7775   -0.5610    1.0186 C   0  0  0  0  0  0  0  0  0  0  0  0
    0.3232   -0.9226   -0.3892 C   0  0  0  0  0  0  0  0  0  0  0  0
    3.1443    1.0120   -0.1384 H   0  0  0  0  0  0  0  0  0  0  0  0
    2.4936   -0.1742    1.1265 H   0  0  0  0  0  0  0  0  0  0  0  0
    2.9737   -0.7342   -0.4847 H   0  0  0  0  0  0  0  0  0  0  0  0
    1.2159    0.7693   -1.5289 H   0  0  0  0  0  0  0  0  0  0  0  0
   -0.1458    2.0395    0.0969 H   0  0  0  0  0  0  0  0  0  0  0  0
    0.4539    1.0403    1.4723 H   0  0  0  0  0  0  0  0  0  0  0  0
   -2.5049    1.0912   -0.6929 H   0  0  0  0  0  0  0  0  0  0  0  0
   -1.7607   -0.1348   -1.8459 H   0  0  0  0  0  0  0  0  0  0  0  0
   -1.5065   -1.4018    1.6705 H   0  0  0  0  0  0  0  0  0  0  0  0
   -2.3084    0.2832    1.5484 H   0  0  0  0  0  0  0  0  0  0  0  0
    0.7194   -1.6183    0.3736 H   0  0  0  0  0  0  0  0  0  0  0  0
    0.2101   -1.3672   -1.3917 H   0  0  0  0  0  0  0  0  0  0  0  0
  1  2  1  0
  2  3  1  0
  3  4  1  0
  4  5  1  0
  5  6  1  0
  6  7  1  0
  4  8  1  0
  8  2  1  0
  7  4  1  0
  1  9  1  0
  1 10  1  0
  1 11  1  0
  2 12  1  0
  3 13  1  0
  3 14  1  0
  5 15  1  0
  5 16  1  0
  7 17  1  0
  7 18  1  0
  8 19  1  0
  8 20  1  0
M  END
