
     RDKit          3D

 21 22  0  0  0  0  0  0  0  0999 V2000
    1.5946   -0.2560   -1.0096 C   0  0  0  0  0  0  0  0  0  0  0  0
    1.0991    0.0281    0.3401 C   0  0  0  0  0  0  0  0  0  0  0  0
    0.4471   -1.0666    1.1206 C   0  0  0  0  0  0  0  0  0  0  0  0
   -0.5490   -1.6337    0.1339 C   0  0  0  0  0  0  0  0  0  0  0  0
   -1.2481   -0.2968   -0.1838 C   0  0  0  0  0  0  0  0  0  0  0  0
   -1.4103   -0.0769   -1.5085 O   0  0  0  0  0  0  0  0  0  0  0  0
   -0.2719    0.6012    0.5191 C   0  0  0  0  0  0  0  0  0  0  0  0
   -0.4650    2.0431    0.4826 C   0  0  0  0  0  0  0  0  0  0  0  0
   -0.2375   -0.0222    1.7921 O   0  0  0  0  0  0  0  0  0  0  0  0
    0.8972   -0.1781   -1.8396 H   0  0  0  0  0  0  0  0  0  0  0  0
    2.0765   -1.2632   -1.0650 H   0  0  0  0  0  0  0  0  0  0  0  0
    2.4361    0.4613   -1.2441 H   0  0  0  0  0  0  0  0  0  0  0  0
    1.8202    0.6216    0.9639 H   0  0  0  0  0  0  0  0  0  0  0  0
    1.0285   -1.7311    1.7143 H   0  0  0  0  0  0  0  0  0  0  0  0
   -1.2349   -2.3574    0.5728 H   0  0  0  0  0  0  0  0  0  0  0  0
    0.0047   -1.9738   -0.7422 H   0  0  0  0  0  0  0  0  0  0  0  0
   -2.2176   -0.3391    0.3622 H   0  0  0  0  0  0  0  0  0  0  0  0
   -2.3769    0.0728   -1.7316 H   0  0  0  0  0  0  0  0  0  0  0  0
   -0.1428    2.5376    1.4407 H   0  0  0  0  0  0  0  0  0  0  0  0
   -1.4767    2.3385    0.1738 H   0  0  0  0  0  0  0  0  0  0  0  0
    0.2267    2.4908   -0.2917 H   0  0  0  0  0  0  0  0  0  0  0  0
  1  2  1  0
  2  3  1  0
  3  4  1  0
  4  5  1  0
  5  6  1  0
  5  7  1  0
  7  8  1  0
  7  9  1  0
  7  2  1  0
  9  3  1  0
  1 10  1  0
  1 11  1  0
  1 12  1  0
  2 13  1  0
  3 14  1  0
  4 15  1  0
  4 16  1  0
  5 17  1  0
  6 18  1  0
  8 19  1  0
  8 20  1  0
  8 21  1  0
M  END
