
     RDKit          3D

 20 20  0  0  0  0  0  0  0  0999 V2000
   -2.1580    0.2162   -0.2926 C   0  0  0  0  0  0  0  0  0  0  0  0
   -0.7905    0.0310    0.2863 C   0  0  0  0  0  0  0  0  0  0  0  0
   -0.3623   -1.4269    0.2600 C   0  0  0  0  0  0  0  0  0  0  0  0
    0.8681   -1.5921    0.8248 O   0  0  0  0  0  0  0  0  0  0  0  0
    1.8809   -0.8483    0.2893 C   0  0  0  0  0  0  0  0  0  0  0  0
    1.5545    0.6486    0.2364 C   0  0  0  0  0  0  0  0  0  0  0  0
    0.2655    0.7647   -0.5525 C   0  0  0  0  0  0  0  0  0  0  0  0
   -0.0929    2.0520   -0.8379 O   0  0  0  0  0  0  0  0  0  0  0  0
   -2.3634    1.3107   -0.3145 H   0  0  0  0  0  0  0  0  0  0  0  0
   -2.1757   -0.1581   -1.3347 H   0  0  0  0  0  0  0  0  0  0  0  0
   -2.8814   -0.2738    0.3677 H   0  0  0  0  0  0  0  0  0  0  0  0
   -0.7559    0.3475    1.3448 H   0  0  0  0  0  0  0  0  0  0  0  0
   -0.3798   -1.7191   -0.8287 H   0  0  0  0  0  0  0  0  0  0  0  0
   -1.1034   -1.9961    0.8528 H   0  0  0  0  0  0  0  0  0  0  0  0
    2.7753   -0.9714    0.9594 H   0  0  0  0  0  0  0  0  0  0  0  0
    2.2222   -1.1735   -0.7125 H   0  0  0  0  0  0  0  0  0  0  0  0
    1.3171    0.9374    1.2747 H   0  0  0  0  0  0  0  0  0  0  0  0
    2.3919    1.1784   -0.2127 H   0  0  0  0  0  0  0  0  0  0  0  0
    0.4002    0.1672   -1.4741 H   0  0  0  0  0  0  0  0  0  0  0  0
   -0.6125    2.5052   -0.1359 H   0  0  0  0  0  0  0  0  0  0  0  0
  1  2  1  0
  2  3  1  0
  3  4  1  0
  4  5  1  0
  5  6  1  0
  6  7  1  0
  7  8  1  0
  7  2  1  0
  1  9  1  0
  1 10  1  0
  1 11  1  0
  2 12  1  0
  3 13  1  0
  3 14  1  0
  5 15  1  0
  5 16  1  0
  6 17  1  0
  6 18  1  0
  7 19  1  0
  8 20  1  0
M  END
