
     RDKit          3D

 23 23  0  0  0  0  0  0  0  0999 V2000
   -1.9614    1.2708    0.8168 C   0  0  0  0  0  0  0  0  0  0  0  0
   -0.9760    0.6513   -0.1416 C   0  0  0  0  0  0  0  0  0  0  0  0
    0.3675    1.2608   -0.0349 C   0  0  0  0  0  0  0  0  0  0  0  0
    1.2743    0.3318   -0.2939 C   0  0  0  0  0  0  0  0  0  0  0  0
    2.7488    0.5590   -0.2865 C   0  0  0  0  0  0  0  0  0  0  0  0
    3.3940   -0.2449    0.6415 O   0  0  0  0  0  0  0  0  0  0  0  0
    0.6189   -0.9733   -0.5887 C   0  0  0  0  0  0  0  0  0  0  0  0
   -0.7059   -0.7960    0.1664 C   0  0  0  0  0  0  0  0  0  0  0  0
   -1.7757   -1.7060   -0.3799 C   0  0  0  0  0  0  0  0  0  0  0  0
   -1.9775    0.7203    1.7699 H   0  0  0  0  0  0  0  0  0  0  0  0
   -2.9607    1.2505    0.3011 H   0  0  0  0  0  0  0  0  0  0  0  0
   -1.6926    2.3518    0.9543 H   0  0  0  0  0  0  0  0  0  0  0  0
   -1.3077    0.7414   -1.2068 H   0  0  0  0  0  0  0  0  0  0  0  0
    0.6160    2.3043    0.2147 H   0  0  0  0  0  0  0  0  0  0  0  0
    3.1780    0.2942   -1.2983 H   0  0  0  0  0  0  0  0  0  0  0  0
    3.0092    1.6036   -0.1186 H   0  0  0  0  0  0  0  0  0  0  0  0
    3.2811    0.0582    1.5689 H   0  0  0  0  0  0  0  0  0  0  0  0
    1.1469   -1.8135   -0.1030 H   0  0  0  0  0  0  0  0  0  0  0  0
    0.3940   -1.1194   -1.6454 H   0  0  0  0  0  0  0  0  0  0  0  0
   -0.5760   -0.8986    1.2466 H   0  0  0  0  0  0  0  0  0  0  0  0
   -2.0050   -2.5067    0.3575 H   0  0  0  0  0  0  0  0  0  0  0  0
   -1.3766   -2.2004   -1.2925 H   0  0  0  0  0  0  0  0  0  0  0  0
   -2.7135   -1.1393   -0.6476 H   0  0  0  0  0  0  0  0  0  0  0  0
  1  2  1  0
  2  3  1  0
  3  4  2  0
  4  5  1  0
  5  6  1  0
  4  7  1  0
  7  8  1  0
  8  9  1  0
  8  2  1  0
  1 10  1  0
  1 11  1  0
  1 12  1  0
  2 13  1  0
  3 14  1  0
  5 15  1  0
  5 16  1  0
  6 17  1  0
  7 18  1  0
  7 19  1  0
  8 20  1  0
  9 21  1  0
  9 22  1  0
  9 23  1  0
M  END
