
     RDKit          3D

 19 19  0  0  0  0  0  0  0  0999 V2000
    2.3429   -0.3967   -0.3794 C   0  0  0  0  0  0  0  0  0  0  0  0
    0.9129    0.1289   -0.5917 C   0  0  0  0  0  0  0  0  0  0  0  0
    0.6376    1.3242    0.2378 C   0  0  0  0  0  0  0  0  0  0  0  0
   -0.0531    1.1049    1.4178 O   0  0  0  0  0  0  0  0  0  0  0  0
   -0.8767   -0.0100    1.5129 C   0  0  0  0  0  0  0  0  0  0  0  0
   -1.4545   -0.3130    2.5966 O   0  0  0  0  0  0  0  0  0  0  0  0
   -1.0327   -0.8130    0.2748 C   0  0  0  0  0  0  0  0  0  0  0  0
   -2.2227   -0.3265   -0.5479 C   0  0  0  0  0  0  0  0  0  0  0  0
    0.0799   -0.9204   -0.4821 O   0  0  0  0  0  0  0  0  0  0  0  0
    2.6219   -0.9775   -1.3001 H   0  0  0  0  0  0  0  0  0  0  0  0
    2.3191   -1.1487    0.4568 H   0  0  0  0  0  0  0  0  0  0  0  0
    3.0507    0.4194   -0.1862 H   0  0  0  0  0  0  0  0  0  0  0  0
    0.9191    0.4651   -1.6720 H   0  0  0  0  0  0  0  0  0  0  0  0
    1.6046    1.8424    0.5089 H   0  0  0  0  0  0  0  0  0  0  0  0
    0.0730    2.1048   -0.3515 H   0  0  0  0  0  0  0  0  0  0  0  0
   -1.3187   -1.8497    0.6245 H   0  0  0  0  0  0  0  0  0  0  0  0
   -2.9507    0.1012    0.1819 H   0  0  0  0  0  0  0  0  0  0  0  0
   -2.7460   -1.1814   -1.0292 H   0  0  0  0  0  0  0  0  0  0  0  0
   -1.9064    0.4461   -1.2718 H   0  0  0  0  0  0  0  0  0  0  0  0
  1  2  1  0
  2  3  1  0
  3  4  1  0
  4  5  1  0
  5  6  2  0
  5  7  1  0
  7  8  1  0
  7  9  1  0
  9  2  1  0
  1 10  1  0
  1 11  1  0
  1 12  1  0
  2 13  1  0
  3 14  1  0
  3 15  1  0
  7 16  1  0
  8 17  1  0
  8 18  1  0
  8 19  1  0
M  END
