
     RDKit          3D

 19 21  0  0  0  0  0  0  0  0999 V2000
   -2.2562   -0.2197    0.3545 C   0  0  0  0  0  0  0  0  0  0  0  0
   -0.9514   -0.3490   -0.3985 C   0  0  0  0  0  0  0  0  0  0  0  0
   -0.6342    0.9252   -1.0617 C   0  0  0  0  0  0  0  0  0  0  0  0
    0.4300    1.5102   -0.5345 C   0  0  0  0  0  0  0  0  0  0  0  0
    0.9996    0.7152    0.5740 C   0  0  0  0  0  0  0  0  0  0  0  0
    2.1850   -0.1261    0.1483 C   0  0  0  0  0  0  0  0  0  0  0  0
    2.4809   -1.2866    0.8634 O   0  0  0  0  0  0  0  0  0  0  0  0
    1.4186   -1.2310   -0.0678 C   0  0  0  0  0  0  0  0  0  0  0  0
    0.1828   -0.5817    0.5303 C   0  0  0  0  0  0  0  0  0  0  0  0
   -2.6504   -1.1752    0.6938 H   0  0  0  0  0  0  0  0  0  0  0  0
   -2.9952    0.2207   -0.3471 H   0  0  0  0  0  0  0  0  0  0  0  0
   -2.1851    0.4952    1.2065 H   0  0  0  0  0  0  0  0  0  0  0  0
   -1.0478   -1.1853   -1.0925 H   0  0  0  0  0  0  0  0  0  0  0  0
   -1.2211    1.3264   -1.8921 H   0  0  0  0  0  0  0  0  0  0  0  0
    0.8323    2.4567   -0.8762 H   0  0  0  0  0  0  0  0  0  0  0  0
    1.0582    1.1833    1.5534 H   0  0  0  0  0  0  0  0  0  0  0  0
    3.0485    0.3357   -0.3228 H   0  0  0  0  0  0  0  0  0  0  0  0
    1.3337   -1.9899   -0.8368 H   0  0  0  0  0  0  0  0  0  0  0  0
   -0.0281   -1.0243    1.5059 H   0  0  0  0  0  0  0  0  0  0  0  0
  1  2  1  0
  2  3  1  0
  3  4  2  0
  4  5  1  0
  5  6  1  0
  6  7  1  0
  7  8  1  0
  8  9  1  0
  9  2  1  0
  9  5  1  0
  8  6  1  0
  1 10  1  0
  1 11  1  0
  1 12  1  0
  2 13  1  0
  3 14  1  0
  4 15  1  0
  5 16  1  0
  6 17  1  0
  8 18  1  0
  9 19  1  0
M  END
