
     RDKit          3D

 23 24  0  0  0  0  0  0  0  0999 V2000
    1.1983   -1.1932    0.9646 C   0  0  0  0  0  0  0  0  0  0  0  0
    0.4637   -0.6992   -0.2325 C   0  0  0  0  0  0  0  0  0  0  0  0
    1.2554    0.2835   -1.0294 C   0  0  0  0  0  0  0  0  0  0  0  0
    1.7342    1.5617   -0.4962 C   0  0  0  0  0  0  0  0  0  0  0  0
    0.3696    1.4653   -1.1161 C   0  0  0  0  0  0  0  0  0  0  0  0
   -0.6855    1.3205   -0.2557 O   0  0  0  0  0  0  0  0  0  0  0  0
   -0.8276   -0.0040    0.0716 C   0  0  0  0  0  0  0  0  0  0  0  0
   -1.9978   -0.5604   -0.7167 C   0  0  0  0  0  0  0  0  0  0  0  0
   -1.2090   -0.0862    1.5352 C   0  0  0  0  0  0  0  0  0  0  0  0
    1.6943   -0.3329    1.4646 H   0  0  0  0  0  0  0  0  0  0  0  0
    1.9757   -1.9240    0.5970 H   0  0  0  0  0  0  0  0  0  0  0  0
    0.5505   -1.7669    1.6399 H   0  0  0  0  0  0  0  0  0  0  0  0
    0.2198   -1.5640   -0.8999 H   0  0  0  0  0  0  0  0  0  0  0  0
    1.7561   -0.1044   -1.9641 H   0  0  0  0  0  0  0  0  0  0  0  0
    2.4777    2.1066   -1.0843 H   0  0  0  0  0  0  0  0  0  0  0  0
    1.7677    1.7855    0.6005 H   0  0  0  0  0  0  0  0  0  0  0  0
    0.2026    1.9795   -2.0798 H   0  0  0  0  0  0  0  0  0  0  0  0
   -2.0129   -0.0951   -1.7285 H   0  0  0  0  0  0  0  0  0  0  0  0
   -1.9688   -1.6481   -0.8295 H   0  0  0  0  0  0  0  0  0  0  0  0
   -2.9190   -0.2064   -0.1741 H   0  0  0  0  0  0  0  0  0  0  0  0
   -2.1002    0.5627    1.6807 H   0  0  0  0  0  0  0  0  0  0  0  0
   -0.4189    0.2256    2.2159 H   0  0  0  0  0  0  0  0  0  0  0  0
   -1.5259   -1.1063    1.8368 H   0  0  0  0  0  0  0  0  0  0  0  0
  1  2  1  0
  2  3  1  0
  3  4  1  0
  4  5  1  0
  5  6  1  0
  6  7  1  0
  7  8  1  0
  7  9  1  0
  7  2  1  0
  5  3  1  0
  1 10  1  0
  1 11  1  0
  1 12  1  0
  2 13  1  0
  3 14  1  0
  4 15  1  0
  4 16  1  0
  5 17  1  0
  8 18  1  0
  8 19  1  0
  8 20  1  0
  9 21  1  0
  9 22  1  0
  9 23  1  0
M  END
