
     RDKit          3D

 19 21  0  0  0  0  0  0  0  0999 V2000
   -1.9328   -0.9531    0.0772 C   0  0  0  0  0  0  0  0  0  0  0  0
   -0.4725   -0.8098    0.1772 C   0  0  0  0  0  0  0  0  0  0  0  0
    0.2528   -0.0929   -0.9217 C   0  0  0  0  0  0  0  0  0  0  0  0
   -0.3456    1.1763   -0.3680 C   0  0  0  0  0  0  0  0  0  0  0  0
   -1.6718    1.3840   -0.5683 O   0  0  0  0  0  0  0  0  0  0  0  0
    0.0758    0.4145    0.8518 C   0  0  0  0  0  0  0  0  0  0  0  0
    1.3132    0.1181    0.0784 C   0  0  0  0  0  0  0  0  0  0  0  0
    2.4793   -0.4656    0.3898 C   0  0  0  0  0  0  0  0  0  0  0  0
    2.3558    0.9730   -0.0486 O   0  0  0  0  0  0  0  0  0  0  0  0
   -2.3692   -0.8192   -0.9210 H   0  0  0  0  0  0  0  0  0  0  0  0
   -2.4159   -0.3117    0.8595 H   0  0  0  0  0  0  0  0  0  0  0  0
   -2.2038   -2.0071    0.3835 H   0  0  0  0  0  0  0  0  0  0  0  0
    0.0955   -1.7066    0.5032 H   0  0  0  0  0  0  0  0  0  0  0  0
    0.3101   -0.3531   -1.8866 H   0  0  0  0  0  0  0  0  0  0  0  0
    0.3353    2.0276   -0.5817 H   0  0  0  0  0  0  0  0  0  0  0  0
   -1.8002    2.2988   -0.9694 H   0  0  0  0  0  0  0  0  0  0  0  0
   -0.0205    0.6809    1.8102 H   0  0  0  0  0  0  0  0  0  0  0  0
    3.1211   -1.0424   -0.3061 H   0  0  0  0  0  0  0  0  0  0  0  0
    2.8933   -0.5115    1.4406 H   0  0  0  0  0  0  0  0  0  0  0  0
  1  2  1  0
  2  3  1  0
  3  4  1  0
  4  5  1  0
  4  6  1  0
  6  7  1  0
  7  8  1  0
  8  9  1  0
  6  2  1  0
  9  7  1  0
  7  3  1  0
  1 10  1  0
  1 11  1  0
  1 12  1  0
  2 13  1  0
  3 14  1  0
  4 15  1  0
  5 16  1  0
  6 17  1  0
  8 18  1  0
  8 19  1  0
M  END
