
     RDKit          3D

 20 21  0  0  0  0  0  0  0  0999 V2000
    1.7515   -0.5763    0.3834 C   0  0  0  0  0  0  0  0  0  0  0  0
    0.7343   -0.1028   -0.6080 C   0  0  0  0  0  0  0  0  0  0  0  0
    0.7006    1.4372   -0.4986 C   0  0  0  0  0  0  0  0  0  0  0  0
   -0.7240    1.5503   -0.0127 C   0  0  0  0  0  0  0  0  0  0  0  0
   -0.9210    0.4794    1.0306 C   0  0  0  0  0  0  0  0  0  0  0  0
   -0.6799   -0.3525   -0.1680 C   0  0  0  0  0  0  0  0  0  0  0  0
   -1.2505   -1.6798   -0.2989 C   0  0  0  0  0  0  0  0  0  0  0  0
   -1.3653    0.6500   -0.8970 O   0  0  0  0  0  0  0  0  0  0  0  0
    1.7565    0.0885    1.2962 H   0  0  0  0  0  0  0  0  0  0  0  0
    2.7580   -0.4097   -0.0789 H   0  0  0  0  0  0  0  0  0  0  0  0
    1.6507   -1.6214    0.6727 H   0  0  0  0  0  0  0  0  0  0  0  0
    0.9608   -0.4316   -1.6177 H   0  0  0  0  0  0  0  0  0  0  0  0
    1.4434    1.8151    0.1960 H   0  0  0  0  0  0  0  0  0  0  0  0
    0.7598    1.8122   -1.5240 H   0  0  0  0  0  0  0  0  0  0  0  0
   -1.1639    2.5092    0.1221 H   0  0  0  0  0  0  0  0  0  0  0  0
   -0.1840    0.4517    1.8403 H   0  0  0  0  0  0  0  0  0  0  0  0
   -1.9726    0.4619    1.3444 H   0  0  0  0  0  0  0  0  0  0  0  0
   -2.3420   -1.6390   -0.0795 H   0  0  0  0  0  0  0  0  0  0  0  0
   -0.7268   -2.4377    0.2759 H   0  0  0  0  0  0  0  0  0  0  0  0
   -1.1856   -2.0047   -1.3785 H   0  0  0  0  0  0  0  0  0  0  0  0
  1  2  1  0
  2  3  1  0
  3  4  1  0
  4  5  1  0
  5  6  1  0
  6  7  1  0
  6  8  1  0
  6  2  1  0
  8  4  1  0
  1  9  1  0
  1 10  1  0
  1 11  1  0
  2 12  1  0
  3 13  1  0
  3 14  1  0
  4 15  1  0
  5 16  1  0
  5 17  1  0
  7 18  1  0
  7 19  1  0
  7 20  1  0
M  END
