
     RDKit          3D

 23 23  0  0  0  0  0  0  0  0999 V2000
    2.9940    0.6094    0.1692 C   0  0  0  0  0  0  0  0  0  0  0  0
    1.9890   -0.3439   -0.3961 C   0  0  0  0  0  0  0  0  0  0  0  0
    1.0577   -0.8444    0.6849 C   0  0  0  0  0  0  0  0  0  0  0  0
    0.2697    0.3481    0.1784 C   0  0  0  0  0  0  0  0  0  0  0  0
   -1.1954    0.0526    0.2174 C   0  0  0  0  0  0  0  0  0  0  0  0
   -1.5525   -1.1385   -0.6419 C   0  0  0  0  0  0  0  0  0  0  0  0
   -2.0476    1.2098   -0.2347 C   0  0  0  0  0  0  0  0  0  0  0  0
   -3.3864    0.7947   -0.1472 O   0  0  0  0  0  0  0  0  0  0  0  0
    0.8986    0.2523   -1.0420 O   0  0  0  0  0  0  0  0  0  0  0  0
    2.5854    1.0944    1.0876 H   0  0  0  0  0  0  0  0  0  0  0  0
    3.8707    0.0211    0.4976 H   0  0  0  0  0  0  0  0  0  0  0  0
    3.3289    1.3472   -0.5888 H   0  0  0  0  0  0  0  0  0  0  0  0
    2.4772   -1.1549   -0.9502 H   0  0  0  0  0  0  0  0  0  0  0  0
    0.5939   -1.8272    0.4568 H   0  0  0  0  0  0  0  0  0  0  0  0
    1.4217   -0.7501    1.7171 H   0  0  0  0  0  0  0  0  0  0  0  0
    0.5075    1.2616    0.7571 H   0  0  0  0  0  0  0  0  0  0  0  0
   -1.4842   -0.1745    1.2646 H   0  0  0  0  0  0  0  0  0  0  0  0
   -2.4167   -0.9402   -1.3102 H   0  0  0  0  0  0  0  0  0  0  0  0
   -0.7110   -1.4248   -1.3067 H   0  0  0  0  0  0  0  0  0  0  0  0
   -1.8811   -2.0032    0.0041 H   0  0  0  0  0  0  0  0  0  0  0  0
   -1.8687    1.3725   -1.3339 H   0  0  0  0  0  0  0  0  0  0  0  0
   -1.9359    2.1139    0.3591 H   0  0  0  0  0  0  0  0  0  0  0  0
   -3.5148    0.1241    0.5578 H   0  0  0  0  0  0  0  0  0  0  0  0
  1  2  1  0
  2  3  1  0
  3  4  1  0
  4  5  1  0
  5  6  1  0
  5  7  1  0
  7  8  1  0
  4  9  1  0
  9  2  1  0
  1 10  1  0
  1 11  1  0
  1 12  1  0
  2 13  1  0
  3 14  1  0
  3 15  1  0
  4 16  1  0
  5 17  1  0
  6 18  1  0
  6 19  1  0
  6 20  1  0
  7 21  1  0
  7 22  1  0
  8 23  1  0
M  END
