
     RDKit          3D

 21 21  0  0  0  0  0  0  0  0999 V2000
    1.7122    0.2992   -0.9181 C   0  0  0  0  0  0  0  0  0  0  0  0
    0.8628    0.1209    0.2956 C   0  0  0  0  0  0  0  0  0  0  0  0
    1.2203   -1.2137    0.9183 C   0  0  0  0  0  0  0  0  0  0  0  0
    0.0916   -2.0086    0.6283 O   0  0  0  0  0  0  0  0  0  0  0  0
   -1.0119   -1.1819    0.7050 C   0  0  0  0  0  0  0  0  0  0  0  0
   -2.1488   -1.3907    1.1772 O   0  0  0  0  0  0  0  0  0  0  0  0
   -0.5923    0.0994    0.0836 C   0  0  0  0  0  0  0  0  0  0  0  0
   -1.0603    0.1159   -1.3330 C   0  0  0  0  0  0  0  0  0  0  0  0
   -1.3294    1.2200    0.8119 C   0  0  0  0  0  0  0  0  0  0  0  0
    2.7738    0.2774   -0.5909 H   0  0  0  0  0  0  0  0  0  0  0  0
    1.5615    1.3002   -1.3810 H   0  0  0  0  0  0  0  0  0  0  0  0
    1.6072   -0.5304   -1.6482 H   0  0  0  0  0  0  0  0  0  0  0  0
    1.1300    0.8964    1.0316 H   0  0  0  0  0  0  0  0  0  0  0  0
    1.3449   -1.1345    2.0198 H   0  0  0  0  0  0  0  0  0  0  0  0
    2.1557   -1.6296    0.4779 H   0  0  0  0  0  0  0  0  0  0  0  0
   -1.3594    1.1428   -1.6827 H   0  0  0  0  0  0  0  0  0  0  0  0
   -2.0055   -0.4891   -1.3774 H   0  0  0  0  0  0  0  0  0  0  0  0
   -0.3790   -0.3170   -2.0610 H   0  0  0  0  0  0  0  0  0  0  0  0
   -1.3916    2.1320    0.1585 H   0  0  0  0  0  0  0  0  0  0  0  0
   -2.3790    0.8862    0.9412 H   0  0  0  0  0  0  0  0  0  0  0  0
   -0.8027    1.4050    1.7433 H   0  0  0  0  0  0  0  0  0  0  0  0
  1  2  1  0
  2  3  1  0
  3  4  1  0
  4  5  1  0
  5  6  2  0
  5  7  1  0
  7  8  1  0
  7  9  1  0
  7  2  1  0
  1 10  1  0
  1 11  1  0
  1 12  1  0
  2 13  1  0
  3 14  1  0
  3 15  1  0
  8 16  1  0
  8 17  1  0
  8 18  1  0
  9 19  1  0
  9 20  1  0
  9 21  1  0
M  END
