
     RDKit          3D

 23 24  0  0  0  0  0  0  0  0999 V2000
   -2.0265    1.1409    0.8897 C   0  0  0  0  0  0  0  0  0  0  0  0
   -1.2158    0.7174   -0.2831 C   0  0  0  0  0  0  0  0  0  0  0  0
   -1.6959   -0.6267   -0.8481 C   0  0  0  0  0  0  0  0  0  0  0  0
   -0.6496   -1.2749    0.0681 C   0  0  0  0  0  0  0  0  0  0  0  0
    0.0749    0.0673    0.0419 C   0  0  0  0  0  0  0  0  0  0  0  0
    1.1001    0.0310   -1.0825 C   0  0  0  0  0  0  0  0  0  0  0  0
    2.2792   -0.5319   -0.2696 C   0  0  0  0  0  0  0  0  0  0  0  0
    2.0823    0.2940    1.0077 C   0  0  0  0  0  0  0  0  0  0  0  0
    0.7228    0.4161    1.1880 O   0  0  0  0  0  0  0  0  0  0  0  0
   -2.5696    0.2735    1.3623 H   0  0  0  0  0  0  0  0  0  0  0  0
   -1.4464    1.6290    1.6980 H   0  0  0  0  0  0  0  0  0  0  0  0
   -2.8292    1.8625    0.6147 H   0  0  0  0  0  0  0  0  0  0  0  0
   -1.1696    1.5281   -1.0414 H   0  0  0  0  0  0  0  0  0  0  0  0
   -2.6967   -0.9246   -0.5400 H   0  0  0  0  0  0  0  0  0  0  0  0
   -1.4519   -0.6677   -1.9103 H   0  0  0  0  0  0  0  0  0  0  0  0
   -1.0173   -1.4705    1.0727 H   0  0  0  0  0  0  0  0  0  0  0  0
   -0.0846   -2.0997   -0.4247 H   0  0  0  0  0  0  0  0  0  0  0  0
    0.8118   -0.6430   -1.8969 H   0  0  0  0  0  0  0  0  0  0  0  0
    1.4141    1.0320   -1.4032 H   0  0  0  0  0  0  0  0  0  0  0  0
    3.2347   -0.3460   -0.7478 H   0  0  0  0  0  0  0  0  0  0  0  0
    2.0453   -1.6013   -0.0853 H   0  0  0  0  0  0  0  0  0  0  0  0
    2.6218   -0.1262    1.8563 H   0  0  0  0  0  0  0  0  0  0  0  0
    2.4661    1.3208    0.7335 H   0  0  0  0  0  0  0  0  0  0  0  0
  1  2  1  0
  2  3  1  0
  3  4  1  0
  4  5  1  0
  5  6  1  0
  6  7  1  0
  7  8  1  0
  8  9  1  0
  5  2  1  0
  9  5  1  0
  1 10  1  0
  1 11  1  0
  1 12  1  0
  2 13  1  0
  3 14  1  0
  3 15  1  0
  4 16  1  0
  4 17  1  0
  6 18  1  0
  6 19  1  0
  7 20  1  0
  7 21  1  0
  8 22  1  0
  8 23  1  0
M  END
