
     RDKit          3D

 21 21  0  0  0  0  0  0  0  0999 V2000
   -2.2729   -0.8914    0.3007 C   0  0  0  0  0  0  0  0  0  0  0  0
   -1.1062   -0.1164   -0.2765 C   0  0  0  0  0  0  0  0  0  0  0  0
   -1.0354    1.2361    0.4250 C   0  0  0  0  0  0  0  0  0  0  0  0
    0.0280    2.0098   -0.3087 C   0  0  0  0  0  0  0  0  0  0  0  0
   -0.0667    3.2118   -0.5802 O   0  0  0  0  0  0  0  0  0  0  0  0
    1.1551    1.2566   -0.6693 O   0  0  0  0  0  0  0  0  0  0  0  0
    1.3532    0.0584    0.0618 C   0  0  0  0  0  0  0  0  0  0  0  0
    2.6285   -0.5711   -0.4984 C   0  0  0  0  0  0  0  0  0  0  0  0
    0.1871   -0.8759   -0.0131 C   0  0  0  0  0  0  0  0  0  0  0  0
   -2.7462   -1.5205   -0.4816 H   0  0  0  0  0  0  0  0  0  0  0  0
   -3.0588   -0.1883    0.6595 H   0  0  0  0  0  0  0  0  0  0  0  0
   -1.9203   -1.4745    1.1643 H   0  0  0  0  0  0  0  0  0  0  0  0
   -1.1777    0.0056   -1.3699 H   0  0  0  0  0  0  0  0  0  0  0  0
   -2.0128    1.7200    0.3633 H   0  0  0  0  0  0  0  0  0  0  0  0
   -0.7022    1.0444    1.4649 H   0  0  0  0  0  0  0  0  0  0  0  0
    1.5457    0.2761    1.1302 H   0  0  0  0  0  0  0  0  0  0  0  0
    3.2753    0.2253   -0.9529 H   0  0  0  0  0  0  0  0  0  0  0  0
    2.3063   -1.3160   -1.2707 H   0  0  0  0  0  0  0  0  0  0  0  0
    3.2447   -1.0294    0.2994 H   0  0  0  0  0  0  0  0  0  0  0  0
    0.3632   -1.6145   -0.8330 H   0  0  0  0  0  0  0  0  0  0  0  0
    0.0121   -1.4462    0.9305 H   0  0  0  0  0  0  0  0  0  0  0  0
  1  2  1  0
  2  3  1  0
  3  4  1  0
  4  5  2  0
  4  6  1  0
  6  7  1  0
  7  8  1  0
  7  9  1  0
  9  2  1  0
  1 10  1  0
  1 11  1  0
  1 12  1  0
  2 13  1  0
  3 14  1  0
  3 15  1  0
  7 16  1  0
  8 17  1  0
  8 18  1  0
  8 19  1  0
  9 20  1  0
  9 21  1  0
M  END
