
     RDKit          3D

 25 25  0  0  0  0  0  0  0  0999 V2000
    2.8375    0.7387   -0.1151 C   0  0  0  0  0  0  0  0  0  0  0  0
    1.6636   -0.2337   -0.2033 C   0  0  0  0  0  0  0  0  0  0  0  0
    0.8234    0.1883   -1.3313 C   0  0  0  0  0  0  0  0  0  0  0  0
   -0.4931    0.2712   -1.3231 C   0  0  0  0  0  0  0  0  0  0  0  0
   -1.2290   -0.0868   -0.0772 C   0  0  0  0  0  0  0  0  0  0  0  0
   -1.5144   -1.5599    0.0025 C   0  0  0  0  0  0  0  0  0  0  0  0
   -2.5490    0.6415   -0.0238 C   0  0  0  0  0  0  0  0  0  0  0  0
   -0.3856    0.4113    1.0770 C   0  0  0  0  0  0  0  0  0  0  0  0
    0.9607   -0.3161    1.1023 C   0  0  0  0  0  0  0  0  0  0  0  0
    2.9360    1.1463    0.9227 H   0  0  0  0  0  0  0  0  0  0  0  0
    3.7869    0.2682   -0.4371 H   0  0  0  0  0  0  0  0  0  0  0  0
    2.6744    1.6220   -0.7655 H   0  0  0  0  0  0  0  0  0  0  0  0
    2.1123   -1.2416   -0.4406 H   0  0  0  0  0  0  0  0  0  0  0  0
    1.3218    0.4583   -2.2598 H   0  0  0  0  0  0  0  0  0  0  0  0
   -1.0601    0.5919   -2.1945 H   0  0  0  0  0  0  0  0  0  0  0  0
   -2.5474   -1.7761    0.3614 H   0  0  0  0  0  0  0  0  0  0  0  0
   -0.7956   -2.1297    0.5919 H   0  0  0  0  0  0  0  0  0  0  0  0
   -1.4701   -1.9773   -1.0415 H   0  0  0  0  0  0  0  0  0  0  0  0
   -3.1370    0.3527   -0.9108 H   0  0  0  0  0  0  0  0  0  0  0  0
   -3.0511    0.3756    0.9145 H   0  0  0  0  0  0  0  0  0  0  0  0
   -2.3274    1.7211   -0.0683 H   0  0  0  0  0  0  0  0  0  0  0  0
   -0.1249    1.4772    0.8218 H   0  0  0  0  0  0  0  0  0  0  0  0
   -0.8624    0.3081    2.0507 H   0  0  0  0  0  0  0  0  0  0  0  0
    0.8713   -1.3431    1.4670 H   0  0  0  0  0  0  0  0  0  0  0  0
    1.5590    0.2378    1.8801 H   0  0  0  0  0  0  0  0  0  0  0  0
  1  2  1  0
  2  3  1  0
  3  4  2  0
  4  5  1  0
  5  6  1  0
  5  7  1  0
  5  8  1  0
  8  9  1  0
  9  2  1  0
  1 10  1  0
  1 11  1  0
  1 12  1  0
  2 13  1  0
  3 14  1  0
  4 15  1  0
  6 16  1  0
  6 17  1  0
  6 18  1  0
  7 19  1  0
  7 20  1  0
  7 21  1  0
  8 22  1  0
  8 23  1  0
  9 24  1  0
  9 25  1  0
M  END
