
     RDKit          3D

 23 24  0  0  0  0  0  0  0  0999 V2000
   -1.8527    1.0847   -0.4913 C   0  0  0  0  0  0  0  0  0  0  0  0
   -1.4515   -0.3359   -0.5039 C   0  0  0  0  0  0  0  0  0  0  0  0
   -1.7655   -0.9938    0.8485 C   0  0  0  0  0  0  0  0  0  0  0  0
   -0.7282   -0.4095    1.5790 O   0  0  0  0  0  0  0  0  0  0  0  0
    0.3619   -0.8562    0.8601 C   0  0  0  0  0  0  0  0  0  0  0  0
   -0.0110   -0.6501   -0.6339 C   0  0  0  0  0  0  0  0  0  0  0  0
    1.1181    0.0176   -0.0541 C   0  0  0  0  0  0  0  0  0  0  0  0
    1.1848    1.5158    0.1829 C   0  0  0  0  0  0  0  0  0  0  0  0
    2.4976   -0.5437   -0.3782 C   0  0  0  0  0  0  0  0  0  0  0  0
   -2.0080    1.4141    0.5643 H   0  0  0  0  0  0  0  0  0  0  0  0
   -1.1746    1.7913   -0.9553 H   0  0  0  0  0  0  0  0  0  0  0  0
   -2.8580    1.2390   -0.9848 H   0  0  0  0  0  0  0  0  0  0  0  0
   -2.0645   -0.8549   -1.2676 H   0  0  0  0  0  0  0  0  0  0  0  0
   -1.5631   -2.0709    0.8107 H   0  0  0  0  0  0  0  0  0  0  0  0
   -2.7632   -0.7185    1.2114 H   0  0  0  0  0  0  0  0  0  0  0  0
    0.7194   -1.8543    1.1553 H   0  0  0  0  0  0  0  0  0  0  0  0
    0.1881   -1.5606   -1.2546 H   0  0  0  0  0  0  0  0  0  0  0  0
    0.3817    1.8666    0.8701 H   0  0  0  0  0  0  0  0  0  0  0  0
    1.2004    2.0868   -0.7739 H   0  0  0  0  0  0  0  0  0  0  0  0
    2.1374    1.7920    0.6844 H   0  0  0  0  0  0  0  0  0  0  0  0
    2.5159   -1.6497   -0.3450 H   0  0  0  0  0  0  0  0  0  0  0  0
    3.2233   -0.0932    0.3112 H   0  0  0  0  0  0  0  0  0  0  0  0
    2.7118   -0.2167   -1.4354 H   0  0  0  0  0  0  0  0  0  0  0  0
  1  2  1  0
  2  3  1  0
  3  4  1  0
  4  5  1  0
  5  6  1  0
  6  7  1  0
  7  8  1  0
  7  9  1  0
  6  2  1  0
  7  5  1  0
  1 10  1  0
  1 11  1  0
  1 12  1  0
  2 13  1  0
  3 14  1  0
  3 15  1  0
  5 16  1  0
  6 17  1  0
  8 18  1  0
  8 19  1  0
  8 20  1  0
  9 21  1  0
  9 22  1  0
  9 23  1  0
M  END
