
     RDKit          3D

 19 21  0  0  0  0  0  0  0  0999 V2000
   -1.3989   -1.1837   -0.5173 C   0  0  0  0  0  0  0  0  0  0  0  0
   -0.9305   -0.1806    0.4635 C   0  0  0  0  0  0  0  0  0  0  0  0
   -1.2908    1.2657    0.0781 C   0  0  0  0  0  0  0  0  0  0  0  0
   -0.0428    1.6137   -0.6859 C   0  0  0  0  0  0  0  0  0  0  0  0
    0.9659    0.8338   -0.3968 C   0  0  0  0  0  0  0  0  0  0  0  0
    2.2875    0.1121   -0.2762 C   0  0  0  0  0  0  0  0  0  0  0  0
    2.2323   -1.1124   -0.9071 O   0  0  0  0  0  0  0  0  0  0  0  0
    1.4947   -1.1049    0.2616 C   0  0  0  0  0  0  0  0  0  0  0  0
    0.5259   -0.1096    0.6930 C   0  0  0  0  0  0  0  0  0  0  0  0
   -2.4608   -0.9209   -0.7951 H   0  0  0  0  0  0  0  0  0  0  0  0
   -1.4783   -2.1673   -0.0045 H   0  0  0  0  0  0  0  0  0  0  0  0
   -0.7686   -1.3012   -1.4156 H   0  0  0  0  0  0  0  0  0  0  0  0
   -1.4475   -0.3649    1.4278 H   0  0  0  0  0  0  0  0  0  0  0  0
   -1.4083    1.8868    0.9599 H   0  0  0  0  0  0  0  0  0  0  0  0
   -2.1043    1.2853   -0.6558 H   0  0  0  0  0  0  0  0  0  0  0  0
   -0.0204    2.4339   -1.3942 H   0  0  0  0  0  0  0  0  0  0  0  0
    3.0497    0.4347    0.4037 H   0  0  0  0  0  0  0  0  0  0  0  0
    1.9897   -1.7287    1.0533 H   0  0  0  0  0  0  0  0  0  0  0  0
    0.8057    0.3081    1.7078 H   0  0  0  0  0  0  0  0  0  0  0  0
  1  2  1  0
  2  3  1  0
  3  4  1  0
  4  5  2  0
  5  6  1  0
  6  7  1  0
  7  8  1  0
  8  9  1  0
  9  2  1  0
  9  5  1  0
  8  6  1  0
  1 10  1  0
  1 11  1  0
  1 12  1  0
  2 13  1  0
  3 14  1  0
  3 15  1  0
  4 16  1  0
  6 17  1  0
  8 18  1  0
  9 19  1  0
M  END
