
     RDKit          3D

 23 24  0  0  0  0  0  0  0  0999 V2000
   -2.5819    0.3467    0.7313 C   0  0  0  0  0  0  0  0  0  0  0  0
   -1.7971   -0.7279    0.0068 C   0  0  0  0  0  0  0  0  0  0  0  0
   -0.7600   -0.0576   -0.8886 C   0  0  0  0  0  0  0  0  0  0  0  0
    0.2260   -0.2236    0.2498 C   0  0  0  0  0  0  0  0  0  0  0  0
    1.5659   -0.6236   -0.2546 C   0  0  0  0  0  0  0  0  0  0  0  0
    2.5165    0.3867    0.3604 C   0  0  0  0  0  0  0  0  0  0  0  0
    1.5734    1.4549    0.8478 C   0  0  0  0  0  0  0  0  0  0  0  0
    0.3584    0.8410    1.0988 O   0  0  0  0  0  0  0  0  0  0  0  0
   -0.6534   -1.3203    0.7878 C   0  0  0  0  0  0  0  0  0  0  0  0
   -1.9452    1.2276    0.9928 H   0  0  0  0  0  0  0  0  0  0  0  0
   -3.1337   -0.0337    1.6006 H   0  0  0  0  0  0  0  0  0  0  0  0
   -3.3163    0.7450   -0.0206 H   0  0  0  0  0  0  0  0  0  0  0  0
   -2.4663   -1.4294   -0.4844 H   0  0  0  0  0  0  0  0  0  0  0  0
   -0.5619   -0.6850   -1.7676 H   0  0  0  0  0  0  0  0  0  0  0  0
   -0.9997    0.9962   -1.1436 H   0  0  0  0  0  0  0  0  0  0  0  0
    1.6380   -0.4713   -1.3640 H   0  0  0  0  0  0  0  0  0  0  0  0
    1.8538   -1.6630   -0.0609 H   0  0  0  0  0  0  0  0  0  0  0  0
    3.2211    0.8040   -0.3855 H   0  0  0  0  0  0  0  0  0  0  0  0
    3.0546   -0.0308    1.2179 H   0  0  0  0  0  0  0  0  0  0  0  0
    1.9823    1.9128    1.7702 H   0  0  0  0  0  0  0  0  0  0  0  0
    1.4294    2.2105    0.0488 H   0  0  0  0  0  0  0  0  0  0  0  0
   -0.8002   -1.3345    1.8833 H   0  0  0  0  0  0  0  0  0  0  0  0
   -0.4036   -2.3246    0.3483 H   0  0  0  0  0  0  0  0  0  0  0  0
  1  2  1  0
  2  3  1  0
  3  4  1  0
  4  5  1  0
  5  6  1  0
  6  7  1  0
  7  8  1  0
  4  9  1  0
  9  2  1  0
  8  4  1  0
  1 10  1  0
  1 11  1  0
  1 12  1  0
  2 13  1  0
  3 14  1  0
  3 15  1  0
  5 16  1  0
  5 17  1  0
  6 18  1  0
  6 19  1  0
  7 20  1  0
  7 21  1  0
  9 22  1  0
  9 23  1  0
M  END
