
     RDKit          3D

 21 22  0  0  0  0  0  0  0  0999 V2000
   -1.3089   -1.8263    0.5894 C   0  0  0  0  0  0  0  0  0  0  0  0
   -0.1487   -0.9155    0.5203 C   0  0  0  0  0  0  0  0  0  0  0  0
    0.2485   -0.3856   -0.8259 C   0  0  0  0  0  0  0  0  0  0  0  0
    0.9433    0.7042   -0.0407 C   0  0  0  0  0  0  0  0  0  0  0  0
    2.1082    0.2731    0.7903 C   0  0  0  0  0  0  0  0  0  0  0  0
   -0.3982    0.5551    0.6300 C   0  0  0  0  0  0  0  0  0  0  0  0
   -0.9670    0.4804   -0.7587 C   0  0  0  0  0  0  0  0  0  0  0  0
   -0.8922    1.7668   -1.5015 C   0  0  0  0  0  0  0  0  0  0  0  0
   -1.1091    1.8028   -2.7013 O   0  0  0  0  0  0  0  0  0  0  0  0
   -1.4082   -2.4549   -0.3379 H   0  0  0  0  0  0  0  0  0  0  0  0
   -1.1733   -2.5446    1.4287 H   0  0  0  0  0  0  0  0  0  0  0  0
   -2.2835   -1.3311    0.7720 H   0  0  0  0  0  0  0  0  0  0  0  0
    0.7140   -1.2716    1.1027 H   0  0  0  0  0  0  0  0  0  0  0  0
    0.6187   -0.8902   -1.6035 H   0  0  0  0  0  0  0  0  0  0  0  0
    1.0963    1.6069   -0.6337 H   0  0  0  0  0  0  0  0  0  0  0  0
    1.8111    0.2748    1.8568 H   0  0  0  0  0  0  0  0  0  0  0  0
    2.9142    1.0593    0.7013 H   0  0  0  0  0  0  0  0  0  0  0  0
    2.5666   -0.6748    0.4899 H   0  0  0  0  0  0  0  0  0  0  0  0
   -0.7461    1.0728    1.4090 H   0  0  0  0  0  0  0  0  0  0  0  0
   -1.9373   -0.0147   -0.8560 H   0  0  0  0  0  0  0  0  0  0  0  0
   -0.6485    2.7129   -1.0311 H   0  0  0  0  0  0  0  0  0  0  0  0
  1  2  1  0
  2  3  1  0
  3  4  1  0
  4  5  1  0
  4  6  1  0
  6  7  1  0
  7  8  1  0
  8  9  2  0
  6  2  1  0
  7  3  1  0
  1 10  1  0
  1 11  1  0
  1 12  1  0
  2 13  1  0
  3 14  1  0
  4 15  1  0
  5 16  1  0
  5 17  1  0
  5 18  1  0
  6 19  1  0
  7 20  1  0
  8 21  1  0
M  END
