
     RDKit          3D

 21 21  0  0  0  0  0  0  0  0999 V2000
   -2.2309   -0.5828   -0.3846 C   0  0  0  0  0  0  0  0  0  0  0  0
   -0.8897    0.1341   -0.5411 C   0  0  0  0  0  0  0  0  0  0  0  0
   -0.1630   -0.3842   -1.7120 C   0  0  0  0  0  0  0  0  0  0  0  0
    1.0764   -0.6858   -1.4206 C   0  0  0  0  0  0  0  0  0  0  0  0
    1.3369   -0.4025    0.0033 C   0  0  0  0  0  0  0  0  0  0  0  0
    2.2375    0.7373    0.2221 C   0  0  0  0  0  0  0  0  0  0  0  0
    3.0594    0.6969    1.1222 O   0  0  0  0  0  0  0  0  0  0  0  0
   -0.0186   -0.2326    0.6116 C   0  0  0  0  0  0  0  0  0  0  0  0
   -0.0769    0.8710    1.6369 C   0  0  0  0  0  0  0  0  0  0  0  0
   -3.0011   -0.1561   -1.0299 H   0  0  0  0  0  0  0  0  0  0  0  0
   -2.4931   -0.5466    0.7058 H   0  0  0  0  0  0  0  0  0  0  0  0
   -2.0170   -1.6555   -0.5937 H   0  0  0  0  0  0  0  0  0  0  0  0
   -1.0521    1.2192   -0.6693 H   0  0  0  0  0  0  0  0  0  0  0  0
   -0.6787   -0.4759   -2.6869 H   0  0  0  0  0  0  0  0  0  0  0  0
    1.7954   -1.0933   -2.1648 H   0  0  0  0  0  0  0  0  0  0  0  0
    1.7725   -1.3463    0.4398 H   0  0  0  0  0  0  0  0  0  0  0  0
    2.1875    1.6174   -0.4016 H   0  0  0  0  0  0  0  0  0  0  0  0
   -0.3853   -1.1585    1.0985 H   0  0  0  0  0  0  0  0  0  0  0  0
    0.5241    0.6761    2.5338 H   0  0  0  0  0  0  0  0  0  0  0  0
    0.1627    1.8597    1.2410 H   0  0  0  0  0  0  0  0  0  0  0  0
   -1.1460    0.9084    1.9894 H   0  0  0  0  0  0  0  0  0  0  0  0
  1  2  1  0
  2  3  1  0
  3  4  2  0
  4  5  1  0
  5  6  1  0
  6  7  2  0
  5  8  1  0
  8  9  1  0
  8  2  1  0
  1 10  1  0
  1 11  1  0
  1 12  1  0
  2 13  1  0
  3 14  1  0
  4 15  1  0
  5 16  1  0
  6 17  1  0
  8 18  1  0
  9 19  1  0
  9 20  1  0
  9 21  1  0
M  END
