
     RDKit          3D

 22 22  0  0  0  0  0  0  0  0999 V2000
    2.4292   -0.2369    0.1863 C   0  0  0  0  0  0  0  0  0  0  0  0
    0.9333   -0.1028    0.2036 C   0  0  0  0  0  0  0  0  0  0  0  0
    0.2623   -1.1447   -0.6888 C   0  0  0  0  0  0  0  0  0  0  0  0
   -1.0210   -1.5248   -0.0296 C   0  0  0  0  0  0  0  0  0  0  0  0
   -2.0478   -0.4894   -0.0154 C   0  0  0  0  0  0  0  0  0  0  0  0
   -1.9620    0.8035    0.1842 C   0  0  0  0  0  0  0  0  0  0  0  0
   -0.7781    1.6125    0.4592 C   0  0  0  0  0  0  0  0  0  0  0  0
    0.4473    1.2250   -0.2965 C   0  0  0  0  0  0  0  0  0  0  0  0
    2.7004   -1.3108    0.1326 H   0  0  0  0  0  0  0  0  0  0  0  0
    2.9218    0.3770   -0.5898 H   0  0  0  0  0  0  0  0  0  0  0  0
    2.8401    0.1347    1.1690 H   0  0  0  0  0  0  0  0  0  0  0  0
    0.6050   -0.2152    1.2606 H   0  0  0  0  0  0  0  0  0  0  0  0
    0.1252   -0.7697   -1.7245 H   0  0  0  0  0  0  0  0  0  0  0  0
    0.8886   -2.0585   -0.7686 H   0  0  0  0  0  0  0  0  0  0  0  0
   -1.3760   -2.4718   -0.5285 H   0  0  0  0  0  0  0  0  0  0  0  0
   -0.7985   -1.8181    1.0149 H   0  0  0  0  0  0  0  0  0  0  0  0
   -3.0589   -0.8926   -0.2084 H   0  0  0  0  0  0  0  0  0  0  0  0
   -2.9233    1.3237    0.1321 H   0  0  0  0  0  0  0  0  0  0  0  0
   -0.5212    1.6721    1.5374 H   0  0  0  0  0  0  0  0  0  0  0  0
   -1.0222    2.6718    0.1626 H   0  0  0  0  0  0  0  0  0  0  0  0
    1.1861    2.0296   -0.2063 H   0  0  0  0  0  0  0  0  0  0  0  0
    0.1698    1.1854   -1.3861 H   0  0  0  0  0  0  0  0  0  0  0  0
  1  2  1  0
  2  3  1  0
  3  4  1  0
  4  5  1  0
  5  6  2  0
  6  7  1  0
  7  8  1  0
  8  2  1  0
  1  9  1  0
  1 10  1  0
  1 11  1  0
  2 12  1  0
  3 13  1  0
  3 14  1  0
  4 15  1  0
  4 16  1  0
  5 17  1  0
  6 18  1  0
  7 19  1  0
  7 20  1  0
  8 21  1  0
  8 22  1  0
M  END
