
     RDKit          3D

 21 24  0  0  0  0  0  0  0  0999 V2000
    2.4189    0.4196    0.1412 C   0  0  0  0  0  0  0  0  0  0  0  0
    0.9655    0.2627    0.4402 C   0  0  0  0  0  0  0  0  0  0  0  0
    0.5600   -1.1935    0.6260 C   0  0  0  0  0  0  0  0  0  0  0  0
   -0.8648   -1.2110    0.0822 C   0  0  0  0  0  0  0  0  0  0  0  0
   -0.7033   -0.3269   -1.1107 C   0  0  0  0  0  0  0  0  0  0  0  0
    0.0563    0.8666   -0.5651 C   0  0  0  0  0  0  0  0  0  0  0  0
   -1.2767    1.2091    0.1350 C   0  0  0  0  0  0  0  0  0  0  0  0
   -1.7331   -0.1007    0.6956 C   0  0  0  0  0  0  0  0  0  0  0  0
   -1.9458    0.3581   -0.7810 C   0  0  0  0  0  0  0  0  0  0  0  0
    2.9282   -0.5497    0.2940 H   0  0  0  0  0  0  0  0  0  0  0  0
    2.8975    1.1804    0.8079 H   0  0  0  0  0  0  0  0  0  0  0  0
    2.5107    0.7489   -0.9267 H   0  0  0  0  0  0  0  0  0  0  0  0
    0.7793    0.7440    1.4452 H   0  0  0  0  0  0  0  0  0  0  0  0
    0.6314   -1.5318    1.6559 H   0  0  0  0  0  0  0  0  0  0  0  0
    1.1770   -1.7738   -0.0917 H   0  0  0  0  0  0  0  0  0  0  0  0
   -1.3350   -2.1722   -0.0294 H   0  0  0  0  0  0  0  0  0  0  0  0
   -0.4594   -0.7134   -2.0595 H   0  0  0  0  0  0  0  0  0  0  0  0
    0.4167    1.5939   -1.2619 H   0  0  0  0  0  0  0  0  0  0  0  0
   -1.4731    2.1648    0.5342 H   0  0  0  0  0  0  0  0  0  0  0  0
   -2.6543   -0.2973    1.1840 H   0  0  0  0  0  0  0  0  0  0  0  0
   -2.8960    0.3219   -1.2155 H   0  0  0  0  0  0  0  0  0  0  0  0
  1  2  1  0
  2  3  1  0
  3  4  1  0
  4  5  1  0
  5  6  1  0
  6  7  1  0
  7  8  1  0
  8  9  1  0
  6  2  1  0
  9  7  1  0
  8  4  1  0
  9  5  1  0
  1 10  1  0
  1 11  1  0
  1 12  1  0
  2 13  1  0
  3 14  1  0
  3 15  1  0
  4 16  1  0
  5 17  1  0
  6 18  1  0
  7 19  1  0
  8 20  1  0
  9 21  1  0
M  END
