
     RDKit          3D

 21 21  0  0  0  0  0  0  0  0999 V2000
   -0.3012    1.9971    0.1924 C   0  0  0  0  0  0  0  0  0  0  0  0
    0.0418    0.6627   -0.3772 C   0  0  0  0  0  0  0  0  0  0  0  0
    1.2035   -0.0193    0.3180 C   0  0  0  0  0  0  0  0  0  0  0  0
    2.5096    0.1520   -0.3003 C   0  0  0  0  0  0  0  0  0  0  0  0
    3.4699   -0.4021    0.1911 O   0  0  0  0  0  0  0  0  0  0  0  0
    0.4812   -1.3325   -0.0138 C   0  0  0  0  0  0  0  0  0  0  0  0
   -0.7929   -0.4978    0.1733 C   0  0  0  0  0  0  0  0  0  0  0  0
   -1.9512   -0.9058   -0.6457 C   0  0  0  0  0  0  0  0  0  0  0  0
   -1.0197   -0.2699    1.5293 O   0  0  0  0  0  0  0  0  0  0  0  0
   -0.0775    2.8008   -0.5453 H   0  0  0  0  0  0  0  0  0  0  0  0
   -1.3626    2.0372    0.4766 H   0  0  0  0  0  0  0  0  0  0  0  0
    0.3057    2.2396    1.0942 H   0  0  0  0  0  0  0  0  0  0  0  0
    0.1216    0.6605   -1.4869 H   0  0  0  0  0  0  0  0  0  0  0  0
    1.1593    0.1705    1.4142 H   0  0  0  0  0  0  0  0  0  0  0  0
    2.6446    0.7546   -1.1779 H   0  0  0  0  0  0  0  0  0  0  0  0
    0.5934   -2.1185    0.7246 H   0  0  0  0  0  0  0  0  0  0  0  0
    0.6418   -1.5923   -1.0787 H   0  0  0  0  0  0  0  0  0  0  0  0
   -1.7218   -1.8826   -1.1622 H   0  0  0  0  0  0  0  0  0  0  0  0
   -2.7994   -1.1677    0.0531 H   0  0  0  0  0  0  0  0  0  0  0  0
   -2.3124   -0.1788   -1.3776 H   0  0  0  0  0  0  0  0  0  0  0  0
   -0.8338   -1.1075    1.9989 H   0  0  0  0  0  0  0  0  0  0  0  0
  1  2  1  0
  2  3  1  0
  3  4  1  0
  4  5  2  0
  3  6  1  0
  6  7  1  0
  7  8  1  0
  7  9  1  0
  7  2  1  0
  1 10  1  0
  1 11  1  0
  1 12  1  0
  2 13  1  0
  3 14  1  0
  4 15  1  0
  6 16  1  0
  6 17  1  0
  8 18  1  0
  8 19  1  0
  8 20  1  0
  9 21  1  0
M  END
