
     RDKit          3D

 14 14  0  0  0  0  0  0  0  0999 V2000
   -1.6362    0.0679    0.3972 C   0  0  0  0  0  0  0  0  0  0  0  0
   -0.5499   -0.2351   -0.5981 C   0  0  0  0  0  0  0  0  0  0  0  0
    0.6014   -0.9863   -0.0113 C   0  0  0  0  0  0  0  0  0  0  0  0
    1.6682    0.0628    0.1609 C   0  0  0  0  0  0  0  0  0  0  0  0
    2.8448   -0.1173    0.5693 O   0  0  0  0  0  0  0  0  0  0  0  0
    1.0697    1.3198   -0.2372 C   0  0  0  0  0  0  0  0  0  0  0  0
    1.4754    2.4534    0.1284 O   0  0  0  0  0  0  0  0  0  0  0  0
    0.0064    0.9845   -1.0682 O   0  0  0  0  0  0  0  0  0  0  0  0
   -1.2774    0.0778    1.4314 H   0  0  0  0  0  0  0  0  0  0  0  0
   -2.4774   -0.6595    0.3396 H   0  0  0  0  0  0  0  0  0  0  0  0
   -2.0844    1.0548    0.1153 H   0  0  0  0  0  0  0  0  0  0  0  0
   -1.0003   -0.8377   -1.4094 H   0  0  0  0  0  0  0  0  0  0  0  0
    0.3742   -1.4851    0.9498 H   0  0  0  0  0  0  0  0  0  0  0  0
    0.9857   -1.7000   -0.7676 H   0  0  0  0  0  0  0  0  0  0  0  0
  1  2  1  0
  2  3  1  0
  3  4  1  0
  4  5  2  0
  4  6  1  0
  6  7  2  0
  6  8  1  0
  8  2  1  0
  1  9  1  0
  1 10  1  0
  1 11  1  0
  2 12  1  0
  3 13  1  0
  3 14  1  0
M  END
