
     RDKit          3D

 19 21  0  0  0  0  0  0  0  0999 V2000
    2.8390   -0.2206   -0.2588 C   0  0  0  0  0  0  0  0  0  0  0  0
    1.4276   -0.0259   -0.8340 C   0  0  0  0  0  0  0  0  0  0  0  0
    0.4429    0.8464   -0.2247 C   0  0  0  0  0  0  0  0  0  0  0  0
   -0.4765    1.0703    0.6998 O   0  0  0  0  0  0  0  0  0  0  0  0
   -1.5548    0.2948    0.8522 C   0  0  0  0  0  0  0  0  0  0  0  0
   -2.6491    0.4362   -0.2072 C   0  0  0  0  0  0  0  0  0  0  0  0
   -1.8283   -0.7856   -0.0749 C   0  0  0  0  0  0  0  0  0  0  0  0
   -0.7596   -1.0202   -0.8997 O   0  0  0  0  0  0  0  0  0  0  0  0
    0.3856   -0.5746   -0.1858 C   0  0  0  0  0  0  0  0  0  0  0  0
    2.7914   -0.8137    0.6839 H   0  0  0  0  0  0  0  0  0  0  0  0
    3.1798    0.7982    0.0413 H   0  0  0  0  0  0  0  0  0  0  0  0
    3.5347   -0.6239   -0.9906 H   0  0  0  0  0  0  0  0  0  0  0  0
    1.4821    0.0495   -1.9627 H   0  0  0  0  0  0  0  0  0  0  0  0
    1.0367    1.7574   -0.2284 H   0  0  0  0  0  0  0  0  0  0  0  0
   -1.8930    0.1361    1.9155 H   0  0  0  0  0  0  0  0  0  0  0  0
   -3.6585    0.4636    0.1958 H   0  0  0  0  0  0  0  0  0  0  0  0
   -2.4517    1.1322   -1.0373 H   0  0  0  0  0  0  0  0  0  0  0  0
   -2.3506   -1.7062    0.2736 H   0  0  0  0  0  0  0  0  0  0  0  0
    0.5025   -1.2141    0.7412 H   0  0  0  0  0  0  0  0  0  0  0  0
  1  2  1  0
  2  3  1  0
  3  4  1  0
  4  5  1  0
  5  6  1  0
  6  7  1  0
  7  8  1  0
  8  9  1  0
  9  2  1  0
  9  3  1  0
  7  5  1  0
  1 10  1  0
  1 11  1  0
  1 12  1  0
  2 13  1  0
  3 14  1  0
  5 15  1  0
  6 16  1  0
  6 17  1  0
  7 18  1  0
  9 19  1  0
M  END
