
     RDKit          3D

 19 20  0  0  0  0  0  0  0  0999 V2000
   -1.3437    1.1726    0.8899 C   0  0  0  0  0  0  0  0  0  0  0  0
   -0.6285   -0.1490    0.6431 C   0  0  0  0  0  0  0  0  0  0  0  0
   -1.5125   -1.0575   -0.2189 C   0  0  0  0  0  0  0  0  0  0  0  0
   -0.3450   -1.2726   -1.1442 C   0  0  0  0  0  0  0  0  0  0  0  0
    0.3710   -0.1547   -0.4450 C   0  0  0  0  0  0  0  0  0  0  0  0
    0.7603    0.9759   -1.1153 O   0  0  0  0  0  0  0  0  0  0  0  0
    1.7222    0.0392   -0.4523 C   0  0  0  0  0  0  0  0  0  0  0  0
    2.4859    0.7756    0.5792 C   0  0  0  0  0  0  0  0  0  0  0  0
    3.6888    0.8758    0.4651 O   0  0  0  0  0  0  0  0  0  0  0  0
   -1.5100    1.6801   -0.0801 H   0  0  0  0  0  0  0  0  0  0  0  0
   -2.3397    0.9170    1.2979 H   0  0  0  0  0  0  0  0  0  0  0  0
   -0.7317    1.7910    1.5691 H   0  0  0  0  0  0  0  0  0  0  0  0
   -0.3799   -0.6669    1.5771 H   0  0  0  0  0  0  0  0  0  0  0  0
   -1.8981   -1.9376    0.2941 H   0  0  0  0  0  0  0  0  0  0  0  0
   -2.3116   -0.4955   -0.7439 H   0  0  0  0  0  0  0  0  0  0  0  0
    0.1495   -2.2647   -1.0471 H   0  0  0  0  0  0  0  0  0  0  0  0
   -0.5339   -1.0784   -2.2189 H   0  0  0  0  0  0  0  0  0  0  0  0
    2.3556   -0.3778   -1.2830 H   0  0  0  0  0  0  0  0  0  0  0  0
    2.0013    1.2276    1.4332 H   0  0  0  0  0  0  0  0  0  0  0  0
  1  2  1  0
  2  3  1  0
  3  4  1  0
  4  5  1  0
  5  6  1  0
  6  7  1  0
  7  8  1  0
  8  9  2  0
  5  2  1  0
  7  5  1  0
  1 10  1  0
  1 11  1  0
  1 12  1  0
  2 13  1  0
  3 14  1  0
  3 15  1  0
  4 16  1  0
  4 17  1  0
  7 18  1  0
  8 19  1  0
M  END
