
     RDKit          3D

 18 19  0  0  0  0  0  0  0  0999 V2000
   -1.7198   -0.1903    1.0601 C   0  0  0  0  0  0  0  0  0  0  0  0
   -0.9198   -0.1375   -0.2007 C   0  0  0  0  0  0  0  0  0  0  0  0
    0.1547   -1.2267   -0.2290 C   0  0  0  0  0  0  0  0  0  0  0  0
    1.3591   -0.4188   -0.6421 C   0  0  0  0  0  0  0  0  0  0  0  0
    1.8120    0.3092    0.5669 C   0  0  0  0  0  0  0  0  0  0  0  0
    0.8736    1.2489    0.7678 C   0  0  0  0  0  0  0  0  0  0  0  0
   -0.1042    1.0896   -0.3717 C   0  0  0  0  0  0  0  0  0  0  0  0
    0.8001    0.6572   -1.3745 O   0  0  0  0  0  0  0  0  0  0  0  0
   -2.5132    0.5621    1.0007 H   0  0  0  0  0  0  0  0  0  0  0  0
   -2.2340   -1.1857    1.0825 H   0  0  0  0  0  0  0  0  0  0  0  0
   -1.1349    0.0029    1.9756 H   0  0  0  0  0  0  0  0  0  0  0  0
   -1.5674   -0.2974   -1.0544 H   0  0  0  0  0  0  0  0  0  0  0  0
    0.2667   -1.5666    0.8174 H   0  0  0  0  0  0  0  0  0  0  0  0
   -0.0976   -2.0230   -0.9290 H   0  0  0  0  0  0  0  0  0  0  0  0
    2.1182   -0.9553   -1.1757 H   0  0  0  0  0  0  0  0  0  0  0  0
    2.6840    0.1733    1.1952 H   0  0  0  0  0  0  0  0  0  0  0  0
    0.8430    1.9617    1.5824 H   0  0  0  0  0  0  0  0  0  0  0  0
   -0.6206    1.9965   -0.6238 H   0  0  0  0  0  0  0  0  0  0  0  0
  1  2  1  0
  2  3  1  0
  3  4  1  0
  4  5  1  0
  5  6  2  0
  6  7  1  0
  7  8  1  0
  7  2  1  0
  8  4  1  0
  1  9  1  0
  1 10  1  0
  1 11  1  0
  2 12  1  0
  3 13  1  0
  3 14  1  0
  4 15  1  0
  5 16  1  0
  6 17  1  0
  7 18  1  0
M  END
