
     RDKit          3D

 20 21  0  0  0  0  0  0  0  0999 V2000
    2.8715    0.6664   -0.8288 C   0  0  0  0  0  0  0  0  0  0  0  0
    1.6858   -0.2745   -0.6339 C   0  0  0  0  0  0  0  0  0  0  0  0
    1.3073   -0.4244    0.8389 C   0  0  0  0  0  0  0  0  0  0  0  0
    0.3911    0.2523   -0.1624 C   0  0  0  0  0  0  0  0  0  0  0  0
   -0.8874   -0.4523   -0.5629 C   0  0  0  0  0  0  0  0  0  0  0  0
   -2.0221    0.3349    0.0806 C   0  0  0  0  0  0  0  0  0  0  0  0
   -3.3926   -0.2144   -0.2031 C   0  0  0  0  0  0  0  0  0  0  0  0
   -2.9270    0.9762   -0.7581 O   0  0  0  0  0  0  0  0  0  0  0  0
    3.7769    0.0216   -0.7137 H   0  0  0  0  0  0  0  0  0  0  0  0
    2.8824    1.1062   -1.8465 H   0  0  0  0  0  0  0  0  0  0  0  0
    2.8232    1.4629   -0.0591 H   0  0  0  0  0  0  0  0  0  0  0  0
    1.6529   -1.1795   -1.2472 H   0  0  0  0  0  0  0  0  0  0  0  0
    1.0157   -1.4547    1.1800 H   0  0  0  0  0  0  0  0  0  0  0  0
    1.7636    0.2338    1.5824 H   0  0  0  0  0  0  0  0  0  0  0  0
    0.2955    1.3592   -0.1293 H   0  0  0  0  0  0  0  0  0  0  0  0
   -0.8226   -1.4829   -0.1379 H   0  0  0  0  0  0  0  0  0  0  0  0
   -1.0092   -0.5298   -1.6516 H   0  0  0  0  0  0  0  0  0  0  0  0
   -1.8246    0.8799    1.0210 H   0  0  0  0  0  0  0  0  0  0  0  0
   -3.4915   -1.1164   -0.8213 H   0  0  0  0  0  0  0  0  0  0  0  0
   -4.0892   -0.1645    0.6716 H   0  0  0  0  0  0  0  0  0  0  0  0
  1  2  1  0
  2  3  1  0
  3  4  1  0
  4  5  1  0
  5  6  1  0
  6  7  1  0
  7  8  1  0
  4  2  1  0
  8  6  1  0
  1  9  1  0
  1 10  1  0
  1 11  1  0
  2 12  1  0
  3 13  1  0
  3 14  1  0
  4 15  1  0
  5 16  1  0
  5 17  1  0
  6 18  1  0
  7 19  1  0
  7 20  1  0
M  END
