
     RDKit          3D

 19 19  0  0  0  0  0  0  0  0999 V2000
   -1.3538   -1.4755    0.2856 C   0  0  0  0  0  0  0  0  0  0  0  0
   -0.8931   -0.2858   -0.5149 C   0  0  0  0  0  0  0  0  0  0  0  0
   -1.4348    0.9778    0.0396 C   0  0  0  0  0  0  0  0  0  0  0  0
   -0.5628    1.9519   -0.1375 C   0  0  0  0  0  0  0  0  0  0  0  0
    0.6613    1.4130   -0.8394 C   0  0  0  0  0  0  0  0  0  0  0  0
    0.5849   -0.0520   -0.4313 C   0  0  0  0  0  0  0  0  0  0  0  0
    1.0679   -0.1479    0.9018 O   0  0  0  0  0  0  0  0  0  0  0  0
    2.1524   -0.9290    1.2572 C   0  0  0  0  0  0  0  0  0  0  0  0
    2.7210   -1.5753    0.3398 O   0  0  0  0  0  0  0  0  0  0  0  0
   -0.7932   -2.3622   -0.0609 H   0  0  0  0  0  0  0  0  0  0  0  0
   -2.4185   -1.6513    0.0265 H   0  0  0  0  0  0  0  0  0  0  0  0
   -1.2501   -1.2631    1.3482 H   0  0  0  0  0  0  0  0  0  0  0  0
   -1.1738   -0.3407   -1.5702 H   0  0  0  0  0  0  0  0  0  0  0  0
   -2.3982    1.0470    0.5076 H   0  0  0  0  0  0  0  0  0  0  0  0
   -0.6499    2.9928    0.1509 H   0  0  0  0  0  0  0  0  0  0  0  0
    1.5702    1.9007   -0.4968 H   0  0  0  0  0  0  0  0  0  0  0  0
    0.4639    1.4844   -1.9225 H   0  0  0  0  0  0  0  0  0  0  0  0
    1.1684   -0.6647   -1.1376 H   0  0  0  0  0  0  0  0  0  0  0  0
    2.5381   -1.0201    2.2540 H   0  0  0  0  0  0  0  0  0  0  0  0
  1  2  1  0
  2  3  1  0
  3  4  2  0
  4  5  1  0
  5  6  1  0
  6  7  1  0
  7  8  1  0
  8  9  2  0
  6  2  1  0
  1 10  1  0
  1 11  1  0
  1 12  1  0
  2 13  1  0
  3 14  1  0
  4 15  1  0
  5 16  1  0
  5 17  1  0
  6 18  1  0
  8 19  1  0
M  END
