
     RDKit          3D

 21 22  0  0  0  0  0  0  0  0999 V2000
   -1.0332   -1.3980    1.1980 C   0  0  0  0  0  0  0  0  0  0  0  0
   -0.7239   -0.6612   -0.0695 C   0  0  0  0  0  0  0  0  0  0  0  0
    0.5783    0.0881   -0.0025 C   0  0  0  0  0  0  0  0  0  0  0  0
    1.7768   -0.7692   -0.2793 C   0  0  0  0  0  0  0  0  0  0  0  0
    2.9041    0.0619   -0.1814 O   0  0  0  0  0  0  0  0  0  0  0  0
    0.3683    1.1716   -1.0129 C   0  0  0  0  0  0  0  0  0  0  0  0
   -1.0691    1.5853   -0.6778 C   0  0  0  0  0  0  0  0  0  0  0  0
   -1.3026    1.5646    0.8081 O   0  0  0  0  0  0  0  0  0  0  0  0
   -1.7232    0.4956   -0.1646 C   0  0  0  0  0  0  0  0  0  0  0  0
   -2.0436   -1.8452    1.0874 H   0  0  0  0  0  0  0  0  0  0  0  0
   -0.2592   -2.1706    1.4246 H   0  0  0  0  0  0  0  0  0  0  0  0
   -1.0981   -0.6377    2.0152 H   0  0  0  0  0  0  0  0  0  0  0  0
   -0.8090   -1.2793   -0.9759 H   0  0  0  0  0  0  0  0  0  0  0  0
    0.6666    0.5141    1.0097 H   0  0  0  0  0  0  0  0  0  0  0  0
    1.7954   -1.2126   -1.2722 H   0  0  0  0  0  0  0  0  0  0  0  0
    1.8690   -1.5462    0.4834 H   0  0  0  0  0  0  0  0  0  0  0  0
    2.9403    0.5215    0.6971 H   0  0  0  0  0  0  0  0  0  0  0  0
    1.0677    2.0057   -0.9520 H   0  0  0  0  0  0  0  0  0  0  0  0
    0.3299    0.7050   -2.0296 H   0  0  0  0  0  0  0  0  0  0  0  0
   -1.4472    2.5315   -1.0510 H   0  0  0  0  0  0  0  0  0  0  0  0
   -2.7873    0.2751   -0.0547 H   0  0  0  0  0  0  0  0  0  0  0  0
  1  2  1  0
  2  3  1  0
  3  4  1  0
  4  5  1  0
  3  6  1  0
  6  7  1  0
  7  8  1  0
  8  9  1  0
  9  2  1  0
  9  7  1  0
  1 10  1  0
  1 11  1  0
  1 12  1  0
  2 13  1  0
  3 14  1  0
  4 15  1  0
  4 16  1  0
  5 17  1  0
  6 18  1  0
  6 19  1  0
  7 20  1  0
  9 21  1  0
M  END
