
     RDKit          3D

 22 22  0  0  0  0  0  0  0  0999 V2000
   -1.3285    1.9042   -0.2554 C   0  0  0  0  0  0  0  0  0  0  0  0
   -1.0468    0.6725    0.5384 C   0  0  0  0  0  0  0  0  0  0  0  0
   -1.0191   -0.6112   -0.2820 C   0  0  0  0  0  0  0  0  0  0  0  0
   -1.8081   -1.7357    0.2941 C   0  0  0  0  0  0  0  0  0  0  0  0
    0.2008   -0.1003    0.3817 C   0  0  0  0  0  0  0  0  0  0  0  0
    1.2981    0.5545   -0.4202 C   0  0  0  0  0  0  0  0  0  0  0  0
    2.5343   -0.3066   -0.5280 C   0  0  0  0  0  0  0  0  0  0  0  0
    3.0537   -0.5801    0.7266 O   0  0  0  0  0  0  0  0  0  0  0  0
   -1.1553    1.7484   -1.3562 H   0  0  0  0  0  0  0  0  0  0  0  0
   -0.7774    2.7937    0.1175 H   0  0  0  0  0  0  0  0  0  0  0  0
   -2.4090    2.1478   -0.1320 H   0  0  0  0  0  0  0  0  0  0  0  0
   -1.5630    0.6412    1.5288 H   0  0  0  0  0  0  0  0  0  0  0  0
   -1.0316   -0.5174   -1.3925 H   0  0  0  0  0  0  0  0  0  0  0  0
   -1.9286   -1.6234    1.3944 H   0  0  0  0  0  0  0  0  0  0  0  0
   -1.3445   -2.7216    0.1233 H   0  0  0  0  0  0  0  0  0  0  0  0
   -2.8606   -1.6955   -0.1117 H   0  0  0  0  0  0  0  0  0  0  0  0
    0.5608   -0.6343    1.2856 H   0  0  0  0  0  0  0  0  0  0  0  0
    1.5744    1.4954    0.0931 H   0  0  0  0  0  0  0  0  0  0  0  0
    0.9717    0.8199   -1.4466 H   0  0  0  0  0  0  0  0  0  0  0  0
    3.2803    0.2562   -1.1012 H   0  0  0  0  0  0  0  0  0  0  0  0
    2.2936   -1.2576   -1.0718 H   0  0  0  0  0  0  0  0  0  0  0  0
    2.5047   -1.2500    1.1939 H   0  0  0  0  0  0  0  0  0  0  0  0
  1  2  1  0
  2  3  1  0
  3  4  1  0
  3  5  1  0
  5  6  1  0
  6  7  1  0
  7  8  1  0
  5  2  1  0
  1  9  1  0
  1 10  1  0
  1 11  1  0
  2 12  1  0
  3 13  1  0
  4 14  1  0
  4 15  1  0
  4 16  1  0
  5 17  1  0
  6 18  1  0
  6 19  1  0
  7 20  1  0
  7 21  1  0
  8 22  1  0
M  END
