
     RDKit          3D

 21 23  0  0  0  0  0  0  0  0999 V2000
    2.3131    0.0155    0.4002 C   0  0  0  0  0  0  0  0  0  0  0  0
    1.1827    0.3926   -0.4953 C   0  0  0  0  0  0  0  0  0  0  0  0
    0.1759    1.3068    0.1169 C   0  0  0  0  0  0  0  0  0  0  0  0
   -1.1710    0.6308    0.0449 C   0  0  0  0  0  0  0  0  0  0  0  0
   -2.2494    1.4608   -0.1339 O   0  0  0  0  0  0  0  0  0  0  0  0
   -1.3377   -0.4795    1.0556 C   0  0  0  0  0  0  0  0  0  0  0  0
   -0.5256   -1.3583    0.1807 C   0  0  0  0  0  0  0  0  0  0  0  0
    0.4104   -0.8557   -0.8434 C   0  0  0  0  0  0  0  0  0  0  0  0
   -0.9522   -0.4361   -0.9883 C   0  0  0  0  0  0  0  0  0  0  0  0
    3.2057    0.6906    0.2784 H   0  0  0  0  0  0  0  0  0  0  0  0
    2.6892   -0.9891    0.0471 H   0  0  0  0  0  0  0  0  0  0  0  0
    2.0528   -0.1095    1.4528 H   0  0  0  0  0  0  0  0  0  0  0  0
    1.6008    0.7983   -1.4400 H   0  0  0  0  0  0  0  0  0  0  0  0
    0.4377    1.6574    1.1295 H   0  0  0  0  0  0  0  0  0  0  0  0
    0.1114    2.2259   -0.5172 H   0  0  0  0  0  0  0  0  0  0  0  0
   -3.0132    0.9344   -0.4523 H   0  0  0  0  0  0  0  0  0  0  0  0
   -0.9534   -0.3020    2.0550 H   0  0  0  0  0  0  0  0  0  0  0  0
   -2.4200   -0.8036    1.0400 H   0  0  0  0  0  0  0  0  0  0  0  0
   -0.7976   -2.4073    0.1370 H   0  0  0  0  0  0  0  0  0  0  0  0
    0.9614   -1.5873   -1.4179 H   0  0  0  0  0  0  0  0  0  0  0  0
   -1.7211   -0.7849   -1.6498 H   0  0  0  0  0  0  0  0  0  0  0  0
  1  2  1  0
  2  3  1  0
  3  4  1  0
  4  5  1  0
  4  6  1  0
  6  7  1  0
  7  8  1  0
  8  9  1  0
  8  2  1  0
  9  4  1  0
  9  7  1  0
  1 10  1  0
  1 11  1  0
  1 12  1  0
  2 13  1  0
  3 14  1  0
  3 15  1  0
  5 16  1  0
  6 17  1  0
  6 18  1  0
  7 19  1  0
  8 20  1  0
  9 21  1  0
M  END
