
     RDKit          3D

 23 24  0  0  0  0  0  0  0  0999 V2000
    2.0601   -0.2864    0.9633 C   0  0  0  0  0  0  0  0  0  0  0  0
    1.0432    0.0303   -0.1116 C   0  0  0  0  0  0  0  0  0  0  0  0
    0.5079    1.4132   -0.0167 C   0  0  0  0  0  0  0  0  0  0  0  0
   -0.9713    1.5272    0.0422 C   0  0  0  0  0  0  0  0  0  0  0  0
   -1.6975    0.2473   -0.1659 C   0  0  0  0  0  0  0  0  0  0  0  0
   -1.1543   -0.7819    0.7983 C   0  0  0  0  0  0  0  0  0  0  0  0
   -0.0426   -1.0087   -0.1921 C   0  0  0  0  0  0  0  0  0  0  0  0
    0.3817   -2.2971   -0.3094 O   0  0  0  0  0  0  0  0  0  0  0  0
   -1.0142   -0.5288   -1.2765 C   0  0  0  0  0  0  0  0  0  0  0  0
    2.7878    0.5705    0.9577 H   0  0  0  0  0  0  0  0  0  0  0  0
    1.6361   -0.3996    1.9577 H   0  0  0  0  0  0  0  0  0  0  0  0
    2.6415   -1.1592    0.6008 H   0  0  0  0  0  0  0  0  0  0  0  0
    1.6117   -0.0408   -1.0860 H   0  0  0  0  0  0  0  0  0  0  0  0
    0.8596    2.0730   -0.8646 H   0  0  0  0  0  0  0  0  0  0  0  0
    0.9795    1.8899    0.8936 H   0  0  0  0  0  0  0  0  0  0  0  0
   -1.3802    2.2721   -0.6992 H   0  0  0  0  0  0  0  0  0  0  0  0
   -1.2865    1.9509    1.0409 H   0  0  0  0  0  0  0  0  0  0  0  0
   -2.7707    0.3364   -0.2486 H   0  0  0  0  0  0  0  0  0  0  0  0
   -0.8683   -0.4070    1.7800 H   0  0  0  0  0  0  0  0  0  0  0  0
   -1.7907   -1.6820    0.8790 H   0  0  0  0  0  0  0  0  0  0  0  0
    0.6355   -2.5883   -1.2022 H   0  0  0  0  0  0  0  0  0  0  0  0
   -1.6014   -1.3177   -1.7457 H   0  0  0  0  0  0  0  0  0  0  0  0
   -0.5669    0.1867   -1.9948 H   0  0  0  0  0  0  0  0  0  0  0  0
  1  2  1  0
  2  3  1  0
  3  4  1  0
  4  5  1  0
  5  6  1  0
  6  7  1  0
  7  8  1  0
  7  9  1  0
  7  2  1  0
  9  5  1  0
  1 10  1  0
  1 11  1  0
  1 12  1  0
  2 13  1  0
  3 14  1  0
  3 15  1  0
  4 16  1  0
  4 17  1  0
  5 18  1  0
  6 19  1  0
  6 20  1  0
  8 21  1  0
  9 22  1  0
  9 23  1  0
M  END
