
     RDKit          3D

 21 22  0  0  0  0  0  0  0  0999 V2000
    0.4262    1.9807   -0.0880 C   0  0  0  0  0  0  0  0  0  0  0  0
    0.3281    0.5783    0.3660 C   0  0  0  0  0  0  0  0  0  0  0  0
   -0.7530   -0.2793   -0.1758 C   0  0  0  0  0  0  0  0  0  0  0  0
   -2.1076   -0.2159    0.0317 C   0  0  0  0  0  0  0  0  0  0  0  0
   -0.0260   -0.2492   -1.4915 C   0  0  0  0  0  0  0  0  0  0  0  0
    1.0684   -0.4564   -0.4812 C   0  0  0  0  0  0  0  0  0  0  0  0
    2.3019   -0.5184   -0.6653 O   0  0  0  0  0  0  0  0  0  0  0  0
    0.1542   -1.4439    0.1708 C   0  0  0  0  0  0  0  0  0  0  0  0
    0.4292   -1.5940    1.5134 O   0  0  0  0  0  0  0  0  0  0  0  0
    0.3122    2.6724    0.7905 H   0  0  0  0  0  0  0  0  0  0  0  0
   -0.2886    2.3086   -0.8362 H   0  0  0  0  0  0  0  0  0  0  0  0
    1.4804    2.1501   -0.4579 H   0  0  0  0  0  0  0  0  0  0  0  0
    0.5000    0.4178    1.4554 H   0  0  0  0  0  0  0  0  0  0  0  0
   -2.7086   -0.5289   -0.8593 H   0  0  0  0  0  0  0  0  0  0  0  0
   -2.4756   -0.8558    0.8611 H   0  0  0  0  0  0  0  0  0  0  0  0
   -2.4774    0.8093    0.2708 H   0  0  0  0  0  0  0  0  0  0  0  0
   -0.1878   -1.1839   -2.0660 H   0  0  0  0  0  0  0  0  0  0  0  0
   -0.0276    0.6874   -2.0462 H   0  0  0  0  0  0  0  0  0  0  0  0
    2.8403    0.2221   -0.3198 H   0  0  0  0  0  0  0  0  0  0  0  0
   -0.0523   -2.3486   -0.4040 H   0  0  0  0  0  0  0  0  0  0  0  0
    1.2636   -2.1526    1.5742 H   0  0  0  0  0  0  0  0  0  0  0  0
  1  2  1  0
  2  3  1  0
  3  4  1  0
  3  5  1  0
  5  6  1  0
  6  7  1  0
  6  8  1  0
  8  9  1  0
  6  2  1  0
  8  3  1  0
  1 10  1  0
  1 11  1  0
  1 12  1  0
  2 13  1  0
  4 14  1  0
  4 15  1  0
  4 16  1  0
  5 17  1  0
  5 18  1  0
  7 19  1  0
  8 20  1  0
  9 21  1  0
M  END
