
     RDKit          3D

 23 24  0  0  0  0  0  0  0  0999 V2000
    2.6114    0.5833    0.4182 C   0  0  0  0  0  0  0  0  0  0  0  0
    1.4772    0.2399   -0.4939 C   0  0  0  0  0  0  0  0  0  0  0  0
    1.3490   -1.2903   -0.5618 C   0  0  0  0  0  0  0  0  0  0  0  0
    0.0858   -1.4014   -1.1590 O   0  0  0  0  0  0  0  0  0  0  0  0
   -0.7021   -0.5978   -0.3335 C   0  0  0  0  0  0  0  0  0  0  0  0
   -1.5202   -1.3601    0.6615 C   0  0  0  0  0  0  0  0  0  0  0  0
   -1.0606    0.7779   -0.7525 C   0  0  0  0  0  0  0  0  0  0  0  0
   -2.2559    1.4016   -0.0453 C   0  0  0  0  0  0  0  0  0  0  0  0
    0.1284    0.5752    0.0810 C   0  0  0  0  0  0  0  0  0  0  0  0
    2.7055    1.6932    0.4400 H   0  0  0  0  0  0  0  0  0  0  0  0
    3.5318    0.0902    0.0932 H   0  0  0  0  0  0  0  0  0  0  0  0
    2.3839    0.2202    1.4399 H   0  0  0  0  0  0  0  0  0  0  0  0
    1.6363    0.6274   -1.5136 H   0  0  0  0  0  0  0  0  0  0  0  0
    1.2683   -1.6225    0.4866 H   0  0  0  0  0  0  0  0  0  0  0  0
    2.1442   -1.7493   -1.1399 H   0  0  0  0  0  0  0  0  0  0  0  0
   -2.1820   -0.7495    1.2760 H   0  0  0  0  0  0  0  0  0  0  0  0
   -0.8731   -2.0339    1.2828 H   0  0  0  0  0  0  0  0  0  0  0  0
   -2.1738   -2.0683    0.0801 H   0  0  0  0  0  0  0  0  0  0  0  0
   -1.0235    1.0143   -1.8314 H   0  0  0  0  0  0  0  0  0  0  0  0
   -2.5435    2.3662   -0.5231 H   0  0  0  0  0  0  0  0  0  0  0  0
   -2.0132    1.6464    1.0073 H   0  0  0  0  0  0  0  0  0  0  0  0
   -3.1213    0.6956   -0.0185 H   0  0  0  0  0  0  0  0  0  0  0  0
    0.1475    0.9418    1.1057 H   0  0  0  0  0  0  0  0  0  0  0  0
  1  2  1  0
  2  3  1  0
  3  4  1  0
  4  5  1  0
  5  6  1  0
  5  7  1  0
  7  8  1  0
  7  9  1  0
  9  2  1  0
  9  5  1  0
  1 10  1  0
  1 11  1  0
  1 12  1  0
  2 13  1  0
  3 14  1  0
  3 15  1  0
  6 16  1  0
  6 17  1  0
  6 18  1  0
  7 19  1  0
  8 20  1  0
  8 21  1  0
  8 22  1  0
  9 23  1  0
M  END
