
     RDKit          3D

 18 18  0  0  0  0  0  0  0  0999 V2000
   -2.0014    0.0833    0.4342 C   0  0  0  0  0  0  0  0  0  0  0  0
   -0.7370   -0.3754   -0.2649 C   0  0  0  0  0  0  0  0  0  0  0  0
   -0.0584    0.7944   -0.9171 C   0  0  0  0  0  0  0  0  0  0  0  0
    1.4127    0.6219   -0.6796 C   0  0  0  0  0  0  0  0  0  0  0  0
    1.5623   -0.3178    0.4782 C   0  0  0  0  0  0  0  0  0  0  0  0
    0.2377   -0.9764    0.7123 C   0  0  0  0  0  0  0  0  0  0  0  0
   -1.8650   -0.0944    1.5299 H   0  0  0  0  0  0  0  0  0  0  0  0
   -2.1461    1.1627    0.2902 H   0  0  0  0  0  0  0  0  0  0  0  0
   -2.8584   -0.5306    0.1077 H   0  0  0  0  0  0  0  0  0  0  0  0
   -1.0020   -1.0940   -1.0701 H   0  0  0  0  0  0  0  0  0  0  0  0
   -0.4480    1.7478   -0.4886 H   0  0  0  0  0  0  0  0  0  0  0  0
   -0.2610    0.8225   -2.0172 H   0  0  0  0  0  0  0  0  0  0  0  0
    1.8640    1.6017   -0.4260 H   0  0  0  0  0  0  0  0  0  0  0  0
    1.9375    0.2513   -1.5864 H   0  0  0  0  0  0  0  0  0  0  0  0
    1.9329    0.2139    1.3690 H   0  0  0  0  0  0  0  0  0  0  0  0
    2.3012   -1.0991    0.2048 H   0  0  0  0  0  0  0  0  0  0  0  0
    0.2575   -2.0765    0.5839 H   0  0  0  0  0  0  0  0  0  0  0  0
   -0.1284   -0.7353    1.7397 H   0  0  0  0  0  0  0  0  0  0  0  0
  1  2  1  0
  2  3  1  0
  3  4  1  0
  4  5  1  0
  5  6  1  0
  6  2  1  0
  1  7  1  0
  1  8  1  0
  1  9  1  0
  2 10  1  0
  3 11  1  0
  3 12  1  0
  4 13  1  0
  4 14  1  0
  5 15  1  0
  5 16  1  0
  6 17  1  0
  6 18  1  0
M  END
