
     RDKit          3D

 19 20  0  0  0  0  0  0  0  0999 V2000
   -2.3489    0.3810    0.1737 C   0  0  0  0  0  0  0  0  0  0  0  0
   -0.9095    0.4298   -0.2431 C   0  0  0  0  0  0  0  0  0  0  0  0
   -0.4964   -1.0088   -0.5604 C   0  0  0  0  0  0  0  0  0  0  0  0
    0.9897   -0.9992   -0.4375 C   0  0  0  0  0  0  0  0  0  0  0  0
    1.6073   -0.1994   -1.3919 O   0  0  0  0  0  0  0  0  0  0  0  0
    2.2015    0.5295   -0.3797 C   0  0  0  0  0  0  0  0  0  0  0  0
    1.2511   -0.0031    0.6664 C   0  0  0  0  0  0  0  0  0  0  0  0
    0.0164    0.7677    0.8557 C   0  0  0  0  0  0  0  0  0  0  0  0
   -0.2050    1.5452    1.7553 O   0  0  0  0  0  0  0  0  0  0  0  0
   -2.8679    1.3553    0.0733 H   0  0  0  0  0  0  0  0  0  0  0  0
   -2.4064   -0.0165    1.1898 H   0  0  0  0  0  0  0  0  0  0  0  0
   -2.8721   -0.3073   -0.5506 H   0  0  0  0  0  0  0  0  0  0  0  0
   -0.7339    1.0216   -1.1613 H   0  0  0  0  0  0  0  0  0  0  0  0
   -0.9309   -1.6335    0.2417 H   0  0  0  0  0  0  0  0  0  0  0  0
   -0.8715   -1.2558   -1.5627 H   0  0  0  0  0  0  0  0  0  0  0  0
    1.4513   -1.9931   -0.3093 H   0  0  0  0  0  0  0  0  0  0  0  0
    2.1526    1.6253   -0.5383 H   0  0  0  0  0  0  0  0  0  0  0  0
    3.2344    0.1747   -0.1898 H   0  0  0  0  0  0  0  0  0  0  0  0
    1.7383   -0.4133    1.5587 H   0  0  0  0  0  0  0  0  0  0  0  0
  1  2  1  0
  2  3  1  0
  3  4  1  0
  4  5  1  0
  5  6  1  0
  6  7  1  0
  7  8  1  0
  8  9  2  0
  8  2  1  0
  7  4  1  0
  1 10  1  0
  1 11  1  0
  1 12  1  0
  2 13  1  0
  3 14  1  0
  3 15  1  0
  4 16  1  0
  6 17  1  0
  6 18  1  0
  7 19  1  0
M  END
