
     RDKit          3D

 19 20  0  0  0  0  0  0  0  0999 V2000
    2.0825   -0.1890   -0.2297 C   0  0  0  0  0  0  0  0  0  0  0  0
    0.6177    0.0568   -0.4662 C   0  0  0  0  0  0  0  0  0  0  0  0
    0.0532    1.1716    0.3433 C   0  0  0  0  0  0  0  0  0  0  0  0
   -0.7241    2.0526   -0.4061 O   0  0  0  0  0  0  0  0  0  0  0  0
   -0.8019    0.4853    1.3389 C   0  0  0  0  0  0  0  0  0  0  0  0
   -1.0596    0.9235    2.4402 O   0  0  0  0  0  0  0  0  0  0  0  0
   -1.2773   -0.7806    0.7941 C   0  0  0  0  0  0  0  0  0  0  0  0
   -1.6715   -0.9766   -0.6064 C   0  0  0  0  0  0  0  0  0  0  0  0
   -0.2368   -1.1393   -0.2273 C   0  0  0  0  0  0  0  0  0  0  0  0
    2.3586   -1.1067   -0.7693 H   0  0  0  0  0  0  0  0  0  0  0  0
    2.6436    0.6514   -0.6742 H   0  0  0  0  0  0  0  0  0  0  0  0
    2.3414   -0.2153    0.8466 H   0  0  0  0  0  0  0  0  0  0  0  0
    0.5114    0.3516   -1.5516 H   0  0  0  0  0  0  0  0  0  0  0  0
    0.8625    1.7765    0.8037 H   0  0  0  0  0  0  0  0  0  0  0  0
   -0.1787    2.6893   -0.9184 H   0  0  0  0  0  0  0  0  0  0  0  0
   -1.6012   -1.5762    1.5188 H   0  0  0  0  0  0  0  0  0  0  0  0
   -1.9389   -0.1286   -1.2744 H   0  0  0  0  0  0  0  0  0  0  0  0
   -2.1873   -1.9049   -0.8699 H   0  0  0  0  0  0  0  0  0  0  0  0
    0.2063   -2.1415   -0.0924 H   0  0  0  0  0  0  0  0  0  0  0  0
  1  2  1  0
  2  3  1  0
  3  4  1  0
  3  5  1  0
  5  6  2  0
  5  7  1  0
  7  8  1  0
  8  9  1  0
  9  2  1  0
  9  7  1  0
  1 10  1  0
  1 11  1  0
  1 12  1  0
  2 13  1  0
  3 14  1  0
  4 15  1  0
  7 16  1  0
  8 17  1  0
  8 18  1  0
  9 19  1  0
M  END
