
     RDKit          3D

 21 23  0  0  0  0  0  0  0  0999 V2000
   -0.3058    2.0908    0.4630 C   0  0  0  0  0  0  0  0  0  0  0  0
    0.0590    0.8388   -0.3344 C   0  0  0  0  0  0  0  0  0  0  0  0
    1.0419    0.0491    0.4716 C   0  0  0  0  0  0  0  0  0  0  0  0
    2.1893   -0.5788   -0.3484 C   0  0  0  0  0  0  0  0  0  0  0  0
    1.0443   -1.3861    0.2666 C   0  0  0  0  0  0  0  0  0  0  0  0
    0.2024   -1.9192   -0.6492 O   0  0  0  0  0  0  0  0  0  0  0  0
   -1.0567   -1.3815   -0.7097 C   0  0  0  0  0  0  0  0  0  0  0  0
   -1.7513   -0.7601    0.4111 C   0  0  0  0  0  0  0  0  0  0  0  0
   -1.1690    0.0698   -0.6942 C   0  0  0  0  0  0  0  0  0  0  0  0
    0.2819    2.1428    1.4171 H   0  0  0  0  0  0  0  0  0  0  0  0
   -0.0449    3.0175   -0.0889 H   0  0  0  0  0  0  0  0  0  0  0  0
   -1.3712    2.0644    0.7840 H   0  0  0  0  0  0  0  0  0  0  0  0
    0.5423    1.1885   -1.2696 H   0  0  0  0  0  0  0  0  0  0  0  0
    1.3287    0.4361    1.4915 H   0  0  0  0  0  0  0  0  0  0  0  0
    2.1863   -0.3905   -1.4305 H   0  0  0  0  0  0  0  0  0  0  0  0
    3.1614   -0.5628    0.1392 H   0  0  0  0  0  0  0  0  0  0  0  0
    1.3889   -2.0579    1.0755 H   0  0  0  0  0  0  0  0  0  0  0  0
   -1.7170   -1.9290   -1.4464 H   0  0  0  0  0  0  0  0  0  0  0  0
   -2.8732   -0.8325    0.4650 H   0  0  0  0  0  0  0  0  0  0  0  0
   -1.3130   -0.6551    1.4310 H   0  0  0  0  0  0  0  0  0  0  0  0
   -1.8243    0.5555   -1.4442 H   0  0  0  0  0  0  0  0  0  0  0  0
  1  2  1  0
  2  3  1  0
  3  4  1  0
  4  5  1  0
  5  6  1  0
  6  7  1  0
  7  8  1  0
  8  9  1  0
  9  2  1  0
  5  3  1  0
  9  7  1  0
  1 10  1  0
  1 11  1  0
  1 12  1  0
  2 13  1  0
  3 14  1  0
  4 15  1  0
  4 16  1  0
  5 17  1  0
  7 18  1  0
  8 19  1  0
  8 20  1  0
  9 21  1  0
M  END
