
     RDKit          3D

 23 24  0  0  0  0  0  0  0  0999 V2000
   -2.1689    1.6645    0.2155 C   0  0  0  0  0  0  0  0  0  0  0  0
   -1.1150    0.5935    0.2693 C   0  0  0  0  0  0  0  0  0  0  0  0
   -1.5177   -0.6585   -0.4653 C   0  0  0  0  0  0  0  0  0  0  0  0
   -0.4654   -1.7088   -0.0865 C   0  0  0  0  0  0  0  0  0  0  0  0
    0.9175   -1.1958   -0.1966 C   0  0  0  0  0  0  0  0  0  0  0  0
    1.4651   -0.5475    1.0738 C   0  0  0  0  0  0  0  0  0  0  0  0
    1.1312    0.2311   -0.1653 C   0  0  0  0  0  0  0  0  0  0  0  0
    2.3810    0.7970   -0.8552 C   0  0  0  0  0  0  0  0  0  0  0  0
    0.0590    1.0624   -0.2357 O   0  0  0  0  0  0  0  0  0  0  0  0
   -1.8764    2.4447    0.9632 H   0  0  0  0  0  0  0  0  0  0  0  0
   -3.1172    1.2030    0.5903 H   0  0  0  0  0  0  0  0  0  0  0  0
   -2.2753    2.1302   -0.7736 H   0  0  0  0  0  0  0  0  0  0  0  0
   -0.9964    0.3090    1.3442 H   0  0  0  0  0  0  0  0  0  0  0  0
   -2.4916   -1.0369   -0.0792 H   0  0  0  0  0  0  0  0  0  0  0  0
   -1.5293   -0.5646   -1.5482 H   0  0  0  0  0  0  0  0  0  0  0  0
   -0.6916   -2.6167   -0.6520 H   0  0  0  0  0  0  0  0  0  0  0  0
   -0.6879   -1.9440    0.9955 H   0  0  0  0  0  0  0  0  0  0  0  0
    1.6158   -1.8787   -0.7630 H   0  0  0  0  0  0  0  0  0  0  0  0
    2.5080   -0.8149    1.2999 H   0  0  0  0  0  0  0  0  0  0  0  0
    0.8033   -0.4467    1.9375 H   0  0  0  0  0  0  0  0  0  0  0  0
    2.6720    1.6801   -0.2132 H   0  0  0  0  0  0  0  0  0  0  0  0
    2.1547    1.1944   -1.8491 H   0  0  0  0  0  0  0  0  0  0  0  0
    3.2252    0.1032   -0.8062 H   0  0  0  0  0  0  0  0  0  0  0  0
  1  2  1  0
  2  3  1  0
  3  4  1  0
  4  5  1  0
  5  6  1  0
  6  7  1  0
  7  8  1  0
  7  9  1  0
  9  2  1  0
  7  5  1  0
  1 10  1  0
  1 11  1  0
  1 12  1  0
  2 13  1  0
  3 14  1  0
  3 15  1  0
  4 16  1  0
  4 17  1  0
  5 18  1  0
  6 19  1  0
  6 20  1  0
  8 21  1  0
  8 22  1  0
  8 23  1  0
M  END
