
     RDKit          3D

 21 24  0  0  0  0  0  0  0  0999 V2000
    2.2559   -0.6519    0.2695 C   0  0  0  0  0  0  0  0  0  0  0  0
    0.9590    0.0214    0.7414 C   0  0  0  0  0  0  0  0  0  0  0  0
    0.7266    1.1954   -0.1391 C   0  0  0  0  0  0  0  0  0  0  0  0
   -0.6618    1.3757   -0.6200 C   0  0  0  0  0  0  0  0  0  0  0  0
   -1.2748    0.1787   -1.1805 C   0  0  0  0  0  0  0  0  0  0  0  0
   -1.7351    0.7593    0.1397 C   0  0  0  0  0  0  0  0  0  0  0  0
   -1.4743   -0.5494    0.7651 C   0  0  0  0  0  0  0  0  0  0  0  0
   -0.1025   -1.0236    0.6826 C   0  0  0  0  0  0  0  0  0  0  0  0
   -0.8667   -1.1045   -0.5680 C   0  0  0  0  0  0  0  0  0  0  0  0
    2.4211   -1.6045    0.7775 H   0  0  0  0  0  0  0  0  0  0  0  0
    2.0595   -0.9018   -0.8135 H   0  0  0  0  0  0  0  0  0  0  0  0
    3.1015    0.0502    0.3041 H   0  0  0  0  0  0  0  0  0  0  0  0
    1.1477    0.2871    1.8099 H   0  0  0  0  0  0  0  0  0  0  0  0
    1.4021    1.2000   -1.0454 H   0  0  0  0  0  0  0  0  0  0  0  0
    1.0258    2.1365    0.4107 H   0  0  0  0  0  0  0  0  0  0  0  0
   -0.8746    2.3349   -1.1132 H   0  0  0  0  0  0  0  0  0  0  0  0
   -1.9463    0.1514   -2.0342 H   0  0  0  0  0  0  0  0  0  0  0  0
   -2.7039    1.2530    0.2267 H   0  0  0  0  0  0  0  0  0  0  0  0
   -2.3085   -1.1161    1.1763 H   0  0  0  0  0  0  0  0  0  0  0  0
    0.1474   -1.9713    1.1719 H   0  0  0  0  0  0  0  0  0  0  0  0
   -1.2983   -2.0206   -0.9616 H   0  0  0  0  0  0  0  0  0  0  0  0
  1  2  1  0
  2  3  1  0
  3  4  1  0
  4  5  1  0
  5  6  1  0
  6  7  1  0
  7  8  1  0
  8  9  1  0
  8  2  1  0
  6  4  1  0
  9  7  1  0
  9  5  1  0
  1 10  1  0
  1 11  1  0
  1 12  1  0
  2 13  1  0
  3 14  1  0
  3 15  1  0
  4 16  1  0
  5 17  1  0
  6 18  1  0
  7 19  1  0
  8 20  1  0
  9 21  1  0
M  END
