
     RDKit          3D

 23 24  0  0  0  0  0  0  0  0999 V2000
    2.1380   -0.8023    0.6393 C   0  0  0  0  0  0  0  0  0  0  0  0
    0.8922   -0.4686   -0.0895 C   0  0  0  0  0  0  0  0  0  0  0  0
   -0.3632   -0.9922    0.4922 C   0  0  0  0  0  0  0  0  0  0  0  0
   -1.3799   -1.0836   -0.6498 C   0  0  0  0  0  0  0  0  0  0  0  0
   -1.5082    0.3784   -1.0529 C   0  0  0  0  0  0  0  0  0  0  0  0
   -0.7971    1.1802    0.0099 C   0  0  0  0  0  0  0  0  0  0  0  0
   -0.9453    0.2364    1.2127 C   0  0  0  0  0  0  0  0  0  0  0  0
    0.6762    1.0410   -0.2440 C   0  0  0  0  0  0  0  0  0  0  0  0
    1.4645    1.7544    0.6208 O   0  0  0  0  0  0  0  0  0  0  0  0
    2.9344   -0.0318    0.5152 H   0  0  0  0  0  0  0  0  0  0  0  0
    1.9323   -1.0529    1.6912 H   0  0  0  0  0  0  0  0  0  0  0  0
    2.5848   -1.7390    0.1935 H   0  0  0  0  0  0  0  0  0  0  0  0
    0.9876   -0.8707   -1.1406 H   0  0  0  0  0  0  0  0  0  0  0  0
   -0.3130   -1.8652    1.1053 H   0  0  0  0  0  0  0  0  0  0  0  0
   -0.9269   -1.7055   -1.4190 H   0  0  0  0  0  0  0  0  0  0  0  0
   -2.3297   -1.4457   -0.2384 H   0  0  0  0  0  0  0  0  0  0  0  0
   -2.5358    0.6856   -1.2359 H   0  0  0  0  0  0  0  0  0  0  0  0
   -0.9087    0.4940   -1.9933 H   0  0  0  0  0  0  0  0  0  0  0  0
   -1.1658    2.1676    0.1823 H   0  0  0  0  0  0  0  0  0  0  0  0
   -0.3405    0.5430    2.0585 H   0  0  0  0  0  0  0  0  0  0  0  0
   -1.9909    0.0025    1.4174 H   0  0  0  0  0  0  0  0  0  0  0  0
    0.8848    1.3774   -1.2773 H   0  0  0  0  0  0  0  0  0  0  0  0
    1.0103    2.1969    1.3520 H   0  0  0  0  0  0  0  0  0  0  0  0
  1  2  1  0
  2  3  1  0
  3  4  1  0
  4  5  1  0
  5  6  1  0
  6  7  1  0
  6  8  1  0
  8  9  1  0
  8  2  1  0
  7  3  1  0
  1 10  1  0
  1 11  1  0
  1 12  1  0
  2 13  1  0
  3 14  1  0
  4 15  1  0
  4 16  1  0
  5 17  1  0
  5 18  1  0
  6 19  1  0
  7 20  1  0
  7 21  1  0
  8 22  1  0
  9 23  1  0
M  END
