
     RDKit          3D

 21 22  0  0  0  0  0  0  0  0999 V2000
   -2.5838    0.5873    0.2712 C   0  0  0  0  0  0  0  0  0  0  0  0
   -1.1502    0.5457   -0.1592 C   0  0  0  0  0  0  0  0  0  0  0  0
   -0.7661   -0.7570   -0.8230 C   0  0  0  0  0  0  0  0  0  0  0  0
    0.7363   -0.8410   -0.9118 C   0  0  0  0  0  0  0  0  0  0  0  0
    1.2369   -1.0351    0.5298 C   0  0  0  0  0  0  0  0  0  0  0  0
    1.0142    0.4804    0.6545 C   0  0  0  0  0  0  0  0  0  0  0  0
   -0.3019    0.7429    0.9062 O   0  0  0  0  0  0  0  0  0  0  0  0
    1.3897    0.5338   -0.8056 C   0  0  0  0  0  0  0  0  0  0  0  0
    2.7627    0.4042   -0.9458 O   0  0  0  0  0  0  0  0  0  0  0  0
   -2.9440    1.6583    0.2608 H   0  0  0  0  0  0  0  0  0  0  0  0
   -2.7773    0.2063    1.2744 H   0  0  0  0  0  0  0  0  0  0  0  0
   -3.2492    0.0830   -0.4893 H   0  0  0  0  0  0  0  0  0  0  0  0
   -1.0129    1.3985   -0.8820 H   0  0  0  0  0  0  0  0  0  0  0  0
   -1.0670   -1.5786   -0.1131 H   0  0  0  0  0  0  0  0  0  0  0  0
   -1.2792   -0.9385   -1.7706 H   0  0  0  0  0  0  0  0  0  0  0  0
    1.1580   -1.5157   -1.6429 H   0  0  0  0  0  0  0  0  0  0  0  0
    2.3352   -1.2458    0.5654 H   0  0  0  0  0  0  0  0  0  0  0  0
    0.5974   -1.6476    1.1581 H   0  0  0  0  0  0  0  0  0  0  0  0
    1.7103    0.9691    1.3490 H   0  0  0  0  0  0  0  0  0  0  0  0
    0.9568    1.3186   -1.4076 H   0  0  0  0  0  0  0  0  0  0  0  0
    3.2341    0.6313   -0.1220 H   0  0  0  0  0  0  0  0  0  0  0  0
  1  2  1  0
  2  3  1  0
  3  4  1  0
  4  5  1  0
  5  6  1  0
  6  7  1  0
  6  8  1  0
  8  9  1  0
  7  2  1  0
  8  4  1  0
  1 10  1  0
  1 11  1  0
  1 12  1  0
  2 13  1  0
  3 14  1  0
  3 15  1  0
  4 16  1  0
  5 17  1  0
  5 18  1  0
  6 19  1  0
  8 20  1  0
  9 21  1  0
M  END
