
     RDKit          3D

 23 24  0  0  0  0  0  0  0  0999 V2000
    1.6903   -0.3794    1.0055 C   0  0  0  0  0  0  0  0  0  0  0  0
    1.0992   -0.0954   -0.2930 C   0  0  0  0  0  0  0  0  0  0  0  0
    0.2953   -1.1688   -0.9851 C   0  0  0  0  0  0  0  0  0  0  0  0
    0.0686   -0.5755   -2.2300 O   0  0  0  0  0  0  0  0  0  0  0  0
   -0.3027    0.7569   -1.9056 C   0  0  0  0  0  0  0  0  0  0  0  0
   -0.2040    0.6493   -0.3810 C   0  0  0  0  0  0  0  0  0  0  0  0
   -0.5092    1.7621    0.4467 C   0  0  0  0  0  0  0  0  0  0  0  0
   -0.9004   -0.6860   -0.2098 C   0  0  0  0  0  0  0  0  0  0  0  0
   -1.1099   -1.1778    1.1531 C   0  0  0  0  0  0  0  0  0  0  0  0
    2.8120   -0.3605    0.9254 H   0  0  0  0  0  0  0  0  0  0  0  0
    1.4596    0.4115    1.7692 H   0  0  0  0  0  0  0  0  0  0  0  0
    1.4603   -1.3657    1.4547 H   0  0  0  0  0  0  0  0  0  0  0  0
    1.8201    0.3410   -1.0225 H   0  0  0  0  0  0  0  0  0  0  0  0
    0.5980   -2.1741   -0.9353 H   0  0  0  0  0  0  0  0  0  0  0  0
   -1.3217    0.9822   -2.2256 H   0  0  0  0  0  0  0  0  0  0  0  0
    0.4643    1.4679   -2.2598 H   0  0  0  0  0  0  0  0  0  0  0  0
    0.0885    1.8634    1.3537 H   0  0  0  0  0  0  0  0  0  0  0  0
   -0.3914    2.7383   -0.1103 H   0  0  0  0  0  0  0  0  0  0  0  0
   -1.5964    1.7670    0.7521 H   0  0  0  0  0  0  0  0  0  0  0  0
   -1.8017   -0.7142   -0.8656 H   0  0  0  0  0  0  0  0  0  0  0  0
   -0.7619   -2.2473    1.2501 H   0  0  0  0  0  0  0  0  0  0  0  0
   -2.2240   -1.2524    1.3387 H   0  0  0  0  0  0  0  0  0  0  0  0
   -0.7328   -0.5425    1.9743 H   0  0  0  0  0  0  0  0  0  0  0  0
  1  2  1  0
  2  3  1  0
  3  4  1  0
  4  5  1  0
  5  6  1  0
  6  7  1  0
  6  8  1  0
  8  9  1  0
  6  2  1  0
  8  3  1  0
  1 10  1  0
  1 11  1  0
  1 12  1  0
  2 13  1  0
  3 14  1  0
  5 15  1  0
  5 16  1  0
  7 17  1  0
  7 18  1  0
  7 19  1  0
  8 20  1  0
  9 21  1  0
  9 22  1  0
  9 23  1  0
M  END
