
     RDKit          3D

 21 22  0  0  0  0  0  0  0  0999 V2000
   -1.7798    1.4172    0.0545 C   0  0  0  0  0  0  0  0  0  0  0  0
   -0.7188    0.4819   -0.4383 C   0  0  0  0  0  0  0  0  0  0  0  0
   -1.3099   -0.9471   -0.3881 C   0  0  0  0  0  0  0  0  0  0  0  0
   -0.1683   -1.8098    0.1939 C   0  0  0  0  0  0  0  0  0  0  0  0
    0.9759   -0.9343   -0.1358 C   0  0  0  0  0  0  0  0  0  0  0  0
    1.7293    0.0568    0.5433 C   0  0  0  0  0  0  0  0  0  0  0  0
    2.6061    0.9741   -0.2268 C   0  0  0  0  0  0  0  0  0  0  0  0
    3.7121    1.2797    0.1710 O   0  0  0  0  0  0  0  0  0  0  0  0
    0.3427    0.3323    0.5774 C   0  0  0  0  0  0  0  0  0  0  0  0
   -2.0800    2.1312   -0.7326 H   0  0  0  0  0  0  0  0  0  0  0  0
   -2.7151    0.8831    0.3597 H   0  0  0  0  0  0  0  0  0  0  0  0
   -1.4497    1.9866    0.9538 H   0  0  0  0  0  0  0  0  0  0  0  0
   -0.3685    0.7048   -1.4524 H   0  0  0  0  0  0  0  0  0  0  0  0
   -1.5947   -1.2787   -1.3856 H   0  0  0  0  0  0  0  0  0  0  0  0
   -2.1629   -0.9777    0.3195 H   0  0  0  0  0  0  0  0  0  0  0  0
   -0.1309   -2.7744   -0.3213 H   0  0  0  0  0  0  0  0  0  0  0  0
   -0.3166   -1.9139    1.2822 H   0  0  0  0  0  0  0  0  0  0  0  0
    1.0417   -0.8631   -1.2672 H   0  0  0  0  0  0  0  0  0  0  0  0
    2.2344   -0.2840    1.4973 H   0  0  0  0  0  0  0  0  0  0  0  0
    2.3150    1.4193   -1.1765 H   0  0  0  0  0  0  0  0  0  0  0  0
   -0.1620    0.1159    1.5722 H   0  0  0  0  0  0  0  0  0  0  0  0
  1  2  1  0
  2  3  1  0
  3  4  1  0
  4  5  1  0
  5  6  1  0
  6  7  1  0
  7  8  2  0
  6  9  1  0
  9  2  1  0
  9  5  1  0
  1 10  1  0
  1 11  1  0
  1 12  1  0
  2 13  1  0
  3 14  1  0
  3 15  1  0
  4 16  1  0
  4 17  1  0
  5 18  1  0
  6 19  1  0
  7 20  1  0
  9 21  1  0
M  END
