
     RDKit          3D

 23 24  0  0  0  0  0  0  0  0999 V2000
   -1.2901    1.6277    0.1873 C   0  0  0  0  0  0  0  0  0  0  0  0
   -1.1541    0.1827   -0.0156 C   0  0  0  0  0  0  0  0  0  0  0  0
   -1.1668   -0.2981   -1.4750 C   0  0  0  0  0  0  0  0  0  0  0  0
   -0.3922   -1.5035   -0.9178 C   0  0  0  0  0  0  0  0  0  0  0  0
    0.1358   -0.5119    0.1412 C   0  0  0  0  0  0  0  0  0  0  0  0
    0.2183   -1.1918    1.4941 C   0  0  0  0  0  0  0  0  0  0  0  0
    1.4107    0.0394   -0.2698 C   0  0  0  0  0  0  0  0  0  0  0  0
    2.0761    1.2282    0.1170 C   0  0  0  0  0  0  0  0  0  0  0  0
    2.4015    0.0519    0.8400 O   0  0  0  0  0  0  0  0  0  0  0  0
   -0.7486    1.9223    1.1255 H   0  0  0  0  0  0  0  0  0  0  0  0
   -2.3585    1.8779    0.3851 H   0  0  0  0  0  0  0  0  0  0  0  0
   -1.0077    2.2659   -0.6705 H   0  0  0  0  0  0  0  0  0  0  0  0
   -1.9519   -0.3822    0.5161 H   0  0  0  0  0  0  0  0  0  0  0  0
   -2.1709   -0.5413   -1.8428 H   0  0  0  0  0  0  0  0  0  0  0  0
   -0.5151    0.2916   -2.1241 H   0  0  0  0  0  0  0  0  0  0  0  0
   -1.0857   -2.2582   -0.4893 H   0  0  0  0  0  0  0  0  0  0  0  0
    0.3731   -1.8792   -1.5982 H   0  0  0  0  0  0  0  0  0  0  0  0
   -0.5867   -1.9592    1.6157 H   0  0  0  0  0  0  0  0  0  0  0  0
    0.1153   -0.3828    2.2574 H   0  0  0  0  0  0  0  0  0  0  0  0
    1.2331   -1.6672    1.6041 H   0  0  0  0  0  0  0  0  0  0  0  0
    1.9102   -0.5672   -1.0890 H   0  0  0  0  0  0  0  0  0  0  0  0
    1.6113    2.0656    0.6827 H   0  0  0  0  0  0  0  0  0  0  0  0
    2.9429    1.5896   -0.4740 H   0  0  0  0  0  0  0  0  0  0  0  0
  1  2  1  0
  2  3  1  0
  3  4  1  0
  4  5  1  0
  5  6  1  0
  5  7  1  0
  7  8  1  0
  8  9  1  0
  5  2  1  0
  9  7  1  0
  1 10  1  0
  1 11  1  0
  1 12  1  0
  2 13  1  0
  3 14  1  0
  3 15  1  0
  4 16  1  0
  4 17  1  0
  6 18  1  0
  6 19  1  0
  6 20  1  0
  7 21  1  0
  8 22  1  0
  8 23  1  0
M  END
