
     RDKit          3D

 20 21  0  0  0  0  0  0  0  0999 V2000
    2.1449   -0.1719   -0.0748 C   0  0  0  0  0  0  0  0  0  0  0  0
    0.8932    0.4756   -0.5515 C   0  0  0  0  0  0  0  0  0  0  0  0
    0.3700    1.3357    0.5646 C   0  0  0  0  0  0  0  0  0  0  0  0
   -0.6261    0.8570    1.3050 C   0  0  0  0  0  0  0  0  0  0  0  0
   -1.5143   -0.1489    0.6658 C   0  0  0  0  0  0  0  0  0  0  0  0
   -1.5723    0.1838   -0.8099 C   0  0  0  0  0  0  0  0  0  0  0  0
   -0.1963   -0.4922   -0.9243 C   0  0  0  0  0  0  0  0  0  0  0  0
   -0.6490   -1.3301    0.2628 C   0  0  0  0  0  0  0  0  0  0  0  0
    2.6160    0.4546    0.7389 H   0  0  0  0  0  0  0  0  0  0  0  0
    2.0384   -1.1771    0.3293 H   0  0  0  0  0  0  0  0  0  0  0  0
    2.9485   -0.2180   -0.8671 H   0  0  0  0  0  0  0  0  0  0  0  0
    1.1135    1.0876   -1.4339 H   0  0  0  0  0  0  0  0  0  0  0  0
    0.8243    2.3080    0.7200 H   0  0  0  0  0  0  0  0  0  0  0  0
   -0.8154    1.1600    2.3302 H   0  0  0  0  0  0  0  0  0  0  0  0
   -2.4496   -0.3743    1.1595 H   0  0  0  0  0  0  0  0  0  0  0  0
   -1.5747    1.2512   -1.0569 H   0  0  0  0  0  0  0  0  0  0  0  0
   -2.3433   -0.4021   -1.3126 H   0  0  0  0  0  0  0  0  0  0  0  0
   -0.0634   -1.0258   -1.8630 H   0  0  0  0  0  0  0  0  0  0  0  0
    0.1431   -1.6080    0.9484 H   0  0  0  0  0  0  0  0  0  0  0  0
   -1.2875   -2.1650   -0.1305 H   0  0  0  0  0  0  0  0  0  0  0  0
  1  2  1  0
  2  3  1  0
  3  4  2  0
  4  5  1  0
  5  6  1  0
  6  7  1  0
  7  8  1  0
  7  2  1  0
  8  5  1  0
  1  9  1  0
  1 10  1  0
  1 11  1  0
  2 12  1  0
  3 13  1  0
  4 14  1  0
  5 15  1  0
  6 16  1  0
  6 17  1  0
  7 18  1  0
  8 19  1  0
  8 20  1  0
M  END
