
     RDKit          3D

 23 25  0  0  0  0  0  0  0  0999 V2000
    2.7197    0.0486    0.5607 C   0  0  0  0  0  0  0  0  0  0  0  0
    1.8643   -0.1466   -0.6472 C   0  0  0  0  0  0  0  0  0  0  0  0
    0.6255    0.6128   -0.7242 C   0  0  0  0  0  0  0  0  0  0  0  0
    0.6617   -0.9323   -0.7338 C   0  0  0  0  0  0  0  0  0  0  0  0
   -0.5800   -0.8189    0.0708 C   0  0  0  0  0  0  0  0  0  0  0  0
   -1.9250   -1.2138   -0.5209 C   0  0  0  0  0  0  0  0  0  0  0  0
   -0.5286   -0.3238    1.4430 C   0  0  0  0  0  0  0  0  0  0  0  0
   -0.3511    0.6390    0.3951 C   0  0  0  0  0  0  0  0  0  0  0  0
   -1.5039    1.6295    0.1608 C   0  0  0  0  0  0  0  0  0  0  0  0
    3.3178   -0.8539    0.7877 H   0  0  0  0  0  0  0  0  0  0  0  0
    3.4391    0.8881    0.3169 H   0  0  0  0  0  0  0  0  0  0  0  0
    2.1942    0.4173    1.4550 H   0  0  0  0  0  0  0  0  0  0  0  0
    2.5095   -0.1091   -1.5810 H   0  0  0  0  0  0  0  0  0  0  0  0
    0.3162    1.0437   -1.7133 H   0  0  0  0  0  0  0  0  0  0  0  0
    0.4592   -1.4384   -1.7266 H   0  0  0  0  0  0  0  0  0  0  0  0
   -1.8515   -1.2657   -1.6261 H   0  0  0  0  0  0  0  0  0  0  0  0
   -2.1839   -2.2323   -0.1091 H   0  0  0  0  0  0  0  0  0  0  0  0
   -2.7426   -0.5474   -0.1893 H   0  0  0  0  0  0  0  0  0  0  0  0
    0.2372   -0.7818    2.0960 H   0  0  0  0  0  0  0  0  0  0  0  0
   -1.5244   -0.3245    1.9811 H   0  0  0  0  0  0  0  0  0  0  0  0
   -0.9941    2.5960   -0.1166 H   0  0  0  0  0  0  0  0  0  0  0  0
   -2.1237    1.3321   -0.6864 H   0  0  0  0  0  0  0  0  0  0  0  0
   -2.0357    1.7815    1.1071 H   0  0  0  0  0  0  0  0  0  0  0  0
  1  2  1  0
  2  3  1  0
  3  4  1  0
  4  5  1  0
  5  6  1  0
  5  7  1  0
  7  8  1  0
  8  9  1  0
  4  2  1  0
  8  5  1  0
  8  3  1  0
  1 10  1  0
  1 11  1  0
  1 12  1  0
  2 13  1  0
  3 14  1  0
  4 15  1  0
  6 16  1  0
  6 17  1  0
  6 18  1  0
  7 19  1  0
  7 20  1  0
  9 21  1  0
  9 22  1  0
  9 23  1  0
M  END
