
     RDKit          3D

 23 24  0  0  0  0  0  0  0  0999 V2000
   -2.3315   -1.4782    0.2464 C   0  0  0  0  0  0  0  0  0  0  0  0
   -1.2856   -0.4080    0.4310 C   0  0  0  0  0  0  0  0  0  0  0  0
   -1.0157    0.5812   -0.6389 C   0  0  0  0  0  0  0  0  0  0  0  0
   -0.8223    1.9982   -0.1829 C   0  0  0  0  0  0  0  0  0  0  0  0
   -0.0363   -0.4729   -0.4761 C   0  0  0  0  0  0  0  0  0  0  0  0
    1.2511   -0.3609    0.2483 C   0  0  0  0  0  0  0  0  0  0  0  0
    1.4708   -1.3688    1.2103 O   0  0  0  0  0  0  0  0  0  0  0  0
    2.0613    0.8413    0.3552 C   0  0  0  0  0  0  0  0  0  0  0  0
    2.4839   -0.1534   -0.6727 C   0  0  0  0  0  0  0  0  0  0  0  0
   -3.2839   -1.0127   -0.0994 H   0  0  0  0  0  0  0  0  0  0  0  0
   -1.9743   -2.1636   -0.5444 H   0  0  0  0  0  0  0  0  0  0  0  0
   -2.4548   -2.0468    1.1794 H   0  0  0  0  0  0  0  0  0  0  0  0
   -1.1223   -0.0914    1.4835 H   0  0  0  0  0  0  0  0  0  0  0  0
   -1.7081    0.5166   -1.5297 H   0  0  0  0  0  0  0  0  0  0  0  0
   -0.2901    2.6196   -0.9146 H   0  0  0  0  0  0  0  0  0  0  0  0
   -1.8576    2.4464   -0.1092 H   0  0  0  0  0  0  0  0  0  0  0  0
   -0.4179    2.0730    0.8515 H   0  0  0  0  0  0  0  0  0  0  0  0
   -0.0741   -1.3265   -1.2158 H   0  0  0  0  0  0  0  0  0  0  0  0
    1.2427   -2.2192    0.7677 H   0  0  0  0  0  0  0  0  0  0  0  0
    1.7976    1.8301   -0.0357 H   0  0  0  0  0  0  0  0  0  0  0  0
    2.7505    0.9188    1.2470 H   0  0  0  0  0  0  0  0  0  0  0  0
    2.2707    0.0813   -1.7386 H   0  0  0  0  0  0  0  0  0  0  0  0
    3.3459   -0.8042   -0.5317 H   0  0  0  0  0  0  0  0  0  0  0  0
  1  2  1  0
  2  3  1  0
  3  4  1  0
  3  5  1  0
  5  6  1  0
  6  7  1  0
  6  8  1  0
  8  9  1  0
  5  2  1  0
  9  6  1  0
  1 10  1  0
  1 11  1  0
  1 12  1  0
  2 13  1  0
  3 14  1  0
  4 15  1  0
  4 16  1  0
  4 17  1  0
  5 18  1  0
  7 19  1  0
  8 20  1  0
  8 21  1  0
  9 22  1  0
  9 23  1  0
M  END
