
     RDKit          3D

 23 23  0  0  0  0  0  0  0  0999 V2000
    2.5358    0.1579    0.3922 C   0  0  0  0  0  0  0  0  0  0  0  0
    1.0066    0.0524    0.4750 C   0  0  0  0  0  0  0  0  0  0  0  0
    0.4192    0.8705   -0.6493 C   0  0  0  0  0  0  0  0  0  0  0  0
   -0.8160    1.5531   -0.1108 C   0  0  0  0  0  0  0  0  0  0  0  0
   -1.8738    0.5877    0.3297 C   0  0  0  0  0  0  0  0  0  0  0  0
   -1.8829   -0.6911   -0.4608 C   0  0  0  0  0  0  0  0  0  0  0  0
   -0.7589   -1.5842   -0.1743 C   0  0  0  0  0  0  0  0  0  0  0  0
   -1.0219   -2.7715   -0.3008 O   0  0  0  0  0  0  0  0  0  0  0  0
    0.6570   -1.3801    0.2431 C   0  0  0  0  0  0  0  0  0  0  0  0
    2.9072    1.0294    0.9418 H   0  0  0  0  0  0  0  0  0  0  0  0
    2.7723    0.1791   -0.6894 H   0  0  0  0  0  0  0  0  0  0  0  0
    2.9734   -0.7521    0.8081 H   0  0  0  0  0  0  0  0  0  0  0  0
    0.6433    0.3931    1.4608 H   0  0  0  0  0  0  0  0  0  0  0  0
    1.1423    1.6990   -0.8940 H   0  0  0  0  0  0  0  0  0  0  0  0
    0.2292    0.2973   -1.5589 H   0  0  0  0  0  0  0  0  0  0  0  0
   -0.4778    2.1358    0.7899 H   0  0  0  0  0  0  0  0  0  0  0  0
   -1.1654    2.2993   -0.8483 H   0  0  0  0  0  0  0  0  0  0  0  0
   -1.8136    0.3611    1.4081 H   0  0  0  0  0  0  0  0  0  0  0  0
   -2.8681    1.0800    0.1665 H   0  0  0  0  0  0  0  0  0  0  0  0
   -1.9414   -0.4709   -1.5490 H   0  0  0  0  0  0  0  0  0  0  0  0
   -2.8314   -1.2145   -0.2091 H   0  0  0  0  0  0  0  0  0  0  0  0
    0.8296   -2.0248    1.1514 H   0  0  0  0  0  0  0  0  0  0  0  0
    1.3355   -1.8066   -0.5350 H   0  0  0  0  0  0  0  0  0  0  0  0
  1  2  1  0
  2  3  1  0
  3  4  1  0
  4  5  1  0
  5  6  1  0
  6  7  1  0
  7  8  2  0
  7  9  1  0
  9  2  1  0
  1 10  1  0
  1 11  1  0
  1 12  1  0
  2 13  1  0
  3 14  1  0
  3 15  1  0
  4 16  1  0
  4 17  1  0
  5 18  1  0
  5 19  1  0
  6 20  1  0
  6 21  1  0
  9 22  1  0
  9 23  1  0
M  END
