
     RDKit          3D

 20 20  0  0  0  0  0  0  0  0999 V2000
   -0.8640    1.7073   -0.2637 C   0  0  0  0  0  0  0  0  0  0  0  0
   -0.2737    0.7359    0.7755 C   0  0  0  0  0  0  0  0  0  0  0  0
   -0.7350   -0.5100    0.9233 C   0  0  0  0  0  0  0  0  0  0  0  0
   -1.8623   -1.1168    0.0692 C   0  0  0  0  0  0  0  0  0  0  0  0
    0.5845   -0.3330    0.3626 C   0  0  0  0  0  0  0  0  0  0  0  0
    0.8438   -1.6707    0.2742 O   0  0  0  0  0  0  0  0  0  0  0  0
    1.7131    0.3434   -0.1626 C   0  0  0  0  0  0  0  0  0  0  0  0
    2.9270    0.0692    0.5309 O   0  0  0  0  0  0  0  0  0  0  0  0
   -0.0990    2.3298   -0.7207 H   0  0  0  0  0  0  0  0  0  0  0  0
   -1.5989    2.3488    0.2648 H   0  0  0  0  0  0  0  0  0  0  0  0
   -1.4260    1.1636   -1.0406 H   0  0  0  0  0  0  0  0  0  0  0  0
    0.0534    1.3623    1.6696 H   0  0  0  0  0  0  0  0  0  0  0  0
   -0.8980   -0.9076    1.9789 H   0  0  0  0  0  0  0  0  0  0  0  0
   -2.8349   -0.7986    0.4592 H   0  0  0  0  0  0  0  0  0  0  0  0
   -1.7391   -2.2163    0.1798 H   0  0  0  0  0  0  0  0  0  0  0  0
   -1.7053   -0.9066   -1.0012 H   0  0  0  0  0  0  0  0  0  0  0  0
    1.1872   -2.0940    1.0931 H   0  0  0  0  0  0  0  0  0  0  0  0
    1.7736    1.4413   -0.2944 H   0  0  0  0  0  0  0  0  0  0  0  0
    1.9594   -0.0298   -1.2098 H   0  0  0  0  0  0  0  0  0  0  0  0
    2.9940   -0.9182    0.5127 H   0  0  0  0  0  0  0  0  0  0  0  0
  1  2  1  0
  2  3  1  0
  3  4  1  0
  3  5  1  0
  5  6  1  0
  5  7  1  0
  7  8  1  0
  5  2  1  0
  1  9  1  0
  1 10  1  0
  1 11  1  0
  2 12  1  0
  3 13  1  0
  4 14  1  0
  4 15  1  0
  4 16  1  0
  6 17  1  0
  7 18  1  0
  7 19  1  0
  8 20  1  0
M  END
