
     RDKit          3D

 18 19  0  0  0  0  0  0  0  0999 V2000
    1.8047   -0.6809    0.1500 C   0  0  0  0  0  0  0  0  0  0  0  0
    0.9328    0.1907   -0.6822 C   0  0  0  0  0  0  0  0  0  0  0  0
   -0.4723   -0.1083   -0.9890 C   0  0  0  0  0  0  0  0  0  0  0  0
   -1.2712   -1.1039   -0.1985 C   0  0  0  0  0  0  0  0  0  0  0  0
   -1.9041   -0.2600    0.7444 O   0  0  0  0  0  0  0  0  0  0  0  0
   -0.7685    0.3925    1.2791 C   0  0  0  0  0  0  0  0  0  0  0  0
   -0.1421    0.9347    0.0150 C   0  0  0  0  0  0  0  0  0  0  0  0
   -0.3008    2.2701   -0.2124 O   0  0  0  0  0  0  0  0  0  0  0  0
    2.6324   -1.0667   -0.5155 H   0  0  0  0  0  0  0  0  0  0  0  0
    1.3056   -1.4759    0.6991 H   0  0  0  0  0  0  0  0  0  0  0  0
    2.3454   -0.0198    0.8901 H   0  0  0  0  0  0  0  0  0  0  0  0
    1.4775    0.7784   -1.4554 H   0  0  0  0  0  0  0  0  0  0  0  0
   -0.9040    0.2226   -1.9383 H   0  0  0  0  0  0  0  0  0  0  0  0
   -2.0072   -1.5949   -0.8589 H   0  0  0  0  0  0  0  0  0  0  0  0
   -0.6800   -1.8133    0.3791 H   0  0  0  0  0  0  0  0  0  0  0  0
   -1.1569    1.1742    1.9425 H   0  0  0  0  0  0  0  0  0  0  0  0
   -0.1291   -0.3578    1.7785 H   0  0  0  0  0  0  0  0  0  0  0  0
   -0.7624    2.5182   -1.0274 H   0  0  0  0  0  0  0  0  0  0  0  0
  1  2  1  0
  2  3  1  0
  3  4  1  0
  4  5  1  0
  5  6  1  0
  6  7  1  0
  7  8  1  0
  7  2  1  0
  7  3  1  0
  1  9  1  0
  1 10  1  0
  1 11  1  0
  2 12  1  0
  3 13  1  0
  4 14  1  0
  4 15  1  0
  6 16  1  0
  6 17  1  0
  8 18  1  0
M  END
