
     RDKit          3D

 22 23  0  0  0  0  0  0  0  0999 V2000
   -2.8378    0.1960    0.0292 C   0  0  0  0  0  0  0  0  0  0  0  0
   -1.4541   -0.3284   -0.2078 C   0  0  0  0  0  0  0  0  0  0  0  0
   -0.3973    0.2808    0.7030 C   0  0  0  0  0  0  0  0  0  0  0  0
    0.6146   -0.6743    1.1919 C   0  0  0  0  0  0  0  0  0  0  0  0
    1.9651   -0.5706    0.5845 C   0  0  0  0  0  0  0  0  0  0  0  0
    1.9482    0.5503   -0.4364 C   0  0  0  0  0  0  0  0  0  0  0  0
    0.8200    0.1420   -1.3982 C   0  0  0  0  0  0  0  0  0  0  0  0
   -0.4412    0.5745   -0.7259 C   0  0  0  0  0  0  0  0  0  0  0  0
   -3.2127    0.8340   -0.7944 H   0  0  0  0  0  0  0  0  0  0  0  0
   -2.9061    0.7628    1.0031 H   0  0  0  0  0  0  0  0  0  0  0  0
   -3.5975   -0.6320    0.1426 H   0  0  0  0  0  0  0  0  0  0  0  0
   -1.4171   -1.4197   -0.4035 H   0  0  0  0  0  0  0  0  0  0  0  0
   -0.7074    1.1179    1.3836 H   0  0  0  0  0  0  0  0  0  0  0  0
    0.7360   -0.5224    2.3050 H   0  0  0  0  0  0  0  0  0  0  0  0
    0.2624   -1.7426    1.1105 H   0  0  0  0  0  0  0  0  0  0  0  0
    2.7944   -0.4684    1.3064 H   0  0  0  0  0  0  0  0  0  0  0  0
    2.2063   -1.5032   -0.0061 H   0  0  0  0  0  0  0  0  0  0  0  0
    2.8970    0.6769   -0.9474 H   0  0  0  0  0  0  0  0  0  0  0  0
    1.6431    1.4711    0.1292 H   0  0  0  0  0  0  0  0  0  0  0  0
    0.8486   -0.9610   -1.5608 H   0  0  0  0  0  0  0  0  0  0  0  0
    1.0327    0.6302   -2.3516 H   0  0  0  0  0  0  0  0  0  0  0  0
   -0.7971    1.5861   -1.0567 H   0  0  0  0  0  0  0  0  0  0  0  0
  1  2  1  0
  2  3  1  0
  3  4  1  0
  4  5  1  0
  5  6  1  0
  6  7  1  0
  7  8  1  0
  8  2  1  0
  8  3  1  0
  1  9  1  0
  1 10  1  0
  1 11  1  0
  2 12  1  0
  3 13  1  0
  4 14  1  0
  4 15  1  0
  5 16  1  0
  5 17  1  0
  6 18  1  0
  6 19  1  0
  7 20  1  0
  7 21  1  0
  8 22  1  0
M  END
