
     RDKit          3D

 25 26  0  0  0  0  0  0  0  0999 V2000
   -2.4479   -0.7069    0.4236 C   0  0  0  0  0  0  0  0  0  0  0  0
   -1.1536   -0.2789   -0.1409 C   0  0  0  0  0  0  0  0  0  0  0  0
   -0.0503   -1.3182    0.0055 C   0  0  0  0  0  0  0  0  0  0  0  0
    1.2277   -0.4982   -0.0808 C   0  0  0  0  0  0  0  0  0  0  0  0
    2.4026   -1.0050   -0.8078 C   0  0  0  0  0  0  0  0  0  0  0  0
    2.4202   -0.8456    0.6944 C   0  0  0  0  0  0  0  0  0  0  0  0
    0.8129    0.9417   -0.1803 C   0  0  0  0  0  0  0  0  0  0  0  0
   -0.5245    0.9021    0.5772 C   0  0  0  0  0  0  0  0  0  0  0  0
   -1.2484    2.1844    0.3432 C   0  0  0  0  0  0  0  0  0  0  0  0
   -3.0893    0.1689    0.6200 H   0  0  0  0  0  0  0  0  0  0  0  0
   -2.9878   -1.3123   -0.3474 H   0  0  0  0  0  0  0  0  0  0  0  0
   -2.3028   -1.3559    1.2910 H   0  0  0  0  0  0  0  0  0  0  0  0
   -1.1986   -0.0043   -1.2183 H   0  0  0  0  0  0  0  0  0  0  0  0
   -0.1642   -1.7367    1.0404 H   0  0  0  0  0  0  0  0  0  0  0  0
   -0.1055   -2.1124   -0.7395 H   0  0  0  0  0  0  0  0  0  0  0  0
    2.4819   -2.0474   -1.1429 H   0  0  0  0  0  0  0  0  0  0  0  0
    2.9367   -0.2740   -1.4424 H   0  0  0  0  0  0  0  0  0  0  0  0
    3.0033    0.0336    1.0954 H   0  0  0  0  0  0  0  0  0  0  0  0
    2.4361   -1.7168    1.3505 H   0  0  0  0  0  0  0  0  0  0  0  0
    1.5121    1.6528    0.2503 H   0  0  0  0  0  0  0  0  0  0  0  0
    0.5563    1.1325   -1.2484 H   0  0  0  0  0  0  0  0  0  0  0  0
   -0.3737    0.6431    1.6255 H   0  0  0  0  0  0  0  0  0  0  0  0
   -2.1893    2.2261    0.8979 H   0  0  0  0  0  0  0  0  0  0  0  0
   -0.5775    3.0143    0.6653 H   0  0  0  0  0  0  0  0  0  0  0  0
   -1.3766    2.3132   -0.7532 H   0  0  0  0  0  0  0  0  0  0  0  0
  1  2  1  0
  2  3  1  0
  3  4  1  0
  4  5  1  0
  5  6  1  0
  4  7  1  0
  7  8  1  0
  8  9  1  0
  8  2  1  0
  6  4  1  0
  1 10  1  0
  1 11  1  0
  1 12  1  0
  2 13  1  0
  3 14  1  0
  3 15  1  0
  5 16  1  0
  5 17  1  0
  6 18  1  0
  6 19  1  0
  7 20  1  0
  7 21  1  0
  8 22  1  0
  9 23  1  0
  9 24  1  0
  9 25  1  0
M  END
