
     RDKit          3D

 16 17  0  0  0  0  0  0  0  0999 V2000
    2.1703    0.0042    0.1067 C   0  0  0  0  0  0  0  0  0  0  0  0
    0.7117    0.0018    0.5923 C   0  0  0  0  0  0  0  0  0  0  0  0
   -0.2636    1.0028    0.2690 C   0  0  0  0  0  0  0  0  0  0  0  0
   -1.5831    0.8833   -0.4526 C   0  0  0  0  0  0  0  0  0  0  0  0
   -0.7666    0.2826   -1.4465 O   0  0  0  0  0  0  0  0  0  0  0  0
   -0.2577   -0.4018   -0.3883 C   0  0  0  0  0  0  0  0  0  0  0  0
   -1.1467   -1.4645    0.1076 C   0  0  0  0  0  0  0  0  0  0  0  0
   -0.9174   -2.1885    1.0693 O   0  0  0  0  0  0  0  0  0  0  0  0
    2.8668    0.2227    0.9356 H   0  0  0  0  0  0  0  0  0  0  0  0
    2.3774   -1.0099   -0.2738 H   0  0  0  0  0  0  0  0  0  0  0  0
    2.2717    0.7028   -0.7415 H   0  0  0  0  0  0  0  0  0  0  0  0
    0.6848   -0.3656    1.6525 H   0  0  0  0  0  0  0  0  0  0  0  0
    0.2958    1.8308   -0.2821 H   0  0  0  0  0  0  0  0  0  0  0  0
   -2.0111    1.8563   -0.7485 H   0  0  0  0  0  0  0  0  0  0  0  0
   -2.3540    0.2864   -0.0044 H   0  0  0  0  0  0  0  0  0  0  0  0
   -2.0783   -1.6433   -0.3953 H   0  0  0  0  0  0  0  0  0  0  0  0
  1  2  1  0
  2  3  1  0
  3  4  1  0
  4  5  1  0
  5  6  1  0
  6  7  1  0
  7  8  2  0
  6  2  1  0
  6  3  1  0
  1  9  1  0
  1 10  1  0
  1 11  1  0
  2 12  1  0
  3 13  1  0
  4 14  1  0
  4 15  1  0
  7 16  1  0
M  END
