
     RDKit          3D

 21 21  0  0  0  0  0  0  0  0999 V2000
   -0.8939   -1.3698    0.9337 C   0  0  0  0  0  0  0  0  0  0  0  0
   -1.5659   -0.6003   -0.1507 C   0  0  0  0  0  0  0  0  0  0  0  0
   -2.0011    0.7772    0.3620 C   0  0  0  0  0  0  0  0  0  0  0  0
   -1.4936    1.3741   -0.9577 C   0  0  0  0  0  0  0  0  0  0  0  0
   -0.6769    0.1153   -1.1272 C   0  0  0  0  0  0  0  0  0  0  0  0
    0.6810    0.1926   -0.6177 C   0  0  0  0  0  0  0  0  0  0  0  0
    1.8187    0.2770   -0.1990 C   0  0  0  0  0  0  0  0  0  0  0  0
    3.1872    0.3601    0.3101 C   0  0  0  0  0  0  0  0  0  0  0  0
    3.3677   -0.6683    1.2374 O   0  0  0  0  0  0  0  0  0  0  0  0
   -1.3315   -1.2148    1.9386 H   0  0  0  0  0  0  0  0  0  0  0  0
    0.2128   -1.2463    0.9287 H   0  0  0  0  0  0  0  0  0  0  0  0
   -1.0557   -2.4642    0.7109 H   0  0  0  0  0  0  0  0  0  0  0  0
   -2.4493   -1.1069   -0.5647 H   0  0  0  0  0  0  0  0  0  0  0  0
   -1.3824    1.1729    1.1778 H   0  0  0  0  0  0  0  0  0  0  0  0
   -3.0832    0.8834    0.5221 H   0  0  0  0  0  0  0  0  0  0  0  0
   -2.3346    1.5043   -1.6356 H   0  0  0  0  0  0  0  0  0  0  0  0
   -0.8243    2.2421   -0.8333 H   0  0  0  0  0  0  0  0  0  0  0  0
   -0.7963   -0.2634   -2.1570 H   0  0  0  0  0  0  0  0  0  0  0  0
    3.3985    1.3277    0.8099 H   0  0  0  0  0  0  0  0  0  0  0  0
    3.9441    0.2590   -0.5049 H   0  0  0  0  0  0  0  0  0  0  0  0
    3.2787   -1.5517    0.8087 H   0  0  0  0  0  0  0  0  0  0  0  0
  1  2  1  0
  2  3  1  0
  3  4  1  0
  4  5  1  0
  5  6  1  0
  6  7  3  0
  7  8  1  0
  8  9  1  0
  5  2  1  0
  1 10  1  0
  1 11  1  0
  1 12  1  0
  2 13  1  0
  3 14  1  0
  3 15  1  0
  4 16  1  0
  4 17  1  0
  5 18  1  0
  8 19  1  0
  8 20  1  0
  9 21  1  0
M  END
