
     RDKit          3D

 19 20  0  0  0  0  0  0  0  0999 V2000
    2.4903   -0.0028    0.5622 C   0  0  0  0  0  0  0  0  0  0  0  0
    0.9944    0.1334    0.3867 C   0  0  0  0  0  0  0  0  0  0  0  0
    0.5161    0.1558   -1.0022 C   0  0  0  0  0  0  0  0  0  0  0  0
   -0.6368    0.7842   -1.4025 O   0  0  0  0  0  0  0  0  0  0  0  0
   -1.4607    1.1875   -0.3859 C   0  0  0  0  0  0  0  0  0  0  0  0
   -2.0909   -0.0364    0.2832 C   0  0  0  0  0  0  0  0  0  0  0  0
   -1.1885   -1.1925    0.0324 C   0  0  0  0  0  0  0  0  0  0  0  0
   -1.6791   -2.3018   -0.0458 O   0  0  0  0  0  0  0  0  0  0  0  0
    0.2608   -1.0455   -0.1231 C   0  0  0  0  0  0  0  0  0  0  0  0
    2.7644   -0.7075    1.3744 H   0  0  0  0  0  0  0  0  0  0  0  0
    2.9407    1.0094    0.7511 H   0  0  0  0  0  0  0  0  0  0  0  0
    2.9850   -0.3712   -0.3687 H   0  0  0  0  0  0  0  0  0  0  0  0
    0.5344    0.7814    1.1737 H   0  0  0  0  0  0  0  0  0  0  0  0
    1.2532    0.0131   -1.8367 H   0  0  0  0  0  0  0  0  0  0  0  0
   -2.2983    1.7678   -0.8436 H   0  0  0  0  0  0  0  0  0  0  0  0
   -0.9870    1.8597    0.3471 H   0  0  0  0  0  0  0  0  0  0  0  0
   -2.1255    0.1291    1.3964 H   0  0  0  0  0  0  0  0  0  0  0  0
   -3.1207   -0.2031   -0.0393 H   0  0  0  0  0  0  0  0  0  0  0  0
    0.8482   -1.9604   -0.2593 H   0  0  0  0  0  0  0  0  0  0  0  0
  1  2  1  0
  2  3  1  0
  3  4  1  0
  4  5  1  0
  5  6  1  0
  6  7  1  0
  7  8  2  0
  7  9  1  0
  9  2  1  0
  9  3  1  0
  1 10  1  0
  1 11  1  0
  1 12  1  0
  2 13  1  0
  3 14  1  0
  5 15  1  0
  5 16  1  0
  6 17  1  0
  6 18  1  0
  9 19  1  0
M  END
