
     RDKit          3D

 23 23  0  0  0  0  0  0  0  0999 V2000
   -1.6128   -1.1455   -1.0016 C   0  0  0  0  0  0  0  0  0  0  0  0
   -1.1024   -0.5216    0.2813 C   0  0  0  0  0  0  0  0  0  0  0  0
   -0.0915   -1.4160    0.8516 C   0  0  0  0  0  0  0  0  0  0  0  0
    1.2124   -1.3753    0.6917 C   0  0  0  0  0  0  0  0  0  0  0  0
    1.9894   -0.4303   -0.0938 C   0  0  0  0  0  0  0  0  0  0  0  0
    1.6431    0.6055   -0.8307 C   0  0  0  0  0  0  0  0  0  0  0  0
    0.2782    1.1055   -1.0626 C   0  0  0  0  0  0  0  0  0  0  0  0
   -0.6696    0.8822    0.0583 C   0  0  0  0  0  0  0  0  0  0  0  0
   -0.0655    1.4865    1.3098 C   0  0  0  0  0  0  0  0  0  0  0  0
   -0.8422   -1.2917   -1.7577 H   0  0  0  0  0  0  0  0  0  0  0  0
   -2.4983   -0.5798   -1.4004 H   0  0  0  0  0  0  0  0  0  0  0  0
   -2.0108   -2.1550   -0.7343 H   0  0  0  0  0  0  0  0  0  0  0  0
   -1.9792   -0.4991    0.9778 H   0  0  0  0  0  0  0  0  0  0  0  0
   -0.4619   -2.2347    1.5022 H   0  0  0  0  0  0  0  0  0  0  0  0
    1.8061   -2.1538    1.2165 H   0  0  0  0  0  0  0  0  0  0  0  0
    3.0873   -0.6396   -0.0512 H   0  0  0  0  0  0  0  0  0  0  0  0
    2.4763    1.1292   -1.3077 H   0  0  0  0  0  0  0  0  0  0  0  0
   -0.1685    0.6277   -1.9815 H   0  0  0  0  0  0  0  0  0  0  0  0
    0.2886    2.1956   -1.2945 H   0  0  0  0  0  0  0  0  0  0  0  0
   -1.5846    1.4863   -0.1606 H   0  0  0  0  0  0  0  0  0  0  0  0
   -0.8104    1.5492    2.1283 H   0  0  0  0  0  0  0  0  0  0  0  0
    0.7981    0.8697    1.6284 H   0  0  0  0  0  0  0  0  0  0  0  0
    0.3181    2.5052    1.0307 H   0  0  0  0  0  0  0  0  0  0  0  0
  1  2  1  0
  2  3  1  0
  3  4  2  0
  4  5  1  0
  5  6  2  0
  6  7  1  0
  7  8  1  0
  8  9  1  0
  8  2  1  0
  1 10  1  0
  1 11  1  0
  1 12  1  0
  2 13  1  0
  3 14  1  0
  4 15  1  0
  5 16  1  0
  6 17  1  0
  7 18  1  0
  7 19  1  0
  8 20  1  0
  9 21  1  0
  9 22  1  0
  9 23  1  0
M  END
