
     RDKit          3D

 21 22  0  0  0  0  0  0  0  0999 V2000
    2.1758   -0.3759   -0.9099 C   0  0  0  0  0  0  0  0  0  0  0  0
    1.0352    0.4665   -0.4386 C   0  0  0  0  0  0  0  0  0  0  0  0
    1.0570    0.9186    1.0374 C   0  0  0  0  0  0  0  0  0  0  0  0
    0.0412    0.0373    0.5140 C   0  0  0  0  0  0  0  0  0  0  0  0
   -0.2303   -1.3429    0.9626 C   0  0  0  0  0  0  0  0  0  0  0  0
   -1.6353   -1.1650    0.4769 C   0  0  0  0  0  0  0  0  0  0  0  0
   -2.6037   -1.8433    0.2031 O   0  0  0  0  0  0  0  0  0  0  0  0
   -1.4146    0.3297    0.4374 C   0  0  0  0  0  0  0  0  0  0  0  0
   -1.8631    0.8453   -0.9248 C   0  0  0  0  0  0  0  0  0  0  0  0
    2.5024   -0.1318   -1.9540 H   0  0  0  0  0  0  0  0  0  0  0  0
    1.9890   -1.4561   -0.8909 H   0  0  0  0  0  0  0  0  0  0  0  0
    3.0993   -0.2142   -0.2861 H   0  0  0  0  0  0  0  0  0  0  0  0
    0.7865    1.3070   -1.1511 H   0  0  0  0  0  0  0  0  0  0  0  0
    0.8272    1.9803    1.2460 H   0  0  0  0  0  0  0  0  0  0  0  0
    1.8867    0.4621    1.6288 H   0  0  0  0  0  0  0  0  0  0  0  0
   -0.2515   -1.4043    2.0874 H   0  0  0  0  0  0  0  0  0  0  0  0
    0.3315   -2.1577    0.4928 H   0  0  0  0  0  0  0  0  0  0  0  0
   -1.8617    0.8794    1.2706 H   0  0  0  0  0  0  0  0  0  0  0  0
   -1.2461    0.2774   -1.6703 H   0  0  0  0  0  0  0  0  0  0  0  0
   -1.6907    1.9321   -1.0196 H   0  0  0  0  0  0  0  0  0  0  0  0
   -2.9350    0.6554   -1.1120 H   0  0  0  0  0  0  0  0  0  0  0  0
  1  2  1  0
  2  3  1  0
  3  4  1  0
  4  5  1  0
  5  6  1  0
  6  7  2  0
  6  8  1  0
  8  9  1  0
  4  2  1  0
  8  4  1  0
  1 10  1  0
  1 11  1  0
  1 12  1  0
  2 13  1  0
  3 14  1  0
  3 15  1  0
  5 16  1  0
  5 17  1  0
  8 18  1  0
  9 19  1  0
  9 20  1  0
  9 21  1  0
M  END
