
     RDKit          3D

 21 22  0  0  0  0  0  0  0  0999 V2000
    2.5490   -0.3448    0.0582 C   0  0  0  0  0  0  0  0  0  0  0  0
    1.2189    0.1118   -0.5253 C   0  0  0  0  0  0  0  0  0  0  0  0
    0.8693    1.3674    0.1695 C   0  0  0  0  0  0  0  0  0  0  0  0
   -0.3544    1.6398    0.5448 C   0  0  0  0  0  0  0  0  0  0  0  0
   -1.5150    0.7657    0.3360 C   0  0  0  0  0  0  0  0  0  0  0  0
   -1.7162   -0.2140    1.3113 O   0  0  0  0  0  0  0  0  0  0  0  0
   -2.2695   -0.9965    0.2699 C   0  0  0  0  0  0  0  0  0  0  0  0
   -1.2275   -0.3544   -0.6231 C   0  0  0  0  0  0  0  0  0  0  0  0
    0.1495   -0.9073   -0.3336 C   0  0  0  0  0  0  0  0  0  0  0  0
    2.4008   -0.7450    1.0777 H   0  0  0  0  0  0  0  0  0  0  0  0
    3.2517    0.5116    0.0275 H   0  0  0  0  0  0  0  0  0  0  0  0
    2.9957   -1.1440   -0.5638 H   0  0  0  0  0  0  0  0  0  0  0  0
    1.3671    0.2943   -1.6238 H   0  0  0  0  0  0  0  0  0  0  0  0
    1.7021    2.0983    0.3713 H   0  0  0  0  0  0  0  0  0  0  0  0
   -0.5319    2.6147    1.0653 H   0  0  0  0  0  0  0  0  0  0  0  0
   -2.4604    1.3257    0.0770 H   0  0  0  0  0  0  0  0  0  0  0  0
   -2.1520   -2.0754    0.4136 H   0  0  0  0  0  0  0  0  0  0  0  0
   -3.2659   -0.6231    0.0186 H   0  0  0  0  0  0  0  0  0  0  0  0
   -1.4955   -0.2110   -1.6664 H   0  0  0  0  0  0  0  0  0  0  0  0
    0.3438   -1.7411   -1.0652 H   0  0  0  0  0  0  0  0  0  0  0  0
    0.1405   -1.3728    0.6604 H   0  0  0  0  0  0  0  0  0  0  0  0
  1  2  1  0
  2  3  1  0
  3  4  2  0
  4  5  1  0
  5  6  1  0
  6  7  1  0
  7  8  1  0
  8  9  1  0
  9  2  1  0
  8  5  1  0
  1 10  1  0
  1 11  1  0
  1 12  1  0
  2 13  1  0
  3 14  1  0
  4 15  1  0
  5 16  1  0
  7 17  1  0
  7 18  1  0
  8 19  1  0
  9 20  1  0
  9 21  1  0
M  END
