
     RDKit          3D

 19 20  0  0  0  0  0  0  0  0999 V2000
   -1.4211    1.3762   -0.1507 C   0  0  0  0  0  0  0  0  0  0  0  0
   -0.7929    0.0919   -0.5554 C   0  0  0  0  0  0  0  0  0  0  0  0
   -1.2153   -1.1294    0.2773 C   0  0  0  0  0  0  0  0  0  0  0  0
    0.2164   -1.6379    0.0417 C   0  0  0  0  0  0  0  0  0  0  0  0
    0.5835   -0.1956   -0.1303 C   0  0  0  0  0  0  0  0  0  0  0  0
    1.3512    0.5469    0.8567 C   0  0  0  0  0  0  0  0  0  0  0  0
    1.8137    0.3286   -0.6007 C   0  0  0  0  0  0  0  0  0  0  0  0
   -0.6147    2.0859    0.1958 H   0  0  0  0  0  0  0  0  0  0  0  0
   -2.1737    1.1870    0.6323 H   0  0  0  0  0  0  0  0  0  0  0  0
   -1.9713    1.8848   -0.9865 H   0  0  0  0  0  0  0  0  0  0  0  0
   -1.0159   -0.1309   -1.6369 H   0  0  0  0  0  0  0  0  0  0  0  0
   -1.3012   -0.8182    1.3227 H   0  0  0  0  0  0  0  0  0  0  0  0
   -1.9987   -1.7376   -0.1602 H   0  0  0  0  0  0  0  0  0  0  0  0
    0.2702   -2.2153   -0.9098 H   0  0  0  0  0  0  0  0  0  0  0  0
    0.6921   -2.0846    0.9149 H   0  0  0  0  0  0  0  0  0  0  0  0
    1.1142    1.5648    1.1763 H   0  0  0  0  0  0  0  0  0  0  0  0
    1.8824   -0.0725    1.6372 H   0  0  0  0  0  0  0  0  0  0  0  0
    2.7142   -0.3114   -0.7473 H   0  0  0  0  0  0  0  0  0  0  0  0
    1.8671    1.2673   -1.1769 H   0  0  0  0  0  0  0  0  0  0  0  0
  1  2  1  0
  2  3  1  0
  3  4  1  0
  4  5  1  0
  5  6  1  0
  6  7  1  0
  5  2  1  0
  7  5  1  0
  1  8  1  0
  1  9  1  0
  1 10  1  0
  2 11  1  0
  3 12  1  0
  3 13  1  0
  4 14  1  0
  4 15  1  0
  6 16  1  0
  6 17  1  0
  7 18  1  0
  7 19  1  0
M  END
