
     RDKit          3D

 25 26  0  0  0  0  0  0  0  0999 V2000
    1.9955   -1.4506    0.2021 C   0  0  0  0  0  0  0  0  0  0  0  0
    1.2279   -0.5887   -0.7609 C   0  0  0  0  0  0  0  0  0  0  0  0
    1.1102    0.8454   -0.4003 C   0  0  0  0  0  0  0  0  0  0  0  0
    1.7536    1.3965    0.8431 C   0  0  0  0  0  0  0  0  0  0  0  0
   -0.0739    0.0025   -0.3873 C   0  0  0  0  0  0  0  0  0  0  0  0
   -1.1478    0.2728   -1.4032 C   0  0  0  0  0  0  0  0  0  0  0  0
   -2.4503    0.2999   -0.6433 C   0  0  0  0  0  0  0  0  0  0  0  0
   -2.1649   -0.1533    0.7572 C   0  0  0  0  0  0  0  0  0  0  0  0
   -0.7236   -0.5280    0.8454 C   0  0  0  0  0  0  0  0  0  0  0  0
    2.5211   -0.8802    0.9884 H   0  0  0  0  0  0  0  0  0  0  0  0
    2.7845   -2.0244   -0.3375 H   0  0  0  0  0  0  0  0  0  0  0  0
    1.3288   -2.1691    0.7448 H   0  0  0  0  0  0  0  0  0  0  0  0
    1.3083   -0.9115   -1.8275 H   0  0  0  0  0  0  0  0  0  0  0  0
    1.2214    1.5440   -1.2811 H   0  0  0  0  0  0  0  0  0  0  0  0
    2.8124    1.6399    0.6474 H   0  0  0  0  0  0  0  0  0  0  0  0
    1.2541    2.3873    1.0409 H   0  0  0  0  0  0  0  0  0  0  0  0
    1.6052    0.7848    1.7305 H   0  0  0  0  0  0  0  0  0  0  0  0
   -1.0110    1.3039   -1.8283 H   0  0  0  0  0  0  0  0  0  0  0  0
   -1.1644   -0.4386   -2.2401 H   0  0  0  0  0  0  0  0  0  0  0  0
   -2.9035    1.3186   -0.6023 H   0  0  0  0  0  0  0  0  0  0  0  0
   -3.1743   -0.3602   -1.1752 H   0  0  0  0  0  0  0  0  0  0  0  0
   -2.8306   -1.0216    1.0005 H   0  0  0  0  0  0  0  0  0  0  0  0
   -2.3827    0.6334    1.5224 H   0  0  0  0  0  0  0  0  0  0  0  0
   -0.6704   -1.6541    0.7854 H   0  0  0  0  0  0  0  0  0  0  0  0
   -0.2256   -0.2489    1.7790 H   0  0  0  0  0  0  0  0  0  0  0  0
  1  2  1  0
  2  3  1  0
  3  4  1  0
  3  5  1  0
  5  6  1  0
  6  7  1  0
  7  8  1  0
  8  9  1  0
  5  2  1  0
  9  5  1  0
  1 10  1  0
  1 11  1  0
  1 12  1  0
  2 13  1  0
  3 14  1  0
  4 15  1  0
  4 16  1  0
  4 17  1  0
  6 18  1  0
  6 19  1  0
  7 20  1  0
  7 21  1  0
  8 22  1  0
  8 23  1  0
  9 24  1  0
  9 25  1  0
M  END
