
     RDKit          3D

 21 23  0  0  0  0  0  0  0  0999 V2000
    2.2803   -0.2916   -0.3306 C   0  0  0  0  0  0  0  0  0  0  0  0
    1.1381    0.6984   -0.2632 C   0  0  0  0  0  0  0  0  0  0  0  0
    0.6678    0.7458    1.2047 C   0  0  0  0  0  0  0  0  0  0  0  0
   -0.6644    0.0729    1.0397 C   0  0  0  0  0  0  0  0  0  0  0  0
   -1.2532    0.8233   -0.1420 C   0  0  0  0  0  0  0  0  0  0  0  0
   -2.3878   -0.0397   -0.5140 C   0  0  0  0  0  0  0  0  0  0  0  0
   -1.8555   -1.2844   -0.4228 C   0  0  0  0  0  0  0  0  0  0  0  0
   -0.4683   -1.0089   -0.0021 C   0  0  0  0  0  0  0  0  0  0  0  0
   -0.1063    0.1699   -0.8962 C   0  0  0  0  0  0  0  0  0  0  0  0
    3.2083    0.2240   -0.0670 H   0  0  0  0  0  0  0  0  0  0  0  0
    2.3101   -0.7399   -1.3637 H   0  0  0  0  0  0  0  0  0  0  0  0
    2.1538   -1.1213    0.4249 H   0  0  0  0  0  0  0  0  0  0  0  0
    1.4555    1.6823   -0.6061 H   0  0  0  0  0  0  0  0  0  0  0  0
    1.3609    0.2344    1.8709 H   0  0  0  0  0  0  0  0  0  0  0  0
    0.4636    1.8019    1.4988 H   0  0  0  0  0  0  0  0  0  0  0  0
   -1.2790   -0.1216    1.8814 H   0  0  0  0  0  0  0  0  0  0  0  0
   -1.3314    1.8704   -0.1135 H   0  0  0  0  0  0  0  0  0  0  0  0
   -3.3924    0.2403   -0.7906 H   0  0  0  0  0  0  0  0  0  0  0  0
   -2.3448   -2.2317   -0.6154 H   0  0  0  0  0  0  0  0  0  0  0  0
    0.2299   -1.7770    0.1533 H   0  0  0  0  0  0  0  0  0  0  0  0
   -0.1852    0.0526   -1.9464 H   0  0  0  0  0  0  0  0  0  0  0  0
  1  2  1  0
  2  3  1  0
  3  4  1  0
  4  5  1  0
  5  6  1  0
  6  7  2  0
  7  8  1  0
  8  9  1  0
  9  2  1  0
  8  4  1  0
  9  5  1  0
  1 10  1  0
  1 11  1  0
  1 12  1  0
  2 13  1  0
  3 14  1  0
  3 15  1  0
  4 16  1  0
  5 17  1  0
  6 18  1  0
  7 19  1  0
  8 20  1  0
  9 21  1  0
M  END
