
     RDKit          3D

 25 26  0  0  0  0  0  0  0  0999 V2000
   -3.0102    0.2887   -0.1401 C   0  0  0  0  0  0  0  0  0  0  0  0
   -1.5853    0.6420   -0.4266 C   0  0  0  0  0  0  0  0  0  0  0  0
   -0.8450   -0.3841   -1.2825 C   0  0  0  0  0  0  0  0  0  0  0  0
   -0.4471   -0.1227    0.1010 C   0  0  0  0  0  0  0  0  0  0  0  0
   -0.8277   -1.2035    1.1228 C   0  0  0  0  0  0  0  0  0  0  0  0
    0.8560    0.5582    0.3578 C   0  0  0  0  0  0  0  0  0  0  0  0
    1.9488   -0.3427    0.9036 C   0  0  0  0  0  0  0  0  0  0  0  0
    2.9567    0.2638   -0.0761 C   0  0  0  0  0  0  0  0  0  0  0  0
    1.7392    0.8563   -0.7976 C   0  0  0  0  0  0  0  0  0  0  0  0
   -3.6521    0.9633   -0.7768 H   0  0  0  0  0  0  0  0  0  0  0  0
   -3.2275   -0.7785   -0.3552 H   0  0  0  0  0  0  0  0  0  0  0  0
   -3.3164    0.4896    0.9087 H   0  0  0  0  0  0  0  0  0  0  0  0
   -1.4100    1.7162   -0.6113 H   0  0  0  0  0  0  0  0  0  0  0  0
   -0.3813    0.0741   -2.1684 H   0  0  0  0  0  0  0  0  0  0  0  0
   -1.3676   -1.3430   -1.5058 H   0  0  0  0  0  0  0  0  0  0  0  0
   -0.5299   -0.9154    2.1401 H   0  0  0  0  0  0  0  0  0  0  0  0
   -1.9285   -1.3589    1.1465 H   0  0  0  0  0  0  0  0  0  0  0  0
   -0.3504   -2.1312    0.7640 H   0  0  0  0  0  0  0  0  0  0  0  0
    0.7271    1.4302    1.0516 H   0  0  0  0  0  0  0  0  0  0  0  0
    2.2699   -0.1211    1.9346 H   0  0  0  0  0  0  0  0  0  0  0  0
    1.8234   -1.4116    0.7352 H   0  0  0  0  0  0  0  0  0  0  0  0
    3.5122   -0.4892   -0.6640 H   0  0  0  0  0  0  0  0  0  0  0  0
    3.6024    1.0463    0.3687 H   0  0  0  0  0  0  0  0  0  0  0  0
    1.8510    1.9497   -0.9966 H   0  0  0  0  0  0  0  0  0  0  0  0
    1.5926    0.3235   -1.7338 H   0  0  0  0  0  0  0  0  0  0  0  0
  1  2  1  0
  2  3  1  0
  3  4  1  0
  4  5  1  0
  4  6  1  0
  6  7  1  0
  7  8  1  0
  8  9  1  0
  4  2  1  0
  9  6  1  0
  1 10  1  0
  1 11  1  0
  1 12  1  0
  2 13  1  0
  3 14  1  0
  3 15  1  0
  5 16  1  0
  5 17  1  0
  5 18  1  0
  6 19  1  0
  7 20  1  0
  7 21  1  0
  8 22  1  0
  8 23  1  0
  9 24  1  0
  9 25  1  0
M  END
