
     RDKit          3D

 25 26  0  0  0  0  0  0  0  0999 V2000
   -0.9343    1.6906    0.9191 C   0  0  0  0  0  0  0  0  0  0  0  0
   -0.2444    0.9887   -0.2110 C   0  0  0  0  0  0  0  0  0  0  0  0
    1.2384    1.0547   -0.1744 C   0  0  0  0  0  0  0  0  0  0  0  0
    1.6273   -0.0146   -1.2040 C   0  0  0  0  0  0  0  0  0  0  0  0
    0.9960   -0.9514   -0.2152 C   0  0  0  0  0  0  0  0  0  0  0  0
    1.5777   -0.0231    0.8629 C   0  0  0  0  0  0  0  0  0  0  0  0
   -0.4548   -0.5242   -0.1740 C   0  0  0  0  0  0  0  0  0  0  0  0
   -1.1055   -1.0080    1.0589 C   0  0  0  0  0  0  0  0  0  0  0  0
   -1.1616   -1.0292   -1.3892 C   0  0  0  0  0  0  0  0  0  0  0  0
   -0.5133    1.5021    1.9064 H   0  0  0  0  0  0  0  0  0  0  0  0
   -2.0216    1.4880    0.8304 H   0  0  0  0  0  0  0  0  0  0  0  0
   -0.8214    2.7847    0.7256 H   0  0  0  0  0  0  0  0  0  0  0  0
   -0.6886    1.3458   -1.1581 H   0  0  0  0  0  0  0  0  0  0  0  0
    1.7757    1.9573   -0.1582 H   0  0  0  0  0  0  0  0  0  0  0  0
    2.7217   -0.0501   -1.2659 H   0  0  0  0  0  0  0  0  0  0  0  0
    1.0994    0.1470   -2.1488 H   0  0  0  0  0  0  0  0  0  0  0  0
    1.2540   -1.9716   -0.1846 H   0  0  0  0  0  0  0  0  0  0  0  0
    2.6494   -0.1713    1.0259 H   0  0  0  0  0  0  0  0  0  0  0  0
    0.9502    0.0289    1.7700 H   0  0  0  0  0  0  0  0  0  0  0  0
   -0.3938   -1.6728    1.6286 H   0  0  0  0  0  0  0  0  0  0  0  0
   -1.9583   -1.7026    0.7979 H   0  0  0  0  0  0  0  0  0  0  0  0
   -1.5132   -0.2665    1.7353 H   0  0  0  0  0  0  0  0  0  0  0  0
   -2.2655   -0.8803   -1.2117 H   0  0  0  0  0  0  0  0  0  0  0  0
   -0.8231   -0.5834   -2.3346 H   0  0  0  0  0  0  0  0  0  0  0  0
   -0.9905   -2.1387   -1.4311 H   0  0  0  0  0  0  0  0  0  0  0  0
  1  2  1  0
  2  3  1  0
  3  4  1  0
  4  5  1  0
  5  6  1  0
  5  7  1  0
  7  8  1  0
  7  9  1  0
  7  2  1  0
  6  3  1  0
  1 10  1  0
  1 11  1  0
  1 12  1  0
  2 13  1  0
  3 14  1  0
  4 15  1  0
  4 16  1  0
  5 17  1  0
  6 18  1  0
  6 19  1  0
  8 20  1  0
  8 21  1  0
  8 22  1  0
  9 23  1  0
  9 24  1  0
  9 25  1  0
M  END
