
     RDKit          3D

 21 22  0  0  0  0  0  0  0  0999 V2000
    2.2013    0.8765   -0.6749 C   0  0  0  0  0  0  0  0  0  0  0  0
    1.0281    0.6287    0.2412 C   0  0  0  0  0  0  0  0  0  0  0  0
    0.9968   -0.7808    0.8359 C   0  0  0  0  0  0  0  0  0  0  0  0
   -0.0001   -1.1645   -0.2350 C   0  0  0  0  0  0  0  0  0  0  0  0
   -1.2792   -1.7225    0.2097 C   0  0  0  0  0  0  0  0  0  0  0  0
   -2.1045   -0.7651    0.5166 C   0  0  0  0  0  0  0  0  0  0  0  0
   -1.5077    0.5529    0.3258 C   0  0  0  0  0  0  0  0  0  0  0  0
   -2.3700    1.4549   -0.2954 O   0  0  0  0  0  0  0  0  0  0  0  0
   -0.2673    0.3018   -0.4786 C   0  0  0  0  0  0  0  0  0  0  0  0
    3.0445    1.2377   -0.0696 H   0  0  0  0  0  0  0  0  0  0  0  0
    2.4911   -0.0800   -1.1938 H   0  0  0  0  0  0  0  0  0  0  0  0
    1.9715    1.6494   -1.4346 H   0  0  0  0  0  0  0  0  0  0  0  0
    0.9221    1.4387    0.9652 H   0  0  0  0  0  0  0  0  0  0  0  0
    1.9666   -1.3161    0.6815 H   0  0  0  0  0  0  0  0  0  0  0  0
    0.6186   -0.7577    1.8640 H   0  0  0  0  0  0  0  0  0  0  0  0
    0.4225   -1.7123   -1.0980 H   0  0  0  0  0  0  0  0  0  0  0  0
   -1.4517   -2.8226    0.2540 H   0  0  0  0  0  0  0  0  0  0  0  0
   -3.1253   -0.9257    0.8753 H   0  0  0  0  0  0  0  0  0  0  0  0
   -1.1868    0.9320    1.3342 H   0  0  0  0  0  0  0  0  0  0  0  0
   -2.0674    2.3678    0.0156 H   0  0  0  0  0  0  0  0  0  0  0  0
   -0.3031    0.6069   -1.5435 H   0  0  0  0  0  0  0  0  0  0  0  0
  1  2  1  0
  2  3  1  0
  3  4  1  0
  4  5  1  0
  5  6  2  0
  6  7  1  0
  7  8  1  0
  7  9  1  0
  9  2  1  0
  9  4  1  0
  1 10  1  0
  1 11  1  0
  1 12  1  0
  2 13  1  0
  3 14  1  0
  3 15  1  0
  4 16  1  0
  5 17  1  0
  6 18  1  0
  7 19  1  0
  8 20  1  0
  9 21  1  0
M  END
