
     RDKit          3D

 23 24  0  0  0  0  0  0  0  0999 V2000
   -2.4519    0.4024   -0.2785 C   0  0  0  0  0  0  0  0  0  0  0  0
   -1.0046    0.0408   -0.5208 C   0  0  0  0  0  0  0  0  0  0  0  0
   -0.1166    1.0957    0.0728 C   0  0  0  0  0  0  0  0  0  0  0  0
    0.0373    2.2028   -0.7354 O   0  0  0  0  0  0  0  0  0  0  0  0
    1.1632    0.4394    0.4698 C   0  0  0  0  0  0  0  0  0  0  0  0
    2.2081    0.4497   -0.6105 C   0  0  0  0  0  0  0  0  0  0  0  0
    0.7753   -0.9612    0.7885 C   0  0  0  0  0  0  0  0  0  0  0  0
    0.4859   -1.9785   -0.2186 C   0  0  0  0  0  0  0  0  0  0  0  0
   -0.6345   -1.1809    0.3032 C   0  0  0  0  0  0  0  0  0  0  0  0
   -3.1215   -0.1992   -0.9102 H   0  0  0  0  0  0  0  0  0  0  0  0
   -2.6738    0.1217    0.7772 H   0  0  0  0  0  0  0  0  0  0  0  0
   -2.6422    1.4730   -0.4190 H   0  0  0  0  0  0  0  0  0  0  0  0
   -0.8021   -0.1647   -1.5880 H   0  0  0  0  0  0  0  0  0  0  0  0
   -0.6241    1.4362    1.0224 H   0  0  0  0  0  0  0  0  0  0  0  0
   -0.7319    2.2638   -1.3458 H   0  0  0  0  0  0  0  0  0  0  0  0
    1.5747    0.9638    1.3421 H   0  0  0  0  0  0  0  0  0  0  0  0
    3.1801    0.1543   -0.1260 H   0  0  0  0  0  0  0  0  0  0  0  0
    2.0292   -0.2993   -1.3992 H   0  0  0  0  0  0  0  0  0  0  0  0
    2.3867    1.4736   -1.0128 H   0  0  0  0  0  0  0  0  0  0  0  0
    1.0434   -1.2993    1.8125 H   0  0  0  0  0  0  0  0  0  0  0  0
    0.5192   -3.0409    0.1155 H   0  0  0  0  0  0  0  0  0  0  0  0
    0.7266   -1.8667   -1.2945 H   0  0  0  0  0  0  0  0  0  0  0  0
   -1.3264   -1.5268    1.0805 H   0  0  0  0  0  0  0  0  0  0  0  0
  1  2  1  0
  2  3  1  0
  3  4  1  0
  3  5  1  0
  5  6  1  0
  5  7  1  0
  7  8  1  0
  8  9  1  0
  9  2  1  0
  9  7  1  0
  1 10  1  0
  1 11  1  0
  1 12  1  0
  2 13  1  0
  3 14  1  0
  4 15  1  0
  5 16  1  0
  6 17  1  0
  6 18  1  0
  6 19  1  0
  7 20  1  0
  8 21  1  0
  8 22  1  0
  9 23  1  0
M  END
