
     RDKit          3D

 23 24  0  0  0  0  0  0  0  0999 V2000
    2.5264   -0.1820    0.1803 C   0  0  0  0  0  0  0  0  0  0  0  0
    1.0301   -0.1421    0.3520 C   0  0  0  0  0  0  0  0  0  0  0  0
    0.4376   -1.2928   -0.4741 C   0  0  0  0  0  0  0  0  0  0  0  0
   -0.9957   -0.8884   -0.5856 C   0  0  0  0  0  0  0  0  0  0  0  0
   -1.7049   -0.8715    0.7563 C   0  0  0  0  0  0  0  0  0  0  0  0
   -1.9734    0.5952    0.5368 C   0  0  0  0  0  0  0  0  0  0  0  0
   -1.0238    0.6256   -0.6241 C   0  0  0  0  0  0  0  0  0  0  0  0
    0.3855    1.0328   -0.3233 C   0  0  0  0  0  0  0  0  0  0  0  0
    0.5050    2.2149    0.3624 O   0  0  0  0  0  0  0  0  0  0  0  0
    2.9251    0.8077   -0.1569 H   0  0  0  0  0  0  0  0  0  0  0  0
    3.0352   -0.3750    1.1587 H   0  0  0  0  0  0  0  0  0  0  0  0
    2.8398   -0.9964   -0.4986 H   0  0  0  0  0  0  0  0  0  0  0  0
    0.7733   -0.2310    1.4164 H   0  0  0  0  0  0  0  0  0  0  0  0
    0.6062   -2.2645   -0.0127 H   0  0  0  0  0  0  0  0  0  0  0  0
    0.9188   -1.2160   -1.4666 H   0  0  0  0  0  0  0  0  0  0  0  0
   -1.5779   -1.2971   -1.4185 H   0  0  0  0  0  0  0  0  0  0  0  0
   -1.0868   -1.0746    1.6311 H   0  0  0  0  0  0  0  0  0  0  0  0
   -2.5836   -1.5395    0.7062 H   0  0  0  0  0  0  0  0  0  0  0  0
   -1.6931    1.2004    1.4070 H   0  0  0  0  0  0  0  0  0  0  0  0
   -3.0282    0.7168    0.1759 H   0  0  0  0  0  0  0  0  0  0  0  0
   -1.4625    1.0609   -1.5534 H   0  0  0  0  0  0  0  0  0  0  0  0
    0.9031    1.1678   -1.3085 H   0  0  0  0  0  0  0  0  0  0  0  0
    0.2439    2.9486   -0.2609 H   0  0  0  0  0  0  0  0  0  0  0  0
  1  2  1  0
  2  3  1  0
  3  4  1  0
  4  5  1  0
  5  6  1  0
  6  7  1  0
  7  8  1  0
  8  9  1  0
  8  2  1  0
  7  4  1  0
  1 10  1  0
  1 11  1  0
  1 12  1  0
  2 13  1  0
  3 14  1  0
  3 15  1  0
  4 16  1  0
  5 17  1  0
  5 18  1  0
  6 19  1  0
  6 20  1  0
  7 21  1  0
  8 22  1  0
  9 23  1  0
M  END
