
     RDKit          3D

 17 18  0  0  0  0  0  0  0  0999 V2000
    1.2601   -0.0371   -1.3193 C   0  0  0  0  0  0  0  0  0  0  0  0
    0.6055   -0.4750   -0.0596 C   0  0  0  0  0  0  0  0  0  0  0  0
   -0.7950   -1.0642   -0.2364 C   0  0  0  0  0  0  0  0  0  0  0  0
   -0.9757   -0.6274    1.2255 C   0  0  0  0  0  0  0  0  0  0  0  0
   -0.1386    0.5637    0.7307 C   0  0  0  0  0  0  0  0  0  0  0  0
    0.4675    1.3257    1.6152 O   0  0  0  0  0  0  0  0  0  0  0  0
   -1.0679    1.1217   -0.2715 C   0  0  0  0  0  0  0  0  0  0  0  0
   -1.3974    2.3075   -0.5218 O   0  0  0  0  0  0  0  0  0  0  0  0
   -1.5187   -0.0610   -0.9121 O   0  0  0  0  0  0  0  0  0  0  0  0
    0.7633    0.7741   -1.8548 H   0  0  0  0  0  0  0  0  0  0  0  0
    2.3331    0.1564   -1.0975 H   0  0  0  0  0  0  0  0  0  0  0  0
    1.2637   -0.9203   -2.0214 H   0  0  0  0  0  0  0  0  0  0  0  0
    1.2551   -1.0777    0.5751 H   0  0  0  0  0  0  0  0  0  0  0  0
   -0.8993   -2.0801   -0.4748 H   0  0  0  0  0  0  0  0  0  0  0  0
   -0.4273   -1.2268    1.9499 H   0  0  0  0  0  0  0  0  0  0  0  0
   -2.0224   -0.4045    1.4138 H   0  0  0  0  0  0  0  0  0  0  0  0
    1.2938    1.7251    1.2591 H   0  0  0  0  0  0  0  0  0  0  0  0
  1  2  1  0
  2  3  1  0
  3  4  1  0
  4  5  1  0
  5  6  1  0
  5  7  1  0
  7  8  2  0
  7  9  1  0
  5  2  1  0
  9  3  1  0
  1 10  1  0
  1 11  1  0
  1 12  1  0
  2 13  1  0
  3 14  1  0
  4 15  1  0
  4 16  1  0
  6 17  1  0
M  END
