
     RDKit          3D

 21 23  0  0  0  0  0  0  0  0999 V2000
    2.1723   -0.9184   -0.4138 C   0  0  0  0  0  0  0  0  0  0  0  0
    1.1671    0.1609   -0.6275 C   0  0  0  0  0  0  0  0  0  0  0  0
    1.2854    1.3596    0.2914 C   0  0  0  0  0  0  0  0  0  0  0  0
    0.1252    0.5174    0.3097 C   0  0  0  0  0  0  0  0  0  0  0  0
   -0.2730   -0.3621    1.4846 C   0  0  0  0  0  0  0  0  0  0  0  0
   -1.3454   -1.0400    1.0673 C   0  0  0  0  0  0  0  0  0  0  0  0
   -1.6249   -0.6409   -0.2827 C   0  0  0  0  0  0  0  0  0  0  0  0
   -2.2204    0.3997   -0.9908 C   0  0  0  0  0  0  0  0  0  0  0  0
   -1.2714    0.8688   -0.0757 C   0  0  0  0  0  0  0  0  0  0  0  0
    1.9729   -1.5677    0.4523 H   0  0  0  0  0  0  0  0  0  0  0  0
    2.2291   -1.5919   -1.3093 H   0  0  0  0  0  0  0  0  0  0  0  0
    3.1810   -0.4302   -0.3244 H   0  0  0  0  0  0  0  0  0  0  0  0
    1.0307    0.4432   -1.7017 H   0  0  0  0  0  0  0  0  0  0  0  0
    1.2010    2.3773   -0.1404 H   0  0  0  0  0  0  0  0  0  0  0  0
    1.9988    1.3101    1.1427 H   0  0  0  0  0  0  0  0  0  0  0  0
    0.2299   -0.4052    2.4451 H   0  0  0  0  0  0  0  0  0  0  0  0
   -1.8991   -1.7779    1.6876 H   0  0  0  0  0  0  0  0  0  0  0  0
   -0.8915   -1.2397   -0.9313 H   0  0  0  0  0  0  0  0  0  0  0  0
   -3.3182    0.6113   -0.8359 H   0  0  0  0  0  0  0  0  0  0  0  0
   -2.0147    0.5589   -2.0859 H   0  0  0  0  0  0  0  0  0  0  0  0
   -1.7349    1.3668    0.8387 H   0  0  0  0  0  0  0  0  0  0  0  0
  1  2  1  0
  2  3  1  0
  3  4  1  0
  4  5  1  0
  5  6  2  0
  6  7  1  0
  7  8  1  0
  8  9  1  0
  4  2  1  0
  9  7  1  0
  9  4  1  0
  1 10  1  0
  1 11  1  0
  1 12  1  0
  2 13  1  0
  3 14  1  0
  3 15  1  0
  5 16  1  0
  6 17  1  0
  7 18  1  0
  8 19  1  0
  8 20  1  0
  9 21  1  0
M  END
