
     RDKit          3D

 21 22  0  0  0  0  0  0  0  0999 V2000
    2.5757   -0.2806   -0.4001 C   0  0  0  0  0  0  0  0  0  0  0  0
    1.1792   -0.1926    0.1771 C   0  0  0  0  0  0  0  0  0  0  0  0
    0.6481    1.2080    0.0130 C   0  0  0  0  0  0  0  0  0  0  0  0
   -0.4092    0.6703   -0.9187 C   0  0  0  0  0  0  0  0  0  0  0  0
   -1.7677    0.7948   -0.2993 C   0  0  0  0  0  0  0  0  0  0  0  0
   -2.1946   -0.5776    0.1551 C   0  0  0  0  0  0  0  0  0  0  0  0
   -0.9980   -1.4518    0.0013 C   0  0  0  0  0  0  0  0  0  0  0  0
   -0.9697   -2.5991    0.4083 O   0  0  0  0  0  0  0  0  0  0  0  0
    0.0840   -0.7253   -0.6908 C   0  0  0  0  0  0  0  0  0  0  0  0
    2.5682   -0.6224   -1.4543 H   0  0  0  0  0  0  0  0  0  0  0  0
    3.2399   -0.9232    0.2270 H   0  0  0  0  0  0  0  0  0  0  0  0
    3.0793    0.7305   -0.4111 H   0  0  0  0  0  0  0  0  0  0  0  0
    1.0887   -0.6184    1.2039 H   0  0  0  0  0  0  0  0  0  0  0  0
    1.3195    1.9212   -0.4981 H   0  0  0  0  0  0  0  0  0  0  0  0
    0.2805    1.6446    0.9576 H   0  0  0  0  0  0  0  0  0  0  0  0
   -0.3335    1.0621   -1.9489 H   0  0  0  0  0  0  0  0  0  0  0  0
   -1.7706    1.5047    0.5625 H   0  0  0  0  0  0  0  0  0  0  0  0
   -2.4753    1.1649   -1.0824 H   0  0  0  0  0  0  0  0  0  0  0  0
   -2.5431   -0.5203    1.1899 H   0  0  0  0  0  0  0  0  0  0  0  0
   -3.0452   -0.9285   -0.4651 H   0  0  0  0  0  0  0  0  0  0  0  0
    0.4438   -1.2611   -1.6128 H   0  0  0  0  0  0  0  0  0  0  0  0
  1  2  1  0
  2  3  1  0
  3  4  1  0
  4  5  1  0
  5  6  1  0
  6  7  1  0
  7  8  2  0
  7  9  1  0
  9  2  1  0
  9  4  1  0
  1 10  1  0
  1 11  1  0
  1 12  1  0
  2 13  1  0
  3 14  1  0
  3 15  1  0
  4 16  1  0
  5 17  1  0
  5 18  1  0
  6 19  1  0
  6 20  1  0
  9 21  1  0
M  END
