
     RDKit          3D

 23 23  0  0  0  0  0  0  0  0999 V2000
    2.8608    0.0523   -0.2104 C   0  0  0  0  0  0  0  0  0  0  0  0
    1.4716    0.1348    0.3231 C   0  0  0  0  0  0  0  0  0  0  0  0
    0.6304   -1.0497   -0.1689 C   0  0  0  0  0  0  0  0  0  0  0  0
   -0.7621   -0.4672    0.1087 C   0  0  0  0  0  0  0  0  0  0  0  0
   -1.8273   -1.1347   -0.6855 C   0  0  0  0  0  0  0  0  0  0  0  0
   -0.9686   -0.4664    1.4706 O   0  0  0  0  0  0  0  0  0  0  0  0
   -0.5070    0.9708   -0.3140 C   0  0  0  0  0  0  0  0  0  0  0  0
   -1.5108    1.8646    0.3639 C   0  0  0  0  0  0  0  0  0  0  0  0
    0.7890    1.2733    0.0022 O   0  0  0  0  0  0  0  0  0  0  0  0
    3.5415    0.5393    0.5391 H   0  0  0  0  0  0  0  0  0  0  0  0
    2.9594    0.5008   -1.2181 H   0  0  0  0  0  0  0  0  0  0  0  0
    3.1438   -1.0351   -0.2377 H   0  0  0  0  0  0  0  0  0  0  0  0
    1.5348    0.0077    1.4385 H   0  0  0  0  0  0  0  0  0  0  0  0
    0.8210   -1.9592    0.3973 H   0  0  0  0  0  0  0  0  0  0  0  0
    0.8139   -1.1298   -1.2584 H   0  0  0  0  0  0  0  0  0  0  0  0
   -2.6053   -0.4616   -1.0702 H   0  0  0  0  0  0  0  0  0  0  0  0
   -1.4430   -1.7639   -1.5260 H   0  0  0  0  0  0  0  0  0  0  0  0
   -2.3422   -1.8690   -0.0022 H   0  0  0  0  0  0  0  0  0  0  0  0
   -0.6929   -1.3168    1.9087 H   0  0  0  0  0  0  0  0  0  0  0  0
   -0.6120    1.0918   -1.4285 H   0  0  0  0  0  0  0  0  0  0  0  0
   -2.5245    1.4440    0.1112 H   0  0  0  0  0  0  0  0  0  0  0  0
   -1.3531    1.8687    1.4538 H   0  0  0  0  0  0  0  0  0  0  0  0
   -1.4174    2.9054    0.0028 H   0  0  0  0  0  0  0  0  0  0  0  0
  1  2  1  0
  2  3  1  0
  3  4  1  0
  4  5  1  0
  4  6  1  0
  4  7  1  0
  7  8  1  0
  7  9  1  0
  9  2  1  0
  1 10  1  0
  1 11  1  0
  1 12  1  0
  2 13  1  0
  3 14  1  0
  3 15  1  0
  5 16  1  0
  5 17  1  0
  5 18  1  0
  6 19  1  0
  7 20  1  0
  8 21  1  0
  8 22  1  0
  8 23  1  0
M  END
