
     RDKit          3D

 20 21  0  0  0  0  0  0  0  0999 V2000
    2.0047   -0.2669    0.4066 C   0  0  0  0  0  0  0  0  0  0  0  0
    0.7177   -0.4650   -0.3006 C   0  0  0  0  0  0  0  0  0  0  0  0
   -0.2725   -1.3259    0.4964 C   0  0  0  0  0  0  0  0  0  0  0  0
   -1.4958   -1.2085   -0.4233 C   0  0  0  0  0  0  0  0  0  0  0  0
   -1.5101    0.2484   -0.7301 C   0  0  0  0  0  0  0  0  0  0  0  0
   -0.7680    0.7847   -1.7587 O   0  0  0  0  0  0  0  0  0  0  0  0
   -0.0781    0.7570   -0.5628 C   0  0  0  0  0  0  0  0  0  0  0  0
    0.0146    1.9729    0.3054 C   0  0  0  0  0  0  0  0  0  0  0  0
    2.1189   -0.9173    1.3242 H   0  0  0  0  0  0  0  0  0  0  0  0
    2.8466   -0.6144   -0.2628 H   0  0  0  0  0  0  0  0  0  0  0  0
    2.2502    0.7582    0.6860 H   0  0  0  0  0  0  0  0  0  0  0  0
    0.8704   -1.0417   -1.2604 H   0  0  0  0  0  0  0  0  0  0  0  0
    0.0636   -2.3538    0.6070 H   0  0  0  0  0  0  0  0  0  0  0  0
   -0.5424   -0.8172    1.4445 H   0  0  0  0  0  0  0  0  0  0  0  0
   -2.3761   -1.4548    0.1961 H   0  0  0  0  0  0  0  0  0  0  0  0
   -1.3875   -1.8594   -1.3130 H   0  0  0  0  0  0  0  0  0  0  0  0
   -2.3432    0.8825   -0.3910 H   0  0  0  0  0  0  0  0  0  0  0  0
   -0.6113    2.7707   -0.1950 H   0  0  0  0  0  0  0  0  0  0  0  0
    1.0150    2.3652    0.4567 H   0  0  0  0  0  0  0  0  0  0  0  0
   -0.5168    1.7852    1.2747 H   0  0  0  0  0  0  0  0  0  0  0  0
  1  2  1  0
  2  3  1  0
  3  4  1  0
  4  5  1  0
  5  6  1  0
  6  7  1  0
  7  8  1  0
  7  2  1  0
  7  5  1  0
  1  9  1  0
  1 10  1  0
  1 11  1  0
  2 12  1  0
  3 13  1  0
  3 14  1  0
  4 15  1  0
  4 16  1  0
  5 17  1  0
  8 18  1  0
  8 19  1  0
  8 20  1  0
M  END
