
     RDKit          3D

 23 24  0  0  0  0  0  0  0  0999 V2000
    2.2592   -0.7633   -0.8490 C   0  0  0  0  0  0  0  0  0  0  0  0
    0.9965   -0.9625   -0.0701 C   0  0  0  0  0  0  0  0  0  0  0  0
    1.0178   -0.1609    1.2487 C   0  0  0  0  0  0  0  0  0  0  0  0
   -0.2498    0.6286    1.0602 C   0  0  0  0  0  0  0  0  0  0  0  0
   -1.1722   -0.3788    0.4436 C   0  0  0  0  0  0  0  0  0  0  0  0
   -2.5728   -0.0158    0.2084 C   0  0  0  0  0  0  0  0  0  0  0  0
   -0.2110   -0.3179   -0.7141 C   0  0  0  0  0  0  0  0  0  0  0  0
   -0.0038    1.1375   -0.3684 C   0  0  0  0  0  0  0  0  0  0  0  0
   -0.9234    2.0253   -0.8389 O   0  0  0  0  0  0  0  0  0  0  0  0
    2.1603   -0.0323   -1.6726 H   0  0  0  0  0  0  0  0  0  0  0  0
    3.0519   -0.4726   -0.1197 H   0  0  0  0  0  0  0  0  0  0  0  0
    2.5712   -1.7481   -1.2554 H   0  0  0  0  0  0  0  0  0  0  0  0
    0.8057   -2.0238    0.1902 H   0  0  0  0  0  0  0  0  0  0  0  0
    1.0101   -0.8279    2.1136 H   0  0  0  0  0  0  0  0  0  0  0  0
    1.8664    0.5190    1.1761 H   0  0  0  0  0  0  0  0  0  0  0  0
   -0.5815    1.3131    1.7849 H   0  0  0  0  0  0  0  0  0  0  0  0
   -1.0808   -1.3524    0.9680 H   0  0  0  0  0  0  0  0  0  0  0  0
   -3.1943   -0.4387    1.0456 H   0  0  0  0  0  0  0  0  0  0  0  0
   -2.9388   -0.5565   -0.7057 H   0  0  0  0  0  0  0  0  0  0  0  0
   -2.8172    1.0357    0.1087 H   0  0  0  0  0  0  0  0  0  0  0  0
   -0.5136   -0.5996   -1.6820 H   0  0  0  0  0  0  0  0  0  0  0  0
    1.0512    1.4736   -0.4762 H   0  0  0  0  0  0  0  0  0  0  0  0
   -0.5310    2.5182   -1.5958 H   0  0  0  0  0  0  0  0  0  0  0  0
  1  2  1  0
  2  3  1  0
  3  4  1  0
  4  5  1  0
  5  6  1  0
  5  7  1  0
  7  8  1  0
  8  9  1  0
  7  2  1  0
  8  4  1  0
  1 10  1  0
  1 11  1  0
  1 12  1  0
  2 13  1  0
  3 14  1  0
  3 15  1  0
  4 16  1  0
  5 17  1  0
  6 18  1  0
  6 19  1  0
  6 20  1  0
  7 21  1  0
  8 22  1  0
  9 23  1  0
M  END
