
     RDKit          3D

 19 21  0  0  0  0  0  0  0  0999 V2000
    2.5635   -0.2292   -0.0518 C   0  0  0  0  0  0  0  0  0  0  0  0
    1.1194   -0.2050    0.3628 C   0  0  0  0  0  0  0  0  0  0  0  0
    0.1437   -1.1847   -0.1036 C   0  0  0  0  0  0  0  0  0  0  0  0
   -1.0536   -1.3194    0.5353 O   0  0  0  0  0  0  0  0  0  0  0  0
   -1.6568   -0.1068    0.6826 C   0  0  0  0  0  0  0  0  0  0  0  0
   -2.4459    0.3913   -0.4803 C   0  0  0  0  0  0  0  0  0  0  0  0
   -1.0680    0.8580   -0.3126 C   0  0  0  0  0  0  0  0  0  0  0  0
    0.1400    0.1390   -0.7669 C   0  0  0  0  0  0  0  0  0  0  0  0
    0.6486    0.2376   -2.0314 O   0  0  0  0  0  0  0  0  0  0  0  0
    2.7034   -0.3890   -1.1401 H   0  0  0  0  0  0  0  0  0  0  0  0
    3.1686   -0.9106    0.5730 H   0  0  0  0  0  0  0  0  0  0  0  0
    2.9685    0.8016    0.1534 H   0  0  0  0  0  0  0  0  0  0  0  0
    0.9471    0.2472    1.3583 H   0  0  0  0  0  0  0  0  0  0  0  0
    0.4163   -2.0478   -0.7568 H   0  0  0  0  0  0  0  0  0  0  0  0
   -1.7894    0.2888    1.6946 H   0  0  0  0  0  0  0  0  0  0  0  0
   -3.2423    1.1348   -0.2689 H   0  0  0  0  0  0  0  0  0  0  0  0
   -2.7506   -0.3621   -1.2216 H   0  0  0  0  0  0  0  0  0  0  0  0
   -0.8965    1.9146    0.0018 H   0  0  0  0  0  0  0  0  0  0  0  0
    0.0841    0.7415   -2.6364 H   0  0  0  0  0  0  0  0  0  0  0  0
  1  2  1  0
  2  3  1  0
  3  4  1  0
  4  5  1  0
  5  6  1  0
  6  7  1  0
  7  8  1  0
  8  9  1  0
  8  2  1  0
  8  3  1  0
  7  5  1  0
  1 10  1  0
  1 11  1  0
  1 12  1  0
  2 13  1  0
  3 14  1  0
  5 15  1  0
  6 16  1  0
  6 17  1  0
  7 18  1  0
  9 19  1  0
M  END
