
     RDKit          3D

 18 19  0  0  0  0  0  0  0  0999 V2000
   -1.6684   -0.8352    0.5403 C   0  0  0  0  0  0  0  0  0  0  0  0
   -0.8775    0.1906   -0.1779 C   0  0  0  0  0  0  0  0  0  0  0  0
    0.2435   -0.4305   -1.0418 C   0  0  0  0  0  0  0  0  0  0  0  0
    0.9659    0.8280   -1.3734 C   0  0  0  0  0  0  0  0  0  0  0  0
    0.9182    1.6180   -0.3117 C   0  0  0  0  0  0  0  0  0  0  0  0
    0.1539    0.8859    0.7348 C   0  0  0  0  0  0  0  0  0  0  0  0
    0.9747   -0.2999    1.0906 C   0  0  0  0  0  0  0  0  0  0  0  0
    1.0079   -1.0906    0.0229 C   0  0  0  0  0  0  0  0  0  0  0  0
   -2.7215   -0.4832    0.6160 H   0  0  0  0  0  0  0  0  0  0  0  0
   -1.6582   -1.7761   -0.0742 H   0  0  0  0  0  0  0  0  0  0  0  0
   -1.2562   -1.1311    1.5266 H   0  0  0  0  0  0  0  0  0  0  0  0
   -1.4302    0.9537   -0.7135 H   0  0  0  0  0  0  0  0  0  0  0  0
   -0.1044   -1.0115   -1.8528 H   0  0  0  0  0  0  0  0  0  0  0  0
    1.4298    1.0218   -2.3181 H   0  0  0  0  0  0  0  0  0  0  0  0
    1.3371    2.6020   -0.1903 H   0  0  0  0  0  0  0  0  0  0  0  0
   -0.2589    1.4517    1.5219 H   0  0  0  0  0  0  0  0  0  0  0  0
    1.4414   -0.4518    2.0539 H   0  0  0  0  0  0  0  0  0  0  0  0
    1.5028   -2.0417   -0.0533 H   0  0  0  0  0  0  0  0  0  0  0  0
  1  2  1  0
  2  3  1  0
  3  4  1  0
  4  5  2  0
  5  6  1  0
  6  7  1  0
  7  8  2  0
  6  2  1  0
  8  3  1  0
  1  9  1  0
  1 10  1  0
  1 11  1  0
  2 12  1  0
  3 13  1  0
  4 14  1  0
  5 15  1  0
  6 16  1  0
  7 17  1  0
  8 18  1  0
M  END
