
     RDKit          3D

 23 24  0  0  0  0  0  0  0  0999 V2000
    1.9308   -0.7162    0.8721 C   0  0  0  0  0  0  0  0  0  0  0  0
    1.3391   -0.1812   -0.3873 C   0  0  0  0  0  0  0  0  0  0  0  0
    0.9739    1.2695   -0.2968 C   0  0  0  0  0  0  0  0  0  0  0  0
   -0.4564    1.2466   -0.8477 C   0  0  0  0  0  0  0  0  0  0  0  0
   -1.4136    1.0872    0.3048 C   0  0  0  0  0  0  0  0  0  0  0  0
   -2.0218   -0.3079    0.2421 C   0  0  0  0  0  0  0  0  0  0  0  0
   -0.8365   -1.2763    0.2230 C   0  0  0  0  0  0  0  0  0  0  0  0
    0.1146   -0.8762   -0.8556 C   0  0  0  0  0  0  0  0  0  0  0  0
   -0.4878    0.1054   -1.6742 O   0  0  0  0  0  0  0  0  0  0  0  0
    2.1061   -1.7945    0.7777 H   0  0  0  0  0  0  0  0  0  0  0  0
    2.9461   -0.2370    0.9850 H   0  0  0  0  0  0  0  0  0  0  0  0
    1.3508   -0.4494    1.7854 H   0  0  0  0  0  0  0  0  0  0  0  0
    2.1164   -0.2737   -1.1880 H   0  0  0  0  0  0  0  0  0  0  0  0
    0.9012    1.6431    0.7522 H   0  0  0  0  0  0  0  0  0  0  0  0
    1.6173    1.9218   -0.8957 H   0  0  0  0  0  0  0  0  0  0  0  0
   -0.6369    2.1497   -1.4510 H   0  0  0  0  0  0  0  0  0  0  0  0
   -2.1752    1.8780    0.3497 H   0  0  0  0  0  0  0  0  0  0  0  0
   -0.8564    1.1181    1.2827 H   0  0  0  0  0  0  0  0  0  0  0  0
   -2.6937   -0.4957    1.0865 H   0  0  0  0  0  0  0  0  0  0  0  0
   -2.5584   -0.4448   -0.7190 H   0  0  0  0  0  0  0  0  0  0  0  0
   -1.2849   -2.2663   -0.0673 H   0  0  0  0  0  0  0  0  0  0  0  0
   -0.3805   -1.3716    1.2175 H   0  0  0  0  0  0  0  0  0  0  0  0
    0.4060   -1.7288   -1.4961 H   0  0  0  0  0  0  0  0  0  0  0  0
  1  2  1  0
  2  3  1  0
  3  4  1  0
  4  5  1  0
  5  6  1  0
  6  7  1  0
  7  8  1  0
  8  9  1  0
  8  2  1  0
  9  4  1  0
  1 10  1  0
  1 11  1  0
  1 12  1  0
  2 13  1  0
  3 14  1  0
  3 15  1  0
  4 16  1  0
  5 17  1  0
  5 18  1  0
  6 19  1  0
  6 20  1  0
  7 21  1  0
  7 22  1  0
  8 23  1  0
M  END
