
     RDKit          3D

 21 23  0  0  0  0  0  0  0  0999 V2000
    2.0883   -0.8584    0.0611 C   0  0  0  0  0  0  0  0  0  0  0  0
    1.3080    0.2899   -0.4738 C   0  0  0  0  0  0  0  0  0  0  0  0
   -0.0458   -0.2447   -0.9934 C   0  0  0  0  0  0  0  0  0  0  0  0
   -0.6212    1.0594   -1.4540 C   0  0  0  0  0  0  0  0  0  0  0  0
   -0.3621    1.8750   -0.4283 C   0  0  0  0  0  0  0  0  0  0  0  0
    0.3581    0.9592    0.5372 C   0  0  0  0  0  0  0  0  0  0  0  0
   -0.4510   -0.2508    0.4117 C   0  0  0  0  0  0  0  0  0  0  0  0
   -1.9754   -0.2157    0.6171 C   0  0  0  0  0  0  0  0  0  0  0  0
   -0.9863   -1.1721    1.2886 C   0  0  0  0  0  0  0  0  0  0  0  0
    2.4164   -1.4732   -0.8271 H   0  0  0  0  0  0  0  0  0  0  0  0
    3.0210   -0.5556    0.5902 H   0  0  0  0  0  0  0  0  0  0  0  0
    1.4292   -1.4897    0.6824 H   0  0  0  0  0  0  0  0  0  0  0  0
    1.8022    0.9733   -1.1576 H   0  0  0  0  0  0  0  0  0  0  0  0
   -0.0356   -1.0743   -1.6315 H   0  0  0  0  0  0  0  0  0  0  0  0
   -1.1113    1.2219   -2.3997 H   0  0  0  0  0  0  0  0  0  0  0  0
   -0.5981    2.9134   -0.3073 H   0  0  0  0  0  0  0  0  0  0  0  0
    0.7551    1.3512    1.4192 H   0  0  0  0  0  0  0  0  0  0  0  0
   -2.3582    0.6384    1.1764 H   0  0  0  0  0  0  0  0  0  0  0  0
   -2.5924   -0.6723   -0.1954 H   0  0  0  0  0  0  0  0  0  0  0  0
   -1.0941   -2.2531    1.0258 H   0  0  0  0  0  0  0  0  0  0  0  0
   -0.9465   -1.0216    2.3828 H   0  0  0  0  0  0  0  0  0  0  0  0
  1  2  1  0
  2  3  1  0
  3  4  1  0
  4  5  2  0
  5  6  1  0
  6  7  1  0
  7  8  1  0
  8  9  1  0
  6  2  1  0
  9  7  1  0
  7  3  1  0
  1 10  1  0
  1 11  1  0
  1 12  1  0
  2 13  1  0
  3 14  1  0
  4 15  1  0
  5 16  1  0
  6 17  1  0
  8 18  1  0
  8 19  1  0
  9 20  1  0
  9 21  1  0
M  END
