
     RDKit          3D

 22 23  0  0  0  0  0  0  0  0999 V2000
    1.7710    0.1782   -1.0790 C   0  0  0  0  0  0  0  0  0  0  0  0
    1.1125    0.3204    0.2641 C   0  0  0  0  0  0  0  0  0  0  0  0
    0.7190   -1.0692    0.7802 C   0  0  0  0  0  0  0  0  0  0  0  0
   -0.7781   -0.9696    0.7876 C   0  0  0  0  0  0  0  0  0  0  0  0
   -1.2946   -0.7304   -0.6271 C   0  0  0  0  0  0  0  0  0  0  0  0
   -0.9490    0.7061   -0.9658 C   0  0  0  0  0  0  0  0  0  0  0  0
   -0.1463    1.1356    0.2323 C   0  0  0  0  0  0  0  0  0  0  0  0
   -0.9560    0.4520    1.3488 C   0  0  0  0  0  0  0  0  0  0  0  0
    1.1913   -0.3897   -1.8121 H   0  0  0  0  0  0  0  0  0  0  0  0
    2.0508    1.1525   -1.4833 H   0  0  0  0  0  0  0  0  0  0  0  0
    2.7186   -0.3868   -0.9140 H   0  0  0  0  0  0  0  0  0  0  0  0
    1.8442    0.8090    0.9386 H   0  0  0  0  0  0  0  0  0  0  0  0
    1.1269   -1.8731    0.1769 H   0  0  0  0  0  0  0  0  0  0  0  0
    1.0506   -1.0928    1.8532 H   0  0  0  0  0  0  0  0  0  0  0  0
   -1.3076   -1.7187    1.3385 H   0  0  0  0  0  0  0  0  0  0  0  0
   -2.4134   -0.7888   -0.5539 H   0  0  0  0  0  0  0  0  0  0  0  0
   -0.9100   -1.4539   -1.3458 H   0  0  0  0  0  0  0  0  0  0  0  0
   -1.8569    1.3584   -0.9914 H   0  0  0  0  0  0  0  0  0  0  0  0
   -0.4428    0.8253   -1.9211 H   0  0  0  0  0  0  0  0  0  0  0  0
   -0.0353    2.1929    0.3721 H   0  0  0  0  0  0  0  0  0  0  0  0
   -2.0033    0.7729    1.2764 H   0  0  0  0  0  0  0  0  0  0  0  0
   -0.4914    0.5695    2.3247 H   0  0  0  0  0  0  0  0  0  0  0  0
  1  2  1  0
  2  3  1  0
  3  4  1  0
  4  5  1  0
  5  6  1  0
  6  7  1  0
  7  8  1  0
  7  2  1  0
  8  4  1  0
  1  9  1  0
  1 10  1  0
  1 11  1  0
  2 12  1  0
  3 13  1  0
  3 14  1  0
  4 15  1  0
  5 16  1  0
  5 17  1  0
  6 18  1  0
  6 19  1  0
  7 20  1  0
  8 21  1  0
  8 22  1  0
M  END
