
     RDKit          3D

 16 17  0  0  0  0  0  0  0  0999 V2000
    2.0862    0.6287    0.3272 C   0  0  0  0  0  0  0  0  0  0  0  0
    1.1359   -0.4649   -0.1565 C   0  0  0  0  0  0  0  0  0  0  0  0
    0.0739    0.1864   -0.9988 C   0  0  0  0  0  0  0  0  0  0  0  0
    0.0135    0.6701   -2.1030 O   0  0  0  0  0  0  0  0  0  0  0  0
   -0.8577   -0.0394    0.1474 C   0  0  0  0  0  0  0  0  0  0  0  0
   -2.3236   -0.1237   -0.0764 C   0  0  0  0  0  0  0  0  0  0  0  0
   -0.4778    0.4549    1.3966 O   0  0  0  0  0  0  0  0  0  0  0  0
    0.0315   -0.7799    0.8338 C   0  0  0  0  0  0  0  0  0  0  0  0
    2.9915    0.2200    0.7948 H   0  0  0  0  0  0  0  0  0  0  0  0
    2.3315    1.3183   -0.5141 H   0  0  0  0  0  0  0  0  0  0  0  0
    1.4923    1.2631    1.0494 H   0  0  0  0  0  0  0  0  0  0  0  0
    1.5976   -1.3066   -0.6586 H   0  0  0  0  0  0  0  0  0  0  0  0
   -2.7921    0.8980    0.0254 H   0  0  0  0  0  0  0  0  0  0  0  0
   -2.7982   -0.8391    0.6213 H   0  0  0  0  0  0  0  0  0  0  0  0
   -2.5721   -0.4415   -1.1175 H   0  0  0  0  0  0  0  0  0  0  0  0
    0.0676   -1.6441    1.4735 H   0  0  0  0  0  0  0  0  0  0  0  0
  1  2  1  0
  2  3  1  0
  3  4  2  0
  3  5  1  0
  5  6  1  0
  5  7  1  0
  7  8  1  0
  8  2  1  0
  8  5  1  0
  1  9  1  0
  1 10  1  0
  1 11  1  0
  2 12  1  0
  6 13  1  0
  6 14  1  0
  6 15  1  0
  8 16  1  0
M  END
