
     RDKit          3D

 19 20  0  0  0  0  0  0  0  0999 V2000
   -2.5214    0.2802    0.2266 C   0  0  0  0  0  0  0  0  0  0  0  0
   -1.4352   -0.4687   -0.5532 C   0  0  0  0  0  0  0  0  0  0  0  0
   -0.3303    0.2673   -0.9952 C   0  0  0  0  0  0  0  0  0  0  0  0
    0.7670    1.0351   -0.3446 C   0  0  0  0  0  0  0  0  0  0  0  0
    1.8469   -0.0770   -0.3879 C   0  0  0  0  0  0  0  0  0  0  0  0
    2.6794    0.0374    0.7226 O   0  0  0  0  0  0  0  0  0  0  0  0
    1.0448   -1.3364   -0.3078 C   0  0  0  0  0  0  0  0  0  0  0  0
    1.4138   -2.4635   -0.5299 O   0  0  0  0  0  0  0  0  0  0  0  0
   -0.2682   -0.8827    0.0964 C   0  0  0  0  0  0  0  0  0  0  0  0
   -3.3118   -0.4374    0.5391 H   0  0  0  0  0  0  0  0  0  0  0  0
   -2.9578    1.0661   -0.3850 H   0  0  0  0  0  0  0  0  0  0  0  0
   -2.0866    0.6646    1.1917 H   0  0  0  0  0  0  0  0  0  0  0  0
   -1.9397   -1.1999   -1.2479 H   0  0  0  0  0  0  0  0  0  0  0  0
    0.0622   -0.0358   -2.0210 H   0  0  0  0  0  0  0  0  0  0  0  0
    1.0932    1.8938   -0.9518 H   0  0  0  0  0  0  0  0  0  0  0  0
    0.5998    1.2439    0.7085 H   0  0  0  0  0  0  0  0  0  0  0  0
    2.3777    0.0420   -1.3311 H   0  0  0  0  0  0  0  0  0  0  0  0
    3.1512    0.8841    0.6512 H   0  0  0  0  0  0  0  0  0  0  0  0
   -0.1850   -0.5131    1.1697 H   0  0  0  0  0  0  0  0  0  0  0  0
  1  2  1  0
  2  3  1  0
  3  4  1  0
  4  5  1  0
  5  6  1  0
  5  7  1  0
  7  8  2  0
  7  9  1  0
  9  2  1  0
  9  3  1  0
  1 10  1  0
  1 11  1  0
  1 12  1  0
  2 13  1  0
  3 14  1  0
  4 15  1  0
  4 16  1  0
  5 17  1  0
  6 18  1  0
  9 19  1  0
M  END
