
     RDKit          3D

 21 23  0  0  0  0  0  0  0  0999 V2000
    2.7564    0.4400    0.2640 C   0  0  0  0  0  0  0  0  0  0  0  0
    1.2966    0.1890    0.4111 C   0  0  0  0  0  0  0  0  0  0  0  0
    0.7036   -0.6979   -0.6738 C   0  0  0  0  0  0  0  0  0  0  0  0
   -0.4354   -1.5386   -0.2165 C   0  0  0  0  0  0  0  0  0  0  0  0
   -1.6172   -0.6279   -0.3381 C   0  0  0  0  0  0  0  0  0  0  0  0
   -1.8246    0.3064    0.8115 C   0  0  0  0  0  0  0  0  0  0  0  0
   -3.1442    0.7114    0.9900 O   0  0  0  0  0  0  0  0  0  0  0  0
   -1.1128    0.7818   -0.3708 C   0  0  0  0  0  0  0  0  0  0  0  0
    0.3461    0.7312   -0.5676 C   0  0  0  0  0  0  0  0  0  0  0  0
    3.2497    0.7886    1.2133 H   0  0  0  0  0  0  0  0  0  0  0  0
    3.0114    1.0718   -0.5973 H   0  0  0  0  0  0  0  0  0  0  0  0
    3.2436   -0.5610    0.0652 H   0  0  0  0  0  0  0  0  0  0  0  0
    0.9397    0.0908    1.4470 H   0  0  0  0  0  0  0  0  0  0  0  0
    1.3440   -1.0680   -1.4820 H   0  0  0  0  0  0  0  0  0  0  0  0
   -0.2607   -1.8011    0.8666 H   0  0  0  0  0  0  0  0  0  0  0  0
   -0.5398   -2.4969   -0.7390 H   0  0  0  0  0  0  0  0  0  0  0  0
   -2.4253   -0.8846   -1.0302 H   0  0  0  0  0  0  0  0  0  0  0  0
   -1.2793    0.0693    1.7670 H   0  0  0  0  0  0  0  0  0  0  0  0
   -3.3649    1.5491    0.5314 H   0  0  0  0  0  0  0  0  0  0  0  0
   -1.6795    1.4878   -1.0450 H   0  0  0  0  0  0  0  0  0  0  0  0
    0.7925    1.4587   -1.3067 H   0  0  0  0  0  0  0  0  0  0  0  0
  1  2  1  0
  2  3  1  0
  3  4  1  0
  4  5  1  0
  5  6  1  0
  6  7  1  0
  6  8  1  0
  8  9  1  0
  9  2  1  0
  9  3  1  0
  8  5  1  0
  1 10  1  0
  1 11  1  0
  1 12  1  0
  2 13  1  0
  3 14  1  0
  4 15  1  0
  4 16  1  0
  5 17  1  0
  6 18  1  0
  7 19  1  0
  8 20  1  0
  9 21  1  0
M  END
