
     RDKit          3D

 20 21  0  0  0  0  0  0  0  0999 V2000
   -2.2786   -1.0746   -0.2098 C   0  0  0  0  0  0  0  0  0  0  0  0
   -1.4082    0.1419   -0.3656 C   0  0  0  0  0  0  0  0  0  0  0  0
   -1.3027    1.1875    0.6456 C   0  0  0  0  0  0  0  0  0  0  0  0
   -0.2247    0.1838    0.5954 C   0  0  0  0  0  0  0  0  0  0  0  0
    1.0872    0.4378   -0.0808 C   0  0  0  0  0  0  0  0  0  0  0  0
    1.2335    1.6141   -0.7887 O   0  0  0  0  0  0  0  0  0  0  0  0
    1.7543   -0.7576   -0.7651 C   0  0  0  0  0  0  0  0  0  0  0  0
    2.2993   -0.2331    0.5122 C   0  0  0  0  0  0  0  0  0  0  0  0
   -2.0068   -1.6620    0.7116 H   0  0  0  0  0  0  0  0  0  0  0  0
   -1.9992   -1.7678   -1.0572 H   0  0  0  0  0  0  0  0  0  0  0  0
   -3.3479   -0.8807   -0.2929 H   0  0  0  0  0  0  0  0  0  0  0  0
   -1.2427    0.4505   -1.4211 H   0  0  0  0  0  0  0  0  0  0  0  0
   -1.9733    1.2050    1.5532 H   0  0  0  0  0  0  0  0  0  0  0  0
   -1.0451    2.2172    0.3219 H   0  0  0  0  0  0  0  0  0  0  0  0
   -0.2097   -0.5493    1.4245 H   0  0  0  0  0  0  0  0  0  0  0  0
    1.7922    2.2251   -0.2433 H   0  0  0  0  0  0  0  0  0  0  0  0
    1.1287   -1.6617   -0.8154 H   0  0  0  0  0  0  0  0  0  0  0  0
    2.3674   -0.5891   -1.6563 H   0  0  0  0  0  0  0  0  0  0  0  0
    3.2128    0.3617    0.4951 H   0  0  0  0  0  0  0  0  0  0  0  0
    2.1633   -0.8487    1.4367 H   0  0  0  0  0  0  0  0  0  0  0  0
  1  2  1  0
  2  3  1  0
  3  4  1  0
  4  5  1  0
  5  6  1  0
  5  7  1  0
  7  8  1  0
  4  2  1  0
  8  5  1  0
  1  9  1  0
  1 10  1  0
  1 11  1  0
  2 12  1  0
  3 13  1  0
  3 14  1  0
  4 15  1  0
  6 16  1  0
  7 17  1  0
  7 18  1  0
  8 19  1  0
  8 20  1  0
M  END
