
     RDKit          3D

 21 22  0  0  0  0  0  0  0  0999 V2000
   -1.1927    1.8437   -0.0548 C   0  0  0  0  0  0  0  0  0  0  0  0
   -1.0805    0.4459    0.4736 C   0  0  0  0  0  0  0  0  0  0  0  0
   -1.5311   -0.5780   -0.5667 C   0  0  0  0  0  0  0  0  0  0  0  0
   -0.8788   -1.8140   -0.0013 C   0  0  0  0  0  0  0  0  0  0  0  0
    0.1745   -1.4910    0.7219 C   0  0  0  0  0  0  0  0  0  0  0  0
    0.3135   -0.0181    0.6985 C   0  0  0  0  0  0  0  0  0  0  0  0
    1.2409    0.3141   -0.4545 C   0  0  0  0  0  0  0  0  0  0  0  0
    2.6624   -0.1580   -0.2299 C   0  0  0  0  0  0  0  0  0  0  0  0
    2.3107    1.1717   -0.2377 O   0  0  0  0  0  0  0  0  0  0  0  0
   -2.2836    2.0328   -0.2331 H   0  0  0  0  0  0  0  0  0  0  0  0
   -0.6867    1.9410   -1.0208 H   0  0  0  0  0  0  0  0  0  0  0  0
   -0.8757    2.5429    0.7150 H   0  0  0  0  0  0  0  0  0  0  0  0
   -1.6664    0.3066    1.3819 H   0  0  0  0  0  0  0  0  0  0  0  0
   -1.1169   -0.2903   -1.5401 H   0  0  0  0  0  0  0  0  0  0  0  0
   -2.6174   -0.6487   -0.5160 H   0  0  0  0  0  0  0  0  0  0  0  0
   -1.2765   -2.8005   -0.2035 H   0  0  0  0  0  0  0  0  0  0  0  0
    0.8260   -2.2181    1.2462 H   0  0  0  0  0  0  0  0  0  0  0  0
    0.7534    0.3363    1.6564 H   0  0  0  0  0  0  0  0  0  0  0  0
    0.8354    0.2810   -1.4845 H   0  0  0  0  0  0  0  0  0  0  0  0
    2.9416   -0.5741    0.7552 H   0  0  0  0  0  0  0  0  0  0  0  0
    3.1479   -0.6251   -1.1056 H   0  0  0  0  0  0  0  0  0  0  0  0
  1  2  1  0
  2  3  1  0
  3  4  1  0
  4  5  2  0
  5  6  1  0
  6  7  1  0
  7  8  1  0
  8  9  1  0
  6  2  1  0
  9  7  1  0
  1 10  1  0
  1 11  1  0
  1 12  1  0
  2 13  1  0
  3 14  1  0
  3 15  1  0
  4 16  1  0
  5 17  1  0
  6 18  1  0
  7 19  1  0
  8 20  1  0
  8 21  1  0
M  END
