
     RDKit          3D

 21 22  0  0  0  0  0  0  0  0999 V2000
   -1.3403   -1.7084   -0.1837 C   0  0  0  0  0  0  0  0  0  0  0  0
   -0.7349   -0.4174   -0.6375 C   0  0  0  0  0  0  0  0  0  0  0  0
   -1.6833    0.7345   -0.3139 C   0  0  0  0  0  0  0  0  0  0  0  0
   -0.5599    1.4344    0.4134 C   0  0  0  0  0  0  0  0  0  0  0  0
   -0.8320    1.8012    1.7186 O   0  0  0  0  0  0  0  0  0  0  0  0
    0.2789    0.2187    0.2302 C   0  0  0  0  0  0  0  0  0  0  0  0
    0.9327   -0.4069    1.2350 O   0  0  0  0  0  0  0  0  0  0  0  0
    1.6587    0.2532    0.1524 C   0  0  0  0  0  0  0  0  0  0  0  0
    2.4375   -0.6493   -0.7562 C   0  0  0  0  0  0  0  0  0  0  0  0
   -0.7898   -2.5534   -0.6701 H   0  0  0  0  0  0  0  0  0  0  0  0
   -1.4057   -1.8069    0.9055 H   0  0  0  0  0  0  0  0  0  0  0  0
   -2.3789   -1.7719   -0.6093 H   0  0  0  0  0  0  0  0  0  0  0  0
   -0.4013   -0.4595   -1.6887 H   0  0  0  0  0  0  0  0  0  0  0  0
   -2.0197    1.1892   -1.2503 H   0  0  0  0  0  0  0  0  0  0  0  0
   -2.4923    0.4633    0.4085 H   0  0  0  0  0  0  0  0  0  0  0  0
   -0.1588    2.2657   -0.2387 H   0  0  0  0  0  0  0  0  0  0  0  0
   -0.6842    2.7892    1.7705 H   0  0  0  0  0  0  0  0  0  0  0  0
    2.2516    1.1458    0.4931 H   0  0  0  0  0  0  0  0  0  0  0  0
    2.0998   -1.6948   -0.7463 H   0  0  0  0  0  0  0  0  0  0  0  0
    2.2921   -0.2649   -1.7985 H   0  0  0  0  0  0  0  0  0  0  0  0
    3.5298   -0.5618   -0.5493 H   0  0  0  0  0  0  0  0  0  0  0  0
  1  2  1  0
  2  3  1  0
  3  4  1  0
  4  5  1  0
  4  6  1  0
  6  7  1  0
  7  8  1  0
  8  9  1  0
  6  2  1  0
  8  6  1  0
  1 10  1  0
  1 11  1  0
  1 12  1  0
  2 13  1  0
  3 14  1  0
  3 15  1  0
  4 16  1  0
  5 17  1  0
  8 18  1  0
  9 19  1  0
  9 20  1  0
  9 21  1  0
M  END
