
     RDKit          3D

 21 21  0  0  0  0  0  0  0  0999 V2000
   -0.5754    2.2238    0.1714 C   0  0  0  0  0  0  0  0  0  0  0  0
   -0.0484    0.9919   -0.5164 C   0  0  0  0  0  0  0  0  0  0  0  0
    0.7419   -0.0193    0.3046 C   0  0  0  0  0  0  0  0  0  0  0  0
    1.8302   -0.6718   -0.3324 O   0  0  0  0  0  0  0  0  0  0  0  0
    3.0007   -0.8952    0.3548 C   0  0  0  0  0  0  0  0  0  0  0  0
    3.0976   -0.5170    1.5492 O   0  0  0  0  0  0  0  0  0  0  0  0
   -0.6362   -0.3265   -0.2321 C   0  0  0  0  0  0  0  0  0  0  0  0
   -0.7165   -1.3533   -1.3503 C   0  0  0  0  0  0  0  0  0  0  0  0
   -1.6685   -0.5290    0.8467 C   0  0  0  0  0  0  0  0  0  0  0  0
   -1.6804    2.2091    0.2368 H   0  0  0  0  0  0  0  0  0  0  0  0
   -0.1811    2.3082    1.2190 H   0  0  0  0  0  0  0  0  0  0  0  0
   -0.2735    3.1340   -0.3828 H   0  0  0  0  0  0  0  0  0  0  0  0
    0.3429    1.1264   -1.5569 H   0  0  0  0  0  0  0  0  0  0  0  0
    0.8885    0.2845    1.3421 H   0  0  0  0  0  0  0  0  0  0  0  0
    3.8379   -1.4022   -0.1497 H   0  0  0  0  0  0  0  0  0  0  0  0
   -0.6529   -2.3653   -0.9325 H   0  0  0  0  0  0  0  0  0  0  0  0
   -1.6640   -1.1806   -1.9161 H   0  0  0  0  0  0  0  0  0  0  0  0
    0.1093   -1.2479   -2.0778 H   0  0  0  0  0  0  0  0  0  0  0  0
   -1.7222   -1.6233    1.0378 H   0  0  0  0  0  0  0  0  0  0  0  0
   -2.6554   -0.0931    0.5720 H   0  0  0  0  0  0  0  0  0  0  0  0
   -1.3745   -0.0535    1.8125 H   0  0  0  0  0  0  0  0  0  0  0  0
  1  2  1  0
  2  3  1  0
  3  4  1  0
  4  5  1  0
  5  6  2  0
  3  7  1  0
  7  8  1  0
  7  9  1  0
  7  2  1  0
  1 10  1  0
  1 11  1  0
  1 12  1  0
  2 13  1  0
  3 14  1  0
  5 15  1  0
  8 16  1  0
  8 17  1  0
  8 18  1  0
  9 19  1  0
  9 20  1  0
  9 21  1  0
M  END
