
     RDKit          3D

 18 20  0  0  0  0  0  0  0  0999 V2000
   -2.6311    0.3422   -0.1723 C   0  0  0  0  0  0  0  0  0  0  0  0
   -1.4432   -0.6105    0.0309 C   0  0  0  0  0  0  0  0  0  0  0  0
   -0.3156   -0.0715    0.7280 C   0  0  0  0  0  0  0  0  0  0  0  0
   -0.2613   -0.5261   -0.7865 C   0  0  0  0  0  0  0  0  0  0  0  0
    1.1753   -0.6872   -0.3763 C   0  0  0  0  0  0  0  0  0  0  0  0
    2.1579    0.3313   -0.1032 C   0  0  0  0  0  0  0  0  0  0  0  0
    3.0402    0.2429    1.0028 O   0  0  0  0  0  0  0  0  0  0  0  0
    0.8243    0.7510    0.1796 C   0  0  0  0  0  0  0  0  0  0  0  0
   -2.3642    1.1043   -0.9538 H   0  0  0  0  0  0  0  0  0  0  0  0
   -3.5116   -0.1971   -0.5779 H   0  0  0  0  0  0  0  0  0  0  0  0
   -2.9155    0.8369    0.7765 H   0  0  0  0  0  0  0  0  0  0  0  0
   -1.8264   -1.6518    0.2378 H   0  0  0  0  0  0  0  0  0  0  0  0
    0.1460   -0.8017    1.4596 H   0  0  0  0  0  0  0  0  0  0  0  0
   -0.3250    0.3158   -1.5378 H   0  0  0  0  0  0  0  0  0  0  0  0
    1.1974   -1.5125    0.3966 H   0  0  0  0  0  0  0  0  0  0  0  0
    2.7205    0.7236   -0.9974 H   0  0  0  0  0  0  0  0  0  0  0  0
    3.9361   -0.0505    0.6974 H   0  0  0  0  0  0  0  0  0  0  0  0
    0.3961    1.4608   -0.5891 H   0  0  0  0  0  0  0  0  0  0  0  0
  1  2  1  0
  2  3  1  0
  3  4  1  0
  4  5  1  0
  5  6  1  0
  6  7  1  0
  6  8  1  0
  4  2  1  0
  8  5  1  0
  8  3  1  0
  1  9  1  0
  1 10  1  0
  1 11  1  0
  2 12  1  0
  3 13  1  0
  4 14  1  0
  5 15  1  0
  6 16  1  0
  7 17  1  0
  8 18  1  0
M  END
