
     RDKit          3D

 25 25  0  0  0  0  0  0  0  0999 V2000
    2.5857    0.8944   -0.0436 C   0  0  0  0  0  0  0  0  0  0  0  0
    1.2880    0.2931   -0.6050 C   0  0  0  0  0  0  0  0  0  0  0  0
    1.3232   -1.1750   -0.4076 C   0  0  0  0  0  0  0  0  0  0  0  0
    0.1122   -1.7633    0.2365 C   0  0  0  0  0  0  0  0  0  0  0  0
   -1.0967   -1.0139   -0.2221 C   0  0  0  0  0  0  0  0  0  0  0  0
   -0.9437    0.4440    0.0637 C   0  0  0  0  0  0  0  0  0  0  0  0
   -1.3541    0.6524    1.5305 C   0  0  0  0  0  0  0  0  0  0  0  0
   -1.9404    1.1913   -0.8265 C   0  0  0  0  0  0  0  0  0  0  0  0
    0.2663    0.9828   -0.0965 O   0  0  0  0  0  0  0  0  0  0  0  0
    3.3284    1.0754   -0.8163 H   0  0  0  0  0  0  0  0  0  0  0  0
    2.9631    0.1815    0.7452 H   0  0  0  0  0  0  0  0  0  0  0  0
    2.3886    1.8408    0.4963 H   0  0  0  0  0  0  0  0  0  0  0  0
    1.3475    0.4862   -1.7171 H   0  0  0  0  0  0  0  0  0  0  0  0
    1.4846   -1.7378   -1.3741 H   0  0  0  0  0  0  0  0  0  0  0  0
    2.2036   -1.4804    0.2249 H   0  0  0  0  0  0  0  0  0  0  0  0
   -0.0170   -2.8325   -0.0969 H   0  0  0  0  0  0  0  0  0  0  0  0
    0.1544   -1.7840    1.3218 H   0  0  0  0  0  0  0  0  0  0  0  0
   -1.3832   -1.2230   -1.2734 H   0  0  0  0  0  0  0  0  0  0  0  0
   -1.9644   -1.3955    0.3923 H   0  0  0  0  0  0  0  0  0  0  0  0
   -1.0649   -0.2535    2.0755 H   0  0  0  0  0  0  0  0  0  0  0  0
   -0.7437    1.4879    1.9818 H   0  0  0  0  0  0  0  0  0  0  0  0
   -2.4080    0.9238    1.5848 H   0  0  0  0  0  0  0  0  0  0  0  0
   -2.5903    1.8213   -0.1896 H   0  0  0  0  0  0  0  0  0  0  0  0
   -2.5209    0.4988   -1.4626 H   0  0  0  0  0  0  0  0  0  0  0  0
   -1.4185    1.8853   -1.5221 H   0  0  0  0  0  0  0  0  0  0  0  0
  1  2  1  0
  2  3  1  0
  3  4  1  0
  4  5  1  0
  5  6  1  0
  6  7  1  0
  6  8  1  0
  6  9  1  0
  9  2  1  0
  1 10  1  0
  1 11  1  0
  1 12  1  0
  2 13  1  0
  3 14  1  0
  3 15  1  0
  4 16  1  0
  4 17  1  0
  5 18  1  0
  5 19  1  0
  7 20  1  0
  7 21  1  0
  7 22  1  0
  8 23  1  0
  8 24  1  0
  8 25  1  0
M  END
