
     RDKit          3D

 23 24  0  0  0  0  0  0  0  0999 V2000
   -1.3301    1.3560   -0.8316 C   0  0  0  0  0  0  0  0  0  0  0  0
   -1.1434    0.4444    0.3228 C   0  0  0  0  0  0  0  0  0  0  0  0
   -1.9220   -0.8719    0.2445 C   0  0  0  0  0  0  0  0  0  0  0  0
   -0.7073   -1.5380    0.8566 C   0  0  0  0  0  0  0  0  0  0  0  0
    0.1151   -0.3617    0.3955 C   0  0  0  0  0  0  0  0  0  0  0  0
    1.0624    0.1868    1.3700 C   0  0  0  0  0  0  0  0  0  0  0  0
    2.1563    0.6210    0.7850 C   0  0  0  0  0  0  0  0  0  0  0  0
    2.0526    0.4034   -0.6754 C   0  0  0  0  0  0  0  0  0  0  0  0
    0.9061   -0.5376   -0.8376 C   0  0  0  0  0  0  0  0  0  0  0  0
   -0.4257    1.6727   -1.3534 H   0  0  0  0  0  0  0  0  0  0  0  0
   -1.8284    2.3033   -0.4728 H   0  0  0  0  0  0  0  0  0  0  0  0
   -2.0568    0.8764   -1.5455 H   0  0  0  0  0  0  0  0  0  0  0  0
   -1.3361    0.9336    1.3148 H   0  0  0  0  0  0  0  0  0  0  0  0
   -2.0860   -1.1146   -0.8274 H   0  0  0  0  0  0  0  0  0  0  0  0
   -2.8126   -0.8371    0.8834 H   0  0  0  0  0  0  0  0  0  0  0  0
   -0.7752   -1.6747    1.9469 H   0  0  0  0  0  0  0  0  0  0  0  0
   -0.4349   -2.4436    0.2744 H   0  0  0  0  0  0  0  0  0  0  0  0
    0.9213    0.2510    2.4774 H   0  0  0  0  0  0  0  0  0  0  0  0
    3.0400    1.0870    1.3029 H   0  0  0  0  0  0  0  0  0  0  0  0
    1.9470    1.3565   -1.2329 H   0  0  0  0  0  0  0  0  0  0  0  0
    3.0067   -0.1248   -0.9729 H   0  0  0  0  0  0  0  0  0  0  0  0
    0.3566   -0.3997   -1.7815 H   0  0  0  0  0  0  0  0  0  0  0  0
    1.2946   -1.5883   -0.8612 H   0  0  0  0  0  0  0  0  0  0  0  0
  1  2  1  0
  2  3  1  0
  3  4  1  0
  4  5  1  0
  5  6  1  0
  6  7  2  0
  7  8  1  0
  8  9  1  0
  5  2  1  0
  9  5  1  0
  1 10  1  0
  1 11  1  0
  1 12  1  0
  2 13  1  0
  3 14  1  0
  3 15  1  0
  4 16  1  0
  4 17  1  0
  6 18  1  0
  7 19  1  0
  8 20  1  0
  8 21  1  0
  9 22  1  0
  9 23  1  0
M  END
