
     RDKit          3D

 19 19  0  0  0  0  0  0  0  0999 V2000
   -2.6632    0.2699    0.2591 C   0  0  0  0  0  0  0  0  0  0  0  0
   -1.2827   -0.3839    0.3211 C   0  0  0  0  0  0  0  0  0  0  0  0
   -0.6755   -0.3133   -1.0246 C   0  0  0  0  0  0  0  0  0  0  0  0
    0.6651   -0.1765   -1.1043 O   0  0  0  0  0  0  0  0  0  0  0  0
    1.3834   -0.3378    0.0423 C   0  0  0  0  0  0  0  0  0  0  0  0
    2.8084    0.1041   -0.1654 C   0  0  0  0  0  0  0  0  0  0  0  0
    0.7793    0.5525    1.0899 C   0  0  0  0  0  0  0  0  0  0  0  0
    1.4428    1.4302    1.6928 O   0  0  0  0  0  0  0  0  0  0  0  0
   -0.5714    0.3127    1.3241 O   0  0  0  0  0  0  0  0  0  0  0  0
   -2.9606    0.4540   -0.8106 H   0  0  0  0  0  0  0  0  0  0  0  0
   -3.4260   -0.3225    0.7896 H   0  0  0  0  0  0  0  0  0  0  0  0
   -2.6593    1.2755    0.7305 H   0  0  0  0  0  0  0  0  0  0  0  0
   -1.4646   -1.4462    0.6047 H   0  0  0  0  0  0  0  0  0  0  0  0
   -0.9812   -1.2390   -1.5957 H   0  0  0  0  0  0  0  0  0  0  0  0
   -1.1487    0.5250   -1.6164 H   0  0  0  0  0  0  0  0  0  0  0  0
    1.3627   -1.3645    0.4566 H   0  0  0  0  0  0  0  0  0  0  0  0
    3.2917    0.1791    0.8430 H   0  0  0  0  0  0  0  0  0  0  0  0
    3.3233   -0.6349   -0.8082 H   0  0  0  0  0  0  0  0  0  0  0  0
    2.7763    1.1155   -0.6306 H   0  0  0  0  0  0  0  0  0  0  0  0
  1  2  1  0
  2  3  1  0
  3  4  1  0
  4  5  1  0
  5  6  1  0
  5  7  1  0
  7  8  2  0
  7  9  1  0
  9  2  1  0
  1 10  1  0
  1 11  1  0
  1 12  1  0
  2 13  1  0
  3 14  1  0
  3 15  1  0
  5 16  1  0
  6 17  1  0
  6 18  1  0
  6 19  1  0
M  END
