
     RDKit          3D

 23 25  0  0  0  0  0  0  0  0999 V2000
    2.5314    0.0104    0.0616 C   0  0  0  0  0  0  0  0  0  0  0  0
    1.0521   -0.1589    0.3712 C   0  0  0  0  0  0  0  0  0  0  0  0
    0.4691   -1.2036   -0.5383 C   0  0  0  0  0  0  0  0  0  0  0  0
   -1.0507   -0.9938   -0.4760 C   0  0  0  0  0  0  0  0  0  0  0  0
   -1.3220    0.2435   -1.2792 C   0  0  0  0  0  0  0  0  0  0  0  0
   -0.8114    1.3400   -0.4331 C   0  0  0  0  0  0  0  0  0  0  0  0
   -1.0460    0.9154    0.9552 C   0  0  0  0  0  0  0  0  0  0  0  0
   -1.4402   -0.5358    0.9313 C   0  0  0  0  0  0  0  0  0  0  0  0
    0.3349    1.1237    0.4007 C   0  0  0  0  0  0  0  0  0  0  0  0
    2.6170    0.8259   -0.6695 H   0  0  0  0  0  0  0  0  0  0  0  0
    2.9859   -0.9431   -0.2676 H   0  0  0  0  0  0  0  0  0  0  0  0
    3.0598    0.2816    1.0168 H   0  0  0  0  0  0  0  0  0  0  0  0
    1.0226   -0.6020    1.4112 H   0  0  0  0  0  0  0  0  0  0  0  0
    0.8492   -0.9711   -1.5724 H   0  0  0  0  0  0  0  0  0  0  0  0
    0.7394   -2.2260   -0.2224 H   0  0  0  0  0  0  0  0  0  0  0  0
   -1.6069   -1.8748   -0.7797 H   0  0  0  0  0  0  0  0  0  0  0  0
   -2.4460    0.3429   -1.3359 H   0  0  0  0  0  0  0  0  0  0  0  0
   -0.9130    0.2044   -2.3058 H   0  0  0  0  0  0  0  0  0  0  0  0
   -1.0791    2.3794   -0.7120 H   0  0  0  0  0  0  0  0  0  0  0  0
   -1.3576    1.5718    1.7618 H   0  0  0  0  0  0  0  0  0  0  0  0
   -2.5625   -0.5933    0.9499 H   0  0  0  0  0  0  0  0  0  0  0  0
   -0.9622   -1.1421    1.7030 H   0  0  0  0  0  0  0  0  0  0  0  0
    0.9362    2.0058    0.7119 H   0  0  0  0  0  0  0  0  0  0  0  0
  1  2  1  0
  2  3  1  0
  3  4  1  0
  4  5  1  0
  5  6  1  0
  6  7  1  0
  7  8  1  0
  7  9  1  0
  9  2  1  0
  8  4  1  0
  9  6  1  0
  1 10  1  0
  1 11  1  0
  1 12  1  0
  2 13  1  0
  3 14  1  0
  3 15  1  0
  4 16  1  0
  5 17  1  0
  5 18  1  0
  6 19  1  0
  7 20  1  0
  8 21  1  0
  8 22  1  0
  9 23  1  0
M  END
