
     RDKit          3D

 21 22  0  0  0  0  0  0  0  0999 V2000
   -2.9787   -0.2457    0.6601 C   0  0  0  0  0  0  0  0  0  0  0  0
   -1.6260   -0.3831    0.0264 C   0  0  0  0  0  0  0  0  0  0  0  0
   -1.2882    0.7132   -0.9795 C   0  0  0  0  0  0  0  0  0  0  0  0
   -0.5575    0.6012    0.3505 C   0  0  0  0  0  0  0  0  0  0  0  0
    0.8813    0.1580    0.1704 C   0  0  0  0  0  0  0  0  0  0  0  0
    1.7428    0.7413   -0.6421 C   0  0  0  0  0  0  0  0  0  0  0  0
    3.0281    0.0122   -0.5258 C   0  0  0  0  0  0  0  0  0  0  0  0
    2.9058   -0.7409    0.6386 O   0  0  0  0  0  0  0  0  0  0  0  0
    1.5669   -0.9598    0.8331 C   0  0  0  0  0  0  0  0  0  0  0  0
   -2.9557    0.2132    1.6644 H   0  0  0  0  0  0  0  0  0  0  0  0
   -3.6339    0.4322    0.0375 H   0  0  0  0  0  0  0  0  0  0  0  0
   -3.5213   -1.2150    0.6806 H   0  0  0  0  0  0  0  0  0  0  0  0
   -1.2565   -1.4038   -0.2082 H   0  0  0  0  0  0  0  0  0  0  0  0
   -1.9769    1.5674   -1.0748 H   0  0  0  0  0  0  0  0  0  0  0  0
   -0.8042    0.3776   -1.8965 H   0  0  0  0  0  0  0  0  0  0  0  0
   -0.7585    1.3326    1.1369 H   0  0  0  0  0  0  0  0  0  0  0  0
    1.5449    1.5966   -1.2772 H   0  0  0  0  0  0  0  0  0  0  0  0
    3.8285    0.7905   -0.3836 H   0  0  0  0  0  0  0  0  0  0  0  0
    3.2558   -0.6061   -1.4135 H   0  0  0  0  0  0  0  0  0  0  0  0
    1.2896   -1.0596    1.9044 H   0  0  0  0  0  0  0  0  0  0  0  0
    1.3136   -1.9219    0.2982 H   0  0  0  0  0  0  0  0  0  0  0  0
  1  2  1  0
  2  3  1  0
  3  4  1  0
  4  5  1  0
  5  6  2  0
  6  7  1  0
  7  8  1  0
  8  9  1  0
  4  2  1  0
  9  5  1  0
  1 10  1  0
  1 11  1  0
  1 12  1  0
  2 13  1  0
  3 14  1  0
  3 15  1  0
  4 16  1  0
  6 17  1  0
  7 18  1  0
  7 19  1  0
  9 20  1  0
  9 21  1  0
M  END
