
     RDKit          3D

 21 22  0  0  0  0  0  0  0  0999 V2000
    2.1126   -0.1820    0.7220 C   0  0  0  0  0  0  0  0  0  0  0  0
    0.9679   -0.2740   -0.2475 C   0  0  0  0  0  0  0  0  0  0  0  0
    0.3964   -1.6684   -0.3485 C   0  0  0  0  0  0  0  0  0  0  0  0
   -0.8133   -1.4364   -0.9972 O   0  0  0  0  0  0  0  0  0  0  0  0
   -1.3344   -0.2601   -0.5189 C   0  0  0  0  0  0  0  0  0  0  0  0
   -2.0206   -0.3129    0.8168 C   0  0  0  0  0  0  0  0  0  0  0  0
   -0.7666   -0.0864    1.4099 O   0  0  0  0  0  0  0  0  0  0  0  0
   -0.2626    0.4596    0.2468 C   0  0  0  0  0  0  0  0  0  0  0  0
   -0.2351    1.9331    0.1843 C   0  0  0  0  0  0  0  0  0  0  0  0
    2.3773    0.8914    0.8128 H   0  0  0  0  0  0  0  0  0  0  0  0
    2.9710   -0.7037    0.3015 H   0  0  0  0  0  0  0  0  0  0  0  0
    1.8069   -0.5389    1.7247 H   0  0  0  0  0  0  0  0  0  0  0  0
    1.2884    0.0361   -1.2401 H   0  0  0  0  0  0  0  0  0  0  0  0
    0.1245   -2.0692    0.6703 H   0  0  0  0  0  0  0  0  0  0  0  0
    1.0346   -2.3588   -0.8993 H   0  0  0  0  0  0  0  0  0  0  0  0
   -1.8503    0.3565   -1.2975 H   0  0  0  0  0  0  0  0  0  0  0  0
   -2.7464    0.5117    0.9524 H   0  0  0  0  0  0  0  0  0  0  0  0
   -2.4194   -1.3304    1.0024 H   0  0  0  0  0  0  0  0  0  0  0  0
    0.7042    2.3074   -0.2929 H   0  0  0  0  0  0  0  0  0  0  0  0
   -1.1438    2.4006   -0.2560 H   0  0  0  0  0  0  0  0  0  0  0  0
   -0.1912    2.3248    1.2417 H   0  0  0  0  0  0  0  0  0  0  0  0
  1  2  1  0
  2  3  1  0
  3  4  1  0
  4  5  1  0
  5  6  1  0
  6  7  1  0
  7  8  1  0
  8  9  1  0
  8  2  1  0
  8  5  1  0
  1 10  1  0
  1 11  1  0
  1 12  1  0
  2 13  1  0
  3 14  1  0
  3 15  1  0
  5 16  1  0
  6 17  1  0
  6 18  1  0
  9 19  1  0
  9 20  1  0
  9 21  1  0
M  END
