
     RDKit          3D

 17 17  0  0  0  0  0  0  0  0999 V2000
    2.1453    0.0425    0.2196 C   0  0  0  0  0  0  0  0  0  0  0  0
    0.7470    0.2312   -0.3381 C   0  0  0  0  0  0  0  0  0  0  0  0
   -0.0151   -1.0607   -0.1505 C   0  0  0  0  0  0  0  0  0  0  0  0
   -1.3984   -0.8252    0.3045 C   0  0  0  0  0  0  0  0  0  0  0  0
   -1.9237   -1.6071    1.0602 O   0  0  0  0  0  0  0  0  0  0  0  0
   -2.1361    0.3649   -0.1651 C   0  0  0  0  0  0  0  0  0  0  0  0
   -1.3161    1.4951    0.0843 O   0  0  0  0  0  0  0  0  0  0  0  0
    0.0319    1.3451    0.3049 C   0  0  0  0  0  0  0  0  0  0  0  0
    0.6545    2.1331    1.0368 O   0  0  0  0  0  0  0  0  0  0  0  0
    2.7627    0.9412    0.1334 H   0  0  0  0  0  0  0  0  0  0  0  0
    2.5864   -0.8165   -0.3482 H   0  0  0  0  0  0  0  0  0  0  0  0
    2.0485   -0.2062    1.2885 H   0  0  0  0  0  0  0  0  0  0  0  0
    0.8607    0.4991   -1.4191 H   0  0  0  0  0  0  0  0  0  0  0  0
    0.4841   -1.7550    0.5332 H   0  0  0  0  0  0  0  0  0  0  0  0
   -0.0307   -1.5565   -1.1579 H   0  0  0  0  0  0  0  0  0  0  0  0
   -3.0780    0.4842    0.4326 H   0  0  0  0  0  0  0  0  0  0  0  0
   -2.4229    0.2909   -1.2347 H   0  0  0  0  0  0  0  0  0  0  0  0
  1  2  1  0
  2  3  1  0
  3  4  1  0
  4  5  2  0
  4  6  1  0
  6  7  1  0
  7  8  1  0
  8  9  2  0
  8  2  1  0
  1 10  1  0
  1 11  1  0
  1 12  1  0
  2 13  1  0
  3 14  1  0
  3 15  1  0
  6 16  1  0
  6 17  1  0
M  END
