
     RDKit          3D

 21 22  0  0  0  0  0  0  0  0999 V2000
   -2.2762   -0.6575    0.1053 C   0  0  0  0  0  0  0  0  0  0  0  0
   -1.0996   -0.0814   -0.7120 C   0  0  0  0  0  0  0  0  0  0  0  0
    0.0637   -0.7242   -0.6589 C   0  0  0  0  0  0  0  0  0  0  0  0
    0.6343   -1.6145    0.2494 O   0  0  0  0  0  0  0  0  0  0  0  0
    2.0105   -1.3967    0.2583 C   0  0  0  0  0  0  0  0  0  0  0  0
    2.2649   -0.2582   -0.5059 O   0  0  0  0  0  0  0  0  0  0  0  0
    1.4418    0.7491    0.0154 C   0  0  0  0  0  0  0  0  0  0  0  0
    0.0055    0.5760   -0.0306 C   0  0  0  0  0  0  0  0  0  0  0  0
   -0.6266    1.5250    0.8152 C   0  0  0  0  0  0  0  0  0  0  0  0
   -3.0819    0.0881    0.2086 H   0  0  0  0  0  0  0  0  0  0  0  0
   -2.6491   -1.5606   -0.3768 H   0  0  0  0  0  0  0  0  0  0  0  0
   -1.9387   -0.9412    1.1240 H   0  0  0  0  0  0  0  0  0  0  0  0
   -1.4976    0.4303   -1.6164 H   0  0  0  0  0  0  0  0  0  0  0  0
    0.6178   -0.8448   -1.6503 H   0  0  0  0  0  0  0  0  0  0  0  0
    2.5450   -2.2351   -0.2677 H   0  0  0  0  0  0  0  0  0  0  0  0
    2.4249   -1.2678    1.2711 H   0  0  0  0  0  0  0  0  0  0  0  0
    1.7769    0.7977    1.0976 H   0  0  0  0  0  0  0  0  0  0  0  0
    1.8016    1.6955   -0.4333 H   0  0  0  0  0  0  0  0  0  0  0  0
   -0.0365    1.8386    1.7334 H   0  0  0  0  0  0  0  0  0  0  0  0
   -0.7405    2.5102    0.2625 H   0  0  0  0  0  0  0  0  0  0  0  0
   -1.6402    1.3715    1.2611 H   0  0  0  0  0  0  0  0  0  0  0  0
  1  2  1  0
  2  3  1  0
  3  4  1  0
  4  5  1  0
  5  6  1  0
  6  7  1  0
  7  8  1  0
  8  9  1  0
  8  2  1  0
  8  3  1  0
  1 10  1  0
  1 11  1  0
  1 12  1  0
  2 13  1  0
  3 14  1  0
  5 15  1  0
  5 16  1  0
  7 17  1  0
  7 18  1  0
  9 19  1  0
  9 20  1  0
  9 21  1  0
M  END
