
     RDKit          3D

 21 22  0  0  0  0  0  0  0  0999 V2000
   -2.3364    0.5525   -0.3311 C   0  0  0  0  0  0  0  0  0  0  0  0
   -1.5219   -0.3055    0.5977 C   0  0  0  0  0  0  0  0  0  0  0  0
   -1.0138   -1.6331    0.1829 C   0  0  0  0  0  0  0  0  0  0  0  0
   -0.1299   -0.4935    0.3308 C   0  0  0  0  0  0  0  0  0  0  0  0
    0.6268    0.0238   -0.8466 C   0  0  0  0  0  0  0  0  0  0  0  0
    1.8493    0.1194    0.0762 C   0  0  0  0  0  0  0  0  0  0  0  0
    2.2615    1.5444    0.1845 C   0  0  0  0  0  0  0  0  0  0  0  0
    3.3977    1.7729    0.5351 O   0  0  0  0  0  0  0  0  0  0  0  0
    1.0070   -0.3753    1.2506 C   0  0  0  0  0  0  0  0  0  0  0  0
   -3.3110    0.0934   -0.6012 H   0  0  0  0  0  0  0  0  0  0  0  0
   -2.5757    1.5023    0.2293 H   0  0  0  0  0  0  0  0  0  0  0  0
   -1.7615    0.8613   -1.2369 H   0  0  0  0  0  0  0  0  0  0  0  0
   -1.8549   -0.2432    1.6711 H   0  0  0  0  0  0  0  0  0  0  0  0
   -1.1786   -1.9957   -0.8729 H   0  0  0  0  0  0  0  0  0  0  0  0
   -0.9778   -2.4675    0.9124 H   0  0  0  0  0  0  0  0  0  0  0  0
    0.7637   -0.7617   -1.6226 H   0  0  0  0  0  0  0  0  0  0  0  0
    0.3041    0.9682   -1.2811 H   0  0  0  0  0  0  0  0  0  0  0  0
    2.6444   -0.5920   -0.1387 H   0  0  0  0  0  0  0  0  0  0  0  0
    1.6210    2.3745   -0.0268 H   0  0  0  0  0  0  0  0  0  0  0  0
    1.3436   -1.3407    1.6711 H   0  0  0  0  0  0  0  0  0  0  0  0
    0.8422    0.3953    2.0259 H   0  0  0  0  0  0  0  0  0  0  0  0
  1  2  1  0
  2  3  1  0
  3  4  1  0
  4  5  1  0
  5  6  1  0
  6  7  1  0
  7  8  2  0
  6  9  1  0
  4  2  1  0
  9  4  1  0
  1 10  1  0
  1 11  1  0
  1 12  1  0
  2 13  1  0
  3 14  1  0
  3 15  1  0
  5 16  1  0
  5 17  1  0
  6 18  1  0
  7 19  1  0
  9 20  1  0
  9 21  1  0
M  END
