
     RDKit          3D

 19 20  0  0  0  0  0  0  0  0999 V2000
    2.0727   -0.2377   -0.8396 C   0  0  0  0  0  0  0  0  0  0  0  0
    1.0469    0.0594    0.1964 C   0  0  0  0  0  0  0  0  0  0  0  0
   -0.3142    0.4752   -0.3837 C   0  0  0  0  0  0  0  0  0  0  0  0
   -0.7110    1.8149    0.1511 C   0  0  0  0  0  0  0  0  0  0  0  0
   -0.8847   -0.6997    0.4250 C   0  0  0  0  0  0  0  0  0  0  0  0
   -2.1560   -1.2923    0.0195 C   0  0  0  0  0  0  0  0  0  0  0  0
   -2.5066   -1.3780   -1.1439 O   0  0  0  0  0  0  0  0  0  0  0  0
   -0.6209   -0.6712    1.7872 O   0  0  0  0  0  0  0  0  0  0  0  0
    0.3233   -1.1506    0.7424 C   0  0  0  0  0  0  0  0  0  0  0  0
    2.8611    0.5640   -0.7803 H   0  0  0  0  0  0  0  0  0  0  0  0
    2.6084   -1.1873   -0.6303 H   0  0  0  0  0  0  0  0  0  0  0  0
    1.6861   -0.1930   -1.8805 H   0  0  0  0  0  0  0  0  0  0  0  0
    1.3928    0.7166    1.0146 H   0  0  0  0  0  0  0  0  0  0  0  0
   -0.3858    0.3217   -1.4582 H   0  0  0  0  0  0  0  0  0  0  0  0
   -1.6596    1.7881    0.7434 H   0  0  0  0  0  0  0  0  0  0  0  0
   -0.7830    2.5266   -0.6897 H   0  0  0  0  0  0  0  0  0  0  0  0
    0.0557    2.2505    0.8514 H   0  0  0  0  0  0  0  0  0  0  0  0
   -2.8711   -1.6969    0.7553 H   0  0  0  0  0  0  0  0  0  0  0  0
    0.8462   -2.0102    1.1197 H   0  0  0  0  0  0  0  0  0  0  0  0
  1  2  1  0
  2  3  1  0
  3  4  1  0
  3  5  1  0
  5  6  1  0
  6  7  2  0
  5  8  1  0
  8  9  1  0
  9  2  1  0
  9  5  1  0
  1 10  1  0
  1 11  1  0
  1 12  1  0
  2 13  1  0
  3 14  1  0
  4 15  1  0
  4 16  1  0
  4 17  1  0
  6 18  1  0
  9 19  1  0
M  END
