
     RDKit          3D

 19 20  0  0  0  0  0  0  0  0999 V2000
    1.5657   -0.9595   -0.7572 C   0  0  0  0  0  0  0  0  0  0  0  0
    0.8615   -0.1903    0.2755 C   0  0  0  0  0  0  0  0  0  0  0  0
    0.4510    1.2210   -0.1830 C   0  0  0  0  0  0  0  0  0  0  0  0
   -0.4937    0.8725   -1.2574 C   0  0  0  0  0  0  0  0  0  0  0  0
   -1.1028   -0.2654   -0.9131 C   0  0  0  0  0  0  0  0  0  0  0  0
   -0.6079   -0.6159    0.4476 C   0  0  0  0  0  0  0  0  0  0  0  0
   -0.8038   -1.8525    0.8757 O   0  0  0  0  0  0  0  0  0  0  0  0
   -1.0598    0.4952    1.3529 C   0  0  0  0  0  0  0  0  0  0  0  0
   -0.3811    1.5924    1.0104 C   0  0  0  0  0  0  0  0  0  0  0  0
    0.9305   -1.8177   -1.1054 H   0  0  0  0  0  0  0  0  0  0  0  0
    1.9306   -0.3980   -1.6298 H   0  0  0  0  0  0  0  0  0  0  0  0
    2.4652   -1.4584   -0.2937 H   0  0  0  0  0  0  0  0  0  0  0  0
    1.3629   -0.0652    1.2371 H   0  0  0  0  0  0  0  0  0  0  0  0
    1.2564    1.8677   -0.4083 H   0  0  0  0  0  0  0  0  0  0  0  0
   -0.6593    1.4424   -2.1623 H   0  0  0  0  0  0  0  0  0  0  0  0
   -1.8164   -0.8197   -1.5118 H   0  0  0  0  0  0  0  0  0  0  0  0
   -1.6413   -1.9410    1.3780 H   0  0  0  0  0  0  0  0  0  0  0  0
   -1.8053    0.3555    2.1211 H   0  0  0  0  0  0  0  0  0  0  0  0
   -0.4525    2.5368    1.5239 H   0  0  0  0  0  0  0  0  0  0  0  0
  1  2  1  0
  2  3  1  0
  3  4  1  0
  4  5  2  0
  5  6  1  0
  6  7  1  0
  6  8  1  0
  8  9  2  0
  6  2  1  0
  9  3  1  0
  1 10  1  0
  1 11  1  0
  1 12  1  0
  2 13  1  0
  3 14  1  0
  4 15  1  0
  5 16  1  0
  7 17  1  0
  8 18  1  0
  9 19  1  0
M  END
