
     RDKit          3D

 21 22  0  0  0  0  0  0  0  0999 V2000
    2.3338   -0.2804   -0.1398 C   0  0  0  0  0  0  0  0  0  0  0  0
    0.8915    0.0246   -0.3533 C   0  0  0  0  0  0  0  0  0  0  0  0
   -0.0723   -1.1154   -0.0626 C   0  0  0  0  0  0  0  0  0  0  0  0
   -1.2781   -0.8812   -0.9361 C   0  0  0  0  0  0  0  0  0  0  0  0
   -1.7724    0.4956   -0.6661 C   0  0  0  0  0  0  0  0  0  0  0  0
   -2.8542    0.8555   -1.1025 O   0  0  0  0  0  0  0  0  0  0  0  0
   -1.0057    1.4909    0.1271 C   0  0  0  0  0  0  0  0  0  0  0  0
    0.1987    0.8113    0.7264 C   0  0  0  0  0  0  0  0  0  0  0  0
   -0.2828   -0.5134    1.3068 C   0  0  0  0  0  0  0  0  0  0  0  0
    2.7671    0.4111    0.6285 H   0  0  0  0  0  0  0  0  0  0  0  0
    2.5049   -1.3483    0.1267 H   0  0  0  0  0  0  0  0  0  0  0  0
    2.9464   -0.0837   -1.0661 H   0  0  0  0  0  0  0  0  0  0  0  0
    0.7338    0.5016   -1.3520 H   0  0  0  0  0  0  0  0  0  0  0  0
    0.3567   -2.1151   -0.0632 H   0  0  0  0  0  0  0  0  0  0  0  0
   -0.8920   -0.8788   -1.9980 H   0  0  0  0  0  0  0  0  0  0  0  0
   -2.0569   -1.6490   -0.8289 H   0  0  0  0  0  0  0  0  0  0  0  0
   -0.7511    2.3926   -0.4449 H   0  0  0  0  0  0  0  0  0  0  0  0
   -1.6742    1.7773    0.9889 H   0  0  0  0  0  0  0  0  0  0  0  0
    0.8362    1.4104    1.3742 H   0  0  0  0  0  0  0  0  0  0  0  0
   -1.3361   -0.4658    1.6515 H   0  0  0  0  0  0  0  0  0  0  0  0
    0.4065   -0.8399    2.0833 H   0  0  0  0  0  0  0  0  0  0  0  0
  1  2  1  0
  2  3  1  0
  3  4  1  0
  4  5  1  0
  5  6  2  0
  5  7  1  0
  7  8  1  0
  8  9  1  0
  8  2  1  0
  9  3  1  0
  1 10  1  0
  1 11  1  0
  1 12  1  0
  2 13  1  0
  3 14  1  0
  4 15  1  0
  4 16  1  0
  7 17  1  0
  7 18  1  0
  8 19  1  0
  9 20  1  0
  9 21  1  0
M  END
