
     RDKit          3D

 21 23  0  0  0  0  0  0  0  0999 V2000
    2.1345    0.0427    0.2436 C   0  0  0  0  0  0  0  0  0  0  0  0
    0.8653   -0.2282   -0.4616 C   0  0  0  0  0  0  0  0  0  0  0  0
   -0.0418   -1.2136    0.2167 C   0  0  0  0  0  0  0  0  0  0  0  0
   -1.2189   -1.1629   -0.7600 C   0  0  0  0  0  0  0  0  0  0  0  0
   -1.3876    0.3661   -0.7994 C   0  0  0  0  0  0  0  0  0  0  0  0
   -1.0689    0.8330    0.5569 C   0  0  0  0  0  0  0  0  0  0  0  0
   -0.5981   -0.3950    1.3542 C   0  0  0  0  0  0  0  0  0  0  0  0
   -0.0727    0.9655   -0.5249 C   0  0  0  0  0  0  0  0  0  0  0  0
    0.3467    2.1663   -0.9952 O   0  0  0  0  0  0  0  0  0  0  0  0
    2.9360    0.1982   -0.5377 H   0  0  0  0  0  0  0  0  0  0  0  0
    2.1605    0.9116    0.8954 H   0  0  0  0  0  0  0  0  0  0  0  0
    2.4536   -0.9099    0.7606 H   0  0  0  0  0  0  0  0  0  0  0  0
    1.0277   -0.5720   -1.5029 H   0  0  0  0  0  0  0  0  0  0  0  0
    0.3343   -2.1720    0.4369 H   0  0  0  0  0  0  0  0  0  0  0  0
   -0.8329   -1.5468   -1.7169 H   0  0  0  0  0  0  0  0  0  0  0  0
   -2.1056   -1.6630   -0.3771 H   0  0  0  0  0  0  0  0  0  0  0  0
   -2.1371    0.7985   -1.4515 H   0  0  0  0  0  0  0  0  0  0  0  0
   -1.5414    1.6558    1.0690 H   0  0  0  0  0  0  0  0  0  0  0  0
    0.1391   -0.1056    2.1032 H   0  0  0  0  0  0  0  0  0  0  0  0
   -1.5344   -0.8284    1.7796 H   0  0  0  0  0  0  0  0  0  0  0  0
    0.1417    2.8596   -0.2890 H   0  0  0  0  0  0  0  0  0  0  0  0
  1  2  1  0
  2  3  1  0
  3  4  1  0
  4  5  1  0
  5  6  1  0
  6  7  1  0
  6  8  1  0
  8  9  1  0
  8  2  1  0
  7  3  1  0
  8  5  1  0
  1 10  1  0
  1 11  1  0
  1 12  1  0
  2 13  1  0
  3 14  1  0
  4 15  1  0
  4 16  1  0
  5 17  1  0
  6 18  1  0
  7 19  1  0
  7 20  1  0
  9 21  1  0
M  END
