
     RDKit          3D

 21 22  0  0  0  0  0  0  0  0999 V2000
   -2.8137    0.2539   -0.1875 C   0  0  0  0  0  0  0  0  0  0  0  0
   -1.4158    0.4123    0.3725 C   0  0  0  0  0  0  0  0  0  0  0  0
   -0.7918   -0.9535    0.5956 C   0  0  0  0  0  0  0  0  0  0  0  0
    0.5964   -0.9196    0.0517 C   0  0  0  0  0  0  0  0  0  0  0  0
    1.5602    0.1351    0.4186 C   0  0  0  0  0  0  0  0  0  0  0  0
    3.0041   -0.0664    0.0979 C   0  0  0  0  0  0  0  0  0  0  0  0
    0.6706    0.2807   -0.8100 C   0  0  0  0  0  0  0  0  0  0  0  0
   -0.5288    1.0890   -0.6043 C   0  0  0  0  0  0  0  0  0  0  0  0
   -0.7791    2.1457   -1.1359 O   0  0  0  0  0  0  0  0  0  0  0  0
   -2.9303    1.0244   -0.9852 H   0  0  0  0  0  0  0  0  0  0  0  0
   -3.5779    0.4429    0.6145 H   0  0  0  0  0  0  0  0  0  0  0  0
   -2.9254   -0.7691   -0.6047 H   0  0  0  0  0  0  0  0  0  0  0  0
   -1.4511    0.9675    1.3506 H   0  0  0  0  0  0  0  0  0  0  0  0
   -0.8803   -1.2944    1.6322 H   0  0  0  0  0  0  0  0  0  0  0  0
   -1.3730   -1.6877   -0.0336 H   0  0  0  0  0  0  0  0  0  0  0  0
    1.0170   -1.8913   -0.2293 H   0  0  0  0  0  0  0  0  0  0  0  0
    1.3731    0.8084    1.2782 H   0  0  0  0  0  0  0  0  0  0  0  0
    3.6303   -0.3263    0.9617 H   0  0  0  0  0  0  0  0  0  0  0  0
    3.3959    0.9251   -0.2751 H   0  0  0  0  0  0  0  0  0  0  0  0
    3.0925   -0.8199   -0.7000 H   0  0  0  0  0  0  0  0  0  0  0  0
    1.1271    0.2432   -1.8078 H   0  0  0  0  0  0  0  0  0  0  0  0
  1  2  1  0
  2  3  1  0
  3  4  1  0
  4  5  1  0
  5  6  1  0
  5  7  1  0
  7  8  1  0
  8  9  2  0
  8  2  1  0
  7  4  1  0
  1 10  1  0
  1 11  1  0
  1 12  1  0
  2 13  1  0
  3 14  1  0
  3 15  1  0
  4 16  1  0
  5 17  1  0
  6 18  1  0
  6 19  1  0
  6 20  1  0
  7 21  1  0
M  END
