
     RDKit          3D

 18 19  0  0  0  0  0  0  0  0999 V2000
    2.1569    0.1570   -0.0078 C   0  0  0  0  0  0  0  0  0  0  0  0
    0.8612   -0.2176   -0.6607 C   0  0  0  0  0  0  0  0  0  0  0  0
    0.0320   -1.2285    0.1028 C   0  0  0  0  0  0  0  0  0  0  0  0
   -1.0357   -0.1887    0.2979 C   0  0  0  0  0  0  0  0  0  0  0  0
   -2.3936   -0.3826   -0.1908 C   0  0  0  0  0  0  0  0  0  0  0  0
   -2.6492   -0.2709   -1.3688 O   0  0  0  0  0  0  0  0  0  0  0  0
   -0.6114    1.0631    0.9604 C   0  0  0  0  0  0  0  0  0  0  0  0
   -0.2011    0.8075   -0.4359 C   0  0  0  0  0  0  0  0  0  0  0  0
    2.6715   -0.7128    0.4489 H   0  0  0  0  0  0  0  0  0  0  0  0
    2.8508    0.5634   -0.7721 H   0  0  0  0  0  0  0  0  0  0  0  0
    2.0174    0.9727    0.7440 H   0  0  0  0  0  0  0  0  0  0  0  0
    0.9599   -0.4902   -1.7260 H   0  0  0  0  0  0  0  0  0  0  0  0
    0.5615   -1.5493    1.0216 H   0  0  0  0  0  0  0  0  0  0  0  0
   -0.2708   -2.1257   -0.4746 H   0  0  0  0  0  0  0  0  0  0  0  0
   -3.1914   -0.6283    0.4868 H   0  0  0  0  0  0  0  0  0  0  0  0
   -1.3167    1.8889    1.1149 H   0  0  0  0  0  0  0  0  0  0  0  0
    0.1934    0.9609    1.7377 H   0  0  0  0  0  0  0  0  0  0  0  0
   -0.6348    1.3812   -1.2782 H   0  0  0  0  0  0  0  0  0  0  0  0
  1  2  1  0
  2  3  1  0
  3  4  1  0
  4  5  1  0
  5  6  2  0
  4  7  1  0
  7  8  1  0
  8  2  1  0
  8  4  1  0
  1  9  1  0
  1 10  1  0
  1 11  1  0
  2 12  1  0
  3 13  1  0
  3 14  1  0
  5 15  1  0
  7 16  1  0
  7 17  1  0
  8 18  1  0
M  END
