
     RDKit          3D

 21 22  0  0  0  0  0  0  0  0999 V2000
   -2.6489   -0.2654   -0.5276 C   0  0  0  0  0  0  0  0  0  0  0  0
   -1.4262    0.2734    0.2307 C   0  0  0  0  0  0  0  0  0  0  0  0
   -0.4907   -0.6515    0.7222 C   0  0  0  0  0  0  0  0  0  0  0  0
    0.7653   -0.5557    1.4572 C   0  0  0  0  0  0  0  0  0  0  0  0
    1.8373   -0.6284    0.6382 C   0  0  0  0  0  0  0  0  0  0  0  0
    1.7160   -0.7875   -0.8355 C   0  0  0  0  0  0  0  0  0  0  0  0
    0.4424   -0.4424   -1.3302 O   0  0  0  0  0  0  0  0  0  0  0  0
   -0.1512    0.3655   -0.4302 C   0  0  0  0  0  0  0  0  0  0  0  0
    0.6546    1.5870   -0.0907 C   0  0  0  0  0  0  0  0  0  0  0  0
   -2.4570   -1.3093   -0.8580 H   0  0  0  0  0  0  0  0  0  0  0  0
   -3.5275   -0.2998    0.1490 H   0  0  0  0  0  0  0  0  0  0  0  0
   -2.8842    0.3684   -1.4018 H   0  0  0  0  0  0  0  0  0  0  0  0
   -1.7551    1.1138    0.8814 H   0  0  0  0  0  0  0  0  0  0  0  0
   -0.6429   -1.7292    0.4092 H   0  0  0  0  0  0  0  0  0  0  0  0
    0.8296   -0.4425    2.5082 H   0  0  0  0  0  0  0  0  0  0  0  0
    2.8404   -0.5712    1.0410 H   0  0  0  0  0  0  0  0  0  0  0  0
    2.4707   -0.0897   -1.2934 H   0  0  0  0  0  0  0  0  0  0  0  0
    2.0180   -1.8021   -1.1777 H   0  0  0  0  0  0  0  0  0  0  0  0
   -0.0159    2.4920   -0.2225 H   0  0  0  0  0  0  0  0  0  0  0  0
    0.9762    1.6474    0.9611 H   0  0  0  0  0  0  0  0  0  0  0  0
    1.4492    1.7274   -0.8304 H   0  0  0  0  0  0  0  0  0  0  0  0
  1  2  1  0
  2  3  1  0
  3  4  1  0
  4  5  2  0
  5  6  1  0
  6  7  1  0
  7  8  1  0
  8  9  1  0
  8  2  1  0
  8  3  1  0
  1 10  1  0
  1 11  1  0
  1 12  1  0
  2 13  1  0
  3 14  1  0
  4 15  1  0
  5 16  1  0
  6 17  1  0
  6 18  1  0
  9 19  1  0
  9 20  1  0
  9 21  1  0
M  END
