
     RDKit          3D

 16 16  0  0  0  0  0  0  0  0999 V2000
    1.6245    0.7668   -0.4571 C   0  0  0  0  0  0  0  0  0  0  0  0
    0.8058   -0.4798   -0.3956 C   0  0  0  0  0  0  0  0  0  0  0  0
    0.2573   -0.7968    1.0116 C   0  0  0  0  0  0  0  0  0  0  0  0
   -0.6465   -0.4655   -0.1094 C   0  0  0  0  0  0  0  0  0  0  0  0
   -1.4225    0.8367   -0.1194 C   0  0  0  0  0  0  0  0  0  0  0  0
   -1.3611   -1.5569   -0.6288 O   0  0  0  0  0  0  0  0  0  0  0  0
    1.3176    1.4653    0.3498 H   0  0  0  0  0  0  0  0  0  0  0  0
    2.6823    0.4985   -0.2421 H   0  0  0  0  0  0  0  0  0  0  0  0
    1.5769    1.3042   -1.4110 H   0  0  0  0  0  0  0  0  0  0  0  0
    1.2557   -1.3702   -0.8997 H   0  0  0  0  0  0  0  0  0  0  0  0
    0.4010   -0.0354    1.7988 H   0  0  0  0  0  0  0  0  0  0  0  0
    0.3806   -1.8297    1.3838 H   0  0  0  0  0  0  0  0  0  0  0  0
   -2.4197    0.7250   -0.6055 H   0  0  0  0  0  0  0  0  0  0  0  0
   -1.5881    1.1928    0.9296 H   0  0  0  0  0  0  0  0  0  0  0  0
   -0.8435    1.6496   -0.6128 H   0  0  0  0  0  0  0  0  0  0  0  0
   -2.0203   -1.9046    0.0080 H   0  0  0  0  0  0  0  0  0  0  0  0
  1  2  1  0
  2  3  1  0
  3  4  1  0
  4  5  1  0
  4  6  1  0
  4  2  1  0
  1  7  1  0
  1  8  1  0
  1  9  1  0
  2 10  1  0
  3 11  1  0
  3 12  1  0
  5 13  1  0
  5 14  1  0
  5 15  1  0
  6 16  1  0
M  END
