
     RDKit          3D

 23 24  0  0  0  0  0  0  0  0999 V2000
   -2.4710    1.1588    0.4287 C   0  0  0  0  0  0  0  0  0  0  0  0
   -1.9194    0.0287   -0.4214 C   0  0  0  0  0  0  0  0  0  0  0  0
   -1.7665   -1.1855    0.4738 C   0  0  0  0  0  0  0  0  0  0  0  0
   -0.3282   -0.7564    0.6370 C   0  0  0  0  0  0  0  0  0  0  0  0
    0.4967   -0.9530   -0.5661 C   0  0  0  0  0  0  0  0  0  0  0  0
    1.9574   -0.6952   -0.5353 C   0  0  0  0  0  0  0  0  0  0  0  0
    2.3245    0.7197   -0.1779 C   0  0  0  0  0  0  0  0  0  0  0  0
    3.7146    0.8632   -0.1738 O   0  0  0  0  0  0  0  0  0  0  0  0
   -0.4481    0.1664   -0.5971 C   0  0  0  0  0  0  0  0  0  0  0  0
   -1.6920    1.4271    1.1592 H   0  0  0  0  0  0  0  0  0  0  0  0
   -2.7612    1.9816   -0.2474 H   0  0  0  0  0  0  0  0  0  0  0  0
   -3.3835    0.8215    0.9942 H   0  0  0  0  0  0  0  0  0  0  0  0
   -2.5019   -0.1739   -1.3443 H   0  0  0  0  0  0  0  0  0  0  0  0
   -2.3799   -1.1753    1.3923 H   0  0  0  0  0  0  0  0  0  0  0  0
   -1.9061   -2.1627   -0.0379 H   0  0  0  0  0  0  0  0  0  0  0  0
    0.0296   -0.3146    1.5653 H   0  0  0  0  0  0  0  0  0  0  0  0
    0.2170   -1.8296   -1.2222 H   0  0  0  0  0  0  0  0  0  0  0  0
    2.4224   -0.9185   -1.5242 H   0  0  0  0  0  0  0  0  0  0  0  0
    2.4298   -1.3615    0.2074 H   0  0  0  0  0  0  0  0  0  0  0  0
    1.9481    1.4590   -0.9158 H   0  0  0  0  0  0  0  0  0  0  0  0
    1.9652    0.9930    0.8320 H   0  0  0  0  0  0  0  0  0  0  0  0
    4.0828    0.7359   -1.0976 H   0  0  0  0  0  0  0  0  0  0  0  0
   -0.0302    1.1713   -0.5262 H   0  0  0  0  0  0  0  0  0  0  0  0
  1  2  1  0
  2  3  1  0
  3  4  1  0
  4  5  1  0
  5  6  1  0
  6  7  1  0
  7  8  1  0
  5  9  1  0
  9  2  1  0
  9  4  1  0
  1 10  1  0
  1 11  1  0
  1 12  1  0
  2 13  1  0
  3 14  1  0
  3 15  1  0
  4 16  1  0
  5 17  1  0
  6 18  1  0
  6 19  1  0
  7 20  1  0
  7 21  1  0
  8 22  1  0
  9 23  1  0
M  END
