
     RDKit          3D

 23 23  0  0  0  0  0  0  0  0999 V2000
    2.1977   -1.3140   -0.9424 C   0  0  0  0  0  0  0  0  0  0  0  0
    1.6244   -0.3793    0.0935 C   0  0  0  0  0  0  0  0  0  0  0  0
    2.0090    1.0817    0.0436 C   0  0  0  0  0  0  0  0  0  0  0  0
    0.6474    0.6423   -0.3466 C   0  0  0  0  0  0  0  0  0  0  0  0
   -0.4840    1.0787    0.5593 C   0  0  0  0  0  0  0  0  0  0  0  0
   -1.3848   -0.0825    0.9276 C   0  0  0  0  0  0  0  0  0  0  0  0
   -2.4233    0.3282    1.7615 O   0  0  0  0  0  0  0  0  0  0  0  0
   -2.0117   -0.6328   -0.3492 C   0  0  0  0  0  0  0  0  0  0  0  0
   -2.7678    0.3670   -0.9695 O   0  0  0  0  0  0  0  0  0  0  0  0
    1.9110   -2.3460   -0.6670 H   0  0  0  0  0  0  0  0  0  0  0  0
    1.7974   -1.1105   -1.9466 H   0  0  0  0  0  0  0  0  0  0  0  0
    3.3170   -1.2739   -0.9432 H   0  0  0  0  0  0  0  0  0  0  0  0
    1.5915   -0.8061    1.1078 H   0  0  0  0  0  0  0  0  0  0  0  0
    2.7936    1.3089   -0.6882 H   0  0  0  0  0  0  0  0  0  0  0  0
    2.1452    1.6201    1.0100 H   0  0  0  0  0  0  0  0  0  0  0  0
    0.4182    0.7099   -1.4258 H   0  0  0  0  0  0  0  0  0  0  0  0
   -1.0122    1.8861    0.0546 H   0  0  0  0  0  0  0  0  0  0  0  0
   -0.0640    1.4796    1.5050 H   0  0  0  0  0  0  0  0  0  0  0  0
   -0.7642   -0.8622    1.4038 H   0  0  0  0  0  0  0  0  0  0  0  0
   -2.2092    0.0560    2.6809 H   0  0  0  0  0  0  0  0  0  0  0  0
   -1.2094   -0.9562   -1.0306 H   0  0  0  0  0  0  0  0  0  0  0  0
   -2.6438   -1.5051   -0.1251 H   0  0  0  0  0  0  0  0  0  0  0  0
   -3.4780    0.7103   -0.3816 H   0  0  0  0  0  0  0  0  0  0  0  0
  1  2  1  0
  2  3  1  0
  3  4  1  0
  4  5  1  0
  5  6  1  0
  6  7  1  0
  6  8  1  0
  8  9  1  0
  4  2  1  0
  1 10  1  0
  1 11  1  0
  1 12  1  0
  2 13  1  0
  3 14  1  0
  3 15  1  0
  4 16  1  0
  5 17  1  0
  5 18  1  0
  6 19  1  0
  7 20  1  0
  8 21  1  0
  8 22  1  0
  9 23  1  0
M  END
