
     RDKit          3D

 23 24  0  0  0  0  0  0  0  0999 V2000
   -2.0040   -1.3121    0.4200 C   0  0  0  0  0  0  0  0  0  0  0  0
   -1.1001   -0.6486   -0.5761 C   0  0  0  0  0  0  0  0  0  0  0  0
   -1.2914    0.7864   -0.9030 C   0  0  0  0  0  0  0  0  0  0  0  0
   -0.9293    1.3171   -2.1208 O   0  0  0  0  0  0  0  0  0  0  0  0
   -0.1418    0.3397   -0.0434 C   0  0  0  0  0  0  0  0  0  0  0  0
   -0.2335    0.8256    1.3833 C   0  0  0  0  0  0  0  0  0  0  0  0
    1.2497    0.2886   -0.5946 C   0  0  0  0  0  0  0  0  0  0  0  0
    1.9552   -1.0498   -0.3573 C   0  0  0  0  0  0  0  0  0  0  0  0
    2.3801    0.2587    0.3353 C   0  0  0  0  0  0  0  0  0  0  0  0
   -2.0719   -0.7427    1.3712 H   0  0  0  0  0  0  0  0  0  0  0  0
   -3.0236   -1.5260   -0.0000 H   0  0  0  0  0  0  0  0  0  0  0  0
   -1.5067   -2.2851    0.7041 H   0  0  0  0  0  0  0  0  0  0  0  0
   -0.7975   -1.2915   -1.4193 H   0  0  0  0  0  0  0  0  0  0  0  0
   -2.1670    1.2674   -0.4319 H   0  0  0  0  0  0  0  0  0  0  0  0
   -0.5678    2.2406   -1.9311 H   0  0  0  0  0  0  0  0  0  0  0  0
   -1.2560    1.1536    1.6634 H   0  0  0  0  0  0  0  0  0  0  0  0
    0.3913    1.7661    1.4247 H   0  0  0  0  0  0  0  0  0  0  0  0
    0.1495    0.0929    2.1156 H   0  0  0  0  0  0  0  0  0  0  0  0
    1.3454    0.6778   -1.6350 H   0  0  0  0  0  0  0  0  0  0  0  0
    2.6153   -1.4242   -1.1630 H   0  0  0  0  0  0  0  0  0  0  0  0
    1.4799   -1.7816    0.3197 H   0  0  0  0  0  0  0  0  0  0  0  0
    3.3447    0.7098    0.0208 H   0  0  0  0  0  0  0  0  0  0  0  0
    2.1797    0.3373    1.4175 H   0  0  0  0  0  0  0  0  0  0  0  0
  1  2  1  0
  2  3  1  0
  3  4  1  0
  3  5  1  0
  5  6  1  0
  5  7  1  0
  7  8  1  0
  8  9  1  0
  5  2  1  0
  9  7  1  0
  1 10  1  0
  1 11  1  0
  1 12  1  0
  2 13  1  0
  3 14  1  0
  4 15  1  0
  6 16  1  0
  6 17  1  0
  6 18  1  0
  7 19  1  0
  8 20  1  0
  8 21  1  0
  9 22  1  0
  9 23  1  0
M  END
