
     RDKit          3D

 20 21  0  0  0  0  0  0  0  0999 V2000
    2.0799   -0.6047   -0.7411 C   0  0  0  0  0  0  0  0  0  0  0  0
    1.5949    0.1868    0.4352 C   0  0  0  0  0  0  0  0  0  0  0  0
    0.9358    1.5009    0.0666 C   0  0  0  0  0  0  0  0  0  0  0  0
    0.2052    0.3833    0.7997 C   0  0  0  0  0  0  0  0  0  0  0  0
   -0.9978   -0.1293    0.1523 C   0  0  0  0  0  0  0  0  0  0  0  0
   -1.3450   -1.5633   -0.0514 C   0  0  0  0  0  0  0  0  0  0  0  0
   -2.2415    0.7630    0.1536 C   0  0  0  0  0  0  0  0  0  0  0  0
   -1.4767    0.6955   -0.9860 O   0  0  0  0  0  0  0  0  0  0  0  0
    1.9768   -1.7011   -0.6097 H   0  0  0  0  0  0  0  0  0  0  0  0
    3.1687   -0.4256   -0.8834 H   0  0  0  0  0  0  0  0  0  0  0  0
    1.6310   -0.2576   -1.7099 H   0  0  0  0  0  0  0  0  0  0  0  0
    2.3652    0.3055    1.2258 H   0  0  0  0  0  0  0  0  0  0  0  0
    1.2187    2.4167    0.5884 H   0  0  0  0  0  0  0  0  0  0  0  0
    0.6731    1.6706   -1.0011 H   0  0  0  0  0  0  0  0  0  0  0  0
    0.0334    0.6658    1.8865 H   0  0  0  0  0  0  0  0  0  0  0  0
   -1.8998   -1.7724   -0.9903 H   0  0  0  0  0  0  0  0  0  0  0  0
   -2.0321   -1.8587    0.7803 H   0  0  0  0  0  0  0  0  0  0  0  0
   -0.4987   -2.2599   -0.0188 H   0  0  0  0  0  0  0  0  0  0  0  0
   -3.2357    0.3312    0.0955 H   0  0  0  0  0  0  0  0  0  0  0  0
   -2.1553    1.6535    0.8079 H   0  0  0  0  0  0  0  0  0  0  0  0
  1  2  1  0
  2  3  1  0
  3  4  1  0
  4  5  1  0
  5  6  1  0
  5  7  1  0
  7  8  1  0
  4  2  1  0
  8  5  1  0
  1  9  1  0
  1 10  1  0
  1 11  1  0
  2 12  1  0
  3 13  1  0
  3 14  1  0
  4 15  1  0
  6 16  1  0
  6 17  1  0
  6 18  1  0
  7 19  1  0
  7 20  1  0
M  END
