
     RDKit          3D

 21 21  0  0  0  0  0  0  0  0999 V2000
   -2.1192   -0.8536   -0.4937 C   0  0  0  0  0  0  0  0  0  0  0  0
   -1.3522    0.0659    0.4374 C   0  0  0  0  0  0  0  0  0  0  0  0
   -0.3099   -0.7022    1.1086 C   0  0  0  0  0  0  0  0  0  0  0  0
    0.9543   -0.8996    0.7553 C   0  0  0  0  0  0  0  0  0  0  0  0
    1.6722   -0.3991   -0.4193 C   0  0  0  0  0  0  0  0  0  0  0  0
    3.0305   -0.5837   -0.3768 O   0  0  0  0  0  0  0  0  0  0  0  0
    1.3767    1.1036   -0.5549 C   0  0  0  0  0  0  0  0  0  0  0  0
    0.1258    1.1894   -1.1157 O   0  0  0  0  0  0  0  0  0  0  0  0
   -0.9019    1.3212   -0.2317 C   0  0  0  0  0  0  0  0  0  0  0  0
   -1.9818   -1.9153   -0.1897 H   0  0  0  0  0  0  0  0  0  0  0  0
   -1.8197   -0.7657   -1.5389 H   0  0  0  0  0  0  0  0  0  0  0  0
   -3.2274   -0.6744   -0.4226 H   0  0  0  0  0  0  0  0  0  0  0  0
   -2.0991    0.3770    1.2261 H   0  0  0  0  0  0  0  0  0  0  0  0
   -0.5872   -1.1981    2.0435 H   0  0  0  0  0  0  0  0  0  0  0  0
    1.5267   -1.5155    1.4325 H   0  0  0  0  0  0  0  0  0  0  0  0
    1.3030   -0.8561   -1.3806 H   0  0  0  0  0  0  0  0  0  0  0  0
    3.3425   -0.5892    0.5477 H   0  0  0  0  0  0  0  0  0  0  0  0
    1.2785    1.4963    0.5009 H   0  0  0  0  0  0  0  0  0  0  0  0
    2.1693    1.6277   -1.0958 H   0  0  0  0  0  0  0  0  0  0  0  0
   -1.7841    1.7266   -0.7885 H   0  0  0  0  0  0  0  0  0  0  0  0
   -0.5969    2.0451    0.5561 H   0  0  0  0  0  0  0  0  0  0  0  0
  1  2  1  0
  2  3  1  0
  3  4  2  0
  4  5  1  0
  5  6  1  0
  5  7  1  0
  7  8  1  0
  8  9  1  0
  9  2  1  0
  1 10  1  0
  1 11  1  0
  1 12  1  0
  2 13  1  0
  3 14  1  0
  4 15  1  0
  5 16  1  0
  6 17  1  0
  7 18  1  0
  7 19  1  0
  9 20  1  0
  9 21  1  0
M  END
