
     RDKit          3D

 21 22  0  0  0  0  0  0  0  0999 V2000
   -1.0122   -1.7039    0.1099 C   0  0  0  0  0  0  0  0  0  0  0  0
   -0.5868   -0.3237    0.5355 C   0  0  0  0  0  0  0  0  0  0  0  0
   -1.7728    0.5942    0.3507 C   0  0  0  0  0  0  0  0  0  0  0  0
   -1.1617    1.9278   -0.0521 C   0  0  0  0  0  0  0  0  0  0  0  0
    0.1236    1.4970   -0.6210 C   0  0  0  0  0  0  0  0  0  0  0  0
    0.4466    0.2630   -0.3036 C   0  0  0  0  0  0  0  0  0  0  0  0
    1.7393   -0.3492   -0.8015 C   0  0  0  0  0  0  0  0  0  0  0  0
    2.6421   -0.7648    0.3402 C   0  0  0  0  0  0  0  0  0  0  0  0
    1.9813   -1.6741   -0.4635 O   0  0  0  0  0  0  0  0  0  0  0  0
   -0.4707   -2.4686    0.6863 H   0  0  0  0  0  0  0  0  0  0  0  0
   -2.1125   -1.8132    0.2552 H   0  0  0  0  0  0  0  0  0  0  0  0
   -0.8485   -1.8047   -0.9877 H   0  0  0  0  0  0  0  0  0  0  0  0
   -0.3393   -0.3595    1.6170 H   0  0  0  0  0  0  0  0  0  0  0  0
   -2.3283    0.7568    1.2975 H   0  0  0  0  0  0  0  0  0  0  0  0
   -2.4283    0.2349   -0.4705 H   0  0  0  0  0  0  0  0  0  0  0  0
   -1.7579    2.3953   -0.8848 H   0  0  0  0  0  0  0  0  0  0  0  0
   -1.0191    2.5976    0.7949 H   0  0  0  0  0  0  0  0  0  0  0  0
    0.7068    2.2052   -1.2483 H   0  0  0  0  0  0  0  0  0  0  0  0
    2.1844    0.0762   -1.7167 H   0  0  0  0  0  0  0  0  0  0  0  0
    2.2941   -0.7157    1.3689 H   0  0  0  0  0  0  0  0  0  0  0  0
    3.7200   -0.5705    0.1937 H   0  0  0  0  0  0  0  0  0  0  0  0
  1  2  1  0
  2  3  1  0
  3  4  1  0
  4  5  1  0
  5  6  2  0
  6  7  1  0
  7  8  1  0
  8  9  1  0
  6  2  1  0
  9  7  1  0
  1 10  1  0
  1 11  1  0
  1 12  1  0
  2 13  1  0
  3 14  1  0
  3 15  1  0
  4 16  1  0
  4 17  1  0
  5 18  1  0
  7 19  1  0
  8 20  1  0
  8 21  1  0
M  END
