
     RDKit          3D

 19 19  0  0  0  0  0  0  0  0999 V2000
   -1.5103   -1.3606    0.3642 C   0  0  0  0  0  0  0  0  0  0  0  0
   -0.6553   -0.1450    0.4591 C   0  0  0  0  0  0  0  0  0  0  0  0
   -1.2092    0.9608   -0.4497 C   0  0  0  0  0  0  0  0  0  0  0  0
   -1.9107    1.8995    0.2721 O   0  0  0  0  0  0  0  0  0  0  0  0
    0.1979    1.3006   -0.7688 C   0  0  0  0  0  0  0  0  0  0  0  0
    0.7624    2.3171   -1.1312 O   0  0  0  0  0  0  0  0  0  0  0  0
    0.5500   -0.1113   -0.4501 C   0  0  0  0  0  0  0  0  0  0  0  0
    1.8697   -0.2775    0.2642 C   0  0  0  0  0  0  0  0  0  0  0  0
    2.8934   -0.2288   -0.6789 O   0  0  0  0  0  0  0  0  0  0  0  0
   -2.4139   -1.1984    0.9795 H   0  0  0  0  0  0  0  0  0  0  0  0
   -1.8538   -1.4639   -0.6827 H   0  0  0  0  0  0  0  0  0  0  0  0
   -1.0181   -2.2738    0.7493 H   0  0  0  0  0  0  0  0  0  0  0  0
   -0.4699    0.2008    1.4740 H   0  0  0  0  0  0  0  0  0  0  0  0
   -1.7512    0.5280   -1.2998 H   0  0  0  0  0  0  0  0  0  0  0  0
   -1.3882    2.2443    1.0137 H   0  0  0  0  0  0  0  0  0  0  0  0
    0.4786   -0.7409   -1.3378 H   0  0  0  0  0  0  0  0  0  0  0  0
    1.9479   -1.2148    0.8171 H   0  0  0  0  0  0  0  0  0  0  0  0
    1.9671    0.5536    1.0128 H   0  0  0  0  0  0  0  0  0  0  0  0
    3.5138   -0.9897   -0.6072 H   0  0  0  0  0  0  0  0  0  0  0  0
  1  2  1  0
  2  3  1  0
  3  4  1  0
  3  5  1  0
  5  6  2  0
  5  7  1  0
  7  8  1  0
  8  9  1  0
  7  2  1  0
  1 10  1  0
  1 11  1  0
  1 12  1  0
  2 13  1  0
  3 14  1  0
  4 15  1  0
  7 16  1  0
  8 17  1  0
  8 18  1  0
  9 19  1  0
M  END
