
     RDKit          3D

 19 19  0  0  0  0  0  0  0  0999 V2000
   -1.5900   -0.9284    1.0134 C   0  0  0  0  0  0  0  0  0  0  0  0
   -1.2428   -0.6122   -0.4015 C   0  0  0  0  0  0  0  0  0  0  0  0
   -1.1395    0.8987   -0.6934 C   0  0  0  0  0  0  0  0  0  0  0  0
   -1.8844    1.3142   -1.7695 O   0  0  0  0  0  0  0  0  0  0  0  0
    0.0236    0.0106   -0.8044 C   0  0  0  0  0  0  0  0  0  0  0  0
    1.1066    0.1557    0.2063 C   0  0  0  0  0  0  0  0  0  0  0  0
    0.7567    0.3617    1.3568 O   0  0  0  0  0  0  0  0  0  0  0  0
    2.5505    0.0588   -0.1420 C   0  0  0  0  0  0  0  0  0  0  0  0
    3.3050    0.2356    1.0043 O   0  0  0  0  0  0  0  0  0  0  0  0
   -1.8439   -0.0050    1.6064 H   0  0  0  0  0  0  0  0  0  0  0  0
   -2.5197   -1.5435    1.0382 H   0  0  0  0  0  0  0  0  0  0  0  0
   -0.7606   -1.4119    1.5810 H   0  0  0  0  0  0  0  0  0  0  0  0
   -1.7440   -1.2394   -1.1838 H   0  0  0  0  0  0  0  0  0  0  0  0
   -1.1551    1.5866    0.1682 H   0  0  0  0  0  0  0  0  0  0  0  0
   -2.7398    1.6974   -1.3938 H   0  0  0  0  0  0  0  0  0  0  0  0
    0.4088   -0.1746   -1.8281 H   0  0  0  0  0  0  0  0  0  0  0  0
    2.7588   -0.9393   -0.6297 H   0  0  0  0  0  0  0  0  0  0  0  0
    2.8067    0.8627   -0.8496 H   0  0  0  0  0  0  0  0  0  0  0  0
    2.9032   -0.3277    1.7213 H   0  0  0  0  0  0  0  0  0  0  0  0
  1  2  1  0
  2  3  1  0
  3  4  1  0
  3  5  1  0
  5  6  1  0
  6  7  2  0
  6  8  1  0
  8  9  1  0
  5  2  1  0
  1 10  1  0
  1 11  1  0
  1 12  1  0
  2 13  1  0
  3 14  1  0
  4 15  1  0
  5 16  1  0
  8 17  1  0
  8 18  1  0
  9 19  1  0
M  END
