
     RDKit          3D

 17 17  0  0  0  0  0  0  0  0999 V2000
   -2.1340    0.0073    0.0002 C   0  0  0  0  0  0  0  0  0  0  0  0
   -0.6929    0.3548    0.3135 C   0  0  0  0  0  0  0  0  0  0  0  0
    0.1195   -0.9392    0.3377 C   0  0  0  0  0  0  0  0  0  0  0  0
    1.1577   -0.2269   -0.5136 C   0  0  0  0  0  0  0  0  0  0  0  0
    2.2679    0.2260    0.3542 C   0  0  0  0  0  0  0  0  0  0  0  0
    2.9789   -0.6513    0.8414 O   0  0  0  0  0  0  0  0  0  0  0  0
    0.1291    0.8192   -0.8496 C   0  0  0  0  0  0  0  0  0  0  0  0
   -2.8024    0.8692   -0.0008 H   0  0  0  0  0  0  0  0  0  0  0  0
   -2.4608   -0.7226    0.7944 H   0  0  0  0  0  0  0  0  0  0  0  0
   -2.1523   -0.5813   -0.9460 H   0  0  0  0  0  0  0  0  0  0  0  0
   -0.5997    0.9632    1.2387 H   0  0  0  0  0  0  0  0  0  0  0  0
   -0.3470   -1.7793   -0.1889 H   0  0  0  0  0  0  0  0  0  0  0  0
    0.4216   -1.1753    1.3597 H   0  0  0  0  0  0  0  0  0  0  0  0
    1.4760   -0.8686   -1.3544 H   0  0  0  0  0  0  0  0  0  0  0  0
    2.4928    1.2406    0.5842 H   0  0  0  0  0  0  0  0  0  0  0  0
   -0.3421    0.5944   -1.8457 H   0  0  0  0  0  0  0  0  0  0  0  0
    0.4877    1.8698   -0.7948 H   0  0  0  0  0  0  0  0  0  0  0  0
  1  2  1  0
  2  3  1  0
  3  4  1  0
  4  5  1  0
  5  6  2  0
  4  7  1  0
  7  2  1  0
  1  8  1  0
  1  9  1  0
  1 10  1  0
  2 11  1  0
  3 12  1  0
  3 13  1  0
  4 14  1  0
  5 15  1  0
  7 16  1  0
  7 17  1  0
M  END
