
     RDKit          3D

 18 20  0  0  0  0  0  0  0  0999 V2000
    2.1119   -0.3726   -0.3730 C   0  0  0  0  0  0  0  0  0  0  0  0
    0.7984   -0.2669    0.2988 C   0  0  0  0  0  0  0  0  0  0  0  0
    0.2746    1.1204    0.4699 C   0  0  0  0  0  0  0  0  0  0  0  0
   -1.2353    0.8809    0.5943 C   0  0  0  0  0  0  0  0  0  0  0  0
   -1.7821    0.4028   -0.7029 C   0  0  0  0  0  0  0  0  0  0  0  0
   -0.8580   -0.2938   -1.4954 O   0  0  0  0  0  0  0  0  0  0  0  0
   -0.3190   -1.0051   -0.4120 C   0  0  0  0  0  0  0  0  0  0  0  0
   -1.5023   -0.5291    0.3896 C   0  0  0  0  0  0  0  0  0  0  0  0
    2.7989    0.3717    0.0474 H   0  0  0  0  0  0  0  0  0  0  0  0
    2.5546   -1.3772   -0.1124 H   0  0  0  0  0  0  0  0  0  0  0  0
    2.0960   -0.3255   -1.4705 H   0  0  0  0  0  0  0  0  0  0  0  0
    0.9019   -0.7066    1.3313 H   0  0  0  0  0  0  0  0  0  0  0  0
    0.6817    1.6806    1.3043 H   0  0  0  0  0  0  0  0  0  0  0  0
    0.4690    1.6673   -0.4984 H   0  0  0  0  0  0  0  0  0  0  0  0
   -1.8111    1.4517    1.3146 H   0  0  0  0  0  0  0  0  0  0  0  0
   -2.7991    0.5513   -1.0255 H   0  0  0  0  0  0  0  0  0  0  0  0
   -0.1966   -2.0731   -0.5453 H   0  0  0  0  0  0  0  0  0  0  0  0
   -2.1836   -1.1765    0.8853 H   0  0  0  0  0  0  0  0  0  0  0  0
  1  2  1  0
  2  3  1  0
  3  4  1  0
  4  5  1  0
  5  6  1  0
  6  7  1  0
  7  8  1  0
  7  2  1  0
  8  4  1  0
  8  5  1  0
  1  9  1  0
  1 10  1  0
  1 11  1  0
  2 12  1  0
  3 13  1  0
  3 14  1  0
  4 15  1  0
  5 16  1  0
  7 17  1  0
  8 18  1  0
M  END
