
     RDKit          3D

 23 24  0  0  0  0  0  0  0  0999 V2000
    2.7224   -0.3278    0.0194 C   0  0  0  0  0  0  0  0  0  0  0  0
    1.3062   -0.1590    0.5285 C   0  0  0  0  0  0  0  0  0  0  0  0
    1.0551    1.2899    0.6454 C   0  0  0  0  0  0  0  0  0  0  0  0
   -0.1398    1.7835    0.4739 C   0  0  0  0  0  0  0  0  0  0  0  0
   -1.3160    0.9991    0.1612 C   0  0  0  0  0  0  0  0  0  0  0  0
   -1.6611    0.5835   -1.2190 C   0  0  0  0  0  0  0  0  0  0  0  0
   -1.0643   -0.3803   -0.2169 C   0  0  0  0  0  0  0  0  0  0  0  0
   -1.9924   -1.4200    0.4056 C   0  0  0  0  0  0  0  0  0  0  0  0
    0.3575   -0.7665   -0.4838 C   0  0  0  0  0  0  0  0  0  0  0  0
    3.4524    0.0954    0.7429 H   0  0  0  0  0  0  0  0  0  0  0  0
    2.8415    0.2359   -0.9477 H   0  0  0  0  0  0  0  0  0  0  0  0
    2.9909   -1.3787   -0.1738 H   0  0  0  0  0  0  0  0  0  0  0  0
    1.2339   -0.6889    1.5044 H   0  0  0  0  0  0  0  0  0  0  0  0
    1.9319    1.9315    0.8876 H   0  0  0  0  0  0  0  0  0  0  0  0
   -0.3016    2.8842    0.5678 H   0  0  0  0  0  0  0  0  0  0  0  0
   -2.1929    1.2223    0.8320 H   0  0  0  0  0  0  0  0  0  0  0  0
   -2.7144    0.5203   -1.4860 H   0  0  0  0  0  0  0  0  0  0  0  0
   -1.0037    0.9807   -2.0267 H   0  0  0  0  0  0  0  0  0  0  0  0
   -1.9125   -1.2765    1.5006 H   0  0  0  0  0  0  0  0  0  0  0  0
   -3.0359   -1.2796    0.0796 H   0  0  0  0  0  0  0  0  0  0  0  0
   -1.6884   -2.4373    0.0883 H   0  0  0  0  0  0  0  0  0  0  0  0
    0.4402   -1.8706   -0.3662 H   0  0  0  0  0  0  0  0  0  0  0  0
    0.6910   -0.5411   -1.5174 H   0  0  0  0  0  0  0  0  0  0  0  0
  1  2  1  0
  2  3  1  0
  3  4  2  0
  4  5  1  0
  5  6  1  0
  6  7  1  0
  7  8  1  0
  7  9  1  0
  9  2  1  0
  7  5  1  0
  1 10  1  0
  1 11  1  0
  1 12  1  0
  2 13  1  0
  3 14  1  0
  4 15  1  0
  5 16  1  0
  6 17  1  0
  6 18  1  0
  8 19  1  0
  8 20  1  0
  8 21  1  0
  9 22  1  0
  9 23  1  0
M  END
