
     RDKit          3D

 21 22  0  0  0  0  0  0  0  0999 V2000
    2.6072    0.2129   -0.3978 C   0  0  0  0  0  0  0  0  0  0  0  0
    1.3870   -0.1498    0.4654 C   0  0  0  0  0  0  0  0  0  0  0  0
    0.3440   -0.7544   -0.1073 C   0  0  0  0  0  0  0  0  0  0  0  0
   -0.8261   -1.4687    0.5987 C   0  0  0  0  0  0  0  0  0  0  0  0
   -1.8823   -0.6605   -0.1505 C   0  0  0  0  0  0  0  0  0  0  0  0
   -1.2159    0.6836   -0.1170 C   0  0  0  0  0  0  0  0  0  0  0  0
   -1.4979    1.3129   -1.3401 O   0  0  0  0  0  0  0  0  0  0  0  0
    0.1838    0.6088    0.2129 C   0  0  0  0  0  0  0  0  0  0  0  0
    0.6160    1.8087    0.6393 O   0  0  0  0  0  0  0  0  0  0  0  0
    2.3435    0.9913   -1.1393 H   0  0  0  0  0  0  0  0  0  0  0  0
    3.4489    0.5473    0.2013 H   0  0  0  0  0  0  0  0  0  0  0  0
    2.9271   -0.6747   -0.9865 H   0  0  0  0  0  0  0  0  0  0  0  0
    1.7308   -0.4426    1.5047 H   0  0  0  0  0  0  0  0  0  0  0  0
    0.3352   -1.0554   -1.2016 H   0  0  0  0  0  0  0  0  0  0  0  0
   -0.8034   -1.2226    1.6681 H   0  0  0  0  0  0  0  0  0  0  0  0
   -0.8557   -2.5282    0.3557 H   0  0  0  0  0  0  0  0  0  0  0  0
   -1.8812   -1.0443   -1.1844 H   0  0  0  0  0  0  0  0  0  0  0  0
   -2.8607   -0.6995    0.3327 H   0  0  0  0  0  0  0  0  0  0  0  0
   -1.8178    1.2754    0.6384 H   0  0  0  0  0  0  0  0  0  0  0  0
   -2.4728    1.2256   -1.4937 H   0  0  0  0  0  0  0  0  0  0  0  0
    0.1903    2.0343    1.5008 H   0  0  0  0  0  0  0  0  0  0  0  0
  1  2  1  0
  2  3  1  0
  3  4  1  0
  4  5  1  0
  5  6  1  0
  6  7  1  0
  6  8  1  0
  8  9  1  0
  8  2  1  0
  8  3  1  0
  1 10  1  0
  1 11  1  0
  1 12  1  0
  2 13  1  0
  3 14  1  0
  4 15  1  0
  4 16  1  0
  5 17  1  0
  5 18  1  0
  6 19  1  0
  7 20  1  0
  9 21  1  0
M  END
