
     RDKit          3D

 21 21  0  0  0  0  0  0  0  0999 V2000
   -2.8351   -0.0839    0.0914 C   0  0  0  0  0  0  0  0  0  0  0  0
   -1.3647    0.1500    0.3168 C   0  0  0  0  0  0  0  0  0  0  0  0
   -0.6545   -1.1699    0.3393 C   0  0  0  0  0  0  0  0  0  0  0  0
    0.7318   -1.0727   -0.2029 C   0  0  0  0  0  0  0  0  0  0  0  0
    1.3256   -2.1243   -0.3785 O   0  0  0  0  0  0  0  0  0  0  0  0
    1.3798    0.2325   -0.5218 C   0  0  0  0  0  0  0  0  0  0  0  0
    2.6882    0.2832    0.2684 C   0  0  0  0  0  0  0  0  0  0  0  0
    0.4603    1.3589   -0.1195 C   0  0  0  0  0  0  0  0  0  0  0  0
   -0.8213    1.0426   -0.6072 O   0  0  0  0  0  0  0  0  0  0  0  0
   -2.9989   -0.5706   -0.8931 H   0  0  0  0  0  0  0  0  0  0  0  0
   -3.1706   -0.8107    0.8541 H   0  0  0  0  0  0  0  0  0  0  0  0
   -3.4330    0.8324    0.2346 H   0  0  0  0  0  0  0  0  0  0  0  0
   -1.2285    0.6150    1.3195 H   0  0  0  0  0  0  0  0  0  0  0  0
   -0.6732   -1.5777    1.3759 H   0  0  0  0  0  0  0  0  0  0  0  0
   -1.2106   -1.8623   -0.3327 H   0  0  0  0  0  0  0  0  0  0  0  0
    1.6271    0.3288   -1.5979 H   0  0  0  0  0  0  0  0  0  0  0  0
    3.1874    1.2477    0.1523 H   0  0  0  0  0  0  0  0  0  0  0  0
    2.4066    0.0490    1.3196 H   0  0  0  0  0  0  0  0  0  0  0  0
    3.2935   -0.5792   -0.1303 H   0  0  0  0  0  0  0  0  0  0  0  0
    0.8215    2.3237   -0.4918 H   0  0  0  0  0  0  0  0  0  0  0  0
    0.4687    1.3874    0.9985 H   0  0  0  0  0  0  0  0  0  0  0  0
  1  2  1  0
  2  3  1  0
  3  4  1  0
  4  5  2  0
  4  6  1  0
  6  7  1  0
  6  8  1  0
  8  9  1  0
  9  2  1  0
  1 10  1  0
  1 11  1  0
  1 12  1  0
  2 13  1  0
  3 14  1  0
  3 15  1  0
  6 16  1  0
  7 17  1  0
  7 18  1  0
  7 19  1  0
  8 20  1  0
  8 21  1  0
M  END
