
     RDKit          3D

 23 24  0  0  0  0  0  0  0  0999 V2000
    3.2382    0.2726    0.0008 C   0  0  0  0  0  0  0  0  0  0  0  0
    1.9647   -0.4783    0.1001 C   0  0  0  0  0  0  0  0  0  0  0  0
    0.9949   -0.3259   -1.0486 C   0  0  0  0  0  0  0  0  0  0  0  0
    0.0473   -0.5754    0.0859 C   0  0  0  0  0  0  0  0  0  0  0  0
   -1.2919    0.1018    0.0024 C   0  0  0  0  0  0  0  0  0  0  0  0
   -1.3542    1.6041   -0.0605 C   0  0  0  0  0  0  0  0  0  0  0  0
   -2.3681   -0.5304    0.8564 C   0  0  0  0  0  0  0  0  0  0  0  0
   -2.3731   -0.6796   -0.6442 C   0  0  0  0  0  0  0  0  0  0  0  0
    0.9788    0.0812    0.9231 O   0  0  0  0  0  0  0  0  0  0  0  0
    3.1976    1.1609   -0.6636 H   0  0  0  0  0  0  0  0  0  0  0  0
    4.0281   -0.4048   -0.3766 H   0  0  0  0  0  0  0  0  0  0  0  0
    3.5786    0.6171    1.0050 H   0  0  0  0  0  0  0  0  0  0  0  0
    2.1320   -1.5264    0.3935 H   0  0  0  0  0  0  0  0  0  0  0  0
    0.9825    0.6919   -1.4528 H   0  0  0  0  0  0  0  0  0  0  0  0
    0.9656   -1.1525   -1.7717 H   0  0  0  0  0  0  0  0  0  0  0  0
    0.0117   -1.6362    0.3848 H   0  0  0  0  0  0  0  0  0  0  0  0
   -0.3609    1.9622   -0.3902 H   0  0  0  0  0  0  0  0  0  0  0  0
   -1.6220    2.0085    0.9344 H   0  0  0  0  0  0  0  0  0  0  0  0
   -2.1219    1.9489   -0.7948 H   0  0  0  0  0  0  0  0  0  0  0  0
   -2.1365   -1.4435    1.4286 H   0  0  0  0  0  0  0  0  0  0  0  0
   -3.1391    0.1018    1.3214 H   0  0  0  0  0  0  0  0  0  0  0  0
   -3.1514   -0.1069   -1.1834 H   0  0  0  0  0  0  0  0  0  0  0  0
   -2.2009   -1.6907   -1.0541 H   0  0  0  0  0  0  0  0  0  0  0  0
  1  2  1  0
  2  3  1  0
  3  4  1  0
  4  5  1  0
  5  6  1  0
  5  7  1  0
  7  8  1  0
  4  9  1  0
  9  2  1  0
  8  5  1  0
  1 10  1  0
  1 11  1  0
  1 12  1  0
  2 13  1  0
  3 14  1  0
  3 15  1  0
  4 16  1  0
  6 17  1  0
  6 18  1  0
  6 19  1  0
  7 20  1  0
  7 21  1  0
  8 22  1  0
  8 23  1  0
M  END
