
     RDKit          3D

 23 24  0  0  0  0  0  0  0  0999 V2000
   -1.2788    1.5103   -0.2720 C   0  0  0  0  0  0  0  0  0  0  0  0
   -0.7930    0.2436   -0.8854 C   0  0  0  0  0  0  0  0  0  0  0  0
   -1.8780   -0.7986   -0.9671 C   0  0  0  0  0  0  0  0  0  0  0  0
   -1.7857   -1.6677    0.0228 C   0  0  0  0  0  0  0  0  0  0  0  0
   -0.6318   -1.2966    0.8684 C   0  0  0  0  0  0  0  0  0  0  0  0
    0.2256   -0.4880   -0.0614 C   0  0  0  0  0  0  0  0  0  0  0  0
    1.4593   -0.9983   -0.6617 C   0  0  0  0  0  0  0  0  0  0  0  0
    1.4548    0.0745    0.4375 C   0  0  0  0  0  0  0  0  0  0  0  0
    2.0309    1.3896    0.0228 C   0  0  0  0  0  0  0  0  0  0  0  0
   -1.0458    2.3863   -0.9473 H   0  0  0  0  0  0  0  0  0  0  0  0
   -2.3729    1.5362   -0.0888 H   0  0  0  0  0  0  0  0  0  0  0  0
   -0.7935    1.6743    0.7102 H   0  0  0  0  0  0  0  0  0  0  0  0
   -0.4742    0.4280   -1.9291 H   0  0  0  0  0  0  0  0  0  0  0  0
   -2.6444   -0.8452   -1.7326 H   0  0  0  0  0  0  0  0  0  0  0  0
   -2.4188   -2.5315    0.2364 H   0  0  0  0  0  0  0  0  0  0  0  0
   -0.0636   -2.1895    1.2260 H   0  0  0  0  0  0  0  0  0  0  0  0
   -0.9656   -0.6802    1.7480 H   0  0  0  0  0  0  0  0  0  0  0  0
    1.6874   -0.6628   -1.6933 H   0  0  0  0  0  0  0  0  0  0  0  0
    1.8735   -2.0003   -0.3859 H   0  0  0  0  0  0  0  0  0  0  0  0
    1.8204   -0.2860    1.4386 H   0  0  0  0  0  0  0  0  0  0  0  0
    3.1313    1.3555    0.1624 H   0  0  0  0  0  0  0  0  0  0  0  0
    1.7984    1.6041   -1.0376 H   0  0  0  0  0  0  0  0  0  0  0  0
    1.6646    2.2420    0.6410 H   0  0  0  0  0  0  0  0  0  0  0  0
  1  2  1  0
  2  3  1  0
  3  4  2  0
  4  5  1  0
  5  6  1  0
  6  7  1  0
  7  8  1  0
  8  9  1  0
  6  2  1  0
  8  6  1  0
  1 10  1  0
  1 11  1  0
  1 12  1  0
  2 13  1  0
  3 14  1  0
  4 15  1  0
  5 16  1  0
  5 17  1  0
  7 18  1  0
  7 19  1  0
  8 20  1  0
  9 21  1  0
  9 22  1  0
  9 23  1  0
M  END
