
     RDKit          3D

 23 25  0  0  0  0  0  0  0  0999 V2000
    2.6710   -0.2488    0.0407 C   0  0  0  0  0  0  0  0  0  0  0  0
    1.2981    0.1366    0.5428 C   0  0  0  0  0  0  0  0  0  0  0  0
    0.3745   -1.0599    0.5024 C   0  0  0  0  0  0  0  0  0  0  0  0
   -0.9831   -0.4714    0.5670 C   0  0  0  0  0  0  0  0  0  0  0  0
   -2.0346   -0.9235   -0.4501 C   0  0  0  0  0  0  0  0  0  0  0  0
   -1.5988    0.2769   -1.2857 C   0  0  0  0  0  0  0  0  0  0  0  0
   -0.8685    0.8905   -0.1422 C   0  0  0  0  0  0  0  0  0  0  0  0
    0.6068    1.1085   -0.3621 C   0  0  0  0  0  0  0  0  0  0  0  0
   -1.3081    0.7842    1.2559 C   0  0  0  0  0  0  0  0  0  0  0  0
    2.5542   -1.1202   -0.6123 H   0  0  0  0  0  0  0  0  0  0  0  0
    3.0529    0.6244   -0.5337 H   0  0  0  0  0  0  0  0  0  0  0  0
    3.3121   -0.4929    0.8967 H   0  0  0  0  0  0  0  0  0  0  0  0
    1.3001    0.5209    1.5630 H   0  0  0  0  0  0  0  0  0  0  0  0
    0.4821   -1.5574   -0.5051 H   0  0  0  0  0  0  0  0  0  0  0  0
    0.6023   -1.8038    1.2603 H   0  0  0  0  0  0  0  0  0  0  0  0
   -3.0557   -0.7204   -0.0637 H   0  0  0  0  0  0  0  0  0  0  0  0
   -1.8564   -1.9005   -0.9006 H   0  0  0  0  0  0  0  0  0  0  0  0
   -0.9181   -0.1155   -2.0978 H   0  0  0  0  0  0  0  0  0  0  0  0
   -2.4043    0.8430   -1.7538 H   0  0  0  0  0  0  0  0  0  0  0  0
    0.8944    2.1389   -0.0068 H   0  0  0  0  0  0  0  0  0  0  0  0
    0.8812    1.0012   -1.4273 H   0  0  0  0  0  0  0  0  0  0  0  0
   -0.6255    1.1339    2.0273 H   0  0  0  0  0  0  0  0  0  0  0  0
   -2.3767    0.9556    1.4849 H   0  0  0  0  0  0  0  0  0  0  0  0
  1  2  1  0
  2  3  1  0
  3  4  1  0
  4  5  1  0
  5  6  1  0
  6  7  1  0
  7  8  1  0
  7  9  1  0
  8  2  1  0
  7  4  1  0
  9  4  1  0
  1 10  1  0
  1 11  1  0
  1 12  1  0
  2 13  1  0
  3 14  1  0
  3 15  1  0
  5 16  1  0
  5 17  1  0
  6 18  1  0
  6 19  1  0
  8 20  1  0
  8 21  1  0
  9 22  1  0
  9 23  1  0
M  END
