
     RDKit          3D

 20 21  0  0  0  0  0  0  0  0999 V2000
   -1.8390    0.9620   -0.3431 C   0  0  0  0  0  0  0  0  0  0  0  0
   -1.0263    0.2773    0.6933 C   0  0  0  0  0  0  0  0  0  0  0  0
    0.2270    1.0715    1.0819 C   0  0  0  0  0  0  0  0  0  0  0  0
    1.0169   -0.0579    0.3980 C   0  0  0  0  0  0  0  0  0  0  0  0
    2.3325    0.2634   -0.2096 C   0  0  0  0  0  0  0  0  0  0  0  0
    0.8866   -1.2627    1.0503 O   0  0  0  0  0  0  0  0  0  0  0  0
   -0.0738   -0.7182    0.0536 C   0  0  0  0  0  0  0  0  0  0  0  0
   -0.5344   -1.7650   -0.8536 C   0  0  0  0  0  0  0  0  0  0  0  0
   -2.0326    0.3331   -1.2547 H   0  0  0  0  0  0  0  0  0  0  0  0
   -2.8011    1.3170    0.0355 H   0  0  0  0  0  0  0  0  0  0  0  0
   -1.2623    1.8452   -0.7407 H   0  0  0  0  0  0  0  0  0  0  0  0
   -1.5465   -0.1539    1.5506 H   0  0  0  0  0  0  0  0  0  0  0  0
    0.3228    2.0470    0.6120 H   0  0  0  0  0  0  0  0  0  0  0  0
    0.4099    0.9944    2.1665 H   0  0  0  0  0  0  0  0  0  0  0  0
    2.4006    1.3425   -0.5102 H   0  0  0  0  0  0  0  0  0  0  0  0
    3.1129    0.1595    0.6016 H   0  0  0  0  0  0  0  0  0  0  0  0
    2.5896   -0.4018   -1.0388 H   0  0  0  0  0  0  0  0  0  0  0  0
   -0.1570   -1.7388   -1.8840 H   0  0  0  0  0  0  0  0  0  0  0  0
   -1.6595   -1.7013   -0.9414 H   0  0  0  0  0  0  0  0  0  0  0  0
   -0.3666   -2.8134   -0.4672 H   0  0  0  0  0  0  0  0  0  0  0  0
  1  2  1  0
  2  3  1  0
  3  4  1  0
  4  5  1  0
  4  6  1  0
  6  7  1  0
  7  8  1  0
  7  2  1  0
  7  4  1  0
  1  9  1  0
  1 10  1  0
  1 11  1  0
  2 12  1  0
  3 13  1  0
  3 14  1  0
  5 15  1  0
  5 16  1  0
  5 17  1  0
  8 18  1  0
  8 19  1  0
  8 20  1  0
M  END
