
     RDKit          3D

 23 24  0  0  0  0  0  0  0  0999 V2000
    2.5573   -0.3617   -0.0778 C   0  0  0  0  0  0  0  0  0  0  0  0
    1.0851   -0.6016    0.0840 C   0  0  0  0  0  0  0  0  0  0  0  0
    0.5515   -1.5612   -0.9243 C   0  0  0  0  0  0  0  0  0  0  0  0
   -0.7124   -1.2245   -1.2467 C   0  0  0  0  0  0  0  0  0  0  0  0
   -1.0596   -0.0458   -0.4753 C   0  0  0  0  0  0  0  0  0  0  0  0
   -1.8539   -0.3406    0.8067 C   0  0  0  0  0  0  0  0  0  0  0  0
   -2.3520    0.5458   -0.2919 C   0  0  0  0  0  0  0  0  0  0  0  0
    0.2599    0.6318   -0.2392 C   0  0  0  0  0  0  0  0  0  0  0  0
    0.2489    1.6402    0.8512 C   0  0  0  0  0  0  0  0  0  0  0  0
    2.8397    0.4545    0.6128 H   0  0  0  0  0  0  0  0  0  0  0  0
    2.7602   -0.1210   -1.1366 H   0  0  0  0  0  0  0  0  0  0  0  0
    3.0839   -1.2673    0.2598 H   0  0  0  0  0  0  0  0  0  0  0  0
    0.8047   -0.9059    1.1005 H   0  0  0  0  0  0  0  0  0  0  0  0
    1.1107   -2.3842   -1.3153 H   0  0  0  0  0  0  0  0  0  0  0  0
   -1.2970   -1.7853   -1.9630 H   0  0  0  0  0  0  0  0  0  0  0  0
   -2.2957   -1.3674    0.9043 H   0  0  0  0  0  0  0  0  0  0  0  0
   -1.4908    0.0535    1.7555 H   0  0  0  0  0  0  0  0  0  0  0  0
   -3.2111    0.1564   -0.8595 H   0  0  0  0  0  0  0  0  0  0  0  0
   -2.4205    1.6176   -0.0231 H   0  0  0  0  0  0  0  0  0  0  0  0
    0.6305    1.0441   -1.2040 H   0  0  0  0  0  0  0  0  0  0  0  0
    0.6342    2.6089    0.4196 H   0  0  0  0  0  0  0  0  0  0  0  0
   -0.7573    1.8876    1.2464 H   0  0  0  0  0  0  0  0  0  0  0  0
    0.8839    1.3261    1.7159 H   0  0  0  0  0  0  0  0  0  0  0  0
  1  2  1  0
  2  3  1  0
  3  4  2  0
  4  5  1  0
  5  6  1  0
  6  7  1  0
  5  8  1  0
  8  9  1  0
  8  2  1  0
  7  5  1  0
  1 10  1  0
  1 11  1  0
  1 12  1  0
  2 13  1  0
  3 14  1  0
  4 15  1  0
  6 16  1  0
  6 17  1  0
  7 18  1  0
  7 19  1  0
  8 20  1  0
  9 21  1  0
  9 22  1  0
  9 23  1  0
M  END
