
     RDKit          3D

 15 15  0  0  0  0  0  0  0  0999 V2000
   -1.6682    1.1577    0.0399 C   0  0  0  0  0  0  0  0  0  0  0  0
   -0.4062    0.3859   -0.0063 C   0  0  0  0  0  0  0  0  0  0  0  0
   -0.4034   -0.9940   -0.0028 C   0  0  0  0  0  0  0  0  0  0  0  0
   -1.6568   -1.6150    0.0469 O   0  0  0  0  0  0  0  0  0  0  0  0
    0.7128   -1.6825   -0.0437 O   0  0  0  0  0  0  0  0  0  0  0  0
    1.9065   -1.1403   -0.0908 C   0  0  0  0  0  0  0  0  0  0  0  0
    1.9701    0.2386   -0.0969 C   0  0  0  0  0  0  0  0  0  0  0  0
    0.8243    1.0062   -0.0551 C   0  0  0  0  0  0  0  0  0  0  0  0
    0.8516    2.2609   -0.0594 O   0  0  0  0  0  0  0  0  0  0  0  0
   -2.5021    0.4792    0.3430 H   0  0  0  0  0  0  0  0  0  0  0  0
   -1.6398    1.9410    0.8528 H   0  0  0  0  0  0  0  0  0  0  0  0
   -1.9586    1.5878   -0.9286 H   0  0  0  0  0  0  0  0  0  0  0  0
   -1.7962   -2.5781    0.2606 H   0  0  0  0  0  0  0  0  0  0  0  0
    2.8130   -1.7584   -0.1239 H   0  0  0  0  0  0  0  0  0  0  0  0
    2.9527    0.7109   -0.1358 H   0  0  0  0  0  0  0  0  0  0  0  0
  1  2  1  0
  2  3  2  0
  3  4  1  0
  3  5  1  0
  5  6  1  0
  6  7  2  0
  7  8  1  0
  8  9  2  0
  8  2  1  0
  1 10  1  0
  1 11  1  0
  1 12  1  0
  4 13  1  0
  6 14  1  0
  7 15  1  0
M  END
