
     RDKit          3D

 21 22  0  0  0  0  0  0  0  0999 V2000
   -2.6445   -0.4320   -0.1843 C   0  0  0  0  0  0  0  0  0  0  0  0
   -1.4587    0.0296    0.6292 C   0  0  0  0  0  0  0  0  0  0  0  0
   -0.5776   -1.1063    1.0557 C   0  0  0  0  0  0  0  0  0  0  0  0
    0.7249   -0.7591    0.8211 O   0  0  0  0  0  0  0  0  0  0  0  0
    0.7964    0.5666    0.4919 C   0  0  0  0  0  0  0  0  0  0  0  0
    2.0059    0.9037   -0.3518 C   0  0  0  0  0  0  0  0  0  0  0  0
    2.8679   -0.1856   -0.7550 C   0  0  0  0  0  0  0  0  0  0  0  0
    3.2486    0.5595    0.3894 O   0  0  0  0  0  0  0  0  0  0  0  0
   -0.4904    0.8064   -0.2676 C   0  0  0  0  0  0  0  0  0  0  0  0
   -3.2103   -1.1535    0.4060 H   0  0  0  0  0  0  0  0  0  0  0  0
   -2.3026   -0.9387   -1.1118 H   0  0  0  0  0  0  0  0  0  0  0  0
   -3.2741    0.4332   -0.3859 H   0  0  0  0  0  0  0  0  0  0  0  0
   -1.8207    0.6532    1.4714 H   0  0  0  0  0  0  0  0  0  0  0  0
   -0.7453   -1.3742    2.1179 H   0  0  0  0  0  0  0  0  0  0  0  0
   -0.8189   -1.9709    0.3693 H   0  0  0  0  0  0  0  0  0  0  0  0
    0.7476    1.1652    1.4254 H   0  0  0  0  0  0  0  0  0  0  0  0
    2.0602    1.9385   -0.7443 H   0  0  0  0  0  0  0  0  0  0  0  0
    2.5078   -1.2161   -0.6097 H   0  0  0  0  0  0  0  0  0  0  0  0
    3.6198   -0.1047   -1.5681 H   0  0  0  0  0  0  0  0  0  0  0  0
   -0.4926    0.3048   -1.2464 H   0  0  0  0  0  0  0  0  0  0  0  0
   -0.7433    1.8804   -0.3089 H   0  0  0  0  0  0  0  0  0  0  0  0
  1  2  1  0
  2  3  1  0
  3  4  1  0
  4  5  1  0
  5  6  1  0
  6  7  1  0
  7  8  1  0
  5  9  1  0
  9  2  1  0
  8  6  1  0
  1 10  1  0
  1 11  1  0
  1 12  1  0
  2 13  1  0
  3 14  1  0
  3 15  1  0
  5 16  1  0
  6 17  1  0
  7 18  1  0
  7 19  1  0
  9 20  1  0
  9 21  1  0
M  END
