
     RDKit          3D

 21 22  0  0  0  0  0  0  0  0999 V2000
    2.6400   -0.4143    0.0417 C   0  0  0  0  0  0  0  0  0  0  0  0
    1.3079    0.0500   -0.4574 C   0  0  0  0  0  0  0  0  0  0  0  0
    0.3212   -1.1129   -0.2807 C   0  0  0  0  0  0  0  0  0  0  0  0
   -0.7859   -0.7576   -1.0549 O   0  0  0  0  0  0  0  0  0  0  0  0
   -1.4626    0.2695   -0.4490 C   0  0  0  0  0  0  0  0  0  0  0  0
   -2.6937   -0.3495    0.2286 C   0  0  0  0  0  0  0  0  0  0  0  0
   -0.6709    1.1018    0.4874 C   0  0  0  0  0  0  0  0  0  0  0  0
    0.0163    2.1918   -0.2945 O   0  0  0  0  0  0  0  0  0  0  0  0
    0.7407    1.2069    0.3105 C   0  0  0  0  0  0  0  0  0  0  0  0
    3.4601    0.1556   -0.4652 H   0  0  0  0  0  0  0  0  0  0  0  0
    2.7828   -0.2755    1.1344 H   0  0  0  0  0  0  0  0  0  0  0  0
    2.7751   -1.5032   -0.1649 H   0  0  0  0  0  0  0  0  0  0  0  0
    1.3474    0.3116   -1.5114 H   0  0  0  0  0  0  0  0  0  0  0  0
    0.7275   -2.0553   -0.6451 H   0  0  0  0  0  0  0  0  0  0  0  0
    0.0378   -1.1411    0.8078 H   0  0  0  0  0  0  0  0  0  0  0  0
   -1.8958    0.9046   -1.2769 H   0  0  0  0  0  0  0  0  0  0  0  0
   -3.2137    0.3577    0.8720 H   0  0  0  0  0  0  0  0  0  0  0  0
   -3.3515   -0.7315   -0.5992 H   0  0  0  0  0  0  0  0  0  0  0  0
   -2.3220   -1.2597    0.7479 H   0  0  0  0  0  0  0  0  0  0  0  0
   -1.1310    1.5167    1.4148 H   0  0  0  0  0  0  0  0  0  0  0  0
    1.3701    1.5344    1.1542 H   0  0  0  0  0  0  0  0  0  0  0  0
  1  2  1  0
  2  3  1  0
  3  4  1  0
  4  5  1  0
  5  6  1  0
  5  7  1  0
  7  8  1  0
  8  9  1  0
  9  2  1  0
  9  7  1  0
  1 10  1  0
  1 11  1  0
  1 12  1  0
  2 13  1  0
  3 14  1  0
  3 15  1  0
  5 16  1  0
  6 17  1  0
  6 18  1  0
  6 19  1  0
  7 20  1  0
  9 21  1  0
M  END
