
     RDKit          3D

 17 18  0  0  0  0  0  0  0  0999 V2000
    1.8177   -0.4493   -0.4232 C   0  0  0  0  0  0  0  0  0  0  0  0
    0.5106   -0.5443    0.2661 C   0  0  0  0  0  0  0  0  0  0  0  0
   -0.6222   -1.0093   -0.6115 C   0  0  0  0  0  0  0  0  0  0  0  0
   -1.0318    0.1394   -1.3277 O   0  0  0  0  0  0  0  0  0  0  0  0
   -1.4124    0.6396   -0.0826 C   0  0  0  0  0  0  0  0  0  0  0  0
   -1.7957   -0.7482    0.2556 C   0  0  0  0  0  0  0  0  0  0  0  0
   -2.6155   -1.3113    0.8890 O   0  0  0  0  0  0  0  0  0  0  0  0
   -0.0709    0.8304    0.6343 C   0  0  0  0  0  0  0  0  0  0  0  0
    0.6176    1.8445    0.0001 O   0  0  0  0  0  0  0  0  0  0  0  0
    2.0068   -1.4328   -0.9065 H   0  0  0  0  0  0  0  0  0  0  0  0
    2.6102   -0.2942    0.3200 H   0  0  0  0  0  0  0  0  0  0  0  0
    1.8938    0.3662   -1.1655 H   0  0  0  0  0  0  0  0  0  0  0  0
    0.5900   -1.1714    1.1505 H   0  0  0  0  0  0  0  0  0  0  0  0
   -0.5464   -1.9246   -1.1392 H   0  0  0  0  0  0  0  0  0  0  0  0
   -2.1231    1.4216   -0.0252 H   0  0  0  0  0  0  0  0  0  0  0  0
   -0.1869    0.9528    1.7115 H   0  0  0  0  0  0  0  0  0  0  0  0
    0.3582    2.6908    0.4544 H   0  0  0  0  0  0  0  0  0  0  0  0
  1  2  1  0
  2  3  1  0
  3  4  1  0
  4  5  1  0
  5  6  1  0
  6  7  2  0
  5  8  1  0
  8  9  1  0
  8  2  1  0
  6  3  1  0
  1 10  1  0
  1 11  1  0
  1 12  1  0
  2 13  1  0
  3 14  1  0
  5 15  1  0
  8 16  1  0
  9 17  1  0
M  END
