
     RDKit          3D

 23 24  0  0  0  0  0  0  0  0999 V2000
   -1.1903   -1.7315    0.2830 C   0  0  0  0  0  0  0  0  0  0  0  0
   -0.7537   -0.4876   -0.3919 C   0  0  0  0  0  0  0  0  0  0  0  0
   -1.3732    0.7200    0.3352 C   0  0  0  0  0  0  0  0  0  0  0  0
   -0.6967    1.8408   -0.4097 C   0  0  0  0  0  0  0  0  0  0  0  0
    0.7035    1.3000   -0.7455 C   0  0  0  0  0  0  0  0  0  0  0  0
    0.6680   -0.0751   -0.0897 C   0  0  0  0  0  0  0  0  0  0  0  0
    1.7175   -0.9848   -0.5103 C   0  0  0  0  0  0  0  0  0  0  0  0
    0.5321    0.1782    1.3915 C   0  0  0  0  0  0  0  0  0  0  0  0
   -0.7712    0.6056    1.5838 O   0  0  0  0  0  0  0  0  0  0  0  0
   -0.7421   -2.5985   -0.2523 H   0  0  0  0  0  0  0  0  0  0  0  0
   -2.2852   -1.8086    0.2268 H   0  0  0  0  0  0  0  0  0  0  0  0
   -0.9131   -1.7382    1.3462 H   0  0  0  0  0  0  0  0  0  0  0  0
   -1.0289   -0.4317   -1.4368 H   0  0  0  0  0  0  0  0  0  0  0  0
   -2.4380    0.7210    0.3363 H   0  0  0  0  0  0  0  0  0  0  0  0
   -1.2203    1.9612   -1.3885 H   0  0  0  0  0  0  0  0  0  0  0  0
   -0.6347    2.7721    0.1550 H   0  0  0  0  0  0  0  0  0  0  0  0
    1.4734    1.8832   -0.2349 H   0  0  0  0  0  0  0  0  0  0  0  0
    0.8482    1.1718   -1.8171 H   0  0  0  0  0  0  0  0  0  0  0  0
    2.6378   -0.3883   -0.7826 H   0  0  0  0  0  0  0  0  0  0  0  0
    1.4090   -1.4699   -1.4830 H   0  0  0  0  0  0  0  0  0  0  0  0
    2.0463   -1.7097    0.2387 H   0  0  0  0  0  0  0  0  0  0  0  0
    0.7342   -0.7024    2.0011 H   0  0  0  0  0  0  0  0  0  0  0  0
    1.2774    0.9723    1.6449 H   0  0  0  0  0  0  0  0  0  0  0  0
  1  2  1  0
  2  3  1  0
  3  4  1  0
  4  5  1  0
  5  6  1  0
  6  7  1  0
  6  8  1  0
  8  9  1  0
  6  2  1  0
  9  3  1  0
  1 10  1  0
  1 11  1  0
  1 12  1  0
  2 13  1  0
  3 14  1  0
  4 15  1  0
  4 16  1  0
  5 17  1  0
  5 18  1  0
  7 19  1  0
  7 20  1  0
  7 21  1  0
  8 22  1  0
  8 23  1  0
M  END
