
     RDKit          3D

 19 19  0  0  0  0  0  0  0  0999 V2000
   -0.9789    2.2179   -0.0541 C   0  0  0  0  0  0  0  0  0  0  0  0
   -0.6218    0.7773   -0.3734 C   0  0  0  0  0  0  0  0  0  0  0  0
   -0.4438   -0.1931    0.7793 C   0  0  0  0  0  0  0  0  0  0  0  0
   -0.9589   -1.6016    0.6054 C   0  0  0  0  0  0  0  0  0  0  0  0
    0.7268    0.2688   -0.0646 C   0  0  0  0  0  0  0  0  0  0  0  0
    1.3622   -0.8092   -0.9096 C   0  0  0  0  0  0  0  0  0  0  0  0
    2.6261   -1.0877   -0.3863 O   0  0  0  0  0  0  0  0  0  0  0  0
   -1.8718    2.5536   -0.6087 H   0  0  0  0  0  0  0  0  0  0  0  0
   -0.1293    2.9151   -0.2891 H   0  0  0  0  0  0  0  0  0  0  0  0
   -1.2362    2.2449    1.0308 H   0  0  0  0  0  0  0  0  0  0  0  0
   -1.1686    0.3678   -1.2662 H   0  0  0  0  0  0  0  0  0  0  0  0
   -0.4181    0.2055    1.8099 H   0  0  0  0  0  0  0  0  0  0  0  0
   -0.1702   -2.3569    0.8400 H   0  0  0  0  0  0  0  0  0  0  0  0
   -1.8337   -1.6998    1.2978 H   0  0  0  0  0  0  0  0  0  0  0  0
   -1.3227   -1.7889   -0.4237 H   0  0  0  0  0  0  0  0  0  0  0  0
    1.4464    0.9872    0.3521 H   0  0  0  0  0  0  0  0  0  0  0  0
    0.7802   -1.7511   -0.9114 H   0  0  0  0  0  0  0  0  0  0  0  0
    1.4878   -0.4980   -1.9664 H   0  0  0  0  0  0  0  0  0  0  0  0
    2.7246   -0.7516    0.5382 H   0  0  0  0  0  0  0  0  0  0  0  0
  1  2  1  0
  2  3  1  0
  3  4  1  0
  3  5  1  0
  5  6  1  0
  6  7  1  0
  5  2  1  0
  1  8  1  0
  1  9  1  0
  1 10  1  0
  2 11  1  0
  3 12  1  0
  4 13  1  0
  4 14  1  0
  4 15  1  0
  5 16  1  0
  6 17  1  0
  6 18  1  0
  7 19  1  0
M  END
