
     RDKit          3D

 23 25  0  0  0  0  0  0  0  0999 V2000
    1.9096    1.4675    0.1457 C   0  0  0  0  0  0  0  0  0  0  0  0
    0.8481    0.4110    0.2797 C   0  0  0  0  0  0  0  0  0  0  0  0
    1.4422   -0.9818    0.3235 C   0  0  0  0  0  0  0  0  0  0  0  0
    0.2900   -1.7929   -0.2344 C   0  0  0  0  0  0  0  0  0  0  0  0
   -1.0948   -1.3193   -0.1487 C   0  0  0  0  0  0  0  0  0  0  0  0
   -1.5310    0.0910   -0.2527 C   0  0  0  0  0  0  0  0  0  0  0  0
   -1.8958    0.8165    0.9920 C   0  0  0  0  0  0  0  0  0  0  0  0
   -0.1527    0.4201   -0.8263 C   0  0  0  0  0  0  0  0  0  0  0  0
   -0.1655   -0.9858   -1.3433 C   0  0  0  0  0  0  0  0  0  0  0  0
    2.6345    1.2591   -0.6458 H   0  0  0  0  0  0  0  0  0  0  0  0
    2.4468    1.5154    1.1157 H   0  0  0  0  0  0  0  0  0  0  0  0
    1.3988    2.4378    0.0211 H   0  0  0  0  0  0  0  0  0  0  0  0
    0.3723    0.5556    1.2945 H   0  0  0  0  0  0  0  0  0  0  0  0
    1.7211   -1.2818    1.3460 H   0  0  0  0  0  0  0  0  0  0  0  0
    2.3129   -0.9696   -0.3752 H   0  0  0  0  0  0  0  0  0  0  0  0
    0.4630   -2.8635   -0.3662 H   0  0  0  0  0  0  0  0  0  0  0  0
   -1.8867   -2.0698   -0.3196 H   0  0  0  0  0  0  0  0  0  0  0  0
   -2.2792    0.2127   -1.0872 H   0  0  0  0  0  0  0  0  0  0  0  0
   -1.9057    0.1732    1.8917 H   0  0  0  0  0  0  0  0  0  0  0  0
   -1.2789    1.7442    1.1390 H   0  0  0  0  0  0  0  0  0  0  0  0
   -2.9485    1.2128    0.8783 H   0  0  0  0  0  0  0  0  0  0  0  0
   -0.1219    1.2309   -1.5458 H   0  0  0  0  0  0  0  0  0  0  0  0
   -0.5785   -1.2834   -2.2820 H   0  0  0  0  0  0  0  0  0  0  0  0
  1  2  1  0
  2  3  1  0
  3  4  1  0
  4  5  1  0
  5  6  1  0
  6  7  1  0
  6  8  1  0
  8  9  1  0
  8  2  1  0
  9  4  1  0
  9  5  1  0
  1 10  1  0
  1 11  1  0
  1 12  1  0
  2 13  1  0
  3 14  1  0
  3 15  1  0
  4 16  1  0
  5 17  1  0
  6 18  1  0
  7 19  1  0
  7 20  1  0
  7 21  1  0
  8 22  1  0
  9 23  1  0
M  END
