
     RDKit          3D

 23 24  0  0  0  0  0  0  0  0999 V2000
    2.3165   -0.5779   -0.2060 C   0  0  0  0  0  0  0  0  0  0  0  0
    0.8316   -0.6876   -0.3758 C   0  0  0  0  0  0  0  0  0  0  0  0
    0.1267   -1.2651    0.8265 C   0  0  0  0  0  0  0  0  0  0  0  0
   -0.6913    0.0258    0.8853 C   0  0  0  0  0  0  0  0  0  0  0  0
   -2.0945   -0.0985    0.3829 C   0  0  0  0  0  0  0  0  0  0  0  0
   -1.9264   -0.0987   -1.1068 C   0  0  0  0  0  0  0  0  0  0  0  0
   -0.8517    0.7425   -1.3276 O   0  0  0  0  0  0  0  0  0  0  0  0
    0.0466    0.5782   -0.3056 C   0  0  0  0  0  0  0  0  0  0  0  0
    0.7764    1.8275    0.0430 C   0  0  0  0  0  0  0  0  0  0  0  0
    2.7651    0.0906   -0.9535 H   0  0  0  0  0  0  0  0  0  0  0  0
    2.6322   -0.2498    0.8010 H   0  0  0  0  0  0  0  0  0  0  0  0
    2.7445   -1.5960   -0.3556 H   0  0  0  0  0  0  0  0  0  0  0  0
    0.5744   -1.2748   -1.2725 H   0  0  0  0  0  0  0  0  0  0  0  0
    0.7693   -1.4153    1.7213 H   0  0  0  0  0  0  0  0  0  0  0  0
   -0.5103   -2.1558    0.6187 H   0  0  0  0  0  0  0  0  0  0  0  0
   -0.5598    0.6016    1.8257 H   0  0  0  0  0  0  0  0  0  0  0  0
   -2.5764   -1.0318    0.7598 H   0  0  0  0  0  0  0  0  0  0  0  0
   -2.6578    0.7929    0.7033 H   0  0  0  0  0  0  0  0  0  0  0  0
   -2.7974    0.3306   -1.6272 H   0  0  0  0  0  0  0  0  0  0  0  0
   -1.6428   -1.1045   -1.4419 H   0  0  0  0  0  0  0  0  0  0  0  0
    1.6644    1.6883    0.6768 H   0  0  0  0  0  0  0  0  0  0  0  0
    0.0692    2.4787    0.6225 H   0  0  0  0  0  0  0  0  0  0  0  0
    0.9915    2.3990   -0.8944 H   0  0  0  0  0  0  0  0  0  0  0  0
  1  2  1  0
  2  3  1  0
  3  4  1  0
  4  5  1  0
  5  6  1  0
  6  7  1  0
  7  8  1  0
  8  9  1  0
  8  2  1  0
  8  4  1  0
  1 10  1  0
  1 11  1  0
  1 12  1  0
  2 13  1  0
  3 14  1  0
  3 15  1  0
  4 16  1  0
  5 17  1  0
  5 18  1  0
  6 19  1  0
  6 20  1  0
  9 21  1  0
  9 22  1  0
  9 23  1  0
M  END
