
     RDKit          3D

 23 24  0  0  0  0  0  0  0  0999 V2000
    2.1969    1.0414    0.1089 C   0  0  0  0  0  0  0  0  0  0  0  0
    1.4328   -0.1874   -0.2969 C   0  0  0  0  0  0  0  0  0  0  0  0
    0.8074   -0.9197    0.8612 C   0  0  0  0  0  0  0  0  0  0  0  0
   -0.5288   -0.7781    0.2186 C   0  0  0  0  0  0  0  0  0  0  0  0
   -1.2739   -2.0380   -0.1332 C   0  0  0  0  0  0  0  0  0  0  0  0
    0.1069    0.0240   -0.9340 C   0  0  0  0  0  0  0  0  0  0  0  0
   -1.0680    0.5250   -0.2152 C   0  0  0  0  0  0  0  0  0  0  0  0
   -1.0260    1.7424    0.6689 C   0  0  0  0  0  0  0  0  0  0  0  0
   -2.2882    0.4369   -0.9264 O   0  0  0  0  0  0  0  0  0  0  0  0
    2.2136    1.1855    1.2278 H   0  0  0  0  0  0  0  0  0  0  0  0
    3.2919    0.9745   -0.1616 H   0  0  0  0  0  0  0  0  0  0  0  0
    1.8267    1.9356   -0.4212 H   0  0  0  0  0  0  0  0  0  0  0  0
    2.1053   -0.8381   -0.9305 H   0  0  0  0  0  0  0  0  0  0  0  0
    0.9294   -0.4564    1.8559 H   0  0  0  0  0  0  0  0  0  0  0  0
    1.1405   -1.9914    0.8681 H   0  0  0  0  0  0  0  0  0  0  0  0
   -1.3459   -2.2285   -1.2048 H   0  0  0  0  0  0  0  0  0  0  0  0
   -2.3376   -1.9827    0.2429 H   0  0  0  0  0  0  0  0  0  0  0  0
   -0.8394   -2.9210    0.3824 H   0  0  0  0  0  0  0  0  0  0  0  0
   -0.0390   -0.4252   -1.9607 H   0  0  0  0  0  0  0  0  0  0  0  0
   -1.7495    1.6191    1.5097 H   0  0  0  0  0  0  0  0  0  0  0  0
   -0.0462    1.9775    1.0780 H   0  0  0  0  0  0  0  0  0  0  0  0
   -1.3495    2.6087    0.0196 H   0  0  0  0  0  0  0  0  0  0  0  0
   -2.1593    0.6959   -1.8572 H   0  0  0  0  0  0  0  0  0  0  0  0
  1  2  1  0
  2  3  1  0
  3  4  1  0
  4  5  1  0
  4  6  1  0
  6  7  1  0
  7  8  1  0
  7  9  1  0
  6  2  1  0
  7  4  1  0
  1 10  1  0
  1 11  1  0
  1 12  1  0
  2 13  1  0
  3 14  1  0
  3 15  1  0
  5 16  1  0
  5 17  1  0
  5 18  1  0
  6 19  1  0
  8 20  1  0
  8 21  1  0
  8 22  1  0
  9 23  1  0
M  END
