
     RDKit          3D

 19 20  0  0  0  0  0  0  0  0999 V2000
    2.5693    0.1173    0.5469 C   0  0  0  0  0  0  0  0  0  0  0  0
    1.3979   -0.1149   -0.3852 C   0  0  0  0  0  0  0  0  0  0  0  0
    0.4760   -1.2787   -0.1206 C   0  0  0  0  0  0  0  0  0  0  0  0
    0.0726    0.1926    0.1005 C   0  0  0  0  0  0  0  0  0  0  0  0
   -1.0882    0.6207   -0.7210 C   0  0  0  0  0  0  0  0  0  0  0  0
   -2.2575    0.3526    0.2299 C   0  0  0  0  0  0  0  0  0  0  0  0
   -1.6067    0.2093    1.5651 C   0  0  0  0  0  0  0  0  0  0  0  0
   -2.2621   -0.1117    2.5922 O   0  0  0  0  0  0  0  0  0  0  0  0
   -0.2518    0.4834    1.4270 O   0  0  0  0  0  0  0  0  0  0  0  0
    3.0203    1.0909    0.2385 H   0  0  0  0  0  0  0  0  0  0  0  0
    2.2452    0.2421    1.5921 H   0  0  0  0  0  0  0  0  0  0  0  0
    3.3219   -0.6528    0.3853 H   0  0  0  0  0  0  0  0  0  0  0  0
    1.6253    0.0767   -1.4514 H   0  0  0  0  0  0  0  0  0  0  0  0
    0.6228   -1.9139    0.7565 H   0  0  0  0  0  0  0  0  0  0  0  0
    0.0433   -1.8032   -0.9914 H   0  0  0  0  0  0  0  0  0  0  0  0
   -1.0269    1.7074   -0.9542 H   0  0  0  0  0  0  0  0  0  0  0  0
   -1.1923    0.0242   -1.6523 H   0  0  0  0  0  0  0  0  0  0  0  0
   -2.8709    1.2856    0.2834 H   0  0  0  0  0  0  0  0  0  0  0  0
   -2.8382   -0.5276   -0.0593 H   0  0  0  0  0  0  0  0  0  0  0  0
  1  2  1  0
  2  3  1  0
  3  4  1  0
  4  5  1  0
  5  6  1  0
  6  7  1  0
  7  8  2  0
  7  9  1  0
  4  2  1  0
  9  4  1  0
  1 10  1  0
  1 11  1  0
  1 12  1  0
  2 13  1  0
  3 14  1  0
  3 15  1  0
  5 16  1  0
  5 17  1  0
  6 18  1  0
  6 19  1  0
M  END
