
     RDKit          3D

 23 23  0  0  0  0  0  0  0  0999 V2000
    2.1446    1.1133   -0.4014 C   0  0  0  0  0  0  0  0  0  0  0  0
    0.9573    0.7291    0.4482 C   0  0  0  0  0  0  0  0  0  0  0  0
   -0.0287    1.8112    0.5858 C   0  0  0  0  0  0  0  0  0  0  0  0
   -1.2312    1.2735    0.6303 C   0  0  0  0  0  0  0  0  0  0  0  0
   -1.2038   -0.2090    0.5288 C   0  0  0  0  0  0  0  0  0  0  0  0
   -2.2405   -0.6274   -0.4817 C   0  0  0  0  0  0  0  0  0  0  0  0
    0.1847   -0.4080   -0.1185 C   0  0  0  0  0  0  0  0  0  0  0  0
    0.7116   -1.7237    0.3857 C   0  0  0  0  0  0  0  0  0  0  0  0
    0.0716   -0.3912   -1.4924 O   0  0  0  0  0  0  0  0  0  0  0  0
    1.9127    1.1171   -1.4855 H   0  0  0  0  0  0  0  0  0  0  0  0
    2.5016    2.1150   -0.1240 H   0  0  0  0  0  0  0  0  0  0  0  0
    2.9250    0.3379   -0.2214 H   0  0  0  0  0  0  0  0  0  0  0  0
    1.3881    0.4140    1.4357 H   0  0  0  0  0  0  0  0  0  0  0  0
    0.1857    2.9106    0.6444 H   0  0  0  0  0  0  0  0  0  0  0  0
   -2.1784    1.8235    0.7309 H   0  0  0  0  0  0  0  0  0  0  0  0
   -1.2754   -0.7232    1.4876 H   0  0  0  0  0  0  0  0  0  0  0  0
   -2.3660    0.2179   -1.2196 H   0  0  0  0  0  0  0  0  0  0  0  0
   -3.2037   -0.7833    0.0375 H   0  0  0  0  0  0  0  0  0  0  0  0
   -1.9347   -1.5054   -1.0831 H   0  0  0  0  0  0  0  0  0  0  0  0
    0.0197   -2.5513    0.1753 H   0  0  0  0  0  0  0  0  0  0  0  0
    1.6791   -1.9622   -0.1171 H   0  0  0  0  0  0  0  0  0  0  0  0
    0.8711   -1.6400    1.4839 H   0  0  0  0  0  0  0  0  0  0  0  0
    0.1096   -1.3386   -1.8295 H   0  0  0  0  0  0  0  0  0  0  0  0
  1  2  1  0
  2  3  1  0
  3  4  2  0
  4  5  1  0
  5  6  1  0
  5  7  1  0
  7  8  1  0
  7  9  1  0
  7  2  1  0
  1 10  1  0
  1 11  1  0
  1 12  1  0
  2 13  1  0
  3 14  1  0
  4 15  1  0
  5 16  1  0
  6 17  1  0
  6 18  1  0
  6 19  1  0
  8 20  1  0
  8 21  1  0
  8 22  1  0
  9 23  1  0
M  END
