
     RDKit          3D

 19 19  0  0  0  0  0  0  0  0999 V2000
   -1.2506    0.5702   -1.4996 C   0  0  0  0  0  0  0  0  0  0  0  0
   -1.4606   -0.1095   -0.1892 C   0  0  0  0  0  0  0  0  0  0  0  0
   -0.9889   -1.4835    0.0833 C   0  0  0  0  0  0  0  0  0  0  0  0
   -0.3158   -0.2883    0.7340 C   0  0  0  0  0  0  0  0  0  0  0  0
   -0.5108   -0.0713    2.2205 C   0  0  0  0  0  0  0  0  0  0  0  0
    0.9947    0.0816    0.1577 C   0  0  0  0  0  0  0  0  0  0  0  0
    2.0659    0.3976   -0.3069 C   0  0  0  0  0  0  0  0  0  0  0  0
    3.3435    0.7821   -0.8426 C   0  0  0  0  0  0  0  0  0  0  0  0
    4.2846    1.2063   -0.1295 O   0  0  0  0  0  0  0  0  0  0  0  0
   -1.0014   -0.1598   -2.3082 H   0  0  0  0  0  0  0  0  0  0  0  0
   -0.4049    1.3030   -1.3569 H   0  0  0  0  0  0  0  0  0  0  0  0
   -2.1165    1.1875   -1.8010 H   0  0  0  0  0  0  0  0  0  0  0  0
   -2.4247    0.1644    0.3158 H   0  0  0  0  0  0  0  0  0  0  0  0
   -0.4292   -2.0755   -0.6603 H   0  0  0  0  0  0  0  0  0  0  0  0
   -1.5678   -2.1222    0.7869 H   0  0  0  0  0  0  0  0  0  0  0  0
   -1.5988    0.0251    2.3889 H   0  0  0  0  0  0  0  0  0  0  0  0
    0.0472    0.8509    2.4830 H   0  0  0  0  0  0  0  0  0  0  0  0
   -0.1678   -0.9594    2.7908 H   0  0  0  0  0  0  0  0  0  0  0  0
    3.5020    0.7008   -1.9233 H   0  0  0  0  0  0  0  0  0  0  0  0
  1  2  1  0
  2  3  1  0
  3  4  1  0
  4  5  1  0
  4  6  1  0
  6  7  3  0
  7  8  1  0
  8  9  2  0
  4  2  1  0
  1 10  1  0
  1 11  1  0
  1 12  1  0
  2 13  1  0
  3 14  1  0
  3 15  1  0
  5 16  1  0
  5 17  1  0
  5 18  1  0
  8 19  1  0
M  END
