
     RDKit          3D

 21 23  0  0  0  0  0  0  0  0999 V2000
    3.0756    0.5993    0.7743 C   0  0  0  0  0  0  0  0  0  0  0  0
    2.0479   -0.3650    0.1643 C   0  0  0  0  0  0  0  0  0  0  0  0
    1.1490    0.1574   -0.7878 C   0  0  0  0  0  0  0  0  0  0  0  0
   -0.0022    0.9242   -0.6142 O   0  0  0  0  0  0  0  0  0  0  0  0
   -0.5508   -0.2825   -0.2642 C   0  0  0  0  0  0  0  0  0  0  0  0
   -1.3490   -1.1959   -0.9261 C   0  0  0  0  0  0  0  0  0  0  0  0
   -1.9008   -0.4024    0.2516 C   0  0  0  0  0  0  0  0  0  0  0  0
   -2.8131    0.7739   -0.0443 C   0  0  0  0  0  0  0  0  0  0  0  0
    0.6647   -0.4373    0.5947 C   0  0  0  0  0  0  0  0  0  0  0  0
    3.7540    0.9971    0.0232 H   0  0  0  0  0  0  0  0  0  0  0  0
    3.5995    0.1491    1.6294 H   0  0  0  0  0  0  0  0  0  0  0  0
    2.4530    1.4596    1.1545 H   0  0  0  0  0  0  0  0  0  0  0  0
    2.5385   -1.3697    0.0018 H   0  0  0  0  0  0  0  0  0  0  0  0
    0.9257   -0.5320   -1.6653 H   0  0  0  0  0  0  0  0  0  0  0  0
   -1.3024   -2.2772   -0.7379 H   0  0  0  0  0  0  0  0  0  0  0  0
   -1.7707   -0.9724   -1.9475 H   0  0  0  0  0  0  0  0  0  0  0  0
   -2.0652   -0.9127    1.2064 H   0  0  0  0  0  0  0  0  0  0  0  0
   -2.7784    1.0671   -1.1075 H   0  0  0  0  0  0  0  0  0  0  0  0
   -2.3599    1.6443    0.5153 H   0  0  0  0  0  0  0  0  0  0  0  0
   -3.8186    0.6463    0.3600 H   0  0  0  0  0  0  0  0  0  0  0  0
    0.5031    0.3289    1.4192 H   0  0  0  0  0  0  0  0  0  0  0  0
  1  2  1  0
  2  3  1  0
  3  4  1  0
  4  5  1  0
  5  6  1  0
  6  7  1  0
  7  8  1  0
  5  9  1  0
  9  2  1  0
  9  3  1  0
  7  5  1  0
  1 10  1  0
  1 11  1  0
  1 12  1  0
  2 13  1  0
  3 14  1  0
  6 15  1  0
  6 16  1  0
  7 17  1  0
  8 18  1  0
  8 19  1  0
  8 20  1  0
  9 21  1  0
M  END
