
     RDKit          3D

 23 23  0  0  0  0  0  0  0  0999 V2000
   -2.7856   -0.0750   -0.0989 C   0  0  0  0  0  0  0  0  0  0  0  0
   -1.2869    0.0369   -0.3610 C   0  0  0  0  0  0  0  0  0  0  0  0
   -0.8372    1.4728   -0.3231 C   0  0  0  0  0  0  0  0  0  0  0  0
    0.4573    1.6848    0.3461 C   0  0  0  0  0  0  0  0  0  0  0  0
    1.6332    1.0753    0.4775 C   0  0  0  0  0  0  0  0  0  0  0  0
    2.2528   -0.1616    0.0027 C   0  0  0  0  0  0  0  0  0  0  0  0
    1.5952   -1.4090    0.5741 C   0  0  0  0  0  0  0  0  0  0  0  0
    0.2771   -1.5451   -0.1811 C   0  0  0  0  0  0  0  0  0  0  0  0
   -0.6535   -0.7873    0.5216 O   0  0  0  0  0  0  0  0  0  0  0  0
   -2.9707    0.1192    0.9662 H   0  0  0  0  0  0  0  0  0  0  0  0
   -3.3188    0.6658   -0.6954 H   0  0  0  0  0  0  0  0  0  0  0  0
   -3.1256   -1.0839   -0.4254 H   0  0  0  0  0  0  0  0  0  0  0  0
   -1.1385   -0.3383   -1.3943 H   0  0  0  0  0  0  0  0  0  0  0  0
   -1.6257    2.0342    0.2222 H   0  0  0  0  0  0  0  0  0  0  0  0
   -0.8290    1.9279   -1.3571 H   0  0  0  0  0  0  0  0  0  0  0  0
    0.4435    2.6217    0.8953 H   0  0  0  0  0  0  0  0  0  0  0  0
    2.3063    1.6493    1.1011 H   0  0  0  0  0  0  0  0  0  0  0  0
    3.3221   -0.2122    0.2931 H   0  0  0  0  0  0  0  0  0  0  0  0
    2.2169   -0.2840   -1.1020 H   0  0  0  0  0  0  0  0  0  0  0  0
    2.2708   -2.2573    0.3338 H   0  0  0  0  0  0  0  0  0  0  0  0
    1.4418   -1.3411    1.6643 H   0  0  0  0  0  0  0  0  0  0  0  0
   -0.0570   -2.5992   -0.2341 H   0  0  0  0  0  0  0  0  0  0  0  0
    0.4116   -1.1939   -1.2256 H   0  0  0  0  0  0  0  0  0  0  0  0
  1  2  1  0
  2  3  1  0
  3  4  1  0
  4  5  2  3
  5  6  1  0
  6  7  1  0
  7  8  1  0
  8  9  1  0
  9  2  1  0
  1 10  1  0
  1 11  1  0
  1 12  1  0
  2 13  1  0
  3 14  1  0
  3 15  1  0
  4 16  1  0
  5 17  1  0
  6 18  1  0
  6 19  1  0
  7 20  1  0
  7 21  1  0
  8 22  1  0
  8 23  1  0
M  END
