
     RDKit          3D

 21 22  0  0  0  0  0  0  0  0999 V2000
    2.7514    0.2858    0.7041 C   0  0  0  0  0  0  0  0  0  0  0  0
    1.5713    0.1723   -0.2698 C   0  0  0  0  0  0  0  0  0  0  0  0
    0.4877    1.1307   -0.0220 C   0  0  0  0  0  0  0  0  0  0  0  0
   -0.5579    1.0903   -0.9711 O   0  0  0  0  0  0  0  0  0  0  0  0
   -1.0421    0.0088   -0.2492 C   0  0  0  0  0  0  0  0  0  0  0  0
   -1.9810    0.5459    0.8407 C   0  0  0  0  0  0  0  0  0  0  0  0
   -1.6511   -1.1026   -1.0255 C   0  0  0  0  0  0  0  0  0  0  0  0
    0.3217   -0.3353    0.2592 C   0  0  0  0  0  0  0  0  0  0  0  0
    0.3292   -0.7918    1.5787 O   0  0  0  0  0  0  0  0  0  0  0  0
    2.3354    0.2198    1.7523 H   0  0  0  0  0  0  0  0  0  0  0  0
    3.4612   -0.5308    0.5967 H   0  0  0  0  0  0  0  0  0  0  0  0
    3.2081    1.3029    0.6538 H   0  0  0  0  0  0  0  0  0  0  0  0
    1.8897    0.0757   -1.3286 H   0  0  0  0  0  0  0  0  0  0  0  0
    0.4689    1.8664    0.7728 H   0  0  0  0  0  0  0  0  0  0  0  0
   -2.1455   -0.1763    1.6374 H   0  0  0  0  0  0  0  0  0  0  0  0
   -1.4774    1.4435    1.2970 H   0  0  0  0  0  0  0  0  0  0  0  0
   -2.8877    0.9318    0.3528 H   0  0  0  0  0  0  0  0  0  0  0  0
   -0.9071   -1.9291   -1.2121 H   0  0  0  0  0  0  0  0  0  0  0  0
   -2.1637   -0.8235   -1.9398 H   0  0  0  0  0  0  0  0  0  0  0  0
   -2.4242   -1.5885   -0.3621 H   0  0  0  0  0  0  0  0  0  0  0  0
    0.4131   -1.7959    1.5034 H   0  0  0  0  0  0  0  0  0  0  0  0
  1  2  1  0
  2  3  1  0
  3  4  1  0
  4  5  1  0
  5  6  1  0
  5  7  1  0
  5  8  1  0
  8  9  1  0
  8  2  1  0
  8  3  1  0
  1 10  1  0
  1 11  1  0
  1 12  1  0
  2 13  1  0
  3 14  1  0
  6 15  1  0
  6 16  1  0
  6 17  1  0
  7 18  1  0
  7 19  1  0
  7 20  1  0
  9 21  1  0
M  END
