
     RDKit          3D

 23 24  0  0  0  0  0  0  0  0999 V2000
    2.8667    0.0769    0.9327 C   0  0  0  0  0  0  0  0  0  0  0  0
    1.8081   -0.2868   -0.0566 C   0  0  0  0  0  0  0  0  0  0  0  0
    1.0400    0.9346   -0.4951 C   0  0  0  0  0  0  0  0  0  0  0  0
   -0.2305    0.6761   -0.6055 C   0  0  0  0  0  0  0  0  0  0  0  0
   -1.5870    1.2367   -0.9478 C   0  0  0  0  0  0  0  0  0  0  0  0
   -2.5694    0.3152   -0.2863 C   0  0  0  0  0  0  0  0  0  0  0  0
   -1.8174   -0.8383    0.3235 C   0  0  0  0  0  0  0  0  0  0  0  0
   -0.4330   -0.7653   -0.2635 C   0  0  0  0  0  0  0  0  0  0  0  0
    0.6778   -1.0030    0.7130 C   0  0  0  0  0  0  0  0  0  0  0  0
    3.0747   -0.7038    1.6802 H   0  0  0  0  0  0  0  0  0  0  0  0
    2.4910    0.9751    1.4975 H   0  0  0  0  0  0  0  0  0  0  0  0
    3.7906    0.4301    0.4225 H   0  0  0  0  0  0  0  0  0  0  0  0
    2.1519   -0.8806   -0.9079 H   0  0  0  0  0  0  0  0  0  0  0  0
    1.5617    1.8774   -0.6756 H   0  0  0  0  0  0  0  0  0  0  0  0
   -1.6434    1.2256   -2.0559 H   0  0  0  0  0  0  0  0  0  0  0  0
   -1.6750    2.2937   -0.6087 H   0  0  0  0  0  0  0  0  0  0  0  0
   -3.1435    0.8097    0.5399 H   0  0  0  0  0  0  0  0  0  0  0  0
   -3.3291   -0.0108   -1.0310 H   0  0  0  0  0  0  0  0  0  0  0  0
   -1.7639   -0.8204    1.4105 H   0  0  0  0  0  0  0  0  0  0  0  0
   -2.3607   -1.7718    0.0131 H   0  0  0  0  0  0  0  0  0  0  0  0
   -0.3248   -1.3407   -1.1983 H   0  0  0  0  0  0  0  0  0  0  0  0
    0.5014   -0.3844    1.6046 H   0  0  0  0  0  0  0  0  0  0  0  0
    0.9138   -2.0453    0.9053 H   0  0  0  0  0  0  0  0  0  0  0  0
  1  2  1  0
  2  3  1  0
  3  4  2  0
  4  5  1  0
  5  6  1  0
  6  7  1  0
  7  8  1  0
  8  9  1  0
  9  2  1  0
  8  4  1  0
  1 10  1  0
  1 11  1  0
  1 12  1  0
  2 13  1  0
  3 14  1  0
  5 15  1  0
  5 16  1  0
  6 17  1  0
  6 18  1  0
  7 19  1  0
  7 20  1  0
  8 21  1  0
  9 22  1  0
  9 23  1  0
M  END
