
     RDKit          3D

 21 22  0  0  0  0  0  0  0  0999 V2000
   -1.8235   -1.3591   -0.1116 C   0  0  0  0  0  0  0  0  0  0  0  0
   -1.2138   -0.1431    0.5552 C   0  0  0  0  0  0  0  0  0  0  0  0
   -1.8386    1.0891    0.0295 C   0  0  0  0  0  0  0  0  0  0  0  0
   -1.0156    1.6188   -0.8471 C   0  0  0  0  0  0  0  0  0  0  0  0
    0.2380    0.8022   -0.9981 C   0  0  0  0  0  0  0  0  0  0  0  0
    0.2320    0.0172    0.2954 C   0  0  0  0  0  0  0  0  0  0  0  0
    0.8907    0.6878    1.4204 O   0  0  0  0  0  0  0  0  0  0  0  0
    1.3414   -0.5923    0.7868 C   0  0  0  0  0  0  0  0  0  0  0  0
    2.7189   -0.3388    0.2344 C   0  0  0  0  0  0  0  0  0  0  0  0
   -2.7547   -1.6303    0.4094 H   0  0  0  0  0  0  0  0  0  0  0  0
   -2.0603   -1.0938   -1.1738 H   0  0  0  0  0  0  0  0  0  0  0  0
   -1.0909   -2.1637   -0.0953 H   0  0  0  0  0  0  0  0  0  0  0  0
   -1.4805   -0.2206    1.6298 H   0  0  0  0  0  0  0  0  0  0  0  0
   -2.8219    1.5125    0.3070 H   0  0  0  0  0  0  0  0  0  0  0  0
   -1.1494    2.5325   -1.4339 H   0  0  0  0  0  0  0  0  0  0  0  0
    1.1221    1.4300   -1.1183 H   0  0  0  0  0  0  0  0  0  0  0  0
    0.1042    0.0545   -1.8126 H   0  0  0  0  0  0  0  0  0  0  0  0
    1.3108   -1.4277    1.5442 H   0  0  0  0  0  0  0  0  0  0  0  0
    3.4300   -0.4404    1.0997 H   0  0  0  0  0  0  0  0  0  0  0  0
    3.0112   -1.0254   -0.5706 H   0  0  0  0  0  0  0  0  0  0  0  0
    2.8499    0.6906   -0.1505 H   0  0  0  0  0  0  0  0  0  0  0  0
  1  2  1  0
  2  3  1  0
  3  4  2  0
  4  5  1  0
  5  6  1  0
  6  7  1  0
  7  8  1  0
  8  9  1  0
  6  2  1  0
  8  6  1  0
  1 10  1  0
  1 11  1  0
  1 12  1  0
  2 13  1  0
  3 14  1  0
  4 15  1  0
  5 16  1  0
  5 17  1  0
  8 18  1  0
  9 19  1  0
  9 20  1  0
  9 21  1  0
M  END
