
     RDKit          3D

 19 20  0  0  0  0  0  0  0  0999 V2000
    1.8459   -0.2703   -0.3610 C   0  0  0  0  0  0  0  0  0  0  0  0
    0.7571    0.0611    0.5810 C   0  0  0  0  0  0  0  0  0  0  0  0
   -0.0994   -1.0855    1.0724 C   0  0  0  0  0  0  0  0  0  0  0  0
   -0.5264   -1.7466   -0.1947 C   0  0  0  0  0  0  0  0  0  0  0  0
   -0.8704   -0.7012   -0.9639 C   0  0  0  0  0  0  0  0  0  0  0  0
   -0.5841    0.4480   -0.0719 C   0  0  0  0  0  0  0  0  0  0  0  0
   -0.7861    1.8011   -0.4971 C   0  0  0  0  0  0  0  0  0  0  0  0
   -1.1643   -0.0512    1.2041 C   0  0  0  0  0  0  0  0  0  0  0  0
   -2.0222    0.1767    1.9962 O   0  0  0  0  0  0  0  0  0  0  0  0
    2.1047   -1.3475   -0.4254 H   0  0  0  0  0  0  0  0  0  0  0  0
    1.7075    0.1436   -1.3903 H   0  0  0  0  0  0  0  0  0  0  0  0
    2.7874    0.2283    0.0121 H   0  0  0  0  0  0  0  0  0  0  0  0
    0.9802    0.8221    1.3536 H   0  0  0  0  0  0  0  0  0  0  0  0
    0.1953   -1.6572    1.9045 H   0  0  0  0  0  0  0  0  0  0  0  0
   -0.5594   -2.8032   -0.4527 H   0  0  0  0  0  0  0  0  0  0  0  0
   -1.2570   -0.6463   -1.9684 H   0  0  0  0  0  0  0  0  0  0  0  0
   -1.5062    2.3440    0.1583 H   0  0  0  0  0  0  0  0  0  0  0  0
    0.1736    2.3897   -0.4118 H   0  0  0  0  0  0  0  0  0  0  0  0
   -1.1761    1.8946   -1.5449 H   0  0  0  0  0  0  0  0  0  0  0  0
  1  2  1  0
  2  3  1  0
  3  4  1  0
  4  5  2  0
  5  6  1  0
  6  7  1  0
  6  8  1  0
  8  9  2  0
  6  2  1  0
  8  3  1  0
  1 10  1  0
  1 11  1  0
  1 12  1  0
  2 13  1  0
  3 14  1  0
  4 15  1  0
  5 16  1  0
  7 17  1  0
  7 18  1  0
  7 19  1  0
M  END
