
     RDKit          3D

 21 21  0  0  0  0  0  0  0  0999 V2000
    2.7206    0.0325    0.3801 C   0  0  0  0  0  0  0  0  0  0  0  0
    1.3875    0.3953   -0.1855 C   0  0  0  0  0  0  0  0  0  0  0  0
    0.7584   -0.7236   -0.9385 C   0  0  0  0  0  0  0  0  0  0  0  0
   -0.4375   -1.2936   -0.7605 C   0  0  0  0  0  0  0  0  0  0  0  0
   -1.4229   -0.8887    0.2900 C   0  0  0  0  0  0  0  0  0  0  0  0
   -2.5760   -1.6368    0.2139 O   0  0  0  0  0  0  0  0  0  0  0  0
   -1.7750    0.5869    0.1320 C   0  0  0  0  0  0  0  0  0  0  0  0
   -0.5506    1.4325    0.2314 C   0  0  0  0  0  0  0  0  0  0  0  0
    0.5222    0.7835    0.8527 O   0  0  0  0  0  0  0  0  0  0  0  0
    3.4061   -0.2127   -0.4807 H   0  0  0  0  0  0  0  0  0  0  0  0
    2.6281   -0.7975    1.0875 H   0  0  0  0  0  0  0  0  0  0  0  0
    3.1511    0.9304    0.8532 H   0  0  0  0  0  0  0  0  0  0  0  0
    1.5089    1.3050   -0.8245 H   0  0  0  0  0  0  0  0  0  0  0  0
    1.3582   -1.1320   -1.7452 H   0  0  0  0  0  0  0  0  0  0  0  0
   -0.7074   -2.0994   -1.4204 H   0  0  0  0  0  0  0  0  0  0  0  0
   -0.9258   -0.9575    1.3014 H   0  0  0  0  0  0  0  0  0  0  0  0
   -3.1974   -1.3109    0.9018 H   0  0  0  0  0  0  0  0  0  0  0  0
   -2.5334    0.8123    0.9198 H   0  0  0  0  0  0  0  0  0  0  0  0
   -2.2602    0.6753   -0.8795 H   0  0  0  0  0  0  0  0  0  0  0  0
   -0.7709    2.3282    0.8669 H   0  0  0  0  0  0  0  0  0  0  0  0
   -0.2840    1.7708   -0.7957 H   0  0  0  0  0  0  0  0  0  0  0  0
  1  2  1  0
  2  3  1  0
  3  4  2  0
  4  5  1  0
  5  6  1  0
  5  7  1  0
  7  8  1  0
  8  9  1  0
  9  2  1  0
  1 10  1  0
  1 11  1  0
  1 12  1  0
  2 13  1  0
  3 14  1  0
  4 15  1  0
  5 16  1  0
  6 17  1  0
  7 18  1  0
  7 19  1  0
  8 20  1  0
  8 21  1  0
M  END
