
     RDKit          3D

 23 25  0  0  0  0  0  0  0  0999 V2000
    2.3164   -0.1981    0.1273 C   0  0  0  0  0  0  0  0  0  0  0  0
    0.9079   -0.0282   -0.4717 C   0  0  0  0  0  0  0  0  0  0  0  0
    0.4941    1.3735   -0.2799 C   0  0  0  0  0  0  0  0  0  0  0  0
   -0.5377    1.6138    0.8136 C   0  0  0  0  0  0  0  0  0  0  0  0
   -1.6640    0.5964    0.5308 C   0  0  0  0  0  0  0  0  0  0  0  0
   -1.6642   -0.2751   -0.6392 C   0  0  0  0  0  0  0  0  0  0  0  0
   -1.0394   -1.6738   -0.7871 C   0  0  0  0  0  0  0  0  0  0  0  0
    0.0883   -1.1157    0.0638 C   0  0  0  0  0  0  0  0  0  0  0  0
   -1.1283   -0.6416    0.7852 C   0  0  0  0  0  0  0  0  0  0  0  0
    3.0400    0.3217   -0.5069 H   0  0  0  0  0  0  0  0  0  0  0  0
    2.2356    0.2740    1.1473 H   0  0  0  0  0  0  0  0  0  0  0  0
    2.5895   -1.2563    0.2156 H   0  0  0  0  0  0  0  0  0  0  0  0
    1.0742   -0.2008   -1.5776 H   0  0  0  0  0  0  0  0  0  0  0  0
    0.1578    1.8719   -1.2402 H   0  0  0  0  0  0  0  0  0  0  0  0
    1.3741    2.0139    0.0209 H   0  0  0  0  0  0  0  0  0  0  0  0
   -0.0551    1.3733    1.7801 H   0  0  0  0  0  0  0  0  0  0  0  0
   -0.8847    2.6347    0.7597 H   0  0  0  0  0  0  0  0  0  0  0  0
   -2.6396    0.9237    0.9105 H   0  0  0  0  0  0  0  0  0  0  0  0
   -1.1315    0.3013   -1.3935 H   0  0  0  0  0  0  0  0  0  0  0  0
   -1.5915   -2.4405   -0.2006 H   0  0  0  0  0  0  0  0  0  0  0  0
   -0.8143   -2.0155   -1.7742 H   0  0  0  0  0  0  0  0  0  0  0  0
    0.6317   -1.9591    0.5392 H   0  0  0  0  0  0  0  0  0  0  0  0
   -1.7592   -1.4934    1.1768 H   0  0  0  0  0  0  0  0  0  0  0  0
  1  2  1  0
  2  3  1  0
  3  4  1  0
  4  5  1  0
  5  6  1  0
  6  7  1  0
  7  8  1  0
  8  9  1  0
  8  2  1  0
  9  5  1  0
  9  6  1  0
  1 10  1  0
  1 11  1  0
  1 12  1  0
  2 13  1  0
  3 14  1  0
  3 15  1  0
  4 16  1  0
  4 17  1  0
  5 18  1  0
  6 19  1  0
  7 20  1  0
  7 21  1  0
  8 22  1  0
  9 23  1  0
M  END
