
     RDKit          3D

 21 22  0  0  0  0  0  0  0  0999 V2000
   -1.7684   -1.1699   -0.3442 C   0  0  0  0  0  0  0  0  0  0  0  0
   -1.0598   -0.0665    0.3228 C   0  0  0  0  0  0  0  0  0  0  0  0
   -1.0405    1.2646   -0.4451 C   0  0  0  0  0  0  0  0  0  0  0  0
    0.1338    0.6728   -1.2044 C   0  0  0  0  0  0  0  0  0  0  0  0
    0.4123    0.0595    0.1794 C   0  0  0  0  0  0  0  0  0  0  0  0
    1.3152   -1.0467    0.2640 C   0  0  0  0  0  0  0  0  0  0  0  0
    2.6398   -0.5780    0.0837 O   0  0  0  0  0  0  0  0  0  0  0  0
    0.6472    1.3237    0.9660 C   0  0  0  0  0  0  0  0  0  0  0  0
   -0.4288    2.0998    0.4626 O   0  0  0  0  0  0  0  0  0  0  0  0
   -2.8701   -0.9126   -0.3638 H   0  0  0  0  0  0  0  0  0  0  0  0
   -1.4972   -1.3903   -1.3735 H   0  0  0  0  0  0  0  0  0  0  0  0
   -1.6858   -2.0747    0.2866 H   0  0  0  0  0  0  0  0  0  0  0  0
   -1.4534    0.1305    1.3294 H   0  0  0  0  0  0  0  0  0  0  0  0
   -1.9095    1.5489   -0.9667 H   0  0  0  0  0  0  0  0  0  0  0  0
    0.9365    1.3832   -1.4277 H   0  0  0  0  0  0  0  0  0  0  0  0
   -0.1002   -0.0427   -1.9891 H   0  0  0  0  0  0  0  0  0  0  0  0
    1.2572   -1.5656    1.2132 H   0  0  0  0  0  0  0  0  0  0  0  0
    1.1300   -1.7600   -0.5796 H   0  0  0  0  0  0  0  0  0  0  0  0
    3.2149   -0.7935    0.8348 H   0  0  0  0  0  0  0  0  0  0  0  0
    0.5075    1.1622    2.0479 H   0  0  0  0  0  0  0  0  0  0  0  0
    1.6193    1.7552    0.7035 H   0  0  0  0  0  0  0  0  0  0  0  0
  1  2  1  0
  2  3  1  0
  3  4  1  0
  4  5  1  0
  5  6  1  0
  6  7  1  0
  5  8  1  0
  8  9  1  0
  5  2  1  0
  9  3  1  0
  1 10  1  0
  1 11  1  0
  1 12  1  0
  2 13  1  0
  3 14  1  0
  4 15  1  0
  4 16  1  0
  6 17  1  0
  6 18  1  0
  7 19  1  0
  8 20  1  0
  8 21  1  0
M  END
