
     RDKit          3D

 21 22  0  0  0  0  0  0  0  0999 V2000
    2.5962    0.3127    0.3585 C   0  0  0  0  0  0  0  0  0  0  0  0
    1.3775   -0.5560    0.4171 C   0  0  0  0  0  0  0  0  0  0  0  0
    0.9269   -1.0451   -0.9747 C   0  0  0  0  0  0  0  0  0  0  0  0
    0.0806   -0.1813   -0.1185 C   0  0  0  0  0  0  0  0  0  0  0  0
   -1.1662   -0.7806    0.4873 C   0  0  0  0  0  0  0  0  0  0  0  0
   -2.2987    0.1227    0.0931 C   0  0  0  0  0  0  0  0  0  0  0  0
   -1.7315    1.1032   -0.9333 C   0  0  0  0  0  0  0  0  0  0  0  0
   -0.2981    1.1652   -0.5434 C   0  0  0  0  0  0  0  0  0  0  0  0
    0.3817    2.1724   -0.5895 O   0  0  0  0  0  0  0  0  0  0  0  0
    2.4743    1.0906   -0.4241 H   0  0  0  0  0  0  0  0  0  0  0  0
    3.4417   -0.3484    0.0032 H   0  0  0  0  0  0  0  0  0  0  0  0
    2.9099    0.7007    1.3283 H   0  0  0  0  0  0  0  0  0  0  0  0
    1.4088   -1.3583    1.2073 H   0  0  0  0  0  0  0  0  0  0  0  0
    1.3602   -0.5761   -1.8578 H   0  0  0  0  0  0  0  0  0  0  0  0
    0.7440   -2.1361   -1.0591 H   0  0  0  0  0  0  0  0  0  0  0  0
   -1.3124   -1.7804    0.0685 H   0  0  0  0  0  0  0  0  0  0  0  0
   -1.0204   -0.7940    1.5942 H   0  0  0  0  0  0  0  0  0  0  0  0
   -3.1121   -0.4525   -0.3719 H   0  0  0  0  0  0  0  0  0  0  0  0
   -2.6427    0.6706    1.0099 H   0  0  0  0  0  0  0  0  0  0  0  0
   -1.8721    0.6133   -1.9324 H   0  0  0  0  0  0  0  0  0  0  0  0
   -2.2473    2.0574   -0.8666 H   0  0  0  0  0  0  0  0  0  0  0  0
  1  2  1  0
  2  3  1  0
  3  4  1  0
  4  5  1  0
  5  6  1  0
  6  7  1  0
  7  8  1  0
  8  9  2  0
  4  2  1  0
  8  4  1  0
  1 10  1  0
  1 11  1  0
  1 12  1  0
  2 13  1  0
  3 14  1  0
  3 15  1  0
  5 16  1  0
  5 17  1  0
  6 18  1  0
  6 19  1  0
  7 20  1  0
  7 21  1  0
M  END
