
     RDKit          3D

 25 26  0  0  0  0  0  0  0  0999 V2000
    2.4843   -0.0730    0.1434 C   0  0  0  0  0  0  0  0  0  0  0  0
    1.2688   -0.1277   -0.7376 C   0  0  0  0  0  0  0  0  0  0  0  0
    0.3226   -1.1931   -0.1696 C   0  0  0  0  0  0  0  0  0  0  0  0
   -0.9672   -0.4606    0.0421 C   0  0  0  0  0  0  0  0  0  0  0  0
   -2.1792   -1.2777    0.0484 C   0  0  0  0  0  0  0  0  0  0  0  0
   -0.7888    0.4557    1.2287 C   0  0  0  0  0  0  0  0  0  0  0  0
    0.1674    1.5220    0.7032 C   0  0  0  0  0  0  0  0  0  0  0  0
    0.4647    1.1283   -0.7254 C   0  0  0  0  0  0  0  0  0  0  0  0
   -0.9197    0.5684   -1.0997 C   0  0  0  0  0  0  0  0  0  0  0  0
    2.9984   -1.0708    0.0315 H   0  0  0  0  0  0  0  0  0  0  0  0
    3.2067    0.6770   -0.1721 H   0  0  0  0  0  0  0  0  0  0  0  0
    2.2496    0.0154    1.2152 H   0  0  0  0  0  0  0  0  0  0  0  0
    1.5635   -0.4672   -1.7278 H   0  0  0  0  0  0  0  0  0  0  0  0
    0.2448   -2.0633   -0.8256 H   0  0  0  0  0  0  0  0  0  0  0  0
    0.6812   -1.5367    0.8302 H   0  0  0  0  0  0  0  0  0  0  0  0
   -3.0007   -0.7214   -0.4831 H   0  0  0  0  0  0  0  0  0  0  0  0
   -2.0146   -2.2102   -0.5372 H   0  0  0  0  0  0  0  0  0  0  0  0
   -2.4823   -1.5939    1.0607 H   0  0  0  0  0  0  0  0  0  0  0  0
   -1.7851    0.9310    1.4325 H   0  0  0  0  0  0  0  0  0  0  0  0
   -0.3956   -0.0368    2.1182 H   0  0  0  0  0  0  0  0  0  0  0  0
    1.0444    1.6594    1.3236 H   0  0  0  0  0  0  0  0  0  0  0  0
   -0.3664    2.5090    0.6699 H   0  0  0  0  0  0  0  0  0  0  0  0
    0.7900    1.9246   -1.3674 H   0  0  0  0  0  0  0  0  0  0  0  0
   -0.9247    0.0946   -2.0745 H   0  0  0  0  0  0  0  0  0  0  0  0
   -1.6621    1.3468   -0.9274 H   0  0  0  0  0  0  0  0  0  0  0  0
  1  2  1  0
  2  3  1  0
  3  4  1  0
  4  5  1  0
  4  6  1  0
  6  7  1  0
  7  8  1  0
  8  9  1  0
  8  2  1  0
  9  4  1  0
  1 10  1  0
  1 11  1  0
  1 12  1  0
  2 13  1  0
  3 14  1  0
  3 15  1  0
  5 16  1  0
  5 17  1  0
  5 18  1  0
  6 19  1  0
  6 20  1  0
  7 21  1  0
  7 22  1  0
  8 23  1  0
  9 24  1  0
  9 25  1  0
M  END
