
     RDKit          3D

 25 25  0  0  0  0  0  0  0  0999 V2000
   -0.0949    2.1562   -0.7747 C   0  0  0  0  0  0  0  0  0  0  0  0
    0.1899    1.0536    0.2274 C   0  0  0  0  0  0  0  0  0  0  0  0
   -0.7336   -0.1112    0.3446 C   0  0  0  0  0  0  0  0  0  0  0  0
   -0.9919   -0.7610    1.6786 C   0  0  0  0  0  0  0  0  0  0  0  0
   -1.9523    0.0018   -0.5245 C   0  0  0  0  0  0  0  0  0  0  0  0
    0.6127   -0.2839   -0.2472 C   0  0  0  0  0  0  0  0  0  0  0  0
    0.6415   -0.6193   -1.7173 C   0  0  0  0  0  0  0  0  0  0  0  0
    1.7422   -0.8957    0.5069 C   0  0  0  0  0  0  0  0  0  0  0  0
    1.5218   -1.0993    1.8384 O   0  0  0  0  0  0  0  0  0  0  0  0
   -1.0123    2.7353   -0.5044 H   0  0  0  0  0  0  0  0  0  0  0  0
    0.7676    2.8666   -0.7151 H   0  0  0  0  0  0  0  0  0  0  0  0
   -0.1225    1.7859   -1.8105 H   0  0  0  0  0  0  0  0  0  0  0  0
    0.5913    1.4377    1.1849 H   0  0  0  0  0  0  0  0  0  0  0  0
   -0.5438   -0.2506    2.5273 H   0  0  0  0  0  0  0  0  0  0  0  0
   -2.0986   -0.8244    1.9016 H   0  0  0  0  0  0  0  0  0  0  0  0
   -0.6807   -1.8369    1.5804 H   0  0  0  0  0  0  0  0  0  0  0  0
   -2.4157   -0.9759   -0.7585 H   0  0  0  0  0  0  0  0  0  0  0  0
   -2.7228    0.5433    0.1014 H   0  0  0  0  0  0  0  0  0  0  0  0
   -1.8073    0.6440   -1.4125 H   0  0  0  0  0  0  0  0  0  0  0  0
    1.6463   -0.4020   -2.1131 H   0  0  0  0  0  0  0  0  0  0  0  0
   -0.1710   -0.1949   -2.2957 H   0  0  0  0  0  0  0  0  0  0  0  0
    0.5308   -1.7379   -1.7778 H   0  0  0  0  0  0  0  0  0  0  0  0
    2.1072   -1.8420    0.0386 H   0  0  0  0  0  0  0  0  0  0  0  0
    2.6176   -0.1876    0.4196 H   0  0  0  0  0  0  0  0  0  0  0  0
    2.3789   -1.2016    2.3016 H   0  0  0  0  0  0  0  0  0  0  0  0
  1  2  1  0
  2  3  1  0
  3  4  1  0
  3  5  1  0
  3  6  1  0
  6  7  1  0
  6  8  1  0
  8  9  1  0
  6  2  1  0
  1 10  1  0
  1 11  1  0
  1 12  1  0
  2 13  1  0
  4 14  1  0
  4 15  1  0
  4 16  1  0
  5 17  1  0
  5 18  1  0
  5 19  1  0
  7 20  1  0
  7 21  1  0
  7 22  1  0
  8 23  1  0
  8 24  1  0
  9 25  1  0
M  END
