
     RDKit          3D

 21 22  0  0  0  0  0  0  0  0999 V2000
   -2.0134    0.3562    0.9907 C   0  0  0  0  0  0  0  0  0  0  0  0
   -0.5993   -0.0779    0.7282 C   0  0  0  0  0  0  0  0  0  0  0  0
   -0.5484   -0.8284   -0.6207 C   0  0  0  0  0  0  0  0  0  0  0  0
   -1.7987   -0.8870   -1.2044 O   0  0  0  0  0  0  0  0  0  0  0  0
    0.3815    0.1341   -1.3315 C   0  0  0  0  0  0  0  0  0  0  0  0
   -0.2041    1.3694   -0.9629 O   0  0  0  0  0  0  0  0  0  0  0  0
    0.2977    1.0793    0.3231 C   0  0  0  0  0  0  0  0  0  0  0  0
    1.4631    0.4552   -0.3610 C   0  0  0  0  0  0  0  0  0  0  0  0
    2.1520   -0.6630    0.3224 C   0  0  0  0  0  0  0  0  0  0  0  0
   -2.1736    0.3522    2.0837 H   0  0  0  0  0  0  0  0  0  0  0  0
   -2.2817    1.3212    0.5523 H   0  0  0  0  0  0  0  0  0  0  0  0
   -2.7006   -0.4109    0.5441 H   0  0  0  0  0  0  0  0  0  0  0  0
   -0.1816   -0.6877    1.5332 H   0  0  0  0  0  0  0  0  0  0  0  0
   -0.1328   -1.8255   -0.4855 H   0  0  0  0  0  0  0  0  0  0  0  0
   -2.0535    0.0456   -1.4517 H   0  0  0  0  0  0  0  0  0  0  0  0
    0.5934   -0.0196   -2.3632 H   0  0  0  0  0  0  0  0  0  0  0  0
    0.4250    1.8890    1.0016 H   0  0  0  0  0  0  0  0  0  0  0  0
    2.1718    1.1796   -0.7772 H   0  0  0  0  0  0  0  0  0  0  0  0
    2.9473   -1.0502   -0.3569 H   0  0  0  0  0  0  0  0  0  0  0  0
    1.5400   -1.5001    0.6353 H   0  0  0  0  0  0  0  0  0  0  0  0
    2.7161   -0.2315    1.2002 H   0  0  0  0  0  0  0  0  0  0  0  0
  1  2  1  0
  2  3  1  0
  3  4  1  0
  3  5  1  0
  5  6  1  0
  6  7  1  0
  7  8  1  0
  8  9  1  0
  7  2  1  0
  8  5  1  0
  1 10  1  0
  1 11  1  0
  1 12  1  0
  2 13  1  0
  3 14  1  0
  4 15  1  0
  5 16  1  0
  7 17  1  0
  8 18  1  0
  9 19  1  0
  9 20  1  0
  9 21  1  0
M  END
