
     RDKit          3D

 21 23  0  0  0  0  0  0  0  0999 V2000
    2.3229   -0.5490   -0.2370 C   0  0  0  0  0  0  0  0  0  0  0  0
    1.1996    0.4584   -0.0539 C   0  0  0  0  0  0  0  0  0  0  0  0
    0.0757    0.0690    0.8270 C   0  0  0  0  0  0  0  0  0  0  0  0
   -0.7427    1.1795    1.3518 C   0  0  0  0  0  0  0  0  0  0  0  0
   -1.4663    1.7486    0.4040 C   0  0  0  0  0  0  0  0  0  0  0  0
   -1.2028    1.0679   -0.8695 C   0  0  0  0  0  0  0  0  0  0  0  0
   -0.0652    0.1360   -0.7055 C   0  0  0  0  0  0  0  0  0  0  0  0
   -0.3657   -1.3683   -0.7493 C   0  0  0  0  0  0  0  0  0  0  0  0
   -0.5812   -1.2617    0.7537 C   0  0  0  0  0  0  0  0  0  0  0  0
    3.3202   -0.0658   -0.0354 H   0  0  0  0  0  0  0  0  0  0  0  0
    2.2306   -1.3747    0.4885 H   0  0  0  0  0  0  0  0  0  0  0  0
    2.3687   -0.9597   -1.2439 H   0  0  0  0  0  0  0  0  0  0  0  0
    1.5322    1.4923   -0.0203 H   0  0  0  0  0  0  0  0  0  0  0  0
   -0.7400    1.4799    2.3892 H   0  0  0  0  0  0  0  0  0  0  0  0
   -2.1448    2.5808    0.5355 H   0  0  0  0  0  0  0  0  0  0  0  0
   -2.1203    0.4669   -1.1306 H   0  0  0  0  0  0  0  0  0  0  0  0
   -1.0886    1.7914   -1.7057 H   0  0  0  0  0  0  0  0  0  0  0  0
    0.5579   -1.9448   -0.9329 H   0  0  0  0  0  0  0  0  0  0  0  0
   -1.2428   -1.6089   -1.3435 H   0  0  0  0  0  0  0  0  0  0  0  0
   -0.1518   -2.0838    1.3463 H   0  0  0  0  0  0  0  0  0  0  0  0
   -1.6957   -1.2540    0.9317 H   0  0  0  0  0  0  0  0  0  0  0  0
  1  2  1  0
  2  3  1  0
  3  4  1  0
  4  5  2  0
  5  6  1  0
  6  7  1  0
  7  8  1  0
  8  9  1  0
  7  2  1  0
  7  3  1  0
  9  3  1  0
  1 10  1  0
  1 11  1  0
  1 12  1  0
  2 13  1  0
  4 14  1  0
  5 15  1  0
  6 16  1  0
  6 17  1  0
  8 18  1  0
  8 19  1  0
  9 20  1  0
  9 21  1  0
M  END
