
     RDKit          3D

 25 26  0  0  0  0  0  0  0  0999 V2000
    0.5588    2.1256   -0.1892 C   0  0  0  0  0  0  0  0  0  0  0  0
    0.7723    0.7258   -0.6642 C   0  0  0  0  0  0  0  0  0  0  0  0
    1.2138   -0.2441    0.4034 C   0  0  0  0  0  0  0  0  0  0  0  0
    2.5331   -0.9226    0.1161 C   0  0  0  0  0  0  0  0  0  0  0  0
   -0.0064   -1.0693    0.1115 C   0  0  0  0  0  0  0  0  0  0  0  0
   -1.0851   -0.9946    1.1570 C   0  0  0  0  0  0  0  0  0  0  0  0
   -2.3212   -0.6266    0.3590 C   0  0  0  0  0  0  0  0  0  0  0  0
   -1.7568    0.4043   -0.6101 C   0  0  0  0  0  0  0  0  0  0  0  0
   -0.4108   -0.0940   -0.9877 C   0  0  0  0  0  0  0  0  0  0  0  0
    0.0675    2.7104   -0.9981 H   0  0  0  0  0  0  0  0  0  0  0  0
    1.5787    2.5769   -0.0308 H   0  0  0  0  0  0  0  0  0  0  0  0
    0.0037    2.2124    0.7520 H   0  0  0  0  0  0  0  0  0  0  0  0
    1.5051    0.7231   -1.5102 H   0  0  0  0  0  0  0  0  0  0  0  0
    1.2004    0.2598    1.3875 H   0  0  0  0  0  0  0  0  0  0  0  0
    2.6350   -1.8791    0.6597 H   0  0  0  0  0  0  0  0  0  0  0  0
    3.3358   -0.2584    0.5067 H   0  0  0  0  0  0  0  0  0  0  0  0
    2.6948   -1.0366   -0.9695 H   0  0  0  0  0  0  0  0  0  0  0  0
    0.1679   -2.0712   -0.3074 H   0  0  0  0  0  0  0  0  0  0  0  0
   -0.8887   -0.1534    1.8507 H   0  0  0  0  0  0  0  0  0  0  0  0
   -1.2779   -1.9508    1.6670 H   0  0  0  0  0  0  0  0  0  0  0  0
   -2.7760   -1.4831   -0.1514 H   0  0  0  0  0  0  0  0  0  0  0  0
   -3.0866   -0.1875    1.0170 H   0  0  0  0  0  0  0  0  0  0  0  0
   -1.7748    1.3691   -0.0859 H   0  0  0  0  0  0  0  0  0  0  0  0
   -2.4564    0.4199   -1.4863 H   0  0  0  0  0  0  0  0  0  0  0  0
   -0.4263   -0.5559   -1.9967 H   0  0  0  0  0  0  0  0  0  0  0  0
  1  2  1  0
  2  3  1  0
  3  4  1  0
  3  5  1  0
  5  6  1  0
  6  7  1  0
  7  8  1  0
  8  9  1  0
  9  2  1  0
  9  5  1  0
  1 10  1  0
  1 11  1  0
  1 12  1  0
  2 13  1  0
  3 14  1  0
  4 15  1  0
  4 16  1  0
  4 17  1  0
  5 18  1  0
  6 19  1  0
  6 20  1  0
  7 21  1  0
  7 22  1  0
  8 23  1  0
  8 24  1  0
  9 25  1  0
M  END
