
     RDKit          3D

 23 25  0  0  0  0  0  0  0  0999 V2000
   -1.7768    1.3858    1.3438 C   0  0  0  0  0  0  0  0  0  0  0  0
   -1.0404    0.6803    0.2396 C   0  0  0  0  0  0  0  0  0  0  0  0
   -1.6853   -0.6323   -0.2116 C   0  0  0  0  0  0  0  0  0  0  0  0
   -1.0483   -1.2335   -1.3963 C   0  0  0  0  0  0  0  0  0  0  0  0
   -0.2936   -1.3215   -0.1574 C   0  0  0  0  0  0  0  0  0  0  0  0
    0.1398   -0.1535    0.6744 C   0  0  0  0  0  0  0  0  0  0  0  0
    1.4865    0.4129    0.3870 C   0  0  0  0  0  0  0  0  0  0  0  0
    1.9413    0.7164   -0.9886 C   0  0  0  0  0  0  0  0  0  0  0  0
    2.4415   -0.5470   -0.3104 C   0  0  0  0  0  0  0  0  0  0  0  0
   -1.1671    1.4693    2.2767 H   0  0  0  0  0  0  0  0  0  0  0  0
   -2.7636    0.9200    1.5510 H   0  0  0  0  0  0  0  0  0  0  0  0
   -1.9923    2.4319    1.0386 H   0  0  0  0  0  0  0  0  0  0  0  0
   -0.7710    1.3012   -0.6288 H   0  0  0  0  0  0  0  0  0  0  0  0
   -2.4366   -1.1119    0.4065 H   0  0  0  0  0  0  0  0  0  0  0  0
   -0.8111   -0.5036   -2.2187 H   0  0  0  0  0  0  0  0  0  0  0  0
   -1.4826   -2.1608   -1.7933 H   0  0  0  0  0  0  0  0  0  0  0  0
   -0.2406   -2.3032    0.3517 H   0  0  0  0  0  0  0  0  0  0  0  0
    0.0367   -0.3711    1.7628 H   0  0  0  0  0  0  0  0  0  0  0  0
    1.9608    0.9438    1.2594 H   0  0  0  0  0  0  0  0  0  0  0  0
    1.2435    0.6644   -1.8210 H   0  0  0  0  0  0  0  0  0  0  0  0
    2.7250    1.4965   -1.0744 H   0  0  0  0  0  0  0  0  0  0  0  0
    2.0463   -1.4873   -0.7289 H   0  0  0  0  0  0  0  0  0  0  0  0
    3.4879   -0.5967    0.0378 H   0  0  0  0  0  0  0  0  0  0  0  0
  1  2  1  0
  2  3  1  0
  3  4  1  0
  4  5  1  0
  5  6  1  0
  6  7  1  0
  7  8  1  0
  8  9  1  0
  6  2  1  0
  9  7  1  0
  5  3  1  0
  1 10  1  0
  1 11  1  0
  1 12  1  0
  2 13  1  0
  3 14  1  0
  4 15  1  0
  4 16  1  0
  5 17  1  0
  6 18  1  0
  7 19  1  0
  8 20  1  0
  8 21  1  0
  9 22  1  0
  9 23  1  0
M  END
