
     RDKit          3D

 21 22  0  0  0  0  0  0  0  0999 V2000
   -0.3405    2.1362    0.3930 C   0  0  0  0  0  0  0  0  0  0  0  0
   -0.0312    0.8489   -0.3101 C   0  0  0  0  0  0  0  0  0  0  0  0
   -0.6203   -0.3959    0.2724 C   0  0  0  0  0  0  0  0  0  0  0  0
   -1.6637   -1.0657   -0.5704 C   0  0  0  0  0  0  0  0  0  0  0  0
   -2.7354   -0.2160   -0.7991 O   0  0  0  0  0  0  0  0  0  0  0  0
    0.7286   -1.0272    0.2998 C   0  0  0  0  0  0  0  0  0  0  0  0
    1.6856   -0.9360   -0.8190 C   0  0  0  0  0  0  0  0  0  0  0  0
    2.9471   -1.4681   -0.5821 O   0  0  0  0  0  0  0  0  0  0  0  0
    1.3447    0.2778   -0.0441 C   0  0  0  0  0  0  0  0  0  0  0  0
    0.0033    2.9657   -0.2849 H   0  0  0  0  0  0  0  0  0  0  0  0
    0.1773    2.2020    1.3627 H   0  0  0  0  0  0  0  0  0  0  0  0
   -1.4153    2.2849    0.5499 H   0  0  0  0  0  0  0  0  0  0  0  0
   -0.1724    0.9483   -1.4080 H   0  0  0  0  0  0  0  0  0  0  0  0
   -0.9983   -0.1945    1.2992 H   0  0  0  0  0  0  0  0  0  0  0  0
   -1.2234   -1.3041   -1.5623 H   0  0  0  0  0  0  0  0  0  0  0  0
   -2.0118   -1.9870   -0.1106 H   0  0  0  0  0  0  0  0  0  0  0  0
   -3.3648   -0.1893   -0.0250 H   0  0  0  0  0  0  0  0  0  0  0  0
    0.9777   -1.5819    1.2105 H   0  0  0  0  0  0  0  0  0  0  0  0
    1.3240   -0.9482   -1.8689 H   0  0  0  0  0  0  0  0  0  0  0  0
    3.3377   -1.1459    0.2539 H   0  0  0  0  0  0  0  0  0  0  0  0
    2.0511    0.7958    0.6047 H   0  0  0  0  0  0  0  0  0  0  0  0
  1  2  1  0
  2  3  1  0
  3  4  1  0
  4  5  1  0
  3  6  1  0
  6  7  1  0
  7  8  1  0
  7  9  1  0
  9  2  1  0
  9  6  1  0
  1 10  1  0
  1 11  1  0
  1 12  1  0
  2 13  1  0
  3 14  1  0
  4 15  1  0
  4 16  1  0
  5 17  1  0
  6 18  1  0
  7 19  1  0
  8 20  1  0
  9 21  1  0
M  END
