
     RDKit          3D

 19 20  0  0  0  0  0  0  0  0999 V2000
    2.5686    0.1928    0.1651 C   0  0  0  0  0  0  0  0  0  0  0  0
    1.2172   -0.4477    0.1730 C   0  0  0  0  0  0  0  0  0  0  0  0
    0.3828   -0.5605   -1.0250 C   0  0  0  0  0  0  0  0  0  0  0  0
   -0.8179   -1.4275   -0.9384 C   0  0  0  0  0  0  0  0  0  0  0  0
   -1.6673   -0.9864   -0.0209 C   0  0  0  0  0  0  0  0  0  0  0  0
   -1.1702    0.2253    0.6359 C   0  0  0  0  0  0  0  0  0  0  0  0
   -2.1039    1.3578    0.5941 C   0  0  0  0  0  0  0  0  0  0  0  0
   -1.7951    2.4264    0.1136 O   0  0  0  0  0  0  0  0  0  0  0  0
    0.0885    0.5346   -0.1024 C   0  0  0  0  0  0  0  0  0  0  0  0
    2.5065    1.0926    0.8425 H   0  0  0  0  0  0  0  0  0  0  0  0
    2.8289    0.5891   -0.8452 H   0  0  0  0  0  0  0  0  0  0  0  0
    3.3757   -0.4599    0.5210 H   0  0  0  0  0  0  0  0  0  0  0  0
    1.0806   -1.2050    0.9700 H   0  0  0  0  0  0  0  0  0  0  0  0
    0.7818   -0.2939   -2.0225 H   0  0  0  0  0  0  0  0  0  0  0  0
   -0.9822   -2.3276   -1.5612 H   0  0  0  0  0  0  0  0  0  0  0  0
   -2.6211   -1.4487    0.2317 H   0  0  0  0  0  0  0  0  0  0  0  0
   -0.9034   -0.0635    1.6935 H   0  0  0  0  0  0  0  0  0  0  0  0
   -3.0942    1.2462    0.9995 H   0  0  0  0  0  0  0  0  0  0  0  0
    0.3247    1.5556   -0.4246 H   0  0  0  0  0  0  0  0  0  0  0  0
  1  2  1  0
  2  3  1  0
  3  4  1  0
  4  5  2  0
  5  6  1  0
  6  7  1  0
  7  8  2  0
  6  9  1  0
  9  2  1  0
  9  3  1  0
  1 10  1  0
  1 11  1  0
  1 12  1  0
  2 13  1  0
  3 14  1  0
  4 15  1  0
  5 16  1  0
  6 17  1  0
  7 18  1  0
  9 19  1  0
M  END
