
     RDKit          3D

 23 24  0  0  0  0  0  0  0  0999 V2000
    2.5814    0.0876   -0.5965 C   0  0  0  0  0  0  0  0  0  0  0  0
    1.0952   -0.2358   -0.6590 C   0  0  0  0  0  0  0  0  0  0  0  0
    0.6407   -0.9981    0.5489 C   0  0  0  0  0  0  0  0  0  0  0  0
   -0.6200   -0.3527    1.0527 C   0  0  0  0  0  0  0  0  0  0  0  0
   -1.8277   -1.0955    0.5128 C   0  0  0  0  0  0  0  0  0  0  0  0
   -1.9249   -0.0790   -0.6051 C   0  0  0  0  0  0  0  0  0  0  0  0
   -0.9575    0.7758    0.1192 C   0  0  0  0  0  0  0  0  0  0  0  0
   -1.5600    1.8819    0.6870 O   0  0  0  0  0  0  0  0  0  0  0  0
    0.3538    1.0647   -0.5437 C   0  0  0  0  0  0  0  0  0  0  0  0
    2.9400    0.3785   -1.5975 H   0  0  0  0  0  0  0  0  0  0  0  0
    3.1532   -0.7806   -0.1961 H   0  0  0  0  0  0  0  0  0  0  0  0
    2.7199    0.9095    0.1352 H   0  0  0  0  0  0  0  0  0  0  0  0
    0.8422   -0.7699   -1.5992 H   0  0  0  0  0  0  0  0  0  0  0  0
    0.4787   -2.0592    0.2178 H   0  0  0  0  0  0  0  0  0  0  0  0
    1.3920   -1.0490    1.3521 H   0  0  0  0  0  0  0  0  0  0  0  0
   -0.6534   -0.1002    2.1215 H   0  0  0  0  0  0  0  0  0  0  0  0
   -1.6241   -2.0946    0.1007 H   0  0  0  0  0  0  0  0  0  0  0  0
   -2.6704   -1.0989    1.2283 H   0  0  0  0  0  0  0  0  0  0  0  0
   -1.6648   -0.4334   -1.6065 H   0  0  0  0  0  0  0  0  0  0  0  0
   -2.9872    0.3028   -0.6262 H   0  0  0  0  0  0  0  0  0  0  0  0
   -0.9390    2.4081    1.2503 H   0  0  0  0  0  0  0  0  0  0  0  0
    0.2880    1.6353   -1.4708 H   0  0  0  0  0  0  0  0  0  0  0  0
    0.9440    1.7026    0.1741 H   0  0  0  0  0  0  0  0  0  0  0  0
  1  2  1  0
  2  3  1  0
  3  4  1  0
  4  5  1  0
  5  6  1  0
  6  7  1  0
  7  8  1  0
  7  9  1  0
  9  2  1  0
  7  4  1  0
  1 10  1  0
  1 11  1  0
  1 12  1  0
  2 13  1  0
  3 14  1  0
  3 15  1  0
  4 16  1  0
  5 17  1  0
  5 18  1  0
  6 19  1  0
  6 20  1  0
  8 21  1  0
  9 22  1  0
  9 23  1  0
M  END
