
     RDKit          3D

 21 23  0  0  0  0  0  0  0  0999 V2000
   -1.9567   -0.7712   -0.5825 C   0  0  0  0  0  0  0  0  0  0  0  0
   -1.0623    0.2774   -0.1631 C   0  0  0  0  0  0  0  0  0  0  0  0
    0.2342    0.5586   -0.8394 C   0  0  0  0  0  0  0  0  0  0  0  0
    0.9569   -0.3411    0.1448 C   0  0  0  0  0  0  0  0  0  0  0  0
    1.2483   -1.7054   -0.2341 C   0  0  0  0  0  0  0  0  0  0  0  0
   -0.1529    0.0657    1.0240 C   0  0  0  0  0  0  0  0  0  0  0  0
    0.2348    1.5332    1.2726 C   0  0  0  0  0  0  0  0  0  0  0  0
   -0.3524    2.5435    0.5789 O   0  0  0  0  0  0  0  0  0  0  0  0
    0.5879    1.9029   -0.1877 C   0  0  0  0  0  0  0  0  0  0  0  0
   -3.0033   -0.5338   -0.2602 H   0  0  0  0  0  0  0  0  0  0  0  0
   -2.0133   -0.8166   -1.6992 H   0  0  0  0  0  0  0  0  0  0  0  0
   -1.7981   -1.7987   -0.2437 H   0  0  0  0  0  0  0  0  0  0  0  0
   -1.6373    1.2462   -0.0720 H   0  0  0  0  0  0  0  0  0  0  0  0
    0.3772    0.4407   -1.8702 H   0  0  0  0  0  0  0  0  0  0  0  0
    1.9240    0.1263    0.5194 H   0  0  0  0  0  0  0  0  0  0  0  0
    1.8795   -2.1699    0.5825 H   0  0  0  0  0  0  0  0  0  0  0  0
    0.4924   -2.4131   -0.4805 H   0  0  0  0  0  0  0  0  0  0  0  0
    1.9642   -1.6782   -1.1118 H   0  0  0  0  0  0  0  0  0  0  0  0
   -0.4817   -0.5041    1.8482 H   0  0  0  0  0  0  0  0  0  0  0  0
    0.9507    1.7596    2.0567 H   0  0  0  0  0  0  0  0  0  0  0  0
    1.6078    2.2778   -0.2828 H   0  0  0  0  0  0  0  0  0  0  0  0
  1  2  1  0
  2  3  1  0
  3  4  1  0
  4  5  1  0
  4  6  1  0
  6  7  1  0
  7  8  1  0
  8  9  1  0
  6  2  1  0
  9  7  1  0
  9  3  1  0
  1 10  1  0
  1 11  1  0
  1 12  1  0
  2 13  1  0
  3 14  1  0
  4 15  1  0
  5 16  1  0
  5 17  1  0
  5 18  1  0
  6 19  1  0
  7 20  1  0
  9 21  1  0
M  END
