
     RDKit          3D

 21 22  0  0  0  0  0  0  0  0999 V2000
    1.4914    1.3631   -0.0753 C   0  0  0  0  0  0  0  0  0  0  0  0
    1.2275   -0.0483    0.3153 C   0  0  0  0  0  0  0  0  0  0  0  0
    1.4381   -1.0118   -0.8103 C   0  0  0  0  0  0  0  0  0  0  0  0
    0.6161   -1.9922   -0.0261 C   0  0  0  0  0  0  0  0  0  0  0  0
   -0.0746   -0.6516    0.0044 C   0  0  0  0  0  0  0  0  0  0  0  0
   -1.3065   -0.3985    0.5832 C   0  0  0  0  0  0  0  0  0  0  0  0
   -1.7288    1.0452    0.4287 C   0  0  0  0  0  0  0  0  0  0  0  0
   -1.8277    1.4003   -0.9077 O   0  0  0  0  0  0  0  0  0  0  0  0
    0.2412   -0.5476   -1.3357 O   0  0  0  0  0  0  0  0  0  0  0  0
    2.6003    1.4561   -0.2722 H   0  0  0  0  0  0  0  0  0  0  0  0
    0.9075    1.6731   -0.9612 H   0  0  0  0  0  0  0  0  0  0  0  0
    1.2726    2.0864    0.7320 H   0  0  0  0  0  0  0  0  0  0  0  0
    1.6301   -0.3241    1.2936 H   0  0  0  0  0  0  0  0  0  0  0  0
    2.2926   -1.1966   -1.3090 H   0  0  0  0  0  0  0  0  0  0  0  0
    0.1085   -2.7773   -0.5979 H   0  0  0  0  0  0  0  0  0  0  0  0
    1.0841   -2.2769    0.9231 H   0  0  0  0  0  0  0  0  0  0  0  0
   -1.3508   -0.6621    1.6533 H   0  0  0  0  0  0  0  0  0  0  0  0
   -2.1285   -1.0009    0.1036 H   0  0  0  0  0  0  0  0  0  0  0  0
   -1.0934    1.7542    0.9556 H   0  0  0  0  0  0  0  0  0  0  0  0
   -2.7555    1.1411    0.8597 H   0  0  0  0  0  0  0  0  0  0  0  0
   -2.6443    0.9686   -1.3049 H   0  0  0  0  0  0  0  0  0  0  0  0
  1  2  1  0
  2  3  1  0
  3  4  1  0
  4  5  1  0
  5  6  1  0
  6  7  1  0
  7  8  1  0
  5  9  1  0
  5  2  1  0
  9  3  1  0
  1 10  1  0
  1 11  1  0
  1 12  1  0
  2 13  1  0
  3 14  1  0
  4 15  1  0
  4 16  1  0
  6 17  1  0
  6 18  1  0
  7 19  1  0
  7 20  1  0
  8 21  1  0
M  END
