
     RDKit          3D

 21 23  0  0  0  0  0  0  0  0999 V2000
    2.3100    0.6192   -0.6877 C   0  0  0  0  0  0  0  0  0  0  0  0
    1.6524   -0.6481   -0.1738 C   0  0  0  0  0  0  0  0  0  0  0  0
    0.7984   -0.6362    1.0272 C   0  0  0  0  0  0  0  0  0  0  0  0
   -0.1871    0.5164    1.1182 C   0  0  0  0  0  0  0  0  0  0  0  0
   -0.8750   -0.0271   -0.0739 C   0  0  0  0  0  0  0  0  0  0  0  0
   -1.3997    0.8924   -1.0950 C   0  0  0  0  0  0  0  0  0  0  0  0
   -2.6580    0.2651   -0.9753 O   0  0  0  0  0  0  0  0  0  0  0  0
   -2.2353   -0.5800    0.0686 C   0  0  0  0  0  0  0  0  0  0  0  0
    0.2385   -0.9378   -0.4028 C   0  0  0  0  0  0  0  0  0  0  0  0
    2.2655    0.5750   -1.7868 H   0  0  0  0  0  0  0  0  0  0  0  0
    1.8236    1.5347   -0.3303 H   0  0  0  0  0  0  0  0  0  0  0  0
    3.3666    0.6209   -0.3390 H   0  0  0  0  0  0  0  0  0  0  0  0
    2.3481   -1.5295   -0.2429 H   0  0  0  0  0  0  0  0  0  0  0  0
    0.7710   -1.4485    1.7497 H   0  0  0  0  0  0  0  0  0  0  0  0
    0.2701    1.5133    1.0504 H   0  0  0  0  0  0  0  0  0  0  0  0
   -0.7845    0.3849    2.0581 H   0  0  0  0  0  0  0  0  0  0  0  0
   -0.9687    0.8391   -2.1225 H   0  0  0  0  0  0  0  0  0  0  0  0
   -1.5231    1.9441   -0.7300 H   0  0  0  0  0  0  0  0  0  0  0  0
   -2.3985   -1.6397   -0.1941 H   0  0  0  0  0  0  0  0  0  0  0  0
   -2.7454   -0.2524    1.0127 H   0  0  0  0  0  0  0  0  0  0  0  0
   -0.0687   -2.0059   -0.5714 H   0  0  0  0  0  0  0  0  0  0  0  0
  1  2  1  0
  2  3  1  0
  3  4  1  0
  4  5  1  0
  5  6  1  0
  6  7  1  0
  7  8  1  0
  5  9  1  0
  9  2  1  0
  9  3  1  0
  8  5  1  0
  1 10  1  0
  1 11  1  0
  1 12  1  0
  2 13  1  0
  3 14  1  0
  4 15  1  0
  4 16  1  0
  6 17  1  0
  6 18  1  0
  8 19  1  0
  8 20  1  0
  9 21  1  0
M  END
