
     RDKit          3D

 21 22  0  0  0  0  0  0  0  0999 V2000
   -1.9204    0.4546   -0.8594 C   0  0  0  0  0  0  0  0  0  0  0  0
   -1.0435    0.2180    0.3686 C   0  0  0  0  0  0  0  0  0  0  0  0
   -0.7995   -1.2749    0.5188 C   0  0  0  0  0  0  0  0  0  0  0  0
   -0.8712   -1.6643    1.8671 O   0  0  0  0  0  0  0  0  0  0  0  0
    0.6043   -1.0343    0.0180 C   0  0  0  0  0  0  0  0  0  0  0  0
    1.4589   -0.2393    0.9391 C   0  0  0  0  0  0  0  0  0  0  0  0
    2.7643   -0.0935    0.5183 O   0  0  0  0  0  0  0  0  0  0  0  0
    0.4142    0.4583    0.1589 C   0  0  0  0  0  0  0  0  0  0  0  0
    0.8846    1.3761   -0.9343 C   0  0  0  0  0  0  0  0  0  0  0  0
   -1.9546   -0.4464   -1.5102 H   0  0  0  0  0  0  0  0  0  0  0  0
   -1.5223    1.2726   -1.4962 H   0  0  0  0  0  0  0  0  0  0  0  0
   -2.9466    0.7809   -0.5618 H   0  0  0  0  0  0  0  0  0  0  0  0
   -1.4650    0.6736    1.2823 H   0  0  0  0  0  0  0  0  0  0  0  0
   -1.4262   -1.9242   -0.0965 H   0  0  0  0  0  0  0  0  0  0  0  0
   -0.5738   -0.9202    2.4547 H   0  0  0  0  0  0  0  0  0  0  0  0
    0.9503   -1.4389   -0.9261 H   0  0  0  0  0  0  0  0  0  0  0  0
    1.3436   -0.3285    2.0321 H   0  0  0  0  0  0  0  0  0  0  0  0
    3.0193   -0.7629   -0.1642 H   0  0  0  0  0  0  0  0  0  0  0  0
    0.3426    2.3347   -0.9137 H   0  0  0  0  0  0  0  0  0  0  0  0
    0.7802    0.9270   -1.9481 H   0  0  0  0  0  0  0  0  0  0  0  0
    1.9608    1.6315   -0.7473 H   0  0  0  0  0  0  0  0  0  0  0  0
  1  2  1  0
  2  3  1  0
  3  4  1  0
  3  5  1  0
  5  6  1  0
  6  7  1  0
  6  8  1  0
  8  9  1  0
  8  2  1  0
  8  5  1  0
  1 10  1  0
  1 11  1  0
  1 12  1  0
  2 13  1  0
  3 14  1  0
  4 15  1  0
  5 16  1  0
  6 17  1  0
  7 18  1  0
  9 19  1  0
  9 20  1  0
  9 21  1  0
M  END
