
     RDKit          3D

 18 18  0  0  0  0  0  0  0  0999 V2000
    2.1776    0.4107    0.0039 C   0  0  0  0  0  0  0  0  0  0  0  0
    0.7991    0.0701    0.5128 C   0  0  0  0  0  0  0  0  0  0  0  0
    0.5020   -1.3684    0.3187 C   0  0  0  0  0  0  0  0  0  0  0  0
   -0.7916   -1.5253    0.0938 C   0  0  0  0  0  0  0  0  0  0  0  0
   -1.4724   -0.1758    0.1202 C   0  0  0  0  0  0  0  0  0  0  0  0
   -1.8932    0.0837    1.4137 O   0  0  0  0  0  0  0  0  0  0  0  0
   -0.2934    0.7262   -0.2783 C   0  0  0  0  0  0  0  0  0  0  0  0
   -0.4777    2.0187    0.1973 O   0  0  0  0  0  0  0  0  0  0  0  0
    2.1462    0.3929   -1.1043 H   0  0  0  0  0  0  0  0  0  0  0  0
    2.4785    1.3976    0.3631 H   0  0  0  0  0  0  0  0  0  0  0  0
    2.8688   -0.3649    0.3787 H   0  0  0  0  0  0  0  0  0  0  0  0
    0.6693    0.3847    1.5743 H   0  0  0  0  0  0  0  0  0  0  0  0
    1.2356   -2.1886    0.3540 H   0  0  0  0  0  0  0  0  0  0  0  0
   -1.2649   -2.4918   -0.0804 H   0  0  0  0  0  0  0  0  0  0  0  0
   -2.2617   -0.1810   -0.6276 H   0  0  0  0  0  0  0  0  0  0  0  0
   -2.8922    0.1187    1.4538 H   0  0  0  0  0  0  0  0  0  0  0  0
   -0.1928    0.6475   -1.3554 H   0  0  0  0  0  0  0  0  0  0  0  0
   -1.3370    2.0450    0.6681 H   0  0  0  0  0  0  0  0  0  0  0  0
  1  2  1  0
  2  3  1  0
  3  4  2  0
  4  5  1  0
  5  6  1  0
  5  7  1  0
  7  8  1  0
  7  2  1  0
  1  9  1  0
  1 10  1  0
  1 11  1  0
  2 12  1  0
  3 13  1  0
  4 14  1  0
  5 15  1  0
  6 16  1  0
  7 17  1  0
  8 18  1  0
M  END
