
     RDKit          3D

 17 18  0  0  0  0  0  0  0  0999 V2000
   -2.2697    0.3676    0.2651 C   0  0  0  0  0  0  0  0  0  0  0  0
   -1.1159   -0.0703   -0.6146 C   0  0  0  0  0  0  0  0  0  0  0  0
   -0.1484   -1.0012   -0.0216 C   0  0  0  0  0  0  0  0  0  0  0  0
    0.8226   -1.4851   -0.9119 O   0  0  0  0  0  0  0  0  0  0  0  0
    1.4842   -0.2716   -0.7256 C   0  0  0  0  0  0  0  0  0  0  0  0
    2.5031   -0.4405    0.3487 C   0  0  0  0  0  0  0  0  0  0  0  0
    3.1623    0.5713    0.6107 O   0  0  0  0  0  0  0  0  0  0  0  0
    0.2262    0.4176   -0.2708 C   0  0  0  0  0  0  0  0  0  0  0  0
    0.3001    1.3349    0.7671 O   0  0  0  0  0  0  0  0  0  0  0  0
   -1.9088    0.3265    1.3069 H   0  0  0  0  0  0  0  0  0  0  0  0
   -2.4850    1.4245    0.0379 H   0  0  0  0  0  0  0  0  0  0  0  0
   -3.1511   -0.2887    0.1539 H   0  0  0  0  0  0  0  0  0  0  0  0
   -1.3957   -0.2884   -1.6829 H   0  0  0  0  0  0  0  0  0  0  0  0
   -0.2422   -1.4314    0.9694 H   0  0  0  0  0  0  0  0  0  0  0  0
    1.9159    0.1337   -1.6810 H   0  0  0  0  0  0  0  0  0  0  0  0
    2.6673   -1.3706    0.8707 H   0  0  0  0  0  0  0  0  0  0  0  0
   -0.3648    2.0716    0.5781 H   0  0  0  0  0  0  0  0  0  0  0  0
  1  2  1  0
  2  3  1  0
  3  4  1  0
  4  5  1  0
  5  6  1  0
  6  7  2  0
  5  8  1  0
  8  9  1  0
  8  2  1  0
  8  3  1  0
  1 10  1  0
  1 11  1  0
  1 12  1  0
  2 13  1  0
  3 14  1  0
  5 15  1  0
  6 16  1  0
  9 17  1  0
M  END
