
     RDKit          3D

 18 18  0  0  0  0  0  0  0  0999 V2000
   -2.0809   -0.1054    1.0182 C   0  0  0  0  0  0  0  0  0  0  0  0
   -1.3328    0.6928   -0.0044 C   0  0  0  0  0  0  0  0  0  0  0  0
   -1.1970    0.0025   -1.3472 C   0  0  0  0  0  0  0  0  0  0  0  0
   -0.0014    0.3027   -0.5015 C   0  0  0  0  0  0  0  0  0  0  0  0
    0.6905   -0.7813   -0.0354 O   0  0  0  0  0  0  0  0  0  0  0  0
    2.0681   -0.5814   -0.1004 C   0  0  0  0  0  0  0  0  0  0  0  0
    2.4774    0.5916    0.7136 C   0  0  0  0  0  0  0  0  0  0  0  0
    3.6371    0.8995    0.7632 O   0  0  0  0  0  0  0  0  0  0  0  0
   -3.1361   -0.2398    0.6471 H   0  0  0  0  0  0  0  0  0  0  0  0
   -1.6790   -1.1073    1.1875 H   0  0  0  0  0  0  0  0  0  0  0  0
   -2.2019    0.4816    1.9730 H   0  0  0  0  0  0  0  0  0  0  0  0
   -1.6307    1.7599   -0.0474 H   0  0  0  0  0  0  0  0  0  0  0  0
   -1.5123   -1.0524   -1.4341 H   0  0  0  0  0  0  0  0  0  0  0  0
   -1.3875    0.6189   -2.2711 H   0  0  0  0  0  0  0  0  0  0  0  0
    0.6417    1.1492   -0.8490 H   0  0  0  0  0  0  0  0  0  0  0  0
    2.6469   -1.4430    0.2222 H   0  0  0  0  0  0  0  0  0  0  0  0
    2.2897   -0.3294   -1.1775 H   0  0  0  0  0  0  0  0  0  0  0  0
    1.7083    1.1390    1.2431 H   0  0  0  0  0  0  0  0  0  0  0  0
  1  2  1  0
  2  3  1  0
  3  4  1  0
  4  5  1  0
  5  6  1  0
  6  7  1  0
  7  8  2  0
  4  2  1  0
  1  9  1  0
  1 10  1  0
  1 11  1  0
  2 12  1  0
  3 13  1  0
  3 14  1  0
  4 15  1  0
  6 16  1  0
  6 17  1  0
  7 18  1  0
M  END
