
     RDKit          3D

 20 21  0  0  0  0  0  0  0  0999 V2000
    2.1023   -0.4676   -0.3918 C   0  0  0  0  0  0  0  0  0  0  0  0
    1.1390    0.2228    0.5156 C   0  0  0  0  0  0  0  0  0  0  0  0
   -0.1255   -0.3618    0.9748 C   0  0  0  0  0  0  0  0  0  0  0  0
   -0.8979   -1.3654    0.1995 C   0  0  0  0  0  0  0  0  0  0  0  0
   -2.2241   -1.5116    0.6264 O   0  0  0  0  0  0  0  0  0  0  0  0
   -0.8518   -0.4269   -0.9964 C   0  0  0  0  0  0  0  0  0  0  0  0
   -0.1624    0.5752   -0.1530 C   0  0  0  0  0  0  0  0  0  0  0  0
   -0.5690    1.9926   -0.0671 C   0  0  0  0  0  0  0  0  0  0  0  0
    2.6908   -1.2715    0.1015 H   0  0  0  0  0  0  0  0  0  0  0  0
    1.6575   -0.8102   -1.3506 H   0  0  0  0  0  0  0  0  0  0  0  0
    2.8739    0.3002   -0.6969 H   0  0  0  0  0  0  0  0  0  0  0  0
    1.5894    0.9807    1.1761 H   0  0  0  0  0  0  0  0  0  0  0  0
   -0.5399   -0.0740    1.9425 H   0  0  0  0  0  0  0  0  0  0  0  0
   -0.4009   -2.3276   -0.0246 H   0  0  0  0  0  0  0  0  0  0  0  0
   -2.2487   -1.7182    1.5887 H   0  0  0  0  0  0  0  0  0  0  0  0
   -1.8449   -0.0573   -1.3285 H   0  0  0  0  0  0  0  0  0  0  0  0
   -0.3197   -0.8571   -1.8506 H   0  0  0  0  0  0  0  0  0  0  0  0
    0.2982    2.6162   -0.4334 H   0  0  0  0  0  0  0  0  0  0  0  0
   -1.3926    2.2119   -0.7857 H   0  0  0  0  0  0  0  0  0  0  0  0
   -0.7737    2.3493    0.9537 H   0  0  0  0  0  0  0  0  0  0  0  0
  1  2  1  0
  2  3  1  0
  3  4  1  0
  4  5  1  0
  4  6  1  0
  6  7  1  0
  7  8  1  0
  7  2  1  0
  7  3  1  0
  1  9  1  0
  1 10  1  0
  1 11  1  0
  2 12  1  0
  3 13  1  0
  4 14  1  0
  5 15  1  0
  6 16  1  0
  6 17  1  0
  8 18  1  0
  8 19  1  0
  8 20  1  0
M  END
