
     RDKit          3D

 19 21  0  0  0  0  0  0  0  0999 V2000
   -2.7662   -0.2567   -0.4815 C   0  0  0  0  0  0  0  0  0  0  0  0
   -1.3421   -0.5008    0.0109 C   0  0  0  0  0  0  0  0  0  0  0  0
   -0.2510   -0.3984   -0.9897 C   0  0  0  0  0  0  0  0  0  0  0  0
    0.9053   -1.0707   -0.7181 O   0  0  0  0  0  0  0  0  0  0  0  0
    1.4716   -0.5802    0.4263 C   0  0  0  0  0  0  0  0  0  0  0  0
    2.6992    0.2600    0.1647 C   0  0  0  0  0  0  0  0  0  0  0  0
    1.8699    1.3689    0.0534 O   0  0  0  0  0  0  0  0  0  0  0  0
    0.8311    0.7322    0.7583 C   0  0  0  0  0  0  0  0  0  0  0  0
   -0.4662    0.6721    0.0059 C   0  0  0  0  0  0  0  0  0  0  0  0
   -3.4669   -1.0311   -0.1118 H   0  0  0  0  0  0  0  0  0  0  0  0
   -3.0361    0.7623   -0.0907 H   0  0  0  0  0  0  0  0  0  0  0  0
   -2.7994   -0.2222   -1.6008 H   0  0  0  0  0  0  0  0  0  0  0  0
   -1.2648   -1.3264    0.7426 H   0  0  0  0  0  0  0  0  0  0  0  0
   -0.4768   -0.1231   -2.0497 H   0  0  0  0  0  0  0  0  0  0  0  0
    1.6343   -1.2756    1.2588 H   0  0  0  0  0  0  0  0  0  0  0  0
    3.3886    0.3925    1.0061 H   0  0  0  0  0  0  0  0  0  0  0  0
    3.1636   -0.0813   -0.7968 H   0  0  0  0  0  0  0  0  0  0  0  0
    0.7874    1.0155    1.8130 H   0  0  0  0  0  0  0  0  0  0  0  0
   -0.8817    1.6631   -0.2839 H   0  0  0  0  0  0  0  0  0  0  0  0
  1  2  1  0
  2  3  1  0
  3  4  1  0
  4  5  1  0
  5  6  1  0
  6  7  1  0
  7  8  1  0
  8  9  1  0
  9  2  1  0
  9  3  1  0
  8  5  1  0
  1 10  1  0
  1 11  1  0
  1 12  1  0
  2 13  1  0
  3 14  1  0
  5 15  1  0
  6 16  1  0
  6 17  1  0
  8 18  1  0
  9 19  1  0
M  END
