
     RDKit          3D

 21 22  0  0  0  0  0  0  0  0999 V2000
   -2.1551   -1.1152   -0.7152 C   0  0  0  0  0  0  0  0  0  0  0  0
   -0.8136   -0.3703   -0.6286 C   0  0  0  0  0  0  0  0  0  0  0  0
   -0.9717    0.6532    0.4448 C   0  0  0  0  0  0  0  0  0  0  0  0
   -0.0010    1.7975    0.3559 C   0  0  0  0  0  0  0  0  0  0  0  0
    1.3031    1.4070    0.7302 O   0  0  0  0  0  0  0  0  0  0  0  0
    1.6560    0.3881   -0.1192 C   0  0  0  0  0  0  0  0  0  0  0  0
    2.5131   -0.7427    0.2315 C   0  0  0  0  0  0  0  0  0  0  0  0
    1.0900   -0.8838    0.5347 C   0  0  0  0  0  0  0  0  0  0  0  0
    0.1384   -1.3446   -0.3406 O   0  0  0  0  0  0  0  0  0  0  0  0
   -2.2361   -1.7616    0.1888 H   0  0  0  0  0  0  0  0  0  0  0  0
   -2.1049   -1.7097   -1.6462 H   0  0  0  0  0  0  0  0  0  0  0  0
   -3.0021   -0.4144   -0.6841 H   0  0  0  0  0  0  0  0  0  0  0  0
   -0.5853    0.1355   -1.5733 H   0  0  0  0  0  0  0  0  0  0  0  0
   -0.9167    0.2388    1.4727 H   0  0  0  0  0  0  0  0  0  0  0  0
   -1.9912    1.0846    0.3512 H   0  0  0  0  0  0  0  0  0  0  0  0
   -0.3084    2.5396    1.1334 H   0  0  0  0  0  0  0  0  0  0  0  0
   -0.0230    2.3094   -0.6025 H   0  0  0  0  0  0  0  0  0  0  0  0
    1.4564    0.5823   -1.1774 H   0  0  0  0  0  0  0  0  0  0  0  0
    3.2072   -0.6095    1.0714 H   0  0  0  0  0  0  0  0  0  0  0  0
    2.9513   -1.3160   -0.6062 H   0  0  0  0  0  0  0  0  0  0  0  0
    0.7933   -0.8682    1.5789 H   0  0  0  0  0  0  0  0  0  0  0  0
  1  2  1  0
  2  3  1  0
  3  4  1  0
  4  5  1  0
  5  6  1  0
  6  7  1  0
  7  8  1  0
  8  9  1  0
  9  2  1  0
  8  6  1  0
  1 10  1  0
  1 11  1  0
  1 12  1  0
  2 13  1  0
  3 14  1  0
  3 15  1  0
  4 16  1  0
  4 17  1  0
  6 18  1  0
  7 19  1  0
  7 20  1  0
  8 21  1  0
M  END
