
     RDKit          3D

 23 25  0  0  0  0  0  0  0  0999 V2000
    2.3675   -0.6497   -0.8554 C   0  0  0  0  0  0  0  0  0  0  0  0
    1.4457    0.3913   -0.2641 C   0  0  0  0  0  0  0  0  0  0  0  0
    1.1821    0.0868    1.2236 C   0  0  0  0  0  0  0  0  0  0  0  0
   -0.3130    0.0666    1.2000 C   0  0  0  0  0  0  0  0  0  0  0  0
   -0.7284    1.1370    0.2106 C   0  0  0  0  0  0  0  0  0  0  0  0
   -2.1417    0.8357   -0.1504 C   0  0  0  0  0  0  0  0  0  0  0  0
   -2.0674   -0.7048   -0.1456 C   0  0  0  0  0  0  0  0  0  0  0  0
   -0.5923   -0.8709    0.0145 C   0  0  0  0  0  0  0  0  0  0  0  0
    0.0435    0.2479   -0.7751 C   0  0  0  0  0  0  0  0  0  0  0  0
    3.3768   -0.5409   -0.4628 H   0  0  0  0  0  0  0  0  0  0  0  0
    2.4066   -0.4521   -1.9471 H   0  0  0  0  0  0  0  0  0  0  0  0
    1.9442   -1.6696   -0.7451 H   0  0  0  0  0  0  0  0  0  0  0  0
    1.8622    1.3846   -0.4108 H   0  0  0  0  0  0  0  0  0  0  0  0
    1.6087   -0.8977    1.4713 H   0  0  0  0  0  0  0  0  0  0  0  0
    1.5201    0.9053    1.8630 H   0  0  0  0  0  0  0  0  0  0  0  0
   -0.8772   -0.0754    2.0818 H   0  0  0  0  0  0  0  0  0  0  0  0
   -0.3868    2.1303    0.3467 H   0  0  0  0  0  0  0  0  0  0  0  0
   -2.3967    1.1097   -1.2081 H   0  0  0  0  0  0  0  0  0  0  0  0
   -2.8589    1.2027    0.5793 H   0  0  0  0  0  0  0  0  0  0  0  0
   -2.4874   -1.1374   -1.0483 H   0  0  0  0  0  0  0  0  0  0  0  0
   -2.5926   -1.0257    0.7971 H   0  0  0  0  0  0  0  0  0  0  0  0
   -0.1413   -1.8284    0.0307 H   0  0  0  0  0  0  0  0  0  0  0  0
   -0.1736    0.3551   -1.8057 H   0  0  0  0  0  0  0  0  0  0  0  0
  1  2  1  0
  2  3  1  0
  3  4  1  0
  4  5  1  0
  5  6  1  0
  6  7  1  0
  7  8  1  0
  8  9  1  0
  9  2  1  0
  8  4  1  0
  9  5  1  0
  1 10  1  0
  1 11  1  0
  1 12  1  0
  2 13  1  0
  3 14  1  0
  3 15  1  0
  4 16  1  0
  5 17  1  0
  6 18  1  0
  6 19  1  0
  7 20  1  0
  7 21  1  0
  8 22  1  0
  9 23  1  0
M  END
