
     RDKit          3D

 21 22  0  0  0  0  0  0  0  0999 V2000
   -1.9186    1.2412   -0.4327 C   0  0  0  0  0  0  0  0  0  0  0  0
   -1.0164    0.0080   -0.4845 C   0  0  0  0  0  0  0  0  0  0  0  0
   -1.4222   -0.9206    0.6375 C   0  0  0  0  0  0  0  0  0  0  0  0
   -0.0894   -1.5028    1.0503 C   0  0  0  0  0  0  0  0  0  0  0  0
    0.8766   -0.7222    0.6442 C   0  0  0  0  0  0  0  0  0  0  0  0
    2.3211   -0.5134    0.5989 C   0  0  0  0  0  0  0  0  0  0  0  0
    2.5492   -0.0163   -0.6699 O   0  0  0  0  0  0  0  0  0  0  0  0
    1.3658    0.5347   -1.1606 C   0  0  0  0  0  0  0  0  0  0  0  0
    0.3437    0.4608   -0.0773 C   0  0  0  0  0  0  0  0  0  0  0  0
   -1.7789    1.8756   -1.3318 H   0  0  0  0  0  0  0  0  0  0  0  0
   -2.9818    0.9491   -0.2803 H   0  0  0  0  0  0  0  0  0  0  0  0
   -1.6281    1.8727    0.4381 H   0  0  0  0  0  0  0  0  0  0  0  0
   -1.1026   -0.4190   -1.4761 H   0  0  0  0  0  0  0  0  0  0  0  0
   -2.1041   -1.7098    0.2615 H   0  0  0  0  0  0  0  0  0  0  0  0
   -1.8651   -0.3530    1.4772 H   0  0  0  0  0  0  0  0  0  0  0  0
   -0.0587   -2.4414    1.6024 H   0  0  0  0  0  0  0  0  0  0  0  0
    2.5762    0.2551    1.3778 H   0  0  0  0  0  0  0  0  0  0  0  0
    2.9032   -1.4339    0.8118 H   0  0  0  0  0  0  0  0  0  0  0  0
    1.0700   -0.1142   -2.0240 H   0  0  0  0  0  0  0  0  0  0  0  0
    1.6055    1.5666   -1.4897 H   0  0  0  0  0  0  0  0  0  0  0  0
    0.3546    1.3826    0.5271 H   0  0  0  0  0  0  0  0  0  0  0  0
  1  2  1  0
  2  3  1  0
  3  4  1  0
  4  5  2  0
  5  6  1  0
  6  7  1  0
  7  8  1  0
  8  9  1  0
  9  2  1  0
  9  5  1  0
  1 10  1  0
  1 11  1  0
  1 12  1  0
  2 13  1  0
  3 14  1  0
  3 15  1  0
  4 16  1  0
  6 17  1  0
  6 18  1  0
  8 19  1  0
  8 20  1  0
  9 21  1  0
M  END
