
     RDKit          3D

 23 23  0  0  0  0  0  0  0  0999 V2000
   -2.5107   -0.0198    0.2544 C   0  0  0  0  0  0  0  0  0  0  0  0
   -0.9823   -0.0139    0.0745 C   0  0  0  0  0  0  0  0  0  0  0  0
   -0.6141   -1.4449   -0.2292 C   0  0  0  0  0  0  0  0  0  0  0  0
    0.7060   -1.7194   -0.2174 O   0  0  0  0  0  0  0  0  0  0  0  0
    1.4892   -1.0334    0.6641 C   0  0  0  0  0  0  0  0  0  0  0  0
    2.0901    0.1423   -0.0639 C   0  0  0  0  0  0  0  0  0  0  0  0
    1.3797    1.4352    0.1917 C   0  0  0  0  0  0  0  0  0  0  0  0
    0.4373    1.7796   -0.7145 O   0  0  0  0  0  0  0  0  0  0  0  0
   -0.5718    0.9395   -0.9970 C   0  0  0  0  0  0  0  0  0  0  0  0
   -2.7348   -0.3346    1.3125 H   0  0  0  0  0  0  0  0  0  0  0  0
   -2.9912   -0.6970   -0.4577 H   0  0  0  0  0  0  0  0  0  0  0  0
   -2.8344    1.0348    0.1747 H   0  0  0  0  0  0  0  0  0  0  0  0
   -0.5936    0.3493    1.0335 H   0  0  0  0  0  0  0  0  0  0  0  0
   -1.0047   -1.6459   -1.2705 H   0  0  0  0  0  0  0  0  0  0  0  0
   -1.1934   -2.1051    0.4366 H   0  0  0  0  0  0  0  0  0  0  0  0
    1.0115   -0.7655    1.6182 H   0  0  0  0  0  0  0  0  0  0  0  0
    2.3162   -1.7479    0.9628 H   0  0  0  0  0  0  0  0  0  0  0  0
    3.1675    0.1998    0.2122 H   0  0  0  0  0  0  0  0  0  0  0  0
    2.0764   -0.0369   -1.1640 H   0  0  0  0  0  0  0  0  0  0  0  0
    2.1876    2.2278    0.1144 H   0  0  0  0  0  0  0  0  0  0  0  0
    1.0534    1.5342    1.2685 H   0  0  0  0  0  0  0  0  0  0  0  0
   -1.4785    1.5669   -1.2532 H   0  0  0  0  0  0  0  0  0  0  0  0
   -0.4054    0.3547   -1.9508 H   0  0  0  0  0  0  0  0  0  0  0  0
  1  2  1  0
  2  3  1  0
  3  4  1  0
  4  5  1  0
  5  6  1  0
  6  7  1  0
  7  8  1  0
  8  9  1  0
  9  2  1  0
  1 10  1  0
  1 11  1  0
  1 12  1  0
  2 13  1  0
  3 14  1  0
  3 15  1  0
  5 16  1  0
  5 17  1  0
  6 18  1  0
  6 19  1  0
  7 20  1  0
  7 21  1  0
  9 22  1  0
  9 23  1  0
M  END
