
     RDKit          3D

 25 25  0  0  0  0  0  0  0  0999 V2000
    2.4979    0.5502    0.5169 C   0  0  0  0  0  0  0  0  0  0  0  0
    1.3612    0.1844   -0.4488 C   0  0  0  0  0  0  0  0  0  0  0  0
    1.1163   -1.2697   -0.2865 C   0  0  0  0  0  0  0  0  0  0  0  0
   -0.2805   -1.7181   -0.4323 C   0  0  0  0  0  0  0  0  0  0  0  0
   -1.3187   -0.7703    0.0820 C   0  0  0  0  0  0  0  0  0  0  0  0
   -1.2903   -0.6677    1.4629 O   0  0  0  0  0  0  0  0  0  0  0  0
   -1.1224    0.5737   -0.5531 C   0  0  0  0  0  0  0  0  0  0  0  0
   -2.1594    1.5138    0.0580 C   0  0  0  0  0  0  0  0  0  0  0  0
    0.2304    1.0882   -0.1955 C   0  0  0  0  0  0  0  0  0  0  0  0
    2.4529    1.6024    0.8207 H   0  0  0  0  0  0  0  0  0  0  0  0
    2.4246   -0.1255    1.4106 H   0  0  0  0  0  0  0  0  0  0  0  0
    3.4835    0.3028    0.0559 H   0  0  0  0  0  0  0  0  0  0  0  0
    1.7846    0.4163   -1.4697 H   0  0  0  0  0  0  0  0  0  0  0  0
    1.7343   -1.8026   -1.0700 H   0  0  0  0  0  0  0  0  0  0  0  0
    1.5202   -1.6564    0.6935 H   0  0  0  0  0  0  0  0  0  0  0  0
   -0.4121   -2.6798    0.1441 H   0  0  0  0  0  0  0  0  0  0  0  0
   -0.5154   -1.9999   -1.4889 H   0  0  0  0  0  0  0  0  0  0  0  0
   -2.3149   -1.1614   -0.2757 H   0  0  0  0  0  0  0  0  0  0  0  0
   -1.0749   -1.5693    1.8353 H   0  0  0  0  0  0  0  0  0  0  0  0
   -1.3371    0.5352   -1.6278 H   0  0  0  0  0  0  0  0  0  0  0  0
   -3.0744    0.9437    0.3501 H   0  0  0  0  0  0  0  0  0  0  0  0
   -2.5090    2.2705   -0.6813 H   0  0  0  0  0  0  0  0  0  0  0  0
   -1.7777    1.9923    0.9873 H   0  0  0  0  0  0  0  0  0  0  0  0
    0.3885    2.0444   -0.7686 H   0  0  0  0  0  0  0  0  0  0  0  0
    0.1924    1.4029    0.8811 H   0  0  0  0  0  0  0  0  0  0  0  0
  1  2  1  0
  2  3  1  0
  3  4  1  0
  4  5  1  0
  5  6  1  0
  5  7  1  0
  7  8  1  0
  7  9  1  0
  9  2  1  0
  1 10  1  0
  1 11  1  0
  1 12  1  0
  2 13  1  0
  3 14  1  0
  3 15  1  0
  4 16  1  0
  4 17  1  0
  5 18  1  0
  6 19  1  0
  7 20  1  0
  8 21  1  0
  8 22  1  0
  8 23  1  0
  9 24  1  0
  9 25  1  0
M  END
