
     RDKit          3D

 21 23  0  0  0  0  0  0  0  0999 V2000
   -2.5945    0.6874   -0.1392 C   0  0  0  0  0  0  0  0  0  0  0  0
   -1.5900   -0.2803    0.5147 C   0  0  0  0  0  0  0  0  0  0  0  0
   -1.2621   -1.5146    0.0118 C   0  0  0  0  0  0  0  0  0  0  0  0
   -0.3685   -0.4532   -0.2370 C   0  0  0  0  0  0  0  0  0  0  0  0
    0.9686   -0.9959   -0.1873 C   0  0  0  0  0  0  0  0  0  0  0  0
    1.5296    0.3313    0.3194 C   0  0  0  0  0  0  0  0  0  0  0  0
    2.8820    0.7584   -0.1318 C   0  0  0  0  0  0  0  0  0  0  0  0
    0.8018    1.0610    1.2369 O   0  0  0  0  0  0  0  0  0  0  0  0
    0.2766    0.8074   -0.0353 C   0  0  0  0  0  0  0  0  0  0  0  0
   -2.4611    0.6893   -1.2483 H   0  0  0  0  0  0  0  0  0  0  0  0
   -2.3404    1.7122    0.2092 H   0  0  0  0  0  0  0  0  0  0  0  0
   -3.6233    0.3873    0.0708 H   0  0  0  0  0  0  0  0  0  0  0  0
   -1.6463   -0.1342    1.6290 H   0  0  0  0  0  0  0  0  0  0  0  0
   -1.7831   -1.9242   -0.9099 H   0  0  0  0  0  0  0  0  0  0  0  0
   -1.1175   -2.3878    0.7236 H   0  0  0  0  0  0  0  0  0  0  0  0
    1.2887   -1.7823    0.4877 H   0  0  0  0  0  0  0  0  0  0  0  0
    1.3744   -1.1809   -1.2049 H   0  0  0  0  0  0  0  0  0  0  0  0
    3.4654   -0.1501   -0.4104 H   0  0  0  0  0  0  0  0  0  0  0  0
    2.7693    1.3972   -1.0377 H   0  0  0  0  0  0  0  0  0  0  0  0
    3.4279    1.2790    0.6698 H   0  0  0  0  0  0  0  0  0  0  0  0
    0.0026    1.6931   -0.6519 H   0  0  0  0  0  0  0  0  0  0  0  0
  1  2  1  0
  2  3  1  0
  3  4  1  0
  4  5  1  0
  5  6  1  0
  6  7  1  0
  6  8  1  0
  8  9  1  0
  4  2  1  0
  9  6  1  0
  9  4  1  0
  1 10  1  0
  1 11  1  0
  1 12  1  0
  2 13  1  0
  3 14  1  0
  3 15  1  0
  5 16  1  0
  5 17  1  0
  7 18  1  0
  7 19  1  0
  7 20  1  0
  9 21  1  0
M  END
