
     RDKit          3D

 18 18  0  0  0  0  0  0  0  0999 V2000
   -2.4506    0.0840    0.5179 C   0  0  0  0  0  0  0  0  0  0  0  0
   -1.1842    0.1032   -0.2753 C   0  0  0  0  0  0  0  0  0  0  0  0
   -0.4698   -1.2319   -0.2945 C   0  0  0  0  0  0  0  0  0  0  0  0
    0.6912   -0.9282    0.4177 O   0  0  0  0  0  0  0  0  0  0  0  0
    0.9451    0.3640   -0.0404 C   0  0  0  0  0  0  0  0  0  0  0  0
    2.1363    0.9824    0.6403 C   0  0  0  0  0  0  0  0  0  0  0  0
    3.2373    0.1480    0.3508 O   0  0  0  0  0  0  0  0  0  0  0  0
   -0.2463    1.0078    0.2641 O   0  0  0  0  0  0  0  0  0  0  0  0
   -2.3691   -0.4510    1.4816 H   0  0  0  0  0  0  0  0  0  0  0  0
   -3.2151   -0.4577   -0.0796 H   0  0  0  0  0  0  0  0  0  0  0  0
   -2.7588    1.1226    0.7252 H   0  0  0  0  0  0  0  0  0  0  0  0
   -1.4285    0.3728   -1.3250 H   0  0  0  0  0  0  0  0  0  0  0  0
   -0.1444   -1.5006   -1.3298 H   0  0  0  0  0  0  0  0  0  0  0  0
   -1.0577   -2.0376    0.1842 H   0  0  0  0  0  0  0  0  0  0  0  0
    1.0698    0.3184   -1.1427 H   0  0  0  0  0  0  0  0  0  0  0  0
    2.3466    1.9849    0.2738 H   0  0  0  0  0  0  0  0  0  0  0  0
    1.9796    0.9135    1.7341 H   0  0  0  0  0  0  0  0  0  0  0  0
    2.9185   -0.7946    0.2603 H   0  0  0  0  0  0  0  0  0  0  0  0
  1  2  1  0
  2  3  1  0
  3  4  1  0
  4  5  1  0
  5  6  1  0
  6  7  1  0
  5  8  1  0
  8  2  1  0
  1  9  1  0
  1 10  1  0
  1 11  1  0
  2 12  1  0
  3 13  1  0
  3 14  1  0
  5 15  1  0
  6 16  1  0
  6 17  1  0
  7 18  1  0
M  END
