
     RDKit          3D

 17 18  0  0  0  0  0  0  0  0999 V2000
   -2.0645   -0.2910    0.6583 C   0  0  0  0  0  0  0  0  0  0  0  0
   -0.6452    0.2613    0.4873 C   0  0  0  0  0  0  0  0  0  0  0  0
   -0.6991    1.6097   -0.0774 C   0  0  0  0  0  0  0  0  0  0  0  0
   -0.8807    2.7543    0.3987 O   0  0  0  0  0  0  0  0  0  0  0  0
   -0.4669    1.0649   -1.3291 O   0  0  0  0  0  0  0  0  0  0  0  0
   -0.0481   -0.2003   -0.8208 C   0  0  0  0  0  0  0  0  0  0  0  0
    1.4310   -0.3138   -0.8774 C   0  0  0  0  0  0  0  0  0  0  0  0
    2.2955   -0.3606    0.2549 C   0  0  0  0  0  0  0  0  0  0  0  0
    1.8454   -1.6402   -0.3428 O   0  0  0  0  0  0  0  0  0  0  0  0
   -2.6003    0.3109    1.4227 H   0  0  0  0  0  0  0  0  0  0  0  0
   -2.0461   -1.3724    0.8944 H   0  0  0  0  0  0  0  0  0  0  0  0
   -2.6260   -0.1895   -0.2976 H   0  0  0  0  0  0  0  0  0  0  0  0
   -0.0591    0.0966    1.3859 H   0  0  0  0  0  0  0  0  0  0  0  0
   -0.6303   -1.0199   -1.2876 H   0  0  0  0  0  0  0  0  0  0  0  0
    1.8707   -0.1179   -1.8848 H   0  0  0  0  0  0  0  0  0  0  0  0
    3.3825   -0.2975    0.1178 H   0  0  0  0  0  0  0  0  0  0  0  0
    1.9410   -0.2946    1.2973 H   0  0  0  0  0  0  0  0  0  0  0  0
  1  2  1  0
  2  3  1  0
  3  4  2  0
  3  5  1  0
  5  6  1  0
  6  7  1  0
  7  8  1  0
  8  9  1  0
  6  2  1  0
  9  7  1  0
  1 10  1  0
  1 11  1  0
  1 12  1  0
  2 13  1  0
  6 14  1  0
  7 15  1  0
  8 16  1  0
  8 17  1  0
M  END
