
     RDKit          3D

 17 17  0  0  0  0  0  0  0  0999 V2000
    2.1944    0.4872   -0.4092 C   0  0  0  0  0  0  0  0  0  0  0  0
    0.6945    0.5015   -0.3995 C   0  0  0  0  0  0  0  0  0  0  0  0
    0.0369   -0.8387   -0.6542 C   0  0  0  0  0  0  0  0  0  0  0  0
   -1.0266   -0.3151    0.2926 C   0  0  0  0  0  0  0  0  0  0  0  0
   -1.5690   -1.3324    1.0680 O   0  0  0  0  0  0  0  0  0  0  0  0
   -2.0245    0.5152   -0.4195 C   0  0  0  0  0  0  0  0  0  0  0  0
   -3.1998    0.2396   -0.2665 O   0  0  0  0  0  0  0  0  0  0  0  0
    0.0499    0.4684    0.9275 C   0  0  0  0  0  0  0  0  0  0  0  0
    0.3137    0.8979    2.0130 O   0  0  0  0  0  0  0  0  0  0  0  0
    2.5257    1.1138   -1.2682 H   0  0  0  0  0  0  0  0  0  0  0  0
    2.6225   -0.5146   -0.5629 H   0  0  0  0  0  0  0  0  0  0  0  0
    2.5524    0.8581    0.5558 H   0  0  0  0  0  0  0  0  0  0  0  0
    0.2407    1.2777   -1.0575 H   0  0  0  0  0  0  0  0  0  0  0  0
   -0.3103   -0.9583   -1.6962 H   0  0  0  0  0  0  0  0  0  0  0  0
    0.5485   -1.7047   -0.2008 H   0  0  0  0  0  0  0  0  0  0  0  0
   -1.8570   -2.0437    0.4176 H   0  0  0  0  0  0  0  0  0  0  0  0
   -1.7921    1.3480   -1.0655 H   0  0  0  0  0  0  0  0  0  0  0  0
  1  2  1  0
  2  3  1  0
  3  4  1  0
  4  5  1  0
  4  6  1  0
  6  7  2  0
  4  8  1  0
  8  9  2  0
  8  2  1  0
  1 10  1  0
  1 11  1  0
  1 12  1  0
  2 13  1  0
  3 14  1  0
  3 15  1  0
  5 16  1  0
  6 17  1  0
M  END
