
     RDKit          3D

 25 25  0  0  0  0  0  0  0  0999 V2000
    2.5725    0.5096   -0.1175 C   0  0  0  0  0  0  0  0  0  0  0  0
    1.3071   -0.2776   -0.1215 C   0  0  0  0  0  0  0  0  0  0  0  0
    0.9987   -0.9539    1.1849 C   0  0  0  0  0  0  0  0  0  0  0  0
   -0.5288   -0.9973    1.2926 C   0  0  0  0  0  0  0  0  0  0  0  0
   -1.0277   -0.3406    0.0284 C   0  0  0  0  0  0  0  0  0  0  0  0
   -2.3707    0.2863    0.1741 C   0  0  0  0  0  0  0  0  0  0  0  0
   -3.2706   -0.7396    0.5371 O   0  0  0  0  0  0  0  0  0  0  0  0
    0.0728    0.6217   -0.2803 C   0  0  0  0  0  0  0  0  0  0  0  0
    0.0511    1.1637   -1.6665 C   0  0  0  0  0  0  0  0  0  0  0  0
    3.3885   -0.0782    0.3016 H   0  0  0  0  0  0  0  0  0  0  0  0
    2.8450    0.6984   -1.1978 H   0  0  0  0  0  0  0  0  0  0  0  0
    2.4499    1.4926    0.3882 H   0  0  0  0  0  0  0  0  0  0  0  0
    1.2832   -1.0353   -0.9162 H   0  0  0  0  0  0  0  0  0  0  0  0
    1.4472   -0.4080    2.0446 H   0  0  0  0  0  0  0  0  0  0  0  0
    1.4158   -1.9816    1.2126 H   0  0  0  0  0  0  0  0  0  0  0  0
   -0.9086   -2.0224    1.3806 H   0  0  0  0  0  0  0  0  0  0  0  0
   -0.8509   -0.4391    2.1921 H   0  0  0  0  0  0  0  0  0  0  0  0
   -1.0629   -1.1268   -0.7539 H   0  0  0  0  0  0  0  0  0  0  0  0
   -2.3563    1.0873    0.9414 H   0  0  0  0  0  0  0  0  0  0  0  0
   -2.7028    0.6377   -0.8126 H   0  0  0  0  0  0  0  0  0  0  0  0
   -3.1934   -1.4053   -0.2196 H   0  0  0  0  0  0  0  0  0  0  0  0
    0.1292    1.4358    0.4585 H   0  0  0  0  0  0  0  0  0  0  0  0
    0.4502    0.3614   -2.3485 H   0  0  0  0  0  0  0  0  0  0  0  0
   -0.9414    1.5265   -1.9795 H   0  0  0  0  0  0  0  0  0  0  0  0
    0.8031    1.9849   -1.7229 H   0  0  0  0  0  0  0  0  0  0  0  0
  1  2  1  0
  2  3  1  0
  3  4  1  0
  4  5  1  0
  5  6  1  0
  6  7  1  0
  5  8  1  0
  8  9  1  0
  8  2  1  0
  1 10  1  0
  1 11  1  0
  1 12  1  0
  2 13  1  0
  3 14  1  0
  3 15  1  0
  4 16  1  0
  4 17  1  0
  5 18  1  0
  6 19  1  0
  6 20  1  0
  7 21  1  0
  8 22  1  0
  9 23  1  0
  9 24  1  0
  9 25  1  0
M  END
