
     RDKit          3D

 23 24  0  0  0  0  0  0  0  0999 V2000
   -2.2153    0.1932   -1.0771 C   0  0  0  0  0  0  0  0  0  0  0  0
   -1.6145    0.2941    0.2844 C   0  0  0  0  0  0  0  0  0  0  0  0
   -0.3816    1.2178    0.3080 C   0  0  0  0  0  0  0  0  0  0  0  0
    0.7323    0.3389    0.6928 C   0  0  0  0  0  0  0  0  0  0  0  0
    1.7944   -0.2716    0.0035 C   0  0  0  0  0  0  0  0  0  0  0  0
    2.5526    0.5421   -1.0505 C   0  0  0  0  0  0  0  0  0  0  0  0
    0.5365   -0.8190   -0.3403 C   0  0  0  0  0  0  0  0  0  0  0  0
   -0.4121   -1.7086    0.3480 C   0  0  0  0  0  0  0  0  0  0  0  0
   -1.4010   -0.9132    0.9131 O   0  0  0  0  0  0  0  0  0  0  0  0
   -3.3005    0.5101   -1.0932 H   0  0  0  0  0  0  0  0  0  0  0  0
   -2.2320   -0.8450   -1.4883 H   0  0  0  0  0  0  0  0  0  0  0  0
   -1.7250    0.8955   -1.8029 H   0  0  0  0  0  0  0  0  0  0  0  0
   -2.3652    0.8269    0.9325 H   0  0  0  0  0  0  0  0  0  0  0  0
   -0.5273    2.1162    0.8983 H   0  0  0  0  0  0  0  0  0  0  0  0
   -0.2073    1.5492   -0.7592 H   0  0  0  0  0  0  0  0  0  0  0  0
    0.6188    0.0555    1.7862 H   0  0  0  0  0  0  0  0  0  0  0  0
    2.5189   -0.9103    0.5688 H   0  0  0  0  0  0  0  0  0  0  0  0
    2.9342    1.4953   -0.6142 H   0  0  0  0  0  0  0  0  0  0  0  0
    1.9114    0.7182   -1.9390 H   0  0  0  0  0  0  0  0  0  0  0  0
    3.4456   -0.0011   -1.4157 H   0  0  0  0  0  0  0  0  0  0  0  0
    0.1437   -0.5415   -1.3601 H   0  0  0  0  0  0  0  0  0  0  0  0
    0.1135   -2.3131    1.1229 H   0  0  0  0  0  0  0  0  0  0  0  0
   -0.9199   -2.4296   -0.3246 H   0  0  0  0  0  0  0  0  0  0  0  0
  1  2  1  0
  2  3  1  0
  3  4  1  0
  4  5  1  0
  5  6  1  0
  5  7  1  0
  7  8  1  0
  8  9  1  0
  9  2  1  0
  7  4  1  0
  1 10  1  0
  1 11  1  0
  1 12  1  0
  2 13  1  0
  3 14  1  0
  3 15  1  0
  4 16  1  0
  5 17  1  0
  6 18  1  0
  6 19  1  0
  6 20  1  0
  7 21  1  0
  8 22  1  0
  8 23  1  0
M  END
