
     RDKit          3D

 25 25  0  0  0  0  0  0  0  0999 V2000
    2.9164    0.1833   -0.2624 C   0  0  0  0  0  0  0  0  0  0  0  0
    1.4792    0.0049   -0.6640 C   0  0  0  0  0  0  0  0  0  0  0  0
    0.8708   -1.2478   -0.0440 C   0  0  0  0  0  0  0  0  0  0  0  0
   -0.6170   -0.9026   -0.1932 C   0  0  0  0  0  0  0  0  0  0  0  0
   -1.4936   -1.8769    0.5114 C   0  0  0  0  0  0  0  0  0  0  0  0
   -0.6343    0.4821    0.4183 C   0  0  0  0  0  0  0  0  0  0  0  0
   -1.8981    1.2210    0.0314 C   0  0  0  0  0  0  0  0  0  0  0  0
   -1.8870    2.4717    0.5990 O   0  0  0  0  0  0  0  0  0  0  0  0
    0.5889    1.1104   -0.2082 C   0  0  0  0  0  0  0  0  0  0  0  0
    3.4392   -0.7760   -0.4477 H   0  0  0  0  0  0  0  0  0  0  0  0
    2.9714    0.5241    0.7791 H   0  0  0  0  0  0  0  0  0  0  0  0
    3.3601    0.9313   -0.9788 H   0  0  0  0  0  0  0  0  0  0  0  0
    1.4194   -0.1185   -1.7546 H   0  0  0  0  0  0  0  0  0  0  0  0
    1.1388   -2.1497   -0.6064 H   0  0  0  0  0  0  0  0  0  0  0  0
    1.1205   -1.3168    1.0261 H   0  0  0  0  0  0  0  0  0  0  0  0
   -0.8113   -0.8074   -1.2654 H   0  0  0  0  0  0  0  0  0  0  0  0
   -1.7698   -1.5678    1.5400 H   0  0  0  0  0  0  0  0  0  0  0  0
   -1.0466   -2.8835    0.5563 H   0  0  0  0  0  0  0  0  0  0  0  0
   -2.4409   -1.9765   -0.0857 H   0  0  0  0  0  0  0  0  0  0  0  0
   -0.5813    0.4136    1.5134 H   0  0  0  0  0  0  0  0  0  0  0  0
   -2.7784    0.6129    0.2941 H   0  0  0  0  0  0  0  0  0  0  0  0
   -1.8980    1.3360   -1.0847 H   0  0  0  0  0  0  0  0  0  0  0  0
   -2.7649    2.8205    0.8520 H   0  0  0  0  0  0  0  0  0  0  0  0
    0.2194    1.6889   -1.0942 H   0  0  0  0  0  0  0  0  0  0  0  0
    1.0972    1.8227    0.4689 H   0  0  0  0  0  0  0  0  0  0  0  0
  1  2  1  0
  2  3  1  0
  3  4  1  0
  4  5  1  0
  4  6  1  0
  6  7  1  0
  7  8  1  0
  6  9  1  0
  9  2  1  0
  1 10  1  0
  1 11  1  0
  1 12  1  0
  2 13  1  0
  3 14  1  0
  3 15  1  0
  4 16  1  0
  5 17  1  0
  5 18  1  0
  5 19  1  0
  6 20  1  0
  7 21  1  0
  7 22  1  0
  8 23  1  0
  9 24  1  0
  9 25  1  0
M  END
