
     RDKit          3D

 21 22  0  0  0  0  0  0  0  0999 V2000
    2.0141   -0.8240   -0.2791 C   0  0  0  0  0  0  0  0  0  0  0  0
    1.2657    0.0656    0.6425 C   0  0  0  0  0  0  0  0  0  0  0  0
    0.8845    1.4246    0.0300 C   0  0  0  0  0  0  0  0  0  0  0  0
    0.7056    2.4302    0.9484 O   0  0  0  0  0  0  0  0  0  0  0  0
   -0.4714    0.8442   -0.3321 C   0  0  0  0  0  0  0  0  0  0  0  0
   -1.6554    0.5356   -0.8182 C   0  0  0  0  0  0  0  0  0  0  0  0
   -2.2116   -0.6872   -0.1295 C   0  0  0  0  0  0  0  0  0  0  0  0
   -0.8706   -1.3500    0.2931 C   0  0  0  0  0  0  0  0  0  0  0  0
   -0.1883   -0.1375    0.7983 C   0  0  0  0  0  0  0  0  0  0  0  0
    2.1722   -0.3763   -1.3014 H   0  0  0  0  0  0  0  0  0  0  0  0
    3.0648   -0.9929    0.1000 H   0  0  0  0  0  0  0  0  0  0  0  0
    1.5861   -1.8158   -0.4255 H   0  0  0  0  0  0  0  0  0  0  0  0
    1.8097    0.2770    1.5914 H   0  0  0  0  0  0  0  0  0  0  0  0
    1.5325    1.6445   -0.8142 H   0  0  0  0  0  0  0  0  0  0  0  0
    0.2143    3.1622    0.5001 H   0  0  0  0  0  0  0  0  0  0  0  0
   -2.1560    1.0792   -1.5971 H   0  0  0  0  0  0  0  0  0  0  0  0
   -2.7810   -1.3249   -0.8000 H   0  0  0  0  0  0  0  0  0  0  0  0
   -2.7633   -0.3307    0.7637 H   0  0  0  0  0  0  0  0  0  0  0  0
   -1.0881   -2.1168    1.0501 H   0  0  0  0  0  0  0  0  0  0  0  0
   -0.4431   -1.7375   -0.6346 H   0  0  0  0  0  0  0  0  0  0  0  0
   -0.6206    0.2306    1.7514 H   0  0  0  0  0  0  0  0  0  0  0  0
  1  2  1  0
  2  3  1  0
  3  4  1  0
  3  5  1  0
  5  6  2  0
  6  7  1  0
  7  8  1  0
  8  9  1  0
  9  2  1  0
  9  5  1  0
  1 10  1  0
  1 11  1  0
  1 12  1  0
  2 13  1  0
  3 14  1  0
  4 15  1  0
  6 16  1  0
  7 17  1  0
  7 18  1  0
  8 19  1  0
  8 20  1  0
  9 21  1  0
M  END
