
     RDKit          3D

 21 22  0  0  0  0  0  0  0  0999 V2000
    2.5361    0.4037    0.5386 C   0  0  0  0  0  0  0  0  0  0  0  0
    1.2432   -0.3618    0.3107 C   0  0  0  0  0  0  0  0  0  0  0  0
    0.9705   -0.7446   -1.0817 C   0  0  0  0  0  0  0  0  0  0  0  0
    0.1244    0.2815   -0.4195 C   0  0  0  0  0  0  0  0  0  0  0  0
    0.3629    1.5896   -0.8287 O   0  0  0  0  0  0  0  0  0  0  0  0
   -1.2929   -0.0128   -0.0365 C   0  0  0  0  0  0  0  0  0  0  0  0
   -1.5897   -1.2056    0.8456 C   0  0  0  0  0  0  0  0  0  0  0  0
   -2.2217    1.1402    0.0972 C   0  0  0  0  0  0  0  0  0  0  0  0
   -2.2348    0.1886   -1.0588 O   0  0  0  0  0  0  0  0  0  0  0  0
    3.1591    0.4313   -0.3811 H   0  0  0  0  0  0  0  0  0  0  0  0
    2.3115    1.4057    0.9407 H   0  0  0  0  0  0  0  0  0  0  0  0
    3.1199   -0.1588    1.2889 H   0  0  0  0  0  0  0  0  0  0  0  0
    0.9330   -1.0582    1.1200 H   0  0  0  0  0  0  0  0  0  0  0  0
    1.6671   -0.4332   -1.8933 H   0  0  0  0  0  0  0  0  0  0  0  0
    0.5593   -1.7741   -1.2758 H   0  0  0  0  0  0  0  0  0  0  0  0
    0.4698    1.6438   -1.8225 H   0  0  0  0  0  0  0  0  0  0  0  0
   -2.5923   -1.6272    0.6288 H   0  0  0  0  0  0  0  0  0  0  0  0
   -1.6405   -0.8573    1.9132 H   0  0  0  0  0  0  0  0  0  0  0  0
   -0.8412   -1.9990    0.7275 H   0  0  0  0  0  0  0  0  0  0  0  0
   -3.1833    1.0196    0.6129 H   0  0  0  0  0  0  0  0  0  0  0  0
   -1.8604    2.1285   -0.2261 H   0  0  0  0  0  0  0  0  0  0  0  0
  1  2  1  0
  2  3  1  0
  3  4  1  0
  4  5  1  0
  4  6  1  0
  6  7  1  0
  6  8  1  0
  8  9  1  0
  4  2  1  0
  9  6  1  0
  1 10  1  0
  1 11  1  0
  1 12  1  0
  2 13  1  0
  3 14  1  0
  3 15  1  0
  5 16  1  0
  7 17  1  0
  7 18  1  0
  7 19  1  0
  8 20  1  0
  8 21  1  0
M  END
