
     RDKit          3D

 21 21  0  0  0  0  0  0  0  0999 V2000
    0.8524    1.6660    0.3432 C   0  0  0  0  0  0  0  0  0  0  0  0
    0.2615    0.4171    0.9225 C   0  0  0  0  0  0  0  0  0  0  0  0
   -1.2100    0.5836    1.0735 C   0  0  0  0  0  0  0  0  0  0  0  0
   -2.1093    0.1560    0.2131 C   0  0  0  0  0  0  0  0  0  0  0  0
   -1.7794   -0.5691   -1.0584 C   0  0  0  0  0  0  0  0  0  0  0  0
   -0.3141   -0.6340   -1.1646 C   0  0  0  0  0  0  0  0  0  0  0  0
    0.2270   -0.5534   -2.2324 O   0  0  0  0  0  0  0  0  0  0  0  0
    0.4862   -0.7996    0.0580 C   0  0  0  0  0  0  0  0  0  0  0  0
    1.9291   -1.0908   -0.1922 C   0  0  0  0  0  0  0  0  0  0  0  0
    1.2508    2.3072    1.1832 H   0  0  0  0  0  0  0  0  0  0  0  0
    0.0455    2.2620   -0.1539 H   0  0  0  0  0  0  0  0  0  0  0  0
    1.6944    1.5018   -0.3366 H   0  0  0  0  0  0  0  0  0  0  0  0
    0.7592    0.2165    1.8960 H   0  0  0  0  0  0  0  0  0  0  0  0
   -1.5508    1.1081    1.9827 H   0  0  0  0  0  0  0  0  0  0  0  0
   -3.1688    0.3525    0.4596 H   0  0  0  0  0  0  0  0  0  0  0  0
   -2.1509   -1.6289   -1.0062 H   0  0  0  0  0  0  0  0  0  0  0  0
   -2.2599   -0.0099   -1.8829 H   0  0  0  0  0  0  0  0  0  0  0  0
    0.0703   -1.6697    0.6386 H   0  0  0  0  0  0  0  0  0  0  0  0
    2.1319   -1.3280   -1.2772 H   0  0  0  0  0  0  0  0  0  0  0  0
    2.2795   -2.0146    0.3518 H   0  0  0  0  0  0  0  0  0  0  0  0
    2.5557   -0.2728    0.1823 H   0  0  0  0  0  0  0  0  0  0  0  0
  1  2  1  0
  2  3  1  0
  3  4  2  0
  4  5  1  0
  5  6  1  0
  6  7  2  0
  6  8  1  0
  8  9  1  0
  8  2  1  0
  1 10  1  0
  1 11  1  0
  1 12  1  0
  2 13  1  0
  3 14  1  0
  4 15  1  0
  5 16  1  0
  5 17  1  0
  8 18  1  0
  9 19  1  0
  9 20  1  0
  9 21  1  0
M  END
