
     RDKit          3D

 21 22  0  0  0  0  0  0  0  0999 V2000
    2.0480    0.1006    0.8514 C   0  0  0  0  0  0  0  0  0  0  0  0
    1.1609   -0.2762   -0.2936 C   0  0  0  0  0  0  0  0  0  0  0  0
    0.1348   -1.2539    0.1983 C   0  0  0  0  0  0  0  0  0  0  0  0
   -1.1975   -0.8359   -0.3536 C   0  0  0  0  0  0  0  0  0  0  0  0
   -2.0722   -0.1554    0.6692 C   0  0  0  0  0  0  0  0  0  0  0  0
   -1.8082    1.0583    0.0242 O   0  0  0  0  0  0  0  0  0  0  0  0
   -1.0264    0.5078   -0.9887 C   0  0  0  0  0  0  0  0  0  0  0  0
    0.4374    0.8654   -0.9180 C   0  0  0  0  0  0  0  0  0  0  0  0
    0.6036    2.0705   -0.2374 O   0  0  0  0  0  0  0  0  0  0  0  0
    2.0405    1.1724    1.0974 H   0  0  0  0  0  0  0  0  0  0  0  0
    3.1023   -0.2346    0.6684 H   0  0  0  0  0  0  0  0  0  0  0  0
    1.7522   -0.4290    1.7996 H   0  0  0  0  0  0  0  0  0  0  0  0
    1.7831   -0.7804   -1.0796 H   0  0  0  0  0  0  0  0  0  0  0  0
    0.3498   -2.2797   -0.1910 H   0  0  0  0  0  0  0  0  0  0  0  0
    0.1290   -1.3488    1.3088 H   0  0  0  0  0  0  0  0  0  0  0  0
   -1.7405   -1.5958   -0.9506 H   0  0  0  0  0  0  0  0  0  0  0  0
   -1.6668   -0.2072    1.6957 H   0  0  0  0  0  0  0  0  0  0  0  0
   -3.1314   -0.4821    0.6142 H   0  0  0  0  0  0  0  0  0  0  0  0
   -1.4500    0.5972   -2.0138 H   0  0  0  0  0  0  0  0  0  0  0  0
    0.8127    1.0557   -1.9616 H   0  0  0  0  0  0  0  0  0  0  0  0
   -0.2612    2.4511    0.0606 H   0  0  0  0  0  0  0  0  0  0  0  0
  1  2  1  0
  2  3  1  0
  3  4  1  0
  4  5  1  0
  5  6  1  0
  6  7  1  0
  7  8  1  0
  8  9  1  0
  8  2  1  0
  7  4  1  0
  1 10  1  0
  1 11  1  0
  1 12  1  0
  2 13  1  0
  3 14  1  0
  3 15  1  0
  4 16  1  0
  5 17  1  0
  5 18  1  0
  7 19  1  0
  8 20  1  0
  9 21  1  0
M  END
