
     RDKit          3D

 21 23  0  0  0  0  0  0  0  0999 V2000
   -1.1822    1.7395   -0.2008 C   0  0  0  0  0  0  0  0  0  0  0  0
   -0.5805    0.4391   -0.6557 C   0  0  0  0  0  0  0  0  0  0  0  0
   -1.4268   -0.6666   -0.0077 C   0  0  0  0  0  0  0  0  0  0  0  0
   -0.5525   -1.8671   -0.2962 C   0  0  0  0  0  0  0  0  0  0  0  0
    0.7163   -1.3344    0.3874 C   0  0  0  0  0  0  0  0  0  0  0  0
    0.2565   -0.3787    1.3725 C   0  0  0  0  0  0  0  0  0  0  0  0
   -1.1528   -0.4405    1.3247 O   0  0  0  0  0  0  0  0  0  0  0  0
    0.7029    0.1481    0.0920 C   0  0  0  0  0  0  0  0  0  0  0  0
    1.9778    0.7643   -0.2369 C   0  0  0  0  0  0  0  0  0  0  0  0
   -0.9986    1.8275    0.9010 H   0  0  0  0  0  0  0  0  0  0  0  0
   -0.7236    2.6076   -0.6712 H   0  0  0  0  0  0  0  0  0  0  0  0
   -2.2923    1.6750   -0.3653 H   0  0  0  0  0  0  0  0  0  0  0  0
   -0.5035    0.3224   -1.7336 H   0  0  0  0  0  0  0  0  0  0  0  0
   -2.4310   -0.7114   -0.3194 H   0  0  0  0  0  0  0  0  0  0  0  0
   -0.3322   -1.9629   -1.3783 H   0  0  0  0  0  0  0  0  0  0  0  0
   -0.9146   -2.7773    0.1794 H   0  0  0  0  0  0  0  0  0  0  0  0
    1.6185   -1.9136    0.3873 H   0  0  0  0  0  0  0  0  0  0  0  0
    0.7260   -0.1510    2.3295 H   0  0  0  0  0  0  0  0  0  0  0  0
    2.5696    0.0534   -0.8864 H   0  0  0  0  0  0  0  0  0  0  0  0
    2.6323    0.9364    0.6486 H   0  0  0  0  0  0  0  0  0  0  0  0
    1.8909    1.6902   -0.8707 H   0  0  0  0  0  0  0  0  0  0  0  0
  1  2  1  0
  2  3  1  0
  3  4  1  0
  4  5  1  0
  5  6  1  0
  6  7  1  0
  6  8  1  0
  8  9  1  0
  8  2  1  0
  7  3  1  0
  8  5  1  0
  1 10  1  0
  1 11  1  0
  1 12  1  0
  2 13  1  0
  3 14  1  0
  4 15  1  0
  4 16  1  0
  5 17  1  0
  6 18  1  0
  9 19  1  0
  9 20  1  0
  9 21  1  0
M  END
