
     RDKit          3D

 22 22  0  0  0  0  0  0  0  0999 V2000
   -1.6757   -1.0049    0.3202 C   0  0  0  0  0  0  0  0  0  0  0  0
   -0.6222   -0.4625   -0.5826 C   0  0  0  0  0  0  0  0  0  0  0  0
   -1.0841    0.9190   -1.0650 C   0  0  0  0  0  0  0  0  0  0  0  0
   -0.6284    1.8253    0.0180 C   0  0  0  0  0  0  0  0  0  0  0  0
    0.3218    1.2411    0.6926 C   0  0  0  0  0  0  0  0  0  0  0  0
    0.6117   -0.0874    0.1611 C   0  0  0  0  0  0  0  0  0  0  0  0
    1.0557   -1.0849    1.1815 C   0  0  0  0  0  0  0  0  0  0  0  0
    1.7991    0.0862   -0.8015 C   0  0  0  0  0  0  0  0  0  0  0  0
   -1.6819   -2.1138    0.2717 H   0  0  0  0  0  0  0  0  0  0  0  0
   -2.6713   -0.6768   -0.0786 H   0  0  0  0  0  0  0  0  0  0  0  0
   -1.6063   -0.6055    1.3434 H   0  0  0  0  0  0  0  0  0  0  0  0
   -0.4617   -1.0841   -1.4707 H   0  0  0  0  0  0  0  0  0  0  0  0
   -0.6592    1.1658   -2.0521 H   0  0  0  0  0  0  0  0  0  0  0  0
   -2.2074    0.9706   -1.0616 H   0  0  0  0  0  0  0  0  0  0  0  0
   -1.0590    2.8440    0.1947 H   0  0  0  0  0  0  0  0  0  0  0  0
    0.8487    1.6726    1.5510 H   0  0  0  0  0  0  0  0  0  0  0  0
    1.6068   -0.5363    1.9819 H   0  0  0  0  0  0  0  0  0  0  0  0
    0.2330   -1.6330    1.6728 H   0  0  0  0  0  0  0  0  0  0  0  0
    1.6941   -1.8449    0.6754 H   0  0  0  0  0  0  0  0  0  0  0  0
    1.4800    0.6714   -1.6775 H   0  0  0  0  0  0  0  0  0  0  0  0
    2.5437    0.6712   -0.2171 H   0  0  0  0  0  0  0  0  0  0  0  0
    2.1624   -0.9333   -1.0576 H   0  0  0  0  0  0  0  0  0  0  0  0
  1  2  1  0
  2  3  1  0
  3  4  1  0
  4  5  2  0
  5  6  1  0
  6  7  1  0
  6  8  1  0
  6  2  1  0
  1  9  1  0
  1 10  1  0
  1 11  1  0
  2 12  1  0
  3 13  1  0
  3 14  1  0
  4 15  1  0
  5 16  1  0
  7 17  1  0
  7 18  1  0
  7 19  1  0
  8 20  1  0
  8 21  1  0
  8 22  1  0
M  END
