
     RDKit          3D

 23 23  0  0  0  0  0  0  0  0999 V2000
   -0.9170    1.7353   -0.8306 C   0  0  0  0  0  0  0  0  0  0  0  0
   -0.0111    0.9450    0.0524 C   0  0  0  0  0  0  0  0  0  0  0  0
    1.3782    0.8187   -0.5004 C   0  0  0  0  0  0  0  0  0  0  0  0
    1.8840   -0.4886    0.0310 C   0  0  0  0  0  0  0  0  0  0  0  0
    0.7996   -1.0568    0.9198 C   0  0  0  0  0  0  0  0  0  0  0  0
   -0.4884   -0.4239    0.3781 C   0  0  0  0  0  0  0  0  0  0  0  0
   -0.9323   -1.2422   -0.7781 C   0  0  0  0  0  0  0  0  0  0  0  0
   -1.4838   -0.4806    1.4587 C   0  0  0  0  0  0  0  0  0  0  0  0
   -1.5947    0.4324    2.2556 O   0  0  0  0  0  0  0  0  0  0  0  0
   -1.9019    1.8402   -0.3636 H   0  0  0  0  0  0  0  0  0  0  0  0
   -0.4925    2.7661   -0.9086 H   0  0  0  0  0  0  0  0  0  0  0  0
   -0.9778    1.3107   -1.8305 H   0  0  0  0  0  0  0  0  0  0  0  0
    0.0808    1.5061    1.0266 H   0  0  0  0  0  0  0  0  0  0  0  0
    1.3960    0.8364   -1.6096 H   0  0  0  0  0  0  0  0  0  0  0  0
    2.0167    1.6790   -0.1756 H   0  0  0  0  0  0  0  0  0  0  0  0
    2.8317   -0.3456    0.6181 H   0  0  0  0  0  0  0  0  0  0  0  0
    2.0815   -1.1689   -0.8149 H   0  0  0  0  0  0  0  0  0  0  0  0
    0.7463   -2.1468    0.9031 H   0  0  0  0  0  0  0  0  0  0  0  0
    0.9337   -0.6198    1.9329 H   0  0  0  0  0  0  0  0  0  0  0  0
   -0.9464   -0.7278   -1.7472 H   0  0  0  0  0  0  0  0  0  0  0  0
   -1.9758   -1.6412   -0.6277 H   0  0  0  0  0  0  0  0  0  0  0  0
   -0.3069   -2.1723   -0.9215 H   0  0  0  0  0  0  0  0  0  0  0  0
   -2.1198   -1.3554    1.5319 H   0  0  0  0  0  0  0  0  0  0  0  0
  1  2  1  0
  2  3  1  0
  3  4  1  0
  4  5  1  0
  5  6  1  0
  6  7  1  0
  6  8  1  0
  8  9  2  0
  6  2  1  0
  1 10  1  0
  1 11  1  0
  1 12  1  0
  2 13  1  0
  3 14  1  0
  3 15  1  0
  4 16  1  0
  4 17  1  0
  5 18  1  0
  5 19  1  0
  7 20  1  0
  7 21  1  0
  7 22  1  0
  8 23  1  0
M  END
