
     RDKit          3D

 19 21  0  0  0  0  0  0  0  0999 V2000
   -2.6130    0.1956   -0.1541 C   0  0  0  0  0  0  0  0  0  0  0  0
   -1.2796   -0.3283    0.2779 C   0  0  0  0  0  0  0  0  0  0  0  0
   -0.1619    0.6594    0.1950 C   0  0  0  0  0  0  0  0  0  0  0  0
    1.0663    0.3310    0.9668 C   0  0  0  0  0  0  0  0  0  0  0  0
    2.2848    0.5670    0.0845 C   0  0  0  0  0  0  0  0  0  0  0  0
    2.0477   -0.3561   -0.9301 O   0  0  0  0  0  0  0  0  0  0  0  0
    1.0476   -1.2122   -0.4735 C   0  0  0  0  0  0  0  0  0  0  0  0
    1.0641   -1.0839    0.9387 O   0  0  0  0  0  0  0  0  0  0  0  0
   -0.2786   -0.5676   -0.7745 C   0  0  0  0  0  0  0  0  0  0  0  0
   -2.5130    1.1622   -0.7125 H   0  0  0  0  0  0  0  0  0  0  0  0
   -3.2377    0.4565    0.7500 H   0  0  0  0  0  0  0  0  0  0  0  0
   -3.1902   -0.4846   -0.7851 H   0  0  0  0  0  0  0  0  0  0  0  0
   -1.3066   -0.9153    1.2239 H   0  0  0  0  0  0  0  0  0  0  0  0
   -0.2780    1.6211   -0.3177 H   0  0  0  0  0  0  0  0  0  0  0  0
    1.1484    0.7421    1.9556 H   0  0  0  0  0  0  0  0  0  0  0  0
    2.3713    1.5960   -0.2560 H   0  0  0  0  0  0  0  0  0  0  0  0
    3.1968    0.2038    0.6285 H   0  0  0  0  0  0  0  0  0  0  0  0
    1.1486   -2.2353   -0.8046 H   0  0  0  0  0  0  0  0  0  0  0  0
   -0.5170   -0.3515   -1.8125 H   0  0  0  0  0  0  0  0  0  0  0  0
  1  2  1  0
  2  3  1  0
  3  4  1  0
  4  5  1  0
  5  6  1  0
  6  7  1  0
  7  8  1  0
  7  9  1  0
  9  2  1  0
  9  3  1  0
  8  4  1  0
  1 10  1  0
  1 11  1  0
  1 12  1  0
  2 13  1  0
  3 14  1  0
  4 15  1  0
  5 16  1  0
  5 17  1  0
  7 18  1  0
  9 19  1  0
M  END
