
     RDKit          3D

 21 22  0  0  0  0  0  0  0  0999 V2000
   -1.9787   -1.1488   -0.1111 C   0  0  0  0  0  0  0  0  0  0  0  0
   -0.6291   -0.5527   -0.3009 C   0  0  0  0  0  0  0  0  0  0  0  0
    0.4620   -1.3035    0.4025 C   0  0  0  0  0  0  0  0  0  0  0  0
    1.7639   -0.5938    0.3867 C   0  0  0  0  0  0  0  0  0  0  0  0
    2.3489   -0.3438   -0.8434 O   0  0  0  0  0  0  0  0  0  0  0  0
    1.8761    0.7191   -0.0863 C   0  0  0  0  0  0  0  0  0  0  0  0
    0.6730    1.4678   -0.5510 C   0  0  0  0  0  0  0  0  0  0  0  0
   -0.5429    0.8904    0.1613 C   0  0  0  0  0  0  0  0  0  0  0  0
   -1.6878    1.6057   -0.0607 O   0  0  0  0  0  0  0  0  0  0  0  0
   -2.1386   -1.6676    0.8328 H   0  0  0  0  0  0  0  0  0  0  0  0
   -2.2178   -1.8543   -0.9600 H   0  0  0  0  0  0  0  0  0  0  0  0
   -2.7326   -0.3164   -0.2355 H   0  0  0  0  0  0  0  0  0  0  0  0
   -0.3904   -0.6062   -1.4034 H   0  0  0  0  0  0  0  0  0  0  0  0
    0.5827   -2.3459    0.0448 H   0  0  0  0  0  0  0  0  0  0  0  0
    0.1395   -1.3943    1.4805 H   0  0  0  0  0  0  0  0  0  0  0  0
    2.4874   -0.9626    1.1732 H   0  0  0  0  0  0  0  0  0  0  0  0
    2.6737    1.3951    0.3445 H   0  0  0  0  0  0  0  0  0  0  0  0
    0.7320    2.5581   -0.4417 H   0  0  0  0  0  0  0  0  0  0  0  0
    0.5219    1.2038   -1.6390 H   0  0  0  0  0  0  0  0  0  0  0  0
   -0.2786    0.8495    1.2435 H   0  0  0  0  0  0  0  0  0  0  0  0
   -1.6647    2.4006    0.5631 H   0  0  0  0  0  0  0  0  0  0  0  0
  1  2  1  0
  2  3  1  0
  3  4  1  0
  4  5  1  0
  5  6  1  0
  6  7  1  0
  7  8  1  0
  8  9  1  0
  8  2  1  0
  6  4  1  0
  1 10  1  0
  1 11  1  0
  1 12  1  0
  2 13  1  0
  3 14  1  0
  3 15  1  0
  4 16  1  0
  6 17  1  0
  7 18  1  0
  7 19  1  0
  8 20  1  0
  9 21  1  0
M  END
