
     RDKit          3D

 21 22  0  0  0  0  0  0  0  0999 V2000
   -2.1098    0.8243    0.2118 C   0  0  0  0  0  0  0  0  0  0  0  0
   -0.9310    0.1426   -0.4040 C   0  0  0  0  0  0  0  0  0  0  0  0
   -0.0398   -0.6125    0.5902 C   0  0  0  0  0  0  0  0  0  0  0  0
   -0.2412   -2.0737    0.4468 C   0  0  0  0  0  0  0  0  0  0  0  0
    1.1180    0.0412   -0.0012 C   0  0  0  0  0  0  0  0  0  0  0  0
    2.2818   -0.3242   -0.5808 C   0  0  0  0  0  0  0  0  0  0  0  0
    2.2153    0.4789    0.6863 O   0  0  0  0  0  0  0  0  0  0  0  0
    0.2221    1.1354   -0.5461 C   0  0  0  0  0  0  0  0  0  0  0  0
    0.1567    2.1903    0.3491 O   0  0  0  0  0  0  0  0  0  0  0  0
   -1.8169    1.2282    1.2056 H   0  0  0  0  0  0  0  0  0  0  0  0
   -2.4036    1.6579   -0.4891 H   0  0  0  0  0  0  0  0  0  0  0  0
   -2.9646    0.1334    0.2586 H   0  0  0  0  0  0  0  0  0  0  0  0
   -1.1277   -0.4648   -1.2859 H   0  0  0  0  0  0  0  0  0  0  0  0
   -0.2263   -0.2916    1.6464 H   0  0  0  0  0  0  0  0  0  0  0  0
    0.4218   -2.7050    1.0351 H   0  0  0  0  0  0  0  0  0  0  0  0
   -0.1802   -2.3944   -0.6223 H   0  0  0  0  0  0  0  0  0  0  0  0
   -1.3093   -2.2980    0.7406 H   0  0  0  0  0  0  0  0  0  0  0  0
    2.8517   -1.2548   -0.3900 H   0  0  0  0  0  0  0  0  0  0  0  0
    2.7751    0.2893   -1.3916 H   0  0  0  0  0  0  0  0  0  0  0  0
    0.4284    1.4748   -1.5590 H   0  0  0  0  0  0  0  0  0  0  0  0
    0.8796    2.8225    0.0995 H   0  0  0  0  0  0  0  0  0  0  0  0
  1  2  1  0
  2  3  1  0
  3  4  1  0
  3  5  1  0
  5  6  1  0
  6  7  1  0
  5  8  1  0
  8  9  1  0
  8  2  1  0
  7  5  1  0
  1 10  1  0
  1 11  1  0
  1 12  1  0
  2 13  1  0
  3 14  1  0
  4 15  1  0
  4 16  1  0
  4 17  1  0
  6 18  1  0
  6 19  1  0
  8 20  1  0
  9 21  1  0
M  END
