
     RDKit          3D

 19 20  0  0  0  0  0  0  0  0999 V2000
    2.4056   -0.2211   -0.0315 C   0  0  0  0  0  0  0  0  0  0  0  0
    1.1149    0.3721    0.3796 C   0  0  0  0  0  0  0  0  0  0  0  0
    0.1366    0.5346   -0.7995 C   0  0  0  0  0  0  0  0  0  0  0  0
   -1.0534   -0.1384   -0.1277 C   0  0  0  0  0  0  0  0  0  0  0  0
   -2.3144   -0.2011   -0.8283 C   0  0  0  0  0  0  0  0  0  0  0  0
   -0.4466   -1.3482    0.2847 O   0  0  0  0  0  0  0  0  0  0  0  0
    0.2436   -0.5448    1.2073 C   0  0  0  0  0  0  0  0  0  0  0  0
   -1.0073    0.2556    1.2981 C   0  0  0  0  0  0  0  0  0  0  0  0
   -1.6704    0.8974    2.0805 O   0  0  0  0  0  0  0  0  0  0  0  0
    3.1166    0.6279   -0.2537 H   0  0  0  0  0  0  0  0  0  0  0  0
    2.8830   -0.7886    0.7876 H   0  0  0  0  0  0  0  0  0  0  0  0
    2.3343   -0.7996   -0.9579 H   0  0  0  0  0  0  0  0  0  0  0  0
    1.1868    1.3327    0.9141 H   0  0  0  0  0  0  0  0  0  0  0  0
    0.5429   -0.0997   -1.6016 H   0  0  0  0  0  0  0  0  0  0  0  0
   -0.0363    1.5719   -1.0534 H   0  0  0  0  0  0  0  0  0  0  0  0
   -2.7750   -1.1764   -1.0003 H   0  0  0  0  0  0  0  0  0  0  0  0
   -3.0810    0.4395   -0.3008 H   0  0  0  0  0  0  0  0  0  0  0  0
   -2.2186    0.2824   -1.8442 H   0  0  0  0  0  0  0  0  0  0  0  0
    0.6387   -0.9964    2.0823 H   0  0  0  0  0  0  0  0  0  0  0  0
  1  2  1  0
  2  3  1  0
  3  4  1  0
  4  5  1  0
  4  6  1  0
  6  7  1  0
  7  8  1  0
  8  9  2  0
  7  2  1  0
  8  4  1  0
  1 10  1  0
  1 11  1  0
  1 12  1  0
  2 13  1  0
  3 14  1  0
  3 15  1  0
  5 16  1  0
  5 17  1  0
  5 18  1  0
  7 19  1  0
M  END
