
     RDKit          3D

 19 21  0  0  0  0  0  0  0  0999 V2000
   -2.2160   -0.2684   -0.2942 C   0  0  0  0  0  0  0  0  0  0  0  0
   -0.9121   -0.1114    0.4091 C   0  0  0  0  0  0  0  0  0  0  0  0
   -0.3210    1.2687    0.2235 C   0  0  0  0  0  0  0  0  0  0  0  0
    1.1272    1.0653   -0.1721 C   0  0  0  0  0  0  0  0  0  0  0  0
    1.4537    0.0160   -1.1735 C   0  0  0  0  0  0  0  0  0  0  0  0
    0.4711   -0.9385   -1.4261 O   0  0  0  0  0  0  0  0  0  0  0  0
    0.1561   -1.0653   -0.0687 C   0  0  0  0  0  0  0  0  0  0  0  0
    1.4065   -0.3002    0.2423 C   0  0  0  0  0  0  0  0  0  0  0  0
    2.3944   -0.7459    1.0223 O   0  0  0  0  0  0  0  0  0  0  0  0
   -2.4972   -1.3275   -0.3332 H   0  0  0  0  0  0  0  0  0  0  0  0
   -2.9906    0.2670    0.3100 H   0  0  0  0  0  0  0  0  0  0  0  0
   -2.1283    0.1724   -1.3008 H   0  0  0  0  0  0  0  0  0  0  0  0
   -1.0794   -0.3429    1.4893 H   0  0  0  0  0  0  0  0  0  0  0  0
   -0.2924    1.7635    1.2339 H   0  0  0  0  0  0  0  0  0  0  0  0
   -0.8810    1.9020   -0.4606 H   0  0  0  0  0  0  0  0  0  0  0  0
    1.8440    1.8631   -0.0311 H   0  0  0  0  0  0  0  0  0  0  0  0
    2.3599    0.0658   -1.7785 H   0  0  0  0  0  0  0  0  0  0  0  0
    0.0895   -2.0958    0.2726 H   0  0  0  0  0  0  0  0  0  0  0  0
    2.0155   -1.1879    1.8359 H   0  0  0  0  0  0  0  0  0  0  0  0
  1  2  1  0
  2  3  1  0
  3  4  1  0
  4  5  1  0
  5  6  1  0
  6  7  1  0
  7  8  1  0
  8  9  1  0
  7  2  1  0
  8  4  1  0
  8  5  1  0
  1 10  1  0
  1 11  1  0
  1 12  1  0
  2 13  1  0
  3 14  1  0
  3 15  1  0
  4 16  1  0
  5 17  1  0
  7 18  1  0
  9 19  1  0
M  END
