
     RDKit          3D

 21 22  0  0  0  0  0  0  0  0999 V2000
    2.5504   -0.7838    0.2558 C   0  0  0  0  0  0  0  0  0  0  0  0
    1.4686    0.1884    0.6645 C   0  0  0  0  0  0  0  0  0  0  0  0
    1.4028    1.5480    0.0472 C   0  0  0  0  0  0  0  0  0  0  0  0
    0.4770    0.4769   -0.4578 C   0  0  0  0  0  0  0  0  0  0  0  0
   -0.9580    0.4954    0.0110 C   0  0  0  0  0  0  0  0  0  0  0  0
   -1.2438   -0.8865    0.5910 C   0  0  0  0  0  0  0  0  0  0  0  0
   -2.1516   -1.3810   -0.3466 O   0  0  0  0  0  0  0  0  0  0  0  0
   -2.8845   -0.2112   -0.6373 C   0  0  0  0  0  0  0  0  0  0  0  0
   -1.8552    0.6420   -1.0337 O   0  0  0  0  0  0  0  0  0  0  0  0
    2.0876   -1.8042    0.3186 H   0  0  0  0  0  0  0  0  0  0  0  0
    2.7789   -0.6487   -0.8347 H   0  0  0  0  0  0  0  0  0  0  0  0
    3.4760   -0.6860    0.8202 H   0  0  0  0  0  0  0  0  0  0  0  0
    1.0974    0.0359    1.6825 H   0  0  0  0  0  0  0  0  0  0  0  0
    0.9108    2.3489    0.6356 H   0  0  0  0  0  0  0  0  0  0  0  0
    2.2705    1.8411   -0.5555 H   0  0  0  0  0  0  0  0  0  0  0  0
    0.7126    0.1309   -1.4805 H   0  0  0  0  0  0  0  0  0  0  0  0
   -1.0593    1.2279    0.8081 H   0  0  0  0  0  0  0  0  0  0  0  0
   -1.8145   -0.7935    1.5472 H   0  0  0  0  0  0  0  0  0  0  0  0
   -0.3419   -1.4944    0.6902 H   0  0  0  0  0  0  0  0  0  0  0  0
   -3.2870    0.1329    0.3362 H   0  0  0  0  0  0  0  0  0  0  0  0
   -3.6370   -0.3790   -1.4088 H   0  0  0  0  0  0  0  0  0  0  0  0
  1  2  1  0
  2  3  1  0
  3  4  1  0
  4  5  1  0
  5  6  1  0
  6  7  1  0
  7  8  1  0
  8  9  1  0
  4  2  1  0
  9  5  1  0
  1 10  1  0
  1 11  1  0
  1 12  1  0
  2 13  1  0
  3 14  1  0
  3 15  1  0
  4 16  1  0
  5 17  1  0
  6 18  1  0
  6 19  1  0
  8 20  1  0
  8 21  1  0
M  END
