
     RDKit          3D

 18 19  0  0  0  0  0  0  0  0999 V2000
    1.8356    0.0464    0.0595 C   0  0  0  0  0  0  0  0  0  0  0  0
    0.4480   -0.0374    0.5825 C   0  0  0  0  0  0  0  0  0  0  0  0
   -0.5069   -0.9419   -0.1350 C   0  0  0  0  0  0  0  0  0  0  0  0
   -0.5283   -2.1946   -0.1683 O   0  0  0  0  0  0  0  0  0  0  0  0
   -1.5933   -0.0422    0.4520 C   0  0  0  0  0  0  0  0  0  0  0  0
   -0.5498    0.9198   -0.0679 C   0  0  0  0  0  0  0  0  0  0  0  0
   -0.5427    2.1642    0.0069 O   0  0  0  0  0  0  0  0  0  0  0  0
   -0.4699    0.0319   -1.2699 C   0  0  0  0  0  0  0  0  0  0  0  0
    2.4913    0.4146    0.9020 H   0  0  0  0  0  0  0  0  0  0  0  0
    1.9737    0.7897   -0.7527 H   0  0  0  0  0  0  0  0  0  0  0  0
    2.2379   -0.9580   -0.2004 H   0  0  0  0  0  0  0  0  0  0  0  0
    0.3656   -0.1229    1.6669 H   0  0  0  0  0  0  0  0  0  0  0  0
   -0.0466   -2.6415    0.5709 H   0  0  0  0  0  0  0  0  0  0  0  0
   -2.5193    0.0118   -0.1132 H   0  0  0  0  0  0  0  0  0  0  0  0
   -1.6782   -0.0892    1.5493 H   0  0  0  0  0  0  0  0  0  0  0  0
    0.0307    2.5832    0.7019 H   0  0  0  0  0  0  0  0  0  0  0  0
   -1.3784   -0.0020   -1.9086 H   0  0  0  0  0  0  0  0  0  0  0  0
    0.4306    0.0679   -1.8759 H   0  0  0  0  0  0  0  0  0  0  0  0
  1  2  1  0
  2  3  1  0
  3  4  1  0
  3  5  1  0
  5  6  1  0
  6  7  1  0
  6  8  1  0
  6  2  1  0
  8  3  1  0
  1  9  1  0
  1 10  1  0
  1 11  1  0
  2 12  1  0
  4 13  1  0
  5 14  1  0
  5 15  1  0
  7 16  1  0
  8 17  1  0
  8 18  1  0
M  END
