
     RDKit          3D

 19 19  0  0  0  0  0  0  0  0999 V2000
    2.3148   -0.1515    0.0792 C   0  0  0  0  0  0  0  0  0  0  0  0
    0.8634   -0.1133   -0.2905 C   0  0  0  0  0  0  0  0  0  0  0  0
    0.4427    1.2927   -0.4246 C   0  0  0  0  0  0  0  0  0  0  0  0
   -0.7922    1.6429   -0.1170 C   0  0  0  0  0  0  0  0  0  0  0  0
   -1.7868    0.6796    0.3620 C   0  0  0  0  0  0  0  0  0  0  0  0
   -2.8633    1.1073    0.8497 O   0  0  0  0  0  0  0  0  0  0  0  0
   -1.4446   -0.7589    0.2342 C   0  0  0  0  0  0  0  0  0  0  0  0
   -1.4911   -1.1488   -1.1144 O   0  0  0  0  0  0  0  0  0  0  0  0
    0.0047   -0.9059    0.6543 C   0  0  0  0  0  0  0  0  0  0  0  0
    2.4923   -0.1659    1.1703 H   0  0  0  0  0  0  0  0  0  0  0  0
    2.7735   -1.0733   -0.3545 H   0  0  0  0  0  0  0  0  0  0  0  0
    2.7947    0.7470   -0.3797 H   0  0  0  0  0  0  0  0  0  0  0  0
    0.7626   -0.5880   -1.2941 H   0  0  0  0  0  0  0  0  0  0  0  0
    1.1639    2.0097   -0.7754 H   0  0  0  0  0  0  0  0  0  0  0  0
   -1.1376    2.6856   -0.2065 H   0  0  0  0  0  0  0  0  0  0  0  0
   -2.1078   -1.3942    0.8575 H   0  0  0  0  0  0  0  0  0  0  0  0
   -2.3984   -1.2501   -1.4496 H   0  0  0  0  0  0  0  0  0  0  0  0
    0.2534   -1.9878    0.4780 H   0  0  0  0  0  0  0  0  0  0  0  0
    0.1557   -0.6273    1.7210 H   0  0  0  0  0  0  0  0  0  0  0  0
  1  2  1  0
  2  3  1  0
  3  4  2  0
  4  5  1  0
  5  6  2  0
  5  7  1  0
  7  8  1  0
  7  9  1  0
  9  2  1  0
  1 10  1  0
  1 11  1  0
  1 12  1  0
  2 13  1  0
  3 14  1  0
  4 15  1  0
  7 16  1  0
  8 17  1  0
  9 18  1  0
  9 19  1  0
M  END
