
     RDKit          3D

 23 24  0  0  0  0  0  0  0  0999 V2000
   -2.0281   -1.2641    0.4205 C   0  0  0  0  0  0  0  0  0  0  0  0
   -1.2383   -0.3604   -0.4977 C   0  0  0  0  0  0  0  0  0  0  0  0
   -1.3170    1.1128   -0.1677 C   0  0  0  0  0  0  0  0  0  0  0  0
    0.1362    1.0733    0.2994 C   0  0  0  0  0  0  0  0  0  0  0  0
    1.0425    2.0624   -0.3558 C   0  0  0  0  0  0  0  0  0  0  0  0
    0.1972   -0.3357   -0.1597 C   0  0  0  0  0  0  0  0  0  0  0  0
    1.2698   -0.9766   -0.8619 C   0  0  0  0  0  0  0  0  0  0  0  0
    0.9144   -1.3469    0.5902 C   0  0  0  0  0  0  0  0  0  0  0  0
    1.8293   -0.9360    1.5740 O   0  0  0  0  0  0  0  0  0  0  0  0
   -3.1000   -1.0018    0.3264 H   0  0  0  0  0  0  0  0  0  0  0  0
   -1.8097   -2.3069    0.1008 H   0  0  0  0  0  0  0  0  0  0  0  0
   -1.6378   -1.1436    1.4485 H   0  0  0  0  0  0  0  0  0  0  0  0
   -1.4387   -0.5333   -1.5781 H   0  0  0  0  0  0  0  0  0  0  0  0
   -1.4836    1.7842   -1.0435 H   0  0  0  0  0  0  0  0  0  0  0  0
   -1.9901    1.3996    0.6400 H   0  0  0  0  0  0  0  0  0  0  0  0
    0.2085    1.1119    1.4239 H   0  0  0  0  0  0  0  0  0  0  0  0
    2.0441    1.6171   -0.5717 H   0  0  0  0  0  0  0  0  0  0  0  0
    1.2444    2.8810    0.3812 H   0  0  0  0  0  0  0  0  0  0  0  0
    0.6457    2.5054   -1.2801 H   0  0  0  0  0  0  0  0  0  0  0  0
    2.2298   -0.4602   -1.0406 H   0  0  0  0  0  0  0  0  0  0  0  0
    1.0809   -1.8010   -1.5719 H   0  0  0  0  0  0  0  0  0  0  0  0
    0.4912   -2.3424    0.7825 H   0  0  0  0  0  0  0  0  0  0  0  0
    2.7091   -0.7389    1.1411 H   0  0  0  0  0  0  0  0  0  0  0  0
  1  2  1  0
  2  3  1  0
  3  4  1  0
  4  5  1  0
  4  6  1  0
  6  7  1  0
  7  8  1  0
  8  9  1  0
  6  2  1  0
  8  6  1  0
  1 10  1  0
  1 11  1  0
  1 12  1  0
  2 13  1  0
  3 14  1  0
  3 15  1  0
  4 16  1  0
  5 17  1  0
  5 18  1  0
  5 19  1  0
  7 20  1  0
  7 21  1  0
  8 22  1  0
  9 23  1  0
M  END
