
     RDKit          3D

 19 21  0  0  0  0  0  0  0  0999 V2000
   -0.7301    1.8428    0.1610 C   0  0  0  0  0  0  0  0  0  0  0  0
   -0.5134    0.4630   -0.3406 C   0  0  0  0  0  0  0  0  0  0  0  0
   -1.4065   -0.5709    0.3406 C   0  0  0  0  0  0  0  0  0  0  0  0
   -0.8131   -1.8521   -0.1963 C   0  0  0  0  0  0  0  0  0  0  0  0
   -0.1370   -1.8350   -1.4057 O   0  0  0  0  0  0  0  0  0  0  0  0
    0.6610   -1.5668   -0.2978 C   0  0  0  0  0  0  0  0  0  0  0  0
    0.8506   -0.1018   -0.0235 C   0  0  0  0  0  0  0  0  0  0  0  0
    2.0566    0.6089    0.0176 C   0  0  0  0  0  0  0  0  0  0  0  0
    1.4052    0.2756    1.2126 O   0  0  0  0  0  0  0  0  0  0  0  0
    0.2092    2.4390   -0.0339 H   0  0  0  0  0  0  0  0  0  0  0  0
   -1.0754    1.9102    1.1907 H   0  0  0  0  0  0  0  0  0  0  0  0
   -1.5022    2.3540   -0.4867 H   0  0  0  0  0  0  0  0  0  0  0  0
   -0.6776    0.3399   -1.4235 H   0  0  0  0  0  0  0  0  0  0  0  0
   -1.1708   -0.5350    1.4428 H   0  0  0  0  0  0  0  0  0  0  0  0
   -2.4618   -0.4374    0.1187 H   0  0  0  0  0  0  0  0  0  0  0  0
   -1.1854   -2.8186    0.1336 H   0  0  0  0  0  0  0  0  0  0  0  0
    1.3735   -2.3062    0.0660 H   0  0  0  0  0  0  0  0  0  0  0  0
    2.0938    1.6900   -0.2698 H   0  0  0  0  0  0  0  0  0  0  0  0
    3.0234    0.1004   -0.2058 H   0  0  0  0  0  0  0  0  0  0  0  0
  1  2  1  0
  2  3  1  0
  3  4  1  0
  4  5  1  0
  5  6  1  0
  6  7  1  0
  7  8  1  0
  8  9  1  0
  7  2  1  0
  6  4  1  0
  9  7  1  0
  1 10  1  0
  1 11  1  0
  1 12  1  0
  2 13  1  0
  3 14  1  0
  3 15  1  0
  4 16  1  0
  6 17  1  0
  8 18  1  0
  8 19  1  0
M  END
