
     RDKit          3D

 21 22  0  0  0  0  0  0  0  0999 V2000
    2.3262    0.0556   -0.1776 C   0  0  0  0  0  0  0  0  0  0  0  0
    1.0895    0.3007    0.6024 C   0  0  0  0  0  0  0  0  0  0  0  0
    0.1808   -0.9220    0.7845 C   0  0  0  0  0  0  0  0  0  0  0  0
    0.6461   -1.9415   -0.0111 O   0  0  0  0  0  0  0  0  0  0  0  0
   -0.9873   -0.1433    0.2879 C   0  0  0  0  0  0  0  0  0  0  0  0
   -2.0302   -0.7391   -0.5780 C   0  0  0  0  0  0  0  0  0  0  0  0
   -1.2217    1.2700    0.7173 C   0  0  0  0  0  0  0  0  0  0  0  0
   -0.0709    0.9248   -0.1421 C   0  0  0  0  0  0  0  0  0  0  0  0
    0.0253    1.2552   -1.4576 O   0  0  0  0  0  0  0  0  0  0  0  0
    2.4920    0.8978   -0.9084 H   0  0  0  0  0  0  0  0  0  0  0  0
    3.1975    0.1413    0.5367 H   0  0  0  0  0  0  0  0  0  0  0  0
    2.3893   -0.9297   -0.6399 H   0  0  0  0  0  0  0  0  0  0  0  0
    1.2161    0.8042    1.5766 H   0  0  0  0  0  0  0  0  0  0  0  0
    0.1233   -1.2709    1.8451 H   0  0  0  0  0  0  0  0  0  0  0  0
   -0.0254   -2.4340   -0.5002 H   0  0  0  0  0  0  0  0  0  0  0  0
   -2.9101   -1.0200    0.0709 H   0  0  0  0  0  0  0  0  0  0  0  0
   -2.4404    0.0691   -1.2485 H   0  0  0  0  0  0  0  0  0  0  0  0
   -1.7171   -1.5539   -1.2251 H   0  0  0  0  0  0  0  0  0  0  0  0
   -2.0365    1.8153    0.2559 H   0  0  0  0  0  0  0  0  0  0  0  0
   -1.0052    1.5129    1.7958 H   0  0  0  0  0  0  0  0  0  0  0  0
    0.7587    1.9075   -1.5846 H   0  0  0  0  0  0  0  0  0  0  0  0
  1  2  1  0
  2  3  1  0
  3  4  1  0
  3  5  1  0
  5  6  1  0
  5  7  1  0
  7  8  1  0
  8  9  1  0
  8  2  1  0
  8  5  1  0
  1 10  1  0
  1 11  1  0
  1 12  1  0
  2 13  1  0
  3 14  1  0
  4 15  1  0
  6 16  1  0
  6 17  1  0
  6 18  1  0
  7 19  1  0
  7 20  1  0
  9 21  1  0
M  END
