
     RDKit          3D

 23 24  0  0  0  0  0  0  0  0999 V2000
    2.3769    0.0811   -0.4442 C   0  0  0  0  0  0  0  0  0  0  0  0
    1.2064   -0.3976    0.3589 C   0  0  0  0  0  0  0  0  0  0  0  0
    0.1904   -1.1513   -0.5258 C   0  0  0  0  0  0  0  0  0  0  0  0
   -1.0268   -0.3129   -0.2631 C   0  0  0  0  0  0  0  0  0  0  0  0
   -2.3016   -0.6545   -0.8485 C   0  0  0  0  0  0  0  0  0  0  0  0
   -0.9375   -0.1042    1.2448 C   0  0  0  0  0  0  0  0  0  0  0  0
    0.3200    0.6868    0.8634 C   0  0  0  0  0  0  0  0  0  0  0  0
    0.7514    1.6320    1.6825 O   0  0  0  0  0  0  0  0  0  0  0  0
   -0.4992    1.1000   -0.3700 C   0  0  0  0  0  0  0  0  0  0  0  0
    3.3135   -0.2600    0.0711 H   0  0  0  0  0  0  0  0  0  0  0  0
    2.4489    1.1616   -0.5610 H   0  0  0  0  0  0  0  0  0  0  0  0
    2.3992   -0.3624   -1.4787 H   0  0  0  0  0  0  0  0  0  0  0  0
    1.4980   -1.0341    1.2304 H   0  0  0  0  0  0  0  0  0  0  0  0
    0.0798   -2.1853   -0.1710 H   0  0  0  0  0  0  0  0  0  0  0  0
    0.5341   -1.1177   -1.5788 H   0  0  0  0  0  0  0  0  0  0  0  0
   -2.8789    0.2855   -1.0814 H   0  0  0  0  0  0  0  0  0  0  0  0
   -2.9228   -1.2391   -0.1112 H   0  0  0  0  0  0  0  0  0  0  0  0
   -2.1866   -1.1758   -1.8061 H   0  0  0  0  0  0  0  0  0  0  0  0
   -1.7634    0.5154    1.5836 H   0  0  0  0  0  0  0  0  0  0  0  0
   -0.7371   -1.0436    1.7829 H   0  0  0  0  0  0  0  0  0  0  0  0
    1.1761    2.3781    1.1717 H   0  0  0  0  0  0  0  0  0  0  0  0
    0.1707    1.2987   -1.2244 H   0  0  0  0  0  0  0  0  0  0  0  0
   -1.2115    1.8993   -0.1140 H   0  0  0  0  0  0  0  0  0  0  0  0
  1  2  1  0
  2  3  1  0
  3  4  1  0
  4  5  1  0
  4  6  1  0
  6  7  1  0
  7  8  1  0
  7  9  1  0
  7  2  1  0
  9  4  1  0
  1 10  1  0
  1 11  1  0
  1 12  1  0
  2 13  1  0
  3 14  1  0
  3 15  1  0
  5 16  1  0
  5 17  1  0
  5 18  1  0
  6 19  1  0
  6 20  1  0
  8 21  1  0
  9 22  1  0
  9 23  1  0
M  END
