
     RDKit          3D

 19 21  0  0  0  0  0  0  0  0999 V2000
   -1.6135   -0.9003    0.6487 C   0  0  0  0  0  0  0  0  0  0  0  0
   -1.2325    0.3833    0.0019 C   0  0  0  0  0  0  0  0  0  0  0  0
   -0.0667    1.1366    0.6093 C   0  0  0  0  0  0  0  0  0  0  0  0
    0.2702    1.4786   -0.7857 C   0  0  0  0  0  0  0  0  0  0  0  0
    0.7125    2.4140   -1.3654 O   0  0  0  0  0  0  0  0  0  0  0  0
   -0.1990    0.1213   -1.1085 C   0  0  0  0  0  0  0  0  0  0  0  0
    0.7389   -0.8001   -0.3821 C   0  0  0  0  0  0  0  0  0  0  0  0
    2.0592   -0.2315   -0.0288 C   0  0  0  0  0  0  0  0  0  0  0  0
    0.9225    0.0487    0.9229 C   0  0  0  0  0  0  0  0  0  0  0  0
   -0.9108   -1.2835    1.3882 H   0  0  0  0  0  0  0  0  0  0  0  0
   -2.6114   -0.8448    1.1532 H   0  0  0  0  0  0  0  0  0  0  0  0
   -1.7627   -1.6578   -0.1749 H   0  0  0  0  0  0  0  0  0  0  0  0
   -2.0462    1.0173   -0.3457 H   0  0  0  0  0  0  0  0  0  0  0  0
   -0.2610    1.9034    1.3187 H   0  0  0  0  0  0  0  0  0  0  0  0
   -0.5643   -0.1207   -2.0691 H   0  0  0  0  0  0  0  0  0  0  0  0
    0.4496   -1.8326   -0.1733 H   0  0  0  0  0  0  0  0  0  0  0  0
    2.8056   -0.9503    0.3404 H   0  0  0  0  0  0  0  0  0  0  0  0
    2.4072    0.6082   -0.6754 H   0  0  0  0  0  0  0  0  0  0  0  0
    0.9025   -0.4899    1.8702 H   0  0  0  0  0  0  0  0  0  0  0  0
  1  2  1  0
  2  3  1  0
  3  4  1  0
  4  5  2  0
  4  6  1  0
  6  7  1  0
  7  8  1  0
  8  9  1  0
  6  2  1  0
  9  7  1  0
  9  3  1  0
  1 10  1  0
  1 11  1  0
  1 12  1  0
  2 13  1  0
  3 14  1  0
  6 15  1  0
  7 16  1  0
  8 17  1  0
  8 18  1  0
  9 19  1  0
M  END
