
     RDKit          3D

 23 23  0  0  0  0  0  0  0  0999 V2000
   -2.1684   -0.0338    0.3608 C   0  0  0  0  0  0  0  0  0  0  0  0
   -1.0290   -0.0736   -0.6486 C   0  0  0  0  0  0  0  0  0  0  0  0
   -0.3566    1.2712   -0.6544 C   0  0  0  0  0  0  0  0  0  0  0  0
    0.3267    1.5901    0.6406 C   0  0  0  0  0  0  0  0  0  0  0  0
    0.8047    0.4237    1.2669 O   0  0  0  0  0  0  0  0  0  0  0  0
    1.8855   -0.0061    0.4865 C   0  0  0  0  0  0  0  0  0  0  0  0
    1.3316   -0.9334   -0.5707 C   0  0  0  0  0  0  0  0  0  0  0  0
   -0.1343   -1.2177   -0.3882 C   0  0  0  0  0  0  0  0  0  0  0  0
   -0.2766   -1.7700    0.8984 O   0  0  0  0  0  0  0  0  0  0  0  0
   -1.9499   -0.6222    1.2671 H   0  0  0  0  0  0  0  0  0  0  0  0
   -3.1093   -0.4572   -0.0627 H   0  0  0  0  0  0  0  0  0  0  0  0
   -2.4109    1.0067    0.6706 H   0  0  0  0  0  0  0  0  0  0  0  0
   -1.5316   -0.1775   -1.6509 H   0  0  0  0  0  0  0  0  0  0  0  0
    0.3157    1.3022   -1.5355 H   0  0  0  0  0  0  0  0  0  0  0  0
   -1.1500    2.0338   -0.8600 H   0  0  0  0  0  0  0  0  0  0  0  0
    1.2471    2.1958    0.4148 H   0  0  0  0  0  0  0  0  0  0  0  0
   -0.2994    2.1411    1.3475 H   0  0  0  0  0  0  0  0  0  0  0  0
    2.3811    0.8699    0.0196 H   0  0  0  0  0  0  0  0  0  0  0  0
    2.6032   -0.4850    1.1610 H   0  0  0  0  0  0  0  0  0  0  0  0
    1.5972   -0.6296   -1.5983 H   0  0  0  0  0  0  0  0  0  0  0  0
    1.8594   -1.9208   -0.4111 H   0  0  0  0  0  0  0  0  0  0  0  0
   -0.3915   -2.0415   -1.0951 H   0  0  0  0  0  0  0  0  0  0  0  0
    0.4552   -2.4661    0.9417 H   0  0  0  0  0  0  0  0  0  0  0  0
  1  2  1  0
  2  3  1  0
  3  4  1  0
  4  5  1  0
  5  6  1  0
  6  7  1  0
  7  8  1  0
  8  9  1  0
  8  2  1  0
  1 10  1  0
  1 11  1  0
  1 12  1  0
  2 13  1  0
  3 14  1  0
  3 15  1  0
  4 16  1  0
  4 17  1  0
  6 18  1  0
  6 19  1  0
  7 20  1  0
  7 21  1  0
  8 22  1  0
  9 23  1  0
M  END
