
     RDKit          3D

 23 25  0  0  0  0  0  0  0  0999 V2000
   -3.3071   -0.1880   -0.1516 C   0  0  0  0  0  0  0  0  0  0  0  0
   -1.9160   -0.3500    0.4910 C   0  0  0  0  0  0  0  0  0  0  0  0
   -0.8711   -0.7796   -0.3547 C   0  0  0  0  0  0  0  0  0  0  0  0
    0.0296    0.0423   -1.2742 C   0  0  0  0  0  0  0  0  0  0  0  0
    0.5657    0.4781    0.0584 C   0  0  0  0  0  0  0  0  0  0  0  0
    1.6126    1.4114    0.3121 C   0  0  0  0  0  0  0  0  0  0  0  0
    1.6093   -0.0574    0.8213 C   0  0  0  0  0  0  0  0  0  0  0  0
    2.7454   -0.8605    0.2594 C   0  0  0  0  0  0  0  0  0  0  0  0
   -0.8839    0.6335    0.3738 C   0  0  0  0  0  0  0  0  0  0  0  0
   -3.5117   -0.9894   -0.8581 H   0  0  0  0  0  0  0  0  0  0  0  0
   -4.0803    0.0159    0.5895 H   0  0  0  0  0  0  0  0  0  0  0  0
   -3.2132    0.7548   -0.7672 H   0  0  0  0  0  0  0  0  0  0  0  0
   -2.0563   -0.7800    1.5299 H   0  0  0  0  0  0  0  0  0  0  0  0
   -0.1671   -1.5278    0.1399 H   0  0  0  0  0  0  0  0  0  0  0  0
   -0.4579    0.8682   -1.7861 H   0  0  0  0  0  0  0  0  0  0  0  0
    0.6639   -0.5623   -1.9099 H   0  0  0  0  0  0  0  0  0  0  0  0
    1.4919    2.1864    1.1211 H   0  0  0  0  0  0  0  0  0  0  0  0
    2.3140    1.6858   -0.4724 H   0  0  0  0  0  0  0  0  0  0  0  0
    1.4994   -0.1621    1.9384 H   0  0  0  0  0  0  0  0  0  0  0  0
    2.8162   -1.8667    0.6692 H   0  0  0  0  0  0  0  0  0  0  0  0
    2.6162   -0.8494   -0.8621 H   0  0  0  0  0  0  0  0  0  0  0  0
    3.7317   -0.3677    0.4283 H   0  0  0  0  0  0  0  0  0  0  0  0
   -1.2312    1.4885   -0.2961 H   0  0  0  0  0  0  0  0  0  0  0  0
  1  2  1  0
  2  3  1  0
  3  4  1  0
  4  5  1  0
  5  6  1  0
  6  7  1  0
  7  8  1  0
  5  9  1  0
  9  2  1  0
  9  3  1  0
  7  5  1  0
  1 10  1  0
  1 11  1  0
  1 12  1  0
  2 13  1  0
  3 14  1  0
  4 15  1  0
  4 16  1  0
  6 17  1  0
  6 18  1  0
  7 19  1  0
  8 20  1  0
  8 21  1  0
  8 22  1  0
  9 23  1  0
M  END
