
     RDKit          3D

 18 19  0  0  0  0  0  0  0  0999 V2000
   -2.1221   -0.4042   -0.0507 C   0  0  0  0  0  0  0  0  0  0  0  0
   -1.0627    0.2032   -0.9626 C   0  0  0  0  0  0  0  0  0  0  0  0
    0.2084   -0.6161   -1.0461 C   0  0  0  0  0  0  0  0  0  0  0  0
    0.7101    0.2036    0.0859 C   0  0  0  0  0  0  0  0  0  0  0  0
    1.1120   -0.3176    1.3832 C   0  0  0  0  0  0  0  0  0  0  0  0
    2.1017    0.3914    0.4112 C   0  0  0  0  0  0  0  0  0  0  0  0
   -0.2878    1.2183   -0.1540 C   0  0  0  0  0  0  0  0  0  0  0  0
   -0.6010    2.3840    0.0631 O   0  0  0  0  0  0  0  0  0  0  0  0
   -2.9253    0.3630    0.0456 H   0  0  0  0  0  0  0  0  0  0  0  0
   -1.6596   -0.5418    0.9419 H   0  0  0  0  0  0  0  0  0  0  0  0
   -2.4883   -1.3577   -0.4643 H   0  0  0  0  0  0  0  0  0  0  0  0
   -1.4309    0.5892   -1.9148 H   0  0  0  0  0  0  0  0  0  0  0  0
    0.1057   -1.6862   -0.9040 H   0  0  0  0  0  0  0  0  0  0  0  0
    0.7481   -0.3650   -1.9863 H   0  0  0  0  0  0  0  0  0  0  0  0
    1.3032   -1.3821    1.5917 H   0  0  0  0  0  0  0  0  0  0  0  0
    0.9323    0.2711    2.3151 H   0  0  0  0  0  0  0  0  0  0  0  0
    2.8394   -0.3013   -0.0847 H   0  0  0  0  0  0  0  0  0  0  0  0
    2.5167    1.3483    0.7298 H   0  0  0  0  0  0  0  0  0  0  0  0
  1  2  1  0
  2  3  1  0
  3  4  1  0
  4  5  1  0
  5  6  1  0
  4  7  1  0
  7  8  2  0
  7  2  1  0
  6  4  1  0
  1  9  1  0
  1 10  1  0
  1 11  1  0
  2 12  1  0
  3 13  1  0
  3 14  1  0
  5 15  1  0
  5 16  1  0
  6 17  1  0
  6 18  1  0
M  END
