
     RDKit          3D

 23 24  0  0  0  0  0  0  0  0999 V2000
   -1.1450    1.6498   -0.6436 C   0  0  0  0  0  0  0  0  0  0  0  0
   -0.7887    0.1832   -0.7002 C   0  0  0  0  0  0  0  0  0  0  0  0
   -2.1122   -0.6108   -0.5072 C   0  0  0  0  0  0  0  0  0  0  0  0
   -1.2054   -1.6669    0.1566 C   0  0  0  0  0  0  0  0  0  0  0  0
   -0.3319   -0.4618    0.5475 C   0  0  0  0  0  0  0  0  0  0  0  0
    1.0557   -0.8767    0.7691 C   0  0  0  0  0  0  0  0  0  0  0  0
    2.1308    0.1257    0.7565 C   0  0  0  0  0  0  0  0  0  0  0  0
    2.3626    0.9312   -0.4913 C   0  0  0  0  0  0  0  0  0  0  0  0
    1.8585    1.4864    0.6794 O   0  0  0  0  0  0  0  0  0  0  0  0
   -0.3512    2.2888   -1.0843 H   0  0  0  0  0  0  0  0  0  0  0  0
   -2.0631    1.8445   -1.2708 H   0  0  0  0  0  0  0  0  0  0  0  0
   -1.2868    1.9775    0.3983 H   0  0  0  0  0  0  0  0  0  0  0  0
   -0.3460   -0.1300   -1.6679 H   0  0  0  0  0  0  0  0  0  0  0  0
   -2.7601   -0.1758    0.2799 H   0  0  0  0  0  0  0  0  0  0  0  0
   -2.5773   -0.9264   -1.4389 H   0  0  0  0  0  0  0  0  0  0  0  0
   -1.6642   -2.1889    0.9951 H   0  0  0  0  0  0  0  0  0  0  0  0
   -0.7236   -2.2848   -0.6013 H   0  0  0  0  0  0  0  0  0  0  0  0
   -0.7450    0.0717    1.4422 H   0  0  0  0  0  0  0  0  0  0  0  0
    1.3638   -1.7190    0.0672 H   0  0  0  0  0  0  0  0  0  0  0  0
    1.1002   -1.4007    1.7750 H   0  0  0  0  0  0  0  0  0  0  0  0
    3.0813   -0.1173    1.3236 H   0  0  0  0  0  0  0  0  0  0  0  0
    1.7288    0.8369   -1.3849 H   0  0  0  0  0  0  0  0  0  0  0  0
    3.4186    1.1634   -0.7742 H   0  0  0  0  0  0  0  0  0  0  0  0
  1  2  1  0
  2  3  1  0
  3  4  1  0
  4  5  1  0
  5  6  1  0
  6  7  1  0
  7  8  1  0
  8  9  1  0
  5  2  1  0
  9  7  1  0
  1 10  1  0
  1 11  1  0
  1 12  1  0
  2 13  1  0
  3 14  1  0
  3 15  1  0
  4 16  1  0
  4 17  1  0
  5 18  1  0
  6 19  1  0
  6 20  1  0
  7 21  1  0
  8 22  1  0
  8 23  1  0
M  END
