
     RDKit          3D

 23 24  0  0  0  0  0  0  0  0999 V2000
   -1.1271    1.1676    0.9805 C   0  0  0  0  0  0  0  0  0  0  0  0
   -1.1175    0.4278   -0.3137 C   0  0  0  0  0  0  0  0  0  0  0  0
   -2.0345   -0.7990   -0.1509 C   0  0  0  0  0  0  0  0  0  0  0  0
   -1.0284   -1.9502   -0.1380 C   0  0  0  0  0  0  0  0  0  0  0  0
    0.1738   -1.3053    0.2377 O   0  0  0  0  0  0  0  0  0  0  0  0
    0.1506   -0.2408   -0.6862 C   0  0  0  0  0  0  0  0  0  0  0  0
    1.3833    0.5543   -0.7294 C   0  0  0  0  0  0  0  0  0  0  0  0
    1.9948    1.2738    0.3850 C   0  0  0  0  0  0  0  0  0  0  0  0
    2.5502   -0.0639    0.0606 C   0  0  0  0  0  0  0  0  0  0  0  0
   -2.2073    1.3044    1.2902 H   0  0  0  0  0  0  0  0  0  0  0  0
   -0.6794    2.1737    0.8681 H   0  0  0  0  0  0  0  0  0  0  0  0
   -0.6832    0.5559    1.7658 H   0  0  0  0  0  0  0  0  0  0  0  0
   -1.5515    1.0208   -1.1475 H   0  0  0  0  0  0  0  0  0  0  0  0
   -2.5517   -0.7823    0.8233 H   0  0  0  0  0  0  0  0  0  0  0  0
   -2.7348   -0.8931   -0.9823 H   0  0  0  0  0  0  0  0  0  0  0  0
   -1.3067   -2.7490    0.5435 H   0  0  0  0  0  0  0  0  0  0  0  0
   -0.9162   -2.3528   -1.1738 H   0  0  0  0  0  0  0  0  0  0  0  0
   -0.0143   -0.7361   -1.6698 H   0  0  0  0  0  0  0  0  0  0  0  0
    1.6576    0.9287   -1.7534 H   0  0  0  0  0  0  0  0  0  0  0  0
    1.5202    1.3926    1.3780 H   0  0  0  0  0  0  0  0  0  0  0  0
    2.6926    2.1242    0.1513 H   0  0  0  0  0  0  0  0  0  0  0  0
    2.3368   -0.8708    0.7582 H   0  0  0  0  0  0  0  0  0  0  0  0
    3.4929   -0.1803   -0.4970 H   0  0  0  0  0  0  0  0  0  0  0  0
  1  2  1  0
  2  3  1  0
  3  4  1  0
  4  5  1  0
  5  6  1  0
  6  7  1  0
  7  8  1  0
  8  9  1  0
  6  2  1  0
  9  7  1  0
  1 10  1  0
  1 11  1  0
  1 12  1  0
  2 13  1  0
  3 14  1  0
  3 15  1  0
  4 16  1  0
  4 17  1  0
  6 18  1  0
  7 19  1  0
  8 20  1  0
  8 21  1  0
  9 22  1  0
  9 23  1  0
M  END
