
     RDKit          3D

 23 24  0  0  0  0  0  0  0  0999 V2000
   -1.7154   -0.1496   -1.6357 C   0  0  0  0  0  0  0  0  0  0  0  0
   -1.0920   -0.6764   -0.3650 C   0  0  0  0  0  0  0  0  0  0  0  0
   -1.8550   -0.1780    0.8702 C   0  0  0  0  0  0  0  0  0  0  0  0
   -2.2740    1.1193    0.6410 O   0  0  0  0  0  0  0  0  0  0  0  0
   -0.4855   -0.1473    1.5542 C   0  0  0  0  0  0  0  0  0  0  0  0
    0.0666    0.1507    0.1579 C   0  0  0  0  0  0  0  0  0  0  0  0
    1.4265   -0.4531   -0.0471 C   0  0  0  0  0  0  0  0  0  0  0  0
    2.5620    0.3867    0.4806 C   0  0  0  0  0  0  0  0  0  0  0  0
    2.3832    0.0914   -1.0012 C   0  0  0  0  0  0  0  0  0  0  0  0
   -1.8190    0.9565   -1.5550 H   0  0  0  0  0  0  0  0  0  0  0  0
   -2.6655   -0.6580   -1.8149 H   0  0  0  0  0  0  0  0  0  0  0  0
   -1.0293   -0.3884   -2.4700 H   0  0  0  0  0  0  0  0  0  0  0  0
   -0.9594   -1.7595   -0.3395 H   0  0  0  0  0  0  0  0  0  0  0  0
   -2.5695   -0.8763    1.2887 H   0  0  0  0  0  0  0  0  0  0  0  0
   -1.8968    1.7465    1.3357 H   0  0  0  0  0  0  0  0  0  0  0  0
   -0.3475    0.6517    2.2801 H   0  0  0  0  0  0  0  0  0  0  0  0
   -0.1788   -1.1676    1.8507 H   0  0  0  0  0  0  0  0  0  0  0  0
   -0.0477    1.2039   -0.1056 H   0  0  0  0  0  0  0  0  0  0  0  0
    1.5121   -1.5239    0.2244 H   0  0  0  0  0  0  0  0  0  0  0  0
    3.4184   -0.0796    0.9820 H   0  0  0  0  0  0  0  0  0  0  0  0
    2.3588    1.4413    0.7900 H   0  0  0  0  0  0  0  0  0  0  0  0
    2.0943    0.9293   -1.6462 H   0  0  0  0  0  0  0  0  0  0  0  0
    3.1132   -0.6197   -1.4751 H   0  0  0  0  0  0  0  0  0  0  0  0
  1  2  1  0
  2  3  1  0
  3  4  1  0
  3  5  1  0
  5  6  1  0
  6  7  1  0
  7  8  1  0
  8  9  1  0
  6  2  1  0
  9  7  1  0
  1 10  1  0
  1 11  1  0
  1 12  1  0
  2 13  1  0
  3 14  1  0
  4 15  1  0
  5 16  1  0
  5 17  1  0
  6 18  1  0
  7 19  1  0
  8 20  1  0
  8 21  1  0
  9 22  1  0
  9 23  1  0
M  END
