
     RDKit          3D

 23 24  0  0  0  0  0  0  0  0999 V2000
    2.4820    0.4488   -0.6025 C   0  0  0  0  0  0  0  0  0  0  0  0
    0.9936    0.3522   -0.5071 C   0  0  0  0  0  0  0  0  0  0  0  0
    0.4231    1.0437    0.7334 C   0  0  0  0  0  0  0  0  0  0  0  0
   -0.9483    1.4816    0.4526 C   0  0  0  0  0  0  0  0  0  0  0  0
   -1.9125    0.7928   -0.1416 C   0  0  0  0  0  0  0  0  0  0  0  0
   -2.0488   -0.6462   -0.3046 C   0  0  0  0  0  0  0  0  0  0  0  0
   -0.8043   -1.4062   -0.5800 C   0  0  0  0  0  0  0  0  0  0  0  0
    0.4369   -0.9254    0.0356 C   0  0  0  0  0  0  0  0  0  0  0  0
    0.3299   -0.3307    1.3914 C   0  0  0  0  0  0  0  0  0  0  0  0
    2.7680    0.1297   -1.6439 H   0  0  0  0  0  0  0  0  0  0  0  0
    2.9708   -0.1978    0.1552 H   0  0  0  0  0  0  0  0  0  0  0  0
    2.8156    1.5071   -0.4357 H   0  0  0  0  0  0  0  0  0  0  0  0
    0.4868    0.6949   -1.4357 H   0  0  0  0  0  0  0  0  0  0  0  0
    1.0909    1.7405    1.2276 H   0  0  0  0  0  0  0  0  0  0  0  0
   -1.2205    2.5007    0.7679 H   0  0  0  0  0  0  0  0  0  0  0  0
   -2.7160    1.3834   -0.5668 H   0  0  0  0  0  0  0  0  0  0  0  0
   -2.7545   -0.8482   -1.1384 H   0  0  0  0  0  0  0  0  0  0  0  0
   -2.5849   -1.0366    0.6117 H   0  0  0  0  0  0  0  0  0  0  0  0
   -0.6453   -1.4780   -1.6946 H   0  0  0  0  0  0  0  0  0  0  0  0
   -0.9762   -2.4599   -0.2581 H   0  0  0  0  0  0  0  0  0  0  0  0
    1.2283   -1.7137    0.0208 H   0  0  0  0  0  0  0  0  0  0  0  0
    1.2215   -0.5048    2.0387 H   0  0  0  0  0  0  0  0  0  0  0  0
   -0.6363   -0.5280    1.8740 H   0  0  0  0  0  0  0  0  0  0  0  0
  1  2  1  0
  2  3  1  0
  3  4  1  0
  4  5  2  0
  5  6  1  0
  6  7  1  0
  7  8  1  0
  8  9  1  0
  8  2  1  0
  9  3  1  0
  1 10  1  0
  1 11  1  0
  1 12  1  0
  2 13  1  0
  3 14  1  0
  4 15  1  0
  5 16  1  0
  6 17  1  0
  6 18  1  0
  7 19  1  0
  7 20  1  0
  8 21  1  0
  9 22  1  0
  9 23  1  0
M  END
