
     RDKit          3D

 23 24  0  0  0  0  0  0  0  0999 V2000
   -1.6700   -0.8364    1.1504 C   0  0  0  0  0  0  0  0  0  0  0  0
   -0.7113   -0.6953    0.0387 C   0  0  0  0  0  0  0  0  0  0  0  0
   -0.9410    0.5997   -0.7668 C   0  0  0  0  0  0  0  0  0  0  0  0
   -1.4572    1.6045   -0.0010 O   0  0  0  0  0  0  0  0  0  0  0  0
    0.4627    0.9295   -1.3062 C   0  0  0  0  0  0  0  0  0  0  0  0
    1.0917   -0.3824   -1.1870 C   0  0  0  0  0  0  0  0  0  0  0  0
    1.8934   -1.0749   -0.2783 C   0  0  0  0  0  0  0  0  0  0  0  0
    0.7110   -0.5743    0.3370 C   0  0  0  0  0  0  0  0  0  0  0  0
    1.0027    0.5426    1.2848 C   0  0  0  0  0  0  0  0  0  0  0  0
   -1.4204   -0.3433    2.0902 H   0  0  0  0  0  0  0  0  0  0  0  0
   -2.6522   -0.3980    0.8158 H   0  0  0  0  0  0  0  0  0  0  0  0
   -1.8557   -1.9079    1.3566 H   0  0  0  0  0  0  0  0  0  0  0  0
   -0.8739   -1.5323   -0.6745 H   0  0  0  0  0  0  0  0  0  0  0  0
   -1.6416    0.3811   -1.5857 H   0  0  0  0  0  0  0  0  0  0  0  0
   -2.0404    2.1606   -0.5486 H   0  0  0  0  0  0  0  0  0  0  0  0
    0.2950    1.2310   -2.3685 H   0  0  0  0  0  0  0  0  0  0  0  0
    0.9134    1.7758   -0.8203 H   0  0  0  0  0  0  0  0  0  0  0  0
    0.5544   -1.0788   -1.9069 H   0  0  0  0  0  0  0  0  0  0  0  0
    2.9202   -0.6563   -0.0840 H   0  0  0  0  0  0  0  0  0  0  0  0
    1.9957   -2.1991   -0.2909 H   0  0  0  0  0  0  0  0  0  0  0  0
    1.4398    0.0780    2.2112 H   0  0  0  0  0  0  0  0  0  0  0  0
    0.1751    1.1468    1.6060 H   0  0  0  0  0  0  0  0  0  0  0  0
    1.8088    1.2293    0.9282 H   0  0  0  0  0  0  0  0  0  0  0  0
  1  2  1  0
  2  3  1  0
  3  4  1  0
  3  5  1  0
  5  6  1  0
  6  7  1  0
  7  8  1  0
  8  9  1  0
  8  2  1  0
  8  6  1  0
  1 10  1  0
  1 11  1  0
  1 12  1  0
  2 13  1  0
  3 14  1  0
  4 15  1  0
  5 16  1  0
  5 17  1  0
  6 18  1  0
  7 19  1  0
  7 20  1  0
  9 21  1  0
  9 22  1  0
  9 23  1  0
M  END
