
     RDKit          3D

 18 19  0  0  0  0  0  0  0  0999 V2000
   -1.6530   -0.8115    0.5669 C   0  0  0  0  0  0  0  0  0  0  0  0
   -1.1001    0.3351   -0.2322 C   0  0  0  0  0  0  0  0  0  0  0  0
   -0.4490    1.3709    0.5878 C   0  0  0  0  0  0  0  0  0  0  0  0
    0.8635    1.4196    0.4259 C   0  0  0  0  0  0  0  0  0  0  0  0
    1.2833    0.4041   -0.5434 C   0  0  0  0  0  0  0  0  0  0  0  0
    1.5580   -0.9685    0.0519 C   0  0  0  0  0  0  0  0  0  0  0  0
    0.4879   -1.4433   -0.7189 O   0  0  0  0  0  0  0  0  0  0  0  0
    0.0239   -0.1759   -1.0905 C   0  0  0  0  0  0  0  0  0  0  0  0
   -1.7047   -0.6223    1.6483 H   0  0  0  0  0  0  0  0  0  0  0  0
   -2.6922   -1.0012    0.1862 H   0  0  0  0  0  0  0  0  0  0  0  0
   -1.0684   -1.7536    0.4035 H   0  0  0  0  0  0  0  0  0  0  0  0
   -1.8538    0.7916   -0.9048 H   0  0  0  0  0  0  0  0  0  0  0  0
   -0.9762    2.0369    1.2628 H   0  0  0  0  0  0  0  0  0  0  0  0
    1.5783    2.0988    0.9185 H   0  0  0  0  0  0  0  0  0  0  0  0
    2.0082    0.7263   -1.3184 H   0  0  0  0  0  0  0  0  0  0  0  0
    1.2894   -0.9536    1.1338 H   0  0  0  0  0  0  0  0  0  0  0  0
    2.5418   -1.3985   -0.1916 H   0  0  0  0  0  0  0  0  0  0  0  0
   -0.1368   -0.0550   -2.1858 H   0  0  0  0  0  0  0  0  0  0  0  0
  1  2  1  0
  2  3  1  0
  3  4  2  0
  4  5  1  0
  5  6  1  0
  6  7  1  0
  7  8  1  0
  8  2  1  0
  8  5  1  0
  1  9  1  0
  1 10  1  0
  1 11  1  0
  2 12  1  0
  3 13  1  0
  4 14  1  0
  5 15  1  0
  6 16  1  0
  6 17  1  0
  8 18  1  0
M  END
