
     RDKit          3D

 21 22  0  0  0  0  0  0  0  0999 V2000
   -1.8827    1.2622   -0.0913 C   0  0  0  0  0  0  0  0  0  0  0  0
   -1.0508    0.1253    0.4318 C   0  0  0  0  0  0  0  0  0  0  0  0
   -1.0620   -0.9709   -0.6151 C   0  0  0  0  0  0  0  0  0  0  0  0
    0.1541   -1.7857   -0.2207 C   0  0  0  0  0  0  0  0  0  0  0  0
    1.1727   -0.7704    0.1527 C   0  0  0  0  0  0  0  0  0  0  0  0
    1.8632   -0.2470   -0.9552 O   0  0  0  0  0  0  0  0  0  0  0  0
    2.1530    1.0429   -0.4572 C   0  0  0  0  0  0  0  0  0  0  0  0
    0.8383    1.4886   -0.2075 O   0  0  0  0  0  0  0  0  0  0  0  0
    0.3859    0.4512    0.6227 C   0  0  0  0  0  0  0  0  0  0  0  0
   -1.5228    1.5412   -1.0940 H   0  0  0  0  0  0  0  0  0  0  0  0
   -1.9414    2.1260    0.5813 H   0  0  0  0  0  0  0  0  0  0  0  0
   -2.9180    0.8586   -0.2401 H   0  0  0  0  0  0  0  0  0  0  0  0
   -1.4983   -0.2959    1.3416 H   0  0  0  0  0  0  0  0  0  0  0  0
   -0.9635   -0.4929   -1.5961 H   0  0  0  0  0  0  0  0  0  0  0  0
   -1.9866   -1.5853   -0.5343 H   0  0  0  0  0  0  0  0  0  0  0  0
   -0.1269   -2.3496    0.6904 H   0  0  0  0  0  0  0  0  0  0  0  0
    0.4769   -2.4876   -1.0014 H   0  0  0  0  0  0  0  0  0  0  0  0
    1.9206   -1.0963    0.8839 H   0  0  0  0  0  0  0  0  0  0  0  0
    2.6265    0.9156    0.5252 H   0  0  0  0  0  0  0  0  0  0  0  0
    2.6879    1.6632   -1.1660 H   0  0  0  0  0  0  0  0  0  0  0  0
    0.6738    0.6067    1.6802 H   0  0  0  0  0  0  0  0  0  0  0  0
  1  2  1  0
  2  3  1  0
  3  4  1  0
  4  5  1  0
  5  6  1  0
  6  7  1  0
  7  8  1  0
  8  9  1  0
  9  2  1  0
  9  5  1  0
  1 10  1  0
  1 11  1  0
  1 12  1  0
  2 13  1  0
  3 14  1  0
  3 15  1  0
  4 16  1  0
  4 17  1  0
  5 18  1  0
  7 19  1  0
  7 20  1  0
  9 21  1  0
M  END
