
     RDKit          3D

 23 24  0  0  0  0  0  0  0  0999 V2000
    2.6012   -0.2104    0.1365 C   0  0  0  0  0  0  0  0  0  0  0  0
    1.3133    0.5247    0.1221 C   0  0  0  0  0  0  0  0  0  0  0  0
    0.3475    0.0334    1.2211 C   0  0  0  0  0  0  0  0  0  0  0  0
   -0.8687   -0.1981    0.3764 C   0  0  0  0  0  0  0  0  0  0  0  0
   -2.1268   -0.5908    0.9492 C   0  0  0  0  0  0  0  0  0  0  0  0
   -0.2754   -1.0109   -0.7660 C   0  0  0  0  0  0  0  0  0  0  0  0
    0.4592    0.2997   -1.0756 C   0  0  0  0  0  0  0  0  0  0  0  0
   -0.8460    0.9687   -0.6238 C   0  0  0  0  0  0  0  0  0  0  0  0
   -1.8715    0.8756   -1.5297 O   0  0  0  0  0  0  0  0  0  0  0  0
    2.5851   -1.2043    0.5783 H   0  0  0  0  0  0  0  0  0  0  0  0
    2.9734   -0.2860   -0.9237 H   0  0  0  0  0  0  0  0  0  0  0  0
    3.3635    0.4560    0.6373 H   0  0  0  0  0  0  0  0  0  0  0  0
    1.4521    1.6352    0.2626 H   0  0  0  0  0  0  0  0  0  0  0  0
    0.2430    0.8053    1.9784 H   0  0  0  0  0  0  0  0  0  0  0  0
    0.6905   -0.9503    1.5982 H   0  0  0  0  0  0  0  0  0  0  0  0
   -2.4101   -1.6234    0.5995 H   0  0  0  0  0  0  0  0  0  0  0  0
   -2.9659    0.0581    0.5608 H   0  0  0  0  0  0  0  0  0  0  0  0
   -2.2291   -0.5460    2.0556 H   0  0  0  0  0  0  0  0  0  0  0  0
    0.3664   -1.8168   -0.3899 H   0  0  0  0  0  0  0  0  0  0  0  0
   -1.0295   -1.2863   -1.5208 H   0  0  0  0  0  0  0  0  0  0  0  0
    0.7959    0.4688   -2.0575 H   0  0  0  0  0  0  0  0  0  0  0  0
   -0.7101    1.9061   -0.0851 H   0  0  0  0  0  0  0  0  0  0  0  0
   -1.8578    1.6915   -2.1040 H   0  0  0  0  0  0  0  0  0  0  0  0
  1  2  1  0
  2  3  1  0
  3  4  1  0
  4  5  1  0
  4  6  1  0
  6  7  1  0
  7  8  1  0
  8  9  1  0
  7  2  1  0
  8  4  1  0
  1 10  1  0
  1 11  1  0
  1 12  1  0
  2 13  1  0
  3 14  1  0
  3 15  1  0
  5 16  1  0
  5 17  1  0
  5 18  1  0
  6 19  1  0
  6 20  1  0
  7 21  1  0
  8 22  1  0
  9 23  1  0
M  END
