
     RDKit          3D

 23 24  0  0  0  0  0  0  0  0999 V2000
   -2.1071    0.6199    0.4899 C   0  0  0  0  0  0  0  0  0  0  0  0
   -1.1443    0.0237   -0.5399 C   0  0  0  0  0  0  0  0  0  0  0  0
   -0.8226   -1.3632   -0.1138 C   0  0  0  0  0  0  0  0  0  0  0  0
    0.0703   -1.5956    0.8159 O   0  0  0  0  0  0  0  0  0  0  0  0
    1.2653   -1.0820    0.9386 C   0  0  0  0  0  0  0  0  0  0  0  0
    1.6746    0.0999    0.1357 C   0  0  0  0  0  0  0  0  0  0  0  0
    1.2025    0.1095   -1.2737 C   0  0  0  0  0  0  0  0  0  0  0  0
    0.0080    0.9150   -0.7864 C   0  0  0  0  0  0  0  0  0  0  0  0
    0.7593    1.2543    0.4899 C   0  0  0  0  0  0  0  0  0  0  0  0
   -2.0422    0.0448    1.4308 H   0  0  0  0  0  0  0  0  0  0  0  0
   -3.1500    0.5857    0.1539 H   0  0  0  0  0  0  0  0  0  0  0  0
   -1.8646    1.6745    0.7151 H   0  0  0  0  0  0  0  0  0  0  0  0
   -1.7376   -0.0444   -1.4864 H   0  0  0  0  0  0  0  0  0  0  0  0
   -1.8121   -1.7928    0.2426 H   0  0  0  0  0  0  0  0  0  0  0  0
   -0.6097   -1.9789   -1.0377 H   0  0  0  0  0  0  0  0  0  0  0  0
    2.0585   -1.8699    0.7581 H   0  0  0  0  0  0  0  0  0  0  0  0
    1.4323   -0.8009    2.0241 H   0  0  0  0  0  0  0  0  0  0  0  0
    2.7516    0.3028    0.2106 H   0  0  0  0  0  0  0  0  0  0  0  0
    1.8647    0.6638   -1.9750 H   0  0  0  0  0  0  0  0  0  0  0  0
    0.9784   -0.8759   -1.6866 H   0  0  0  0  0  0  0  0  0  0  0  0
   -0.1869    1.7778   -1.4133 H   0  0  0  0  0  0  0  0  0  0  0  0
    1.2394    2.2434    0.5065 H   0  0  0  0  0  0  0  0  0  0  0  0
    0.1722    1.0885    1.4012 H   0  0  0  0  0  0  0  0  0  0  0  0
  1  2  1  0
  2  3  1  0
  3  4  1  0
  4  5  1  0
  5  6  1  0
  6  7  1  0
  7  8  1  0
  8  9  1  0
  8  2  1  0
  9  6  1  0
  1 10  1  0
  1 11  1  0
  1 12  1  0
  2 13  1  0
  3 14  1  0
  3 15  1  0
  5 16  1  0
  5 17  1  0
  6 18  1  0
  7 19  1  0
  7 20  1  0
  8 21  1  0
  9 22  1  0
  9 23  1  0
M  END
