
     RDKit          3D

 23 25  0  0  0  0  0  0  0  0999 V2000
    2.1325   -0.2965    0.7657 C   0  0  0  0  0  0  0  0  0  0  0  0
    1.3010    0.0366   -0.4834 C   0  0  0  0  0  0  0  0  0  0  0  0
    0.3898   -1.0693   -0.8490 C   0  0  0  0  0  0  0  0  0  0  0  0
   -1.0520   -0.8733   -0.6538 C   0  0  0  0  0  0  0  0  0  0  0  0
   -1.4134   -0.9409    0.8120 C   0  0  0  0  0  0  0  0  0  0  0  0
   -1.4560    0.5442    0.8719 C   0  0  0  0  0  0  0  0  0  0  0  0
   -0.7250    1.4536    0.0136 C   0  0  0  0  0  0  0  0  0  0  0  0
    0.7245    1.3753   -0.3012 C   0  0  0  0  0  0  0  0  0  0  0  0
   -1.5823    0.4988   -0.6901 C   0  0  0  0  0  0  0  0  0  0  0  0
    1.6438   -1.0547    1.3916 H   0  0  0  0  0  0  0  0  0  0  0  0
    2.3043    0.6365    1.3754 H   0  0  0  0  0  0  0  0  0  0  0  0
    3.1297   -0.7007    0.4966 H   0  0  0  0  0  0  0  0  0  0  0  0
    2.0693    0.1103   -1.3135 H   0  0  0  0  0  0  0  0  0  0  0  0
    0.6801   -1.9628   -0.2151 H   0  0  0  0  0  0  0  0  0  0  0  0
    0.5586   -1.4557   -1.8994 H   0  0  0  0  0  0  0  0  0  0  0  0
   -1.6625   -1.5513   -1.3154 H   0  0  0  0  0  0  0  0  0  0  0  0
   -2.4320   -1.4256    0.8954 H   0  0  0  0  0  0  0  0  0  0  0  0
   -0.7167   -1.4707    1.4659 H   0  0  0  0  0  0  0  0  0  0  0  0
   -2.3727    0.9344    1.4033 H   0  0  0  0  0  0  0  0  0  0  0  0
   -1.1006    2.5218   -0.0087 H   0  0  0  0  0  0  0  0  0  0  0  0
    1.2646    1.9458    0.5142 H   0  0  0  0  0  0  0  0  0  0  0  0
    0.8950    2.0285   -1.2109 H   0  0  0  0  0  0  0  0  0  0  0  0
   -2.5799    0.7156   -1.0651 H   0  0  0  0  0  0  0  0  0  0  0  0
  1  2  1  0
  2  3  1  0
  3  4  1  0
  4  5  1  0
  5  6  1  0
  6  7  1  0
  7  8  1  0
  7  9  1  0
  8  2  1  0
  9  4  1  0
  9  6  1  0
  1 10  1  0
  1 11  1  0
  1 12  1  0
  2 13  1  0
  3 14  1  0
  3 15  1  0
  4 16  1  0
  5 17  1  0
  5 18  1  0
  6 19  1  0
  7 20  1  0
  8 21  1  0
  8 22  1  0
  9 23  1  0
M  END
