
     RDKit          3D

 23 24  0  0  0  0  0  0  0  0999 V2000
    1.8000   -1.2754    0.1065 C   0  0  0  0  0  0  0  0  0  0  0  0
    0.9075   -0.0919   -0.0679 C   0  0  0  0  0  0  0  0  0  0  0  0
    0.1097   -0.0775   -1.3807 C   0  0  0  0  0  0  0  0  0  0  0  0
   -0.5681   -1.3638   -1.3292 C   0  0  0  0  0  0  0  0  0  0  0  0
   -1.0016   -1.4549   -0.0611 C   0  0  0  0  0  0  0  0  0  0  0  0
   -0.4620   -0.1806    0.5367 C   0  0  0  0  0  0  0  0  0  0  0  0
   -0.7201    0.1446    1.9000 C   0  0  0  0  0  0  0  0  0  0  0  0
   -0.8635    0.8006   -0.5735 C   0  0  0  0  0  0  0  0  0  0  0  0
   -0.2889    2.1676   -0.4348 C   0  0  0  0  0  0  0  0  0  0  0  0
    2.5685   -1.0216    0.8716 H   0  0  0  0  0  0  0  0  0  0  0  0
    2.3779   -1.3941   -0.8541 H   0  0  0  0  0  0  0  0  0  0  0  0
    1.2814   -2.2051    0.3765 H   0  0  0  0  0  0  0  0  0  0  0  0
    1.4008    0.8818    0.1505 H   0  0  0  0  0  0  0  0  0  0  0  0
    0.5536    0.3235   -2.2382 H   0  0  0  0  0  0  0  0  0  0  0  0
   -0.6990   -2.0874   -2.1217 H   0  0  0  0  0  0  0  0  0  0  0  0
   -1.5787   -2.2203    0.4200 H   0  0  0  0  0  0  0  0  0  0  0  0
    0.1031   -0.1815    2.5752 H   0  0  0  0  0  0  0  0  0  0  0  0
   -0.9073    1.2271    2.0667 H   0  0  0  0  0  0  0  0  0  0  0  0
   -1.6321   -0.3775    2.2731 H   0  0  0  0  0  0  0  0  0  0  0  0
   -1.9049    0.7072   -0.8967 H   0  0  0  0  0  0  0  0  0  0  0  0
    0.5977    2.3358   -1.0985 H   0  0  0  0  0  0  0  0  0  0  0  0
   -1.0631    2.8934   -0.8116 H   0  0  0  0  0  0  0  0  0  0  0  0
   -0.0110    2.4499    0.5909 H   0  0  0  0  0  0  0  0  0  0  0  0
  1  2  1  0
  2  3  1  0
  3  4  1  0
  4  5  2  0
  5  6  1  0
  6  7  1  0
  6  8  1  0
  8  9  1  0
  6  2  1  0
  8  3  1  0
  1 10  1  0
  1 11  1  0
  1 12  1  0
  2 13  1  0
  3 14  1  0
  4 15  1  0
  5 16  1  0
  7 17  1  0
  7 18  1  0
  7 19  1  0
  8 20  1  0
  9 21  1  0
  9 22  1  0
  9 23  1  0
M  END
