
     RDKit          3D

 21 22  0  0  0  0  0  0  0  0999 V2000
    2.3727    0.5262   -0.0276 C   0  0  0  0  0  0  0  0  0  0  0  0
    0.9561    0.1936   -0.4307 C   0  0  0  0  0  0  0  0  0  0  0  0
    0.7600   -1.2926   -0.1359 C   0  0  0  0  0  0  0  0  0  0  0  0
   -0.4916   -1.2375    0.7409 C   0  0  0  0  0  0  0  0  0  0  0  0
   -1.5770   -1.2982   -0.0766 O   0  0  0  0  0  0  0  0  0  0  0  0
   -2.2397   -0.1265   -0.2956 C   0  0  0  0  0  0  0  0  0  0  0  0
   -1.3835    1.0986   -0.2869 C   0  0  0  0  0  0  0  0  0  0  0  0
   -0.0713    0.8598    0.4388 C   0  0  0  0  0  0  0  0  0  0  0  0
   -0.3489   -0.0658    1.4514 O   0  0  0  0  0  0  0  0  0  0  0  0
    2.6989    1.5219   -0.3216 H   0  0  0  0  0  0  0  0  0  0  0  0
    3.0211   -0.2619   -0.4827 H   0  0  0  0  0  0  0  0  0  0  0  0
    2.4312    0.3621    1.0790 H   0  0  0  0  0  0  0  0  0  0  0  0
    0.8071    0.4130   -1.5051 H   0  0  0  0  0  0  0  0  0  0  0  0
    0.5742   -1.8714   -1.0619 H   0  0  0  0  0  0  0  0  0  0  0  0
    1.5681   -1.7013    0.4895 H   0  0  0  0  0  0  0  0  0  0  0  0
   -0.5183   -2.1174    1.4390 H   0  0  0  0  0  0  0  0  0  0  0  0
   -2.7018   -0.1916   -1.3245 H   0  0  0  0  0  0  0  0  0  0  0  0
   -3.0743   -0.0458    0.4544 H   0  0  0  0  0  0  0  0  0  0  0  0
   -1.2340    1.5517   -1.2853 H   0  0  0  0  0  0  0  0  0  0  0  0
   -1.9165    1.8875    0.3169 H   0  0  0  0  0  0  0  0  0  0  0  0
    0.3675    1.7955    0.8243 H   0  0  0  0  0  0  0  0  0  0  0  0
  1  2  1  0
  2  3  1  0
  3  4  1  0
  4  5  1  0
  5  6  1  0
  6  7  1  0
  7  8  1  0
  8  9  1  0
  8  2  1  0
  9  4  1  0
  1 10  1  0
  1 11  1  0
  1 12  1  0
  2 13  1  0
  3 14  1  0
  3 15  1  0
  4 16  1  0
  6 17  1  0
  6 18  1  0
  7 19  1  0
  7 20  1  0
  8 21  1  0
M  END
