
     RDKit          3D

 23 23  0  0  0  0  0  0  0  0999 V2000
    2.9865    0.2376   -0.0601 C   0  0  0  0  0  0  0  0  0  0  0  0
    1.5748    0.1534    0.5104 C   0  0  0  0  0  0  0  0  0  0  0  0
    0.7763    1.2413   -0.1117 C   0  0  0  0  0  0  0  0  0  0  0  0
   -0.5520    1.0963   -0.1703 O   0  0  0  0  0  0  0  0  0  0  0  0
   -1.1202   -0.0873    0.1364 C   0  0  0  0  0  0  0  0  0  0  0  0
   -2.3842    0.2334    0.9519 C   0  0  0  0  0  0  0  0  0  0  0  0
   -1.6502   -0.7914   -1.1214 C   0  0  0  0  0  0  0  0  0  0  0  0
   -0.2614   -1.0717    0.8559 C   0  0  0  0  0  0  0  0  0  0  0  0
    0.9993   -1.0645    0.2179 O   0  0  0  0  0  0  0  0  0  0  0  0
    3.2655    1.3082   -0.2333 H   0  0  0  0  0  0  0  0  0  0  0  0
    3.0124   -0.2311   -1.0746 H   0  0  0  0  0  0  0  0  0  0  0  0
    3.7379   -0.2129    0.5830 H   0  0  0  0  0  0  0  0  0  0  0  0
    1.6905    0.3015    1.6200 H   0  0  0  0  0  0  0  0  0  0  0  0
    1.1725    1.4036   -1.1570 H   0  0  0  0  0  0  0  0  0  0  0  0
    1.0146    2.1906    0.4539 H   0  0  0  0  0  0  0  0  0  0  0  0
   -3.1250   -0.5602    0.8944 H   0  0  0  0  0  0  0  0  0  0  0  0
   -2.1218    0.5401    1.9861 H   0  0  0  0  0  0  0  0  0  0  0  0
   -2.8580    1.1447    0.4893 H   0  0  0  0  0  0  0  0  0  0  0  0
   -2.6372   -0.3649   -1.3845 H   0  0  0  0  0  0  0  0  0  0  0  0
   -0.9643   -0.6843   -1.9675 H   0  0  0  0  0  0  0  0  0  0  0  0
   -1.8081   -1.8781   -0.9297 H   0  0  0  0  0  0  0  0  0  0  0  0
   -0.1092   -0.8063    1.9161 H   0  0  0  0  0  0  0  0  0  0  0  0
   -0.6388   -2.0980    0.7601 H   0  0  0  0  0  0  0  0  0  0  0  0
  1  2  1  0
  2  3  1  0
  3  4  1  0
  4  5  1  0
  5  6  1  0
  5  7  1  0
  5  8  1  0
  8  9  1  0
  9  2  1  0
  1 10  1  0
  1 11  1  0
  1 12  1  0
  2 13  1  0
  3 14  1  0
  3 15  1  0
  6 16  1  0
  6 17  1  0
  6 18  1  0
  7 19  1  0
  7 20  1  0
  7 21  1  0
  8 22  1  0
  8 23  1  0
M  END
