
     RDKit          3D

 23 24  0  0  0  0  0  0  0  0999 V2000
    2.5568   -0.7779   -0.2491 C   0  0  0  0  0  0  0  0  0  0  0  0
    1.3637   -0.1915    0.5130 C   0  0  0  0  0  0  0  0  0  0  0  0
    0.1009   -0.8102    0.4909 C   0  0  0  0  0  0  0  0  0  0  0  0
   -1.2894   -0.4246    0.7404 C   0  0  0  0  0  0  0  0  0  0  0  0
   -2.0551   -1.5360    1.1019 O   0  0  0  0  0  0  0  0  0  0  0  0
   -1.7248   -0.0615   -0.6941 C   0  0  0  0  0  0  0  0  0  0  0  0
   -0.3939    0.2325   -1.4212 C   0  0  0  0  0  0  0  0  0  0  0  0
    0.4390    0.5552   -0.2383 C   0  0  0  0  0  0  0  0  0  0  0  0
   -0.0693    1.8114    0.4426 C   0  0  0  0  0  0  0  0  0  0  0  0
    2.8463   -1.7586    0.1323 H   0  0  0  0  0  0  0  0  0  0  0  0
    3.4072   -0.1015   -0.2153 H   0  0  0  0  0  0  0  0  0  0  0  0
    2.2901   -0.9136   -1.3313 H   0  0  0  0  0  0  0  0  0  0  0  0
    1.7285    0.1849    1.5094 H   0  0  0  0  0  0  0  0  0  0  0  0
    0.0801   -1.7234   -0.1853 H   0  0  0  0  0  0  0  0  0  0  0  0
   -1.4996    0.3573    1.4461 H   0  0  0  0  0  0  0  0  0  0  0  0
   -2.1707   -1.5935    2.0944 H   0  0  0  0  0  0  0  0  0  0  0  0
   -2.2214   -0.9234   -1.1766 H   0  0  0  0  0  0  0  0  0  0  0  0
   -2.4010    0.7927   -0.7146 H   0  0  0  0  0  0  0  0  0  0  0  0
   -0.5479    1.0544   -2.1332 H   0  0  0  0  0  0  0  0  0  0  0  0
   -0.0220   -0.6941   -1.8944 H   0  0  0  0  0  0  0  0  0  0  0  0
    0.5524    2.6379    0.0309 H   0  0  0  0  0  0  0  0  0  0  0  0
   -1.1114    2.0613    0.2206 H   0  0  0  0  0  0  0  0  0  0  0  0
    0.1415    1.8220    1.5310 H   0  0  0  0  0  0  0  0  0  0  0  0
  1  2  1  0
  2  3  1  0
  3  4  1  0
  4  5  1  0
  4  6  1  0
  6  7  1  0
  7  8  1  0
  8  9  1  0
  8  2  1  0
  8  3  1  0
  1 10  1  0
  1 11  1  0
  1 12  1  0
  2 13  1  0
  3 14  1  0
  4 15  1  0
  5 16  1  0
  6 17  1  0
  6 18  1  0
  7 19  1  0
  7 20  1  0
  9 21  1  0
  9 22  1  0
  9 23  1  0
M  END
