
     RDKit          3D

 21 23  0  0  0  0  0  0  0  0999 V2000
    2.4236    0.2895   -0.3614 C   0  0  0  0  0  0  0  0  0  0  0  0
    1.3057   -0.5458    0.1270 C   0  0  0  0  0  0  0  0  0  0  0  0
    0.1472   -0.7452   -0.7997 C   0  0  0  0  0  0  0  0  0  0  0  0
   -0.2490    0.6710   -0.5135 C   0  0  0  0  0  0  0  0  0  0  0  0
   -1.7583    0.7277   -0.4907 C   0  0  0  0  0  0  0  0  0  0  0  0
   -2.0448   -0.6230    0.1921 C   0  0  0  0  0  0  0  0  0  0  0  0
   -0.6429   -1.0717    0.4433 C   0  0  0  0  0  0  0  0  0  0  0  0
    0.1693    0.1466    0.8280 C   0  0  0  0  0  0  0  0  0  0  0  0
    0.1794    0.7339    1.9319 O   0  0  0  0  0  0  0  0  0  0  0  0
    2.2524    1.3619   -0.4067 H   0  0  0  0  0  0  0  0  0  0  0  0
    3.3185    0.1157    0.2910 H   0  0  0  0  0  0  0  0  0  0  0  0
    2.7294   -0.0924   -1.3679 H   0  0  0  0  0  0  0  0  0  0  0  0
    1.6346   -1.4273    0.6901 H   0  0  0  0  0  0  0  0  0  0  0  0
    0.1239   -1.2314   -1.6720 H   0  0  0  0  0  0  0  0  0  0  0  0
    0.2927    1.4757   -0.9606 H   0  0  0  0  0  0  0  0  0  0  0  0
   -2.1597    0.7577   -1.5101 H   0  0  0  0  0  0  0  0  0  0  0  0
   -2.1558    1.5326    0.1451 H   0  0  0  0  0  0  0  0  0  0  0  0
   -2.6201   -0.4938    1.1161 H   0  0  0  0  0  0  0  0  0  0  0  0
   -2.5021   -1.3177   -0.5384 H   0  0  0  0  0  0  0  0  0  0  0  0
   -0.4526   -1.9924    0.9503 H   0  0  0  0  0  0  0  0  0  0  0  0
    0.0085    1.7284    1.9060 H   0  0  0  0  0  0  0  0  0  0  0  0
  1  2  1  0
  2  3  1  0
  3  4  1  0
  4  5  1  0
  5  6  1  0
  6  7  1  0
  7  8  1  0
  8  9  1  0
  8  2  1  0
  7  3  1  0
  8  4  1  0
  1 10  1  0
  1 11  1  0
  1 12  1  0
  2 13  1  0
  3 14  1  0
  4 15  1  0
  5 16  1  0
  5 17  1  0
  6 18  1  0
  6 19  1  0
  7 20  1  0
  9 21  1  0
M  END
