
     RDKit          3D

 21 23  0  0  0  0  0  0  0  0999 V2000
    1.7325   -0.9016    0.1453 C   0  0  0  0  0  0  0  0  0  0  0  0
    0.7920   -0.0389   -0.6696 C   0  0  0  0  0  0  0  0  0  0  0  0
    0.9371    1.4206   -0.2954 C   0  0  0  0  0  0  0  0  0  0  0  0
   -0.2626    1.7439    0.5930 C   0  0  0  0  0  0  0  0  0  0  0  0
   -1.5745    1.3106   -0.0155 C   0  0  0  0  0  0  0  0  0  0  0  0
   -1.5478    0.3600   -1.0114 O   0  0  0  0  0  0  0  0  0  0  0  0
   -0.6262   -0.3979   -0.2826 C   0  0  0  0  0  0  0  0  0  0  0  0
   -0.9543   -1.8405   -0.2077 C   0  0  0  0  0  0  0  0  0  0  0  0
   -0.8622    0.4505    0.9104 C   0  0  0  0  0  0  0  0  0  0  0  0
    2.7932   -0.5959    0.0128 H   0  0  0  0  0  0  0  0  0  0  0  0
    1.4689   -0.8023    1.2220 H   0  0  0  0  0  0  0  0  0  0  0  0
    1.5674   -1.9534   -0.1886 H   0  0  0  0  0  0  0  0  0  0  0  0
    0.9472   -0.2209   -1.7372 H   0  0  0  0  0  0  0  0  0  0  0  0
    0.9477    2.0426   -1.2140 H   0  0  0  0  0  0  0  0  0  0  0  0
    1.8749    1.6180    0.2764 H   0  0  0  0  0  0  0  0  0  0  0  0
   -0.2263    2.5980    1.2544 H   0  0  0  0  0  0  0  0  0  0  0  0
   -2.5196    1.7630    0.3142 H   0  0  0  0  0  0  0  0  0  0  0  0
   -0.8453   -2.2982    0.7900 H   0  0  0  0  0  0  0  0  0  0  0  0
   -2.0455   -1.9558   -0.4688 H   0  0  0  0  0  0  0  0  0  0  0  0
   -0.4161   -2.3995   -1.0085 H   0  0  0  0  0  0  0  0  0  0  0  0
   -1.1802    0.0978    1.8688 H   0  0  0  0  0  0  0  0  0  0  0  0
  1  2  1  0
  2  3  1  0
  3  4  1  0
  4  5  1  0
  5  6  1  0
  6  7  1  0
  7  8  1  0
  7  9  1  0
  7  2  1  0
  9  4  1  0
  9  5  1  0
  1 10  1  0
  1 11  1  0
  1 12  1  0
  2 13  1  0
  3 14  1  0
  3 15  1  0
  4 16  1  0
  5 17  1  0
  8 18  1  0
  8 19  1  0
  8 20  1  0
  9 21  1  0
M  END
