
     RDKit          3D

 21 23  0  0  0  0  0  0  0  0999 V2000
    2.5358    0.6665   -0.7516 C   0  0  0  0  0  0  0  0  0  0  0  0
    1.6268   -0.2855   -0.0560 C   0  0  0  0  0  0  0  0  0  0  0  0
    0.5486   -0.9090   -0.9413 C   0  0  0  0  0  0  0  0  0  0  0  0
   -0.5218   -0.5523    0.0451 C   0  0  0  0  0  0  0  0  0  0  0  0
   -1.8009    0.0734   -0.4412 C   0  0  0  0  0  0  0  0  0  0  0  0
   -2.8970    0.4546    0.4332 C   0  0  0  0  0  0  0  0  0  0  0  0
   -2.0627    1.4125   -0.1779 O   0  0  0  0  0  0  0  0  0  0  0  0
   -0.3238   -0.6681    1.4949 C   0  0  0  0  0  0  0  0  0  0  0  0
    0.5061    0.3199    0.7507 C   0  0  0  0  0  0  0  0  0  0  0  0
    2.6531    1.6304   -0.2309 H   0  0  0  0  0  0  0  0  0  0  0  0
    2.2246    0.7719   -1.8149 H   0  0  0  0  0  0  0  0  0  0  0  0
    3.5521    0.2052   -0.7846 H   0  0  0  0  0  0  0  0  0  0  0  0
    2.1438   -1.0584    0.5684 H   0  0  0  0  0  0  0  0  0  0  0  0
    0.4544   -0.2864   -1.8594 H   0  0  0  0  0  0  0  0  0  0  0  0
    0.7414   -1.9768   -1.1047 H   0  0  0  0  0  0  0  0  0  0  0  0
   -2.0683   -0.2252   -1.4753 H   0  0  0  0  0  0  0  0  0  0  0  0
   -2.8453    0.5106    1.5348 H   0  0  0  0  0  0  0  0  0  0  0  0
   -3.9356    0.3537    0.0605 H   0  0  0  0  0  0  0  0  0  0  0  0
   -1.0662   -0.2480    2.1702 H   0  0  0  0  0  0  0  0  0  0  0  0
    0.2483   -1.5700    1.8614 H   0  0  0  0  0  0  0  0  0  0  0  0
    0.2866    1.3810    0.7187 H   0  0  0  0  0  0  0  0  0  0  0  0
  1  2  1  0
  2  3  1  0
  3  4  1  0
  4  5  1  0
  5  6  1  0
  6  7  1  0
  4  8  1  0
  8  9  1  0
  9  2  1  0
  9  4  1  0
  7  5  1  0
  1 10  1  0
  1 11  1  0
  1 12  1  0
  2 13  1  0
  3 14  1  0
  3 15  1  0
  5 16  1  0
  6 17  1  0
  6 18  1  0
  8 19  1  0
  8 20  1  0
  9 21  1  0
M  END
