
     RDKit          3D

 22 23  0  0  0  0  0  0  0  0999 V2000
   -1.6003    1.5011   -0.4220 C   0  0  0  0  0  0  0  0  0  0  0  0
   -0.7926    0.3578   -1.0374 C   0  0  0  0  0  0  0  0  0  0  0  0
   -0.7410   -0.9613   -0.4021 C   0  0  0  0  0  0  0  0  0  0  0  0
   -1.5128   -1.3103    0.8339 C   0  0  0  0  0  0  0  0  0  0  0  0
    0.3830   -0.0524   -0.3122 C   0  0  0  0  0  0  0  0  0  0  0  0
    1.7014   -0.4114   -0.8563 C   0  0  0  0  0  0  0  0  0  0  0  0
    2.3202    0.1203    0.4459 C   0  0  0  0  0  0  0  0  0  0  0  0
    0.9257    0.5498    0.9175 C   0  0  0  0  0  0  0  0  0  0  0  0
   -2.2585    1.1459    0.3840 H   0  0  0  0  0  0  0  0  0  0  0  0
   -0.8729    2.2694   -0.0267 H   0  0  0  0  0  0  0  0  0  0  0  0
   -2.2171    2.0230   -1.1549 H   0  0  0  0  0  0  0  0  0  0  0  0
   -0.8088    0.4044   -2.1668 H   0  0  0  0  0  0  0  0  0  0  0  0
   -0.6342   -1.8381   -1.1065 H   0  0  0  0  0  0  0  0  0  0  0  0
   -1.7117   -0.4741    1.4965 H   0  0  0  0  0  0  0  0  0  0  0  0
   -0.8986   -2.0594    1.4029 H   0  0  0  0  0  0  0  0  0  0  0  0
   -2.4183   -1.8724    0.5090 H   0  0  0  0  0  0  0  0  0  0  0  0
    1.8994   -1.5162   -0.9101 H   0  0  0  0  0  0  0  0  0  0  0  0
    2.0725    0.0999   -1.7541 H   0  0  0  0  0  0  0  0  0  0  0  0
    2.7008   -0.6508    1.1186 H   0  0  0  0  0  0  0  0  0  0  0  0
    3.0009    0.9547    0.2431 H   0  0  0  0  0  0  0  0  0  0  0  0
    0.8821    1.6661    0.9649 H   0  0  0  0  0  0  0  0  0  0  0  0
    0.5807    0.0538    1.8328 H   0  0  0  0  0  0  0  0  0  0  0  0
  1  2  1  0
  2  3  1  0
  3  4  1  0
  3  5  1  0
  5  6  1  0
  6  7  1  0
  7  8  1  0
  5  2  1  0
  8  5  1  0
  1  9  1  0
  1 10  1  0
  1 11  1  0
  2 12  1  0
  3 13  1  0
  4 14  1  0
  4 15  1  0
  4 16  1  0
  6 17  1  0
  6 18  1  0
  7 19  1  0
  7 20  1  0
  8 21  1  0
  8 22  1  0
M  END
