
     RDKit          3D

 20 20  0  0  0  0  0  0  0  0999 V2000
    2.0609    0.0928   -0.7795 C   0  0  0  0  0  0  0  0  0  0  0  0
    0.7697   -0.5464   -0.3274 C   0  0  0  0  0  0  0  0  0  0  0  0
    0.3339   -0.4683    1.0828 C   0  0  0  0  0  0  0  0  0  0  0  0
   -0.4095   -1.5099    1.6365 O   0  0  0  0  0  0  0  0  0  0  0  0
   -0.3927    0.3056   -0.0042 C   0  0  0  0  0  0  0  0  0  0  0  0
   -0.2599    1.8009    0.1375 C   0  0  0  0  0  0  0  0  0  0  0  0
   -1.7488   -0.1762   -0.4574 C   0  0  0  0  0  0  0  0  0  0  0  0
   -2.0082   -1.4207    0.1365 O   0  0  0  0  0  0  0  0  0  0  0  0
    1.9158    1.1816   -1.0119 H   0  0  0  0  0  0  0  0  0  0  0  0
    2.8787   -0.0390   -0.0578 H   0  0  0  0  0  0  0  0  0  0  0  0
    2.4074   -0.3576   -1.7394 H   0  0  0  0  0  0  0  0  0  0  0  0
    0.5499   -1.5216   -0.8339 H   0  0  0  0  0  0  0  0  0  0  0  0
    0.9236    0.0891    1.8396 H   0  0  0  0  0  0  0  0  0  0  0  0
    0.2524   -2.1124    2.0792 H   0  0  0  0  0  0  0  0  0  0  0  0
   -0.2740    2.3272   -0.8324 H   0  0  0  0  0  0  0  0  0  0  0  0
    0.6560    2.0953    0.7001 H   0  0  0  0  0  0  0  0  0  0  0  0
   -1.1362    2.1515    0.7298 H   0  0  0  0  0  0  0  0  0  0  0  0
   -2.5555    0.5433   -0.2292 H   0  0  0  0  0  0  0  0  0  0  0  0
   -1.6946   -0.3350   -1.5425 H   0  0  0  0  0  0  0  0  0  0  0  0
   -2.2687   -2.1002   -0.5263 H   0  0  0  0  0  0  0  0  0  0  0  0
  1  2  1  0
  2  3  1  0
  3  4  1  0
  3  5  1  0
  5  6  1  0
  5  7  1  0
  7  8  1  0
  5  2  1  0
  1  9  1  0
  1 10  1  0
  1 11  1  0
  2 12  1  0
  3 13  1  0
  4 14  1  0
  6 15  1  0
  6 16  1  0
  6 17  1  0
  7 18  1  0
  7 19  1  0
  8 20  1  0
M  END
