
     RDKit          3D

 23 24  0  0  0  0  0  0  0  0999 V2000
   -0.0290    1.7905   -0.4374 C   0  0  0  0  0  0  0  0  0  0  0  0
   -0.0742    0.5712    0.4472 C   0  0  0  0  0  0  0  0  0  0  0  0
   -1.0318   -0.4090   -0.1868 C   0  0  0  0  0  0  0  0  0  0  0  0
   -2.4576   -0.0806    0.0896 C   0  0  0  0  0  0  0  0  0  0  0  0
   -0.5958   -1.7639    0.2069 C   0  0  0  0  0  0  0  0  0  0  0  0
   -0.0036   -2.0631    1.3988 O   0  0  0  0  0  0  0  0  0  0  0  0
    0.8891   -1.6245    0.3930 C   0  0  0  0  0  0  0  0  0  0  0  0
    1.2062   -0.1715    0.5317 C   0  0  0  0  0  0  0  0  0  0  0  0
    2.2768    0.3145   -0.3998 C   0  0  0  0  0  0  0  0  0  0  0  0
   -1.0341    2.2830   -0.3471 H   0  0  0  0  0  0  0  0  0  0  0  0
    0.0904    1.5414   -1.5150 H   0  0  0  0  0  0  0  0  0  0  0  0
    0.7238    2.5227   -0.1228 H   0  0  0  0  0  0  0  0  0  0  0  0
   -0.4912    0.8711    1.4275 H   0  0  0  0  0  0  0  0  0  0  0  0
   -0.8742   -0.3080   -1.3021 H   0  0  0  0  0  0  0  0  0  0  0  0
   -3.0056    0.2593   -0.8344 H   0  0  0  0  0  0  0  0  0  0  0  0
   -3.0552   -0.9021    0.5040 H   0  0  0  0  0  0  0  0  0  0  0  0
   -2.5207    0.8015    0.7825 H   0  0  0  0  0  0  0  0  0  0  0  0
   -0.9278   -2.6285   -0.3988 H   0  0  0  0  0  0  0  0  0  0  0  0
    1.5747   -2.3357   -0.0631 H   0  0  0  0  0  0  0  0  0  0  0  0
    1.6118   -0.0351    1.5776 H   0  0  0  0  0  0  0  0  0  0  0  0
    3.2298   -0.1856   -0.1058 H   0  0  0  0  0  0  0  0  0  0  0  0
    2.4305    1.3947   -0.1889 H   0  0  0  0  0  0  0  0  0  0  0  0
    2.0678    0.1575   -1.4570 H   0  0  0  0  0  0  0  0  0  0  0  0
  1  2  1  0
  2  3  1  0
  3  4  1  0
  3  5  1  0
  5  6  1  0
  6  7  1  0
  7  8  1  0
  8  9  1  0
  8  2  1  0
  7  5  1  0
  1 10  1  0
  1 11  1  0
  1 12  1  0
  2 13  1  0
  3 14  1  0
  4 15  1  0
  4 16  1  0
  4 17  1  0
  5 18  1  0
  7 19  1  0
  8 20  1  0
  9 21  1  0
  9 22  1  0
  9 23  1  0
M  END
