
     RDKit          3D

 19 20  0  0  0  0  0  0  0  0999 V2000
    2.1646   -0.2884    0.6597 C   0  0  0  0  0  0  0  0  0  0  0  0
    1.1904    0.3615   -0.2806 C   0  0  0  0  0  0  0  0  0  0  0  0
    0.4449   -0.5634   -1.1648 C   0  0  0  0  0  0  0  0  0  0  0  0
    0.5760   -1.5865   -1.7927 O   0  0  0  0  0  0  0  0  0  0  0  0
   -0.7107    0.3619   -0.9769 C   0  0  0  0  0  0  0  0  0  0  0  0
   -1.0394    1.2737   -1.9367 O   0  0  0  0  0  0  0  0  0  0  0  0
   -1.3514    0.2958    0.3473 C   0  0  0  0  0  0  0  0  0  0  0  0
   -1.5592   -1.1064    0.8754 C   0  0  0  0  0  0  0  0  0  0  0  0
   -0.0406    0.9383    0.3103 C   0  0  0  0  0  0  0  0  0  0  0  0
    1.8391   -0.2473    1.7222 H   0  0  0  0  0  0  0  0  0  0  0  0
    3.1733    0.2091    0.6483 H   0  0  0  0  0  0  0  0  0  0  0  0
    2.3745   -1.3451    0.3495 H   0  0  0  0  0  0  0  0  0  0  0  0
    1.7558    1.0905   -0.9340 H   0  0  0  0  0  0  0  0  0  0  0  0
   -1.5989    1.9779   -1.5141 H   0  0  0  0  0  0  0  0  0  0  0  0
   -2.2423    0.9406    0.4815 H   0  0  0  0  0  0  0  0  0  0  0  0
   -1.9707   -1.1307    1.8936 H   0  0  0  0  0  0  0  0  0  0  0  0
   -0.6383   -1.6645    0.7320 H   0  0  0  0  0  0  0  0  0  0  0  0
   -2.3378   -1.5814    0.2095 H   0  0  0  0  0  0  0  0  0  0  0  0
   -0.0293    2.0644    0.3707 H   0  0  0  0  0  0  0  0  0  0  0  0
  1  2  1  0
  2  3  1  0
  3  4  2  0
  3  5  1  0
  5  6  1  0
  5  7  1  0
  7  8  1  0
  7  9  1  0
  9  2  1  0
  9  5  1  0
  1 10  1  0
  1 11  1  0
  1 12  1  0
  2 13  1  0
  6 14  1  0
  7 15  1  0
  8 16  1  0
  8 17  1  0
  8 18  1  0
  9 19  1  0
M  END
