
     RDKit          3D

 23 24  0  0  0  0  0  0  0  0999 V2000
   -1.1225    2.0209   -0.1889 C   0  0  0  0  0  0  0  0  0  0  0  0
   -0.6348    0.6635    0.2725 C   0  0  0  0  0  0  0  0  0  0  0  0
   -1.7597   -0.3223    0.0568 C   0  0  0  0  0  0  0  0  0  0  0  0
   -1.2967   -1.7492    0.0179 C   0  0  0  0  0  0  0  0  0  0  0  0
    0.1157   -1.9260    0.3775 C   0  0  0  0  0  0  0  0  0  0  0  0
    1.0624   -1.0184    0.1555 C   0  0  0  0  0  0  0  0  0  0  0  0
    2.4383   -0.4749    0.1830 C   0  0  0  0  0  0  0  0  0  0  0  0
    1.8749    0.8863   -0.1319 C   0  0  0  0  0  0  0  0  0  0  0  0
    0.5812    0.2283   -0.5077 C   0  0  0  0  0  0  0  0  0  0  0  0
   -1.2772    1.9589   -1.2822 H   0  0  0  0  0  0  0  0  0  0  0  0
   -0.4131    2.8321    0.0994 H   0  0  0  0  0  0  0  0  0  0  0  0
   -2.0868    2.2054    0.3598 H   0  0  0  0  0  0  0  0  0  0  0  0
   -0.3203    0.6902    1.3490 H   0  0  0  0  0  0  0  0  0  0  0  0
   -2.2377   -0.0682   -0.9078 H   0  0  0  0  0  0  0  0  0  0  0  0
   -2.4927   -0.1467    0.8713 H   0  0  0  0  0  0  0  0  0  0  0  0
   -1.5522   -2.2140   -0.9735 H   0  0  0  0  0  0  0  0  0  0  0  0
   -1.9010   -2.3136    0.7595 H   0  0  0  0  0  0  0  0  0  0  0  0
    0.4213   -2.8507    0.8543 H   0  0  0  0  0  0  0  0  0  0  0  0
    2.9373   -0.4644    1.1711 H   0  0  0  0  0  0  0  0  0  0  0  0
    3.0729   -0.9287   -0.5729 H   0  0  0  0  0  0  0  0  0  0  0  0
    1.8075    1.5915    0.6928 H   0  0  0  0  0  0  0  0  0  0  0  0
    2.3762    1.2888   -1.0503 H   0  0  0  0  0  0  0  0  0  0  0  0
    0.4070    0.1111   -1.6053 H   0  0  0  0  0  0  0  0  0  0  0  0
  1  2  1  0
  2  3  1  0
  3  4  1  0
  4  5  1  0
  5  6  2  0
  6  7  1  0
  7  8  1  0
  8  9  1  0
  9  2  1  0
  9  6  1  0
  1 10  1  0
  1 11  1  0
  1 12  1  0
  2 13  1  0
  3 14  1  0
  3 15  1  0
  4 16  1  0
  4 17  1  0
  5 18  1  0
  7 19  1  0
  7 20  1  0
  8 21  1  0
  8 22  1  0
  9 23  1  0
M  END
