
     RDKit          3D

 16 16  0  0  0  0  0  0  0  0999 V2000
   -1.6029    0.7545    0.6256 C   0  0  0  0  0  0  0  0  0  0  0  0
   -0.8947    0.1154   -0.5322 C   0  0  0  0  0  0  0  0  0  0  0  0
   -0.2440   -1.1844   -0.2161 C   0  0  0  0  0  0  0  0  0  0  0  0
    1.1261   -1.1058    0.2892 C   0  0  0  0  0  0  0  0  0  0  0  0
    1.8954   -0.0520    0.1345 C   0  0  0  0  0  0  0  0  0  0  0  0
    1.3520    1.0942   -0.5772 C   0  0  0  0  0  0  0  0  0  0  0  0
    2.0707    2.1116   -0.7361 O   0  0  0  0  0  0  0  0  0  0  0  0
    0.0554    1.0413   -1.0646 O   0  0  0  0  0  0  0  0  0  0  0  0
   -0.9877    1.6039    1.0210 H   0  0  0  0  0  0  0  0  0  0  0  0
   -2.5774    1.2186    0.2950 H   0  0  0  0  0  0  0  0  0  0  0  0
   -1.8746    0.0276    1.4194 H   0  0  0  0  0  0  0  0  0  0  0  0
   -1.6864   -0.0865   -1.3131 H   0  0  0  0  0  0  0  0  0  0  0  0
   -0.2087   -1.7832   -1.1700 H   0  0  0  0  0  0  0  0  0  0  0  0
   -0.8577   -1.7836    0.4913 H   0  0  0  0  0  0  0  0  0  0  0  0
    1.5298   -1.9566    0.8176 H   0  0  0  0  0  0  0  0  0  0  0  0
    2.9047   -0.0150    0.5158 H   0  0  0  0  0  0  0  0  0  0  0  0
  1  2  1  0
  2  3  1  0
  3  4  1  0
  4  5  2  0
  5  6  1  0
  6  7  2  0
  6  8  1  0
  8  2  1  0
  1  9  1  0
  1 10  1  0
  1 11  1  0
  2 12  1  0
  3 13  1  0
  3 14  1  0
  4 15  1  0
  5 16  1  0
M  END
