
     RDKit          3D

 21 22  0  0  0  0  0  0  0  0999 V2000
    2.3390    1.1219    0.2393 C   0  0  0  0  0  0  0  0  0  0  0  0
    1.0041    0.5573   -0.1791 C   0  0  0  0  0  0  0  0  0  0  0  0
    0.9918   -0.9577   -0.2021 C   0  0  0  0  0  0  0  0  0  0  0  0
   -0.0839   -1.5683   -1.0280 C   0  0  0  0  0  0  0  0  0  0  0  0
   -1.1107   -1.7758   -0.1111 O   0  0  0  0  0  0  0  0  0  0  0  0
   -1.1653   -0.6219    0.6409 C   0  0  0  0  0  0  0  0  0  0  0  0
   -2.0698    0.3467   -0.0756 C   0  0  0  0  0  0  0  0  0  0  0  0
   -2.1343    1.5090    0.6671 O   0  0  0  0  0  0  0  0  0  0  0  0
    0.2177   -0.1241    0.8465 C   0  0  0  0  0  0  0  0  0  0  0  0
    3.1696    0.3780    0.0571 H   0  0  0  0  0  0  0  0  0  0  0  0
    2.6278    2.0065   -0.3845 H   0  0  0  0  0  0  0  0  0  0  0  0
    2.3700    1.3452    1.3220 H   0  0  0  0  0  0  0  0  0  0  0  0
    0.5509    1.0443   -1.0680 H   0  0  0  0  0  0  0  0  0  0  0  0
    1.8295   -1.5248    0.2016 H   0  0  0  0  0  0  0  0  0  0  0  0
   -0.4225   -0.8892   -1.8615 H   0  0  0  0  0  0  0  0  0  0  0  0
    0.2191   -2.5259   -1.4540 H   0  0  0  0  0  0  0  0  0  0  0  0
   -1.6544   -0.8714    1.6029 H   0  0  0  0  0  0  0  0  0  0  0  0
   -1.7513    0.5120   -1.1208 H   0  0  0  0  0  0  0  0  0  0  0  0
   -3.0805   -0.1111   -0.1205 H   0  0  0  0  0  0  0  0  0  0  0  0
   -2.4554    2.2778    0.1479 H   0  0  0  0  0  0  0  0  0  0  0  0
    0.6086   -0.1286    1.8800 H   0  0  0  0  0  0  0  0  0  0  0  0
  1  2  1  0
  2  3  1  0
  3  4  1  0
  4  5  1  0
  5  6  1  0
  6  7  1  0
  7  8  1  0
  6  9  1  0
  9  2  1  0
  9  3  1  0
  1 10  1  0
  1 11  1  0
  1 12  1  0
  2 13  1  0
  3 14  1  0
  4 15  1  0
  4 16  1  0
  6 17  1  0
  7 18  1  0
  7 19  1  0
  8 20  1  0
  9 21  1  0
M  END
