
     RDKit          3D

 20 20  0  0  0  0  0  0  0  0999 V2000
   -2.5303    0.2241    0.3779 C   0  0  0  0  0  0  0  0  0  0  0  0
   -1.2035    0.0824   -0.3589 C   0  0  0  0  0  0  0  0  0  0  0  0
   -0.3963    1.2753   -0.1372 C   0  0  0  0  0  0  0  0  0  0  0  0
    0.8881    1.4398    0.1330 C   0  0  0  0  0  0  0  0  0  0  0  0
    1.9595    0.4587    0.3051 C   0  0  0  0  0  0  0  0  0  0  0  0
    1.8075   -0.7737   -0.5515 C   0  0  0  0  0  0  0  0  0  0  0  0
    0.6611   -1.6148   -0.0590 C   0  0  0  0  0  0  0  0  0  0  0  0
   -0.5942   -1.1901   -0.0030 C   0  0  0  0  0  0  0  0  0  0  0  0
   -3.1212   -0.6982    0.2414 H   0  0  0  0  0  0  0  0  0  0  0  0
   -3.0346    1.1083   -0.0408 H   0  0  0  0  0  0  0  0  0  0  0  0
   -2.2523    0.3719    1.4601 H   0  0  0  0  0  0  0  0  0  0  0  0
   -1.4758    0.0595   -1.4514 H   0  0  0  0  0  0  0  0  0  0  0  0
   -0.9443    2.2091   -0.2046 H   0  0  0  0  0  0  0  0  0  0  0  0
    1.2039    2.4762    0.2469 H   0  0  0  0  0  0  0  0  0  0  0  0
    2.9339    0.9196    0.0282 H   0  0  0  0  0  0  0  0  0  0  0  0
    2.0631    0.1060    1.3705 H   0  0  0  0  0  0  0  0  0  0  0  0
    2.7399   -1.3803   -0.3925 H   0  0  0  0  0  0  0  0  0  0  0  0
    1.6899   -0.5096   -1.6102 H   0  0  0  0  0  0  0  0  0  0  0  0
    0.8850   -2.6280    0.2677 H   0  0  0  0  0  0  0  0  0  0  0  0
   -1.2794   -1.9363    0.3783 H   0  0  0  0  0  0  0  0  0  0  0  0
  1  2  1  0
  2  3  1  0
  3  4  2  0
  4  5  1  0
  5  6  1  0
  6  7  1  0
  7  8  2  0
  8  2  1  0
  1  9  1  0
  1 10  1  0
  1 11  1  0
  2 12  1  0
  3 13  1  0
  4 14  1  0
  5 15  1  0
  5 16  1  0
  6 17  1  0
  6 18  1  0
  7 19  1  0
  8 20  1  0
M  END
