
     RDKit          3D

 17 18  0  0  0  0  0  0  0  0999 V2000
    2.3323   -0.7755    0.2437 C   0  0  0  0  0  0  0  0  0  0  0  0
    1.2309    0.1754   -0.1475 C   0  0  0  0  0  0  0  0  0  0  0  0
    1.3548    1.4097   -0.7369 C   0  0  0  0  0  0  0  0  0  0  0  0
    0.1584    1.8968   -0.9039 O   0  0  0  0  0  0  0  0  0  0  0  0
   -0.7779    1.0667   -0.4627 C   0  0  0  0  0  0  0  0  0  0  0  0
   -0.1129   -0.0272    0.0189 C   0  0  0  0  0  0  0  0  0  0  0  0
   -1.1380   -0.9593    0.5127 C   0  0  0  0  0  0  0  0  0  0  0  0
   -2.4293   -0.2972    0.2681 C   0  0  0  0  0  0  0  0  0  0  0  0
   -2.2126    0.8677   -0.2932 C   0  0  0  0  0  0  0  0  0  0  0  0
    2.1918   -1.1047    1.2927 H   0  0  0  0  0  0  0  0  0  0  0  0
    2.2342   -1.6827   -0.4076 H   0  0  0  0  0  0  0  0  0  0  0  0
    3.3001   -0.2840    0.0601 H   0  0  0  0  0  0  0  0  0  0  0  0
    2.3210    1.8367   -0.9893 H   0  0  0  0  0  0  0  0  0  0  0  0
   -0.9933   -1.0504    1.6126 H   0  0  0  0  0  0  0  0  0  0  0  0
   -1.0516   -1.9444    0.0071 H   0  0  0  0  0  0  0  0  0  0  0  0
   -3.4323   -0.7228    0.5219 H   0  0  0  0  0  0  0  0  0  0  0  0
   -2.9754    1.5953   -0.5967 H   0  0  0  0  0  0  0  0  0  0  0  0
  1  2  1  0
  2  3  2  0
  3  4  1  0
  4  5  1  0
  5  6  2  0
  6  7  1  0
  7  8  1  0
  8  9  2  0
  6  2  1  0
  9  5  1  0
  1 10  1  0
  1 11  1  0
  1 12  1  0
  3 13  1  0
  7 14  1  0
  7 15  1  0
  8 16  1  0
  9 17  1  0
M  END
