
     RDKit          3D

 21 21  0  0  0  0  0  0  0  0999 V2000
   -1.8486   -1.2339    0.2753 C   0  0  0  0  0  0  0  0  0  0  0  0
   -1.7554    0.2006   -0.1604 C   0  0  0  0  0  0  0  0  0  0  0  0
   -1.7065    1.2155    0.9547 C   0  0  0  0  0  0  0  0  0  0  0  0
   -0.4088    1.6133    0.6084 O   0  0  0  0  0  0  0  0  0  0  0  0
   -0.3627    0.6880   -0.4126 C   0  0  0  0  0  0  0  0  0  0  0  0
    0.7366   -0.2986   -0.1996 C   0  0  0  0  0  0  0  0  0  0  0  0
    2.0618    0.4084   -0.5116 C   0  0  0  0  0  0  0  0  0  0  0  0
    3.1220   -0.5970   -0.2908 C   0  0  0  0  0  0  0  0  0  0  0  0
    3.4783   -0.8521    0.8276 O   0  0  0  0  0  0  0  0  0  0  0  0
   -2.5846   -1.7632   -0.3661 H   0  0  0  0  0  0  0  0  0  0  0  0
   -2.2303   -1.3290    1.3247 H   0  0  0  0  0  0  0  0  0  0  0  0
   -0.8916   -1.7952    0.1527 H   0  0  0  0  0  0  0  0  0  0  0  0
   -2.4969    0.4850   -0.9205 H   0  0  0  0  0  0  0  0  0  0  0  0
   -1.8228    0.8210    1.9682 H   0  0  0  0  0  0  0  0  0  0  0  0
   -2.3793    2.0948    0.8272 H   0  0  0  0  0  0  0  0  0  0  0  0
   -0.2601    1.1800   -1.4013 H   0  0  0  0  0  0  0  0  0  0  0  0
    0.7025   -1.1402   -0.9303 H   0  0  0  0  0  0  0  0  0  0  0  0
    0.7925   -0.6182    0.8447 H   0  0  0  0  0  0  0  0  0  0  0  0
    2.0735    0.7192   -1.5768 H   0  0  0  0  0  0  0  0  0  0  0  0
    2.2031    1.3033    0.1118 H   0  0  0  0  0  0  0  0  0  0  0  0
    3.5773   -1.1018   -1.1253 H   0  0  0  0  0  0  0  0  0  0  0  0
  1  2  1  0
  2  3  1  0
  3  4  1  0
  4  5  1  0
  5  6  1  0
  6  7  1  0
  7  8  1  0
  8  9  2  0
  5  2  1  0
  1 10  1  0
  1 11  1  0
  1 12  1  0
  2 13  1  0
  3 14  1  0
  3 15  1  0
  5 16  1  0
  6 17  1  0
  6 18  1  0
  7 19  1  0
  7 20  1  0
  8 21  1  0
M  END
