
     RDKit          3D

 19 21  0  0  0  0  0  0  0  0999 V2000
   -0.2604    1.5058    1.1267 C   0  0  0  0  0  0  0  0  0  0  0  0
   -0.1503    0.7747   -0.1724 C   0  0  0  0  0  0  0  0  0  0  0  0
    1.0463   -0.0434   -0.4281 C   0  0  0  0  0  0  0  0  0  0  0  0
    2.2610   -0.1345    0.1726 C   0  0  0  0  0  0  0  0  0  0  0  0
    2.0821    0.3467   -1.2303 O   0  0  0  0  0  0  0  0  0  0  0  0
    0.1763   -1.1918   -0.8370 C   0  0  0  0  0  0  0  0  0  0  0  0
   -0.9951   -0.4452   -0.2834 C   0  0  0  0  0  0  0  0  0  0  0  0
   -1.9960   -0.9172    0.5086 C   0  0  0  0  0  0  0  0  0  0  0  0
   -2.2157   -0.4467   -0.8996 O   0  0  0  0  0  0  0  0  0  0  0  0
    0.6691    1.4989    1.7267 H   0  0  0  0  0  0  0  0  0  0  0  0
   -0.5593    2.5695    1.0030 H   0  0  0  0  0  0  0  0  0  0  0  0
   -1.0680    1.0308    1.7234 H   0  0  0  0  0  0  0  0  0  0  0  0
   -0.3227    1.4992   -1.0220 H   0  0  0  0  0  0  0  0  0  0  0  0
    2.8687   -1.0723    0.1997 H   0  0  0  0  0  0  0  0  0  0  0  0
    2.7552    0.6977    0.7214 H   0  0  0  0  0  0  0  0  0  0  0  0
    0.4036   -2.1661   -0.3881 H   0  0  0  0  0  0  0  0  0  0  0  0
    0.1220   -1.2320   -1.9602 H   0  0  0  0  0  0  0  0  0  0  0  0
   -2.2443   -1.9901    0.6231 H   0  0  0  0  0  0  0  0  0  0  0  0
   -2.5726   -0.2838    1.2327 H   0  0  0  0  0  0  0  0  0  0  0  0
  1  2  1  0
  2  3  1  0
  3  4  1  0
  4  5  1  0
  3  6  1  0
  6  7  1  0
  7  8  1  0
  8  9  1  0
  7  2  1  0
  5  3  1  0
  9  7  1  0
  1 10  1  0
  1 11  1  0
  1 12  1  0
  2 13  1  0
  4 14  1  0
  4 15  1  0
  6 16  1  0
  6 17  1  0
  8 18  1  0
  8 19  1  0
M  END
