
     RDKit          3D

 19 20  0  0  0  0  0  0  0  0999 V2000
   -1.9305   -0.8814   -0.3377 C   0  0  0  0  0  0  0  0  0  0  0  0
   -1.1481    0.0601    0.5460 C   0  0  0  0  0  0  0  0  0  0  0  0
    0.2708   -0.3526    0.5981 C   0  0  0  0  0  0  0  0  0  0  0  0
    1.4864   -0.8021    0.8125 C   0  0  0  0  0  0  0  0  0  0  0  0
    2.3432   -0.3866   -0.3312 C   0  0  0  0  0  0  0  0  0  0  0  0
    1.7193    0.8151   -0.7307 O   0  0  0  0  0  0  0  0  0  0  0  0
    0.3993    0.3629   -0.7399 C   0  0  0  0  0  0  0  0  0  0  0  0
   -0.6317    1.3013   -0.1682 C   0  0  0  0  0  0  0  0  0  0  0  0
   -0.0272    2.1449    0.7727 O   0  0  0  0  0  0  0  0  0  0  0  0
   -1.3201   -1.7542   -0.6619 H   0  0  0  0  0  0  0  0  0  0  0  0
   -2.7835   -1.2898    0.2408 H   0  0  0  0  0  0  0  0  0  0  0  0
   -2.3539   -0.3700   -1.2254 H   0  0  0  0  0  0  0  0  0  0  0  0
   -1.6301    0.3168    1.4874 H   0  0  0  0  0  0  0  0  0  0  0  0
    1.8064   -1.3808    1.6829 H   0  0  0  0  0  0  0  0  0  0  0  0
    2.2301   -1.1603   -1.1124 H   0  0  0  0  0  0  0  0  0  0  0  0
    3.3640   -0.2306    0.0077 H   0  0  0  0  0  0  0  0  0  0  0  0
    0.0949   -0.2431   -1.5901 H   0  0  0  0  0  0  0  0  0  0  0  0
   -1.3148    1.7791   -0.8578 H   0  0  0  0  0  0  0  0  0  0  0  0
   -0.5745    2.0712    1.6072 H   0  0  0  0  0  0  0  0  0  0  0  0
  1  2  1  0
  2  3  1  0
  3  4  2  0
  4  5  1  0
  5  6  1  0
  6  7  1  0
  7  8  1  0
  8  9  1  0
  8  2  1  0
  7  3  1  0
  1 10  1  0
  1 11  1  0
  1 12  1  0
  2 13  1  0
  4 14  1  0
  5 15  1  0
  5 16  1  0
  7 17  1  0
  8 18  1  0
  9 19  1  0
M  END
