
     RDKit          3D

 23 24  0  0  0  0  0  0  0  0999 V2000
   -2.1208   -0.9054    0.3232 C   0  0  0  0  0  0  0  0  0  0  0  0
   -0.6491   -0.8098    0.1531 C   0  0  0  0  0  0  0  0  0  0  0  0
   -0.0772   -1.1232   -1.1765 C   0  0  0  0  0  0  0  0  0  0  0  0
    0.3843   -0.2315   -2.0838 O   0  0  0  0  0  0  0  0  0  0  0  0
    0.9406   -0.0329   -0.8719 C   0  0  0  0  0  0  0  0  0  0  0  0
    2.2471   -0.5477   -0.4239 C   0  0  0  0  0  0  0  0  0  0  0  0
   -0.0453    0.5626    0.1410 C   0  0  0  0  0  0  0  0  0  0  0  0
    0.5904    0.9854    1.4206 C   0  0  0  0  0  0  0  0  0  0  0  0
   -0.8597    1.6304   -0.5554 C   0  0  0  0  0  0  0  0  0  0  0  0
   -2.5424   -1.7847   -0.2377 H   0  0  0  0  0  0  0  0  0  0  0  0
   -2.3517   -1.1244    1.4029 H   0  0  0  0  0  0  0  0  0  0  0  0
   -2.6805    0.0187    0.0895 H   0  0  0  0  0  0  0  0  0  0  0  0
   -0.1166   -1.4165    0.9470 H   0  0  0  0  0  0  0  0  0  0  0  0
    0.2955   -2.1698   -1.3118 H   0  0  0  0  0  0  0  0  0  0  0  0
    3.1025    0.0604   -0.7615 H   0  0  0  0  0  0  0  0  0  0  0  0
    2.2695   -0.5168    0.7054 H   0  0  0  0  0  0  0  0  0  0  0  0
    2.4271   -1.6248   -0.7087 H   0  0  0  0  0  0  0  0  0  0  0  0
   -0.1028    1.6544    1.9658 H   0  0  0  0  0  0  0  0  0  0  0  0
    0.7947    0.1161    2.0449 H   0  0  0  0  0  0  0  0  0  0  0  0
    1.5333    1.5354    1.2372 H   0  0  0  0  0  0  0  0  0  0  0  0
   -0.1842    2.5335   -0.6239 H   0  0  0  0  0  0  0  0  0  0  0  0
   -1.0484    1.3347   -1.6103 H   0  0  0  0  0  0  0  0  0  0  0  0
   -1.8064    1.8557   -0.0650 H   0  0  0  0  0  0  0  0  0  0  0  0
  1  2  1  0
  2  3  1  0
  3  4  1  0
  4  5  1  0
  5  6  1  0
  5  7  1  0
  7  8  1  0
  7  9  1  0
  7  2  1  0
  5  3  1  0
  1 10  1  0
  1 11  1  0
  1 12  1  0
  2 13  1  0
  3 14  1  0
  6 15  1  0
  6 16  1  0
  6 17  1  0
  8 18  1  0
  8 19  1  0
  8 20  1  0
  9 21  1  0
  9 22  1  0
  9 23  1  0
M  END
