
     RDKit          3D

 23 25  0  0  0  0  0  0  0  0999 V2000
   -1.8849    1.4372    0.5203 C   0  0  0  0  0  0  0  0  0  0  0  0
   -0.6372    0.5945    0.7402 C   0  0  0  0  0  0  0  0  0  0  0  0
    0.3710    0.7601   -0.3537 C   0  0  0  0  0  0  0  0  0  0  0  0
    1.7635    1.1642    0.1159 C   0  0  0  0  0  0  0  0  0  0  0  0
    2.2296   -0.2633    0.0010 C   0  0  0  0  0  0  0  0  0  0  0  0
    0.9065   -0.6124   -0.6081 C   0  0  0  0  0  0  0  0  0  0  0  0
    0.0492   -1.5748    0.1680 C   0  0  0  0  0  0  0  0  0  0  0  0
   -1.3506   -1.6887   -0.2983 C   0  0  0  0  0  0  0  0  0  0  0  0
   -1.0366   -0.8227    0.8291 C   0  0  0  0  0  0  0  0  0  0  0  0
   -2.6741    0.9840    1.1616 H   0  0  0  0  0  0  0  0  0  0  0  0
   -2.1458    1.3238   -0.5503 H   0  0  0  0  0  0  0  0  0  0  0  0
   -1.6593    2.4739    0.8173 H   0  0  0  0  0  0  0  0  0  0  0  0
   -0.1214    0.8762    1.7003 H   0  0  0  0  0  0  0  0  0  0  0  0
    0.0274    1.3417   -1.2139 H   0  0  0  0  0  0  0  0  0  0  0  0
    1.7954    1.5477    1.1637 H   0  0  0  0  0  0  0  0  0  0  0  0
    2.2821    1.8289   -0.6184 H   0  0  0  0  0  0  0  0  0  0  0  0
    3.0486   -0.4065   -0.7479 H   0  0  0  0  0  0  0  0  0  0  0  0
    2.4339   -0.7699    0.9604 H   0  0  0  0  0  0  0  0  0  0  0  0
    0.9309   -0.8419   -1.7041 H   0  0  0  0  0  0  0  0  0  0  0  0
    0.5418   -2.3412    0.7828 H   0  0  0  0  0  0  0  0  0  0  0  0
   -1.6372   -1.2049   -1.2474 H   0  0  0  0  0  0  0  0  0  0  0  0
   -1.8499   -2.6415   -0.1045 H   0  0  0  0  0  0  0  0  0  0  0  0
   -1.3829   -1.1645    1.8411 H   0  0  0  0  0  0  0  0  0  0  0  0
  1  2  1  0
  2  3  1  0
  3  4  1  0
  4  5  1  0
  5  6  1  0
  6  7  1  0
  7  8  1  0
  8  9  1  0
  9  2  1  0
  6  3  1  0
  9  7  1  0
  1 10  1  0
  1 11  1  0
  1 12  1  0
  2 13  1  0
  3 14  1  0
  4 15  1  0
  4 16  1  0
  5 17  1  0
  5 18  1  0
  6 19  1  0
  7 20  1  0
  8 21  1  0
  8 22  1  0
  9 23  1  0
M  END
