
     RDKit          3D

 19 19  0  0  0  0  0  0  0  0999 V2000
   -2.2034   -1.0317   -0.0815 C   0  0  0  0  0  0  0  0  0  0  0  0
   -0.8929   -0.3002   -0.3672 C   0  0  0  0  0  0  0  0  0  0  0  0
   -1.0720    1.0901    0.1410 C   0  0  0  0  0  0  0  0  0  0  0  0
    0.0493    1.8362    0.2585 O   0  0  0  0  0  0  0  0  0  0  0  0
    1.2438    1.2023    0.1896 C   0  0  0  0  0  0  0  0  0  0  0  0
    1.2693   -0.2502    0.4705 C   0  0  0  0  0  0  0  0  0  0  0  0
    2.3578   -0.8724   -0.3330 C   0  0  0  0  0  0  0  0  0  0  0  0
    3.4857   -0.3992   -0.3256 O   0  0  0  0  0  0  0  0  0  0  0  0
    0.1170   -0.9415    0.3068 O   0  0  0  0  0  0  0  0  0  0  0  0
   -2.3880   -1.8461   -0.8061 H   0  0  0  0  0  0  0  0  0  0  0  0
   -3.0502   -0.3342   -0.0970 H   0  0  0  0  0  0  0  0  0  0  0  0
   -2.1204   -1.4491    0.9287 H   0  0  0  0  0  0  0  0  0  0  0  0
   -0.7284   -0.3060   -1.4768 H   0  0  0  0  0  0  0  0  0  0  0  0
   -1.6236    1.0255    1.1116 H   0  0  0  0  0  0  0  0  0  0  0  0
   -1.7928    1.5963   -0.5667 H   0  0  0  0  0  0  0  0  0  0  0  0
    1.6637    1.3752   -0.8456 H   0  0  0  0  0  0  0  0  0  0  0  0
    1.9563    1.7322    0.8649 H   0  0  0  0  0  0  0  0  0  0  0  0
    1.5873   -0.3839    1.5485 H   0  0  0  0  0  0  0  0  0  0  0  0
    2.1413   -1.7432   -0.9206 H   0  0  0  0  0  0  0  0  0  0  0  0
  1  2  1  0
  2  3  1  0
  3  4  1  0
  4  5  1  0
  5  6  1  0
  6  7  1  0
  7  8  2  0
  6  9  1  0
  9  2  1  0
  1 10  1  0
  1 11  1  0
  1 12  1  0
  2 13  1  0
  3 14  1  0
  3 15  1  0
  5 16  1  0
  5 17  1  0
  6 18  1  0
  7 19  1  0
M  END
