
     RDKit          3D

 19 20  0  0  0  0  0  0  0  0999 V2000
    1.8177   -0.5702   -0.8192 C   0  0  0  0  0  0  0  0  0  0  0  0
    1.3248    0.5021    0.0891 C   0  0  0  0  0  0  0  0  0  0  0  0
    0.4937    0.0694    1.2377 C   0  0  0  0  0  0  0  0  0  0  0  0
   -0.6128   -0.9188    0.9860 C   0  0  0  0  0  0  0  0  0  0  0  0
   -1.2476    0.0891    0.0628 C   0  0  0  0  0  0  0  0  0  0  0  0
   -1.6319   -0.4254   -1.2715 C   0  0  0  0  0  0  0  0  0  0  0  0
   -0.9352   -0.3353   -2.2680 O   0  0  0  0  0  0  0  0  0  0  0  0
   -0.0649    0.9837    0.0987 C   0  0  0  0  0  0  0  0  0  0  0  0
   -0.3197    2.2906    0.5231 O   0  0  0  0  0  0  0  0  0  0  0  0
    1.7900   -0.3196   -1.8890 H   0  0  0  0  0  0  0  0  0  0  0  0
    1.3036   -1.5480   -0.6954 H   0  0  0  0  0  0  0  0  0  0  0  0
    2.8908   -0.7786   -0.5288 H   0  0  0  0  0  0  0  0  0  0  0  0
    2.0951    1.2835    0.3287 H   0  0  0  0  0  0  0  0  0  0  0  0
    0.6332    0.5269    2.2157 H   0  0  0  0  0  0  0  0  0  0  0  0
   -1.1749   -1.1402    1.9181 H   0  0  0  0  0  0  0  0  0  0  0  0
   -0.3579   -1.8327    0.4534 H   0  0  0  0  0  0  0  0  0  0  0  0
   -2.1544    0.5199    0.5827 H   0  0  0  0  0  0  0  0  0  0  0  0
   -2.5901   -0.9189   -1.3990 H   0  0  0  0  0  0  0  0  0  0  0  0
   -1.2596    2.5225    0.3748 H   0  0  0  0  0  0  0  0  0  0  0  0
  1  2  1  0
  2  3  1  0
  3  4  1  0
  4  5  1  0
  5  6  1  0
  6  7  2  0
  5  8  1  0
  8  9  1  0
  8  2  1  0
  8  3  1  0
  1 10  1  0
  1 11  1  0
  1 12  1  0
  2 13  1  0
  3 14  1  0
  4 15  1  0
  4 16  1  0
  5 17  1  0
  6 18  1  0
  9 19  1  0
M  END
