
     RDKit          3D

 21 21  0  0  0  0  0  0  0  0999 V2000
   -1.3401   -1.6920    0.1145 C   0  0  0  0  0  0  0  0  0  0  0  0
   -0.9808   -0.2721    0.4540 C   0  0  0  0  0  0  0  0  0  0  0  0
   -0.0571   -0.1754    1.6438 C   0  0  0  0  0  0  0  0  0  0  0  0
    1.1451   -0.6416    1.0873 O   0  0  0  0  0  0  0  0  0  0  0  0
    1.2651    0.2205   -0.0038 C   0  0  0  0  0  0  0  0  0  0  0  0
    2.3211   -0.2233   -0.9027 C   0  0  0  0  0  0  0  0  0  0  0  0
    2.9569   -1.2204   -0.6529 O   0  0  0  0  0  0  0  0  0  0  0  0
   -0.0936    0.3153   -0.6425 C   0  0  0  0  0  0  0  0  0  0  0  0
   -0.5390    1.7755   -0.7851 C   0  0  0  0  0  0  0  0  0  0  0  0
   -0.4741   -2.2868   -0.2384 H   0  0  0  0  0  0  0  0  0  0  0  0
   -1.8313   -2.1471    0.9826 H   0  0  0  0  0  0  0  0  0  0  0  0
   -2.0868   -1.6578   -0.7032 H   0  0  0  0  0  0  0  0  0  0  0  0
   -1.8975    0.2988    0.5991 H   0  0  0  0  0  0  0  0  0  0  0  0
    0.1003    0.9082    1.8401 H   0  0  0  0  0  0  0  0  0  0  0  0
   -0.3867   -0.7407    2.5073 H   0  0  0  0  0  0  0  0  0  0  0  0
    1.5003    1.2357    0.4037 H   0  0  0  0  0  0  0  0  0  0  0  0
    2.5493    0.3249   -1.7950 H   0  0  0  0  0  0  0  0  0  0  0  0
   -0.1976   -0.2440   -1.5677 H   0  0  0  0  0  0  0  0  0  0  0  0
    0.0562    2.2210   -1.5856 H   0  0  0  0  0  0  0  0  0  0  0  0
   -1.6239    1.7514   -0.9652 H   0  0  0  0  0  0  0  0  0  0  0  0
   -0.3858    2.2498    0.2094 H   0  0  0  0  0  0  0  0  0  0  0  0
  1  2  1  0
  2  3  1  0
  3  4  1  0
  4  5  1  0
  5  6  1  0
  6  7  2  0
  5  8  1  0
  8  9  1  0
  8  2  1  0
  1 10  1  0
  1 11  1  0
  1 12  1  0
  2 13  1  0
  3 14  1  0
  3 15  1  0
  5 16  1  0
  6 17  1  0
  8 18  1  0
  9 19  1  0
  9 20  1  0
  9 21  1  0
M  END
