
     RDKit          3D

 18 19  0  0  0  0  0  0  0  0999 V2000
   -1.6522   -1.3322    0.1264 C   0  0  0  0  0  0  0  0  0  0  0  0
   -0.8792   -0.1388    0.6249 C   0  0  0  0  0  0  0  0  0  0  0  0
   -1.1965    1.0999   -0.1223 C   0  0  0  0  0  0  0  0  0  0  0  0
   -0.0650    1.7448   -0.3277 C   0  0  0  0  0  0  0  0  0  0  0  0
    1.0986    1.0578    0.2263 C   0  0  0  0  0  0  0  0  0  0  0  0
    1.4827   -0.2535   -0.4831 C   0  0  0  0  0  0  0  0  0  0  0  0
    2.7932   -0.6720   -0.2979 O   0  0  0  0  0  0  0  0  0  0  0  0
    0.5803   -0.3139    0.6588 C   0  0  0  0  0  0  0  0  0  0  0  0
   -2.5825   -1.4601    0.7192 H   0  0  0  0  0  0  0  0  0  0  0  0
   -1.0593   -2.2677    0.1419 H   0  0  0  0  0  0  0  0  0  0  0  0
   -2.0107   -1.1633   -0.9320 H   0  0  0  0  0  0  0  0  0  0  0  0
   -1.2259    0.0598    1.6837 H   0  0  0  0  0  0  0  0  0  0  0  0
   -2.1967    1.3783   -0.4218 H   0  0  0  0  0  0  0  0  0  0  0  0
   -0.0237    2.6947   -0.8602 H   0  0  0  0  0  0  0  0  0  0  0  0
    1.8413    1.5431    0.8520 H   0  0  0  0  0  0  0  0  0  0  0  0
    1.1556   -0.3006   -1.5349 H   0  0  0  0  0  0  0  0  0  0  0  0
    2.9423   -0.9318    0.6419 H   0  0  0  0  0  0  0  0  0  0  0  0
    0.9979   -0.7445    1.6074 H   0  0  0  0  0  0  0  0  0  0  0  0
  1  2  1  0
  2  3  1  0
  3  4  2  0
  4  5  1  0
  5  6  1  0
  6  7  1  0
  6  8  1  0
  8  2  1  0
  8  5  1  0
  1  9  1  0
  1 10  1  0
  1 11  1  0
  2 12  1  0
  3 13  1  0
  4 14  1  0
  5 15  1  0
  6 16  1  0
  7 17  1  0
  8 18  1  0
M  END
