
     RDKit          3D

 23 23  0  0  0  0  0  0  0  0999 V2000
    2.4233   -0.3352    0.0690 C   0  0  0  0  0  0  0  0  0  0  0  0
    1.2224    0.2377    0.8256 C   0  0  0  0  0  0  0  0  0  0  0  0
    0.8871    1.5852    0.3220 C   0  0  0  0  0  0  0  0  0  0  0  0
   -0.5300    1.8209    0.0258 C   0  0  0  0  0  0  0  0  0  0  0  0
   -0.8675    2.8882   -0.4230 O   0  0  0  0  0  0  0  0  0  0  0  0
   -1.6113    0.8028    0.2480 C   0  0  0  0  0  0  0  0  0  0  0  0
   -0.9632   -0.5221   -0.1553 C   0  0  0  0  0  0  0  0  0  0  0  0
   -1.9457   -1.6480   -0.1082 C   0  0  0  0  0  0  0  0  0  0  0  0
    0.1436   -0.7755    0.8060 C   0  0  0  0  0  0  0  0  0  0  0  0
    2.7342    0.3015   -0.7644 H   0  0  0  0  0  0  0  0  0  0  0  0
    3.3004   -0.4652    0.7311 H   0  0  0  0  0  0  0  0  0  0  0  0
    2.1967   -1.3468   -0.3402 H   0  0  0  0  0  0  0  0  0  0  0  0
    1.5538    0.3474    1.9018 H   0  0  0  0  0  0  0  0  0  0  0  0
    1.2098    2.4013    1.0347 H   0  0  0  0  0  0  0  0  0  0  0  0
    1.4624    1.8262   -0.6210 H   0  0  0  0  0  0  0  0  0  0  0  0
   -2.4972    1.0348   -0.3394 H   0  0  0  0  0  0  0  0  0  0  0  0
   -1.8117    0.7816    1.3596 H   0  0  0  0  0  0  0  0  0  0  0  0
   -0.5927   -0.3911   -1.1864 H   0  0  0  0  0  0  0  0  0  0  0  0
   -2.2401   -1.9106    0.9125 H   0  0  0  0  0  0  0  0  0  0  0  0
   -2.8358   -1.3924   -0.7550 H   0  0  0  0  0  0  0  0  0  0  0  0
   -1.4711   -2.5229   -0.6156 H   0  0  0  0  0  0  0  0  0  0  0  0
   -0.3285   -0.9197    1.8228 H   0  0  0  0  0  0  0  0  0  0  0  0
    0.5611   -1.7980    0.5671 H   0  0  0  0  0  0  0  0  0  0  0  0
  1  2  1  0
  2  3  1  0
  3  4  1  0
  4  5  2  0
  4  6  1  0
  6  7  1  0
  7  8  1  0
  7  9  1  0
  9  2  1  0
  1 10  1  0
  1 11  1  0
  1 12  1  0
  2 13  1  0
  3 14  1  0
  3 15  1  0
  6 16  1  0
  6 17  1  0
  7 18  1  0
  8 19  1  0
  8 20  1  0
  8 21  1  0
  9 22  1  0
  9 23  1  0
M  END
