
     RDKit          3D

 19 20  0  0  0  0  0  0  0  0999 V2000
    2.0132   -0.7677    0.3121 C   0  0  0  0  0  0  0  0  0  0  0  0
    0.8322   -0.5046   -0.5588 C   0  0  0  0  0  0  0  0  0  0  0  0
   -0.3898   -1.3284   -0.1660 C   0  0  0  0  0  0  0  0  0  0  0  0
   -1.2117   -0.0888   -0.5507 C   0  0  0  0  0  0  0  0  0  0  0  0
   -2.3359    0.1987    0.3450 C   0  0  0  0  0  0  0  0  0  0  0  0
   -2.1564    0.6415    1.4531 O   0  0  0  0  0  0  0  0  0  0  0  0
    0.0374    0.7112   -0.3326 C   0  0  0  0  0  0  0  0  0  0  0  0
    0.2102    1.8073    0.4600 C   0  0  0  0  0  0  0  0  0  0  0  0
    0.1991    1.8755   -1.0275 O   0  0  0  0  0  0  0  0  0  0  0  0
    1.8616   -0.5428    1.3785 H   0  0  0  0  0  0  0  0  0  0  0  0
    2.8791   -0.1888   -0.0698 H   0  0  0  0  0  0  0  0  0  0  0  0
    2.2981   -1.8491    0.1447 H   0  0  0  0  0  0  0  0  0  0  0  0
    1.0687   -0.6701   -1.6129 H   0  0  0  0  0  0  0  0  0  0  0  0
   -0.5861   -2.1919   -0.7967 H   0  0  0  0  0  0  0  0  0  0  0  0
   -0.4811   -1.4696    0.9335 H   0  0  0  0  0  0  0  0  0  0  0  0
   -1.4674   -0.1854   -1.6318 H   0  0  0  0  0  0  0  0  0  0  0  0
   -3.3339    0.0091    0.0012 H   0  0  0  0  0  0  0  0  0  0  0  0
    1.1917    2.1358    0.8449 H   0  0  0  0  0  0  0  0  0  0  0  0
   -0.6291    2.4079    0.8737 H   0  0  0  0  0  0  0  0  0  0  0  0
  1  2  1  0
  2  3  1  0
  3  4  1  0
  4  5  1  0
  5  6  2  0
  4  7  1  0
  7  8  1  0
  8  9  1  0
  7  2  1  0
  9  7  1  0
  1 10  1  0
  1 11  1  0
  1 12  1  0
  2 13  1  0
  3 14  1  0
  3 15  1  0
  4 16  1  0
  5 17  1  0
  8 18  1  0
  8 19  1  0
M  END
