
     RDKit          3D

 21 22  0  0  0  0  0  0  0  0999 V2000
   -1.6894   -0.7977   -0.9653 C   0  0  0  0  0  0  0  0  0  0  0  0
   -1.1166    0.3780   -0.2891 C   0  0  0  0  0  0  0  0  0  0  0  0
    0.0934    1.0280   -0.9704 C   0  0  0  0  0  0  0  0  0  0  0  0
    0.4700    1.4655    0.4536 C   0  0  0  0  0  0  0  0  0  0  0  0
   -0.2096    0.1552    0.8807 C   0  0  0  0  0  0  0  0  0  0  0  0
   -0.8533    0.2031    2.0818 O   0  0  0  0  0  0  0  0  0  0  0  0
    0.7987   -0.9253    0.6705 C   0  0  0  0  0  0  0  0  0  0  0  0
    1.7055   -0.5662   -0.4985 C   0  0  0  0  0  0  0  0  0  0  0  0
    0.9694    0.0885   -1.4558 O   0  0  0  0  0  0  0  0  0  0  0  0
   -2.7763   -0.8743   -0.6611 H   0  0  0  0  0  0  0  0  0  0  0  0
   -1.7293   -0.6807   -2.0778 H   0  0  0  0  0  0  0  0  0  0  0  0
   -1.2508   -1.7751   -0.6948 H   0  0  0  0  0  0  0  0  0  0  0  0
   -1.8497    1.1778   -0.0532 H   0  0  0  0  0  0  0  0  0  0  0  0
   -0.1452    1.8459   -1.6489 H   0  0  0  0  0  0  0  0  0  0  0  0
   -0.1498    2.2991    0.7810 H   0  0  0  0  0  0  0  0  0  0  0  0
    1.5326    1.5211    0.6554 H   0  0  0  0  0  0  0  0  0  0  0  0
   -0.3676   -0.1438    2.8461 H   0  0  0  0  0  0  0  0  0  0  0  0
    0.3942   -1.9213    0.5027 H   0  0  0  0  0  0  0  0  0  0  0  0
    1.4493   -0.9624    1.5677 H   0  0  0  0  0  0  0  0  0  0  0  0
    2.1150   -1.5090   -0.9617 H   0  0  0  0  0  0  0  0  0  0  0  0
    2.6095   -0.0063   -0.1630 H   0  0  0  0  0  0  0  0  0  0  0  0
  1  2  1  0
  2  3  1  0
  3  4  1  0
  4  5  1  0
  5  6  1  0
  5  7  1  0
  7  8  1  0
  8  9  1  0
  5  2  1  0
  9  3  1  0
  1 10  1  0
  1 11  1  0
  1 12  1  0
  2 13  1  0
  3 14  1  0
  4 15  1  0
  4 16  1  0
  6 17  1  0
  7 18  1  0
  7 19  1  0
  8 20  1  0
  8 21  1  0
M  END
