
     RDKit          3D

 21 23  0  0  0  0  0  0  0  0999 V2000
    2.2775   -0.1920    0.2539 C   0  0  0  0  0  0  0  0  0  0  0  0
    0.8407   -0.4806    0.4624 C   0  0  0  0  0  0  0  0  0  0  0  0
    0.0231    0.7022    0.9110 C   0  0  0  0  0  0  0  0  0  0  0  0
   -0.0754    1.5084   -0.3514 C   0  0  0  0  0  0  0  0  0  0  0  0
   -0.5688    0.4090   -1.3050 C   0  0  0  0  0  0  0  0  0  0  0  0
    0.0922   -0.8146   -0.8230 C   0  0  0  0  0  0  0  0  0  0  0  0
   -1.3215   -0.5472   -0.4888 C   0  0  0  0  0  0  0  0  0  0  0  0
   -2.3572   -1.3069   -0.9291 O   0  0  0  0  0  0  0  0  0  0  0  0
   -1.3609    0.0451    0.9286 C   0  0  0  0  0  0  0  0  0  0  0  0
    2.8131   -0.4689    1.2105 H   0  0  0  0  0  0  0  0  0  0  0  0
    2.5257    0.8404   -0.0166 H   0  0  0  0  0  0  0  0  0  0  0  0
    2.7240   -0.8807   -0.5119 H   0  0  0  0  0  0  0  0  0  0  0  0
    0.6696   -1.3024    1.1700 H   0  0  0  0  0  0  0  0  0  0  0  0
    0.3097    1.1930    1.7992 H   0  0  0  0  0  0  0  0  0  0  0  0
    0.8663    1.9278   -0.7032 H   0  0  0  0  0  0  0  0  0  0  0  0
   -0.9072    2.2438   -0.2891 H   0  0  0  0  0  0  0  0  0  0  0  0
   -0.7553    0.6439   -2.3435 H   0  0  0  0  0  0  0  0  0  0  0  0
    0.4276   -1.6198   -1.4608 H   0  0  0  0  0  0  0  0  0  0  0  0
   -2.6902   -1.8968   -0.2322 H   0  0  0  0  0  0  0  0  0  0  0  0
   -2.1630    0.7732    1.0492 H   0  0  0  0  0  0  0  0  0  0  0  0
   -1.3699   -0.7768    1.6697 H   0  0  0  0  0  0  0  0  0  0  0  0
  1  2  1  0
  2  3  1  0
  3  4  1  0
  4  5  1  0
  5  6  1  0
  6  7  1  0
  7  8  1  0
  7  9  1  0
  6  2  1  0
  9  3  1  0
  7  5  1  0
  1 10  1  0
  1 11  1  0
  1 12  1  0
  2 13  1  0
  3 14  1  0
  4 15  1  0
  4 16  1  0
  5 17  1  0
  6 18  1  0
  8 19  1  0
  9 20  1  0
  9 21  1  0
M  END
