
     RDKit          3D

 25 26  0  0  0  0  0  0  0  0999 V2000
    0.1500    1.6828   -1.0211 C   0  0  0  0  0  0  0  0  0  0  0  0
    0.0327    0.8225    0.1968 C   0  0  0  0  0  0  0  0  0  0  0  0
   -0.9865   -0.2731    0.1520 C   0  0  0  0  0  0  0  0  0  0  0  0
   -1.5472   -0.4220   -1.2427 C   0  0  0  0  0  0  0  0  0  0  0  0
   -2.0736   -0.2241    1.1675 C   0  0  0  0  0  0  0  0  0  0  0  0
    0.0701   -1.3187    0.4990 C   0  0  0  0  0  0  0  0  0  0  0  0
    1.0661   -0.2390    0.3787 C   0  0  0  0  0  0  0  0  0  0  0  0
    2.3056   -0.0858    1.0894 C   0  0  0  0  0  0  0  0  0  0  0  0
    2.2600   -0.4060   -0.4101 C   0  0  0  0  0  0  0  0  0  0  0  0
   -0.8629    2.0540   -1.2810 H   0  0  0  0  0  0  0  0  0  0  0  0
    0.7867    2.5441   -0.7933 H   0  0  0  0  0  0  0  0  0  0  0  0
    0.5943    1.1537   -1.8766 H   0  0  0  0  0  0  0  0  0  0  0  0
   -0.1403    1.4740    1.0995 H   0  0  0  0  0  0  0  0  0  0  0  0
   -2.1300   -1.3742   -1.2650 H   0  0  0  0  0  0  0  0  0  0  0  0
   -0.7786   -0.3648   -2.0285 H   0  0  0  0  0  0  0  0  0  0  0  0
   -2.2970    0.3868   -1.3714 H   0  0  0  0  0  0  0  0  0  0  0  0
   -1.7138   -0.1429    2.2069 H   0  0  0  0  0  0  0  0  0  0  0  0
   -2.7478    0.6372    0.9039 H   0  0  0  0  0  0  0  0  0  0  0  0
   -2.7053   -1.1294    1.0378 H   0  0  0  0  0  0  0  0  0  0  0  0
   -0.0364   -1.7404    1.5227 H   0  0  0  0  0  0  0  0  0  0  0  0
    0.1517   -2.0656   -0.3158 H   0  0  0  0  0  0  0  0  0  0  0  0
    2.6321    0.9716    1.3181 H   0  0  0  0  0  0  0  0  0  0  0  0
    2.7486   -0.8095    1.7749 H   0  0  0  0  0  0  0  0  0  0  0  0
    2.5922   -1.4651   -0.6206 H   0  0  0  0  0  0  0  0  0  0  0  0
    2.6294    0.3338   -1.1209 H   0  0  0  0  0  0  0  0  0  0  0  0
  1  2  1  0
  2  3  1  0
  3  4  1  0
  3  5  1  0
  3  6  1  0
  6  7  1  0
  7  8  1  0
  8  9  1  0
  7  2  1  0
  9  7  1  0
  1 10  1  0
  1 11  1  0
  1 12  1  0
  2 13  1  0
  4 14  1  0
  4 15  1  0
  4 16  1  0
  5 17  1  0
  5 18  1  0
  5 19  1  0
  6 20  1  0
  6 21  1  0
  8 22  1  0
  8 23  1  0
  9 24  1  0
  9 25  1  0
M  END
