
     RDKit          3D

 18 20  0  0  0  0  0  0  0  0999 V2000
    2.4424    0.2396   -0.3739 C   0  0  0  0  0  0  0  0  0  0  0  0
    1.0081   -0.2109   -0.5641 C   0  0  0  0  0  0  0  0  0  0  0  0
    0.1534   -0.1154    0.6203 C   0  0  0  0  0  0  0  0  0  0  0  0
   -1.2768   -0.5935    0.6345 C   0  0  0  0  0  0  0  0  0  0  0  0
   -1.6793   -0.8888   -0.7709 C   0  0  0  0  0  0  0  0  0  0  0  0
   -1.4575    0.5890   -0.8517 C   0  0  0  0  0  0  0  0  0  0  0  0
   -1.9603    0.6384    0.4724 O   0  0  0  0  0  0  0  0  0  0  0  0
    0.0007    0.8543   -0.6088 C   0  0  0  0  0  0  0  0  0  0  0  0
    3.1620   -0.5638   -0.6749 H   0  0  0  0  0  0  0  0  0  0  0  0
    2.6940    1.1453   -0.9255 H   0  0  0  0  0  0  0  0  0  0  0  0
    2.6646    0.4097    0.7198 H   0  0  0  0  0  0  0  0  0  0  0  0
    0.9189   -1.0652   -1.2573 H   0  0  0  0  0  0  0  0  0  0  0  0
    0.4629    0.3897    1.5427 H   0  0  0  0  0  0  0  0  0  0  0  0
   -1.6050   -1.2232    1.4339 H   0  0  0  0  0  0  0  0  0  0  0  0
   -1.0581   -1.5415   -1.3712 H   0  0  0  0  0  0  0  0  0  0  0  0
   -2.7495   -1.1256   -0.8277 H   0  0  0  0  0  0  0  0  0  0  0  0
   -1.9823    1.1666   -1.5861 H   0  0  0  0  0  0  0  0  0  0  0  0
    0.2620    1.8951   -0.4350 H   0  0  0  0  0  0  0  0  0  0  0  0
  1  2  1  0
  2  3  1  0
  3  4  1  0
  4  5  1  0
  5  6  1  0
  6  7  1  0
  6  8  1  0
  8  2  1  0
  8  3  1  0
  7  4  1  0
  1  9  1  0
  1 10  1  0
  1 11  1  0
  2 12  1  0
  3 13  1  0
  4 14  1  0
  5 15  1  0
  5 16  1  0
  6 17  1  0
  8 18  1  0
M  END
