
     RDKit          3D

 21 22  0  0  0  0  0  0  0  0999 V2000
    2.0263   -0.8459   -0.4921 C   0  0  0  0  0  0  0  0  0  0  0  0
    1.2905   -0.1474    0.5973 C   0  0  0  0  0  0  0  0  0  0  0  0
    0.9717    1.3282    0.3221 C   0  0  0  0  0  0  0  0  0  0  0  0
   -0.4807    0.9438    0.4360 C   0  0  0  0  0  0  0  0  0  0  0  0
   -1.5782    1.8539    0.1236 C   0  0  0  0  0  0  0  0  0  0  0  0
   -0.8028    0.2079    1.6897 O   0  0  0  0  0  0  0  0  0  0  0  0
   -0.2281   -0.3504    0.5808 C   0  0  0  0  0  0  0  0  0  0  0  0
   -0.7951   -1.6175    0.0530 C   0  0  0  0  0  0  0  0  0  0  0  0
   -2.1359   -1.3772   -0.2888 O   0  0  0  0  0  0  0  0  0  0  0  0
    3.0566   -0.4399   -0.5265 H   0  0  0  0  0  0  0  0  0  0  0  0
    1.5288   -0.7283   -1.4783 H   0  0  0  0  0  0  0  0  0  0  0  0
    2.1005   -1.9059   -0.2360 H   0  0  0  0  0  0  0  0  0  0  0  0
    1.7315   -0.3400    1.5895 H   0  0  0  0  0  0  0  0  0  0  0  0
    1.3465    2.0168    1.0844 H   0  0  0  0  0  0  0  0  0  0  0  0
    1.2229    1.5489   -0.7155 H   0  0  0  0  0  0  0  0  0  0  0  0
   -2.4842    1.3494   -0.2615 H   0  0  0  0  0  0  0  0  0  0  0  0
   -1.2517    2.6726   -0.5614 H   0  0  0  0  0  0  0  0  0  0  0  0
   -1.9121    2.3903    1.0591 H   0  0  0  0  0  0  0  0  0  0  0  0
   -0.8203   -2.4396    0.8153 H   0  0  0  0  0  0  0  0  0  0  0  0
   -0.2972   -2.0168   -0.8282 H   0  0  0  0  0  0  0  0  0  0  0  0
   -2.4889   -2.1029   -0.8515 H   0  0  0  0  0  0  0  0  0  0  0  0
  1  2  1  0
  2  3  1  0
  3  4  1  0
  4  5  1  0
  4  6  1  0
  6  7  1  0
  7  8  1  0
  8  9  1  0
  7  2  1  0
  7  4  1  0
  1 10  1  0
  1 11  1  0
  1 12  1  0
  2 13  1  0
  3 14  1  0
  3 15  1  0
  5 16  1  0
  5 17  1  0
  5 18  1  0
  8 19  1  0
  8 20  1  0
  9 21  1  0
M  END
