
     RDKit          3D

 23 24  0  0  0  0  0  0  0  0999 V2000
   -3.3065    0.6468   -0.0173 C   0  0  0  0  0  0  0  0  0  0  0  0
   -1.9196    0.2391   -0.3720 C   0  0  0  0  0  0  0  0  0  0  0  0
   -1.3254   -0.8508    0.4268 C   0  0  0  0  0  0  0  0  0  0  0  0
    0.0351   -1.3083   -0.0732 C   0  0  0  0  0  0  0  0  0  0  0  0
    0.5674    0.0117    0.3617 C   0  0  0  0  0  0  0  0  0  0  0  0
    1.5195    0.6919   -0.5867 C   0  0  0  0  0  0  0  0  0  0  0  0
    2.7515   -0.1411   -0.8518 C   0  0  0  0  0  0  0  0  0  0  0  0
    3.4647   -0.4017    0.3147 O   0  0  0  0  0  0  0  0  0  0  0  0
   -0.7851    0.6128    0.4918 C   0  0  0  0  0  0  0  0  0  0  0  0
   -3.8816   -0.2841    0.2279 H   0  0  0  0  0  0  0  0  0  0  0  0
   -3.3776    1.3075    0.8650 H   0  0  0  0  0  0  0  0  0  0  0  0
   -3.8510    1.0895   -0.9012 H   0  0  0  0  0  0  0  0  0  0  0  0
   -1.7142    0.2064   -1.4731 H   0  0  0  0  0  0  0  0  0  0  0  0
   -1.7197   -1.2136    1.3666 H   0  0  0  0  0  0  0  0  0  0  0  0
    0.4336   -2.1678    0.5134 H   0  0  0  0  0  0  0  0  0  0  0  0
   -0.0440   -1.4858   -1.1612 H   0  0  0  0  0  0  0  0  0  0  0  0
    1.0509   -0.0712    1.3688 H   0  0  0  0  0  0  0  0  0  0  0  0
    1.0043    0.9262   -1.5374 H   0  0  0  0  0  0  0  0  0  0  0  0
    1.8691    1.6532   -0.1590 H   0  0  0  0  0  0  0  0  0  0  0  0
    2.5215   -1.1114   -1.3135 H   0  0  0  0  0  0  0  0  0  0  0  0
    3.4066    0.4339   -1.5366 H   0  0  0  0  0  0  0  0  0  0  0  0
    4.3556    0.0351    0.3202 H   0  0  0  0  0  0  0  0  0  0  0  0
   -1.0552    1.1817    1.4141 H   0  0  0  0  0  0  0  0  0  0  0  0
  1  2  1  0
  2  3  1  0
  3  4  1  0
  4  5  1  0
  5  6  1  0
  6  7  1  0
  7  8  1  0
  5  9  1  0
  9  2  1  0
  9  3  1  0
  1 10  1  0
  1 11  1  0
  1 12  1  0
  2 13  1  0
  3 14  1  0
  4 15  1  0
  4 16  1  0
  5 17  1  0
  6 18  1  0
  6 19  1  0
  7 20  1  0
  7 21  1  0
  8 22  1  0
  9 23  1  0
M  END
