
     RDKit          3D

 21 22  0  0  0  0  0  0  0  0999 V2000
   -2.3270   -0.0200   -0.4527 C   0  0  0  0  0  0  0  0  0  0  0  0
   -1.2428    0.6255    0.3285 C   0  0  0  0  0  0  0  0  0  0  0  0
    0.0203    0.8769   -0.5053 C   0  0  0  0  0  0  0  0  0  0  0  0
    1.0215    0.0598    0.2118 C   0  0  0  0  0  0  0  0  0  0  0  0
    2.4199    0.4846    0.1323 C   0  0  0  0  0  0  0  0  0  0  0  0
    0.7511   -1.3967   -0.0120 C   0  0  0  0  0  0  0  0  0  0  0  0
   -0.4175   -1.5873    0.7509 O   0  0  0  0  0  0  0  0  0  0  0  0
   -0.7084   -0.3821    1.3463 C   0  0  0  0  0  0  0  0  0  0  0  0
    0.5805    0.1694    1.5540 O   0  0  0  0  0  0  0  0  0  0  0  0
   -2.4683   -1.1056   -0.1948 H   0  0  0  0  0  0  0  0  0  0  0  0
   -2.2329    0.0366   -1.5404 H   0  0  0  0  0  0  0  0  0  0  0  0
   -3.2999    0.4587   -0.1340 H   0  0  0  0  0  0  0  0  0  0  0  0
   -1.5196    1.5365    0.8629 H   0  0  0  0  0  0  0  0  0  0  0  0
   -0.1368    0.5942   -1.5674 H   0  0  0  0  0  0  0  0  0  0  0  0
    0.3123    1.9342   -0.4981 H   0  0  0  0  0  0  0  0  0  0  0  0
    2.8301    0.5300   -0.8806 H   0  0  0  0  0  0  0  0  0  0  0  0
    3.0521   -0.2200    0.7106 H   0  0  0  0  0  0  0  0  0  0  0  0
    2.5358    1.4723    0.6336 H   0  0  0  0  0  0  0  0  0  0  0  0
    1.5902   -2.0283    0.3917 H   0  0  0  0  0  0  0  0  0  0  0  0
    0.5346   -1.5943   -1.0650 H   0  0  0  0  0  0  0  0  0  0  0  0
   -1.2952   -0.4442    2.2495 H   0  0  0  0  0  0  0  0  0  0  0  0
  1  2  1  0
  2  3  1  0
  3  4  1  0
  4  5  1  0
  4  6  1  0
  6  7  1  0
  7  8  1  0
  8  9  1  0
  8  2  1  0
  9  4  1  0
  1 10  1  0
  1 11  1  0
  1 12  1  0
  2 13  1  0
  3 14  1  0
  3 15  1  0
  5 16  1  0
  5 17  1  0
  5 18  1  0
  6 19  1  0
  6 20  1  0
  8 21  1  0
M  END
