
     RDKit          3D

 21 22  0  0  0  0  0  0  0  0999 V2000
    2.5063    1.2147    0.5792 C   0  0  0  0  0  0  0  0  0  0  0  0
    1.6960   -0.0022    0.2722 C   0  0  0  0  0  0  0  0  0  0  0  0
    1.7511   -0.4105   -1.2051 C   0  0  0  0  0  0  0  0  0  0  0  0
    0.4559    0.1058   -0.5169 C   0  0  0  0  0  0  0  0  0  0  0  0
   -0.6328   -0.9108   -0.4628 C   0  0  0  0  0  0  0  0  0  0  0  0
   -1.1904   -1.0893    0.7854 O   0  0  0  0  0  0  0  0  0  0  0  0
   -2.3384   -0.3391    0.8663 C   0  0  0  0  0  0  0  0  0  0  0  0
   -2.6858   -0.0294   -0.5460 C   0  0  0  0  0  0  0  0  0  0  0  0
   -1.6599   -0.5118   -1.3210 O   0  0  0  0  0  0  0  0  0  0  0  0
    3.5581    0.8947    0.7677 H   0  0  0  0  0  0  0  0  0  0  0  0
    2.0944    1.8574    1.3685 H   0  0  0  0  0  0  0  0  0  0  0  0
    2.5734    1.8660   -0.3412 H   0  0  0  0  0  0  0  0  0  0  0  0
    1.8030   -0.8205    1.0194 H   0  0  0  0  0  0  0  0  0  0  0  0
    1.8206   -1.4725   -1.4245 H   0  0  0  0  0  0  0  0  0  0  0  0
    2.2051    0.2866   -1.9264 H   0  0  0  0  0  0  0  0  0  0  0  0
    0.1594    1.1508   -0.8054 H   0  0  0  0  0  0  0  0  0  0  0  0
   -0.3119   -1.9244   -0.8247 H   0  0  0  0  0  0  0  0  0  0  0  0
   -3.1882   -0.8846    1.3503 H   0  0  0  0  0  0  0  0  0  0  0  0
   -2.1295    0.5414    1.4982 H   0  0  0  0  0  0  0  0  0  0  0  0
   -3.6215   -0.5669   -0.8414 H   0  0  0  0  0  0  0  0  0  0  0  0
   -2.8648    1.0444   -0.7042 H   0  0  0  0  0  0  0  0  0  0  0  0
  1  2  1  0
  2  3  1  0
  3  4  1  0
  4  5  1  0
  5  6  1  0
  6  7  1  0
  7  8  1  0
  8  9  1  0
  4  2  1  0
  9  5  1  0
  1 10  1  0
  1 11  1  0
  1 12  1  0
  2 13  1  0
  3 14  1  0
  3 15  1  0
  4 16  1  0
  5 17  1  0
  7 18  1  0
  7 19  1  0
  8 20  1  0
  8 21  1  0
M  END
