
     RDKit          3D

 19 20  0  0  0  0  0  0  0  0999 V2000
   -2.1335   -0.6822    0.1748 C   0  0  0  0  0  0  0  0  0  0  0  0
   -0.7508   -0.2925    0.6182 C   0  0  0  0  0  0  0  0  0  0  0  0
   -0.2444    1.0239    0.1295 C   0  0  0  0  0  0  0  0  0  0  0  0
   -1.1964    1.9350   -0.2995 O   0  0  0  0  0  0  0  0  0  0  0  0
    0.5197    0.3077   -0.9455 C   0  0  0  0  0  0  0  0  0  0  0  0
    1.8677    0.5350   -0.8879 O   0  0  0  0  0  0  0  0  0  0  0  0
    2.3998   -0.2199    0.1342 C   0  0  0  0  0  0  0  0  0  0  0  0
    1.5011   -1.1932    0.4809 O   0  0  0  0  0  0  0  0  0  0  0  0
    0.3244   -0.9730   -0.1938 C   0  0  0  0  0  0  0  0  0  0  0  0
   -2.8941    0.0097    0.5668 H   0  0  0  0  0  0  0  0  0  0  0  0
   -2.3319   -1.6987    0.6086 H   0  0  0  0  0  0  0  0  0  0  0  0
   -2.2011   -0.8144   -0.9223 H   0  0  0  0  0  0  0  0  0  0  0  0
   -0.5985   -0.5143    1.6917 H   0  0  0  0  0  0  0  0  0  0  0  0
    0.4326    1.4789    0.9009 H   0  0  0  0  0  0  0  0  0  0  0  0
   -0.7279    2.8217   -0.3651 H   0  0  0  0  0  0  0  0  0  0  0  0
    0.0553    0.3210   -1.9610 H   0  0  0  0  0  0  0  0  0  0  0  0
    3.3413   -0.6912   -0.2697 H   0  0  0  0  0  0  0  0  0  0  0  0
    2.6543    0.4191    1.0148 H   0  0  0  0  0  0  0  0  0  0  0  0
   -0.0176   -1.7727   -0.8734 H   0  0  0  0  0  0  0  0  0  0  0  0
  1  2  1  0
  2  3  1  0
  3  4  1  0
  3  5  1  0
  5  6  1  0
  6  7  1  0
  7  8  1  0
  8  9  1  0
  9  2  1  0
  9  5  1  0
  1 10  1  0
  1 11  1  0
  1 12  1  0
  2 13  1  0
  3 14  1  0
  4 15  1  0
  5 16  1  0
  7 17  1  0
  7 18  1  0
  9 19  1  0
M  END
