
     RDKit          3D

 21 21  0  0  0  0  0  0  0  0999 V2000
   -2.1922    0.1572   -0.2925 C   0  0  0  0  0  0  0  0  0  0  0  0
   -0.9397    0.0921    0.5741 C   0  0  0  0  0  0  0  0  0  0  0  0
   -0.2434    1.3792    0.5382 C   0  0  0  0  0  0  0  0  0  0  0  0
    0.8528    1.6412   -0.1682 C   0  0  0  0  0  0  0  0  0  0  0  0
    1.3992    0.5179   -0.9821 C   0  0  0  0  0  0  0  0  0  0  0  0
    1.3363   -0.7137   -0.1084 C   0  0  0  0  0  0  0  0  0  0  0  0
    1.9880   -0.4645    1.1034 O   0  0  0  0  0  0  0  0  0  0  0  0
   -0.1132   -1.0624    0.0911 C   0  0  0  0  0  0  0  0  0  0  0  0
   -0.2838   -2.1113    0.9939 O   0  0  0  0  0  0  0  0  0  0  0  0
   -2.8978   -0.5963    0.1255 H   0  0  0  0  0  0  0  0  0  0  0  0
   -1.9724   -0.1773   -1.3282 H   0  0  0  0  0  0  0  0  0  0  0  0
   -2.5935    1.1781   -0.2931 H   0  0  0  0  0  0  0  0  0  0  0  0
   -1.2980   -0.0707    1.6250 H   0  0  0  0  0  0  0  0  0  0  0  0
   -0.6420    2.1978    1.1316 H   0  0  0  0  0  0  0  0  0  0  0  0
    1.3435    2.6184   -0.1676 H   0  0  0  0  0  0  0  0  0  0  0  0
    2.4549    0.7058   -1.2665 H   0  0  0  0  0  0  0  0  0  0  0  0
    0.7617    0.3041   -1.8776 H   0  0  0  0  0  0  0  0  0  0  0  0
    1.8523   -1.5219   -0.6207 H   0  0  0  0  0  0  0  0  0  0  0  0
    2.9355   -0.2860    0.8804 H   0  0  0  0  0  0  0  0  0  0  0  0
   -0.4832   -1.4439   -0.9007 H   0  0  0  0  0  0  0  0  0  0  0  0
   -1.2654   -2.3436    0.9425 H   0  0  0  0  0  0  0  0  0  0  0  0
  1  2  1  0
  2  3  1  0
  3  4  2  0
  4  5  1  0
  5  6  1  0
  6  7  1  0
  6  8  1  0
  8  9  1  0
  8  2  1  0
  1 10  1  0
  1 11  1  0
  1 12  1  0
  2 13  1  0
  3 14  1  0
  4 15  1  0
  5 16  1  0
  5 17  1  0
  6 18  1  0
  7 19  1  0
  8 20  1  0
  9 21  1  0
M  END
