
     RDKit          3D

 21 22  0  0  0  0  0  0  0  0999 V2000
    2.2135    0.8971    0.4771 C   0  0  0  0  0  0  0  0  0  0  0  0
    1.2267    0.1237   -0.3591 C   0  0  0  0  0  0  0  0  0  0  0  0
    1.0449   -1.2520    0.1974 C   0  0  0  0  0  0  0  0  0  0  0  0
   -0.4048   -1.4116    0.4818 C   0  0  0  0  0  0  0  0  0  0  0  0
   -0.9335   -2.3644    0.9788 O   0  0  0  0  0  0  0  0  0  0  0  0
   -1.1080   -0.1772    0.0428 C   0  0  0  0  0  0  0  0  0  0  0  0
   -2.4760   -0.3308   -0.5319 C   0  0  0  0  0  0  0  0  0  0  0  0
   -0.8269    1.0733    0.8115 C   0  0  0  0  0  0  0  0  0  0  0  0
   -0.1170    0.7774   -0.4489 C   0  0  0  0  0  0  0  0  0  0  0  0
    1.7935    1.2757    1.4206 H   0  0  0  0  0  0  0  0  0  0  0  0
    2.7443    1.6864   -0.0934 H   0  0  0  0  0  0  0  0  0  0  0  0
    3.0161    0.1656    0.7761 H   0  0  0  0  0  0  0  0  0  0  0  0
    1.6730    0.0721   -1.3940 H   0  0  0  0  0  0  0  0  0  0  0  0
    1.3635   -2.0635   -0.4780 H   0  0  0  0  0  0  0  0  0  0  0  0
    1.5807   -1.3699    1.1798 H   0  0  0  0  0  0  0  0  0  0  0  0
   -2.8107    0.5046   -1.1480 H   0  0  0  0  0  0  0  0  0  0  0  0
   -2.5016   -1.2400   -1.2030 H   0  0  0  0  0  0  0  0  0  0  0  0
   -3.1700   -0.5577    0.3206 H   0  0  0  0  0  0  0  0  0  0  0  0
   -1.5909    1.8925    0.7976 H   0  0  0  0  0  0  0  0  0  0  0  0
   -0.3537    0.9581    1.7992 H   0  0  0  0  0  0  0  0  0  0  0  0
   -0.3632    1.3404   -1.3623 H   0  0  0  0  0  0  0  0  0  0  0  0
  1  2  1  0
  2  3  1  0
  3  4  1  0
  4  5  2  0
  4  6  1  0
  6  7  1  0
  6  8  1  0
  8  9  1  0
  9  2  1  0
  9  6  1  0
  1 10  1  0
  1 11  1  0
  1 12  1  0
  2 13  1  0
  3 14  1  0
  3 15  1  0
  7 16  1  0
  7 17  1  0
  7 18  1  0
  8 19  1  0
  8 20  1  0
  9 21  1  0
M  END
