
     RDKit          3D

 19 19  0  0  0  0  0  0  0  0999 V2000
   -2.1128   -0.5749   -0.1656 C   0  0  0  0  0  0  0  0  0  0  0  0
   -0.7475   -0.4250    0.4836 C   0  0  0  0  0  0  0  0  0  0  0  0
    0.1126   -1.6034    0.2185 C   0  0  0  0  0  0  0  0  0  0  0  0
   -0.3851   -2.7365    0.0013 O   0  0  0  0  0  0  0  0  0  0  0  0
    1.4951   -1.5091    0.1984 O   0  0  0  0  0  0  0  0  0  0  0  0
    2.1073   -0.2264    0.2027 C   0  0  0  0  0  0  0  0  0  0  0  0
    1.2183    0.6755   -0.6299 C   0  0  0  0  0  0  0  0  0  0  0  0
   -0.1425    0.8482   -0.0272 C   0  0  0  0  0  0  0  0  0  0  0  0
   -0.1377    1.7772    1.0336 O   0  0  0  0  0  0  0  0  0  0  0  0
   -2.8066   -1.1826    0.4261 H   0  0  0  0  0  0  0  0  0  0  0  0
   -2.5493    0.4671   -0.1684 H   0  0  0  0  0  0  0  0  0  0  0  0
   -1.9815   -0.9239   -1.2033 H   0  0  0  0  0  0  0  0  0  0  0  0
   -0.9363   -0.3849    1.5970 H   0  0  0  0  0  0  0  0  0  0  0  0
    3.1130   -0.2381   -0.2414 H   0  0  0  0  0  0  0  0  0  0  0  0
    2.1366    0.1647    1.2294 H   0  0  0  0  0  0  0  0  0  0  0  0
    1.0803    0.1561   -1.6080 H   0  0  0  0  0  0  0  0  0  0  0  0
    1.6590    1.6854   -0.7535 H   0  0  0  0  0  0  0  0  0  0  0  0
   -0.7799    1.3358   -0.8223 H   0  0  0  0  0  0  0  0  0  0  0  0
   -0.3432    2.6948    0.7150 H   0  0  0  0  0  0  0  0  0  0  0  0
  1  2  1  0
  2  3  1  0
  3  4  2  0
  3  5  1  0
  5  6  1  0
  6  7  1  0
  7  8  1  0
  8  9  1  0
  8  2  1  0
  1 10  1  0
  1 11  1  0
  1 12  1  0
  2 13  1  0
  6 14  1  0
  6 15  1  0
  7 16  1  0
  7 17  1  0
  8 18  1  0
  9 19  1  0
M  END
