
     RDKit          3D

 18 19  0  0  0  0  0  0  0  0999 V2000
   -1.7612    0.6667   -1.1982 C   0  0  0  0  0  0  0  0  0  0  0  0
   -0.7123   -0.2702   -0.6667 C   0  0  0  0  0  0  0  0  0  0  0  0
   -0.9847   -0.7767    0.7225 C   0  0  0  0  0  0  0  0  0  0  0  0
   -2.0235   -0.2042    1.4661 O   0  0  0  0  0  0  0  0  0  0  0  0
    0.1811    0.1843    0.4230 C   0  0  0  0  0  0  0  0  0  0  0  0
    1.5278   -0.4363    0.6391 C   0  0  0  0  0  0  0  0  0  0  0  0
    2.5421   -0.4047   -0.3920 C   0  0  0  0  0  0  0  0  0  0  0  0
    2.5719    0.6232    0.6664 O   0  0  0  0  0  0  0  0  0  0  0  0
   -2.0878    0.4086   -2.2237 H   0  0  0  0  0  0  0  0  0  0  0  0
   -2.6510    0.7222   -0.5364 H   0  0  0  0  0  0  0  0  0  0  0  0
   -1.3636    1.7235   -1.2414 H   0  0  0  0  0  0  0  0  0  0  0  0
   -0.3397   -1.0308   -1.3918 H   0  0  0  0  0  0  0  0  0  0  0  0
   -0.7544   -1.8276    0.9270 H   0  0  0  0  0  0  0  0  0  0  0  0
   -1.5677    0.2628    2.2347 H   0  0  0  0  0  0  0  0  0  0  0  0
    0.0259    1.2554    0.7224 H   0  0  0  0  0  0  0  0  0  0  0  0
    1.7076   -1.0850    1.5289 H   0  0  0  0  0  0  0  0  0  0  0  0
    2.2551    0.0258   -1.3865 H   0  0  0  0  0  0  0  0  0  0  0  0
    3.4343   -1.0244   -0.2935 H   0  0  0  0  0  0  0  0  0  0  0  0
  1  2  1  0
  2  3  1  0
  3  4  1  0
  3  5  1  0
  5  6  1  0
  6  7  1  0
  7  8  1  0
  5  2  1  0
  8  6  1  0
  1  9  1  0
  1 10  1  0
  1 11  1  0
  2 12  1  0
  3 13  1  0
  4 14  1  0
  5 15  1  0
  6 16  1  0
  7 17  1  0
  7 18  1  0
M  END
