
     RDKit          3D

 23 24  0  0  0  0  0  0  0  0999 V2000
    2.3604    0.5091    0.6735 C   0  0  0  0  0  0  0  0  0  0  0  0
    0.8557    0.6997    0.6986 C   0  0  0  0  0  0  0  0  0  0  0  0
    0.2214    0.6904   -0.6998 C   0  0  0  0  0  0  0  0  0  0  0  0
    0.8993   -0.5090   -1.2709 C   0  0  0  0  0  0  0  0  0  0  0  0
    0.8023   -1.4083   -0.2576 C   0  0  0  0  0  0  0  0  0  0  0  0
    0.1119   -0.6186    0.7941 C   0  0  0  0  0  0  0  0  0  0  0  0
   -0.9709    0.0628   -0.0338 C   0  0  0  0  0  0  0  0  0  0  0  0
   -1.8874    0.9626    0.7088 C   0  0  0  0  0  0  0  0  0  0  0  0
   -1.6847   -0.8586   -0.9657 C   0  0  0  0  0  0  0  0  0  0  0  0
    2.6229   -0.5775    0.8273 H   0  0  0  0  0  0  0  0  0  0  0  0
    2.8177    0.8969   -0.2606 H   0  0  0  0  0  0  0  0  0  0  0  0
    2.8645    1.0454    1.5104 H   0  0  0  0  0  0  0  0  0  0  0  0
    0.5233    1.4973    1.3536 H   0  0  0  0  0  0  0  0  0  0  0  0
    0.1543    1.5835   -1.2357 H   0  0  0  0  0  0  0  0  0  0  0  0
    1.3602   -0.6547   -2.2419 H   0  0  0  0  0  0  0  0  0  0  0  0
    1.1596   -2.4302   -0.2765 H   0  0  0  0  0  0  0  0  0  0  0  0
   -0.1231   -1.0326    1.7239 H   0  0  0  0  0  0  0  0  0  0  0  0
   -2.8015    0.3895    0.9705 H   0  0  0  0  0  0  0  0  0  0  0  0
   -2.2246    1.7768    0.0290 H   0  0  0  0  0  0  0  0  0  0  0  0
   -1.4884    1.3589    1.6607 H   0  0  0  0  0  0  0  0  0  0  0  0
   -1.3261   -1.9122   -0.8719 H   0  0  0  0  0  0  0  0  0  0  0  0
   -2.7783   -0.8968   -0.8039 H   0  0  0  0  0  0  0  0  0  0  0  0
   -1.4684   -0.5746   -2.0321 H   0  0  0  0  0  0  0  0  0  0  0  0
  1  2  1  0
  2  3  1  0
  3  4  1  0
  4  5  2  0
  5  6  1  0
  6  7  1  0
  7  8  1  0
  7  9  1  0
  6  2  1  0
  7  3  1  0
  1 10  1  0
  1 11  1  0
  1 12  1  0
  2 13  1  0
  3 14  1  0
  4 15  1  0
  5 16  1  0
  6 17  1  0
  8 18  1  0
  8 19  1  0
  8 20  1  0
  9 21  1  0
  9 22  1  0
  9 23  1  0
M  END
