
     RDKit          3D

 21 22  0  0  0  0  0  0  0  0999 V2000
    2.6900    0.1304    0.0764 C   0  0  0  0  0  0  0  0  0  0  0  0
    1.1831    0.1096    0.2323 C   0  0  0  0  0  0  0  0  0  0  0  0
    0.6259    1.2093   -0.5705 C   0  0  0  0  0  0  0  0  0  0  0  0
   -0.6257    1.3903   -0.9476 C   0  0  0  0  0  0  0  0  0  0  0  0
   -1.8097    0.5957   -0.7011 C   0  0  0  0  0  0  0  0  0  0  0  0
   -2.1331    0.0588    0.6567 C   0  0  0  0  0  0  0  0  0  0  0  0
   -1.7633   -0.8259   -0.4761 C   0  0  0  0  0  0  0  0  0  0  0  0
   -0.5277   -1.5823   -0.5025 C   0  0  0  0  0  0  0  0  0  0  0  0
    0.6995   -1.2173   -0.2138 C   0  0  0  0  0  0  0  0  0  0  0  0
    3.0103    0.8756   -0.7102 H   0  0  0  0  0  0  0  0  0  0  0  0
    3.2070    0.3231    1.0398 H   0  0  0  0  0  0  0  0  0  0  0  0
    3.0817   -0.8494   -0.2871 H   0  0  0  0  0  0  0  0  0  0  0  0
    0.9275    0.3032    1.3013 H   0  0  0  0  0  0  0  0  0  0  0  0
    1.3560    1.9511   -0.8760 H   0  0  0  0  0  0  0  0  0  0  0  0
   -0.7938    2.3148   -1.5609 H   0  0  0  0  0  0  0  0  0  0  0  0
   -2.7495    0.9725   -1.2481 H   0  0  0  0  0  0  0  0  0  0  0  0
   -3.1854    0.0630    1.0005 H   0  0  0  0  0  0  0  0  0  0  0  0
   -1.4412    0.2190    1.5168 H   0  0  0  0  0  0  0  0  0  0  0  0
   -2.6535   -1.4339   -0.8701 H   0  0  0  0  0  0  0  0  0  0  0  0
   -0.5812   -2.6507   -0.8132 H   0  0  0  0  0  0  0  0  0  0  0  0
    1.4832   -1.9568   -0.3000 H   0  0  0  0  0  0  0  0  0  0  0  0
  1  2  1  0
  2  3  1  0
  3  4  2  0
  4  5  1  0
  5  6  1  0
  6  7  1  0
  7  8  1  0
  8  9  2  0
  9  2  1  0
  7  5  1  0
  1 10  1  0
  1 11  1  0
  1 12  1  0
  2 13  1  0
  3 14  1  0
  4 15  1  0
  5 16  1  0
  6 17  1  0
  6 18  1  0
  7 19  1  0
  8 20  1  0
  9 21  1  0
M  END
