
     RDKit          3D

 25 26  0  0  0  0  0  0  0  0999 V2000
    3.0512    0.4843    0.2122 C   0  0  0  0  0  0  0  0  0  0  0  0
    1.8151   -0.0020    0.9130 C   0  0  0  0  0  0  0  0  0  0  0  0
    1.2512   -1.3390    0.6888 C   0  0  0  0  0  0  0  0  0  0  0  0
    0.6105   -0.2080   -0.0014 C   0  0  0  0  0  0  0  0  0  0  0  0
    0.8788   -0.1478   -1.5099 C   0  0  0  0  0  0  0  0  0  0  0  0
   -0.6319    0.4439    0.4917 C   0  0  0  0  0  0  0  0  0  0  0  0
   -1.8196    0.2377   -0.4149 C   0  0  0  0  0  0  0  0  0  0  0  0
   -3.1285    0.8642    0.0045 C   0  0  0  0  0  0  0  0  0  0  0  0
   -2.9276   -0.5903    0.2054 C   0  0  0  0  0  0  0  0  0  0  0  0
    3.5813   -0.2822   -0.3510 H   0  0  0  0  0  0  0  0  0  0  0  0
    2.7110    1.2588   -0.5341 H   0  0  0  0  0  0  0  0  0  0  0  0
    3.7232    1.0620    0.9101 H   0  0  0  0  0  0  0  0  0  0  0  0
    1.6545    0.4430    1.9065 H   0  0  0  0  0  0  0  0  0  0  0  0
    0.6738   -1.8150    1.5235 H   0  0  0  0  0  0  0  0  0  0  0  0
    1.8378   -2.0847    0.1127 H   0  0  0  0  0  0  0  0  0  0  0  0
    0.4300   -1.0660   -1.9845 H   0  0  0  0  0  0  0  0  0  0  0  0
    1.9724   -0.2373   -1.7081 H   0  0  0  0  0  0  0  0  0  0  0  0
    0.4827    0.7762   -1.9432 H   0  0  0  0  0  0  0  0  0  0  0  0
   -0.4468    1.5563    0.5203 H   0  0  0  0  0  0  0  0  0  0  0  0
   -0.8399    0.1074    1.5215 H   0  0  0  0  0  0  0  0  0  0  0  0
   -1.6292    0.0832   -1.5043 H   0  0  0  0  0  0  0  0  0  0  0  0
   -3.0790    1.5321    0.8867 H   0  0  0  0  0  0  0  0  0  0  0  0
   -3.8645    1.1569   -0.7523 H   0  0  0  0  0  0  0  0  0  0  0  0
   -3.4777   -1.3120   -0.4481 H   0  0  0  0  0  0  0  0  0  0  0  0
   -2.8287   -0.9215    1.2553 H   0  0  0  0  0  0  0  0  0  0  0  0
  1  2  1  0
  2  3  1  0
  3  4  1  0
  4  5  1  0
  4  6  1  0
  6  7  1  0
  7  8  1  0
  8  9  1  0
  4  2  1  0
  9  7  1  0
  1 10  1  0
  1 11  1  0
  1 12  1  0
  2 13  1  0
  3 14  1  0
  3 15  1  0
  5 16  1  0
  5 17  1  0
  5 18  1  0
  6 19  1  0
  6 20  1  0
  7 21  1  0
  8 22  1  0
  8 23  1  0
  9 24  1  0
  9 25  1  0
M  END
