
     RDKit          3D

 21 22  0  0  0  0  0  0  0  0999 V2000
    2.7516   -0.8700   -0.1271 C   0  0  0  0  0  0  0  0  0  0  0  0
    1.7335    0.1330    0.4022 C   0  0  0  0  0  0  0  0  0  0  0  0
    0.8141    0.7027   -0.6515 C   0  0  0  0  0  0  0  0  0  0  0  0
   -0.1840    0.2383    0.3382 C   0  0  0  0  0  0  0  0  0  0  0  0
    0.6669   -0.6020    0.9716 O   0  0  0  0  0  0  0  0  0  0  0  0
   -1.5451    0.0181   -0.0563 C   0  0  0  0  0  0  0  0  0  0  0  0
   -2.1985   -1.2955    0.2526 C   0  0  0  0  0  0  0  0  0  0  0  0
   -1.2210    1.0160    0.9629 C   0  0  0  0  0  0  0  0  0  0  0  0
   -1.2678    2.3742    0.7456 O   0  0  0  0  0  0  0  0  0  0  0  0
    3.3652   -0.3867   -0.8969 H   0  0  0  0  0  0  0  0  0  0  0  0
    3.3953   -1.1298    0.7596 H   0  0  0  0  0  0  0  0  0  0  0  0
    2.2182   -1.7754   -0.4668 H   0  0  0  0  0  0  0  0  0  0  0  0
    2.1552    0.9087    1.0326 H   0  0  0  0  0  0  0  0  0  0  0  0
    0.7685    0.0744   -1.5796 H   0  0  0  0  0  0  0  0  0  0  0  0
    0.8456    1.7805   -0.7963 H   0  0  0  0  0  0  0  0  0  0  0  0
   -1.8745    0.4399   -1.0516 H   0  0  0  0  0  0  0  0  0  0  0  0
   -2.1376   -1.9151   -0.6857 H   0  0  0  0  0  0  0  0  0  0  0  0
   -1.7207   -1.8518    1.0715 H   0  0  0  0  0  0  0  0  0  0  0  0
   -3.2769   -1.1322    0.4268 H   0  0  0  0  0  0  0  0  0  0  0  0
   -1.5063    0.7350    2.0194 H   0  0  0  0  0  0  0  0  0  0  0  0
   -1.7817    2.5379   -0.0742 H   0  0  0  0  0  0  0  0  0  0  0  0
  1  2  1  0
  2  3  1  0
  3  4  1  0
  4  5  1  0
  4  6  1  0
  6  7  1  0
  6  8  1  0
  8  9  1  0
  5  2  1  0
  8  4  1  0
  1 10  1  0
  1 11  1  0
  1 12  1  0
  2 13  1  0
  3 14  1  0
  3 15  1  0
  6 16  1  0
  7 17  1  0
  7 18  1  0
  7 19  1  0
  8 20  1  0
  9 21  1  0
M  END
