
     RDKit          3D

 23 24  0  0  0  0  0  0  0  0999 V2000
   -1.8356   -1.4436    0.7079 C   0  0  0  0  0  0  0  0  0  0  0  0
   -1.4976   -0.3729   -0.2839 C   0  0  0  0  0  0  0  0  0  0  0  0
   -0.1073   -0.2055   -0.7908 C   0  0  0  0  0  0  0  0  0  0  0  0
    1.0589   -0.0709    0.1329 C   0  0  0  0  0  0  0  0  0  0  0  0
    1.3099   -1.2152    1.0736 C   0  0  0  0  0  0  0  0  0  0  0  0
    2.3128    0.3537   -0.5510 C   0  0  0  0  0  0  0  0  0  0  0  0
    0.3524    0.9314    0.8033 O   0  0  0  0  0  0  0  0  0  0  0  0
   -0.8061    0.8687    0.0813 C   0  0  0  0  0  0  0  0  0  0  0  0
   -1.1627    2.1709   -0.6208 C   0  0  0  0  0  0  0  0  0  0  0  0
   -1.1582   -2.3371    0.6358 H   0  0  0  0  0  0  0  0  0  0  0  0
   -2.8664   -1.8668    0.5610 H   0  0  0  0  0  0  0  0  0  0  0  0
   -1.8389   -0.9927    1.7099 H   0  0  0  0  0  0  0  0  0  0  0  0
   -2.2781   -0.2635   -1.0837 H   0  0  0  0  0  0  0  0  0  0  0  0
    0.0645    0.1052   -1.8416 H   0  0  0  0  0  0  0  0  0  0  0  0
    0.5765   -1.2644    1.9007 H   0  0  0  0  0  0  0  0  0  0  0  0
    2.2969   -0.9949    1.5774 H   0  0  0  0  0  0  0  0  0  0  0  0
    1.4600   -2.1805    0.5585 H   0  0  0  0  0  0  0  0  0  0  0  0
    2.5545    1.4144   -0.4782 H   0  0  0  0  0  0  0  0  0  0  0  0
    2.2203    0.0859   -1.6386 H   0  0  0  0  0  0  0  0  0  0  0  0
    3.2156   -0.2306   -0.2070 H   0  0  0  0  0  0  0  0  0  0  0  0
   -1.9225    1.9921   -1.4249 H   0  0  0  0  0  0  0  0  0  0  0  0
   -0.2867    2.7226   -0.9730 H   0  0  0  0  0  0  0  0  0  0  0  0
   -1.6622    2.7938    0.1513 H   0  0  0  0  0  0  0  0  0  0  0  0
  1  2  1  0
  2  3  1  0
  3  4  1  0
  4  5  1  0
  4  6  1  0
  4  7  1  0
  7  8  1  0
  8  9  1  0
  8  2  1  0
  8  3  1  0
  1 10  1  0
  1 11  1  0
  1 12  1  0
  2 13  1  0
  3 14  1  0
  5 15  1  0
  5 16  1  0
  5 17  1  0
  6 18  1  0
  6 19  1  0
  6 20  1  0
  9 21  1  0
  9 22  1  0
  9 23  1  0
M  END
