
     RDKit          3D

 25 25  0  0  0  0  0  0  0  0999 V2000
    2.9333   -0.4228   -0.2892 C   0  0  0  0  0  0  0  0  0  0  0  0
    1.4658   -0.1881   -0.5780 C   0  0  0  0  0  0  0  0  0  0  0  0
    0.6696   -1.3092   -0.0224 C   0  0  0  0  0  0  0  0  0  0  0  0
   -0.6194   -1.6036    0.0149 C   0  0  0  0  0  0  0  0  0  0  0  0
   -1.8889   -1.0120   -0.4485 C   0  0  0  0  0  0  0  0  0  0  0  0
   -2.3859    0.1062    0.4059 C   0  0  0  0  0  0  0  0  0  0  0  0
   -1.3549    1.0862    0.8268 C   0  0  0  0  0  0  0  0  0  0  0  0
   -0.3701    1.4684   -0.2213 C   0  0  0  0  0  0  0  0  0  0  0  0
    1.0559    1.0839    0.1216 C   0  0  0  0  0  0  0  0  0  0  0  0
    2.9830   -0.8971    0.7138 H   0  0  0  0  0  0  0  0  0  0  0  0
    3.3201   -1.1501   -1.0381 H   0  0  0  0  0  0  0  0  0  0  0  0
    3.5232    0.5143   -0.3259 H   0  0  0  0  0  0  0  0  0  0  0  0
    1.3154   -0.0395   -1.6536 H   0  0  0  0  0  0  0  0  0  0  0  0
    1.2921   -2.0710    0.4723 H   0  0  0  0  0  0  0  0  0  0  0  0
   -0.7484   -2.5634    0.5462 H   0  0  0  0  0  0  0  0  0  0  0  0
   -2.6656   -1.8171   -0.4268 H   0  0  0  0  0  0  0  0  0  0  0  0
   -1.7991   -0.7283   -1.5360 H   0  0  0  0  0  0  0  0  0  0  0  0
   -3.2018    0.6242   -0.1363 H   0  0  0  0  0  0  0  0  0  0  0  0
   -2.8501   -0.3273    1.3168 H   0  0  0  0  0  0  0  0  0  0  0  0
   -1.8960    2.0176    1.1680 H   0  0  0  0  0  0  0  0  0  0  0  0
   -0.8115    0.7317    1.7255 H   0  0  0  0  0  0  0  0  0  0  0  0
   -0.3699    2.5806   -0.3931 H   0  0  0  0  0  0  0  0  0  0  0  0
   -0.5795    1.0277   -1.2206 H   0  0  0  0  0  0  0  0  0  0  0  0
    1.7676    1.8787   -0.2461 H   0  0  0  0  0  0  0  0  0  0  0  0
    1.2149    1.0098    1.2243 H   0  0  0  0  0  0  0  0  0  0  0  0
  1  2  1  0
  2  3  1  0
  3  4  2  3
  4  5  1  0
  5  6  1  0
  6  7  1  0
  7  8  1  0
  8  9  1  0
  9  2  1  0
  1 10  1  0
  1 11  1  0
  1 12  1  0
  2 13  1  0
  3 14  1  0
  4 15  1  0
  5 16  1  0
  5 17  1  0
  6 18  1  0
  6 19  1  0
  7 20  1  0
  7 21  1  0
  8 22  1  0
  8 23  1  0
  9 24  1  0
  9 25  1  0
M  END
