
     RDKit          3D

 21 22  0  0  0  0  0  0  0  0999 V2000
   -2.5879    0.4899    0.5678 C   0  0  0  0  0  0  0  0  0  0  0  0
   -1.6812    0.0299   -0.5598 C   0  0  0  0  0  0  0  0  0  0  0  0
   -1.1975   -1.3634   -0.4609 C   0  0  0  0  0  0  0  0  0  0  0  0
   -0.2161   -0.1972   -0.2421 C   0  0  0  0  0  0  0  0  0  0  0  0
    0.1766   -0.0299    1.0669 O   0  0  0  0  0  0  0  0  0  0  0  0
    0.7179    0.1470   -1.3691 C   0  0  0  0  0  0  0  0  0  0  0  0
    2.1501   -0.0674   -1.0792 C   0  0  0  0  0  0  0  0  0  0  0  0
    2.9226    0.5476   -0.0470 C   0  0  0  0  0  0  0  0  0  0  0  0
    2.3594   -0.7506    0.2040 O   0  0  0  0  0  0  0  0  0  0  0  0
   -2.5538   -0.2274    1.3998 H   0  0  0  0  0  0  0  0  0  0  0  0
   -2.2498    1.4699    0.9429 H   0  0  0  0  0  0  0  0  0  0  0  0
   -3.6112    0.5521    0.1420 H   0  0  0  0  0  0  0  0  0  0  0  0
   -1.9547    0.4316   -1.5612 H   0  0  0  0  0  0  0  0  0  0  0  0
   -1.0583   -1.9450   -1.4129 H   0  0  0  0  0  0  0  0  0  0  0  0
   -1.4359   -2.0039    0.4050 H   0  0  0  0  0  0  0  0  0  0  0  0
   -0.0849    0.8607    1.4496 H   0  0  0  0  0  0  0  0  0  0  0  0
    0.5477    1.2103   -1.6899 H   0  0  0  0  0  0  0  0  0  0  0  0
    0.4209   -0.4743   -2.2369 H   0  0  0  0  0  0  0  0  0  0  0  0
    2.7227   -0.5477   -1.9258 H   0  0  0  0  0  0  0  0  0  0  0  0
    2.5839    1.3653    0.6229 H   0  0  0  0  0  0  0  0  0  0  0  0
    4.0294    0.5023   -0.1104 H   0  0  0  0  0  0  0  0  0  0  0  0
  1  2  1  0
  2  3  1  0
  3  4  1  0
  4  5  1  0
  4  6  1  0
  6  7  1  0
  7  8  1  0
  8  9  1  0
  4  2  1  0
  9  7  1  0
  1 10  1  0
  1 11  1  0
  1 12  1  0
  2 13  1  0
  3 14  1  0
  3 15  1  0
  5 16  1  0
  6 17  1  0
  6 18  1  0
  7 19  1  0
  8 20  1  0
  8 21  1  0
M  END
