
     RDKit          3D

 21 23  0  0  0  0  0  0  0  0999 V2000
    2.7240    0.0596    0.4700 C   0  0  0  0  0  0  0  0  0  0  0  0
    1.4350    0.2983   -0.3332 C   0  0  0  0  0  0  0  0  0  0  0  0
    0.5333   -0.7679   -0.4228 C   0  0  0  0  0  0  0  0  0  0  0  0
   -0.2436   -1.5654    0.5526 C   0  0  0  0  0  0  0  0  0  0  0  0
   -1.6020   -0.8468    0.3853 C   0  0  0  0  0  0  0  0  0  0  0  0
   -1.1996    0.5819   -0.0130 C   0  0  0  0  0  0  0  0  0  0  0  0
   -2.0415    1.7229    0.3069 C   0  0  0  0  0  0  0  0  0  0  0  0
   -1.7560    1.1918   -1.0755 O   0  0  0  0  0  0  0  0  0  0  0  0
    0.2323    0.5942    0.3300 C   0  0  0  0  0  0  0  0  0  0  0  0
    3.4186    0.9095    0.3811 H   0  0  0  0  0  0  0  0  0  0  0  0
    3.2503   -0.8491    0.1207 H   0  0  0  0  0  0  0  0  0  0  0  0
    2.4377   -0.0578    1.5569 H   0  0  0  0  0  0  0  0  0  0  0  0
    1.6943    0.8995   -1.2463 H   0  0  0  0  0  0  0  0  0  0  0  0
    0.0188   -0.8729   -1.4318 H   0  0  0  0  0  0  0  0  0  0  0  0
    0.0832   -1.3489    1.5807 H   0  0  0  0  0  0  0  0  0  0  0  0
   -0.3386   -2.6309    0.3134 H   0  0  0  0  0  0  0  0  0  0  0  0
   -2.1594   -0.8609    1.3216 H   0  0  0  0  0  0  0  0  0  0  0  0
   -2.1169   -1.3355   -0.4660 H   0  0  0  0  0  0  0  0  0  0  0  0
   -1.5535    2.6981    0.4583 H   0  0  0  0  0  0  0  0  0  0  0  0
   -3.1300    1.6337    0.4863 H   0  0  0  0  0  0  0  0  0  0  0  0
    0.3137    0.5465    1.4630 H   0  0  0  0  0  0  0  0  0  0  0  0
  1  2  1  0
  2  3  1  0
  3  4  1  0
  4  5  1  0
  5  6  1  0
  6  7  1  0
  7  8  1  0
  6  9  1  0
  9  2  1  0
  9  3  1  0
  8  6  1  0
  1 10  1  0
  1 11  1  0
  1 12  1  0
  2 13  1  0
  3 14  1  0
  4 15  1  0
  4 16  1  0
  5 17  1  0
  5 18  1  0
  7 19  1  0
  7 20  1  0
  9 21  1  0
M  END
