
     RDKit          3D

 19 20  0  0  0  0  0  0  0  0999 V2000
    2.5356    0.5399    0.1199 C   0  0  0  0  0  0  0  0  0  0  0  0
    1.1886    0.0903   -0.3187 C   0  0  0  0  0  0  0  0  0  0  0  0
    0.0666    0.6197    0.5811 C   0  0  0  0  0  0  0  0  0  0  0  0
   -1.0484   -0.3279    0.1623 C   0  0  0  0  0  0  0  0  0  0  0  0
   -2.3781   -0.2685    0.7713 C   0  0  0  0  0  0  0  0  0  0  0  0
   -2.1813    0.1590   -0.6301 C   0  0  0  0  0  0  0  0  0  0  0  0
   -0.4007   -1.5534   -0.1122 O   0  0  0  0  0  0  0  0  0  0  0  0
    0.9722   -1.3715   -0.1875 C   0  0  0  0  0  0  0  0  0  0  0  0
    1.8011   -2.2967   -0.1468 O   0  0  0  0  0  0  0  0  0  0  0  0
    2.5673    0.7761    1.1865 H   0  0  0  0  0  0  0  0  0  0  0  0
    3.3033   -0.2278   -0.1845 H   0  0  0  0  0  0  0  0  0  0  0  0
    2.7932    1.4634   -0.4709 H   0  0  0  0  0  0  0  0  0  0  0  0
    0.9235    0.3846   -1.3517 H   0  0  0  0  0  0  0  0  0  0  0  0
    0.3329    0.3895    1.6315 H   0  0  0  0  0  0  0  0  0  0  0  0
   -0.1668    1.6653    0.3872 H   0  0  0  0  0  0  0  0  0  0  0  0
   -2.5732    0.4897    1.5415 H   0  0  0  0  0  0  0  0  0  0  0  0
   -2.8653   -1.2487    0.9961 H   0  0  0  0  0  0  0  0  0  0  0  0
   -2.5427   -0.5121   -1.4418 H   0  0  0  0  0  0  0  0  0  0  0  0
   -2.3275    1.2290   -0.8624 H   0  0  0  0  0  0  0  0  0  0  0  0
  1  2  1  0
  2  3  1  0
  3  4  1  0
  4  5  1  0
  5  6  1  0
  4  7  1  0
  7  8  1  0
  8  9  2  0
  8  2  1  0
  6  4  1  0
  1 10  1  0
  1 11  1  0
  1 12  1  0
  2 13  1  0
  3 14  1  0
  3 15  1  0
  5 16  1  0
  5 17  1  0
  6 18  1  0
  6 19  1  0
M  END
