
     RDKit          3D

 20 21  0  0  0  0  0  0  0  0999 V2000
    1.9619   -1.3875   -0.4818 C   0  0  0  0  0  0  0  0  0  0  0  0
    1.1946   -0.3300    0.2651 C   0  0  0  0  0  0  0  0  0  0  0  0
    0.8515    0.9310   -0.5568 C   0  0  0  0  0  0  0  0  0  0  0  0
    0.9684    2.1626    0.1100 O   0  0  0  0  0  0  0  0  0  0  0  0
   -0.1611    0.0366   -0.0233 C   0  0  0  0  0  0  0  0  0  0  0  0
   -1.1790   -0.6943   -0.7747 C   0  0  0  0  0  0  0  0  0  0  0  0
   -2.2382    0.1998   -0.1113 C   0  0  0  0  0  0  0  0  0  0  0  0
   -1.1846    0.4734    0.9727 C   0  0  0  0  0  0  0  0  0  0  0  0
    3.0552   -1.1260   -0.3864 H   0  0  0  0  0  0  0  0  0  0  0  0
    1.7563   -1.3767   -1.5655 H   0  0  0  0  0  0  0  0  0  0  0  0
    1.8561   -2.3764   -0.0097 H   0  0  0  0  0  0  0  0  0  0  0  0
    1.5635   -0.1585    1.3098 H   0  0  0  0  0  0  0  0  0  0  0  0
    1.1638    0.9144   -1.6354 H   0  0  0  0  0  0  0  0  0  0  0  0
    0.9958    2.8597   -0.5958 H   0  0  0  0  0  0  0  0  0  0  0  0
   -1.3649   -1.7645   -0.4950 H   0  0  0  0  0  0  0  0  0  0  0  0
   -1.2002   -0.5271   -1.8818 H   0  0  0  0  0  0  0  0  0  0  0  0
   -2.4540    1.1257   -0.6842 H   0  0  0  0  0  0  0  0  0  0  0  0
   -3.1205   -0.3261    0.2519 H   0  0  0  0  0  0  0  0  0  0  0  0
   -1.2980   -0.1808    1.8623 H   0  0  0  0  0  0  0  0  0  0  0  0
   -1.1668    1.5449    1.2317 H   0  0  0  0  0  0  0  0  0  0  0  0
  1  2  1  0
  2  3  1  0
  3  4  1  0
  3  5  1  0
  5  6  1  0
  6  7  1  0
  7  8  1  0
  5  2  1  0
  8  5  1  0
  1  9  1  0
  1 10  1  0
  1 11  1  0
  2 12  1  0
  3 13  1  0
  4 14  1  0
  6 15  1  0
  6 16  1  0
  7 17  1  0
  7 18  1  0
  8 19  1  0
  8 20  1  0
M  END
