
     RDKit          3D

 21 22  0  0  0  0  0  0  0  0999 V2000
    2.3417    0.0540   -0.1623 C   0  0  0  0  0  0  0  0  0  0  0  0
    1.1207    0.4500    0.6911 C   0  0  0  0  0  0  0  0  0  0  0  0
    0.7503   -0.7629    1.4307 C   0  0  0  0  0  0  0  0  0  0  0  0
   -0.3982   -1.2243    0.9928 C   0  0  0  0  0  0  0  0  0  0  0  0
   -0.9330   -0.3949   -0.0748 C   0  0  0  0  0  0  0  0  0  0  0  0
   -2.4447   -0.1815   -0.0398 C   0  0  0  0  0  0  0  0  0  0  0  0
   -0.2630   -0.1118   -1.3476 C   0  0  0  0  0  0  0  0  0  0  0  0
   -0.0324    0.7748   -0.1752 C   0  0  0  0  0  0  0  0  0  0  0  0
   -0.5728    2.0724   -0.1627 O   0  0  0  0  0  0  0  0  0  0  0  0
    2.1591   -0.9839   -0.4956 H   0  0  0  0  0  0  0  0  0  0  0  0
    3.2218    0.0499    0.5034 H   0  0  0  0  0  0  0  0  0  0  0  0
    2.4217    0.7696   -0.9982 H   0  0  0  0  0  0  0  0  0  0  0  0
    1.4196    1.2852    1.3713 H   0  0  0  0  0  0  0  0  0  0  0  0
    1.3765   -1.1990    2.2388 H   0  0  0  0  0  0  0  0  0  0  0  0
   -0.8735   -2.1452    1.4152 H   0  0  0  0  0  0  0  0  0  0  0  0
   -2.8128   -0.3459   -1.0731 H   0  0  0  0  0  0  0  0  0  0  0  0
   -2.9307   -0.9476    0.5919 H   0  0  0  0  0  0  0  0  0  0  0  0
   -2.6833    0.8303    0.2894 H   0  0  0  0  0  0  0  0  0  0  0  0
   -0.8797    0.3385   -2.1507 H   0  0  0  0  0  0  0  0  0  0  0  0
    0.5710   -0.7109   -1.7393 H   0  0  0  0  0  0  0  0  0  0  0  0
   -0.5583    2.3830   -1.1051 H   0  0  0  0  0  0  0  0  0  0  0  0
  1  2  1  0
  2  3  1  0
  3  4  2  0
  4  5  1  0
  5  6  1  0
  5  7  1  0
  7  8  1  0
  8  9  1  0
  8  2  1  0
  8  5  1  0
  1 10  1  0
  1 11  1  0
  1 12  1  0
  2 13  1  0
  3 14  1  0
  4 15  1  0
  6 16  1  0
  6 17  1  0
  6 18  1  0
  7 19  1  0
  7 20  1  0
  9 21  1  0
M  END
