
     RDKit          3D

 16 16  0  0  0  0  0  0  0  0999 V2000
    2.0069    0.1062    0.6661 C   0  0  0  0  0  0  0  0  0  0  0  0
    0.7751   -0.3097   -0.1554 C   0  0  0  0  0  0  0  0  0  0  0  0
    0.1739    0.9474   -0.6322 C   0  0  0  0  0  0  0  0  0  0  0  0
   -1.1190    1.1508   -0.5101 C   0  0  0  0  0  0  0  0  0  0  0  0
   -1.9010    0.0912    0.1067 C   0  0  0  0  0  0  0  0  0  0  0  0
   -3.0064    0.3649    0.6314 O   0  0  0  0  0  0  0  0  0  0  0  0
   -1.2897   -1.2581    0.0514 C   0  0  0  0  0  0  0  0  0  0  0  0
   -0.0189   -1.0795    0.6532 O   0  0  0  0  0  0  0  0  0  0  0  0
    2.9307    0.0158    0.0438 H   0  0  0  0  0  0  0  0  0  0  0  0
    1.9454    1.1584    0.9826 H   0  0  0  0  0  0  0  0  0  0  0  0
    2.0779   -0.5085    1.5967 H   0  0  0  0  0  0  0  0  0  0  0  0
    1.1596   -0.9051   -1.0374 H   0  0  0  0  0  0  0  0  0  0  0  0
    0.8118    1.6793   -1.0745 H   0  0  0  0  0  0  0  0  0  0  0  0
   -1.5948    2.0742   -0.8548 H   0  0  0  0  0  0  0  0  0  0  0  0
   -1.0689   -1.5136   -1.0208 H   0  0  0  0  0  0  0  0  0  0  0  0
   -1.8826   -2.0139    0.5532 H   0  0  0  0  0  0  0  0  0  0  0  0
  1  2  1  0
  2  3  1  0
  3  4  2  0
  4  5  1  0
  5  6  2  0
  5  7  1  0
  7  8  1  0
  8  2  1  0
  1  9  1  0
  1 10  1  0
  1 11  1  0
  2 12  1  0
  3 13  1  0
  4 14  1  0
  7 15  1  0
  7 16  1  0
M  END
