
     RDKit          3D

 23 24  0  0  0  0  0  0  0  0999 V2000
    3.1365    0.0481    0.1112 C   0  0  0  0  0  0  0  0  0  0  0  0
    1.6599    0.1844    0.4386 C   0  0  0  0  0  0  0  0  0  0  0  0
    0.8877    0.7708   -0.7346 C   0  0  0  0  0  0  0  0  0  0  0  0
   -0.2179   -0.2943   -0.8146 C   0  0  0  0  0  0  0  0  0  0  0  0
   -0.2170   -1.0349    0.3872 C   0  0  0  0  0  0  0  0  0  0  0  0
    1.1235   -1.0737    0.4786 O   0  0  0  0  0  0  0  0  0  0  0  0
   -1.3175   -0.2037   -0.0515 C   0  0  0  0  0  0  0  0  0  0  0  0
   -2.5861   -0.9960   -0.4082 C   0  0  0  0  0  0  0  0  0  0  0  0
   -1.6820    1.1056    0.6664 C   0  0  0  0  0  0  0  0  0  0  0  0
    3.6331   -0.2729    1.0515 H   0  0  0  0  0  0  0  0  0  0  0  0
    3.2839   -0.8048   -0.6062 H   0  0  0  0  0  0  0  0  0  0  0  0
    3.5783    0.9764   -0.2523 H   0  0  0  0  0  0  0  0  0  0  0  0
    1.4808    0.7045    1.3758 H   0  0  0  0  0  0  0  0  0  0  0  0
    0.4224    1.7257   -0.4415 H   0  0  0  0  0  0  0  0  0  0  0  0
    1.4745    0.8389   -1.6463 H   0  0  0  0  0  0  0  0  0  0  0  0
   -0.1550   -0.8734   -1.7823 H   0  0  0  0  0  0  0  0  0  0  0  0
   -0.6072   -1.4370    1.2767 H   0  0  0  0  0  0  0  0  0  0  0  0
   -3.4907   -0.4055   -0.3107 H   0  0  0  0  0  0  0  0  0  0  0  0
   -2.6469   -1.8480    0.3309 H   0  0  0  0  0  0  0  0  0  0  0  0
   -2.4496   -1.3911   -1.4281 H   0  0  0  0  0  0  0  0  0  0  0  0
   -1.7662    1.8671   -0.1525 H   0  0  0  0  0  0  0  0  0  0  0  0
   -0.8838    1.3678    1.3643 H   0  0  0  0  0  0  0  0  0  0  0  0
   -2.6608    1.0459    1.1478 H   0  0  0  0  0  0  0  0  0  0  0  0
  1  2  1  0
  2  3  1  0
  3  4  1  0
  4  5  1  0
  5  6  1  0
  5  7  1  0
  7  8  1  0
  7  9  1  0
  6  2  1  0
  7  4  1  0
  1 10  1  0
  1 11  1  0
  1 12  1  0
  2 13  1  0
  3 14  1  0
  3 15  1  0
  4 16  1  0
  5 17  1  0
  8 18  1  0
  8 19  1  0
  8 20  1  0
  9 21  1  0
  9 22  1  0
  9 23  1  0
M  END
