
     RDKit          3D

 21 22  0  0  0  0  0  0  0  0999 V2000
    1.8211   -0.3963    0.5929 C   0  0  0  0  0  0  0  0  0  0  0  0
    1.0923   -0.3140   -0.6882 C   0  0  0  0  0  0  0  0  0  0  0  0
   -0.1789   -1.0235   -0.8630 C   0  0  0  0  0  0  0  0  0  0  0  0
   -1.0240   -1.2240    0.3326 C   0  0  0  0  0  0  0  0  0  0  0  0
   -1.7134    0.0927    0.7125 C   0  0  0  0  0  0  0  0  0  0  0  0
   -0.7229    0.9011    1.2261 O   0  0  0  0  0  0  0  0  0  0  0  0
   -0.1728    1.6524    0.2325 C   0  0  0  0  0  0  0  0  0  0  0  0
    0.2752    0.8965   -0.9703 C   0  0  0  0  0  0  0  0  0  0  0  0
   -0.6832    0.1051   -1.5508 O   0  0  0  0  0  0  0  0  0  0  0  0
    1.9201    0.6223    1.0422 H   0  0  0  0  0  0  0  0  0  0  0  0
    1.4055   -1.1234    1.3227 H   0  0  0  0  0  0  0  0  0  0  0  0
    2.8896   -0.7338    0.4418 H   0  0  0  0  0  0  0  0  0  0  0  0
    1.7823   -0.5083   -1.5614 H   0  0  0  0  0  0  0  0  0  0  0  0
   -0.0816   -1.9286   -1.4824 H   0  0  0  0  0  0  0  0  0  0  0  0
   -1.8719   -1.9061    0.0395 H   0  0  0  0  0  0  0  0  0  0  0  0
   -0.5548   -1.6722    1.2004 H   0  0  0  0  0  0  0  0  0  0  0  0
   -2.5148   -0.1535    1.4141 H   0  0  0  0  0  0  0  0  0  0  0  0
   -2.1214    0.5005   -0.2425 H   0  0  0  0  0  0  0  0  0  0  0  0
    0.6787    2.2157    0.6340 H   0  0  0  0  0  0  0  0  0  0  0  0
   -0.9301    2.4059   -0.1078 H   0  0  0  0  0  0  0  0  0  0  0  0
    0.7049    1.5914   -1.7250 H   0  0  0  0  0  0  0  0  0  0  0  0
  1  2  1  0
  2  3  1  0
  3  4  1  0
  4  5  1  0
  5  6  1  0
  6  7  1  0
  7  8  1  0
  8  9  1  0
  8  2  1  0
  9  3  1  0
  1 10  1  0
  1 11  1  0
  1 12  1  0
  2 13  1  0
  3 14  1  0
  4 15  1  0
  4 16  1  0
  5 17  1  0
  5 18  1  0
  7 19  1  0
  7 20  1  0
  8 21  1  0
M  END
