
     RDKit          3D

 23 24  0  0  0  0  0  0  0  0999 V2000
   -2.0954    0.1672    1.6322 C   0  0  0  0  0  0  0  0  0  0  0  0
   -1.1899    0.5167    0.4630 C   0  0  0  0  0  0  0  0  0  0  0  0
   -1.9555    0.5525   -0.8407 C   0  0  0  0  0  0  0  0  0  0  0  0
   -1.2950   -0.7429   -1.2715 C   0  0  0  0  0  0  0  0  0  0  0  0
   -0.3844   -0.6388   -0.0773 C   0  0  0  0  0  0  0  0  0  0  0  0
    0.9757   -0.1471   -0.4960 C   0  0  0  0  0  0  0  0  0  0  0  0
    1.8480   -1.1953   -1.0401 O   0  0  0  0  0  0  0  0  0  0  0  0
    2.2052   -0.5027    0.1184 C   0  0  0  0  0  0  0  0  0  0  0  0
    3.3582    0.4778    0.0576 C   0  0  0  0  0  0  0  0  0  0  0  0
   -2.7275    1.0563    1.8223 H   0  0  0  0  0  0  0  0  0  0  0  0
   -1.5406   -0.0521    2.5457 H   0  0  0  0  0  0  0  0  0  0  0  0
   -2.7806   -0.6747    1.3862 H   0  0  0  0  0  0  0  0  0  0  0  0
   -0.6300    1.4324    0.6947 H   0  0  0  0  0  0  0  0  0  0  0  0
   -1.6771    1.3834   -1.5002 H   0  0  0  0  0  0  0  0  0  0  0  0
   -3.0316    0.4677   -0.6948 H   0  0  0  0  0  0  0  0  0  0  0  0
   -0.7764   -0.6955   -2.2541 H   0  0  0  0  0  0  0  0  0  0  0  0
   -1.9459   -1.6426   -1.1894 H   0  0  0  0  0  0  0  0  0  0  0  0
   -0.3908   -1.4945    0.6129 H   0  0  0  0  0  0  0  0  0  0  0  0
    0.9473    0.6951   -1.2186 H   0  0  0  0  0  0  0  0  0  0  0  0
    2.2602   -1.1688    1.0071 H   0  0  0  0  0  0  0  0  0  0  0  0
    3.3920    0.9710    1.0654 H   0  0  0  0  0  0  0  0  0  0  0  0
    3.1127    1.2639   -0.6708 H   0  0  0  0  0  0  0  0  0  0  0  0
    4.3216   -0.0292   -0.1520 H   0  0  0  0  0  0  0  0  0  0  0  0
  1  2  1  0
  2  3  1  0
  3  4  1  0
  4  5  1  0
  5  6  1  0
  6  7  1  0
  7  8  1  0
  8  9  1  0
  5  2  1  0
  8  6  1  0
  1 10  1  0
  1 11  1  0
  1 12  1  0
  2 13  1  0
  3 14  1  0
  3 15  1  0
  4 16  1  0
  4 17  1  0
  5 18  1  0
  6 19  1  0
  8 20  1  0
  9 21  1  0
  9 22  1  0
  9 23  1  0
M  END
