
     RDKit          3D

 23 24  0  0  0  0  0  0  0  0999 V2000
   -2.9861   -0.6385   -0.1788 C   0  0  0  0  0  0  0  0  0  0  0  0
   -1.4911   -0.4852    0.0577 C   0  0  0  0  0  0  0  0  0  0  0  0
   -1.2146    1.0173    0.0250 C   0  0  0  0  0  0  0  0  0  0  0  0
    0.1860    1.0520   -0.5215 C   0  0  0  0  0  0  0  0  0  0  0  0
    1.1819    0.9280    0.6129 C   0  0  0  0  0  0  0  0  0  0  0  0
    1.3929   -0.5196    0.1775 C   0  0  0  0  0  0  0  0  0  0  0  0
    2.8472   -0.7276   -0.1609 C   0  0  0  0  0  0  0  0  0  0  0  0
    0.4698   -0.3623   -0.9920 C   0  0  0  0  0  0  0  0  0  0  0  0
   -0.7272   -1.0526   -0.9281 O   0  0  0  0  0  0  0  0  0  0  0  0
   -3.4731    0.0256    0.5908 H   0  0  0  0  0  0  0  0  0  0  0  0
   -3.2874   -0.2052   -1.1575 H   0  0  0  0  0  0  0  0  0  0  0  0
   -3.3449   -1.6533   -0.0180 H   0  0  0  0  0  0  0  0  0  0  0  0
   -1.2612   -0.9271    1.0369 H   0  0  0  0  0  0  0  0  0  0  0  0
   -1.2490    1.3444    1.0972 H   0  0  0  0  0  0  0  0  0  0  0  0
   -1.9165    1.5607   -0.6094 H   0  0  0  0  0  0  0  0  0  0  0  0
    0.4007    1.8346   -1.2615 H   0  0  0  0  0  0  0  0  0  0  0  0
    2.0245    1.5977    0.4528 H   0  0  0  0  0  0  0  0  0  0  0  0
    0.7698    1.0511    1.6268 H   0  0  0  0  0  0  0  0  0  0  0  0
    1.0470   -1.2224    0.9509 H   0  0  0  0  0  0  0  0  0  0  0  0
    3.0195   -1.5540   -0.8566 H   0  0  0  0  0  0  0  0  0  0  0  0
    3.1986    0.2056   -0.6580 H   0  0  0  0  0  0  0  0  0  0  0  0
    3.4005   -0.8457    0.7888 H   0  0  0  0  0  0  0  0  0  0  0  0
    1.0128   -0.4232   -1.9434 H   0  0  0  0  0  0  0  0  0  0  0  0
  1  2  1  0
  2  3  1  0
  3  4  1  0
  4  5  1  0
  5  6  1  0
  6  7  1  0
  6  8  1  0
  8  9  1  0
  9  2  1  0
  8  4  1  0
  1 10  1  0
  1 11  1  0
  1 12  1  0
  2 13  1  0
  3 14  1  0
  3 15  1  0
  4 16  1  0
  5 17  1  0
  5 18  1  0
  6 19  1  0
  7 20  1  0
  7 21  1  0
  7 22  1  0
  8 23  1  0
M  END
