
     RDKit          3D

 20 21  0  0  0  0  0  0  0  0999 V2000
   -2.0900    1.3431   -0.3464 C   0  0  0  0  0  0  0  0  0  0  0  0
   -1.1397    0.4529    0.3798 C   0  0  0  0  0  0  0  0  0  0  0  0
   -1.0194   -0.9610   -0.1252 C   0  0  0  0  0  0  0  0  0  0  0  0
   -1.6657   -1.8832    0.6604 O   0  0  0  0  0  0  0  0  0  0  0  0
    0.4607   -0.9211   -0.0884 C   0  0  0  0  0  0  0  0  0  0  0  0
    1.2513   -0.1712    0.8863 C   0  0  0  0  0  0  0  0  0  0  0  0
    2.7129    0.0273    0.6303 C   0  0  0  0  0  0  0  0  0  0  0  0
    0.3278    0.6327    0.0468 C   0  0  0  0  0  0  0  0  0  0  0  0
   -2.7036    0.7578   -1.0272 H   0  0  0  0  0  0  0  0  0  0  0  0
   -1.5135    2.1593   -0.8354 H   0  0  0  0  0  0  0  0  0  0  0  0
   -2.7586    1.8127    0.4322 H   0  0  0  0  0  0  0  0  0  0  0  0
   -1.2442    0.4294    1.4945 H   0  0  0  0  0  0  0  0  0  0  0  0
   -1.4053   -0.9950   -1.1831 H   0  0  0  0  0  0  0  0  0  0  0  0
   -1.1921   -2.7373    0.7605 H   0  0  0  0  0  0  0  0  0  0  0  0
    0.9860   -1.2844   -0.9869 H   0  0  0  0  0  0  0  0  0  0  0  0
    0.9830   -0.2057    1.9735 H   0  0  0  0  0  0  0  0  0  0  0  0
    2.9755    1.1249    0.6922 H   0  0  0  0  0  0  0  0  0  0  0  0
    3.0438   -0.2923   -0.3714 H   0  0  0  0  0  0  0  0  0  0  0  0
    3.3523   -0.4715    1.3674 H   0  0  0  0  0  0  0  0  0  0  0  0
    0.6389    1.1825   -0.8372 H   0  0  0  0  0  0  0  0  0  0  0  0
  1  2  1  0
  2  3  1  0
  3  4  1  0
  3  5  1  0
  5  6  1  0
  6  7  1  0
  6  8  1  0
  8  2  1  0
  8  5  1  0
  1  9  1  0
  1 10  1  0
  1 11  1  0
  2 12  1  0
  3 13  1  0
  4 14  1  0
  5 15  1  0
  6 16  1  0
  7 17  1  0
  7 18  1  0
  7 19  1  0
  8 20  1  0
M  END
