
     RDKit          3D

 19 20  0  0  0  0  0  0  0  0999 V2000
   -2.2291   -0.2873    0.2584 C   0  0  0  0  0  0  0  0  0  0  0  0
   -0.8227   -0.0853   -0.1788 C   0  0  0  0  0  0  0  0  0  0  0  0
   -0.0635    0.8601    0.7574 C   0  0  0  0  0  0  0  0  0  0  0  0
    1.3326    1.1025    0.2840 C   0  0  0  0  0  0  0  0  0  0  0  0
    1.9812   -0.1370   -0.2727 C   0  0  0  0  0  0  0  0  0  0  0  0
    3.1010   -0.4259    0.0637 O   0  0  0  0  0  0  0  0  0  0  0  0
    1.1338   -0.8695   -1.1939 C   0  0  0  0  0  0  0  0  0  0  0  0
    0.5280   -2.0253   -1.1832 O   0  0  0  0  0  0  0  0  0  0  0  0
   -0.0109   -1.3075   -0.2345 C   0  0  0  0  0  0  0  0  0  0  0  0
   -2.3469   -0.6929    1.2760 H   0  0  0  0  0  0  0  0  0  0  0  0
   -2.7456   -0.8860   -0.5189 H   0  0  0  0  0  0  0  0  0  0  0  0
   -2.7353    0.7224    0.2242 H   0  0  0  0  0  0  0  0  0  0  0  0
   -0.8750    0.4780   -1.1574 H   0  0  0  0  0  0  0  0  0  0  0  0
   -0.5921    1.7766    0.9530 H   0  0  0  0  0  0  0  0  0  0  0  0
    0.0188    0.2855    1.7256 H   0  0  0  0  0  0  0  0  0  0  0  0
    1.9381    1.5598    1.0684 H   0  0  0  0  0  0  0  0  0  0  0  0
    1.2565    1.7985   -0.6022 H   0  0  0  0  0  0  0  0  0  0  0  0
    0.8232   -0.2176   -2.0662 H   0  0  0  0  0  0  0  0  0  0  0  0
    0.3078   -1.6490    0.7970 H   0  0  0  0  0  0  0  0  0  0  0  0
  1  2  1  0
  2  3  1  0
  3  4  1  0
  4  5  1  0
  5  6  2  0
  5  7  1  0
  7  8  1  0
  8  9  1  0
  9  2  1  0
  9  7  1  0
  1 10  1  0
  1 11  1  0
  1 12  1  0
  2 13  1  0
  3 14  1  0
  3 15  1  0
  4 16  1  0
  4 17  1  0
  7 18  1  0
  9 19  1  0
M  END
