
     RDKit          3D

 20 20  0  0  0  0  0  0  0  0999 V2000
   -1.2325   -1.1548    0.9088 C   0  0  0  0  0  0  0  0  0  0  0  0
   -0.9878   -0.0574   -0.0861 C   0  0  0  0  0  0  0  0  0  0  0  0
   -0.6316    1.2794    0.5065 C   0  0  0  0  0  0  0  0  0  0  0  0
    0.3338    1.4505   -0.6439 C   0  0  0  0  0  0  0  0  0  0  0  0
    0.3048   -0.0542   -0.8072 C   0  0  0  0  0  0  0  0  0  0  0  0
    0.1643   -0.4230   -2.1506 O   0  0  0  0  0  0  0  0  0  0  0  0
    1.5014   -0.6670   -0.1219 C   0  0  0  0  0  0  0  0  0  0  0  0
    1.5972   -0.2709    1.2094 O   0  0  0  0  0  0  0  0  0  0  0  0
   -2.2666   -0.9640    1.3250 H   0  0  0  0  0  0  0  0  0  0  0  0
   -0.5041   -1.1934    1.7287 H   0  0  0  0  0  0  0  0  0  0  0  0
   -1.3290   -2.1064    0.3459 H   0  0  0  0  0  0  0  0  0  0  0  0
   -1.8479    0.0042   -0.7903 H   0  0  0  0  0  0  0  0  0  0  0  0
   -1.4505    2.0335    0.4893 H   0  0  0  0  0  0  0  0  0  0  0  0
   -0.1914    1.1908    1.5089 H   0  0  0  0  0  0  0  0  0  0  0  0
   -0.1733    1.9550   -1.4854 H   0  0  0  0  0  0  0  0  0  0  0  0
    1.3274    1.8410   -0.3686 H   0  0  0  0  0  0  0  0  0  0  0  0
   -0.6144    0.0817   -2.4882 H   0  0  0  0  0  0  0  0  0  0  0  0
    1.5075   -1.7738   -0.2135 H   0  0  0  0  0  0  0  0  0  0  0  0
    2.4021   -0.2625   -0.6334 H   0  0  0  0  0  0  0  0  0  0  0  0
    2.0907   -0.9086    1.7666 H   0  0  0  0  0  0  0  0  0  0  0  0
  1  2  1  0
  2  3  1  0
  3  4  1  0
  4  5  1  0
  5  6  1  0
  5  7  1  0
  7  8  1  0
  5  2  1  0
  1  9  1  0
  1 10  1  0
  1 11  1  0
  2 12  1  0
  3 13  1  0
  3 14  1  0
  4 15  1  0
  4 16  1  0
  6 17  1  0
  7 18  1  0
  7 19  1  0
  8 20  1  0
M  END
