
     RDKit          3D

 19 20  0  0  0  0  0  0  0  0999 V2000
    1.8711   -0.0386   -0.7450 C   0  0  0  0  0  0  0  0  0  0  0  0
    0.8669   -0.2145    0.3665 C   0  0  0  0  0  0  0  0  0  0  0  0
    0.7123   -1.6532    0.6217 C   0  0  0  0  0  0  0  0  0  0  0  0
    1.5460   -2.4014    1.1637 O   0  0  0  0  0  0  0  0  0  0  0  0
   -0.5419   -1.9997    0.1383 O   0  0  0  0  0  0  0  0  0  0  0  0
   -1.3755   -0.8565    0.1172 C   0  0  0  0  0  0  0  0  0  0  0  0
   -1.2635   -0.0349   -1.1251 C   0  0  0  0  0  0  0  0  0  0  0  0
   -0.4802    0.3464    0.0515 C   0  0  0  0  0  0  0  0  0  0  0  0
   -0.9316    1.5970    0.8078 C   0  0  0  0  0  0  0  0  0  0  0  0
    1.5570   -0.5734   -1.6660 H   0  0  0  0  0  0  0  0  0  0  0  0
    2.1361    1.0124   -0.9331 H   0  0  0  0  0  0  0  0  0  0  0  0
    2.8086   -0.5461   -0.4097 H   0  0  0  0  0  0  0  0  0  0  0  0
    1.2644    0.2577    1.2724 H   0  0  0  0  0  0  0  0  0  0  0  0
   -2.2132   -0.7697    0.8073 H   0  0  0  0  0  0  0  0  0  0  0  0
   -0.7867   -0.5118   -2.0260 H   0  0  0  0  0  0  0  0  0  0  0  0
   -2.1010    0.6206   -1.4081 H   0  0  0  0  0  0  0  0  0  0  0  0
   -1.5139    2.2502    0.1286 H   0  0  0  0  0  0  0  0  0  0  0  0
   -1.5172    1.3263    1.7166 H   0  0  0  0  0  0  0  0  0  0  0  0
   -0.0376    2.1892    1.1213 H   0  0  0  0  0  0  0  0  0  0  0  0
  1  2  1  0
  2  3  1  0
  3  4  2  0
  3  5  1  0
  5  6  1  0
  6  7  1  0
  7  8  1  0
  8  9  1  0
  8  2  1  0
  8  6  1  0
  1 10  1  0
  1 11  1  0
  1 12  1  0
  2 13  1  0
  6 14  1  0
  7 15  1  0
  7 16  1  0
  9 17  1  0
  9 18  1  0
  9 19  1  0
M  END
