
     RDKit          3D

 22 23  0  0  0  0  0  0  0  0999 V2000
    2.0200   -1.2452    0.3524 C   0  0  0  0  0  0  0  0  0  0  0  0
    0.9030   -0.4205   -0.1879 C   0  0  0  0  0  0  0  0  0  0  0  0
    0.8938    1.0011    0.3568 C   0  0  0  0  0  0  0  0  0  0  0  0
   -0.3123    1.6866   -0.2248 C   0  0  0  0  0  0  0  0  0  0  0  0
   -1.5167    0.7747   -0.2236 C   0  0  0  0  0  0  0  0  0  0  0  0
   -1.3325   -0.1938    0.9369 C   0  0  0  0  0  0  0  0  0  0  0  0
   -0.4571   -1.0133   -0.0008 C   0  0  0  0  0  0  0  0  0  0  0  0
   -1.3211   -0.4281   -1.1320 C   0  0  0  0  0  0  0  0  0  0  0  0
    1.6994   -2.0954    0.9769 H   0  0  0  0  0  0  0  0  0  0  0  0
    2.7375   -0.6006    0.9173 H   0  0  0  0  0  0  0  0  0  0  0  0
    2.6488   -1.7034   -0.4669 H   0  0  0  0  0  0  0  0  0  0  0  0
    1.0899   -0.3017   -1.2963 H   0  0  0  0  0  0  0  0  0  0  0  0
    1.8348    1.4734   -0.0518 H   0  0  0  0  0  0  0  0  0  0  0  0
    0.9720    1.0528    1.4378 H   0  0  0  0  0  0  0  0  0  0  0  0
   -0.5514    2.5442    0.4169 H   0  0  0  0  0  0  0  0  0  0  0  0
   -0.0725    2.0192   -1.2452 H   0  0  0  0  0  0  0  0  0  0  0  0
   -2.4921    1.2467   -0.3035 H   0  0  0  0  0  0  0  0  0  0  0  0
   -2.2957   -0.7377    1.0857 H   0  0  0  0  0  0  0  0  0  0  0  0
   -0.8494    0.2151    1.8145 H   0  0  0  0  0  0  0  0  0  0  0  0
   -0.5334   -2.0934    0.1187 H   0  0  0  0  0  0  0  0  0  0  0  0
   -2.2899   -0.9610   -1.2329 H   0  0  0  0  0  0  0  0  0  0  0  0
   -0.7752   -0.2198   -2.0480 H   0  0  0  0  0  0  0  0  0  0  0  0
  1  2  1  0
  2  3  1  0
  3  4  1  0
  4  5  1  0
  5  6  1  0
  6  7  1  0
  7  8  1  0
  7  2  1  0
  8  5  1  0
  1  9  1  0
  1 10  1  0
  1 11  1  0
  2 12  1  0
  3 13  1  0
  3 14  1  0
  4 15  1  0
  4 16  1  0
  5 17  1  0
  6 18  1  0
  6 19  1  0
  7 20  1  0
  8 21  1  0
  8 22  1  0
M  END
