
     RDKit          3D

 19 20  0  0  0  0  0  0  0  0999 V2000
   -1.5337   -1.3987   -0.0444 C   0  0  0  0  0  0  0  0  0  0  0  0
   -1.0283   -0.1720   -0.7580 C   0  0  0  0  0  0  0  0  0  0  0  0
   -1.3595    1.1337    0.0016 C   0  0  0  0  0  0  0  0  0  0  0  0
    0.0117    0.7361   -0.1325 C   0  0  0  0  0  0  0  0  0  0  0  0
    0.9028    1.4146   -1.1868 C   0  0  0  0  0  0  0  0  0  0  0  0
    1.4690    2.3956   -0.7395 O   0  0  0  0  0  0  0  0  0  0  0  0
    0.8968    0.0368    0.8513 C   0  0  0  0  0  0  0  0  0  0  0  0
    2.0241   -0.7719    0.2923 C   0  0  0  0  0  0  0  0  0  0  0  0
    2.1941    0.4232    1.0957 O   0  0  0  0  0  0  0  0  0  0  0  0
   -2.3534   -1.8501   -0.6645 H   0  0  0  0  0  0  0  0  0  0  0  0
   -2.0028   -1.1568    0.9203 H   0  0  0  0  0  0  0  0  0  0  0  0
   -0.7355   -2.1276    0.1721 H   0  0  0  0  0  0  0  0  0  0  0  0
   -1.1284   -0.1265   -1.8463 H   0  0  0  0  0  0  0  0  0  0  0  0
   -1.9446    1.0507    0.9268 H   0  0  0  0  0  0  0  0  0  0  0  0
   -1.6675    2.0142   -0.6361 H   0  0  0  0  0  0  0  0  0  0  0  0
    0.9942    1.0481   -2.1822 H   0  0  0  0  0  0  0  0  0  0  0  0
    0.3832   -0.4553    1.7355 H   0  0  0  0  0  0  0  0  0  0  0  0
    2.4470   -0.5170   -0.7113 H   0  0  0  0  0  0  0  0  0  0  0  0
    2.4309   -1.6770    0.7779 H   0  0  0  0  0  0  0  0  0  0  0  0
  1  2  1  0
  2  3  1  0
  3  4  1  0
  4  5  1  0
  5  6  2  0
  4  7  1  0
  7  8  1  0
  8  9  1  0
  4  2  1  0
  9  7  1  0
  1 10  1  0
  1 11  1  0
  1 12  1  0
  2 13  1  0
  3 14  1  0
  3 15  1  0
  5 16  1  0
  7 17  1  0
  8 18  1  0
  8 19  1  0
M  END
