
     RDKit          3D

 23 24  0  0  0  0  0  0  0  0999 V2000
   -2.1837    0.6231   -0.4788 C   0  0  0  0  0  0  0  0  0  0  0  0
   -1.1565    0.3551    0.6315 C   0  0  0  0  0  0  0  0  0  0  0  0
   -1.0038   -1.1052    0.8398 C   0  0  0  0  0  0  0  0  0  0  0  0
    0.0665   -1.7921    0.0948 C   0  0  0  0  0  0  0  0  0  0  0  0
    1.1088   -0.9387   -0.5250 C   0  0  0  0  0  0  0  0  0  0  0  0
    1.3114    0.3859    0.1287 C   0  0  0  0  0  0  0  0  0  0  0  0
    2.4306    1.2145   -0.4775 C   0  0  0  0  0  0  0  0  0  0  0  0
    2.4667    0.6986    0.7982 O   0  0  0  0  0  0  0  0  0  0  0  0
    0.0482    1.1483    0.3635 C   0  0  0  0  0  0  0  0  0  0  0  0
   -2.3613    1.7214   -0.5159 H   0  0  0  0  0  0  0  0  0  0  0  0
   -3.1022    0.1055   -0.1675 H   0  0  0  0  0  0  0  0  0  0  0  0
   -1.8475    0.2084   -1.4277 H   0  0  0  0  0  0  0  0  0  0  0  0
   -1.6586    0.7721    1.5505 H   0  0  0  0  0  0  0  0  0  0  0  0
   -1.9821   -1.5858    0.5572 H   0  0  0  0  0  0  0  0  0  0  0  0
   -0.9177   -1.3360    1.9421 H   0  0  0  0  0  0  0  0  0  0  0  0
    0.5965   -2.5272    0.7703 H   0  0  0  0  0  0  0  0  0  0  0  0
   -0.3445   -2.4503   -0.7290 H   0  0  0  0  0  0  0  0  0  0  0  0
    0.8656   -0.7500   -1.6070 H   0  0  0  0  0  0  0  0  0  0  0  0
    2.1015   -1.4622   -0.5291 H   0  0  0  0  0  0  0  0  0  0  0  0
    2.2603    2.2794   -0.6717 H   0  0  0  0  0  0  0  0  0  0  0  0
    3.1087    0.7348   -1.2214 H   0  0  0  0  0  0  0  0  0  0  0  0
    0.2795    1.8704    1.2030 H   0  0  0  0  0  0  0  0  0  0  0  0
   -0.0866    1.8300   -0.5291 H   0  0  0  0  0  0  0  0  0  0  0  0
  1  2  1  0
  2  3  1  0
  3  4  1  0
  4  5  1  0
  5  6  1  0
  6  7  1  0
  7  8  1  0
  6  9  1  0
  9  2  1  0
  8  6  1  0
  1 10  1  0
  1 11  1  0
  1 12  1  0
  2 13  1  0
  3 14  1  0
  3 15  1  0
  4 16  1  0
  4 17  1  0
  5 18  1  0
  5 19  1  0
  7 20  1  0
  7 21  1  0
  9 22  1  0
  9 23  1  0
M  END
