
     RDKit          3D

 17 18  0  0  0  0  0  0  0  0999 V2000
   -2.2106   -0.1767    0.3612 C   0  0  0  0  0  0  0  0  0  0  0  0
   -0.7052   -0.1043    0.5810 C   0  0  0  0  0  0  0  0  0  0  0  0
   -0.1052    1.0591   -0.1775 C   0  0  0  0  0  0  0  0  0  0  0  0
    1.2120    0.5024   -0.6226 C   0  0  0  0  0  0  0  0  0  0  0  0
    2.0731   -0.3020    0.2599 C   0  0  0  0  0  0  0  0  0  0  0  0
    1.0117   -0.9643   -0.5715 C   0  0  0  0  0  0  0  0  0  0  0  0
   -0.1523   -1.2542    0.0860 O   0  0  0  0  0  0  0  0  0  0  0  0
   -2.4434   -0.6501   -0.6261 H   0  0  0  0  0  0  0  0  0  0  0  0
   -2.6342   -0.7417    1.1995 H   0  0  0  0  0  0  0  0  0  0  0  0
   -2.6835    0.8142    0.3437 H   0  0  0  0  0  0  0  0  0  0  0  0
   -0.5688    0.0221    1.6842 H   0  0  0  0  0  0  0  0  0  0  0  0
   -0.7382    1.1699   -1.1066 H   0  0  0  0  0  0  0  0  0  0  0  0
   -0.0531    1.9832    0.3900 H   0  0  0  0  0  0  0  0  0  0  0  0
    1.6612    0.9763   -1.5093 H   0  0  0  0  0  0  0  0  0  0  0  0
    3.1015   -0.4827   -0.1006 H   0  0  0  0  0  0  0  0  0  0  0  0
    1.9619   -0.3392    1.3541 H   0  0  0  0  0  0  0  0  0  0  0  0
    1.2731   -1.5121   -1.4928 H   0  0  0  0  0  0  0  0  0  0  0  0
  1  2  1  0
  2  3  1  0
  3  4  1  0
  4  5  1  0
  5  6  1  0
  6  7  1  0
  7  2  1  0
  6  4  1  0
  1  8  1  0
  1  9  1  0
  1 10  1  0
  2 11  1  0
  3 12  1  0
  3 13  1  0
  4 14  1  0
  5 15  1  0
  5 16  1  0
  6 17  1  0
M  END
