
     RDKit          3D

 20 21  0  0  0  0  0  0  0  0999 V2000
   -2.5016   -0.1106   -0.7440 C   0  0  0  0  0  0  0  0  0  0  0  0
   -1.2852   -0.6764   -0.0100 C   0  0  0  0  0  0  0  0  0  0  0  0
   -0.5347    0.4562    0.6240 C   0  0  0  0  0  0  0  0  0  0  0  0
    0.8958    0.2150    0.2446 C   0  0  0  0  0  0  0  0  0  0  0  0
    1.9296    0.5070    1.2906 C   0  0  0  0  0  0  0  0  0  0  0  0
    1.3506    0.2467   -1.1559 C   0  0  0  0  0  0  0  0  0  0  0  0
    0.8633   -1.0410   -0.5177 C   0  0  0  0  0  0  0  0  0  0  0  0
   -0.4386   -1.3580   -0.8402 O   0  0  0  0  0  0  0  0  0  0  0  0
   -2.3701   -0.0964   -1.8282 H   0  0  0  0  0  0  0  0  0  0  0  0
   -3.4257   -0.6487   -0.4941 H   0  0  0  0  0  0  0  0  0  0  0  0
   -2.6665    0.9501   -0.4089 H   0  0  0  0  0  0  0  0  0  0  0  0
   -1.6703   -1.4136    0.7491 H   0  0  0  0  0  0  0  0  0  0  0  0
   -0.6146    0.4361    1.7399 H   0  0  0  0  0  0  0  0  0  0  0  0
   -0.8879    1.4116    0.2224 H   0  0  0  0  0  0  0  0  0  0  0  0
    2.8790   -0.0267    1.1540 H   0  0  0  0  0  0  0  0  0  0  0  0
    1.5617    0.3252    2.3128 H   0  0  0  0  0  0  0  0  0  0  0  0
    2.1749    1.6002    1.2217 H   0  0  0  0  0  0  0  0  0  0  0  0
    2.4176    0.2883   -1.3550 H   0  0  0  0  0  0  0  0  0  0  0  0
    0.7152    0.7545   -1.9072 H   0  0  0  0  0  0  0  0  0  0  0  0
    1.6077   -1.8196   -0.2982 H   0  0  0  0  0  0  0  0  0  0  0  0
  1  2  1  0
  2  3  1  0
  3  4  1  0
  4  5  1  0
  4  6  1  0
  6  7  1  0
  7  8  1  0
  8  2  1  0
  7  4  1  0
  1  9  1  0
  1 10  1  0
  1 11  1  0
  2 12  1  0
  3 13  1  0
  3 14  1  0
  5 15  1  0
  5 16  1  0
  5 17  1  0
  6 18  1  0
  6 19  1  0
  7 20  1  0
M  END
