
     RDKit          3D

 22 22  0  0  0  0  0  0  0  0999 V2000
    2.5613    0.0974   -0.3683 C   0  0  0  0  0  0  0  0  0  0  0  0
    1.1407    0.5435   -0.1981 C   0  0  0  0  0  0  0  0  0  0  0  0
    0.1682   -0.1078   -1.1844 C   0  0  0  0  0  0  0  0  0  0  0  0
   -0.8319   -0.1179   -0.0268 C   0  0  0  0  0  0  0  0  0  0  0  0
   -1.5741    1.1904    0.0240 C   0  0  0  0  0  0  0  0  0  0  0  0
   -1.7518   -1.2884   -0.0160 C   0  0  0  0  0  0  0  0  0  0  0  0
    0.3688   -0.2051    0.8962 C   0  0  0  0  0  0  0  0  0  0  0  0
    0.2574    0.4729    2.0855 O   0  0  0  0  0  0  0  0  0  0  0  0
    2.9073    0.3655   -1.3803 H   0  0  0  0  0  0  0  0  0  0  0  0
    2.6811   -1.0097   -0.2844 H   0  0  0  0  0  0  0  0  0  0  0  0
    3.1814    0.6570    0.3467 H   0  0  0  0  0  0  0  0  0  0  0  0
    1.0756    1.6320   -0.1411 H   0  0  0  0  0  0  0  0  0  0  0  0
    0.5145   -1.1337   -1.4047 H   0  0  0  0  0  0  0  0  0  0  0  0
   -0.1045    0.5136   -2.0341 H   0  0  0  0  0  0  0  0  0  0  0  0
   -2.1833    1.3046    0.9304 H   0  0  0  0  0  0  0  0  0  0  0  0
   -0.9194    2.0727   -0.0487 H   0  0  0  0  0  0  0  0  0  0  0  0
   -2.2560    1.2039   -0.8636 H   0  0  0  0  0  0  0  0  0  0  0  0
   -1.2860   -2.2348    0.2958 H   0  0  0  0  0  0  0  0  0  0  0  0
   -2.5921   -1.0834    0.6701 H   0  0  0  0  0  0  0  0  0  0  0  0
   -2.2057   -1.4242   -1.0362 H   0  0  0  0  0  0  0  0  0  0  0  0
    0.7458   -1.2387    0.9350 H   0  0  0  0  0  0  0  0  0  0  0  0
    0.1028   -0.2096    2.8031 H   0  0  0  0  0  0  0  0  0  0  0  0
  1  2  1  0
  2  3  1  0
  3  4  1  0
  4  5  1  0
  4  6  1  0
  4  7  1  0
  7  8  1  0
  7  2  1  0
  1  9  1  0
  1 10  1  0
  1 11  1  0
  2 12  1  0
  3 13  1  0
  3 14  1  0
  5 15  1  0
  5 16  1  0
  5 17  1  0
  6 18  1  0
  6 19  1  0
  6 20  1  0
  7 21  1  0
  8 22  1  0
M  END
