
     RDKit          3D

 20 21  0  0  0  0  0  0  0  0999 V2000
    2.1315    0.7425   -0.6228 C   0  0  0  0  0  0  0  0  0  0  0  0
    1.2586    0.2425    0.4906 C   0  0  0  0  0  0  0  0  0  0  0  0
    1.2010   -1.2809    0.5822 C   0  0  0  0  0  0  0  0  0  0  0  0
    0.0171   -0.4821    0.2886 C   0  0  0  0  0  0  0  0  0  0  0  0
   -0.7334   -0.5388   -1.0003 C   0  0  0  0  0  0  0  0  0  0  0  0
   -1.8525    0.4698   -0.7528 C   0  0  0  0  0  0  0  0  0  0  0  0
   -1.9881    0.3973    0.7472 C   0  0  0  0  0  0  0  0  0  0  0  0
   -0.9730   -0.3808    1.2336 O   0  0  0  0  0  0  0  0  0  0  0  0
    3.1852    0.4345   -0.3652 H   0  0  0  0  0  0  0  0  0  0  0  0
    2.0862    1.8440   -0.7074 H   0  0  0  0  0  0  0  0  0  0  0  0
    1.8996    0.2607   -1.5826 H   0  0  0  0  0  0  0  0  0  0  0  0
    1.3560    0.8167    1.4467 H   0  0  0  0  0  0  0  0  0  0  0  0
    1.2436   -1.7364    1.6134 H   0  0  0  0  0  0  0  0  0  0  0  0
    1.7561   -1.8779   -0.1514 H   0  0  0  0  0  0  0  0  0  0  0  0
   -0.1526   -0.3215   -1.8942 H   0  0  0  0  0  0  0  0  0  0  0  0
   -1.2203   -1.5398   -1.0926 H   0  0  0  0  0  0  0  0  0  0  0  0
   -2.7576    0.1747   -1.2947 H   0  0  0  0  0  0  0  0  0  0  0  0
   -1.5649    1.4894   -1.0734 H   0  0  0  0  0  0  0  0  0  0  0  0
   -1.9400    1.4117    1.1514 H   0  0  0  0  0  0  0  0  0  0  0  0
   -2.9526   -0.1255    0.9907 H   0  0  0  0  0  0  0  0  0  0  0  0
  1  2  1  0
  2  3  1  0
  3  4  1  0
  4  5  1  0
  5  6  1  0
  6  7  1  0
  7  8  1  0
  4  2  1  0
  8  4  1  0
  1  9  1  0
  1 10  1  0
  1 11  1  0
  2 12  1  0
  3 13  1  0
  3 14  1  0
  5 15  1  0
  5 16  1  0
  6 17  1  0
  6 18  1  0
  7 19  1  0
  7 20  1  0
M  END
