
     RDKit          3D

 19 20  0  0  0  0  0  0  0  0999 V2000
   -1.9055    0.8229   -0.5292 C   0  0  0  0  0  0  0  0  0  0  0  0
   -0.4845    0.4140   -0.5041 C   0  0  0  0  0  0  0  0  0  0  0  0
   -0.2290   -1.0936   -0.6615 C   0  0  0  0  0  0  0  0  0  0  0  0
   -0.5863   -1.1876    0.8055 C   0  0  0  0  0  0  0  0  0  0  0  0
    0.1422    0.1619    0.8370 C   0  0  0  0  0  0  0  0  0  0  0  0
    1.5132   -0.3105    0.4223 C   0  0  0  0  0  0  0  0  0  0  0  0
    2.2886    0.8289   -0.0820 C   0  0  0  0  0  0  0  0  0  0  0  0
    2.5197    0.9272   -1.2585 O   0  0  0  0  0  0  0  0  0  0  0  0
    1.1463   -1.1593   -0.6555 O   0  0  0  0  0  0  0  0  0  0  0  0
   -2.0417    1.6949    0.1392 H   0  0  0  0  0  0  0  0  0  0  0  0
   -2.6227    0.0162   -0.2774 H   0  0  0  0  0  0  0  0  0  0  0  0
   -2.1634    1.1627   -1.5491 H   0  0  0  0  0  0  0  0  0  0  0  0
    0.1802    0.9593   -1.1731 H   0  0  0  0  0  0  0  0  0  0  0  0
   -0.8036   -1.6167   -1.3753 H   0  0  0  0  0  0  0  0  0  0  0  0
   -1.6346   -1.1608    1.0642 H   0  0  0  0  0  0  0  0  0  0  0  0
    0.0175   -1.9513    1.3340 H   0  0  0  0  0  0  0  0  0  0  0  0
   -0.0001    0.8021    1.6495 H   0  0  0  0  0  0  0  0  0  0  0  0
    2.0138   -0.8847    1.2177 H   0  0  0  0  0  0  0  0  0  0  0  0
    2.6498    1.5743    0.5962 H   0  0  0  0  0  0  0  0  0  0  0  0
  1  2  1  0
  2  3  1  0
  3  4  1  0
  4  5  1  0
  5  6  1  0
  6  7  1  0
  7  8  2  0
  6  9  1  0
  5  2  1  0
  9  3  1  0
  1 10  1  0
  1 11  1  0
  1 12  1  0
  2 13  1  0
  3 14  1  0
  4 15  1  0
  4 16  1  0
  5 17  1  0
  6 18  1  0
  7 19  1  0
M  END
