
     RDKit          3D

 23 24  0  0  0  0  0  0  0  0999 V2000
   -2.1679   -0.5804    0.2731 C   0  0  0  0  0  0  0  0  0  0  0  0
   -0.7281   -0.4673    0.7302 C   0  0  0  0  0  0  0  0  0  0  0  0
    0.0792   -1.6450    0.2746 C   0  0  0  0  0  0  0  0  0  0  0  0
    1.3738   -1.0927   -0.2699 C   0  0  0  0  0  0  0  0  0  0  0  0
    2.1756   -0.3230    0.7541 C   0  0  0  0  0  0  0  0  0  0  0  0
    1.3260    0.3762   -0.2100 C   0  0  0  0  0  0  0  0  0  0  0  0
   -0.1077    0.7031    0.0233 C   0  0  0  0  0  0  0  0  0  0  0  0
   -0.3455    2.0028    0.7222 C   0  0  0  0  0  0  0  0  0  0  0  0
   -0.7262    0.7997   -1.2438 O   0  0  0  0  0  0  0  0  0  0  0  0
   -2.7313   -1.2666    0.9511 H   0  0  0  0  0  0  0  0  0  0  0  0
   -2.6231    0.4218    0.4239 H   0  0  0  0  0  0  0  0  0  0  0  0
   -2.1539   -0.9111   -0.7714 H   0  0  0  0  0  0  0  0  0  0  0  0
   -0.7228   -0.3801    1.8297 H   0  0  0  0  0  0  0  0  0  0  0  0
   -0.4500   -2.2997   -0.4441 H   0  0  0  0  0  0  0  0  0  0  0  0
    0.3236   -2.2996    1.1521 H   0  0  0  0  0  0  0  0  0  0  0  0
    1.9003   -1.6432   -1.0756 H   0  0  0  0  0  0  0  0  0  0  0  0
    3.2570   -0.3031    0.5838 H   0  0  0  0  0  0  0  0  0  0  0  0
    1.9064   -0.4223    1.8365 H   0  0  0  0  0  0  0  0  0  0  0  0
    1.8267    0.9987   -1.0021 H   0  0  0  0  0  0  0  0  0  0  0  0
    0.4564    2.7540    0.5555 H   0  0  0  0  0  0  0  0  0  0  0  0
   -0.5225    1.8895    1.8213 H   0  0  0  0  0  0  0  0  0  0  0  0
   -1.2985    2.4648    0.3352 H   0  0  0  0  0  0  0  0  0  0  0  0
   -0.0474    1.2234   -1.8303 H   0  0  0  0  0  0  0  0  0  0  0  0
  1  2  1  0
  2  3  1  0
  3  4  1  0
  4  5  1  0
  5  6  1  0
  6  7  1  0
  7  8  1  0
  7  9  1  0
  7  2  1  0
  6  4  1  0
  1 10  1  0
  1 11  1  0
  1 12  1  0
  2 13  1  0
  3 14  1  0
  3 15  1  0
  4 16  1  0
  5 17  1  0
  5 18  1  0
  6 19  1  0
  8 20  1  0
  8 21  1  0
  8 22  1  0
  9 23  1  0
M  END
