
     RDKit          3D

 19 19  0  0  0  0  0  0  0  0999 V2000
   -2.0971    0.3960   -0.0352 C   0  0  0  0  0  0  0  0  0  0  0  0
   -0.6597    0.0844   -0.2817 C   0  0  0  0  0  0  0  0  0  0  0  0
   -0.3837   -1.3077    0.2500 C   0  0  0  0  0  0  0  0  0  0  0  0
    0.9938   -1.6675   -0.1473 C   0  0  0  0  0  0  0  0  0  0  0  0
    1.2211   -2.8411   -0.5081 O   0  0  0  0  0  0  0  0  0  0  0  0
    2.0131   -0.6391   -0.0983 C   0  0  0  0  0  0  0  0  0  0  0  0
    1.6764    0.6139    0.1726 C   0  0  0  0  0  0  0  0  0  0  0  0
    0.2781    1.0304    0.4348 C   0  0  0  0  0  0  0  0  0  0  0  0
    0.1577    2.3315   -0.1042 O   0  0  0  0  0  0  0  0  0  0  0  0
   -2.3976    1.2919   -0.6359 H   0  0  0  0  0  0  0  0  0  0  0  0
   -2.7135   -0.4364   -0.4076 H   0  0  0  0  0  0  0  0  0  0  0  0
   -2.2760    0.5766    1.0600 H   0  0  0  0  0  0  0  0  0  0  0  0
   -0.4435    0.1115   -1.3501 H   0  0  0  0  0  0  0  0  0  0  0  0
   -1.1344   -2.0396   -0.1162 H   0  0  0  0  0  0  0  0  0  0  0  0
   -0.3895   -1.2390    1.3766 H   0  0  0  0  0  0  0  0  0  0  0  0
    3.0422   -0.8936   -0.2820 H   0  0  0  0  0  0  0  0  0  0  0  0
    2.4806    1.3403    0.1960 H   0  0  0  0  0  0  0  0  0  0  0  0
    0.1151    1.0485    1.5149 H   0  0  0  0  0  0  0  0  0  0  0  0
    0.5167    2.2390   -1.0384 H   0  0  0  0  0  0  0  0  0  0  0  0
  1  2  1  0
  2  3  1  0
  3  4  1  0
  4  5  2  0
  4  6  1  0
  6  7  2  0
  7  8  1  0
  8  9  1  0
  8  2  1  0
  1 10  1  0
  1 11  1  0
  1 12  1  0
  2 13  1  0
  3 14  1  0
  3 15  1  0
  6 16  1  0
  7 17  1  0
  8 18  1  0
  9 19  1  0
M  END
