
     RDKit          3D

 25 25  0  0  0  0  0  0  0  0999 V2000
   -1.7242   -1.1293   -0.1103 C   0  0  0  0  0  0  0  0  0  0  0  0
   -0.8844   -0.3704    0.8735 C   0  0  0  0  0  0  0  0  0  0  0  0
    0.2381   -1.3153    1.3295 C   0  0  0  0  0  0  0  0  0  0  0  0
    1.0450   -1.4220    0.0512 C   0  0  0  0  0  0  0  0  0  0  0  0
    0.8432   -0.1019   -0.6841 C   0  0  0  0  0  0  0  0  0  0  0  0
    2.2124    0.5276   -0.8334 C   0  0  0  0  0  0  0  0  0  0  0  0
   -0.0379    0.7036    0.1995 C   0  0  0  0  0  0  0  0  0  0  0  0
   -0.8817    1.7149   -0.4835 C   0  0  0  0  0  0  0  0  0  0  0  0
   -1.7042    2.3096    0.4985 O   0  0  0  0  0  0  0  0  0  0  0  0
   -1.3396   -2.1738   -0.2910 H   0  0  0  0  0  0  0  0  0  0  0  0
   -1.8028   -0.6663   -1.0985 H   0  0  0  0  0  0  0  0  0  0  0  0
   -2.7682   -1.2383    0.2848 H   0  0  0  0  0  0  0  0  0  0  0  0
   -1.4567    0.0266    1.7112 H   0  0  0  0  0  0  0  0  0  0  0  0
   -0.1411   -2.2653    1.6946 H   0  0  0  0  0  0  0  0  0  0  0  0
    0.8199   -0.7305    2.0735 H   0  0  0  0  0  0  0  0  0  0  0  0
    2.0941   -1.5823    0.3467 H   0  0  0  0  0  0  0  0  0  0  0  0
    0.6851   -2.2851   -0.5173 H   0  0  0  0  0  0  0  0  0  0  0  0
    0.3721   -0.3390   -1.6567 H   0  0  0  0  0  0  0  0  0  0  0  0
    2.9915   -0.2265   -1.0780 H   0  0  0  0  0  0  0  0  0  0  0  0
    2.1971    1.3816   -1.5370 H   0  0  0  0  0  0  0  0  0  0  0  0
    2.4850    0.8991    0.1975 H   0  0  0  0  0  0  0  0  0  0  0  0
    0.5586    1.1990    0.9770 H   0  0  0  0  0  0  0  0  0  0  0  0
   -1.5426    1.3499   -1.2634 H   0  0  0  0  0  0  0  0  0  0  0  0
   -0.2547    2.5238   -0.8776 H   0  0  0  0  0  0  0  0  0  0  0  0
   -2.0041    3.2100    0.1935 H   0  0  0  0  0  0  0  0  0  0  0  0
  1  2  1  0
  2  3  1  0
  3  4  1  0
  4  5  1  0
  5  6  1  0
  5  7  1  0
  7  8  1  0
  8  9  1  0
  7  2  1  0
  1 10  1  0
  1 11  1  0
  1 12  1  0
  2 13  1  0
  3 14  1  0
  3 15  1  0
  4 16  1  0
  4 17  1  0
  5 18  1  0
  6 19  1  0
  6 20  1  0
  6 21  1  0
  7 22  1  0
  8 23  1  0
  8 24  1  0
  9 25  1  0
M  END
