
     RDKit          3D

 25 26  0  0  0  0  0  0  0  0999 V2000
    2.5131    0.0246   -0.5584 C   0  0  0  0  0  0  0  0  0  0  0  0
    1.3289    0.2227    0.3981 C   0  0  0  0  0  0  0  0  0  0  0  0
    0.4122    1.2039   -0.2360 C   0  0  0  0  0  0  0  0  0  0  0  0
   -1.0006    1.1545    0.2213 C   0  0  0  0  0  0  0  0  0  0  0  0
   -1.8162    0.4928   -0.8995 C   0  0  0  0  0  0  0  0  0  0  0  0
   -1.2579   -0.9248   -0.8320 C   0  0  0  0  0  0  0  0  0  0  0  0
   -0.7792   -1.1358    0.5725 C   0  0  0  0  0  0  0  0  0  0  0  0
    0.7478   -1.1224    0.6591 C   0  0  0  0  0  0  0  0  0  0  0  0
   -1.2282    0.1234    1.3288 C   0  0  0  0  0  0  0  0  0  0  0  0
    2.0787   -0.5558   -1.4223 H   0  0  0  0  0  0  0  0  0  0  0  0
    2.7798    1.0130   -0.9890 H   0  0  0  0  0  0  0  0  0  0  0  0
    3.3478   -0.4896   -0.0878 H   0  0  0  0  0  0  0  0  0  0  0  0
    1.7934    0.6797    1.3190 H   0  0  0  0  0  0  0  0  0  0  0  0
    0.4834    1.0926   -1.3575 H   0  0  0  0  0  0  0  0  0  0  0  0
    0.8220    2.2319   -0.0435 H   0  0  0  0  0  0  0  0  0  0  0  0
   -1.3837    2.1372    0.4888 H   0  0  0  0  0  0  0  0  0  0  0  0
   -1.4788    0.9647   -1.8340 H   0  0  0  0  0  0  0  0  0  0  0  0
   -2.8856    0.5404   -0.7122 H   0  0  0  0  0  0  0  0  0  0  0  0
   -0.4412   -1.0542   -1.5767 H   0  0  0  0  0  0  0  0  0  0  0  0
   -2.1065   -1.5991   -1.0122 H   0  0  0  0  0  0  0  0  0  0  0  0
   -1.1766   -2.0328    1.0509 H   0  0  0  0  0  0  0  0  0  0  0  0
    1.2017   -1.9411    0.0754 H   0  0  0  0  0  0  0  0  0  0  0  0
    0.9683   -1.3759    1.7382 H   0  0  0  0  0  0  0  0  0  0  0  0
   -2.3070    0.0452    1.5008 H   0  0  0  0  0  0  0  0  0  0  0  0
   -0.6154    0.3052    2.2082 H   0  0  0  0  0  0  0  0  0  0  0  0
  1  2  1  0
  2  3  1  0
  3  4  1  0
  4  5  1  0
  5  6  1  0
  6  7  1  0
  7  8  1  0
  7  9  1  0
  8  2  1  0
  9  4  1  0
  1 10  1  0
  1 11  1  0
  1 12  1  0
  2 13  1  0
  3 14  1  0
  3 15  1  0
  4 16  1  0
  5 17  1  0
  5 18  1  0
  6 19  1  0
  6 20  1  0
  7 21  1  0
  8 22  1  0
  8 23  1  0
  9 24  1  0
  9 25  1  0
M  END
