
     RDKit          3D

 23 25  0  0  0  0  0  0  0  0999 V2000
    2.6965    0.9235    0.4944 C   0  0  0  0  0  0  0  0  0  0  0  0
    1.7146    0.1265   -0.2979 C   0  0  0  0  0  0  0  0  0  0  0  0
    1.4801   -1.2957   -0.1206 C   0  0  0  0  0  0  0  0  0  0  0  0
    0.4976   -0.3528    0.5246 C   0  0  0  0  0  0  0  0  0  0  0  0
   -0.7468   -0.1330   -0.0045 C   0  0  0  0  0  0  0  0  0  0  0  0
   -1.3777    1.1900   -0.3651 C   0  0  0  0  0  0  0  0  0  0  0  0
   -2.3951    0.1665   -0.7924 C   0  0  0  0  0  0  0  0  0  0  0  0
   -2.0829   -0.5270    0.5113 C   0  0  0  0  0  0  0  0  0  0  0  0
   -1.2328   -0.6028   -1.3562 C   0  0  0  0  0  0  0  0  0  0  0  0
    2.2191    1.9284    0.6885 H   0  0  0  0  0  0  0  0  0  0  0  0
    3.6213    1.1284   -0.0481 H   0  0  0  0  0  0  0  0  0  0  0  0
    2.9518    0.4867    1.4685 H   0  0  0  0  0  0  0  0  0  0  0  0
    1.4989    0.5539   -1.3022 H   0  0  0  0  0  0  0  0  0  0  0  0
    2.1921   -1.8773    0.4890 H   0  0  0  0  0  0  0  0  0  0  0  0
    1.0608   -1.8729   -0.9622 H   0  0  0  0  0  0  0  0  0  0  0  0
    0.6264   -0.3328    1.6411 H   0  0  0  0  0  0  0  0  0  0  0  0
   -1.6571    1.7947    0.5350 H   0  0  0  0  0  0  0  0  0  0  0  0
   -0.8949    1.7662   -1.1561 H   0  0  0  0  0  0  0  0  0  0  0  0
   -3.2910    0.3215   -1.2002 H   0  0  0  0  0  0  0  0  0  0  0  0
   -2.4117   -0.0154    1.4264 H   0  0  0  0  0  0  0  0  0  0  0  0
   -2.3631   -1.5871    0.4542 H   0  0  0  0  0  0  0  0  0  0  0  0
   -1.4320   -1.6761   -1.4480 H   0  0  0  0  0  0  0  0  0  0  0  0
   -0.6741   -0.1135   -2.1650 H   0  0  0  0  0  0  0  0  0  0  0  0
  1  2  1  0
  2  3  1  0
  3  4  1  0
  4  5  1  0
  5  6  1  0
  6  7  1  0
  7  8  1  0
  7  9  1  0
  4  2  1  0
  8  5  1  0
  9  5  1  0
  1 10  1  0
  1 11  1  0
  1 12  1  0
  2 13  1  0
  3 14  1  0
  3 15  1  0
  4 16  1  0
  6 17  1  0
  6 18  1  0
  7 19  1  0
  8 20  1  0
  8 21  1  0
  9 22  1  0
  9 23  1  0
M  END
