
     RDKit          3D

 20 20  0  0  0  0  0  0  0  0999 V2000
   -1.7820   -0.9515    0.7416 C   0  0  0  0  0  0  0  0  0  0  0  0
   -1.3297   -0.2233   -0.4939 C   0  0  0  0  0  0  0  0  0  0  0  0
   -1.2017    1.2129   -0.1822 C   0  0  0  0  0  0  0  0  0  0  0  0
    0.0362    1.6329   -0.1699 C   0  0  0  0  0  0  0  0  0  0  0  0
    0.9278    0.4857   -0.4842 C   0  0  0  0  0  0  0  0  0  0  0  0
    1.7122    0.0542    0.7488 C   0  0  0  0  0  0  0  0  0  0  0  0
    2.5448   -1.0157    0.4597 O   0  0  0  0  0  0  0  0  0  0  0  0
    0.0148   -0.6175   -0.9806 C   0  0  0  0  0  0  0  0  0  0  0  0
   -0.9846   -1.4200    1.3140 H   0  0  0  0  0  0  0  0  0  0  0  0
   -2.4159   -0.2583    1.3374 H   0  0  0  0  0  0  0  0  0  0  0  0
   -2.4899   -1.7675    0.4125 H   0  0  0  0  0  0  0  0  0  0  0  0
   -2.1301   -0.3170   -1.2726 H   0  0  0  0  0  0  0  0  0  0  0  0
   -2.0718    1.8479    0.0165 H   0  0  0  0  0  0  0  0  0  0  0  0
    0.4129    2.6562    0.0331 H   0  0  0  0  0  0  0  0  0  0  0  0
    1.6480    0.8116   -1.2622 H   0  0  0  0  0  0  0  0  0  0  0  0
    1.0549   -0.1873    1.5902 H   0  0  0  0  0  0  0  0  0  0  0  0
    2.3752    0.9176    0.9951 H   0  0  0  0  0  0  0  0  0  0  0  0
    3.3168   -0.6546   -0.0569 H   0  0  0  0  0  0  0  0  0  0  0  0
    0.0089   -0.5890   -2.1005 H   0  0  0  0  0  0  0  0  0  0  0  0
    0.3533   -1.6174   -0.6458 H   0  0  0  0  0  0  0  0  0  0  0  0
  1  2  1  0
  2  3  1  0
  3  4  2  0
  4  5  1  0
  5  6  1  0
  6  7  1  0
  5  8  1  0
  8  2  1  0
  1  9  1  0
  1 10  1  0
  1 11  1  0
  2 12  1  0
  3 13  1  0
  4 14  1  0
  5 15  1  0
  6 16  1  0
  6 17  1  0
  7 18  1  0
  8 19  1  0
  8 20  1  0
M  END
