
     RDKit          3D

 19 21  0  0  0  0  0  0  0  0999 V2000
   -2.4678   -0.4300   -0.1149 C   0  0  0  0  0  0  0  0  0  0  0  0
   -1.0146   -0.3795   -0.5508 C   0  0  0  0  0  0  0  0  0  0  0  0
   -0.4683    0.9976   -0.3303 C   0  0  0  0  0  0  0  0  0  0  0  0
   -0.4782    0.6796    1.0504 O   0  0  0  0  0  0  0  0  0  0  0  0
   -0.1127   -0.6203    0.6208 C   0  0  0  0  0  0  0  0  0  0  0  0
    1.3003   -0.3813    0.1677 C   0  0  0  0  0  0  0  0  0  0  0  0
    1.6619   -0.1992   -1.2409 C   0  0  0  0  0  0  0  0  0  0  0  0
    3.0371   -0.0395   -1.4804 O   0  0  0  0  0  0  0  0  0  0  0  0
    1.0119    0.9552   -0.6117 C   0  0  0  0  0  0  0  0  0  0  0  0
   -2.7991    0.5165    0.3609 H   0  0  0  0  0  0  0  0  0  0  0  0
   -3.1532   -0.5824   -0.9845 H   0  0  0  0  0  0  0  0  0  0  0  0
   -2.5781   -1.2917    0.5678 H   0  0  0  0  0  0  0  0  0  0  0  0
   -0.7826   -0.8858   -1.4810 H   0  0  0  0  0  0  0  0  0  0  0  0
   -1.0329    1.8507   -0.6345 H   0  0  0  0  0  0  0  0  0  0  0  0
   -0.3199   -1.4262    1.2941 H   0  0  0  0  0  0  0  0  0  0  0  0
    2.0586   -0.3310    0.9457 H   0  0  0  0  0  0  0  0  0  0  0  0
    1.1553   -0.7060   -2.0811 H   0  0  0  0  0  0  0  0  0  0  0  0
    3.4145    0.4528   -0.6909 H   0  0  0  0  0  0  0  0  0  0  0  0
    1.5678    1.8204   -0.2010 H   0  0  0  0  0  0  0  0  0  0  0  0
  1  2  1  0
  2  3  1  0
  3  4  1  0
  4  5  1  0
  5  6  1  0
  6  7  1  0
  7  8  1  0
  7  9  1  0
  5  2  1  0
  9  6  1  0
  9  3  1  0
  1 10  1  0
  1 11  1  0
  1 12  1  0
  2 13  1  0
  3 14  1  0
  5 15  1  0
  6 16  1  0
  7 17  1  0
  8 18  1  0
  9 19  1  0
M  END
