
     RDKit          3D

 20 20  0  0  0  0  0  0  0  0999 V2000
    2.2916    0.0479    0.6709 C   0  0  0  0  0  0  0  0  0  0  0  0
    0.9273    0.0788   -0.0262 C   0  0  0  0  0  0  0  0  0  0  0  0
    0.1779   -1.1398    0.4951 C   0  0  0  0  0  0  0  0  0  0  0  0
   -1.1067   -1.3104   -0.2531 C   0  0  0  0  0  0  0  0  0  0  0  0
   -1.8895   -0.0061   -0.2364 C   0  0  0  0  0  0  0  0  0  0  0  0
   -1.3296    0.7944   -1.2414 O   0  0  0  0  0  0  0  0  0  0  0  0
   -0.5411    1.7631   -0.6375 C   0  0  0  0  0  0  0  0  0  0  0  0
    0.3132    1.2626    0.3211 O   0  0  0  0  0  0  0  0  0  0  0  0
    2.7895    1.0196    0.6239 H   0  0  0  0  0  0  0  0  0  0  0  0
    2.9710   -0.6924    0.1802 H   0  0  0  0  0  0  0  0  0  0  0  0
    2.0799   -0.2280    1.7309 H   0  0  0  0  0  0  0  0  0  0  0  0
    1.1352   -0.0122   -1.1036 H   0  0  0  0  0  0  0  0  0  0  0  0
   -0.0246   -0.9865    1.5718 H   0  0  0  0  0  0  0  0  0  0  0  0
    0.8170   -2.0237    0.3021 H   0  0  0  0  0  0  0  0  0  0  0  0
   -1.6799   -2.1580    0.1247 H   0  0  0  0  0  0  0  0  0  0  0  0
   -0.8726   -1.5246   -1.3207 H   0  0  0  0  0  0  0  0  0  0  0  0
   -1.7770    0.5059    0.7549 H   0  0  0  0  0  0  0  0  0  0  0  0
   -2.9775   -0.1756   -0.4167 H   0  0  0  0  0  0  0  0  0  0  0  0
   -0.0506    2.3339   -1.4367 H   0  0  0  0  0  0  0  0  0  0  0  0
   -1.2535    2.4511   -0.1033 H   0  0  0  0  0  0  0  0  0  0  0  0
  1  2  1  0
  2  3  1  0
  3  4  1  0
  4  5  1  0
  5  6  1  0
  6  7  1  0
  7  8  1  0
  8  2  1  0
  1  9  1  0
  1 10  1  0
  1 11  1  0
  2 12  1  0
  3 13  1  0
  3 14  1  0
  4 15  1  0
  4 16  1  0
  5 17  1  0
  5 18  1  0
  7 19  1  0
  7 20  1  0
M  END
