
     RDKit          3D

 25 26  0  0  0  0  0  0  0  0999 V2000
    2.9842    0.1311    0.4190 C   0  0  0  0  0  0  0  0  0  0  0  0
    1.6771   -0.5317    0.7135 C   0  0  0  0  0  0  0  0  0  0  0  0
    0.6031    0.5347    0.9530 C   0  0  0  0  0  0  0  0  0  0  0  0
   -0.0734    0.0583   -0.2888 C   0  0  0  0  0  0  0  0  0  0  0  0
   -1.5438   -0.0887   -0.3818 C   0  0  0  0  0  0  0  0  0  0  0  0
   -2.1648    1.2903   -0.1278 C   0  0  0  0  0  0  0  0  0  0  0  0
   -2.1455   -1.0189    0.6387 C   0  0  0  0  0  0  0  0  0  0  0  0
    0.7097   -0.0413   -1.5697 C   0  0  0  0  0  0  0  0  0  0  0  0
    0.8903   -1.0202   -0.4717 C   0  0  0  0  0  0  0  0  0  0  0  0
    2.8580    0.9343   -0.3285 H   0  0  0  0  0  0  0  0  0  0  0  0
    3.3028    0.6564    1.3653 H   0  0  0  0  0  0  0  0  0  0  0  0
    3.7960   -0.5520    0.1611 H   0  0  0  0  0  0  0  0  0  0  0  0
    1.7426   -1.3022    1.4805 H   0  0  0  0  0  0  0  0  0  0  0  0
    0.9539    1.5687    0.8653 H   0  0  0  0  0  0  0  0  0  0  0  0
    0.0754    0.2989    1.8819 H   0  0  0  0  0  0  0  0  0  0  0  0
   -1.8141   -0.4714   -1.3771 H   0  0  0  0  0  0  0  0  0  0  0  0
   -2.8925    1.5478   -0.9268 H   0  0  0  0  0  0  0  0  0  0  0  0
   -2.6728    1.3394    0.8443 H   0  0  0  0  0  0  0  0  0  0  0  0
   -1.3924    2.0817   -0.1332 H   0  0  0  0  0  0  0  0  0  0  0  0
   -1.8486   -0.7701    1.6806 H   0  0  0  0  0  0  0  0  0  0  0  0
   -3.2594   -0.8381    0.6036 H   0  0  0  0  0  0  0  0  0  0  0  0
   -2.0198   -2.0858    0.3883 H   0  0  0  0  0  0  0  0  0  0  0  0
    0.1474   -0.3996   -2.4494 H   0  0  0  0  0  0  0  0  0  0  0  0
    1.4341    0.7538   -1.7885 H   0  0  0  0  0  0  0  0  0  0  0  0
    0.6526   -2.0753   -0.6013 H   0  0  0  0  0  0  0  0  0  0  0  0
  1  2  1  0
  2  3  1  0
  3  4  1  0
  4  5  1  0
  5  6  1  0
  5  7  1  0
  4  8  1  0
  8  9  1  0
  9  2  1  0
  9  4  1  0
  1 10  1  0
  1 11  1  0
  1 12  1  0
  2 13  1  0
  3 14  1  0
  3 15  1  0
  5 16  1  0
  6 17  1  0
  6 18  1  0
  6 19  1  0
  7 20  1  0
  7 21  1  0
  7 22  1  0
  8 23  1  0
  8 24  1  0
  9 25  1  0
M  END
