
     RDKit          3D

 20 21  0  0  0  0  0  0  0  0999 V2000
    2.6640    0.2109   -0.3492 C   0  0  0  0  0  0  0  0  0  0  0  0
    1.3487   -0.3937    0.1393 C   0  0  0  0  0  0  0  0  0  0  0  0
    0.2292   -0.2025   -0.7868 C   0  0  0  0  0  0  0  0  0  0  0  0
   -1.0069   -1.0967   -0.6050 C   0  0  0  0  0  0  0  0  0  0  0  0
   -1.8778   -0.0877    0.1598 C   0  0  0  0  0  0  0  0  0  0  0  0
   -1.9622    1.0354   -0.6268 O   0  0  0  0  0  0  0  0  0  0  0  0
   -0.9028    0.1959    1.3120 C   0  0  0  0  0  0  0  0  0  0  0  0
    0.3273    0.5630    0.5481 C   0  0  0  0  0  0  0  0  0  0  0  0
    2.3962    1.1821   -0.8415 H   0  0  0  0  0  0  0  0  0  0  0  0
    3.3790    0.3756    0.4603 H   0  0  0  0  0  0  0  0  0  0  0  0
    3.0784   -0.4283   -1.1802 H   0  0  0  0  0  0  0  0  0  0  0  0
    1.4727   -1.3917    0.6233 H   0  0  0  0  0  0  0  0  0  0  0  0
    0.2451    0.4517   -1.6544 H   0  0  0  0  0  0  0  0  0  0  0  0
   -1.4482   -1.3925   -1.5522 H   0  0  0  0  0  0  0  0  0  0  0  0
   -0.7726   -1.9122    0.0917 H   0  0  0  0  0  0  0  0  0  0  0  0
   -2.8135   -0.5101    0.4945 H   0  0  0  0  0  0  0  0  0  0  0  0
   -2.8141    1.4984   -0.5929 H   0  0  0  0  0  0  0  0  0  0  0  0
   -1.2744    1.0105    1.9606 H   0  0  0  0  0  0  0  0  0  0  0  0
   -0.8089   -0.7499    1.8909 H   0  0  0  0  0  0  0  0  0  0  0  0
    0.5407    1.6417    0.5087 H   0  0  0  0  0  0  0  0  0  0  0  0
  1  2  1  0
  2  3  1  0
  3  4  1  0
  4  5  1  0
  5  6  1  0
  5  7  1  0
  7  8  1  0
  8  2  1  0
  8  3  1  0
  1  9  1  0
  1 10  1  0
  1 11  1  0
  2 12  1  0
  3 13  1  0
  4 14  1  0
  4 15  1  0
  5 16  1  0
  6 17  1  0
  7 18  1  0
  7 19  1  0
  8 20  1  0
M  END
