
     RDKit          3D

 17 18  0  0  0  0  0  0  0  0999 V2000
    2.5313   -0.4332    0.0111 C   0  0  0  0  0  0  0  0  0  0  0  0
    1.3894    0.4960   -0.4291 C   0  0  0  0  0  0  0  0  0  0  0  0
    0.3247    0.7522    0.4410 C   0  0  0  0  0  0  0  0  0  0  0  0
   -0.9705    1.1822    0.3085 O   0  0  0  0  0  0  0  0  0  0  0  0
   -1.6049   -0.0756    0.2820 C   0  0  0  0  0  0  0  0  0  0  0  0
   -2.9042   -0.0534   -0.3576 C   0  0  0  0  0  0  0  0  0  0  0  0
   -3.5643   -1.0579   -0.4536 O   0  0  0  0  0  0  0  0  0  0  0  0
   -0.6953   -0.9732   -0.3302 O   0  0  0  0  0  0  0  0  0  0  0  0
    0.2069   -0.1183   -0.8783 C   0  0  0  0  0  0  0  0  0  0  0  0
    2.6222   -1.2770   -0.7124 H   0  0  0  0  0  0  0  0  0  0  0  0
    2.2679   -0.9189    0.9957 H   0  0  0  0  0  0  0  0  0  0  0  0
    3.4656    0.1041    0.1669 H   0  0  0  0  0  0  0  0  0  0  0  0
    1.8292    1.3520   -1.0105 H   0  0  0  0  0  0  0  0  0  0  0  0
    0.3541    0.1514    1.4075 H   0  0  0  0  0  0  0  0  0  0  0  0
   -1.6580   -0.3924    1.3579 H   0  0  0  0  0  0  0  0  0  0  0  0
   -3.2980    0.8607   -0.7558 H   0  0  0  0  0  0  0  0  0  0  0  0
   -0.2961    0.4012   -1.7543 H   0  0  0  0  0  0  0  0  0  0  0  0
  1  2  1  0
  2  3  1  0
  3  4  1  0
  4  5  1  0
  5  6  1  0
  6  7  2  0
  5  8  1  0
  8  9  1  0
  9  2  1  0
  9  3  1  0
  1 10  1  0
  1 11  1  0
  1 12  1  0
  2 13  1  0
  3 14  1  0
  5 15  1  0
  6 16  1  0
  9 17  1  0
M  END
