
     RDKit          3D

 17 18  0  0  0  0  0  0  0  0999 V2000
    1.8086    0.7561    0.4290 C   0  0  0  0  0  0  0  0  0  0  0  0
    0.7147    0.0064   -0.2887 C   0  0  0  0  0  0  0  0  0  0  0  0
    0.4525   -1.3199    0.2904 C   0  0  0  0  0  0  0  0  0  0  0  0
    1.2208   -1.9805    0.9251 O   0  0  0  0  0  0  0  0  0  0  0  0
   -0.9229   -1.7030   -0.0431 C   0  0  0  0  0  0  0  0  0  0  0  0
   -1.5540   -1.2392   -1.1797 O   0  0  0  0  0  0  0  0  0  0  0  0
   -1.6262   -0.3946   -0.1029 C   0  0  0  0  0  0  0  0  0  0  0  0
   -0.6167    0.7009   -0.0816 C   0  0  0  0  0  0  0  0  0  0  0  0
   -0.7560    1.5992   -1.1451 O   0  0  0  0  0  0  0  0  0  0  0  0
    2.3343    0.1653    1.1818 H   0  0  0  0  0  0  0  0  0  0  0  0
    1.3852    1.6893    0.8503 H   0  0  0  0  0  0  0  0  0  0  0  0
    2.5555    1.0827   -0.3391 H   0  0  0  0  0  0  0  0  0  0  0  0
    0.9175   -0.0943   -1.3788 H   0  0  0  0  0  0  0  0  0  0  0  0
   -1.3701   -2.5892    0.4264 H   0  0  0  0  0  0  0  0  0  0  0  0
   -2.5463   -0.3156    0.5077 H   0  0  0  0  0  0  0  0  0  0  0  0
   -0.6151    1.2908    0.8530 H   0  0  0  0  0  0  0  0  0  0  0  0
   -1.3818    2.3456   -0.9047 H   0  0  0  0  0  0  0  0  0  0  0  0
  1  2  1  0
  2  3  1  0
  3  4  2  0
  3  5  1  0
  5  6  1  0
  6  7  1  0
  7  8  1  0
  8  9  1  0
  8  2  1  0
  7  5  1  0
  1 10  1  0
  1 11  1  0
  1 12  1  0
  2 13  1  0
  5 14  1  0
  7 15  1  0
  8 16  1  0
  9 17  1  0
M  END
