
     RDKit          3D

 21 23  0  0  0  0  0  0  0  0999 V2000
    2.4115    0.3010   -0.1168 C   0  0  0  0  0  0  0  0  0  0  0  0
    0.9484    0.2475   -0.5487 C   0  0  0  0  0  0  0  0  0  0  0  0
    0.4095   -1.1611   -0.5230 C   0  0  0  0  0  0  0  0  0  0  0  0
   -0.5040   -1.1545    0.6718 C   0  0  0  0  0  0  0  0  0  0  0  0
    0.1631   -0.2256    1.5064 O   0  0  0  0  0  0  0  0  0  0  0  0
    0.1709    0.8753    0.6164 C   0  0  0  0  0  0  0  0  0  0  0  0
   -1.2687    1.0389    0.3131 C   0  0  0  0  0  0  0  0  0  0  0  0
   -1.9587    0.3599   -0.7916 C   0  0  0  0  0  0  0  0  0  0  0  0
   -1.7884   -0.4025    0.4290 C   0  0  0  0  0  0  0  0  0  0  0  0
    3.0989   -0.0282   -0.8912 H   0  0  0  0  0  0  0  0  0  0  0  0
    2.6003    1.3748    0.1792 H   0  0  0  0  0  0  0  0  0  0  0  0
    2.4895   -0.2646    0.8415 H   0  0  0  0  0  0  0  0  0  0  0  0
    0.7666    0.7589   -1.4908 H   0  0  0  0  0  0  0  0  0  0  0  0
   -0.0592   -1.4803   -1.4520 H   0  0  0  0  0  0  0  0  0  0  0  0
    1.2204   -1.8997   -0.3001 H   0  0  0  0  0  0  0  0  0  0  0  0
   -0.6323   -2.1242    1.1456 H   0  0  0  0  0  0  0  0  0  0  0  0
    0.6794    1.7374    1.0405 H   0  0  0  0  0  0  0  0  0  0  0  0
   -1.7900    1.8302    0.8659 H   0  0  0  0  0  0  0  0  0  0  0  0
   -2.9855    0.7337   -1.0196 H   0  0  0  0  0  0  0  0  0  0  0  0
   -1.4413   -0.0010   -1.7031 H   0  0  0  0  0  0  0  0  0  0  0  0
   -2.5303   -0.5160    1.2274 H   0  0  0  0  0  0  0  0  0  0  0  0
  1  2  1  0
  2  3  1  0
  3  4  1  0
  4  5  1  0
  5  6  1  0
  6  7  1  0
  7  8  1  0
  8  9  1  0
  6  2  1  0
  9  7  1  0
  9  4  1  0
  1 10  1  0
  1 11  1  0
  1 12  1  0
  2 13  1  0
  3 14  1  0
  3 15  1  0
  4 16  1  0
  6 17  1  0
  7 18  1  0
  8 19  1  0
  8 20  1  0
  9 21  1  0
M  END
