
     RDKit          3D

 19 21  0  0  0  0  0  0  0  0999 V2000
    2.4689   -0.3897    0.5798 C   0  0  0  0  0  0  0  0  0  0  0  0
    1.1030    0.1676    0.7769 C   0  0  0  0  0  0  0  0  0  0  0  0
    0.5118    1.0784   -0.2225 C   0  0  0  0  0  0  0  0  0  0  0  0
   -0.9321    1.4227   -0.2652 C   0  0  0  0  0  0  0  0  0  0  0  0
   -1.3375    0.0814    0.2174 C   0  0  0  0  0  0  0  0  0  0  0  0
   -2.5160   -0.5953    0.1672 C   0  0  0  0  0  0  0  0  0  0  0  0
   -1.9215   -0.1233    1.4432 O   0  0  0  0  0  0  0  0  0  0  0  0
    0.0433   -0.4012   -0.0893 C   0  0  0  0  0  0  0  0  0  0  0  0
    0.3133   -1.1502   -1.1999 O   0  0  0  0  0  0  0  0  0  0  0  0
    2.6930   -1.0578    1.4580 H   0  0  0  0  0  0  0  0  0  0  0  0
    3.2127    0.4254    0.5611 H   0  0  0  0  0  0  0  0  0  0  0  0
    2.5439   -1.0654   -0.3091 H   0  0  0  0  0  0  0  0  0  0  0  0
    0.7913    0.3366    1.8397 H   0  0  0  0  0  0  0  0  0  0  0  0
    1.1239    1.3412   -1.0794 H   0  0  0  0  0  0  0  0  0  0  0  0
   -1.2829    1.5700   -1.3286 H   0  0  0  0  0  0  0  0  0  0  0  0
   -1.2670    2.2807    0.3387 H   0  0  0  0  0  0  0  0  0  0  0  0
   -3.5056   -0.1277    0.0114 H   0  0  0  0  0  0  0  0  0  0  0  0
   -2.5755   -1.7128    0.1202 H   0  0  0  0  0  0  0  0  0  0  0  0
    0.5331   -2.0808   -1.0592 H   0  0  0  0  0  0  0  0  0  0  0  0
  1  2  1  0
  2  3  1  0
  3  4  1  0
  4  5  1  0
  5  6  1  0
  6  7  1  0
  5  8  1  0
  8  9  1  0
  8  2  1  0
  8  3  1  0
  7  5  1  0
  1 10  1  0
  1 11  1  0
  1 12  1  0
  2 13  1  0
  3 14  1  0
  4 15  1  0
  4 16  1  0
  6 17  1  0
  6 18  1  0
  9 19  1  0
M  END
