
     RDKit          3D

 21 22  0  0  0  0  0  0  0  0999 V2000
    1.7734   -0.7530   -0.4935 C   0  0  0  0  0  0  0  0  0  0  0  0
    1.0583    0.2223    0.3570 C   0  0  0  0  0  0  0  0  0  0  0  0
    0.0311    1.0456   -0.4352 C   0  0  0  0  0  0  0  0  0  0  0  0
   -0.8725    0.1552   -1.2486 C   0  0  0  0  0  0  0  0  0  0  0  0
   -1.2870   -1.0597   -0.5071 C   0  0  0  0  0  0  0  0  0  0  0  0
   -0.7860   -1.3839    0.6707 C   0  0  0  0  0  0  0  0  0  0  0  0
    0.0989   -0.3988    1.3488 C   0  0  0  0  0  0  0  0  0  0  0  0
   -0.7048    0.6596    1.7512 O   0  0  0  0  0  0  0  0  0  0  0  0
   -0.7765    1.5715    0.7333 C   0  0  0  0  0  0  0  0  0  0  0  0
    2.1235   -0.2131   -1.4183 H   0  0  0  0  0  0  0  0  0  0  0  0
    1.1354   -1.5691   -0.8434 H   0  0  0  0  0  0  0  0  0  0  0  0
    2.6936   -1.0827    0.0205 H   0  0  0  0  0  0  0  0  0  0  0  0
    1.7189    0.9114    0.8758 H   0  0  0  0  0  0  0  0  0  0  0  0
    0.4863    1.8108   -1.0467 H   0  0  0  0  0  0  0  0  0  0  0  0
   -0.4125   -0.1756   -2.1944 H   0  0  0  0  0  0  0  0  0  0  0  0
   -1.8109    0.7490   -1.4305 H   0  0  0  0  0  0  0  0  0  0  0  0
   -2.0349   -1.6920   -0.9742 H   0  0  0  0  0  0  0  0  0  0  0  0
   -0.9789   -2.3204    1.1729 H   0  0  0  0  0  0  0  0  0  0  0  0
    0.6118   -0.8262    2.2128 H   0  0  0  0  0  0  0  0  0  0  0  0
   -0.2671    2.5305    1.0433 H   0  0  0  0  0  0  0  0  0  0  0  0
   -1.8002    1.8187    0.4057 H   0  0  0  0  0  0  0  0  0  0  0  0
  1  2  1  0
  2  3  1  0
  3  4  1  0
  4  5  1  0
  5  6  2  0
  6  7  1  0
  7  8  1  0
  8  9  1  0
  7  2  1  0
  9  3  1  0
  1 10  1  0
  1 11  1  0
  1 12  1  0
  2 13  1  0
  3 14  1  0
  4 15  1  0
  4 16  1  0
  5 17  1  0
  6 18  1  0
  7 19  1  0
  9 20  1  0
  9 21  1  0
M  END
