
     RDKit          3D

 19 21  0  0  0  0  0  0  0  0999 V2000
    1.9069    0.2692   -0.7066 C   0  0  0  0  0  0  0  0  0  0  0  0
    1.2959   -0.0930    0.6196 C   0  0  0  0  0  0  0  0  0  0  0  0
   -0.0885    0.4323    0.8402 C   0  0  0  0  0  0  0  0  0  0  0  0
   -0.9778    0.7744   -0.3145 C   0  0  0  0  0  0  0  0  0  0  0  0
   -1.8773    1.7465    0.0448 O   0  0  0  0  0  0  0  0  0  0  0  0
   -1.5956   -0.5144   -0.7577 C   0  0  0  0  0  0  0  0  0  0  0  0
   -2.0908   -1.4273    0.1309 O   0  0  0  0  0  0  0  0  0  0  0  0
   -0.6582   -1.5368   -0.3214 C   0  0  0  0  0  0  0  0  0  0  0  0
    0.2055   -1.0448    0.7704 C   0  0  0  0  0  0  0  0  0  0  0  0
    1.2912   -0.0048   -1.5699 H   0  0  0  0  0  0  0  0  0  0  0  0
    2.0639    1.3868   -0.6816 H   0  0  0  0  0  0  0  0  0  0  0  0
    2.9288   -0.1809   -0.7316 H   0  0  0  0  0  0  0  0  0  0  0  0
    1.9863    0.0274    1.4735 H   0  0  0  0  0  0  0  0  0  0  0  0
   -0.3141    0.9195    1.7932 H   0  0  0  0  0  0  0  0  0  0  0  0
   -0.3976    1.1718   -1.1980 H   0  0  0  0  0  0  0  0  0  0  0  0
   -1.3690    2.6143    0.0808 H   0  0  0  0  0  0  0  0  0  0  0  0
   -1.9341   -0.5414   -1.8231 H   0  0  0  0  0  0  0  0  0  0  0  0
   -0.4709   -2.4331   -0.8987 H   0  0  0  0  0  0  0  0  0  0  0  0
    0.0955   -1.5656    1.7403 H   0  0  0  0  0  0  0  0  0  0  0  0
  1  2  1  0
  2  3  1  0
  3  4  1  0
  4  5  1  0
  4  6  1  0
  6  7  1  0
  7  8  1  0
  8  9  1  0
  9  2  1  0
  9  3  1  0
  8  6  1  0
  1 10  1  0
  1 11  1  0
  1 12  1  0
  2 13  1  0
  3 14  1  0
  4 15  1  0
  5 16  1  0
  6 17  1  0
  8 18  1  0
  9 19  1  0
M  END
