
     RDKit          3D

 20 21  0  0  0  0  0  0  0  0999 V2000
   -2.0108    0.8259   -0.8455 C   0  0  0  0  0  0  0  0  0  0  0  0
   -1.2619   -0.2044   -0.0800 C   0  0  0  0  0  0  0  0  0  0  0  0
    0.0061   -0.7286   -0.7313 C   0  0  0  0  0  0  0  0  0  0  0  0
    0.5191   -1.6338    0.3099 C   0  0  0  0  0  0  0  0  0  0  0  0
    0.3354   -0.9148    1.4466 C   0  0  0  0  0  0  0  0  0  0  0  0
   -0.2564    0.3416    0.9406 C   0  0  0  0  0  0  0  0  0  0  0  0
    0.6242    0.6036   -0.2820 C   0  0  0  0  0  0  0  0  0  0  0  0
    2.0811    0.4840    0.0140 C   0  0  0  0  0  0  0  0  0  0  0  0
   -1.6973    0.9621   -1.8875 H   0  0  0  0  0  0  0  0  0  0  0  0
   -3.0873    0.4858   -0.8964 H   0  0  0  0  0  0  0  0  0  0  0  0
   -2.0536    1.7830   -0.2728 H   0  0  0  0  0  0  0  0  0  0  0  0
   -1.8468   -1.0668    0.3059 H   0  0  0  0  0  0  0  0  0  0  0  0
    0.0166   -0.9732   -1.7480 H   0  0  0  0  0  0  0  0  0  0  0  0
    0.9471   -2.6276    0.2656 H   0  0  0  0  0  0  0  0  0  0  0  0
    0.5476   -1.1538    2.4604 H   0  0  0  0  0  0  0  0  0  0  0  0
   -0.5304    1.1295    1.5649 H   0  0  0  0  0  0  0  0  0  0  0  0
    0.2861    1.4774   -0.8363 H   0  0  0  0  0  0  0  0  0  0  0  0
    2.2686   -0.5255    0.4404 H   0  0  0  0  0  0  0  0  0  0  0  0
    2.4581    1.2073    0.7621 H   0  0  0  0  0  0  0  0  0  0  0  0
    2.6547    0.5284   -0.9309 H   0  0  0  0  0  0  0  0  0  0  0  0
  1  2  1  0
  2  3  1  0
  3  4  1  0
  4  5  2  0
  5  6  1  0
  6  7  1  0
  7  8  1  0
  6  2  1  0
  7  3  1  0
  1  9  1  0
  1 10  1  0
  1 11  1  0
  2 12  1  0
  3 13  1  0
  4 14  1  0
  5 15  1  0
  6 16  1  0
  7 17  1  0
  8 18  1  0
  8 19  1  0
  8 20  1  0
M  END
