
     RDKit          3D

 17 18  0  0  0  0  0  0  0  0999 V2000
    1.4297   -1.3575    0.5971 C   0  0  0  0  0  0  0  0  0  0  0  0
    0.5478   -0.1704    0.7970 C   0  0  0  0  0  0  0  0  0  0  0  0
    0.4967    0.7898   -0.3559 C   0  0  0  0  0  0  0  0  0  0  0  0
   -0.3460    2.0127   -0.1173 C   0  0  0  0  0  0  0  0  0  0  0  0
   -1.5359    1.1133   -0.0327 C   0  0  0  0  0  0  0  0  0  0  0  0
   -2.7366    1.3449    0.0344 O   0  0  0  0  0  0  0  0  0  0  0  0
   -0.6576   -0.0701   -0.0655 C   0  0  0  0  0  0  0  0  0  0  0  0
   -1.0093   -1.2562   -0.8401 C   0  0  0  0  0  0  0  0  0  0  0  0
   -1.6237   -2.1518   -0.2962 O   0  0  0  0  0  0  0  0  0  0  0  0
    1.5289   -1.5898   -0.5038 H   0  0  0  0  0  0  0  0  0  0  0  0
    1.0710   -2.2437    1.1519 H   0  0  0  0  0  0  0  0  0  0  0  0
    2.4769   -1.1458    0.9272 H   0  0  0  0  0  0  0  0  0  0  0  0
    0.4294    0.1773    1.8254 H   0  0  0  0  0  0  0  0  0  0  0  0
    1.1452    0.6953   -1.2207 H   0  0  0  0  0  0  0  0  0  0  0  0
   -0.0966    2.4708    0.8737 H   0  0  0  0  0  0  0  0  0  0  0  0
   -0.3657    2.7702   -0.8958 H   0  0  0  0  0  0  0  0  0  0  0  0
   -0.7544   -1.3890   -1.8786 H   0  0  0  0  0  0  0  0  0  0  0  0
  1  2  1  0
  2  3  1  0
  3  4  1  0
  4  5  1  0
  5  6  2  0
  5  7  1  0
  7  8  1  0
  8  9  2  0
  7  2  1  0
  7  3  1  0
  1 10  1  0
  1 11  1  0
  1 12  1  0
  2 13  1  0
  3 14  1  0
  4 15  1  0
  4 16  1  0
  8 17  1  0
M  END
