
     RDKit          3D

 23 24  0  0  0  0  0  0  0  0999 V2000
    2.5230   -0.3964    0.6018 C   0  0  0  0  0  0  0  0  0  0  0  0
    1.2735   -0.7901   -0.1525 C   0  0  0  0  0  0  0  0  0  0  0  0
    0.8221    0.1804   -1.2088 C   0  0  0  0  0  0  0  0  0  0  0  0
    0.6880   -0.3223   -2.4865 O   0  0  0  0  0  0  0  0  0  0  0  0
   -0.4196    0.4578   -0.4429 C   0  0  0  0  0  0  0  0  0  0  0  0
   -0.7944    1.8789   -0.1234 C   0  0  0  0  0  0  0  0  0  0  0  0
   -1.2522   -0.6866   -0.0454 C   0  0  0  0  0  0  0  0  0  0  0  0
   -2.4556   -0.5092    0.8553 C   0  0  0  0  0  0  0  0  0  0  0  0
    0.0535   -0.4393    0.6460 C   0  0  0  0  0  0  0  0  0  0  0  0
    2.4105    0.6615    0.9013 H   0  0  0  0  0  0  0  0  0  0  0  0
    3.4157   -0.5793   -0.0020 H   0  0  0  0  0  0  0  0  0  0  0  0
    2.5713   -1.0779    1.4999 H   0  0  0  0  0  0  0  0  0  0  0  0
    1.2830   -1.8381   -0.5220 H   0  0  0  0  0  0  0  0  0  0  0  0
    1.4650    1.1045   -1.2446 H   0  0  0  0  0  0  0  0  0  0  0  0
    0.3895   -1.2750   -2.4318 H   0  0  0  0  0  0  0  0  0  0  0  0
   -0.1315    2.5514   -0.7225 H   0  0  0  0  0  0  0  0  0  0  0  0
   -0.6169    2.1400    0.9495 H   0  0  0  0  0  0  0  0  0  0  0  0
   -1.8365    2.1283   -0.4291 H   0  0  0  0  0  0  0  0  0  0  0  0
   -1.2461   -1.5790   -0.7210 H   0  0  0  0  0  0  0  0  0  0  0  0
   -3.1650   -1.3506    0.6805 H   0  0  0  0  0  0  0  0  0  0  0  0
   -2.1655   -0.6098    1.9423 H   0  0  0  0  0  0  0  0  0  0  0  0
   -2.9195    0.4833    0.7690 H   0  0  0  0  0  0  0  0  0  0  0  0
    0.1077   -0.1322    1.6870 H   0  0  0  0  0  0  0  0  0  0  0  0
  1  2  1  0
  2  3  1  0
  3  4  1  0
  3  5  1  0
  5  6  1  0
  5  7  1  0
  7  8  1  0
  7  9  1  0
  9  2  1  0
  9  5  1  0
  1 10  1  0
  1 11  1  0
  1 12  1  0
  2 13  1  0
  3 14  1  0
  4 15  1  0
  6 16  1  0
  6 17  1  0
  6 18  1  0
  7 19  1  0
  8 20  1  0
  8 21  1  0
  8 22  1  0
  9 23  1  0
M  END
