
     RDKit          3D

 17 18  0  0  0  0  0  0  0  0999 V2000
   -1.6440   -0.9875   -0.4873 C   0  0  0  0  0  0  0  0  0  0  0  0
   -0.7374   -0.3958    0.5859 C   0  0  0  0  0  0  0  0  0  0  0  0
   -0.3528    1.0669    0.4077 C   0  0  0  0  0  0  0  0  0  0  0  0
   -0.2231    1.8620    1.5237 O   0  0  0  0  0  0  0  0  0  0  0  0
    0.5903   -0.0112    0.2126 C   0  0  0  0  0  0  0  0  0  0  0  0
    1.2827   -0.3305   -1.0668 C   0  0  0  0  0  0  0  0  0  0  0  0
    2.4685   -0.4314   -0.2600 O   0  0  0  0  0  0  0  0  0  0  0  0
    1.8148   -0.2283    0.9547 C   0  0  0  0  0  0  0  0  0  0  0  0
    2.1720   -0.2389    2.1476 O   0  0  0  0  0  0  0  0  0  0  0  0
   -2.1998   -1.8581   -0.0741 H   0  0  0  0  0  0  0  0  0  0  0  0
   -1.0314   -1.2668   -1.3710 H   0  0  0  0  0  0  0  0  0  0  0  0
   -2.3194   -0.1781   -0.8225 H   0  0  0  0  0  0  0  0  0  0  0  0
   -0.9999   -0.6645    1.6398 H   0  0  0  0  0  0  0  0  0  0  0  0
   -0.7585    1.5581   -0.5219 H   0  0  0  0  0  0  0  0  0  0  0  0
   -0.3969    2.8072    1.2838 H   0  0  0  0  0  0  0  0  0  0  0  0
    0.9998   -1.2734   -1.5688 H   0  0  0  0  0  0  0  0  0  0  0  0
    1.3351    0.5702   -1.7136 H   0  0  0  0  0  0  0  0  0  0  0  0
  1  2  1  0
  2  3  1  0
  3  4  1  0
  3  5  1  0
  5  6  1  0
  6  7  1  0
  7  8  1  0
  8  9  2  0
  5  2  1  0
  8  5  1  0
  1 10  1  0
  1 11  1  0
  1 12  1  0
  2 13  1  0
  3 14  1  0
  4 15  1  0
  6 16  1  0
  6 17  1  0
M  END
