
     RDKit          3D

 21 22  0  0  0  0  0  0  0  0999 V2000
   -2.3628   -0.2346    0.2025 C   0  0  0  0  0  0  0  0  0  0  0  0
   -0.9694   -0.5092   -0.3196 C   0  0  0  0  0  0  0  0  0  0  0  0
   -0.5277    0.6310   -1.1839 C   0  0  0  0  0  0  0  0  0  0  0  0
    0.6634    1.1857   -1.0732 C   0  0  0  0  0  0  0  0  0  0  0  0
    1.5655    0.6674   -0.0228 C   0  0  0  0  0  0  0  0  0  0  0  0
    1.8289   -0.7882   -0.3232 C   0  0  0  0  0  0  0  0  0  0  0  0
    1.0245   -1.5585    0.4939 O   0  0  0  0  0  0  0  0  0  0  0  0
   -0.0596   -0.7520    0.8300 C   0  0  0  0  0  0  0  0  0  0  0  0
    0.6824    0.5338    1.2279 C   0  0  0  0  0  0  0  0  0  0  0  0
   -2.5734   -0.8355    1.1209 H   0  0  0  0  0  0  0  0  0  0  0  0
   -3.0850   -0.5655   -0.5970 H   0  0  0  0  0  0  0  0  0  0  0  0
   -2.4521    0.8465    0.3553 H   0  0  0  0  0  0  0  0  0  0  0  0
   -1.0263   -1.4498   -0.9178 H   0  0  0  0  0  0  0  0  0  0  0  0
   -1.2122    1.0170   -1.9300 H   0  0  0  0  0  0  0  0  0  0  0  0
    0.9741    1.9805   -1.7142 H   0  0  0  0  0  0  0  0  0  0  0  0
    2.4547    1.2585    0.1543 H   0  0  0  0  0  0  0  0  0  0  0  0
    2.8818   -1.0117   -0.0871 H   0  0  0  0  0  0  0  0  0  0  0  0
    1.5516   -1.0337   -1.3742 H   0  0  0  0  0  0  0  0  0  0  0  0
   -0.5730   -1.1147    1.7440 H   0  0  0  0  0  0  0  0  0  0  0  0
   -0.0580    1.3468    1.2844 H   0  0  0  0  0  0  0  0  0  0  0  0
    1.2727    0.3861    2.1298 H   0  0  0  0  0  0  0  0  0  0  0  0
  1  2  1  0
  2  3  1  0
  3  4  2  0
  4  5  1  0
  5  6  1  0
  6  7  1  0
  7  8  1  0
  8  9  1  0
  8  2  1  0
  9  5  1  0
  1 10  1  0
  1 11  1  0
  1 12  1  0
  2 13  1  0
  3 14  1  0
  4 15  1  0
  5 16  1  0
  6 17  1  0
  6 18  1  0
  8 19  1  0
  9 20  1  0
  9 21  1  0
M  END
