
     RDKit          3D

 21 22  0  0  0  0  0  0  0  0999 V2000
    2.0346   -0.1086    0.4320 C   0  0  0  0  0  0  0  0  0  0  0  0
    1.1095   -0.4132   -0.6969 C   0  0  0  0  0  0  0  0  0  0  0  0
    0.0375   -1.4011   -0.3545 C   0  0  0  0  0  0  0  0  0  0  0  0
   -1.1214   -0.9115    0.3884 C   0  0  0  0  0  0  0  0  0  0  0  0
   -2.0318    0.0671   -0.3898 C   0  0  0  0  0  0  0  0  0  0  0  0
   -1.2251    0.4710    0.7761 C   0  0  0  0  0  0  0  0  0  0  0  0
   -0.0833    1.2168    0.6842 O   0  0  0  0  0  0  0  0  0  0  0  0
    0.1437    1.6946   -0.5793 C   0  0  0  0  0  0  0  0  0  0  0  0
    0.6376    0.7014   -1.3691 O   0  0  0  0  0  0  0  0  0  0  0  0
    3.0352   -0.5944    0.3401 H   0  0  0  0  0  0  0  0  0  0  0  0
    2.2386    0.9673    0.5842 H   0  0  0  0  0  0  0  0  0  0  0  0
    1.5856   -0.5686    1.3596 H   0  0  0  0  0  0  0  0  0  0  0  0
    1.7384   -0.9415   -1.4719 H   0  0  0  0  0  0  0  0  0  0  0  0
    0.5197   -2.2419    0.1857 H   0  0  0  0  0  0  0  0  0  0  0  0
   -0.3234   -1.8565   -1.3244 H   0  0  0  0  0  0  0  0  0  0  0  0
   -1.6501   -1.6766    1.0206 H   0  0  0  0  0  0  0  0  0  0  0  0
   -3.1030   -0.1093   -0.2700 H   0  0  0  0  0  0  0  0  0  0  0  0
   -1.7323    0.3138   -1.4291 H   0  0  0  0  0  0  0  0  0  0  0  0
   -1.8281    0.7077    1.7028 H   0  0  0  0  0  0  0  0  0  0  0  0
   -0.8073    2.0998   -0.9797 H   0  0  0  0  0  0  0  0  0  0  0  0
    0.8255    2.5837   -0.4894 H   0  0  0  0  0  0  0  0  0  0  0  0
  1  2  1  0
  2  3  1  0
  3  4  1  0
  4  5  1  0
  5  6  1  0
  6  7  1  0
  7  8  1  0
  8  9  1  0
  9  2  1  0
  6  4  1  0
  1 10  1  0
  1 11  1  0
  1 12  1  0
  2 13  1  0
  3 14  1  0
  3 15  1  0
  4 16  1  0
  5 17  1  0
  5 18  1  0
  6 19  1  0
  8 20  1  0
  8 21  1  0
M  END
