
     RDKit          3D

 18 18  0  0  0  0  0  0  0  0999 V2000
   -1.4261   -1.6003    0.9920 C   0  0  0  0  0  0  0  0  0  0  0  0
   -1.9557   -0.5059    0.1072 C   0  0  0  0  0  0  0  0  0  0  0  0
   -1.5363   -0.4856   -1.3135 C   0  0  0  0  0  0  0  0  0  0  0  0
   -1.1096    0.6226   -0.3260 C   0  0  0  0  0  0  0  0  0  0  0  0
    0.2935    0.6930    0.0223 C   0  0  0  0  0  0  0  0  0  0  0  0
    1.4636    0.7431    0.2930 C   0  0  0  0  0  0  0  0  0  0  0  0
    2.8802    0.7961    0.5960 C   0  0  0  0  0  0  0  0  0  0  0  0
    3.4905    1.8665   -0.0629 O   0  0  0  0  0  0  0  0  0  0  0  0
   -0.5926   -2.1617    0.5394 H   0  0  0  0  0  0  0  0  0  0  0  0
   -1.1820   -1.1889    1.9887 H   0  0  0  0  0  0  0  0  0  0  0  0
   -2.2514   -2.3268    1.1445 H   0  0  0  0  0  0  0  0  0  0  0  0
   -3.0265   -0.2530    0.2954 H   0  0  0  0  0  0  0  0  0  0  0  0
   -2.2840   -0.1949   -2.0791 H   0  0  0  0  0  0  0  0  0  0  0  0
   -0.7222   -1.1238   -1.7028 H   0  0  0  0  0  0  0  0  0  0  0  0
   -1.5940    1.6219   -0.4894 H   0  0  0  0  0  0  0  0  0  0  0  0
    3.3321   -0.1423    0.1791 H   0  0  0  0  0  0  0  0  0  0  0  0
    3.1008    0.9177    1.6731 H   0  0  0  0  0  0  0  0  0  0  0  0
    3.1199    2.7223    0.2902 H   0  0  0  0  0  0  0  0  0  0  0  0
  1  2  1  0
  2  3  1  0
  3  4  1  0
  4  5  1  0
  5  6  3  0
  6  7  1  0
  7  8  1  0
  4  2  1  0
  1  9  1  0
  1 10  1  0
  1 11  1  0
  2 12  1  0
  3 13  1  0
  3 14  1  0
  4 15  1  0
  7 16  1  0
  7 17  1  0
  8 18  1  0
M  END
