
     RDKit          3D

 23 24  0  0  0  0  0  0  0  0999 V2000
   -1.2819    1.7525    0.4577 C   0  0  0  0  0  0  0  0  0  0  0  0
   -0.1150    0.8241    0.6361 C   0  0  0  0  0  0  0  0  0  0  0  0
   -0.5770   -0.6391    0.7426 C   0  0  0  0  0  0  0  0  0  0  0  0
   -2.0224   -0.7578    0.3661 C   0  0  0  0  0  0  0  0  0  0  0  0
    0.2327   -1.1694   -0.4407 C   0  0  0  0  0  0  0  0  0  0  0  0
   -0.1051   -0.1891   -1.4043 O   0  0  0  0  0  0  0  0  0  0  0  0
    0.6918    0.6758   -0.6241 C   0  0  0  0  0  0  0  0  0  0  0  0
    1.5631   -0.5265   -0.3664 C   0  0  0  0  0  0  0  0  0  0  0  0
    2.2934   -0.5401    0.9267 C   0  0  0  0  0  0  0  0  0  0  0  0
   -1.8567    1.3964   -0.4246 H   0  0  0  0  0  0  0  0  0  0  0  0
   -0.8709    2.7593    0.2630 H   0  0  0  0  0  0  0  0  0  0  0  0
   -1.8747    1.8066    1.3689 H   0  0  0  0  0  0  0  0  0  0  0  0
    0.4529    1.1429    1.5086 H   0  0  0  0  0  0  0  0  0  0  0  0
   -0.3041   -1.0946    1.6872 H   0  0  0  0  0  0  0  0  0  0  0  0
   -2.1163   -0.6011   -0.7455 H   0  0  0  0  0  0  0  0  0  0  0  0
   -2.6728    0.0090    0.8281 H   0  0  0  0  0  0  0  0  0  0  0  0
   -2.4161   -1.7349    0.6552 H   0  0  0  0  0  0  0  0  0  0  0  0
    0.1110   -2.1886   -0.7123 H   0  0  0  0  0  0  0  0  0  0  0  0
    1.1051    1.5336   -1.0967 H   0  0  0  0  0  0  0  0  0  0  0  0
    2.2058   -0.8169   -1.1992 H   0  0  0  0  0  0  0  0  0  0  0  0
    1.6525   -0.5374    1.8278 H   0  0  0  0  0  0  0  0  0  0  0  0
    2.9123   -1.4495    0.9769 H   0  0  0  0  0  0  0  0  0  0  0  0
    2.9923    0.3448    0.9268 H   0  0  0  0  0  0  0  0  0  0  0  0
  1  2  1  0
  2  3  1  0
  3  4  1  0
  3  5  1  0
  5  6  1  0
  6  7  1  0
  7  8  1  0
  8  9  1  0
  7  2  1  0
  8  5  1  0
  1 10  1  0
  1 11  1  0
  1 12  1  0
  2 13  1  0
  3 14  1  0
  4 15  1  0
  4 16  1  0
  4 17  1  0
  5 18  1  0
  7 19  1  0
  8 20  1  0
  9 21  1  0
  9 22  1  0
  9 23  1  0
M  END
