
     RDKit          3D

 20 21  0  0  0  0  0  0  0  0999 V2000
   -1.8516    1.0595    0.3310 C   0  0  0  0  0  0  0  0  0  0  0  0
   -1.1995   -0.2767    0.3165 C   0  0  0  0  0  0  0  0  0  0  0  0
   -0.9827   -0.8363   -1.1155 C   0  0  0  0  0  0  0  0  0  0  0  0
    0.0827   -0.6204   -0.1821 C   0  0  0  0  0  0  0  0  0  0  0  0
    0.9034   -1.7499    0.3354 C   0  0  0  0  0  0  0  0  0  0  0  0
    1.8856   -0.8304    0.6997 O   0  0  0  0  0  0  0  0  0  0  0  0
    1.3435    0.0286   -0.2865 C   0  0  0  0  0  0  0  0  0  0  0  0
    1.5536    1.4434    0.1138 C   0  0  0  0  0  0  0  0  0  0  0  0
   -2.5806    1.1872    1.1842 H   0  0  0  0  0  0  0  0  0  0  0  0
   -2.5013    1.1705   -0.5862 H   0  0  0  0  0  0  0  0  0  0  0  0
   -1.1905    1.9184    0.3492 H   0  0  0  0  0  0  0  0  0  0  0  0
   -1.6845   -1.0095    1.0303 H   0  0  0  0  0  0  0  0  0  0  0  0
   -1.1256   -0.1557   -1.9545 H   0  0  0  0  0  0  0  0  0  0  0  0
   -1.3484   -1.8751   -1.2825 H   0  0  0  0  0  0  0  0  0  0  0  0
    1.2443   -2.3926   -0.5255 H   0  0  0  0  0  0  0  0  0  0  0  0
    0.4725   -2.3455    1.1501 H   0  0  0  0  0  0  0  0  0  0  0  0
    1.9168   -0.1852   -1.2367 H   0  0  0  0  0  0  0  0  0  0  0  0
    1.0301    2.1744   -0.5241 H   0  0  0  0  0  0  0  0  0  0  0  0
    2.6528    1.6687   -0.0237 H   0  0  0  0  0  0  0  0  0  0  0  0
    1.3795    1.6263    1.2077 H   0  0  0  0  0  0  0  0  0  0  0  0
  1  2  1  0
  2  3  1  0
  3  4  1  0
  4  5  1  0
  5  6  1  0
  6  7  1  0
  7  8  1  0
  4  2  1  0
  7  4  1  0
  1  9  1  0
  1 10  1  0
  1 11  1  0
  2 12  1  0
  3 13  1  0
  3 14  1  0
  5 15  1  0
  5 16  1  0
  7 17  1  0
  8 18  1  0
  8 19  1  0
  8 20  1  0
M  END
