
     RDKit          3D

 19 20  0  0  0  0  0  0  0  0999 V2000
    2.6402    0.0895    0.9415 C   0  0  0  0  0  0  0  0  0  0  0  0
    1.6514   -0.0049   -0.1856 C   0  0  0  0  0  0  0  0  0  0  0  0
    1.2288   -1.2772   -0.7736 C   0  0  0  0  0  0  0  0  0  0  0  0
    0.3076   -0.6567    0.1710 C   0  0  0  0  0  0  0  0  0  0  0  0
   -0.8606    0.1409   -0.2030 C   0  0  0  0  0  0  0  0  0  0  0  0
   -0.8675    0.6698   -1.3009 O   0  0  0  0  0  0  0  0  0  0  0  0
   -2.0387    0.3503    0.6638 C   0  0  0  0  0  0  0  0  0  0  0  0
   -3.3121    0.8483    0.0979 C   0  0  0  0  0  0  0  0  0  0  0  0
   -2.4769    1.7390    0.7811 O   0  0  0  0  0  0  0  0  0  0  0  0
    2.1504    0.4967    1.8583 H   0  0  0  0  0  0  0  0  0  0  0  0
    3.0554   -0.9029    1.1735 H   0  0  0  0  0  0  0  0  0  0  0  0
    3.4314    0.8348    0.6552 H   0  0  0  0  0  0  0  0  0  0  0  0
    1.6203    0.8804   -0.8744 H   0  0  0  0  0  0  0  0  0  0  0  0
    1.7874   -2.1876   -0.4349 H   0  0  0  0  0  0  0  0  0  0  0  0
    1.0246   -1.3260   -1.8740 H   0  0  0  0  0  0  0  0  0  0  0  0
    0.2428   -1.1096    1.1894 H   0  0  0  0  0  0  0  0  0  0  0  0
   -1.9890   -0.1495    1.6534 H   0  0  0  0  0  0  0  0  0  0  0  0
   -4.2940    0.5920    0.4905 H   0  0  0  0  0  0  0  0  0  0  0  0
   -3.3013    0.9727   -1.0236 H   0  0  0  0  0  0  0  0  0  0  0  0
  1  2  1  0
  2  3  1  0
  3  4  1  0
  4  5  1  0
  5  6  2  0
  5  7  1  0
  7  8  1  0
  8  9  1  0
  4  2  1  0
  9  7  1  0
  1 10  1  0
  1 11  1  0
  1 12  1  0
  2 13  1  0
  3 14  1  0
  3 15  1  0
  4 16  1  0
  7 17  1  0
  8 18  1  0
  8 19  1  0
M  END
