
     RDKit          3D

 23 24  0  0  0  0  0  0  0  0999 V2000
    3.1535    0.1556   -0.1802 C   0  0  0  0  0  0  0  0  0  0  0  0
    1.6886    0.4148   -0.1789 C   0  0  0  0  0  0  0  0  0  0  0  0
    0.9207   -0.4114    0.8635 C   0  0  0  0  0  0  0  0  0  0  0  0
   -0.1027   -0.2442   -0.2639 C   0  0  0  0  0  0  0  0  0  0  0  0
   -0.8323    1.0651   -0.1673 C   0  0  0  0  0  0  0  0  0  0  0  0
   -2.3042    0.7238   -0.0679 C   0  0  0  0  0  0  0  0  0  0  0  0
   -2.2368   -0.6790    0.5479 C   0  0  0  0  0  0  0  0  0  0  0  0
   -1.1451   -1.2942   -0.3415 C   0  0  0  0  0  0  0  0  0  0  0  0
    0.9482   -0.3041   -1.1481 O   0  0  0  0  0  0  0  0  0  0  0  0
    3.6652    1.1528   -0.3263 H   0  0  0  0  0  0  0  0  0  0  0  0
    3.4844   -0.1590    0.8511 H   0  0  0  0  0  0  0  0  0  0  0  0
    3.5044   -0.5229   -0.9625 H   0  0  0  0  0  0  0  0  0  0  0  0
    1.3541    1.4663   -0.2162 H   0  0  0  0  0  0  0  0  0  0  0  0
    1.3176   -1.4324    0.9304 H   0  0  0  0  0  0  0  0  0  0  0  0
    0.6827    0.1161    1.7856 H   0  0  0  0  0  0  0  0  0  0  0  0
   -0.4899    1.6214    0.7299 H   0  0  0  0  0  0  0  0  0  0  0  0
   -0.5868    1.6689   -1.0483 H   0  0  0  0  0  0  0  0  0  0  0  0
   -2.8790    1.4200    0.5377 H   0  0  0  0  0  0  0  0  0  0  0  0
   -2.6846    0.5744   -1.0982 H   0  0  0  0  0  0  0  0  0  0  0  0
   -3.1801   -1.2129    0.4774 H   0  0  0  0  0  0  0  0  0  0  0  0
   -1.8496   -0.5328    1.5715 H   0  0  0  0  0  0  0  0  0  0  0  0
   -1.5714   -1.2974   -1.3732 H   0  0  0  0  0  0  0  0  0  0  0  0
   -0.8569   -2.2887   -0.0052 H   0  0  0  0  0  0  0  0  0  0  0  0
  1  2  1  0
  2  3  1  0
  3  4  1  0
  4  5  1  0
  5  6  1  0
  6  7  1  0
  7  8  1  0
  4  9  1  0
  9  2  1  0
  8  4  1  0
  1 10  1  0
  1 11  1  0
  1 12  1  0
  2 13  1  0
  3 14  1  0
  3 15  1  0
  5 16  1  0
  5 17  1  0
  6 18  1  0
  6 19  1  0
  7 20  1  0
  7 21  1  0
  8 22  1  0
  8 23  1  0
M  END
