
     RDKit          3D

 21 22  0  0  0  0  0  0  0  0999 V2000
    2.2184   -0.8151    0.7169 C   0  0  0  0  0  0  0  0  0  0  0  0
    1.5837    0.2322   -0.1625 C   0  0  0  0  0  0  0  0  0  0  0  0
    0.7505   -0.3374   -1.3136 C   0  0  0  0  0  0  0  0  0  0  0  0
   -0.4293   -0.2804   -0.4365 C   0  0  0  0  0  0  0  0  0  0  0  0
   -0.9601   -1.4512    0.0333 O   0  0  0  0  0  0  0  0  0  0  0  0
   -1.7623   -0.3464   -0.5983 C   0  0  0  0  0  0  0  0  0  0  0  0
   -2.6990    0.2263    0.4768 C   0  0  0  0  0  0  0  0  0  0  0  0
    0.2752    0.6839    0.4850 C   0  0  0  0  0  0  0  0  0  0  0  0
   -0.0213    1.9883    0.1210 O   0  0  0  0  0  0  0  0  0  0  0  0
    2.3404   -0.3468    1.7326 H   0  0  0  0  0  0  0  0  0  0  0  0
    1.5471   -1.6662    0.8554 H   0  0  0  0  0  0  0  0  0  0  0  0
    3.2115   -1.1160    0.3835 H   0  0  0  0  0  0  0  0  0  0  0  0
    2.2487    1.0521   -0.4388 H   0  0  0  0  0  0  0  0  0  0  0  0
    0.7445    0.3315   -2.2045 H   0  0  0  0  0  0  0  0  0  0  0  0
    1.0508   -1.3505   -1.6352 H   0  0  0  0  0  0  0  0  0  0  0  0
   -2.3174   -0.7443   -1.4783 H   0  0  0  0  0  0  0  0  0  0  0  0
   -3.5546   -0.4174    0.6671 H   0  0  0  0  0  0  0  0  0  0  0  0
   -2.1139    0.2655    1.4430 H   0  0  0  0  0  0  0  0  0  0  0  0
   -2.9515    1.2861    0.2616 H   0  0  0  0  0  0  0  0  0  0  0  0
    0.1567    0.4269    1.5351 H   0  0  0  0  0  0  0  0  0  0  0  0
    0.6818    2.3788   -0.4436 H   0  0  0  0  0  0  0  0  0  0  0  0
  1  2  1  0
  2  3  1  0
  3  4  1  0
  4  5  1  0
  5  6  1  0
  6  7  1  0
  4  8  1  0
  8  9  1  0
  8  2  1  0
  6  4  1  0
  1 10  1  0
  1 11  1  0
  1 12  1  0
  2 13  1  0
  3 14  1  0
  3 15  1  0
  6 16  1  0
  7 17  1  0
  7 18  1  0
  7 19  1  0
  8 20  1  0
  9 21  1  0
M  END
