
     RDKit          3D

 25 26  0  0  0  0  0  0  0  0999 V2000
    2.3341   -1.0756   -0.7141 C   0  0  0  0  0  0  0  0  0  0  0  0
    1.7327    0.2345   -0.2665 C   0  0  0  0  0  0  0  0  0  0  0  0
    0.8924    0.1667    0.9330 C   0  0  0  0  0  0  0  0  0  0  0  0
   -0.0621   -1.0368    0.9296 C   0  0  0  0  0  0  0  0  0  0  0  0
   -0.8232   -0.2963   -0.1257 C   0  0  0  0  0  0  0  0  0  0  0  0
   -1.3893   -1.1159   -1.2469 C   0  0  0  0  0  0  0  0  0  0  0  0
   -1.9648    0.4845    0.5443 C   0  0  0  0  0  0  0  0  0  0  0  0
    0.3243    0.5700   -0.4587 C   0  0  0  0  0  0  0  0  0  0  0  0
   -0.0347    2.0519   -0.6167 C   0  0  0  0  0  0  0  0  0  0  0  0
    1.6102   -1.8165   -1.0429 H   0  0  0  0  0  0  0  0  0  0  0  0
    2.9402   -1.4787    0.1499 H   0  0  0  0  0  0  0  0  0  0  0  0
    3.0738   -0.9043   -1.5210 H   0  0  0  0  0  0  0  0  0  0  0  0
    2.4550    1.0822   -0.3436 H   0  0  0  0  0  0  0  0  0  0  0  0
    0.7904    0.9341    1.6844 H   0  0  0  0  0  0  0  0  0  0  0  0
   -0.5770   -1.1708    1.8990 H   0  0  0  0  0  0  0  0  0  0  0  0
    0.4156   -1.9794    0.6026 H   0  0  0  0  0  0  0  0  0  0  0  0
   -2.1821   -1.7917   -0.8526 H   0  0  0  0  0  0  0  0  0  0  0  0
   -0.6511   -1.6704   -1.8305 H   0  0  0  0  0  0  0  0  0  0  0  0
   -1.8841   -0.4039   -1.9510 H   0  0  0  0  0  0  0  0  0  0  0  0
   -2.2285    0.0061    1.5282 H   0  0  0  0  0  0  0  0  0  0  0  0
   -1.6586    1.5228    0.7647 H   0  0  0  0  0  0  0  0  0  0  0  0
   -2.8590    0.5125   -0.0842 H   0  0  0  0  0  0  0  0  0  0  0  0
   -1.0370    2.1699   -1.0691 H   0  0  0  0  0  0  0  0  0  0  0  0
    0.6887    2.4412   -1.3748 H   0  0  0  0  0  0  0  0  0  0  0  0
    0.0941    2.5638    0.3405 H   0  0  0  0  0  0  0  0  0  0  0  0
  1  2  1  0
  2  3  1  0
  3  4  1  0
  4  5  1  0
  5  6  1  0
  5  7  1  0
  5  8  1  0
  8  9  1  0
  8  2  1  0
  8  3  1  0
  1 10  1  0
  1 11  1  0
  1 12  1  0
  2 13  1  0
  3 14  1  0
  4 15  1  0
  4 16  1  0
  6 17  1  0
  6 18  1  0
  6 19  1  0
  7 20  1  0
  7 21  1  0
  7 22  1  0
  9 23  1  0
  9 24  1  0
  9 25  1  0
M  END
