
     RDKit          3D

 19 20  0  0  0  0  0  0  0  0999 V2000
   -2.2997    0.9524    0.3289 C   0  0  0  0  0  0  0  0  0  0  0  0
   -1.0203    0.3497   -0.1490 C   0  0  0  0  0  0  0  0  0  0  0  0
   -0.7609   -1.0208    0.4727 C   0  0  0  0  0  0  0  0  0  0  0  0
    0.4994   -1.5238   -0.1422 C   0  0  0  0  0  0  0  0  0  0  0  0
    0.6549   -2.7251   -0.2081 O   0  0  0  0  0  0  0  0  0  0  0  0
    1.5300   -0.5985   -0.6569 C   0  0  0  0  0  0  0  0  0  0  0  0
    2.3064    0.2220    0.2875 C   0  0  0  0  0  0  0  0  0  0  0  0
    1.1892    0.8184   -0.5571 C   0  0  0  0  0  0  0  0  0  0  0  0
    0.0636    1.1411    0.1556 O   0  0  0  0  0  0  0  0  0  0  0  0
   -2.5643    1.7882   -0.3524 H   0  0  0  0  0  0  0  0  0  0  0  0
   -2.2230    1.3790    1.3477 H   0  0  0  0  0  0  0  0  0  0  0  0
   -3.1356    0.2282    0.2689 H   0  0  0  0  0  0  0  0  0  0  0  0
   -1.0635    0.2391   -1.2533 H   0  0  0  0  0  0  0  0  0  0  0  0
   -0.5067   -0.8165    1.5521 H   0  0  0  0  0  0  0  0  0  0  0  0
   -1.6040   -1.7000    0.3624 H   0  0  0  0  0  0  0  0  0  0  0  0
    2.0674   -0.9765   -1.5460 H   0  0  0  0  0  0  0  0  0  0  0  0
    3.2907    0.6347    0.0617 H   0  0  0  0  0  0  0  0  0  0  0  0
    2.1185    0.0592    1.3761 H   0  0  0  0  0  0  0  0  0  0  0  0
    1.4578    1.5492   -1.3487 H   0  0  0  0  0  0  0  0  0  0  0  0
  1  2  1  0
  2  3  1  0
  3  4  1  0
  4  5  2  0
  4  6  1  0
  6  7  1  0
  7  8  1  0
  8  9  1  0
  9  2  1  0
  8  6  1  0
  1 10  1  0
  1 11  1  0
  1 12  1  0
  2 13  1  0
  3 14  1  0
  3 15  1  0
  6 16  1  0
  7 17  1  0
  7 18  1  0
  8 19  1  0
M  END
