
     RDKit          3D

 21 22  0  0  0  0  0  0  0  0999 V2000
   -2.3756   -0.9113   -0.2607 C   0  0  0  0  0  0  0  0  0  0  0  0
   -1.1706   -0.0444   -0.5194 C   0  0  0  0  0  0  0  0  0  0  0  0
   -1.1557    1.0978    0.4323 C   0  0  0  0  0  0  0  0  0  0  0  0
    0.0179    1.7367    0.5684 C   0  0  0  0  0  0  0  0  0  0  0  0
    1.2102    1.3156   -0.1899 C   0  0  0  0  0  0  0  0  0  0  0  0
    1.3224   -0.1746   -0.2276 C   0  0  0  0  0  0  0  0  0  0  0  0
    2.3894   -0.7658    0.6349 C   0  0  0  0  0  0  0  0  0  0  0  0
    2.4586   -0.7603   -0.7512 O   0  0  0  0  0  0  0  0  0  0  0  0
    0.0545   -0.9088   -0.3935 C   0  0  0  0  0  0  0  0  0  0  0  0
   -2.2064   -1.5559    0.6376 H   0  0  0  0  0  0  0  0  0  0  0  0
   -3.2963   -0.3314   -0.0565 H   0  0  0  0  0  0  0  0  0  0  0  0
   -2.5985   -1.5542   -1.1349 H   0  0  0  0  0  0  0  0  0  0  0  0
   -1.1940    0.3455   -1.5570 H   0  0  0  0  0  0  0  0  0  0  0  0
   -2.0461    1.3579    0.9531 H   0  0  0  0  0  0  0  0  0  0  0  0
    0.0055    2.5751    1.2750 H   0  0  0  0  0  0  0  0  0  0  0  0
    1.2190    1.7599   -1.2273 H   0  0  0  0  0  0  0  0  0  0  0  0
    2.0959    1.7664    0.3208 H   0  0  0  0  0  0  0  0  0  0  0  0
    3.1202   -0.0700    1.1418 H   0  0  0  0  0  0  0  0  0  0  0  0
    2.1855   -1.6995    1.1763 H   0  0  0  0  0  0  0  0  0  0  0  0
    0.0831   -1.5678   -1.2961 H   0  0  0  0  0  0  0  0  0  0  0  0
   -0.1191   -1.6108    0.4740 H   0  0  0  0  0  0  0  0  0  0  0  0
  1  2  1  0
  2  3  1  0
  3  4  2  0
  4  5  1  0
  5  6  1  0
  6  7  1  0
  7  8  1  0
  6  9  1  0
  9  2  1  0
  8  6  1  0
  1 10  1  0
  1 11  1  0
  1 12  1  0
  2 13  1  0
  3 14  1  0
  4 15  1  0
  5 16  1  0
  5 17  1  0
  7 18  1  0
  7 19  1  0
  9 20  1  0
  9 21  1  0
M  END
