
     RDKit          3D

 23 24  0  0  0  0  0  0  0  0999 V2000
    2.6861    0.4778   -0.7577 C   0  0  0  0  0  0  0  0  0  0  0  0
    1.5417    0.1502    0.1142 C   0  0  0  0  0  0  0  0  0  0  0  0
    0.6520   -0.9663   -0.4498 C   0  0  0  0  0  0  0  0  0  0  0  0
   -0.5350   -0.8317    0.4519 C   0  0  0  0  0  0  0  0  0  0  0  0
   -1.8504   -1.0152   -0.2255 C   0  0  0  0  0  0  0  0  0  0  0  0
   -2.6551    0.1564    0.2666 C   0  0  0  0  0  0  0  0  0  0  0  0
   -1.7941    1.1108    0.7323 O   0  0  0  0  0  0  0  0  0  0  0  0
   -0.5738    0.5659    0.9769 C   0  0  0  0  0  0  0  0  0  0  0  0
    0.4830    1.2623    0.1551 C   0  0  0  0  0  0  0  0  0  0  0  0
    2.6905    1.5971   -0.9123 H   0  0  0  0  0  0  0  0  0  0  0  0
    3.6810    0.2775   -0.2632 H   0  0  0  0  0  0  0  0  0  0  0  0
    2.6580   -0.0268   -1.7288 H   0  0  0  0  0  0  0  0  0  0  0  0
    1.8412   -0.1511    1.1426 H   0  0  0  0  0  0  0  0  0  0  0  0
    0.4263   -0.7333   -1.5140 H   0  0  0  0  0  0  0  0  0  0  0  0
    1.2042   -1.8993   -0.3397 H   0  0  0  0  0  0  0  0  0  0  0  0
   -0.4427   -1.5302    1.3012 H   0  0  0  0  0  0  0  0  0  0  0  0
   -2.3295   -1.9640    0.1334 H   0  0  0  0  0  0  0  0  0  0  0  0
   -1.8181   -1.0685   -1.3132 H   0  0  0  0  0  0  0  0  0  0  0  0
   -3.3098   -0.1579    1.1022 H   0  0  0  0  0  0  0  0  0  0  0  0
   -3.2876    0.6041   -0.5210 H   0  0  0  0  0  0  0  0  0  0  0  0
   -0.2387    0.6092    2.0331 H   0  0  0  0  0  0  0  0  0  0  0  0
    0.1107    1.3510   -0.8868 H   0  0  0  0  0  0  0  0  0  0  0  0
    0.8601    2.1820    0.5889 H   0  0  0  0  0  0  0  0  0  0  0  0
  1  2  1  0
  2  3  1  0
  3  4  1  0
  4  5  1  0
  5  6  1  0
  6  7  1  0
  7  8  1  0
  8  9  1  0
  9  2  1  0
  8  4  1  0
  1 10  1  0
  1 11  1  0
  1 12  1  0
  2 13  1  0
  3 14  1  0
  3 15  1  0
  4 16  1  0
  5 17  1  0
  5 18  1  0
  6 19  1  0
  6 20  1  0
  8 21  1  0
  9 22  1  0
  9 23  1  0
M  END
