
     RDKit          3D

 19 20  0  0  0  0  0  0  0  0999 V2000
    1.7729    1.0070   -0.1227 C   0  0  0  0  0  0  0  0  0  0  0  0
    0.8475   -0.0441    0.3795 C   0  0  0  0  0  0  0  0  0  0  0  0
   -0.5582    0.5164    0.6704 C   0  0  0  0  0  0  0  0  0  0  0  0
   -0.9381    0.8853   -0.7409 C   0  0  0  0  0  0  0  0  0  0  0  0
   -0.2394    0.0221   -1.5891 O   0  0  0  0  0  0  0  0  0  0  0  0
    0.3499   -0.9419   -0.7667 C   0  0  0  0  0  0  0  0  0  0  0  0
   -0.7335   -1.6685   -0.0902 C   0  0  0  0  0  0  0  0  0  0  0  0
   -1.1064   -2.7891   -0.3877 O   0  0  0  0  0  0  0  0  0  0  0  0
   -1.2621   -0.7785    0.9983 C   0  0  0  0  0  0  0  0  0  0  0  0
    1.5042    1.2259   -1.1774 H   0  0  0  0  0  0  0  0  0  0  0  0
    2.7954    0.6361   -0.0835 H   0  0  0  0  0  0  0  0  0  0  0  0
    1.7384    1.9314    0.5153 H   0  0  0  0  0  0  0  0  0  0  0  0
    1.1964   -0.6234    1.2290 H   0  0  0  0  0  0  0  0  0  0  0  0
   -0.5857    1.2843    1.4021 H   0  0  0  0  0  0  0  0  0  0  0  0
   -2.0216    0.7766   -0.8980 H   0  0  0  0  0  0  0  0  0  0  0  0
   -0.6422    1.9168   -1.0074 H   0  0  0  0  0  0  0  0  0  0  0  0
    1.1195   -1.5168   -1.2309 H   0  0  0  0  0  0  0  0  0  0  0  0
   -2.3642   -0.6918    0.9505 H   0  0  0  0  0  0  0  0  0  0  0  0
   -0.8727   -1.1480    1.9492 H   0  0  0  0  0  0  0  0  0  0  0  0
  1  2  1  0
  2  3  1  0
  3  4  1  0
  4  5  1  0
  5  6  1  0
  6  7  1  0
  7  8  2  0
  7  9  1  0
  6  2  1  0
  9  3  1  0
  1 10  1  0
  1 11  1  0
  1 12  1  0
  2 13  1  0
  3 14  1  0
  4 15  1  0
  4 16  1  0
  6 17  1  0
  9 18  1  0
  9 19  1  0
M  END
