
     RDKit          3D

 19 21  0  0  0  0  0  0  0  0999 V2000
    2.1622   -0.1055   -0.3017 C   0  0  0  0  0  0  0  0  0  0  0  0
    0.8181   -0.1846    0.3438 C   0  0  0  0  0  0  0  0  0  0  0  0
   -0.2633   -0.6530   -0.6407 C   0  0  0  0  0  0  0  0  0  0  0  0
   -1.3142   -1.3281    0.1888 C   0  0  0  0  0  0  0  0  0  0  0  0
   -1.5625   -0.3523    1.1726 O   0  0  0  0  0  0  0  0  0  0  0  0
   -1.2941    0.8801    0.6573 C   0  0  0  0  0  0  0  0  0  0  0  0
    0.2088    1.1667    0.6361 C   0  0  0  0  0  0  0  0  0  0  0  0
    0.0170    1.6671   -0.6476 O   0  0  0  0  0  0  0  0  0  0  0  0
   -0.9408    0.7054   -0.8139 C   0  0  0  0  0  0  0  0  0  0  0  0
    2.9209   -0.0442    0.5066 H   0  0  0  0  0  0  0  0  0  0  0  0
    2.2543    0.7138   -1.0453 H   0  0  0  0  0  0  0  0  0  0  0  0
    2.3491   -1.1082   -0.7868 H   0  0  0  0  0  0  0  0  0  0  0  0
    0.8621   -0.8004    1.2381 H   0  0  0  0  0  0  0  0  0  0  0  0
    0.0797   -1.1230   -1.5159 H   0  0  0  0  0  0  0  0  0  0  0  0
   -2.2750   -1.4367   -0.3842 H   0  0  0  0  0  0  0  0  0  0  0  0
   -0.9995   -2.2896    0.6235 H   0  0  0  0  0  0  0  0  0  0  0  0
   -1.9271    1.7159    0.9070 H   0  0  0  0  0  0  0  0  0  0  0  0
    0.6149    1.7817    1.3953 H   0  0  0  0  0  0  0  0  0  0  0  0
   -1.7107    0.7948   -1.5331 H   0  0  0  0  0  0  0  0  0  0  0  0
  1  2  1  0
  2  3  1  0
  3  4  1  0
  4  5  1  0
  5  6  1  0
  6  7  1  0
  7  8  1  0
  8  9  1  0
  7  2  1  0
  9  3  1  0
  9  6  1  0
  1 10  1  0
  1 11  1  0
  1 12  1  0
  2 13  1  0
  3 14  1  0
  4 15  1  0
  4 16  1  0
  6 17  1  0
  7 18  1  0
  9 19  1  0
M  END
