
     RDKit          3D

 21 22  0  0  0  0  0  0  0  0999 V2000
    2.4097   -0.7907    0.4413 C   0  0  0  0  0  0  0  0  0  0  0  0
    1.2154   -0.3315   -0.4114 C   0  0  0  0  0  0  0  0  0  0  0  0
    1.2814    1.1305   -0.5621 C   0  0  0  0  0  0  0  0  0  0  0  0
    0.0567    1.8660   -0.2478 C   0  0  0  0  0  0  0  0  0  0  0  0
   -1.0460    1.2141    0.0411 C   0  0  0  0  0  0  0  0  0  0  0  0
   -1.0733   -0.2406    0.0546 C   0  0  0  0  0  0  0  0  0  0  0  0
   -2.1573   -0.8605    0.9645 C   0  0  0  0  0  0  0  0  0  0  0  0
   -2.2317   -1.0088   -0.5267 C   0  0  0  0  0  0  0  0  0  0  0  0
    0.1086   -0.8861    0.1034 O   0  0  0  0  0  0  0  0  0  0  0  0
    3.2579   -1.0989   -0.1646 H   0  0  0  0  0  0  0  0  0  0  0  0
    2.6796    0.0491    1.1466 H   0  0  0  0  0  0  0  0  0  0  0  0
    2.1229   -1.6361    1.1005 H   0  0  0  0  0  0  0  0  0  0  0  0
    1.4115   -0.7979   -1.4222 H   0  0  0  0  0  0  0  0  0  0  0  0
    1.5852    1.4399   -1.6067 H   0  0  0  0  0  0  0  0  0  0  0  0
    2.0994    1.5784    0.0790 H   0  0  0  0  0  0  0  0  0  0  0  0
    0.0774    2.9483   -0.2580 H   0  0  0  0  0  0  0  0  0  0  0  0
   -1.9290    1.7993    0.2677 H   0  0  0  0  0  0  0  0  0  0  0  0
   -1.8860   -1.6978    1.6018 H   0  0  0  0  0  0  0  0  0  0  0  0
   -2.9136   -0.1656    1.3877 H   0  0  0  0  0  0  0  0  0  0  0  0
   -2.0629   -2.0429   -0.8825 H   0  0  0  0  0  0  0  0  0  0  0  0
   -3.0057   -0.4683   -1.1064 H   0  0  0  0  0  0  0  0  0  0  0  0
  1  2  1  0
  2  3  1  0
  3  4  1  0
  4  5  2  0
  5  6  1  0
  6  7  1  0
  7  8  1  0
  6  9  1  0
  9  2  1  0
  8  6  1  0
  1 10  1  0
  1 11  1  0
  1 12  1  0
  2 13  1  0
  3 14  1  0
  3 15  1  0
  4 16  1  0
  5 17  1  0
  7 18  1  0
  7 19  1  0
  8 20  1  0
  8 21  1  0
M  END
