
     RDKit          3D

 21 23  0  0  0  0  0  0  0  0999 V2000
    2.2627   -0.4343    0.7183 C   0  0  0  0  0  0  0  0  0  0  0  0
    1.2594   -0.2139   -0.3996 C   0  0  0  0  0  0  0  0  0  0  0  0
    0.2074   -1.3311   -0.4044 C   0  0  0  0  0  0  0  0  0  0  0  0
   -0.8265   -0.2816   -0.1533 C   0  0  0  0  0  0  0  0  0  0  0  0
   -2.1219   -0.2434   -0.7893 C   0  0  0  0  0  0  0  0  0  0  0  0
   -1.9591   -0.4520    0.7510 C   0  0  0  0  0  0  0  0  0  0  0  0
    0.1730    0.7696   -0.0563 C   0  0  0  0  0  0  0  0  0  0  0  0
    0.2117    2.1026   -0.3199 C   0  0  0  0  0  0  0  0  0  0  0  0
    0.2979    1.5505    1.0649 O   0  0  0  0  0  0  0  0  0  0  0  0
    1.8697   -0.1442    1.7053 H   0  0  0  0  0  0  0  0  0  0  0  0
    3.1799    0.1134    0.4365 H   0  0  0  0  0  0  0  0  0  0  0  0
    2.5384   -1.5109    0.7385 H   0  0  0  0  0  0  0  0  0  0  0  0
    1.7036   -0.0147   -1.3840 H   0  0  0  0  0  0  0  0  0  0  0  0
    0.3458   -2.0976    0.3514 H   0  0  0  0  0  0  0  0  0  0  0  0
    0.0766   -1.7470   -1.4361 H   0  0  0  0  0  0  0  0  0  0  0  0
   -2.4571   -1.1889   -1.3094 H   0  0  0  0  0  0  0  0  0  0  0  0
   -2.6676    0.6375   -1.1136 H   0  0  0  0  0  0  0  0  0  0  0  0
   -2.2543    0.4610    1.3430 H   0  0  0  0  0  0  0  0  0  0  0  0
   -2.3089   -1.3932    1.1651 H   0  0  0  0  0  0  0  0  0  0  0  0
   -0.6856    2.7648   -0.3883 H   0  0  0  0  0  0  0  0  0  0  0  0
    1.1549    2.6534   -0.5199 H   0  0  0  0  0  0  0  0  0  0  0  0
  1  2  1  0
  2  3  1  0
  3  4  1  0
  4  5  1  0
  5  6  1  0
  4  7  1  0
  7  8  1  0
  8  9  1  0
  7  2  1  0
  6  4  1  0
  9  7  1  0
  1 10  1  0
  1 11  1  0
  1 12  1  0
  2 13  1  0
  3 14  1  0
  3 15  1  0
  5 16  1  0
  5 17  1  0
  6 18  1  0
  6 19  1  0
  8 20  1  0
  8 21  1  0
M  END
