
     RDKit          3D

 23 24  0  0  0  0  0  0  0  0999 V2000
   -0.1403    2.0927    0.1930 C   0  0  0  0  0  0  0  0  0  0  0  0
   -0.2424    0.8738    1.0869 C   0  0  0  0  0  0  0  0  0  0  0  0
    0.9272   -0.1242    0.9431 C   0  0  0  0  0  0  0  0  0  0  0  0
    2.0155    0.2386   -0.0362 C   0  0  0  0  0  0  0  0  0  0  0  0
    2.9528   -0.7914   -0.0006 O   0  0  0  0  0  0  0  0  0  0  0  0
   -0.3853   -0.4106    0.4459 C   0  0  0  0  0  0  0  0  0  0  0  0
   -1.2779   -1.5104    0.8108 C   0  0  0  0  0  0  0  0  0  0  0  0
   -2.0728   -1.2236   -0.4714 C   0  0  0  0  0  0  0  0  0  0  0  0
   -0.8108   -0.5057   -0.9742 C   0  0  0  0  0  0  0  0  0  0  0  0
   -1.0959    2.3409   -0.3057 H   0  0  0  0  0  0  0  0  0  0  0  0
    0.6094    1.9693   -0.6137 H   0  0  0  0  0  0  0  0  0  0  0  0
    0.1745    2.9943    0.7644 H   0  0  0  0  0  0  0  0  0  0  0  0
   -0.5375    1.1021    2.1295 H   0  0  0  0  0  0  0  0  0  0  0  0
    1.2682   -0.6081    1.8920 H   0  0  0  0  0  0  0  0  0  0  0  0
    1.5897    0.2377   -1.0602 H   0  0  0  0  0  0  0  0  0  0  0  0
    2.4818    1.1858    0.2571 H   0  0  0  0  0  0  0  0  0  0  0  0
    3.7214   -0.5531    0.5904 H   0  0  0  0  0  0  0  0  0  0  0  0
   -1.8549   -1.4775    1.7292 H   0  0  0  0  0  0  0  0  0  0  0  0
   -0.7765   -2.5103    0.6588 H   0  0  0  0  0  0  0  0  0  0  0  0
   -2.3354   -2.1136   -1.0513 H   0  0  0  0  0  0  0  0  0  0  0  0
   -2.9089   -0.5343   -0.2373 H   0  0  0  0  0  0  0  0  0  0  0  0
   -1.0842    0.4880   -1.4065 H   0  0  0  0  0  0  0  0  0  0  0  0
   -0.2178   -1.1605   -1.6159 H   0  0  0  0  0  0  0  0  0  0  0  0
  1  2  1  0
  2  3  1  0
  3  4  1  0
  4  5  1  0
  3  6  1  0
  6  7  1  0
  7  8  1  0
  8  9  1  0
  6  2  1  0
  9  6  1  0
  1 10  1  0
  1 11  1  0
  1 12  1  0
  2 13  1  0
  3 14  1  0
  4 15  1  0
  4 16  1  0
  5 17  1  0
  7 18  1  0
  7 19  1  0
  8 20  1  0
  8 21  1  0
  9 22  1  0
  9 23  1  0
M  END
