
     RDKit          3D

 25 26  0  0  0  0  0  0  0  0999 V2000
    1.3720   -0.9985   -1.5610 C   0  0  0  0  0  0  0  0  0  0  0  0
    1.2823   -0.6381   -0.1237 C   0  0  0  0  0  0  0  0  0  0  0  0
    2.1643    0.5427    0.3104 C   0  0  0  0  0  0  0  0  0  0  0  0
    1.0061    0.9341    1.2415 C   0  0  0  0  0  0  0  0  0  0  0  0
    0.1200    0.1232    0.3572 C   0  0  0  0  0  0  0  0  0  0  0  0
   -1.1750   -0.3975    0.7179 C   0  0  0  0  0  0  0  0  0  0  0  0
   -1.6214   -1.7815    0.2680 C   0  0  0  0  0  0  0  0  0  0  0  0
   -0.9850    0.6212   -0.4133 C   0  0  0  0  0  0  0  0  0  0  0  0
   -1.6709    1.9537   -0.1367 C   0  0  0  0  0  0  0  0  0  0  0  0
    2.4398   -0.9066   -1.8788 H   0  0  0  0  0  0  0  0  0  0  0  0
    1.1382   -2.0983   -1.6663 H   0  0  0  0  0  0  0  0  0  0  0  0
    0.7575   -0.3803   -2.2259 H   0  0  0  0  0  0  0  0  0  0  0  0
    1.5369   -1.5214    0.5243 H   0  0  0  0  0  0  0  0  0  0  0  0
    3.0357    0.2470    0.9206 H   0  0  0  0  0  0  0  0  0  0  0  0
    2.3764    1.2675   -0.4779 H   0  0  0  0  0  0  0  0  0  0  0  0
    1.1330    0.4963    2.2706 H   0  0  0  0  0  0  0  0  0  0  0  0
    0.7961    2.0238    1.2402 H   0  0  0  0  0  0  0  0  0  0  0  0
   -1.6980   -0.0682    1.6348 H   0  0  0  0  0  0  0  0  0  0  0  0
   -1.5454   -2.4566    1.1636 H   0  0  0  0  0  0  0  0  0  0  0  0
   -2.6962   -1.8010   -0.0134 H   0  0  0  0  0  0  0  0  0  0  0  0
   -1.0341   -2.1243   -0.5851 H   0  0  0  0  0  0  0  0  0  0  0  0
   -1.1074    0.2715   -1.4559 H   0  0  0  0  0  0  0  0  0  0  0  0
   -2.7736    1.7159   -0.1380 H   0  0  0  0  0  0  0  0  0  0  0  0
   -1.4119    2.2673    0.9127 H   0  0  0  0  0  0  0  0  0  0  0  0
   -1.4396    2.7078   -0.8859 H   0  0  0  0  0  0  0  0  0  0  0  0
  1  2  1  0
  2  3  1  0
  3  4  1  0
  4  5  1  0
  5  6  1  0
  6  7  1  0
  6  8  1  0
  8  9  1  0
  5  2  1  0
  8  5  1  0
  1 10  1  0
  1 11  1  0
  1 12  1  0
  2 13  1  0
  3 14  1  0
  3 15  1  0
  4 16  1  0
  4 17  1  0
  6 18  1  0
  7 19  1  0
  7 20  1  0
  7 21  1  0
  8 22  1  0
  9 23  1  0
  9 24  1  0
  9 25  1  0
M  END
