
     RDKit          3D

 21 22  0  0  0  0  0  0  0  0999 V2000
    2.5816   -0.4192   -0.1407 C   0  0  0  0  0  0  0  0  0  0  0  0
    1.1576   -0.2310   -0.6467 C   0  0  0  0  0  0  0  0  0  0  0  0
    0.1418   -0.7961    0.3267 C   0  0  0  0  0  0  0  0  0  0  0  0
   -1.2253   -0.5430   -0.1889 C   0  0  0  0  0  0  0  0  0  0  0  0
   -1.6965   -1.4946   -1.1126 O   0  0  0  0  0  0  0  0  0  0  0  0
   -2.1823    0.3801    0.4462 C   0  0  0  0  0  0  0  0  0  0  0  0
   -1.3087    0.9271   -0.5928 C   0  0  0  0  0  0  0  0  0  0  0  0
   -0.0560    1.6253   -0.1185 C   0  0  0  0  0  0  0  0  0  0  0  0
    0.9999    1.1249   -0.8590 O   0  0  0  0  0  0  0  0  0  0  0  0
    2.8983   -1.4524   -0.2809 H   0  0  0  0  0  0  0  0  0  0  0  0
    2.6634   -0.0601    0.9120 H   0  0  0  0  0  0  0  0  0  0  0  0
    3.2144    0.2499   -0.7672 H   0  0  0  0  0  0  0  0  0  0  0  0
    1.0664   -0.8188   -1.5757 H   0  0  0  0  0  0  0  0  0  0  0  0
    0.3232   -0.4768    1.3651 H   0  0  0  0  0  0  0  0  0  0  0  0
    0.3130   -1.9112    0.3230 H   0  0  0  0  0  0  0  0  0  0  0  0
   -1.9441   -2.3216   -0.6639 H   0  0  0  0  0  0  0  0  0  0  0  0
   -2.0275    0.6683    1.4962 H   0  0  0  0  0  0  0  0  0  0  0  0
   -3.2525    0.2606    0.1815 H   0  0  0  0  0  0  0  0  0  0  0  0
   -1.5788    1.0746   -1.6334 H   0  0  0  0  0  0  0  0  0  0  0  0
   -0.1897    2.7016   -0.3210 H   0  0  0  0  0  0  0  0  0  0  0  0
    0.1019    1.5124    0.9686 H   0  0  0  0  0  0  0  0  0  0  0  0
  1  2  1  0
  2  3  1  0
  3  4  1  0
  4  5  1  0
  4  6  1  0
  6  7  1  0
  7  8  1  0
  8  9  1  0
  9  2  1  0
  7  4  1  0
  1 10  1  0
  1 11  1  0
  1 12  1  0
  2 13  1  0
  3 14  1  0
  3 15  1  0
  5 16  1  0
  6 17  1  0
  6 18  1  0
  7 19  1  0
  8 20  1  0
  8 21  1  0
M  END
