
     RDKit          3D

 19 19  0  0  0  0  0  0  0  0999 V2000
    2.2403   -0.5066   -0.1108 C   0  0  0  0  0  0  0  0  0  0  0  0
    0.8552   -0.0105   -0.3176 C   0  0  0  0  0  0  0  0  0  0  0  0
   -0.0007   -0.5280    0.8425 C   0  0  0  0  0  0  0  0  0  0  0  0
   -1.4471   -0.3425    0.3685 C   0  0  0  0  0  0  0  0  0  0  0  0
   -1.7251   -1.3558   -0.5427 O   0  0  0  0  0  0  0  0  0  0  0  0
   -1.6293    1.0185   -0.2440 C   0  0  0  0  0  0  0  0  0  0  0  0
   -0.5562    1.9050    0.1003 O   0  0  0  0  0  0  0  0  0  0  0  0
    0.7335    1.4730   -0.2268 C   0  0  0  0  0  0  0  0  0  0  0  0
    1.6894    2.2578   -0.4234 O   0  0  0  0  0  0  0  0  0  0  0  0
    2.3824   -0.9444    0.9207 H   0  0  0  0  0  0  0  0  0  0  0  0
    3.0365    0.2290   -0.3119 H   0  0  0  0  0  0  0  0  0  0  0  0
    2.3755   -1.3992   -0.7917 H   0  0  0  0  0  0  0  0  0  0  0  0
    0.4097   -0.2966   -1.2918 H   0  0  0  0  0  0  0  0  0  0  0  0
    0.1748    0.1177    1.7286 H   0  0  0  0  0  0  0  0  0  0  0  0
    0.2482   -1.5799    0.9941 H   0  0  0  0  0  0  0  0  0  0  0  0
   -2.1175   -0.4945    1.2621 H   0  0  0  0  0  0  0  0  0  0  0  0
   -2.4166   -1.9896   -0.2025 H   0  0  0  0  0  0  0  0  0  0  0  0
   -1.6987    0.9208   -1.3666 H   0  0  0  0  0  0  0  0  0  0  0  0
   -2.5542    1.5258    0.0738 H   0  0  0  0  0  0  0  0  0  0  0  0
  1  2  1  0
  2  3  1  0
  3  4  1  0
  4  5  1  0
  4  6  1  0
  6  7  1  0
  7  8  1  0
  8  9  2  0
  8  2  1  0
  1 10  1  0
  1 11  1  0
  1 12  1  0
  2 13  1  0
  3 14  1  0
  3 15  1  0
  4 16  1  0
  5 17  1  0
  6 18  1  0
  6 19  1  0
M  END
