
     RDKit          3D

 23 24  0  0  0  0  0  0  0  0999 V2000
   -1.6571    1.2809   -0.3666 C   0  0  0  0  0  0  0  0  0  0  0  0
   -1.0976   -0.0654   -0.1309 C   0  0  0  0  0  0  0  0  0  0  0  0
   -0.0075   -0.5388   -1.0580 C   0  0  0  0  0  0  0  0  0  0  0  0
    0.1785   -1.9688   -0.5556 C   0  0  0  0  0  0  0  0  0  0  0  0
    0.1645   -1.6797    0.9625 C   0  0  0  0  0  0  0  0  0  0  0  0
   -0.0041   -0.1797    0.9150 C   0  0  0  0  0  0  0  0  0  0  0  0
   -0.0667    0.5323    2.0239 O   0  0  0  0  0  0  0  0  0  0  0  0
    0.9764    0.1767   -0.1779 C   0  0  0  0  0  0  0  0  0  0  0  0
    1.2494    1.5937   -0.4232 C   0  0  0  0  0  0  0  0  0  0  0  0
   -1.1937    2.0410    0.3046 H   0  0  0  0  0  0  0  0  0  0  0  0
   -2.7434    1.2603   -0.0532 H   0  0  0  0  0  0  0  0  0  0  0  0
   -1.6773    1.6027   -1.4261 H   0  0  0  0  0  0  0  0  0  0  0  0
   -1.8420   -0.8904    0.0009 H   0  0  0  0  0  0  0  0  0  0  0  0
   -0.0566   -0.3554   -2.0906 H   0  0  0  0  0  0  0  0  0  0  0  0
    1.1572   -2.3701   -0.8694 H   0  0  0  0  0  0  0  0  0  0  0  0
   -0.6721   -2.5954   -0.8244 H   0  0  0  0  0  0  0  0  0  0  0  0
   -0.7201   -2.1048    1.4369 H   0  0  0  0  0  0  0  0  0  0  0  0
    1.1252   -1.9552    1.4188 H   0  0  0  0  0  0  0  0  0  0  0  0
    0.8045    0.6845    2.4244 H   0  0  0  0  0  0  0  0  0  0  0  0
    1.8961   -0.4542   -0.0694 H   0  0  0  0  0  0  0  0  0  0  0  0
    0.6661    2.0777   -1.2209 H   0  0  0  0  0  0  0  0  0  0  0  0
    2.3295    1.7024   -0.7401 H   0  0  0  0  0  0  0  0  0  0  0  0
    1.1908    2.2056    0.5194 H   0  0  0  0  0  0  0  0  0  0  0  0
  1  2  1  0
  2  3  1  0
  3  4  1  0
  4  5  1  0
  5  6  1  0
  6  7  1  0
  6  8  1  0
  8  9  1  0
  6  2  1  0
  8  3  1  0
  1 10  1  0
  1 11  1  0
  1 12  1  0
  2 13  1  0
  3 14  1  0
  4 15  1  0
  4 16  1  0
  5 17  1  0
  5 18  1  0
  7 19  1  0
  8 20  1  0
  9 21  1  0
  9 22  1  0
  9 23  1  0
M  END
