
     RDKit          3D

 25 26  0  0  0  0  0  0  0  0999 V2000
    1.9919   -1.0565   -0.5227 C   0  0  0  0  0  0  0  0  0  0  0  0
    1.3912    0.1009    0.2147 C   0  0  0  0  0  0  0  0  0  0  0  0
    0.8433   -0.2207    1.5833 C   0  0  0  0  0  0  0  0  0  0  0  0
   -0.5222    0.1247    1.1080 C   0  0  0  0  0  0  0  0  0  0  0  0
   -1.4107   -1.0359    0.7112 C   0  0  0  0  0  0  0  0  0  0  0  0
   -1.9711   -0.4760   -0.6040 C   0  0  0  0  0  0  0  0  0  0  0  0
   -0.6471   -0.1340   -1.3006 C   0  0  0  0  0  0  0  0  0  0  0  0
    0.0746    0.5988   -0.2250 C   0  0  0  0  0  0  0  0  0  0  0  0
   -0.0597    2.1015   -0.3997 C   0  0  0  0  0  0  0  0  0  0  0  0
    2.2688   -0.7593   -1.5288 H   0  0  0  0  0  0  0  0  0  0  0  0
    1.3211   -1.9367   -0.5693 H   0  0  0  0  0  0  0  0  0  0  0  0
    2.8753   -1.4016    0.0922 H   0  0  0  0  0  0  0  0  0  0  0  0
    2.1388    0.9340    0.2592 H   0  0  0  0  0  0  0  0  0  0  0  0
    1.1517    0.5124    2.3858 H   0  0  0  0  0  0  0  0  0  0  0  0
    0.9785   -1.2704    1.9198 H   0  0  0  0  0  0  0  0  0  0  0  0
   -1.0786    0.8859    1.6578 H   0  0  0  0  0  0  0  0  0  0  0  0
   -0.8535   -1.9408    0.4461 H   0  0  0  0  0  0  0  0  0  0  0  0
   -2.1924   -1.2614    1.4338 H   0  0  0  0  0  0  0  0  0  0  0  0
   -2.5598   -1.2004   -1.1521 H   0  0  0  0  0  0  0  0  0  0  0  0
   -2.4515    0.4781   -0.3767 H   0  0  0  0  0  0  0  0  0  0  0  0
   -0.8978    0.4979   -2.1583 H   0  0  0  0  0  0  0  0  0  0  0  0
   -0.1491   -1.0397   -1.6629 H   0  0  0  0  0  0  0  0  0  0  0  0
   -0.7893    2.3620   -1.2041 H   0  0  0  0  0  0  0  0  0  0  0  0
    0.9200    2.5372   -0.6603 H   0  0  0  0  0  0  0  0  0  0  0  0
   -0.3723    2.5999    0.5527 H   0  0  0  0  0  0  0  0  0  0  0  0
  1  2  1  0
  2  3  1  0
  3  4  1  0
  4  5  1  0
  5  6  1  0
  6  7  1  0
  7  8  1  0
  8  9  1  0
  8  2  1  0
  8  4  1  0
  1 10  1  0
  1 11  1  0
  1 12  1  0
  2 13  1  0
  3 14  1  0
  3 15  1  0
  4 16  1  0
  5 17  1  0
  5 18  1  0
  6 19  1  0
  6 20  1  0
  7 21  1  0
  7 22  1  0
  9 23  1  0
  9 24  1  0
  9 25  1  0
M  END
