
     RDKit          3D

 23 24  0  0  0  0  0  0  0  0999 V2000
    2.0342    0.8926    0.0468 C   0  0  0  0  0  0  0  0  0  0  0  0
    1.0588   -0.1264   -0.4111 C   0  0  0  0  0  0  0  0  0  0  0  0
    0.5890   -1.0290    0.7192 C   0  0  0  0  0  0  0  0  0  0  0  0
   -0.8754   -1.1241    0.4445 C   0  0  0  0  0  0  0  0  0  0  0  0
   -1.0121   -1.6645   -0.9619 C   0  0  0  0  0  0  0  0  0  0  0  0
   -0.7899   -0.6793   -1.8306 C   0  0  0  0  0  0  0  0  0  0  0  0
   -0.2005    0.4216   -1.0116 C   0  0  0  0  0  0  0  0  0  0  0  0
   -1.2137    0.3268    0.1395 C   0  0  0  0  0  0  0  0  0  0  0  0
   -0.9893    1.2598    1.2333 C   0  0  0  0  0  0  0  0  0  0  0  0
    1.7286    1.9461   -0.1987 H   0  0  0  0  0  0  0  0  0  0  0  0
    2.2673    0.8124    1.1490 H   0  0  0  0  0  0  0  0  0  0  0  0
    3.0186    0.7581   -0.4527 H   0  0  0  0  0  0  0  0  0  0  0  0
    1.5395   -0.7656   -1.2104 H   0  0  0  0  0  0  0  0  0  0  0  0
    0.8111   -0.4711    1.6654 H   0  0  0  0  0  0  0  0  0  0  0  0
    1.1382   -1.9736    0.6504 H   0  0  0  0  0  0  0  0  0  0  0  0
   -1.4912   -1.6022    1.1643 H   0  0  0  0  0  0  0  0  0  0  0  0
   -1.2514   -2.6860   -1.2009 H   0  0  0  0  0  0  0  0  0  0  0  0
   -0.9794   -0.6465   -2.8926 H   0  0  0  0  0  0  0  0  0  0  0  0
   -0.1500    1.3746   -1.4779 H   0  0  0  0  0  0  0  0  0  0  0  0
   -2.2325    0.4151   -0.2589 H   0  0  0  0  0  0  0  0  0  0  0  0
   -1.4022    0.7943    2.1760 H   0  0  0  0  0  0  0  0  0  0  0  0
    0.0168    1.5913    1.4455 H   0  0  0  0  0  0  0  0  0  0  0  0
   -1.6145    2.1757    1.0733 H   0  0  0  0  0  0  0  0  0  0  0  0
  1  2  1  0
  2  3  1  0
  3  4  1  0
  4  5  1  0
  5  6  2  0
  6  7  1  0
  7  8  1  0
  8  9  1  0
  7  2  1  0
  8  4  1  0
  1 10  1  0
  1 11  1  0
  1 12  1  0
  2 13  1  0
  3 14  1  0
  3 15  1  0
  4 16  1  0
  5 17  1  0
  6 18  1  0
  7 19  1  0
  8 20  1  0
  9 21  1  0
  9 22  1  0
  9 23  1  0
M  END
