
     RDKit          3D

 21 22  0  0  0  0  0  0  0  0999 V2000
    1.7913   -1.6117    0.0764 C   0  0  0  0  0  0  0  0  0  0  0  0
    0.9606   -0.4488   -0.4634 C   0  0  0  0  0  0  0  0  0  0  0  0
    0.8016    0.7844    0.3589 C   0  0  0  0  0  0  0  0  0  0  0  0
    0.6992    2.1431   -0.3495 C   0  0  0  0  0  0  0  0  0  0  0  0
   -0.3274   -0.0921    0.0643 C   0  0  0  0  0  0  0  0  0  0  0  0
   -1.5201    0.3166   -0.7248 C   0  0  0  0  0  0  0  0  0  0  0  0
   -2.3062   -0.6696    0.0964 C   0  0  0  0  0  0  0  0  0  0  0  0
   -3.4053   -1.1634    0.0543 O   0  0  0  0  0  0  0  0  0  0  0  0
   -1.1384   -0.8181    1.0466 C   0  0  0  0  0  0  0  0  0  0  0  0
    1.2703   -2.0592    0.9601 H   0  0  0  0  0  0  0  0  0  0  0  0
    2.7965   -1.2921    0.3937 H   0  0  0  0  0  0  0  0  0  0  0  0
    1.8353   -2.3871   -0.7152 H   0  0  0  0  0  0  0  0  0  0  0  0
    1.1259   -0.2915   -1.5689 H   0  0  0  0  0  0  0  0  0  0  0  0
    1.1346    0.8256    1.4122 H   0  0  0  0  0  0  0  0  0  0  0  0
    0.4541    1.9716   -1.4090 H   0  0  0  0  0  0  0  0  0  0  0  0
   -0.2054    2.6292    0.0984 H   0  0  0  0  0  0  0  0  0  0  0  0
    1.5862    2.7424   -0.1625 H   0  0  0  0  0  0  0  0  0  0  0  0
   -1.5054    0.0938   -1.8057 H   0  0  0  0  0  0  0  0  0  0  0  0
   -1.8113    1.3738   -0.5666 H   0  0  0  0  0  0  0  0  0  0  0  0
   -0.8575   -1.8579    1.2577 H   0  0  0  0  0  0  0  0  0  0  0  0
   -1.3789   -0.1892    1.9466 H   0  0  0  0  0  0  0  0  0  0  0  0
  1  2  1  0
  2  3  1  0
  3  4  1  0
  3  5  1  0
  5  6  1  0
  6  7  1  0
  7  8  2  0
  7  9  1  0
  5  2  1  0
  9  5  1  0
  1 10  1  0
  1 11  1  0
  1 12  1  0
  2 13  1  0
  3 14  1  0
  4 15  1  0
  4 16  1  0
  4 17  1  0
  6 18  1  0
  6 19  1  0
  9 20  1  0
  9 21  1  0
M  END
