
     RDKit          3D

 19 20  0  0  0  0  0  0  0  0999 V2000
   -1.6455    1.3688    0.3652 C   0  0  0  0  0  0  0  0  0  0  0  0
   -1.1359    0.3179   -0.5774 C   0  0  0  0  0  0  0  0  0  0  0  0
   -0.7968   -0.9732    0.0927 C   0  0  0  0  0  0  0  0  0  0  0  0
   -0.3078   -2.0521   -0.8329 C   0  0  0  0  0  0  0  0  0  0  0  0
    0.7768   -1.1988   -1.1519 O   0  0  0  0  0  0  0  0  0  0  0  0
    0.2815   -0.1492   -0.4089 C   0  0  0  0  0  0  0  0  0  0  0  0
    1.1560    0.7458    0.4069 C   0  0  0  0  0  0  0  0  0  0  0  0
    2.5334    0.2626    0.5479 C   0  0  0  0  0  0  0  0  0  0  0  0
    3.1472   -0.0890   -0.4403 O   0  0  0  0  0  0  0  0  0  0  0  0
   -1.1451    2.3299    0.1496 H   0  0  0  0  0  0  0  0  0  0  0  0
   -1.4225    1.1171    1.4329 H   0  0  0  0  0  0  0  0  0  0  0  0
   -2.7560    1.4186    0.2342 H   0  0  0  0  0  0  0  0  0  0  0  0
   -1.4827    0.3430   -1.6158 H   0  0  0  0  0  0  0  0  0  0  0  0
   -1.0656   -1.1668    1.1372 H   0  0  0  0  0  0  0  0  0  0  0  0
   -0.0028   -2.9991   -0.3649 H   0  0  0  0  0  0  0  0  0  0  0  0
   -1.0212   -2.1875   -1.6828 H   0  0  0  0  0  0  0  0  0  0  0  0
    0.6816    0.9835    1.3741 H   0  0  0  0  0  0  0  0  0  0  0  0
    1.1537    1.7391   -0.1587 H   0  0  0  0  0  0  0  0  0  0  0  0
    3.0518    0.1895    1.4929 H   0  0  0  0  0  0  0  0  0  0  0  0
  1  2  1  0
  2  3  1  0
  3  4  1  0
  4  5  1  0
  5  6  1  0
  6  7  1  0
  7  8  1  0
  8  9  2  0
  6  2  1  0
  6  3  1  0
  1 10  1  0
  1 11  1  0
  1 12  1  0
  2 13  1  0
  3 14  1  0
  4 15  1  0
  4 16  1  0
  7 17  1  0
  7 18  1  0
  8 19  1  0
M  END
