
     RDKit          3D

 21 21  0  0  0  0  0  0  0  0999 V2000
    1.5158   -0.5208    0.8044 C   0  0  0  0  0  0  0  0  0  0  0  0
    0.9738   -0.0074   -0.5097 C   0  0  0  0  0  0  0  0  0  0  0  0
    0.1393   -1.0598   -1.1947 C   0  0  0  0  0  0  0  0  0  0  0  0
   -0.8427   -1.6906   -0.2982 C   0  0  0  0  0  0  0  0  0  0  0  0
   -1.6909   -1.0510    0.4963 C   0  0  0  0  0  0  0  0  0  0  0  0
   -1.8579    0.3951    0.6754 C   0  0  0  0  0  0  0  0  0  0  0  0
   -0.9957    1.3066    0.2775 C   0  0  0  0  0  0  0  0  0  0  0  0
    0.2907    1.3126   -0.4013 C   0  0  0  0  0  0  0  0  0  0  0  0
    1.1534    2.1575    0.3294 O   0  0  0  0  0  0  0  0  0  0  0  0
    1.1404    0.0713    1.6683 H   0  0  0  0  0  0  0  0  0  0  0  0
    1.2023   -1.5716    0.9901 H   0  0  0  0  0  0  0  0  0  0  0  0
    2.6252   -0.5174    0.8435 H   0  0  0  0  0  0  0  0  0  0  0  0
    1.8717    0.1499   -1.1743 H   0  0  0  0  0  0  0  0  0  0  0  0
   -0.3904   -0.6037   -2.0520 H   0  0  0  0  0  0  0  0  0  0  0  0
    0.8391   -1.8739   -1.5384 H   0  0  0  0  0  0  0  0  0  0  0  0
   -0.9180   -2.7525   -0.2468 H   0  0  0  0  0  0  0  0  0  0  0  0
   -2.3647   -1.6354    1.1089 H   0  0  0  0  0  0  0  0  0  0  0  0
   -2.7616    0.7445    1.1744 H   0  0  0  0  0  0  0  0  0  0  0  0
   -1.3420    2.3185    0.5240 H   0  0  0  0  0  0  0  0  0  0  0  0
    0.2317    1.7640   -1.4220 H   0  0  0  0  0  0  0  0  0  0  0  0
    1.1807    3.0641   -0.0548 H   0  0  0  0  0  0  0  0  0  0  0  0
  1  2  1  0
  2  3  1  0
  3  4  1  0
  4  5  2  0
  5  6  1  0
  6  7  2  0
  7  8  1  0
  8  9  1  0
  8  2  1  0
  1 10  1  0
  1 11  1  0
  1 12  1  0
  2 13  1  0
  3 14  1  0
  3 15  1  0
  4 16  1  0
  5 17  1  0
  6 18  1  0
  7 19  1  0
  8 20  1  0
  9 21  1  0
M  END
