
     RDKit          3D

 19 20  0  0  0  0  0  0  0  0999 V2000
   -1.8258   -0.8205    0.3082 C   0  0  0  0  0  0  0  0  0  0  0  0
   -0.8968   -0.7144   -0.8290 C   0  0  0  0  0  0  0  0  0  0  0  0
   -0.4514    0.7062   -1.2371 C   0  0  0  0  0  0  0  0  0  0  0  0
   -1.4937    1.5875   -1.2313 O   0  0  0  0  0  0  0  0  0  0  0  0
    0.2844    0.6037    0.0752 C   0  0  0  0  0  0  0  0  0  0  0  0
    1.3887   -0.2311    0.4556 C   0  0  0  0  0  0  0  0  0  0  0  0
    2.7343    0.3494    0.1965 C   0  0  0  0  0  0  0  0  0  0  0  0
    2.8799    1.0247   -0.8115 O   0  0  0  0  0  0  0  0  0  0  0  0
    0.5822   -0.8148   -0.5728 C   0  0  0  0  0  0  0  0  0  0  0  0
   -2.6001   -1.6118    0.0713 H   0  0  0  0  0  0  0  0  0  0  0  0
   -2.4455    0.0941    0.5053 H   0  0  0  0  0  0  0  0  0  0  0  0
   -1.3599   -1.2069    1.2624 H   0  0  0  0  0  0  0  0  0  0  0  0
   -1.2296   -1.2323   -1.7317 H   0  0  0  0  0  0  0  0  0  0  0  0
    0.1563    0.6534   -2.1440 H   0  0  0  0  0  0  0  0  0  0  0  0
   -1.2290    2.4129   -0.7407 H   0  0  0  0  0  0  0  0  0  0  0  0
   -0.5109    0.6023    0.8803 H   0  0  0  0  0  0  0  0  0  0  0  0
    1.3929   -0.8323    1.4173 H   0  0  0  0  0  0  0  0  0  0  0  0
    3.5254    0.1560    0.8996 H   0  0  0  0  0  0  0  0  0  0  0  0
    1.0990   -0.7262   -1.5842 H   0  0  0  0  0  0  0  0  0  0  0  0
  1  2  1  0
  2  3  1  0
  3  4  1  0
  3  5  1  0
  5  6  1  0
  6  7  1  0
  7  8  2  0
  6  9  1  0
  9  2  1  0
  9  5  1  0
  1 10  1  0
  1 11  1  0
  1 12  1  0
  2 13  1  0
  3 14  1  0
  4 15  1  0
  5 16  1  0
  6 17  1  0
  7 18  1  0
  9 19  1  0
M  END
