
     RDKit          3D

 19 20  0  0  0  0  0  0  0  0999 V2000
   -1.8467   -0.9914    0.6564 C   0  0  0  0  0  0  0  0  0  0  0  0
   -1.0771    0.3225    0.5552 C   0  0  0  0  0  0  0  0  0  0  0  0
   -0.7678    0.7423   -0.9026 C   0  0  0  0  0  0  0  0  0  0  0  0
   -0.8090    2.1110   -1.1684 O   0  0  0  0  0  0  0  0  0  0  0  0
    0.2520    0.2213    0.0054 C   0  0  0  0  0  0  0  0  0  0  0  0
    0.9872   -1.0621   -0.2091 C   0  0  0  0  0  0  0  0  0  0  0  0
    2.2456   -0.1950   -0.1887 C   0  0  0  0  0  0  0  0  0  0  0  0
    1.4489    0.9142    0.3920 C   0  0  0  0  0  0  0  0  0  0  0  0
    1.7479    1.9415    0.9444 O   0  0  0  0  0  0  0  0  0  0  0  0
   -1.9372   -1.4834   -0.3402 H   0  0  0  0  0  0  0  0  0  0  0  0
   -2.8553   -0.7866    1.0287 H   0  0  0  0  0  0  0  0  0  0  0  0
   -1.2811   -1.7240    1.2964 H   0  0  0  0  0  0  0  0  0  0  0  0
   -1.4099    1.1480    1.2170 H   0  0  0  0  0  0  0  0  0  0  0  0
   -1.1298    0.0936   -1.7000 H   0  0  0  0  0  0  0  0  0  0  0  0
   -0.8946    2.6343   -0.3097 H   0  0  0  0  0  0  0  0  0  0  0  0
    0.7468   -1.5191   -1.1702 H   0  0  0  0  0  0  0  0  0  0  0  0
    0.9811   -1.7311    0.6826 H   0  0  0  0  0  0  0  0  0  0  0  0
    2.5573   -0.0317   -1.2467 H   0  0  0  0  0  0  0  0  0  0  0  0
    3.0417   -0.6044    0.4575 H   0  0  0  0  0  0  0  0  0  0  0  0
  1  2  1  0
  2  3  1  0
  3  4  1  0
  3  5  1  0
  5  6  1  0
  6  7  1  0
  7  8  1  0
  8  9  2  0
  5  2  1  0
  8  5  1  0
  1 10  1  0
  1 11  1  0
  1 12  1  0
  2 13  1  0
  3 14  1  0
  4 15  1  0
  6 16  1  0
  6 17  1  0
  7 18  1  0
  7 19  1  0
M  END
