
     RDKit          3D

 18 19  0  0  0  0  0  0  0  0999 V2000
   -1.7071    0.6257    0.7586 C   0  0  0  0  0  0  0  0  0  0  0  0
   -1.1693    0.3003   -0.5969 C   0  0  0  0  0  0  0  0  0  0  0  0
   -0.8822   -1.2211   -0.6702 C   0  0  0  0  0  0  0  0  0  0  0  0
    0.4442   -0.8548   -0.0308 C   0  0  0  0  0  0  0  0  0  0  0  0
    1.5879   -0.7424    0.6108 C   0  0  0  0  0  0  0  0  0  0  0  0
    2.1472    0.6104    0.3542 C   0  0  0  0  0  0  0  0  0  0  0  0
    1.0152    1.3570   -0.0826 O   0  0  0  0  0  0  0  0  0  0  0  0
    0.2928    0.4426   -0.7950 C   0  0  0  0  0  0  0  0  0  0  0  0
   -2.1194    1.6505    0.8215 H   0  0  0  0  0  0  0  0  0  0  0  0
   -0.9584    0.3965    1.5351 H   0  0  0  0  0  0  0  0  0  0  0  0
   -2.5883   -0.0550    0.9357 H   0  0  0  0  0  0  0  0  0  0  0  0
   -1.8366    0.5742   -1.4296 H   0  0  0  0  0  0  0  0  0  0  0  0
   -0.8027   -1.6086   -1.6892 H   0  0  0  0  0  0  0  0  0  0  0  0
   -1.5063   -1.8137    0.0264 H   0  0  0  0  0  0  0  0  0  0  0  0
    2.0497   -1.4960    1.2210 H   0  0  0  0  0  0  0  0  0  0  0  0
    2.5329    1.0275    1.3068 H   0  0  0  0  0  0  0  0  0  0  0  0
    2.9001    0.5384   -0.4304 H   0  0  0  0  0  0  0  0  0  0  0  0
    0.6002    0.2685   -1.8455 H   0  0  0  0  0  0  0  0  0  0  0  0
  1  2  1  0
  2  3  1  0
  3  4  1  0
  4  5  2  0
  5  6  1  0
  6  7  1  0
  7  8  1  0
  8  2  1  0
  8  4  1  0
  1  9  1  0
  1 10  1  0
  1 11  1  0
  2 12  1  0
  3 13  1  0
  3 14  1  0
  5 15  1  0
  6 16  1  0
  6 17  1  0
  8 18  1  0
M  END
