
     RDKit          3D

 21 22  0  0  0  0  0  0  0  0999 V2000
    2.6522    0.1939   -0.1089 C   0  0  0  0  0  0  0  0  0  0  0  0
    1.2004    0.4530    0.1682 C   0  0  0  0  0  0  0  0  0  0  0  0
    0.5379   -0.8393    0.5906 C   0  0  0  0  0  0  0  0  0  0  0  0
   -0.8206   -0.7234   -0.0206 C   0  0  0  0  0  0  0  0  0  0  0  0
   -1.5994   -1.8588   -0.3012 C   0  0  0  0  0  0  0  0  0  0  0  0
   -1.9589   -0.9309    0.7763 O   0  0  0  0  0  0  0  0  0  0  0  0
   -0.8366    0.5822   -0.7334 C   0  0  0  0  0  0  0  0  0  0  0  0
   -1.5043    1.6440    0.1133 C   0  0  0  0  0  0  0  0  0  0  0  0
    0.5128    0.9105   -0.9484 O   0  0  0  0  0  0  0  0  0  0  0  0
    3.0712    0.9225   -0.8461 H   0  0  0  0  0  0  0  0  0  0  0  0
    2.8387   -0.8207   -0.5435 H   0  0  0  0  0  0  0  0  0  0  0  0
    3.2312    0.2201    0.8358 H   0  0  0  0  0  0  0  0  0  0  0  0
    1.1396    1.2203    0.9618 H   0  0  0  0  0  0  0  0  0  0  0  0
    0.5274   -0.9798    1.6767 H   0  0  0  0  0  0  0  0  0  0  0  0
    1.0706   -1.6914    0.0807 H   0  0  0  0  0  0  0  0  0  0  0  0
   -2.3398   -1.8853   -1.1302 H   0  0  0  0  0  0  0  0  0  0  0  0
   -1.3565   -2.8311    0.1385 H   0  0  0  0  0  0  0  0  0  0  0  0
   -1.3624    0.5630   -1.6997 H   0  0  0  0  0  0  0  0  0  0  0  0
   -2.1813    2.2979   -0.4898 H   0  0  0  0  0  0  0  0  0  0  0  0
   -0.7345    2.3313    0.5336 H   0  0  0  0  0  0  0  0  0  0  0  0
   -2.0879    1.2220    0.9462 H   0  0  0  0  0  0  0  0  0  0  0  0
  1  2  1  0
  2  3  1  0
  3  4  1  0
  4  5  1  0
  5  6  1  0
  4  7  1  0
  7  8  1  0
  7  9  1  0
  9  2  1  0
  6  4  1  0
  1 10  1  0
  1 11  1  0
  1 12  1  0
  2 13  1  0
  3 14  1  0
  3 15  1  0
  5 16  1  0
  5 17  1  0
  7 18  1  0
  8 19  1  0
  8 20  1  0
  8 21  1  0
M  END
