
     RDKit          3D

 23 24  0  0  0  0  0  0  0  0999 V2000
    2.3437   -0.7295   -0.1894 C   0  0  0  0  0  0  0  0  0  0  0  0
    1.2393    0.1330    0.3001 C   0  0  0  0  0  0  0  0  0  0  0  0
    0.8430    1.1771   -0.7179 C   0  0  0  0  0  0  0  0  0  0  0  0
   -0.5625    1.6060   -0.3184 C   0  0  0  0  0  0  0  0  0  0  0  0
   -1.0129    0.6151    0.7398 C   0  0  0  0  0  0  0  0  0  0  0  0
   -2.3132    0.0077    0.3722 C   0  0  0  0  0  0  0  0  0  0  0  0
   -2.1138   -1.1025   -0.3455 C   0  0  0  0  0  0  0  0  0  0  0  0
   -0.6340   -1.3257   -0.5153 C   0  0  0  0  0  0  0  0  0  0  0  0
   -0.0325   -0.5592    0.6079 C   0  0  0  0  0  0  0  0  0  0  0  0
    2.8207   -1.2469    0.6785 H   0  0  0  0  0  0  0  0  0  0  0  0
    3.1451   -0.0779   -0.6161 H   0  0  0  0  0  0  0  0  0  0  0  0
    2.0539   -1.4212   -0.9979 H   0  0  0  0  0  0  0  0  0  0  0  0
    1.5811    0.6705    1.2005 H   0  0  0  0  0  0  0  0  0  0  0  0
    0.8495    0.7902   -1.7569 H   0  0  0  0  0  0  0  0  0  0  0  0
    1.5305    2.0270   -0.6134 H   0  0  0  0  0  0  0  0  0  0  0  0
   -1.2462    1.6417   -1.1795 H   0  0  0  0  0  0  0  0  0  0  0  0
   -0.5290    2.6054    0.1402 H   0  0  0  0  0  0  0  0  0  0  0  0
   -0.9669    1.0133    1.7502 H   0  0  0  0  0  0  0  0  0  0  0  0
   -3.2697    0.4397    0.6671 H   0  0  0  0  0  0  0  0  0  0  0  0
   -2.9356   -1.7027   -0.7170 H   0  0  0  0  0  0  0  0  0  0  0  0
   -0.4709   -2.4061   -0.3452 H   0  0  0  0  0  0  0  0  0  0  0  0
   -0.2928   -1.0019   -1.5143 H   0  0  0  0  0  0  0  0  0  0  0  0
   -0.0268   -1.1532    1.5414 H   0  0  0  0  0  0  0  0  0  0  0  0
  1  2  1  0
  2  3  1  0
  3  4  1  0
  4  5  1  0
  5  6  1  0
  6  7  2  0
  7  8  1  0
  8  9  1  0
  9  2  1  0
  9  5  1  0
  1 10  1  0
  1 11  1  0
  1 12  1  0
  2 13  1  0
  3 14  1  0
  3 15  1  0
  4 16  1  0
  4 17  1  0
  5 18  1  0
  6 19  1  0
  7 20  1  0
  8 21  1  0
  8 22  1  0
  9 23  1  0
M  END
