
     RDKit          3D

 23 24  0  0  0  0  0  0  0  0999 V2000
   -1.5223    0.3984    1.7245 C   0  0  0  0  0  0  0  0  0  0  0  0
   -0.9372    0.4103    0.3349 C   0  0  0  0  0  0  0  0  0  0  0  0
   -1.9727   -0.1333   -0.6608 C   0  0  0  0  0  0  0  0  0  0  0  0
   -0.7756   -0.7644   -1.3844 C   0  0  0  0  0  0  0  0  0  0  0  0
   -0.0963   -0.7636   -0.0084 C   0  0  0  0  0  0  0  0  0  0  0  0
    1.3692   -0.5872   -0.1328 C   0  0  0  0  0  0  0  0  0  0  0  0
    1.8914    0.3636   -1.1471 C   0  0  0  0  0  0  0  0  0  0  0  0
    2.8909    0.7320   -0.2160 O   0  0  0  0  0  0  0  0  0  0  0  0
    1.9552    0.4590    0.7824 C   0  0  0  0  0  0  0  0  0  0  0  0
   -2.2199   -0.4427    1.8861 H   0  0  0  0  0  0  0  0  0  0  0  0
   -0.6516    0.3277    2.4335 H   0  0  0  0  0  0  0  0  0  0  0  0
   -2.0046    1.3660    1.9490 H   0  0  0  0  0  0  0  0  0  0  0  0
   -0.5800    1.3914    0.0094 H   0  0  0  0  0  0  0  0  0  0  0  0
   -2.5102    0.6225   -1.2241 H   0  0  0  0  0  0  0  0  0  0  0  0
   -2.6044   -0.9434   -0.2384 H   0  0  0  0  0  0  0  0  0  0  0  0
   -0.2604   -0.0259   -2.0208 H   0  0  0  0  0  0  0  0  0  0  0  0
   -0.9650   -1.7506   -1.8055 H   0  0  0  0  0  0  0  0  0  0  0  0
   -0.3521   -1.6719    0.5530 H   0  0  0  0  0  0  0  0  0  0  0  0
    1.9421   -1.5130   -0.0765 H   0  0  0  0  0  0  0  0  0  0  0  0
    2.4218   -0.1059   -2.0192 H   0  0  0  0  0  0  0  0  0  0  0  0
    1.2872    1.2420   -1.3826 H   0  0  0  0  0  0  0  0  0  0  0  0
    2.3858    0.0439    1.7154 H   0  0  0  0  0  0  0  0  0  0  0  0
    1.3088    1.3454    0.9282 H   0  0  0  0  0  0  0  0  0  0  0  0
  1  2  1  0
  2  3  1  0
  3  4  1  0
  4  5  1  0
  5  6  1  0
  6  7  1  0
  7  8  1  0
  8  9  1  0
  5  2  1  0
  9  6  1  0
  1 10  1  0
  1 11  1  0
  1 12  1  0
  2 13  1  0
  3 14  1  0
  3 15  1  0
  4 16  1  0
  4 17  1  0
  5 18  1  0
  6 19  1  0
  7 20  1  0
  7 21  1  0
  9 22  1  0
  9 23  1  0
M  END
