
     RDKit          3D

 21 22  0  0  0  0  0  0  0  0999 V2000
    2.4428    0.2700    0.2766 C   0  0  0  0  0  0  0  0  0  0  0  0
    1.2020    0.1794   -0.6016 C   0  0  0  0  0  0  0  0  0  0  0  0
    0.2162    1.2618   -0.2189 C   0  0  0  0  0  0  0  0  0  0  0  0
   -0.6707    0.5616    0.7722 C   0  0  0  0  0  0  0  0  0  0  0  0
   -2.0285    0.1996    0.1607 C   0  0  0  0  0  0  0  0  0  0  0  0
   -1.8151   -1.1752   -0.4699 C   0  0  0  0  0  0  0  0  0  0  0  0
   -0.5755   -1.2463   -1.1160 O   0  0  0  0  0  0  0  0  0  0  0  0
    0.4371   -1.0696   -0.1910 C   0  0  0  0  0  0  0  0  0  0  0  0
   -0.0560   -0.6661    1.0649 O   0  0  0  0  0  0  0  0  0  0  0  0
    3.0652   -0.6355    0.0867 H   0  0  0  0  0  0  0  0  0  0  0  0
    2.9713    1.1987   -0.0355 H   0  0  0  0  0  0  0  0  0  0  0  0
    2.0965    0.3314    1.3342 H   0  0  0  0  0  0  0  0  0  0  0  0
    1.4805    0.1879   -1.6564 H   0  0  0  0  0  0  0  0  0  0  0  0
    0.8173    2.0758    0.2528 H   0  0  0  0  0  0  0  0  0  0  0  0
   -0.3195    1.6888   -1.0746 H   0  0  0  0  0  0  0  0  0  0  0  0
   -0.8008    1.1417    1.6980 H   0  0  0  0  0  0  0  0  0  0  0  0
   -2.7509    0.0656    1.0041 H   0  0  0  0  0  0  0  0  0  0  0  0
   -2.3813    0.9439   -0.5482 H   0  0  0  0  0  0  0  0  0  0  0  0
   -1.7535   -1.8856    0.3964 H   0  0  0  0  0  0  0  0  0  0  0  0
   -2.6516   -1.4893   -1.0939 H   0  0  0  0  0  0  0  0  0  0  0  0
    1.0747   -1.9389   -0.0406 H   0  0  0  0  0  0  0  0  0  0  0  0
  1  2  1  0
  2  3  1  0
  3  4  1  0
  4  5  1  0
  5  6  1  0
  6  7  1  0
  7  8  1  0
  8  9  1  0
  8  2  1  0
  9  4  1  0
  1 10  1  0
  1 11  1  0
  1 12  1  0
  2 13  1  0
  3 14  1  0
  3 15  1  0
  4 16  1  0
  5 17  1  0
  5 18  1  0
  6 19  1  0
  6 20  1  0
  8 21  1  0
M  END
