
     RDKit          3D

 17 17  0  0  0  0  0  0  0  0999 V2000
   -2.3456   -0.0567    0.3362 C   0  0  0  0  0  0  0  0  0  0  0  0
   -1.0738   -0.4145   -0.4165 C   0  0  0  0  0  0  0  0  0  0  0  0
   -0.3472    0.8323   -0.7001 C   0  0  0  0  0  0  0  0  0  0  0  0
    0.9729    0.9502   -0.6329 C   0  0  0  0  0  0  0  0  0  0  0  0
    1.7604   -0.2462   -0.2491 C   0  0  0  0  0  0  0  0  0  0  0  0
    2.9388    0.2001    0.3524 O   0  0  0  0  0  0  0  0  0  0  0  0
    0.9966   -1.0436    0.7504 C   0  0  0  0  0  0  0  0  0  0  0  0
    1.5190   -1.4618    1.8163 O   0  0  0  0  0  0  0  0  0  0  0  0
   -0.3448   -1.2961    0.4212 O   0  0  0  0  0  0  0  0  0  0  0  0
   -2.0659    0.5847    1.1972 H   0  0  0  0  0  0  0  0  0  0  0  0
   -3.0036    0.4916   -0.3594 H   0  0  0  0  0  0  0  0  0  0  0  0
   -2.8315   -0.9942    0.6151 H   0  0  0  0  0  0  0  0  0  0  0  0
   -1.3088   -0.9492   -1.3486 H   0  0  0  0  0  0  0  0  0  0  0  0
   -0.9195    1.7097   -0.9811 H   0  0  0  0  0  0  0  0  0  0  0  0
    1.4393    1.9156   -0.8597 H   0  0  0  0  0  0  0  0  0  0  0  0
    1.9615   -0.8356   -1.1667 H   0  0  0  0  0  0  0  0  0  0  0  0
    2.6522    0.6138    1.2253 H   0  0  0  0  0  0  0  0  0  0  0  0
  1  2  1  0
  2  3  1  0
  3  4  2  0
  4  5  1  0
  5  6  1  0
  5  7  1  0
  7  8  2  0
  7  9  1  0
  9  2  1  0
  1 10  1  0
  1 11  1  0
  1 12  1  0
  2 13  1  0
  3 14  1  0
  4 15  1  0
  5 16  1  0
  6 17  1  0
M  END
