
     RDKit          3D

 19 20  0  0  0  0  0  0  0  0999 V2000
    2.2592   -0.0071    0.0799 C   0  0  0  0  0  0  0  0  0  0  0  0
    0.8446   -0.4254   -0.1701 C   0  0  0  0  0  0  0  0  0  0  0  0
    0.3594    0.1270   -1.4975 C   0  0  0  0  0  0  0  0  0  0  0  0
   -1.0370   -0.0468   -1.3558 O   0  0  0  0  0  0  0  0  0  0  0  0
   -1.2677    0.5960   -0.1570 C   0  0  0  0  0  0  0  0  0  0  0  0
   -2.2211   -0.0601    0.7899 C   0  0  0  0  0  0  0  0  0  0  0  0
   -1.0719   -0.7344    1.4484 C   0  0  0  0  0  0  0  0  0  0  0  0
   -0.9337   -1.6658    2.2229 O   0  0  0  0  0  0  0  0  0  0  0  0
   -0.1418    0.1819    0.7863 C   0  0  0  0  0  0  0  0  0  0  0  0
    2.7092   -0.5197    0.9289 H   0  0  0  0  0  0  0  0  0  0  0  0
    2.8539   -0.3206   -0.8259 H   0  0  0  0  0  0  0  0  0  0  0  0
    2.3782    1.1031    0.1298 H   0  0  0  0  0  0  0  0  0  0  0  0
    0.8054   -1.5140   -0.2348 H   0  0  0  0  0  0  0  0  0  0  0  0
    0.7439   -0.4990   -2.3030 H   0  0  0  0  0  0  0  0  0  0  0  0
    0.5397    1.1983   -1.6102 H   0  0  0  0  0  0  0  0  0  0  0  0
   -1.3769    1.6925   -0.2851 H   0  0  0  0  0  0  0  0  0  0  0  0
   -2.9116   -0.7914    0.3162 H   0  0  0  0  0  0  0  0  0  0  0  0
   -2.7466    0.6882    1.3967 H   0  0  0  0  0  0  0  0  0  0  0  0
    0.2147    0.9975    1.4153 H   0  0  0  0  0  0  0  0  0  0  0  0
  1  2  1  0
  2  3  1  0
  3  4  1  0
  4  5  1  0
  5  6  1  0
  6  7  1  0
  7  8  2  0
  7  9  1  0
  9  2  1  0
  9  5  1  0
  1 10  1  0
  1 11  1  0
  1 12  1  0
  2 13  1  0
  3 14  1  0
  3 15  1  0
  5 16  1  0
  6 17  1  0
  6 18  1  0
  9 19  1  0
M  END
