
     RDKit          3D

 20 21  0  0  0  0  0  0  0  0999 V2000
    1.9547   -0.5334    0.6063 C   0  0  0  0  0  0  0  0  0  0  0  0
    0.9260   -0.2182   -0.4859 C   0  0  0  0  0  0  0  0  0  0  0  0
    0.7314    1.2359   -0.5928 C   0  0  0  0  0  0  0  0  0  0  0  0
   -0.3512    1.7978   -0.0497 O   0  0  0  0  0  0  0  0  0  0  0  0
   -1.2179    1.1205    0.6923 C   0  0  0  0  0  0  0  0  0  0  0  0
   -1.3166   -0.3459    0.5418 C   0  0  0  0  0  0  0  0  0  0  0  0
   -1.5727   -0.8293   -0.8901 C   0  0  0  0  0  0  0  0  0  0  0  0
   -0.2861   -1.0298   -0.2103 C   0  0  0  0  0  0  0  0  0  0  0  0
    1.5729   -0.1397    1.5550 H   0  0  0  0  0  0  0  0  0  0  0  0
    2.9570   -0.1844    0.3309 H   0  0  0  0  0  0  0  0  0  0  0  0
    1.9762   -1.6571    0.6903 H   0  0  0  0  0  0  0  0  0  0  0  0
    1.3891   -0.6364   -1.4285 H   0  0  0  0  0  0  0  0  0  0  0  0
    1.6536    1.7424   -0.1770 H   0  0  0  0  0  0  0  0  0  0  0  0
    0.7614    1.5126   -1.6895 H   0  0  0  0  0  0  0  0  0  0  0  0
   -2.2561    1.5351    0.5128 H   0  0  0  0  0  0  0  0  0  0  0  0
   -1.0384    1.3422    1.7852 H   0  0  0  0  0  0  0  0  0  0  0  0
   -1.9049   -0.8563    1.3526 H   0  0  0  0  0  0  0  0  0  0  0  0
   -2.2627   -1.6828   -0.9667 H   0  0  0  0  0  0  0  0  0  0  0  0
   -1.6604   -0.0843   -1.6838 H   0  0  0  0  0  0  0  0  0  0  0  0
   -0.0555   -2.0889    0.1071 H   0  0  0  0  0  0  0  0  0  0  0  0
  1  2  1  0
  2  3  1  0
  3  4  1  0
  4  5  1  0
  5  6  1  0
  6  7  1  0
  7  8  1  0
  8  2  1  0
  8  6  1  0
  1  9  1  0
  1 10  1  0
  1 11  1  0
  2 12  1  0
  3 13  1  0
  3 14  1  0
  5 15  1  0
  5 16  1  0
  6 17  1  0
  7 18  1  0
  7 19  1  0
  8 20  1  0
M  END
