
     RDKit          3D

 23 23  0  0  0  0  0  0  0  0999 V2000
   -2.9154   -0.7618    0.6148 C   0  0  0  0  0  0  0  0  0  0  0  0
   -1.6985    0.0991    0.4979 C   0  0  0  0  0  0  0  0  0  0  0  0
   -1.6621    0.8692   -0.8252 C   0  0  0  0  0  0  0  0  0  0  0  0
   -0.2176    1.3099   -0.8039 C   0  0  0  0  0  0  0  0  0  0  0  0
    0.4870    0.4081   -0.1275 C   0  0  0  0  0  0  0  0  0  0  0  0
    1.9498    0.5055    0.1022 C   0  0  0  0  0  0  0  0  0  0  0  0
    2.6692   -0.6821   -0.4890 C   0  0  0  0  0  0  0  0  0  0  0  0
    4.0369   -0.5070   -0.2262 O   0  0  0  0  0  0  0  0  0  0  0  0
   -0.4196   -0.6923    0.3498 C   0  0  0  0  0  0  0  0  0  0  0  0
   -3.8179   -0.1694    0.4251 H   0  0  0  0  0  0  0  0  0  0  0  0
   -2.8751   -1.6278   -0.0491 H   0  0  0  0  0  0  0  0  0  0  0  0
   -2.9711   -1.1044    1.6696 H   0  0  0  0  0  0  0  0  0  0  0  0
   -1.5873    0.8089    1.3142 H   0  0  0  0  0  0  0  0  0  0  0  0
   -2.3526    1.7077   -0.8407 H   0  0  0  0  0  0  0  0  0  0  0  0
   -1.7553    0.1765   -1.6853 H   0  0  0  0  0  0  0  0  0  0  0  0
    0.1174    2.2239   -1.2832 H   0  0  0  0  0  0  0  0  0  0  0  0
    2.1877    0.5656    1.2004 H   0  0  0  0  0  0  0  0  0  0  0  0
    2.3478    1.4048   -0.4041 H   0  0  0  0  0  0  0  0  0  0  0  0
    2.3844   -1.6407   -0.0555 H   0  0  0  0  0  0  0  0  0  0  0  0
    2.5614   -0.6356   -1.6009 H   0  0  0  0  0  0  0  0  0  0  0  0
    4.2191    0.3222    0.2809 H   0  0  0  0  0  0  0  0  0  0  0  0
   -0.0775   -1.1488    1.2754 H   0  0  0  0  0  0  0  0  0  0  0  0
   -0.6108   -1.4314   -0.4755 H   0  0  0  0  0  0  0  0  0  0  0  0
  1  2  1  0
  2  3  1  0
  3  4  1  0
  4  5  2  0
  5  6  1  0
  6  7  1  0
  7  8  1  0
  5  9  1  0
  9  2  1  0
  1 10  1  0
  1 11  1  0
  1 12  1  0
  2 13  1  0
  3 14  1  0
  3 15  1  0
  4 16  1  0
  6 17  1  0
  6 18  1  0
  7 19  1  0
  7 20  1  0
  8 21  1  0
  9 22  1  0
  9 23  1  0
M  END
