
     RDKit          3D

 21 22  0  0  0  0  0  0  0  0999 V2000
   -1.8085   -1.2436    0.4767 C   0  0  0  0  0  0  0  0  0  0  0  0
   -1.3003    0.1538    0.3601 C   0  0  0  0  0  0  0  0  0  0  0  0
   -1.1465    0.7224   -1.0010 C   0  0  0  0  0  0  0  0  0  0  0  0
    0.1917    1.2895   -0.6976 C   0  0  0  0  0  0  0  0  0  0  0  0
    0.6344    1.6812    0.6527 C   0  0  0  0  0  0  0  0  0  0  0  0
    0.2257    0.2950    0.4980 C   0  0  0  0  0  0  0  0  0  0  0  0
    1.0744   -0.8800    0.2597 C   0  0  0  0  0  0  0  0  0  0  0  0
    2.5088   -0.7293    0.3950 C   0  0  0  0  0  0  0  0  0  0  0  0
    3.1661    0.2323    0.6840 O   0  0  0  0  0  0  0  0  0  0  0  0
   -2.8129   -1.2822   -0.0015 H   0  0  0  0  0  0  0  0  0  0  0  0
   -1.1850   -2.0011   -0.0130 H   0  0  0  0  0  0  0  0  0  0  0  0
   -1.9542   -1.4683    1.5513 H   0  0  0  0  0  0  0  0  0  0  0  0
   -1.8417    0.8293    1.0426 H   0  0  0  0  0  0  0  0  0  0  0  0
   -1.1789   -0.0175   -1.8479 H   0  0  0  0  0  0  0  0  0  0  0  0
   -1.8619    1.5451   -1.2737 H   0  0  0  0  0  0  0  0  0  0  0  0
    0.9487    1.1682   -1.4762 H   0  0  0  0  0  0  0  0  0  0  0  0
    1.6681    1.9973    0.7544 H   0  0  0  0  0  0  0  0  0  0  0  0
   -0.0552    2.3517    1.2490 H   0  0  0  0  0  0  0  0  0  0  0  0
    0.7552   -1.7435    0.9135 H   0  0  0  0  0  0  0  0  0  0  0  0
    0.8649   -1.2575   -0.7850 H   0  0  0  0  0  0  0  0  0  0  0  0
    3.1072   -1.6427    0.2032 H   0  0  0  0  0  0  0  0  0  0  0  0
  1  2  1  0
  2  3  1  0
  3  4  1  0
  4  5  1  0
  5  6  1  0
  6  7  1  0
  7  8  1  0
  8  9  2  0
  6  2  1  0
  6  4  1  0
  1 10  1  0
  1 11  1  0
  1 12  1  0
  2 13  1  0
  3 14  1  0
  3 15  1  0
  4 16  1  0
  5 17  1  0
  5 18  1  0
  7 19  1  0
  7 20  1  0
  8 21  1  0
M  END
