
     RDKit          3D

 21 23  0  0  0  0  0  0  0  0999 V2000
   -2.1456   -1.0218    0.4507 C   0  0  0  0  0  0  0  0  0  0  0  0
   -0.6618   -0.8107    0.4595 C   0  0  0  0  0  0  0  0  0  0  0  0
   -0.0048   -0.4780   -0.8119 C   0  0  0  0  0  0  0  0  0  0  0  0
    1.4304   -0.7987   -1.0919 C   0  0  0  0  0  0  0  0  0  0  0  0
    2.2616   -0.1872   -0.0097 C   0  0  0  0  0  0  0  0  0  0  0  0
    1.9630   -0.3955    1.3241 O   0  0  0  0  0  0  0  0  0  0  0  0
    1.3629    0.7192    0.7607 C   0  0  0  0  0  0  0  0  0  0  0  0
   -0.0442    0.5107    0.2778 C   0  0  0  0  0  0  0  0  0  0  0  0
   -0.8626    1.7660    0.1426 C   0  0  0  0  0  0  0  0  0  0  0  0
   -2.7355   -0.1078    0.5573 H   0  0  0  0  0  0  0  0  0  0  0  0
   -2.3869   -1.5694   -0.5025 H   0  0  0  0  0  0  0  0  0  0  0  0
   -2.4849   -1.7099    1.2737 H   0  0  0  0  0  0  0  0  0  0  0  0
   -0.1189   -1.5586    1.1045 H   0  0  0  0  0  0  0  0  0  0  0  0
   -0.6259   -0.2489   -1.6987 H   0  0  0  0  0  0  0  0  0  0  0  0
    1.5708   -1.8908   -1.1953 H   0  0  0  0  0  0  0  0  0  0  0  0
    1.7191   -0.3127   -2.0569 H   0  0  0  0  0  0  0  0  0  0  0  0
    3.3072    0.1148   -0.2520 H   0  0  0  0  0  0  0  0  0  0  0  0
    1.7585    1.7270    0.9444 H   0  0  0  0  0  0  0  0  0  0  0  0
   -0.4153    2.4972   -0.5773 H   0  0  0  0  0  0  0  0  0  0  0  0
   -1.8832    1.5607   -0.2504 H   0  0  0  0  0  0  0  0  0  0  0  0
   -1.0039    2.1946    1.1514 H   0  0  0  0  0  0  0  0  0  0  0  0
  1  2  1  0
  2  3  1  0
  3  4  1  0
  4  5  1  0
  5  6  1  0
  6  7  1  0
  7  8  1  0
  8  9  1  0
  8  2  1  0
  8  3  1  0
  7  5  1  0
  1 10  1  0
  1 11  1  0
  1 12  1  0
  2 13  1  0
  3 14  1  0
  4 15  1  0
  4 16  1  0
  5 17  1  0
  7 18  1  0
  9 19  1  0
  9 20  1  0
  9 21  1  0
M  END
