
     RDKit          3D

 21 21  0  0  0  0  0  0  0  0999 V2000
   -0.5148   -1.7115   -0.2748 C   0  0  0  0  0  0  0  0  0  0  0  0
   -0.4324   -0.5354    0.6466 C   0  0  0  0  0  0  0  0  0  0  0  0
    0.7727    0.2553    0.2408 C   0  0  0  0  0  0  0  0  0  0  0  0
    2.1095   -0.4188    0.1630 C   0  0  0  0  0  0  0  0  0  0  0  0
    3.1148    0.4399   -0.2232 O   0  0  0  0  0  0  0  0  0  0  0  0
    0.4554    1.5075   -0.0027 C   0  0  0  0  0  0  0  0  0  0  0  0
   -1.0054    1.7486    0.2014 C   0  0  0  0  0  0  0  0  0  0  0  0
   -1.5749    0.4034    0.5755 C   0  0  0  0  0  0  0  0  0  0  0  0
   -2.4997   -0.0249   -0.3529 O   0  0  0  0  0  0  0  0  0  0  0  0
   -1.4863   -2.2386   -0.2187 H   0  0  0  0  0  0  0  0  0  0  0  0
   -0.2641   -1.4933   -1.3197 H   0  0  0  0  0  0  0  0  0  0  0  0
    0.2498   -2.4593    0.0802 H   0  0  0  0  0  0  0  0  0  0  0  0
   -0.2583   -0.8798    1.6939 H   0  0  0  0  0  0  0  0  0  0  0  0
    2.3892   -0.8647    1.1411 H   0  0  0  0  0  0  0  0  0  0  0  0
    1.9780   -1.2705   -0.5352 H   0  0  0  0  0  0  0  0  0  0  0  0
    3.8202    0.5143    0.4674 H   0  0  0  0  0  0  0  0  0  0  0  0
    1.1468    2.2808   -0.3121 H   0  0  0  0  0  0  0  0  0  0  0  0
   -1.4687    2.0897   -0.7479 H   0  0  0  0  0  0  0  0  0  0  0  0
   -1.1773    2.5155    0.9915 H   0  0  0  0  0  0  0  0  0  0  0  0
   -2.0784    0.5337    1.5781 H   0  0  0  0  0  0  0  0  0  0  0  0
   -3.2763   -0.3919    0.1057 H   0  0  0  0  0  0  0  0  0  0  0  0
  1  2  1  0
  2  3  1  0
  3  4  1  0
  4  5  1  0
  3  6  2  0
  6  7  1  0
  7  8  1  0
  8  9  1  0
  8  2  1  0
  1 10  1  0
  1 11  1  0
  1 12  1  0
  2 13  1  0
  4 14  1  0
  4 15  1  0
  5 16  1  0
  6 17  1  0
  7 18  1  0
  7 19  1  0
  8 20  1  0
  9 21  1  0
M  END
