
     RDKit          3D

 21 22  0  0  0  0  0  0  0  0999 V2000
    2.6024   -0.5522   -0.0622 C   0  0  0  0  0  0  0  0  0  0  0  0
    1.2381    0.0362   -0.2432 C   0  0  0  0  0  0  0  0  0  0  0  0
    0.1860   -1.0563    0.0071 C   0  0  0  0  0  0  0  0  0  0  0  0
   -1.1052   -0.4529   -0.4916 C   0  0  0  0  0  0  0  0  0  0  0  0
   -2.2497   -0.7368    0.4233 C   0  0  0  0  0  0  0  0  0  0  0  0
   -2.2806    0.6330    0.7379 O   0  0  0  0  0  0  0  0  0  0  0  0
   -1.2754    0.9761   -0.1828 C   0  0  0  0  0  0  0  0  0  0  0  0
   -0.1190    1.7167    0.3354 C   0  0  0  0  0  0  0  0  0  0  0  0
    0.9517    0.9843    0.7594 O   0  0  0  0  0  0  0  0  0  0  0  0
    3.3392    0.2754   -0.1799 H   0  0  0  0  0  0  0  0  0  0  0  0
    2.7383   -1.3715   -0.7733 H   0  0  0  0  0  0  0  0  0  0  0  0
    2.6539   -0.9260    0.9990 H   0  0  0  0  0  0  0  0  0  0  0  0
    1.0556    0.4487   -1.2397 H   0  0  0  0  0  0  0  0  0  0  0  0
    0.0811   -1.2103    1.1208 H   0  0  0  0  0  0  0  0  0  0  0  0
    0.4759   -1.9651   -0.5145 H   0  0  0  0  0  0  0  0  0  0  0  0
   -1.2501   -0.7204   -1.5662 H   0  0  0  0  0  0  0  0  0  0  0  0
   -1.9967   -1.3076    1.3468 H   0  0  0  0  0  0  0  0  0  0  0  0
   -3.1185   -1.1084   -0.1369 H   0  0  0  0  0  0  0  0  0  0  0  0
   -1.7856    1.5081   -1.0391 H   0  0  0  0  0  0  0  0  0  0  0  0
   -0.3951    2.4194    1.1752 H   0  0  0  0  0  0  0  0  0  0  0  0
    0.2539    2.4095   -0.4755 H   0  0  0  0  0  0  0  0  0  0  0  0
  1  2  1  0
  2  3  1  0
  3  4  1  0
  4  5  1  0
  5  6  1  0
  6  7  1  0
  7  8  1  0
  8  9  1  0
  9  2  1  0
  7  4  1  0
  1 10  1  0
  1 11  1  0
  1 12  1  0
  2 13  1  0
  3 14  1  0
  3 15  1  0
  4 16  1  0
  5 17  1  0
  5 18  1  0
  7 19  1  0
  8 20  1  0
  8 21  1  0
M  END
