
     RDKit          3D

 21 22  0  0  0  0  0  0  0  0999 V2000
    2.4732   -0.4804   -0.6352 C   0  0  0  0  0  0  0  0  0  0  0  0
    1.0390   -0.0631   -0.6569 C   0  0  0  0  0  0  0  0  0  0  0  0
    0.5189    1.0621    0.1412 C   0  0  0  0  0  0  0  0  0  0  0  0
   -0.6915    1.8243   -0.2594 C   0  0  0  0  0  0  0  0  0  0  0  0
   -1.8350    1.3616    0.4315 O   0  0  0  0  0  0  0  0  0  0  0  0
   -2.0673    0.0794   -0.0044 C   0  0  0  0  0  0  0  0  0  0  0  0
   -1.0378   -0.8716    0.5363 C   0  0  0  0  0  0  0  0  0  0  0  0
   -0.9081   -1.9046   -0.4230 O   0  0  0  0  0  0  0  0  0  0  0  0
    0.3249   -0.2713    0.6804 C   0  0  0  0  0  0  0  0  0  0  0  0
    2.8310   -0.7581    0.3973 H   0  0  0  0  0  0  0  0  0  0  0  0
    3.1117    0.3217   -0.9964 H   0  0  0  0  0  0  0  0  0  0  0  0
    2.5821   -1.4159   -1.2303 H   0  0  0  0  0  0  0  0  0  0  0  0
    0.5049   -0.2934   -1.5880 H   0  0  0  0  0  0  0  0  0  0  0  0
    1.3179    1.6863    0.6395 H   0  0  0  0  0  0  0  0  0  0  0  0
   -0.6185    2.9126    0.0324 H   0  0  0  0  0  0  0  0  0  0  0  0
   -0.8599    1.7842   -1.3629 H   0  0  0  0  0  0  0  0  0  0  0  0
   -3.0629   -0.3181    0.2693 H   0  0  0  0  0  0  0  0  0  0  0  0
   -2.0135    0.0681   -1.1150 H   0  0  0  0  0  0  0  0  0  0  0  0
   -1.4224   -1.3014    1.4867 H   0  0  0  0  0  0  0  0  0  0  0  0
   -1.0873   -2.7832   -0.0537 H   0  0  0  0  0  0  0  0  0  0  0  0
    0.9004   -0.6391    1.5398 H   0  0  0  0  0  0  0  0  0  0  0  0
  1  2  1  0
  2  3  1  0
  3  4  1  0
  4  5  1  0
  5  6  1  0
  6  7  1  0
  7  8  1  0
  7  9  1  0
  9  2  1  0
  9  3  1  0
  1 10  1  0
  1 11  1  0
  1 12  1  0
  2 13  1  0
  3 14  1  0
  4 15  1  0
  4 16  1  0
  6 17  1  0
  6 18  1  0
  7 19  1  0
  8 20  1  0
  9 21  1  0
M  END
