
     RDKit          3D

 21 22  0  0  0  0  0  0  0  0999 V2000
    2.5436   -0.3457    0.0254 C   0  0  0  0  0  0  0  0  0  0  0  0
    1.1984    0.1000    0.4752 C   0  0  0  0  0  0  0  0  0  0  0  0
    0.5069    0.9997   -0.5666 C   0  0  0  0  0  0  0  0  0  0  0  0
   -0.8378    1.1528   -0.0013 C   0  0  0  0  0  0  0  0  0  0  0  0
   -1.7698    0.4802    0.8646 C   0  0  0  0  0  0  0  0  0  0  0  0
   -1.0447   -0.2542   -0.0012 C   0  0  0  0  0  0  0  0  0  0  0  0
   -1.6654   -0.8740   -1.2485 C   0  0  0  0  0  0  0  0  0  0  0  0
    0.1740   -0.9772    0.4707 C   0  0  0  0  0  0  0  0  0  0  0  0
    0.3144   -2.1196    0.7715 O   0  0  0  0  0  0  0  0  0  0  0  0
    2.9250    0.4225   -0.7049 H   0  0  0  0  0  0  0  0  0  0  0  0
    2.5590   -1.3293   -0.4651 H   0  0  0  0  0  0  0  0  0  0  0  0
    3.2404   -0.3110    0.9027 H   0  0  0  0  0  0  0  0  0  0  0  0
    1.1706    0.6487    1.4168 H   0  0  0  0  0  0  0  0  0  0  0  0
    0.5238    0.4670   -1.5663 H   0  0  0  0  0  0  0  0  0  0  0  0
    1.0968    1.8890   -0.6981 H   0  0  0  0  0  0  0  0  0  0  0  0
   -0.9730    2.1528    0.2871 H   0  0  0  0  0  0  0  0  0  0  0  0
   -1.6525    0.3517    1.9819 H   0  0  0  0  0  0  0  0  0  0  0  0
   -2.8633    0.6911    0.6466 H   0  0  0  0  0  0  0  0  0  0  0  0
   -2.2337   -1.7621   -0.9294 H   0  0  0  0  0  0  0  0  0  0  0  0
   -0.8713   -1.1884   -1.9538 H   0  0  0  0  0  0  0  0  0  0  0  0
   -2.3414   -0.1939   -1.7672 H   0  0  0  0  0  0  0  0  0  0  0  0
  1  2  1  0
  2  3  1  0
  3  4  1  0
  4  5  1  0
  5  6  1  0
  6  7  1  0
  6  8  1  0
  8  9  2  0
  8  2  1  0
  6  4  1  0
  1 10  1  0
  1 11  1  0
  1 12  1  0
  2 13  1  0
  3 14  1  0
  3 15  1  0
  4 16  1  0
  5 17  1  0
  5 18  1  0
  7 19  1  0
  7 20  1  0
  7 21  1  0
M  END
