
     RDKit          3D

 21 22  0  0  0  0  0  0  0  0999 V2000
   -2.3309   -0.1529    0.1059 C   0  0  0  0  0  0  0  0  0  0  0  0
   -0.9781    0.2520   -0.4561 C   0  0  0  0  0  0  0  0  0  0  0  0
   -0.6083    1.6631   -0.1148 C   0  0  0  0  0  0  0  0  0  0  0  0
    0.7009    1.6816    0.3038 O   0  0  0  0  0  0  0  0  0  0  0  0
    1.0763    0.4373    0.6991 C   0  0  0  0  0  0  0  0  0  0  0  0
    2.3425   -0.0710    0.0415 C   0  0  0  0  0  0  0  0  0  0  0  0
    1.9272   -0.7573   -1.1147 O   0  0  0  0  0  0  0  0  0  0  0  0
    0.7647   -1.4142   -0.7801 C   0  0  0  0  0  0  0  0  0  0  0  0
    0.0632   -0.5613    0.2481 C   0  0  0  0  0  0  0  0  0  0  0  0
   -2.3507   -1.2758    0.0496 H   0  0  0  0  0  0  0  0  0  0  0  0
   -2.3445    0.1776    1.1726 H   0  0  0  0  0  0  0  0  0  0  0  0
   -3.1272    0.2796   -0.5023 H   0  0  0  0  0  0  0  0  0  0  0  0
   -0.9829    0.1140   -1.5595 H   0  0  0  0  0  0  0  0  0  0  0  0
   -1.3197    2.1338    0.5932 H   0  0  0  0  0  0  0  0  0  0  0  0
   -0.6596    2.2860   -1.0480 H   0  0  0  0  0  0  0  0  0  0  0  0
    1.2526    0.4432    1.7948 H   0  0  0  0  0  0  0  0  0  0  0  0
    2.7369   -0.8724    0.7224 H   0  0  0  0  0  0  0  0  0  0  0  0
    3.0639    0.7115   -0.1787 H   0  0  0  0  0  0  0  0  0  0  0  0
    0.1498   -1.5103   -1.7154 H   0  0  0  0  0  0  0  0  0  0  0  0
    0.9237   -2.4442   -0.4228 H   0  0  0  0  0  0  0  0  0  0  0  0
   -0.2996   -1.1202    1.1169 H   0  0  0  0  0  0  0  0  0  0  0  0
  1  2  1  0
  2  3  1  0
  3  4  1  0
  4  5  1  0
  5  6  1  0
  6  7  1  0
  7  8  1  0
  8  9  1  0
  9  2  1  0
  9  5  1  0
  1 10  1  0
  1 11  1  0
  1 12  1  0
  2 13  1  0
  3 14  1  0
  3 15  1  0
  5 16  1  0
  6 17  1  0
  6 18  1  0
  8 19  1  0
  8 20  1  0
  9 21  1  0
M  END
