
     RDKit          3D

 27 27  0  0  0  0  0  0  0  0999 V2000
   -2.3045   -0.4778    0.3449 C   0  0  0  0  0  0  0  0  0  0  0  0
   -1.1974   -0.0733   -0.6067 C   0  0  0  0  0  0  0  0  0  0  0  0
   -0.6445   -1.3201   -1.2688 C   0  0  0  0  0  0  0  0  0  0  0  0
    0.8676   -1.2371   -1.0421 C   0  0  0  0  0  0  0  0  0  0  0  0
    0.8822   -0.5848    0.3240 C   0  0  0  0  0  0  0  0  0  0  0  0
    2.2596   -0.2228    0.7845 C   0  0  0  0  0  0  0  0  0  0  0  0
   -0.0311    0.5689    0.1232 C   0  0  0  0  0  0  0  0  0  0  0  0
   -0.4142    1.1593    1.4347 C   0  0  0  0  0  0  0  0  0  0  0  0
    0.5209    1.6478   -0.7613 C   0  0  0  0  0  0  0  0  0  0  0  0
   -2.1579   -0.1122    1.3663 H   0  0  0  0  0  0  0  0  0  0  0  0
   -2.3770   -1.6021    0.4318 H   0  0  0  0  0  0  0  0  0  0  0  0
   -3.2888   -0.1077   -0.0495 H   0  0  0  0  0  0  0  0  0  0  0  0
   -1.5839    0.5820   -1.4162 H   0  0  0  0  0  0  0  0  0  0  0  0
   -0.9749   -2.2217   -0.6903 H   0  0  0  0  0  0  0  0  0  0  0  0
   -0.8903   -1.3915   -2.3342 H   0  0  0  0  0  0  0  0  0  0  0  0
    1.3007   -0.5163   -1.7775 H   0  0  0  0  0  0  0  0  0  0  0  0
    1.3405   -2.2183   -1.0639 H   0  0  0  0  0  0  0  0  0  0  0  0
    0.4253   -1.2873    1.0284 H   0  0  0  0  0  0  0  0  0  0  0  0
    2.1884    0.2349    1.7714 H   0  0  0  0  0  0  0  0  0  0  0  0
    2.8229    0.3635    0.0445 H   0  0  0  0  0  0  0  0  0  0  0  0
    2.8223   -1.1805    0.9139 H   0  0  0  0  0  0  0  0  0  0  0  0
    0.3922    1.9000    1.7138 H   0  0  0  0  0  0  0  0  0  0  0  0
   -0.4108    0.4228    2.2735 H   0  0  0  0  0  0  0  0  0  0  0  0
   -1.3475    1.7602    1.4043 H   0  0  0  0  0  0  0  0  0  0  0  0
   -0.0047    2.6015   -0.4734 H   0  0  0  0  0  0  0  0  0  0  0  0
    0.2155    1.4779   -1.8304 H   0  0  0  0  0  0  0  0  0  0  0  0
    1.5894    1.8348   -0.6447 H   0  0  0  0  0  0  0  0  0  0  0  0
  1  2  1  0
  2  3  1  0
  3  4  1  0
  4  5  1  0
  5  6  1  0
  5  7  1  0
  7  8  1  0
  7  9  1  0
  7  2  1  0
  1 10  1  0
  1 11  1  0
  1 12  1  0
  2 13  1  0
  3 14  1  0
  3 15  1  0
  4 16  1  0
  4 17  1  0
  5 18  1  0
  6 19  1  0
  6 20  1  0
  6 21  1  0
  8 22  1  0
  8 23  1  0
  8 24  1  0
  9 25  1  0
  9 26  1  0
  9 27  1  0
M  END
