
     RDKit          3D

 16 16  0  0  0  0  0  0  0  0999 V2000
   -1.9574    0.6724   -0.0655 C   0  0  0  0  0  0  0  0  0  0  0  0
   -0.5527    0.3340    0.4354 C   0  0  0  0  0  0  0  0  0  0  0  0
   -0.1286   -0.9851   -0.1271 C   0  0  0  0  0  0  0  0  0  0  0  0
    1.3799   -1.1610   -0.1146 C   0  0  0  0  0  0  0  0  0  0  0  0
    2.0193   -0.0342   -0.6529 O   0  0  0  0  0  0  0  0  0  0  0  0
    1.6136    1.2140   -0.2110 C   0  0  0  0  0  0  0  0  0  0  0  0
    2.3873    2.1911   -0.0223 O   0  0  0  0  0  0  0  0  0  0  0  0
    0.2707    1.4084    0.0419 O   0  0  0  0  0  0  0  0  0  0  0  0
   -2.6157   -0.1984   -0.0803 H   0  0  0  0  0  0  0  0  0  0  0  0
   -2.3533    1.4189    0.6691 H   0  0  0  0  0  0  0  0  0  0  0  0
   -1.8161    1.1256   -1.0771 H   0  0  0  0  0  0  0  0  0  0  0  0
   -0.5208    0.3061    1.5508 H   0  0  0  0  0  0  0  0  0  0  0  0
   -0.5305   -1.7788    0.5645 H   0  0  0  0  0  0  0  0  0  0  0  0
   -0.5039   -1.1883   -1.1328 H   0  0  0  0  0  0  0  0  0  0  0  0
    1.6705   -1.2798    0.9502 H   0  0  0  0  0  0  0  0  0  0  0  0
    1.6378   -2.0450   -0.7282 H   0  0  0  0  0  0  0  0  0  0  0  0
  1  2  1  0
  2  3  1  0
  3  4  1  0
  4  5  1  0
  5  6  1  0
  6  7  2  0
  6  8  1  0
  8  2  1  0
  1  9  1  0
  1 10  1  0
  1 11  1  0
  2 12  1  0
  3 13  1  0
  3 14  1  0
  4 15  1  0
  4 16  1  0
M  END
