
     RDKit          3D

 21 22  0  0  0  0  0  0  0  0999 V2000
    2.3888   -0.2714    0.4095 C   0  0  0  0  0  0  0  0  0  0  0  0
    1.1191    0.1613   -0.2821 C   0  0  0  0  0  0  0  0  0  0  0  0
    0.4876    1.3304    0.3635 C   0  0  0  0  0  0  0  0  0  0  0  0
   -0.7957    1.5670    0.1613 C   0  0  0  0  0  0  0  0  0  0  0  0
   -1.7221    0.5034   -0.2444 C   0  0  0  0  0  0  0  0  0  0  0  0
   -1.8276   -0.4435    0.9273 C   0  0  0  0  0  0  0  0  0  0  0  0
   -0.6345   -1.0252    0.9990 C   0  0  0  0  0  0  0  0  0  0  0  0
    0.0811   -0.9501   -0.3074 C   0  0  0  0  0  0  0  0  0  0  0  0
   -1.0239   -0.4324   -1.2432 C   0  0  0  0  0  0  0  0  0  0  0  0
    2.7346   -1.1971   -0.1094 H   0  0  0  0  0  0  0  0  0  0  0  0
    3.1512    0.5017    0.2261 H   0  0  0  0  0  0  0  0  0  0  0  0
    2.1732   -0.4622    1.4625 H   0  0  0  0  0  0  0  0  0  0  0  0
    1.3479    0.4544   -1.3418 H   0  0  0  0  0  0  0  0  0  0  0  0
    1.1225    1.9574    0.9901 H   0  0  0  0  0  0  0  0  0  0  0  0
   -1.1610    2.5742    0.3019 H   0  0  0  0  0  0  0  0  0  0  0  0
   -2.6833    0.8513   -0.5952 H   0  0  0  0  0  0  0  0  0  0  0  0
   -2.7069   -0.5822    1.5443 H   0  0  0  0  0  0  0  0  0  0  0  0
   -0.2386   -1.4963    1.9075 H   0  0  0  0  0  0  0  0  0  0  0  0
    0.4761   -1.9048   -0.6424 H   0  0  0  0  0  0  0  0  0  0  0  0
   -0.5977    0.1168   -2.0897 H   0  0  0  0  0  0  0  0  0  0  0  0
   -1.6908   -1.2527   -1.5156 H   0  0  0  0  0  0  0  0  0  0  0  0
  1  2  1  0
  2  3  1  0
  3  4  2  0
  4  5  1  0
  5  6  1  0
  6  7  2  0
  7  8  1  0
  8  9  1  0
  8  2  1  0
  9  5  1  0
  1 10  1  0
  1 11  1  0
  1 12  1  0
  2 13  1  0
  3 14  1  0
  4 15  1  0
  5 16  1  0
  6 17  1  0
  7 18  1  0
  8 19  1  0
  9 20  1  0
  9 21  1  0
M  END
