
     RDKit          3D

 19 20  0  0  0  0  0  0  0  0999 V2000
   -1.2582    1.4463    0.3738 C   0  0  0  0  0  0  0  0  0  0  0  0
   -0.8412    0.2232   -0.3991 C   0  0  0  0  0  0  0  0  0  0  0  0
   -1.7394   -0.9862   -0.0936 C   0  0  0  0  0  0  0  0  0  0  0  0
   -0.5075   -1.8042   -0.2044 C   0  0  0  0  0  0  0  0  0  0  0  0
   -0.2012   -2.9219   -0.5368 O   0  0  0  0  0  0  0  0  0  0  0  0
    0.2319   -0.6164    0.2888 C   0  0  0  0  0  0  0  0  0  0  0  0
    1.6142   -0.4416   -0.2445 C   0  0  0  0  0  0  0  0  0  0  0  0
    2.2917    0.8163   -0.2405 C   0  0  0  0  0  0  0  0  0  0  0  0
    2.5830   -0.1821    0.8508 O   0  0  0  0  0  0  0  0  0  0  0  0
   -1.9015    2.0505   -0.3032 H   0  0  0  0  0  0  0  0  0  0  0  0
   -0.4160    2.0954    0.6656 H   0  0  0  0  0  0  0  0  0  0  0  0
   -1.8788    1.1852    1.2481 H   0  0  0  0  0  0  0  0  0  0  0  0
   -0.6301    0.3715   -1.4600 H   0  0  0  0  0  0  0  0  0  0  0  0
   -2.5150   -1.1724   -0.8399 H   0  0  0  0  0  0  0  0  0  0  0  0
   -2.1034   -0.8595    0.9668 H   0  0  0  0  0  0  0  0  0  0  0  0
    0.1245   -0.5709    1.4054 H   0  0  0  0  0  0  0  0  0  0  0  0
    1.9695   -1.2473   -0.9163 H   0  0  0  0  0  0  0  0  0  0  0  0
    1.9173    1.7192    0.2492 H   0  0  0  0  0  0  0  0  0  0  0  0
    3.2601    0.8951   -0.8101 H   0  0  0  0  0  0  0  0  0  0  0  0
  1  2  1  0
  2  3  1  0
  3  4  1  0
  4  5  2  0
  4  6  1  0
  6  7  1  0
  7  8  1  0
  8  9  1  0
  6  2  1  0
  9  7  1  0
  1 10  1  0
  1 11  1  0
  1 12  1  0
  2 13  1  0
  3 14  1  0
  3 15  1  0
  6 16  1  0
  7 17  1  0
  8 18  1  0
  8 19  1  0
M  END
