
     RDKit          3D

 20 20  0  0  0  0  0  0  0  0999 V2000
   -2.7092   -0.3688    0.3471 C   0  0  0  0  0  0  0  0  0  0  0  0
   -1.2859    0.1490    0.2243 C   0  0  0  0  0  0  0  0  0  0  0  0
   -0.6957   -0.1220   -1.1080 C   0  0  0  0  0  0  0  0  0  0  0  0
    0.5437   -0.6560   -1.1363 O   0  0  0  0  0  0  0  0  0  0  0  0
    1.3664   -0.4468   -0.0838 C   0  0  0  0  0  0  0  0  0  0  0  0
    2.6216    0.3329   -0.4562 C   0  0  0  0  0  0  0  0  0  0  0  0
    0.7389    0.2031    1.1135 C   0  0  0  0  0  0  0  0  0  0  0  0
   -0.5226   -0.4203    1.2710 O   0  0  0  0  0  0  0  0  0  0  0  0
   -2.8992   -0.5870    1.4290 H   0  0  0  0  0  0  0  0  0  0  0  0
   -2.7524   -1.3013   -0.2483 H   0  0  0  0  0  0  0  0  0  0  0  0
   -3.4505    0.3887    0.0324 H   0  0  0  0  0  0  0  0  0  0  0  0
   -1.2424    1.2570    0.4441 H   0  0  0  0  0  0  0  0  0  0  0  0
   -1.3889   -0.8205   -1.6660 H   0  0  0  0  0  0  0  0  0  0  0  0
   -0.7489    0.8304   -1.7140 H   0  0  0  0  0  0  0  0  0  0  0  0
    1.7405   -1.4549    0.2650 H   0  0  0  0  0  0  0  0  0  0  0  0
    2.8605    1.0834    0.3418 H   0  0  0  0  0  0  0  0  0  0  0  0
    3.5101   -0.3114   -0.5371 H   0  0  0  0  0  0  0  0  0  0  0  0
    2.3748    0.8682   -1.4014 H   0  0  0  0  0  0  0  0  0  0  0  0
    0.5693    1.2910    0.8810 H   0  0  0  0  0  0  0  0  0  0  0  0
    1.3697    0.0854    2.0019 H   0  0  0  0  0  0  0  0  0  0  0  0
  1  2  1  0
  2  3  1  0
  3  4  1  0
  4  5  1  0
  5  6  1  0
  5  7  1  0
  7  8  1  0
  8  2  1  0
  1  9  1  0
  1 10  1  0
  1 11  1  0
  2 12  1  0
  3 13  1  0
  3 14  1  0
  5 15  1  0
  6 16  1  0
  6 17  1  0
  6 18  1  0
  7 19  1  0
  7 20  1  0
M  END
