
     RDKit          3D

 23 24  0  0  0  0  0  0  0  0999 V2000
   -0.9332    1.8640   -0.0432 C   0  0  0  0  0  0  0  0  0  0  0  0
   -1.1892    0.4312   -0.4792 C   0  0  0  0  0  0  0  0  0  0  0  0
   -1.0887   -0.6564    0.5158 C   0  0  0  0  0  0  0  0  0  0  0  0
   -1.9561   -1.8841    0.4619 C   0  0  0  0  0  0  0  0  0  0  0  0
   -0.1196   -0.5296   -0.6758 C   0  0  0  0  0  0  0  0  0  0  0  0
    1.2795   -0.4623   -0.2837 C   0  0  0  0  0  0  0  0  0  0  0  0
    2.0909    0.6830   -0.8831 C   0  0  0  0  0  0  0  0  0  0  0  0
    2.0499    1.3616    0.3105 O   0  0  0  0  0  0  0  0  0  0  0  0
    1.7392    0.1465    0.9690 C   0  0  0  0  0  0  0  0  0  0  0  0
   -0.2729    2.3946   -0.7687 H   0  0  0  0  0  0  0  0  0  0  0  0
   -0.5527    1.9201    0.9995 H   0  0  0  0  0  0  0  0  0  0  0  0
   -1.8803    2.4439   -0.0403 H   0  0  0  0  0  0  0  0  0  0  0  0
   -2.0708    0.3632   -1.1502 H   0  0  0  0  0  0  0  0  0  0  0  0
   -0.7619   -0.3865    1.5151 H   0  0  0  0  0  0  0  0  0  0  0  0
   -2.7680   -1.8104   -0.2836 H   0  0  0  0  0  0  0  0  0  0  0  0
   -1.3073   -2.7289    0.1375 H   0  0  0  0  0  0  0  0  0  0  0  0
   -2.3490   -2.1503    1.4550 H   0  0  0  0  0  0  0  0  0  0  0  0
   -0.2790   -1.2600   -1.5294 H   0  0  0  0  0  0  0  0  0  0  0  0
    1.8227   -1.4097   -0.4863 H   0  0  0  0  0  0  0  0  0  0  0  0
    3.1418    0.4174   -1.1325 H   0  0  0  0  0  0  0  0  0  0  0  0
    1.5952    1.1530   -1.7461 H   0  0  0  0  0  0  0  0  0  0  0  0
    1.0902    0.3655    1.7996 H   0  0  0  0  0  0  0  0  0  0  0  0
    2.7191   -0.2657    1.3382 H   0  0  0  0  0  0  0  0  0  0  0  0
  1  2  1  0
  2  3  1  0
  3  4  1  0
  3  5  1  0
  5  6  1  0
  6  7  1  0
  7  8  1  0
  8  9  1  0
  5  2  1  0
  9  6  1  0
  1 10  1  0
  1 11  1  0
  1 12  1  0
  2 13  1  0
  3 14  1  0
  4 15  1  0
  4 16  1  0
  4 17  1  0
  5 18  1  0
  6 19  1  0
  7 20  1  0
  7 21  1  0
  9 22  1  0
  9 23  1  0
M  END
