
     RDKit          3D

 19 20  0  0  0  0  0  0  0  0999 V2000
   -2.1771   -0.0168    0.3254 C   0  0  0  0  0  0  0  0  0  0  0  0
   -0.6745    0.1164    0.5950 C   0  0  0  0  0  0  0  0  0  0  0  0
   -0.0330    1.1059   -0.3076 C   0  0  0  0  0  0  0  0  0  0  0  0
    1.3916    0.8970   -0.6504 C   0  0  0  0  0  0  0  0  0  0  0  0
    1.9007   -0.2832    0.0836 C   0  0  0  0  0  0  0  0  0  0  0  0
    2.2754   -1.4835   -0.2998 O   0  0  0  0  0  0  0  0  0  0  0  0
    0.9768   -1.3992   -0.4459 C   0  0  0  0  0  0  0  0  0  0  0  0
   -0.1375   -1.2773    0.4602 C   0  0  0  0  0  0  0  0  0  0  0  0
   -0.6610   -2.1462    1.0953 O   0  0  0  0  0  0  0  0  0  0  0  0
   -2.5787   -0.6118    1.1844 H   0  0  0  0  0  0  0  0  0  0  0  0
   -2.6847    0.9607    0.3423 H   0  0  0  0  0  0  0  0  0  0  0  0
   -2.3777   -0.6128   -0.5817 H   0  0  0  0  0  0  0  0  0  0  0  0
   -0.5824    0.3858    1.6682 H   0  0  0  0  0  0  0  0  0  0  0  0
   -0.6332    1.2122   -1.2346 H   0  0  0  0  0  0  0  0  0  0  0  0
   -0.1213    2.1138    0.1968 H   0  0  0  0  0  0  0  0  0  0  0  0
    1.4886    0.7066   -1.7374 H   0  0  0  0  0  0  0  0  0  0  0  0
    2.0263    1.7786   -0.3551 H   0  0  0  0  0  0  0  0  0  0  0  0
    1.9473   -0.1154    1.1876 H   0  0  0  0  0  0  0  0  0  0  0  0
    0.6545   -1.3306   -1.5263 H   0  0  0  0  0  0  0  0  0  0  0  0
  1  2  1  0
  2  3  1  0
  3  4  1  0
  4  5  1  0
  5  6  1  0
  6  7  1  0
  7  8  1  0
  8  9  2  0
  8  2  1  0
  7  5  1  0
  1 10  1  0
  1 11  1  0
  1 12  1  0
  2 13  1  0
  3 14  1  0
  3 15  1  0
  4 16  1  0
  4 17  1  0
  5 18  1  0
  7 19  1  0
M  END
