
     RDKit          3D

 23 23  0  0  0  0  0  0  0  0999 V2000
    2.9237    0.3432   -0.2530 C   0  0  0  0  0  0  0  0  0  0  0  0
    1.4361    0.2289   -0.3454 C   0  0  0  0  0  0  0  0  0  0  0  0
    0.9910   -1.2027   -0.3900 C   0  0  0  0  0  0  0  0  0  0  0  0
   -0.3244   -1.3939   -0.4097 C   0  0  0  0  0  0  0  0  0  0  0  0
   -1.1593   -0.1377   -0.3839 C   0  0  0  0  0  0  0  0  0  0  0  0
   -2.6031   -0.5777   -0.3191 C   0  0  0  0  0  0  0  0  0  0  0  0
   -3.4821    0.4799   -0.2899 O   0  0  0  0  0  0  0  0  0  0  0  0
   -0.7355    0.6141    0.8460 C   0  0  0  0  0  0  0  0  0  0  0  0
    0.7315    0.8764    0.8254 C   0  0  0  0  0  0  0  0  0  0  0  0
    3.1752    1.1423    0.4892 H   0  0  0  0  0  0  0  0  0  0  0  0
    3.3538    0.6856   -1.2248 H   0  0  0  0  0  0  0  0  0  0  0  0
    3.3921   -0.6342    0.0129 H   0  0  0  0  0  0  0  0  0  0  0  0
    1.0756    0.7104   -1.3007 H   0  0  0  0  0  0  0  0  0  0  0  0
    1.7080   -2.0323   -0.4052 H   0  0  0  0  0  0  0  0  0  0  0  0
   -0.7408   -2.3780   -0.4417 H   0  0  0  0  0  0  0  0  0  0  0  0
   -0.9486    0.4720   -1.2877 H   0  0  0  0  0  0  0  0  0  0  0  0
   -2.8140   -1.1815   -1.2051 H   0  0  0  0  0  0  0  0  0  0  0  0
   -2.7157   -1.2332    0.5649 H   0  0  0  0  0  0  0  0  0  0  0  0
   -3.1941    1.2409    0.2521 H   0  0  0  0  0  0  0  0  0  0  0  0
   -0.9544   -0.0483    1.7313 H   0  0  0  0  0  0  0  0  0  0  0  0
   -1.3069    1.5479    1.0041 H   0  0  0  0  0  0  0  0  0  0  0  0
    0.9611    1.9717    0.7785 H   0  0  0  0  0  0  0  0  0  0  0  0
    1.2307    0.5063    1.7518 H   0  0  0  0  0  0  0  0  0  0  0  0
  1  2  1  0
  2  3  1  0
  3  4  2  0
  4  5  1  0
  5  6  1  0
  6  7  1  0
  5  8  1  0
  8  9  1  0
  9  2  1  0
  1 10  1  0
  1 11  1  0
  1 12  1  0
  2 13  1  0
  3 14  1  0
  4 15  1  0
  5 16  1  0
  6 17  1  0
  6 18  1  0
  7 19  1  0
  8 20  1  0
  8 21  1  0
  9 22  1  0
  9 23  1  0
M  END
