
     RDKit          3D

 23 23  0  0  0  0  0  0  0  0999 V2000
    0.3390    2.0965    0.3935 C   0  0  0  0  0  0  0  0  0  0  0  0
   -0.0111    0.9232   -0.5180 C   0  0  0  0  0  0  0  0  0  0  0  0
   -1.4912    0.6790   -0.5829 C   0  0  0  0  0  0  0  0  0  0  0  0
   -1.7200   -0.7840   -0.3342 C   0  0  0  0  0  0  0  0  0  0  0  0
   -0.4894   -1.2747    0.3743 C   0  0  0  0  0  0  0  0  0  0  0  0
   -0.7673   -1.2691    1.7426 O   0  0  0  0  0  0  0  0  0  0  0  0
    0.6194   -0.3090    0.0860 C   0  0  0  0  0  0  0  0  0  0  0  0
    1.6338   -0.8308   -0.8926 C   0  0  0  0  0  0  0  0  0  0  0  0
    1.2914   -0.0226    1.2821 O   0  0  0  0  0  0  0  0  0  0  0  0
    1.4309    1.9570    0.6343 H   0  0  0  0  0  0  0  0  0  0  0  0
   -0.2313    1.9520    1.3219 H   0  0  0  0  0  0  0  0  0  0  0  0
    0.1320    3.0284   -0.1359 H   0  0  0  0  0  0  0  0  0  0  0  0
    0.3561    1.1170   -1.5603 H   0  0  0  0  0  0  0  0  0  0  0  0
   -1.9946    1.2978    0.2049 H   0  0  0  0  0  0  0  0  0  0  0  0
   -1.8912    0.9221   -1.5771 H   0  0  0  0  0  0  0  0  0  0  0  0
   -2.6239   -0.8646    0.3262 H   0  0  0  0  0  0  0  0  0  0  0  0
   -1.9461   -1.3608   -1.2525 H   0  0  0  0  0  0  0  0  0  0  0  0
   -0.2675   -2.3133    0.0980 H   0  0  0  0  0  0  0  0  0  0  0  0
    0.0431   -1.4019    2.2978 H   0  0  0  0  0  0  0  0  0  0  0  0
    2.3929   -1.4291   -0.3551 H   0  0  0  0  0  0  0  0  0  0  0  0
    2.1790    0.0563   -1.3010 H   0  0  0  0  0  0  0  0  0  0  0  0
    1.1850   -1.3445   -1.7526 H   0  0  0  0  0  0  0  0  0  0  0  0
    1.8309   -0.8250    1.5008 H   0  0  0  0  0  0  0  0  0  0  0  0
  1  2  1  0
  2  3  1  0
  3  4  1  0
  4  5  1  0
  5  6  1  0
  5  7  1  0
  7  8  1  0
  7  9  1  0
  7  2  1  0
  1 10  1  0
  1 11  1  0
  1 12  1  0
  2 13  1  0
  3 14  1  0
  3 15  1  0
  4 16  1  0
  4 17  1  0
  5 18  1  0
  6 19  1  0
  8 20  1  0
  8 21  1  0
  8 22  1  0
  9 23  1  0
M  END
