
     RDKit          3D

 19 21  0  0  0  0  0  0  0  0999 V2000
   -2.2241   -0.3025    0.4672 C   0  0  0  0  0  0  0  0  0  0  0  0
   -1.2082    0.6096   -0.1420 C   0  0  0  0  0  0  0  0  0  0  0  0
   -0.1619    1.0331    0.8791 C   0  0  0  0  0  0  0  0  0  0  0  0
    0.9803    0.4628    0.6675 C   0  0  0  0  0  0  0  0  0  0  0  0
    2.3226   -0.1362    0.5069 C   0  0  0  0  0  0  0  0  0  0  0  0
    2.2997   -0.4682   -0.9048 O   0  0  0  0  0  0  0  0  0  0  0  0
    1.0791   -0.0462   -1.4168 C   0  0  0  0  0  0  0  0  0  0  0  0
    0.4160   -0.7479   -0.2199 C   0  0  0  0  0  0  0  0  0  0  0  0
   -0.3342   -0.1618   -1.1792 C   0  0  0  0  0  0  0  0  0  0  0  0
   -3.2256    0.0091    0.0957 H   0  0  0  0  0  0  0  0  0  0  0  0
   -2.1077   -1.3638    0.1027 H   0  0  0  0  0  0  0  0  0  0  0  0
   -2.2494   -0.2618    1.5738 H   0  0  0  0  0  0  0  0  0  0  0  0
   -1.6370    1.4908   -0.6299 H   0  0  0  0  0  0  0  0  0  0  0  0
   -0.3357    1.7293    1.6907 H   0  0  0  0  0  0  0  0  0  0  0  0
    2.3938   -1.0265    1.1183 H   0  0  0  0  0  0  0  0  0  0  0  0
    3.1455    0.5653    0.6928 H   0  0  0  0  0  0  0  0  0  0  0  0
    1.2529    1.0426   -1.5175 H   0  0  0  0  0  0  0  0  0  0  0  0
    0.6032   -1.7187    0.0853 H   0  0  0  0  0  0  0  0  0  0  0  0
   -1.0093   -0.7091   -1.8700 H   0  0  0  0  0  0  0  0  0  0  0  0
  1  2  1  0
  2  3  1  0
  3  4  2  0
  4  5  1  0
  5  6  1  0
  6  7  1  0
  7  8  1  0
  8  9  1  0
  9  2  1  0
  8  4  1  0
  9  7  1  0
  1 10  1  0
  1 11  1  0
  1 12  1  0
  2 13  1  0
  3 14  1  0
  5 15  1  0
  5 16  1  0
  7 17  1  0
  8 18  1  0
  9 19  1  0
M  END
