
     RDKit          3D

 22 22  0  0  0  0  0  0  0  0999 V2000
    1.6887    1.3164    0.0890 C   0  0  0  0  0  0  0  0  0  0  0  0
    0.7825    0.2602   -0.4211 C   0  0  0  0  0  0  0  0  0  0  0  0
    0.9726   -1.0879    0.2458 C   0  0  0  0  0  0  0  0  0  0  0  0
   -0.1957   -1.8430   -0.4065 C   0  0  0  0  0  0  0  0  0  0  0  0
   -1.2963   -0.8175   -0.5697 C   0  0  0  0  0  0  0  0  0  0  0  0
   -0.6820    0.5144   -0.1304 C   0  0  0  0  0  0  0  0  0  0  0  0
   -0.9497    0.6923    1.3443 C   0  0  0  0  0  0  0  0  0  0  0  0
   -1.1046    1.5676   -0.8992 O   0  0  0  0  0  0  0  0  0  0  0  0
    2.1727    1.1168    1.0453 H   0  0  0  0  0  0  0  0  0  0  0  0
    1.1577    2.3138    0.0912 H   0  0  0  0  0  0  0  0  0  0  0  0
    2.5018    1.4575   -0.6837 H   0  0  0  0  0  0  0  0  0  0  0  0
    0.8553    0.0925   -1.5206 H   0  0  0  0  0  0  0  0  0  0  0  0
    1.9189   -1.5759   -0.0271 H   0  0  0  0  0  0  0  0  0  0  0  0
    0.8417   -0.9931    1.3301 H   0  0  0  0  0  0  0  0  0  0  0  0
   -0.4875   -2.7244    0.1574 H   0  0  0  0  0  0  0  0  0  0  0  0
    0.1707   -2.1407   -1.4058 H   0  0  0  0  0  0  0  0  0  0  0  0
   -2.1855   -1.0413    0.0359 H   0  0  0  0  0  0  0  0  0  0  0  0
   -1.5974   -0.6939   -1.6241 H   0  0  0  0  0  0  0  0  0  0  0  0
   -0.0205    0.8381    1.9316 H   0  0  0  0  0  0  0  0  0  0  0  0
   -1.5707   -0.1385    1.7423 H   0  0  0  0  0  0  0  0  0  0  0  0
   -1.5657    1.6194    1.4645 H   0  0  0  0  0  0  0  0  0  0  0  0
   -1.4071    1.2672   -1.7892 H   0  0  0  0  0  0  0  0  0  0  0  0
  1  2  1  0
  2  3  1  0
  3  4  1  0
  4  5  1  0
  5  6  1  0
  6  7  1  0
  6  8  1  0
  6  2  1  0
  1  9  1  0
  1 10  1  0
  1 11  1  0
  2 12  1  0
  3 13  1  0
  3 14  1  0
  4 15  1  0
  4 16  1  0
  5 17  1  0
  5 18  1  0
  7 19  1  0
  7 20  1  0
  7 21  1  0
  8 22  1  0
M  END
