
     RDKit          3D

 23 24  0  0  0  0  0  0  0  0999 V2000
    1.7909    1.3518   -0.8773 C   0  0  0  0  0  0  0  0  0  0  0  0
    1.4426    0.1106   -0.0828 C   0  0  0  0  0  0  0  0  0  0  0  0
    0.9787    0.3558    1.3702 C   0  0  0  0  0  0  0  0  0  0  0  0
    0.1250   -0.2037    0.3386 C   0  0  0  0  0  0  0  0  0  0  0  0
   -1.1754    0.2609   -0.0966 C   0  0  0  0  0  0  0  0  0  0  0  0
   -1.7452    1.5247    0.4726 C   0  0  0  0  0  0  0  0  0  0  0  0
   -1.7512   -0.8643    0.5421 O   0  0  0  0  0  0  0  0  0  0  0  0
   -0.5231   -1.5380    0.3858 C   0  0  0  0  0  0  0  0  0  0  0  0
   -0.4883   -2.3656   -0.8670 C   0  0  0  0  0  0  0  0  0  0  0  0
    1.4850    1.3016   -1.9262 H   0  0  0  0  0  0  0  0  0  0  0  0
    1.2415    2.2257   -0.4296 H   0  0  0  0  0  0  0  0  0  0  0  0
    2.8720    1.6036   -0.7410 H   0  0  0  0  0  0  0  0  0  0  0  0
    2.1802   -0.7263   -0.2300 H   0  0  0  0  0  0  0  0  0  0  0  0
    1.3484   -0.3700    2.1390 H   0  0  0  0  0  0  0  0  0  0  0  0
    0.9145    1.4370    1.6648 H   0  0  0  0  0  0  0  0  0  0  0  0
   -1.3545    0.1536   -1.1909 H   0  0  0  0  0  0  0  0  0  0  0  0
   -2.5701    1.8479   -0.2130 H   0  0  0  0  0  0  0  0  0  0  0  0
   -2.1894    1.3860    1.4826 H   0  0  0  0  0  0  0  0  0  0  0  0
   -0.9982    2.3529    0.5099 H   0  0  0  0  0  0  0  0  0  0  0  0
   -0.1949   -2.0939    1.2948 H   0  0  0  0  0  0  0  0  0  0  0  0
   -0.0275   -3.3692   -0.6743 H   0  0  0  0  0  0  0  0  0  0  0  0
   -1.5003   -2.5413   -1.2643 H   0  0  0  0  0  0  0  0  0  0  0  0
    0.1393   -1.8396   -1.6072 H   0  0  0  0  0  0  0  0  0  0  0  0
  1  2  1  0
  2  3  1  0
  3  4  1  0
  4  5  1  0
  5  6  1  0
  5  7  1  0
  7  8  1  0
  8  9  1  0
  4  2  1  0
  8  4  1  0
  1 10  1  0
  1 11  1  0
  1 12  1  0
  2 13  1  0
  3 14  1  0
  3 15  1  0
  5 16  1  0
  6 17  1  0
  6 18  1  0
  6 19  1  0
  8 20  1  0
  9 21  1  0
  9 22  1  0
  9 23  1  0
M  END
