
     RDKit          3D

 19 20  0  0  0  0  0  0  0  0999 V2000
   -2.0198    0.3173    0.0089 C   0  0  0  0  0  0  0  0  0  0  0  0
   -0.5589    0.5532    0.2373 C   0  0  0  0  0  0  0  0  0  0  0  0
    0.1921   -0.6295    0.7715 C   0  0  0  0  0  0  0  0  0  0  0  0
    0.0903   -1.1902    1.8851 O   0  0  0  0  0  0  0  0  0  0  0  0
    0.0014   -1.2421   -0.5947 C   0  0  0  0  0  0  0  0  0  0  0  0
    0.3536    0.1798   -0.8990 C   0  0  0  0  0  0  0  0  0  0  0  0
    0.4886    0.7419   -2.0074 O   0  0  0  0  0  0  0  0  0  0  0  0
    1.4298   -0.0084    0.1616 C   0  0  0  0  0  0  0  0  0  0  0  0
    1.8608    1.1541    0.7507 O   0  0  0  0  0  0  0  0  0  0  0  0
   -2.3061    0.4196   -1.0452 H   0  0  0  0  0  0  0  0  0  0  0  0
   -2.5950    1.1121    0.5602 H   0  0  0  0  0  0  0  0  0  0  0  0
   -2.3560   -0.6452    0.4636 H   0  0  0  0  0  0  0  0  0  0  0  0
   -0.3139    1.5349    0.6390 H   0  0  0  0  0  0  0  0  0  0  0  0
    0.8375   -1.0725    2.5177 H   0  0  0  0  0  0  0  0  0  0  0  0
    0.8010   -1.9649   -0.8164 H   0  0  0  0  0  0  0  0  0  0  0  0
   -1.0075   -1.5793   -0.8460 H   0  0  0  0  0  0  0  0  0  0  0  0
    0.1999    1.6868   -2.0423 H   0  0  0  0  0  0  0  0  0  0  0  0
    2.1832   -0.7722   -0.0773 H   0  0  0  0  0  0  0  0  0  0  0  0
    2.7189    1.4048    0.3327 H   0  0  0  0  0  0  0  0  0  0  0  0
  1  2  1  0
  2  3  1  0
  3  4  1  0
  3  5  1  0
  5  6  1  0
  6  7  1  0
  6  8  1  0
  8  9  1  0
  6  2  1  0
  8  3  1  0
  1 10  1  0
  1 11  1  0
  1 12  1  0
  2 13  1  0
  4 14  1  0
  5 15  1  0
  5 16  1  0
  7 17  1  0
  8 18  1  0
  9 19  1  0
M  END
