
     RDKit          3D

 21 22  0  0  0  0  0  0  0  0999 V2000
   -2.3571    0.1192   -0.0593 C   0  0  0  0  0  0  0  0  0  0  0  0
   -0.9165    0.1966    0.3841 C   0  0  0  0  0  0  0  0  0  0  0  0
   -0.4865   -1.0564    1.0579 C   0  0  0  0  0  0  0  0  0  0  0  0
    0.8737   -1.2687    1.0770 O   0  0  0  0  0  0  0  0  0  0  0  0
    1.4586   -1.2762   -0.1569 C   0  0  0  0  0  0  0  0  0  0  0  0
    1.1926   -0.0568   -0.9666 C   0  0  0  0  0  0  0  0  0  0  0  0
    1.2991    1.3041   -0.4215 C   0  0  0  0  0  0  0  0  0  0  0  0
    1.4422    1.5935    0.9046 O   0  0  0  0  0  0  0  0  0  0  0  0
   -0.0608    0.6362   -0.7500 C   0  0  0  0  0  0  0  0  0  0  0  0
   -3.0371    0.7270    0.5870 H   0  0  0  0  0  0  0  0  0  0  0  0
   -2.7363   -0.9040   -0.1010 H   0  0  0  0  0  0  0  0  0  0  0  0
   -2.4665    0.5605   -1.0823 H   0  0  0  0  0  0  0  0  0  0  0  0
   -0.8756    1.0203    1.1563 H   0  0  0  0  0  0  0  0  0  0  0  0
   -0.8156   -1.0089    2.1367 H   0  0  0  0  0  0  0  0  0  0  0  0
   -1.0639   -1.9112    0.6271 H   0  0  0  0  0  0  0  0  0  0  0  0
    2.5579   -1.3826   -0.0217 H   0  0  0  0  0  0  0  0  0  0  0  0
    1.1641   -2.1662   -0.7840 H   0  0  0  0  0  0  0  0  0  0  0  0
    1.5212   -0.1576   -2.0433 H   0  0  0  0  0  0  0  0  0  0  0  0
    1.5791    2.1485   -1.1151 H   0  0  0  0  0  0  0  0  0  0  0  0
    2.3322    1.8152    1.2125 H   0  0  0  0  0  0  0  0  0  0  0  0
   -0.6048    1.0675   -1.6416 H   0  0  0  0  0  0  0  0  0  0  0  0
  1  2  1  0
  2  3  1  0
  3  4  1  0
  4  5  1  0
  5  6  1  0
  6  7  1  0
  7  8  1  0
  7  9  1  0
  9  2  1  0
  9  6  1  0
  1 10  1  0
  1 11  1  0
  1 12  1  0
  2 13  1  0
  3 14  1  0
  3 15  1  0
  5 16  1  0
  5 17  1  0
  6 18  1  0
  7 19  1  0
  8 20  1  0
  9 21  1  0
M  END
