
     RDKit          3D

 21 22  0  0  0  0  0  0  0  0999 V2000
    1.9887   -0.8073    0.4909 C   0  0  0  0  0  0  0  0  0  0  0  0
    1.1758   -0.0096   -0.4792 C   0  0  0  0  0  0  0  0  0  0  0  0
   -0.0060   -0.5972   -1.1490 C   0  0  0  0  0  0  0  0  0  0  0  0
   -0.4606   -1.7922   -0.6523 O   0  0  0  0  0  0  0  0  0  0  0  0
   -1.5657   -1.4133    0.0992 C   0  0  0  0  0  0  0  0  0  0  0  0
   -0.9372   -0.3650    1.0075 C   0  0  0  0  0  0  0  0  0  0  0  0
   -0.1585    0.4300   -0.0079 C   0  0  0  0  0  0  0  0  0  0  0  0
   -0.6880    1.7933   -0.3800 C   0  0  0  0  0  0  0  0  0  0  0  0
    0.2054    2.7371    0.1238 O   0  0  0  0  0  0  0  0  0  0  0  0
    2.2925   -0.1058    1.3182 H   0  0  0  0  0  0  0  0  0  0  0  0
    2.9276   -1.1797    0.0434 H   0  0  0  0  0  0  0  0  0  0  0  0
    1.4313   -1.6374    0.9536 H   0  0  0  0  0  0  0  0  0  0  0  0
    1.7426    0.7305   -1.0561 H   0  0  0  0  0  0  0  0  0  0  0  0
   -0.3519   -0.2688   -2.1325 H   0  0  0  0  0  0  0  0  0  0  0  0
   -2.0282   -2.2355    0.6562 H   0  0  0  0  0  0  0  0  0  0  0  0
   -2.2822   -0.8829   -0.5778 H   0  0  0  0  0  0  0  0  0  0  0  0
   -0.2959   -0.8611    1.7556 H   0  0  0  0  0  0  0  0  0  0  0  0
   -1.7212    0.2725    1.4614 H   0  0  0  0  0  0  0  0  0  0  0  0
   -1.7006    1.8965    0.0620 H   0  0  0  0  0  0  0  0  0  0  0  0
   -0.6934    1.8906   -1.4905 H   0  0  0  0  0  0  0  0  0  0  0  0
    1.1256    2.4055   -0.0466 H   0  0  0  0  0  0  0  0  0  0  0  0
  1  2  1  0
  2  3  1  0
  3  4  1  0
  4  5  1  0
  5  6  1  0
  6  7  1  0
  7  8  1  0
  8  9  1  0
  7  2  1  0
  7  3  1  0
  1 10  1  0
  1 11  1  0
  1 12  1  0
  2 13  1  0
  3 14  1  0
  5 15  1  0
  5 16  1  0
  6 17  1  0
  6 18  1  0
  8 19  1  0
  8 20  1  0
  9 21  1  0
M  END
