
     RDKit          3D

 19 21  0  0  0  0  0  0  0  0999 V2000
    2.7291    0.0163    0.1829 C   0  0  0  0  0  0  0  0  0  0  0  0
    1.2963   -0.0871    0.5760 C   0  0  0  0  0  0  0  0  0  0  0  0
    0.3066    0.6548   -0.3312 C   0  0  0  0  0  0  0  0  0  0  0  0
    0.2857   -0.8025   -0.2171 C   0  0  0  0  0  0  0  0  0  0  0  0
   -1.1233   -0.7579    0.2843 C   0  0  0  0  0  0  0  0  0  0  0  0
   -1.4050   -1.2978    1.5205 O   0  0  0  0  0  0  0  0  0  0  0  0
   -2.1853   -0.0109   -0.4793 C   0  0  0  0  0  0  0  0  0  0  0  0
   -1.0951    0.7608    0.1320 C   0  0  0  0  0  0  0  0  0  0  0  0
   -1.3808    1.5458    1.2381 O   0  0  0  0  0  0  0  0  0  0  0  0
    3.2619    0.5790    0.9832 H   0  0  0  0  0  0  0  0  0  0  0  0
    2.8428    0.5843   -0.7762 H   0  0  0  0  0  0  0  0  0  0  0  0
    3.2077   -0.9737   -0.0149 H   0  0  0  0  0  0  0  0  0  0  0  0
    1.0413    0.0939    1.6598 H   0  0  0  0  0  0  0  0  0  0  0  0
    0.7000    1.1964   -1.1958 H   0  0  0  0  0  0  0  0  0  0  0  0
    0.5062   -1.4195   -1.0903 H   0  0  0  0  0  0  0  0  0  0  0  0
   -1.6618   -2.2510    1.3662 H   0  0  0  0  0  0  0  0  0  0  0  0
   -2.2182   -0.1270   -1.5751 H   0  0  0  0  0  0  0  0  0  0  0  0
   -3.1677   -0.0094    0.0487 H   0  0  0  0  0  0  0  0  0  0  0  0
   -1.9403    2.3056    0.8995 H   0  0  0  0  0  0  0  0  0  0  0  0
  1  2  1  0
  2  3  1  0
  3  4  1  0
  4  5  1  0
  5  6  1  0
  5  7  1  0
  7  8  1  0
  8  9  1  0
  4  2  1  0
  8  5  1  0
  8  3  1  0
  1 10  1  0
  1 11  1  0
  1 12  1  0
  2 13  1  0
  3 14  1  0
  4 15  1  0
  6 16  1  0
  7 17  1  0
  7 18  1  0
  9 19  1  0
M  END
