
     RDKit          3D

 19 20  0  0  0  0  0  0  0  0999 V2000
    2.2222   -0.2925    0.0084 C   0  0  0  0  0  0  0  0  0  0  0  0
    0.7983   -0.2830    0.4165 C   0  0  0  0  0  0  0  0  0  0  0  0
   -0.0636   -1.1947   -0.4092 C   0  0  0  0  0  0  0  0  0  0  0  0
    0.1428   -2.2843   -0.8537 O   0  0  0  0  0  0  0  0  0  0  0  0
   -1.3197   -0.3938   -0.5670 C   0  0  0  0  0  0  0  0  0  0  0  0
   -1.7554   -0.0237    0.8266 C   0  0  0  0  0  0  0  0  0  0  0  0
   -0.9455    1.0386    1.2361 O   0  0  0  0  0  0  0  0  0  0  0  0
    0.1246    1.0530    0.3326 C   0  0  0  0  0  0  0  0  0  0  0  0
   -0.6777    0.9429   -0.9794 C   0  0  0  0  0  0  0  0  0  0  0  0
    2.4960    0.3982   -0.7884 H   0  0  0  0  0  0  0  0  0  0  0  0
    2.8410   -0.0633    0.9266 H   0  0  0  0  0  0  0  0  0  0  0  0
    2.4996   -1.3605   -0.2318 H   0  0  0  0  0  0  0  0  0  0  0  0
    0.7256   -0.6881    1.4673 H   0  0  0  0  0  0  0  0  0  0  0  0
   -2.0445   -0.7707   -1.2317 H   0  0  0  0  0  0  0  0  0  0  0  0
   -2.7892    0.3102    0.8199 H   0  0  0  0  0  0  0  0  0  0  0  0
   -1.5560   -0.8622    1.5299 H   0  0  0  0  0  0  0  0  0  0  0  0
    0.7464    1.9154    0.3826 H   0  0  0  0  0  0  0  0  0  0  0  0
   -0.0281    0.8144   -1.8418 H   0  0  0  0  0  0  0  0  0  0  0  0
   -1.4169    1.7440   -1.0434 H   0  0  0  0  0  0  0  0  0  0  0  0
  1  2  1  0
  2  3  1  0
  3  4  2  0
  3  5  1  0
  5  6  1  0
  6  7  1  0
  7  8  1  0
  8  9  1  0
  8  2  1  0
  9  5  1  0
  1 10  1  0
  1 11  1  0
  1 12  1  0
  2 13  1  0
  5 14  1  0
  6 15  1  0
  6 16  1  0
  8 17  1  0
  9 18  1  0
  9 19  1  0
M  END
