
     RDKit          3D

 19 22  0  0  0  0  0  0  0  0999 V2000
   -2.2742   -0.1510    0.2275 C   0  0  0  0  0  0  0  0  0  0  0  0
   -0.9894    0.4446   -0.2415 C   0  0  0  0  0  0  0  0  0  0  0  0
    0.0966    0.5578    0.8419 C   0  0  0  0  0  0  0  0  0  0  0  0
    0.2345   -0.9546    0.6468 C   0  0  0  0  0  0  0  0  0  0  0  0
    1.5680   -1.1802    0.7607 O   0  0  0  0  0  0  0  0  0  0  0  0
    2.1803   -0.2039   -0.0135 C   0  0  0  0  0  0  0  0  0  0  0  0
    1.3764    0.9968    0.2047 C   0  0  0  0  0  0  0  0  0  0  0  0
    1.2879    0.1362   -1.1016 C   0  0  0  0  0  0  0  0  0  0  0  0
    0.0012   -0.5756   -0.8221 C   0  0  0  0  0  0  0  0  0  0  0  0
   -2.4183   -0.1506    1.3142 H   0  0  0  0  0  0  0  0  0  0  0  0
   -2.3234   -1.1976   -0.1642 H   0  0  0  0  0  0  0  0  0  0  0  0
   -3.1183    0.4141   -0.2546 H   0  0  0  0  0  0  0  0  0  0  0  0
   -1.0462    1.3144   -0.9011 H   0  0  0  0  0  0  0  0  0  0  0  0
   -0.1952    0.9123    1.7947 H   0  0  0  0  0  0  0  0  0  0  0  0
   -0.4914   -1.5762    1.1087 H   0  0  0  0  0  0  0  0  0  0  0  0
    3.2718   -0.0882   -0.0168 H   0  0  0  0  0  0  0  0  0  0  0  0
    1.6895    2.0141    0.1202 H   0  0  0  0  0  0  0  0  0  0  0  0
    1.5236    0.6060   -2.0319 H   0  0  0  0  0  0  0  0  0  0  0  0
   -0.3735   -1.3182   -1.4725 H   0  0  0  0  0  0  0  0  0  0  0  0
  1  2  1  0
  2  3  1  0
  3  4  1  0
  4  5  1  0
  5  6  1  0
  6  7  1  0
  7  8  1  0
  8  9  1  0
  9  2  1  0
  7  3  1  0
  9  4  1  0
  8  6  1  0
  1 10  1  0
  1 11  1  0
  1 12  1  0
  2 13  1  0
  3 14  1  0
  4 15  1  0
  6 16  1  0
  7 17  1  0
  8 18  1  0
  9 19  1  0
M  END
