
     RDKit          3D

 23 25  0  0  0  0  0  0  0  0999 V2000
    2.8084    0.1572    0.9143 C   0  0  0  0  0  0  0  0  0  0  0  0
    1.4179   -0.4246    0.6355 C   0  0  0  0  0  0  0  0  0  0  0  0
    1.0045   -0.3803   -0.7672 C   0  0  0  0  0  0  0  0  0  0  0  0
   -0.2603   -0.9836   -1.2755 C   0  0  0  0  0  0  0  0  0  0  0  0
   -1.1392    0.2718   -1.4231 C   0  0  0  0  0  0  0  0  0  0  0  0
   -1.0483    0.2442    0.1134 C   0  0  0  0  0  0  0  0  0  0  0  0
   -2.0850    0.9285    0.8604 C   0  0  0  0  0  0  0  0  0  0  0  0
   -1.1387   -1.2642   -0.0572 C   0  0  0  0  0  0  0  0  0  0  0  0
    0.3940    0.5752    0.3229 C   0  0  0  0  0  0  0  0  0  0  0  0
    2.9255    1.0775    0.3073 H   0  0  0  0  0  0  0  0  0  0  0  0
    3.5987   -0.5415    0.5635 H   0  0  0  0  0  0  0  0  0  0  0  0
    2.9026    0.3879    1.9916 H   0  0  0  0  0  0  0  0  0  0  0  0
    1.1748   -1.2946    1.2991 H   0  0  0  0  0  0  0  0  0  0  0  0
    1.6305    0.1206   -1.5061 H   0  0  0  0  0  0  0  0  0  0  0  0
   -0.2663   -1.6790   -2.0728 H   0  0  0  0  0  0  0  0  0  0  0  0
   -0.5538    1.0812   -1.8788 H   0  0  0  0  0  0  0  0  0  0  0  0
   -2.1397    0.0794   -1.8180 H   0  0  0  0  0  0  0  0  0  0  0  0
   -2.3522    0.3442    1.7766 H   0  0  0  0  0  0  0  0  0  0  0  0
   -2.9702    1.1597    0.2333 H   0  0  0  0  0  0  0  0  0  0  0  0
   -1.7003    1.9030    1.2345 H   0  0  0  0  0  0  0  0  0  0  0  0
   -2.1674   -1.5242   -0.3895 H   0  0  0  0  0  0  0  0  0  0  0  0
   -0.6938   -1.8698    0.7229 H   0  0  0  0  0  0  0  0  0  0  0  0
    0.6583    1.6313    0.2131 H   0  0  0  0  0  0  0  0  0  0  0  0
  1  2  1  0
  2  3  1  0
  3  4  1  0
  4  5  1  0
  5  6  1  0
  6  7  1  0
  6  8  1  0
  6  9  1  0
  9  2  1  0
  9  3  1  0
  8  4  1  0
  1 10  1  0
  1 11  1  0
  1 12  1  0
  2 13  1  0
  3 14  1  0
  4 15  1  0
  5 16  1  0
  5 17  1  0
  7 18  1  0
  7 19  1  0
  7 20  1  0
  8 21  1  0
  8 22  1  0
  9 23  1  0
M  END
