
     RDKit          3D

 23 23  0  0  0  0  0  0  0  0999 V2000
   -2.4479   -0.0256   -0.3685 C   0  0  0  0  0  0  0  0  0  0  0  0
   -1.1113   -0.5638   -0.0834 C   0  0  0  0  0  0  0  0  0  0  0  0
   -0.7886   -0.4128    1.4100 C   0  0  0  0  0  0  0  0  0  0  0  0
    0.5512   -0.8004    1.3970 O   0  0  0  0  0  0  0  0  0  0  0  0
    1.1083    0.0164    0.4128 C   0  0  0  0  0  0  0  0  0  0  0  0
    2.3705   -0.6436   -0.1497 C   0  0  0  0  0  0  0  0  0  0  0  0
    3.2539   -0.8021    0.9149 O   0  0  0  0  0  0  0  0  0  0  0  0
    0.0478    0.1068   -0.6922 C   0  0  0  0  0  0  0  0  0  0  0  0
   -0.1309    1.5656   -0.9957 C   0  0  0  0  0  0  0  0  0  0  0  0
   -3.1237   -0.8858   -0.6488 H   0  0  0  0  0  0  0  0  0  0  0  0
   -2.9347    0.4001    0.5568 H   0  0  0  0  0  0  0  0  0  0  0  0
   -2.5403    0.7067   -1.1617 H   0  0  0  0  0  0  0  0  0  0  0  0
   -1.0322   -1.6640   -0.2777 H   0  0  0  0  0  0  0  0  0  0  0  0
   -1.4430   -1.0836    1.9537 H   0  0  0  0  0  0  0  0  0  0  0  0
   -0.8154    0.6424    1.7257 H   0  0  0  0  0  0  0  0  0  0  0  0
    1.3255    0.9962    0.8553 H   0  0  0  0  0  0  0  0  0  0  0  0
    2.7564    0.0123   -0.9362 H   0  0  0  0  0  0  0  0  0  0  0  0
    2.0257   -1.6254   -0.5615 H   0  0  0  0  0  0  0  0  0  0  0  0
    2.8111   -1.4400    1.5448 H   0  0  0  0  0  0  0  0  0  0  0  0
    0.4377   -0.3844   -1.5853 H   0  0  0  0  0  0  0  0  0  0  0  0
   -0.9062    1.7795   -1.7450 H   0  0  0  0  0  0  0  0  0  0  0  0
    0.8389    1.9071   -1.4657 H   0  0  0  0  0  0  0  0  0  0  0  0
   -0.2528    2.1984   -0.0997 H   0  0  0  0  0  0  0  0  0  0  0  0
  1  2  1  0
  2  3  1  0
  3  4  1  0
  4  5  1  0
  5  6  1  0
  6  7  1  0
  5  8  1  0
  8  9  1  0
  8  2  1  0
  1 10  1  0
  1 11  1  0
  1 12  1  0
  2 13  1  0
  3 14  1  0
  3 15  1  0
  5 16  1  0
  6 17  1  0
  6 18  1  0
  7 19  1  0
  8 20  1  0
  9 21  1  0
  9 22  1  0
  9 23  1  0
M  END
