
     RDKit          3D

 21 23  0  0  0  0  0  0  0  0999 V2000
    2.4599   -0.3683    0.1706 C   0  0  0  0  0  0  0  0  0  0  0  0
    1.1604    0.3247    0.0739 C   0  0  0  0  0  0  0  0  0  0  0  0
    0.0342   -0.1529    0.9255 C   0  0  0  0  0  0  0  0  0  0  0  0
   -0.0624   -1.3443    0.0090 C   0  0  0  0  0  0  0  0  0  0  0  0
   -1.5195   -1.6495   -0.0480 C   0  0  0  0  0  0  0  0  0  0  0  0
   -2.0638   -0.4337   -0.0899 C   0  0  0  0  0  0  0  0  0  0  0  0
   -0.8897    0.4633   -0.0715 C   0  0  0  0  0  0  0  0  0  0  0  0
   -1.1385    1.8755   -0.1112 C   0  0  0  0  0  0  0  0  0  0  0  0
    0.1592   -0.1833   -0.9133 C   0  0  0  0  0  0  0  0  0  0  0  0
    2.9225   -0.5602   -0.8221 H   0  0  0  0  0  0  0  0  0  0  0  0
    2.4452   -1.3403    0.6948 H   0  0  0  0  0  0  0  0  0  0  0  0
    3.1727    0.2747    0.7291 H   0  0  0  0  0  0  0  0  0  0  0  0
    1.3141    1.4296    0.0226 H   0  0  0  0  0  0  0  0  0  0  0  0
   -0.0416   -0.1564    1.9249 H   0  0  0  0  0  0  0  0  0  0  0  0
    0.6394   -2.1281    0.0762 H   0  0  0  0  0  0  0  0  0  0  0  0
   -1.9777   -2.6302   -0.0522 H   0  0  0  0  0  0  0  0  0  0  0  0
   -3.0929   -0.1051   -0.1288 H   0  0  0  0  0  0  0  0  0  0  0  0
   -1.1079    2.2515   -1.1727 H   0  0  0  0  0  0  0  0  0  0  0  0
   -2.1739    2.1049    0.2353 H   0  0  0  0  0  0  0  0  0  0  0  0
   -0.4687    2.5306    0.4617 H   0  0  0  0  0  0  0  0  0  0  0  0
    0.2286   -0.2027   -1.9141 H   0  0  0  0  0  0  0  0  0  0  0  0
  1  2  1  0
  2  3  1  0
  3  4  1  0
  4  5  1  0
  5  6  2  0
  6  7  1  0
  7  8  1  0
  7  9  1  0
  9  2  1  0
  7  3  1  0
  9  4  1  0
  1 10  1  0
  1 11  1  0
  1 12  1  0
  2 13  1  0
  3 14  1  0
  4 15  1  0
  5 16  1  0
  6 17  1  0
  8 18  1  0
  8 19  1  0
  8 20  1  0
  9 21  1  0
M  END
