
     RDKit          3D

 23 24  0  0  0  0  0  0  0  0999 V2000
    2.2000   -1.0162    0.8307 C   0  0  0  0  0  0  0  0  0  0  0  0
    1.5430    0.0624   -0.0168 C   0  0  0  0  0  0  0  0  0  0  0  0
    0.5692   -0.6464   -0.9371 C   0  0  0  0  0  0  0  0  0  0  0  0
   -0.7139   -0.5505   -0.1438 C   0  0  0  0  0  0  0  0  0  0  0  0
   -1.9292   -0.9142   -0.9431 C   0  0  0  0  0  0  0  0  0  0  0  0
   -0.6757    0.8631    0.3059 C   0  0  0  0  0  0  0  0  0  0  0  0
   -1.6975    1.8039    0.3567 C   0  0  0  0  0  0  0  0  0  0  0  0
   -0.9462    1.7508   -0.8579 O   0  0  0  0  0  0  0  0  0  0  0  0
    0.7217    1.0112    0.8280 C   0  0  0  0  0  0  0  0  0  0  0  0
    2.7611   -0.5133    1.6315 H   0  0  0  0  0  0  0  0  0  0  0  0
    2.8702   -1.5876    0.1590 H   0  0  0  0  0  0  0  0  0  0  0  0
    1.4356   -1.7242    1.1906 H   0  0  0  0  0  0  0  0  0  0  0  0
    2.3359    0.5904   -0.5784 H   0  0  0  0  0  0  0  0  0  0  0  0
    0.8618   -1.6693   -1.1659 H   0  0  0  0  0  0  0  0  0  0  0  0
    0.5155   -0.0135   -1.8667 H   0  0  0  0  0  0  0  0  0  0  0  0
   -0.6374   -1.2394    0.7053 H   0  0  0  0  0  0  0  0  0  0  0  0
   -2.1607   -0.2234   -1.7616 H   0  0  0  0  0  0  0  0  0  0  0  0
   -1.7792   -1.9278   -1.3574 H   0  0  0  0  0  0  0  0  0  0  0  0
   -2.7781   -0.9883   -0.2262 H   0  0  0  0  0  0  0  0  0  0  0  0
   -2.7661    1.5123    0.2975 H   0  0  0  0  0  0  0  0  0  0  0  0
   -1.5534    2.7546    0.9059 H   0  0  0  0  0  0  0  0  0  0  0  0
    1.0987    2.0506    0.7740 H   0  0  0  0  0  0  0  0  0  0  0  0
    0.7246    0.6148    1.8697 H   0  0  0  0  0  0  0  0  0  0  0  0
  1  2  1  0
  2  3  1  0
  3  4  1  0
  4  5  1  0
  4  6  1  0
  6  7  1  0
  7  8  1  0
  6  9  1  0
  9  2  1  0
  8  6  1  0
  1 10  1  0
  1 11  1  0
  1 12  1  0
  2 13  1  0
  3 14  1  0
  3 15  1  0
  4 16  1  0
  5 17  1  0
  5 18  1  0
  5 19  1  0
  7 20  1  0
  7 21  1  0
  9 22  1  0
  9 23  1  0
M  END
