
     RDKit          3D

 21 21  0  0  0  0  0  0  0  0999 V2000
    2.5501   -0.8903   -0.0856 C   0  0  0  0  0  0  0  0  0  0  0  0
    1.6900    0.3081   -0.3456 C   0  0  0  0  0  0  0  0  0  0  0  0
    0.4747    0.0228   -1.2461 C   0  0  0  0  0  0  0  0  0  0  0  0
   -0.2007    1.0383   -0.3983 C   0  0  0  0  0  0  0  0  0  0  0  0
   -1.6575    0.9326   -0.1637 C   0  0  0  0  0  0  0  0  0  0  0  0
   -2.1309   -0.3045    0.4954 C   0  0  0  0  0  0  0  0  0  0  0  0
   -1.8626   -1.4760   -0.1670 O   0  0  0  0  0  0  0  0  0  0  0  0
    0.6973    0.6331    0.7053 C   0  0  0  0  0  0  0  0  0  0  0  0
    0.6442    0.5887    1.9044 O   0  0  0  0  0  0  0  0  0  0  0  0
    2.0790   -1.8516   -0.2932 H   0  0  0  0  0  0  0  0  0  0  0  0
    2.7989   -0.8740    1.0152 H   0  0  0  0  0  0  0  0  0  0  0  0
    3.5428   -0.8040   -0.5919 H   0  0  0  0  0  0  0  0  0  0  0  0
    2.2161    1.1988   -0.7777 H   0  0  0  0  0  0  0  0  0  0  0  0
    0.6074    0.3815   -2.2839 H   0  0  0  0  0  0  0  0  0  0  0  0
    0.2187   -1.0281   -1.1236 H   0  0  0  0  0  0  0  0  0  0  0  0
    0.0912    2.0676   -0.7345 H   0  0  0  0  0  0  0  0  0  0  0  0
   -2.0111    1.8030    0.4151 H   0  0  0  0  0  0  0  0  0  0  0  0
   -2.1732    1.0067   -1.1586 H   0  0  0  0  0  0  0  0  0  0  0  0
   -1.8011   -0.3693    1.5712 H   0  0  0  0  0  0  0  0  0  0  0  0
   -3.2551   -0.2323    0.5689 H   0  0  0  0  0  0  0  0  0  0  0  0
   -2.5180   -2.1511    0.1073 H   0  0  0  0  0  0  0  0  0  0  0  0
  1  2  1  0
  2  3  1  0
  3  4  1  0
  4  5  1  0
  5  6  1  0
  6  7  1  0
  4  8  1  0
  8  9  2  0
  8  2  1  0
  1 10  1  0
  1 11  1  0
  1 12  1  0
  2 13  1  0
  3 14  1  0
  3 15  1  0
  4 16  1  0
  5 17  1  0
  5 18  1  0
  6 19  1  0
  6 20  1  0
  7 21  1  0
M  END
