
     RDKit          3D

 25 25  0  0  0  0  0  0  0  0999 V2000
    2.5266   -0.2200   -0.2158 C   0  0  0  0  0  0  0  0  0  0  0  0
    1.1884    0.0089    0.4294 C   0  0  0  0  0  0  0  0  0  0  0  0
    0.6472   -1.3475    0.8604 C   0  0  0  0  0  0  0  0  0  0  0  0
   -0.7344   -1.4534    0.2812 C   0  0  0  0  0  0  0  0  0  0  0  0
   -1.1216   -0.0058    0.0264 C   0  0  0  0  0  0  0  0  0  0  0  0
   -2.2586    0.0123   -0.9292 C   0  0  0  0  0  0  0  0  0  0  0  0
   -1.4315    0.6431    1.2093 O   0  0  0  0  0  0  0  0  0  0  0  0
    0.1610    0.5601   -0.5210 C   0  0  0  0  0  0  0  0  0  0  0  0
    0.1278    2.0808   -0.3218 C   0  0  0  0  0  0  0  0  0  0  0  0
    3.2019   -0.6210    0.5691 H   0  0  0  0  0  0  0  0  0  0  0  0
    2.9913    0.7343   -0.5532 H   0  0  0  0  0  0  0  0  0  0  0  0
    2.5080   -0.9758   -1.0223 H   0  0  0  0  0  0  0  0  0  0  0  0
    1.3535    0.6619    1.3101 H   0  0  0  0  0  0  0  0  0  0  0  0
    0.6363   -1.4590    1.9610 H   0  0  0  0  0  0  0  0  0  0  0  0
    1.2527   -2.1840    0.4586 H   0  0  0  0  0  0  0  0  0  0  0  0
   -1.3910   -1.9132    1.0370 H   0  0  0  0  0  0  0  0  0  0  0  0
   -0.7412   -2.0133   -0.6731 H   0  0  0  0  0  0  0  0  0  0  0  0
   -2.2694   -0.9430   -1.5297 H   0  0  0  0  0  0  0  0  0  0  0  0
   -2.2961    0.8485   -1.6207 H   0  0  0  0  0  0  0  0  0  0  0  0
   -3.2081    0.0128   -0.3179 H   0  0  0  0  0  0  0  0  0  0  0  0
   -1.7964   -0.0595    1.8240 H   0  0  0  0  0  0  0  0  0  0  0  0
    0.3536    0.3148   -1.5674 H   0  0  0  0  0  0  0  0  0  0  0  0
    1.0145    2.5697   -0.7314 H   0  0  0  0  0  0  0  0  0  0  0  0
    0.0703    2.2210    0.7898 H   0  0  0  0  0  0  0  0  0  0  0  0
   -0.7851    2.5273   -0.7530 H   0  0  0  0  0  0  0  0  0  0  0  0
  1  2  1  0
  2  3  1  0
  3  4  1  0
  4  5  1  0
  5  6  1  0
  5  7  1  0
  5  8  1  0
  8  9  1  0
  8  2  1  0
  1 10  1  0
  1 11  1  0
  1 12  1  0
  2 13  1  0
  3 14  1  0
  3 15  1  0
  4 16  1  0
  4 17  1  0
  6 18  1  0
  6 19  1  0
  6 20  1  0
  7 21  1  0
  8 22  1  0
  9 23  1  0
  9 24  1  0
  9 25  1  0
M  END
