
     RDKit          3D

 21 24  0  0  0  0  0  0  0  0999 V2000
   -2.5403   -0.4090   -0.3575 C   0  0  0  0  0  0  0  0  0  0  0  0
   -1.4809    0.5360    0.0576 C   0  0  0  0  0  0  0  0  0  0  0  0
   -0.1593    0.4628   -0.6383 C   0  0  0  0  0  0  0  0  0  0  0  0
    0.0551   -0.8326    0.0767 C   0  0  0  0  0  0  0  0  0  0  0  0
    1.5305   -0.9257    0.3557 C   0  0  0  0  0  0  0  0  0  0  0  0
    2.4908   -0.0221   -0.3284 C   0  0  0  0  0  0  0  0  0  0  0  0
    1.7740    0.5485    0.8292 C   0  0  0  0  0  0  0  0  0  0  0  0
    0.4032    1.0941    0.6109 C   0  0  0  0  0  0  0  0  0  0  0  0
   -0.5418    0.0489    1.1276 C   0  0  0  0  0  0  0  0  0  0  0  0
   -2.2558   -1.1747   -1.0770 H   0  0  0  0  0  0  0  0  0  0  0  0
   -3.4393    0.1086   -0.7713 H   0  0  0  0  0  0  0  0  0  0  0  0
   -2.9187   -0.9288    0.5700 H   0  0  0  0  0  0  0  0  0  0  0  0
   -1.8160    1.5598    0.2893 H   0  0  0  0  0  0  0  0  0  0  0  0
    0.0623    0.6980   -1.5834 H   0  0  0  0  0  0  0  0  0  0  0  0
   -0.4722   -1.7104   -0.2428 H   0  0  0  0  0  0  0  0  0  0  0  0
    1.8506   -1.7112    1.0358 H   0  0  0  0  0  0  0  0  0  0  0  0
    2.2598    0.3467   -1.3441 H   0  0  0  0  0  0  0  0  0  0  0  0
    3.5597   -0.2655   -0.1576 H   0  0  0  0  0  0  0  0  0  0  0  0
    2.1989    0.6190    1.8310 H   0  0  0  0  0  0  0  0  0  0  0  0
    0.1975    2.1272    0.8022 H   0  0  0  0  0  0  0  0  0  0  0  0
   -0.7582   -0.1698    2.0767 H   0  0  0  0  0  0  0  0  0  0  0  0
  1  2  1  0
  2  3  1  0
  3  4  1  0
  4  5  1  0
  5  6  1  0
  6  7  1  0
  7  8  1  0
  8  9  1  0
  9  2  1  0
  8  3  1  0
  9  4  1  0
  7  5  1  0
  1 10  1  0
  1 11  1  0
  1 12  1  0
  2 13  1  0
  3 14  1  0
  4 15  1  0
  5 16  1  0
  6 17  1  0
  6 18  1  0
  7 19  1  0
  8 20  1  0
  9 21  1  0
M  END
