
     RDKit          3D

 18 19  0  0  0  0  0  0  0  0999 V2000
   -1.8990    1.3383   -0.6964 C   0  0  0  0  0  0  0  0  0  0  0  0
   -1.0702    0.1040   -0.7966 C   0  0  0  0  0  0  0  0  0  0  0  0
   -0.8109   -0.5955    0.5603 C   0  0  0  0  0  0  0  0  0  0  0  0
    0.3322   -1.1689   -0.2901 C   0  0  0  0  0  0  0  0  0  0  0  0
    1.5213   -0.5239   -0.7246 C   0  0  0  0  0  0  0  0  0  0  0  0
    2.6845   -0.4322    0.1846 C   0  0  0  0  0  0  0  0  0  0  0  0
    3.8074   -0.4993   -0.2265 O   0  0  0  0  0  0  0  0  0  0  0  0
    0.4162    0.3872   -0.6035 C   0  0  0  0  0  0  0  0  0  0  0  0
   -2.8989    1.1732   -1.1430 H   0  0  0  0  0  0  0  0  0  0  0  0
   -1.3373    2.1644   -1.1920 H   0  0  0  0  0  0  0  0  0  0  0  0
   -2.0562    1.5555    0.3842 H   0  0  0  0  0  0  0  0  0  0  0  0
   -1.2819   -0.5951   -1.6023 H   0  0  0  0  0  0  0  0  0  0  0  0
   -1.5727   -1.3217    0.8103 H   0  0  0  0  0  0  0  0  0  0  0  0
   -0.4959    0.1111    1.3340 H   0  0  0  0  0  0  0  0  0  0  0  0
   -0.1890   -1.7661   -1.1040 H   0  0  0  0  0  0  0  0  0  0  0  0
    1.8710   -0.6590   -1.7979 H   0  0  0  0  0  0  0  0  0  0  0  0
    2.4949   -0.3028    1.2321 H   0  0  0  0  0  0  0  0  0  0  0  0
    0.4846    1.0307    0.3298 H   0  0  0  0  0  0  0  0  0  0  0  0
  1  2  1  0
  2  3  1  0
  3  4  1  0
  4  5  1  0
  5  6  1  0
  6  7  2  0
  5  8  1  0
  8  2  1  0
  8  4  1  0
  1  9  1  0
  1 10  1  0
  1 11  1  0
  2 12  1  0
  3 13  1  0
  3 14  1  0
  4 15  1  0
  5 16  1  0
  6 17  1  0
  8 18  1  0
M  END
