
     RDKit          3D

 21 23  0  0  0  0  0  0  0  0999 V2000
    1.6834   -1.0976    0.6857 C   0  0  0  0  0  0  0  0  0  0  0  0
    1.3197    0.2706    0.2262 C   0  0  0  0  0  0  0  0  0  0  0  0
   -0.0249    0.7957    0.7586 C   0  0  0  0  0  0  0  0  0  0  0  0
   -0.0908    2.0841   -0.0529 C   0  0  0  0  0  0  0  0  0  0  0  0
    0.3014    1.5626   -1.3138 O   0  0  0  0  0  0  0  0  0  0  0  0
    0.4975    0.2217   -1.0776 C   0  0  0  0  0  0  0  0  0  0  0  0
   -0.6418   -0.1478   -0.1848 C   0  0  0  0  0  0  0  0  0  0  0  0
   -2.0211   -0.2539   -0.5637 C   0  0  0  0  0  0  0  0  0  0  0  0
   -1.1891   -1.4352    0.0425 C   0  0  0  0  0  0  0  0  0  0  0  0
    1.9110   -1.7058   -0.2398 H   0  0  0  0  0  0  0  0  0  0  0  0
    2.6651   -1.0995    1.2446 H   0  0  0  0  0  0  0  0  0  0  0  0
    0.9323   -1.6121    1.2847 H   0  0  0  0  0  0  0  0  0  0  0  0
    2.1199    1.0182    0.2207 H   0  0  0  0  0  0  0  0  0  0  0  0
   -0.1875    0.8110    1.7905 H   0  0  0  0  0  0  0  0  0  0  0  0
   -1.1219    2.4775   -0.1124 H   0  0  0  0  0  0  0  0  0  0  0  0
    0.6629    2.8051    0.2576 H   0  0  0  0  0  0  0  0  0  0  0  0
    0.8348   -0.4273   -1.8381 H   0  0  0  0  0  0  0  0  0  0  0  0
   -2.7963    0.1738    0.0872 H   0  0  0  0  0  0  0  0  0  0  0  0
   -2.2481   -0.3847   -1.6622 H   0  0  0  0  0  0  0  0  0  0  0  0
   -1.0572   -2.3101   -0.6179 H   0  0  0  0  0  0  0  0  0  0  0  0
   -1.5492   -1.7463    1.0650 H   0  0  0  0  0  0  0  0  0  0  0  0
  1  2  1  0
  2  3  1  0
  3  4  1  0
  4  5  1  0
  5  6  1  0
  6  7  1  0
  7  8  1  0
  8  9  1  0
  6  2  1  0
  9  7  1  0
  7  3  1  0
  1 10  1  0
  1 11  1  0
  1 12  1  0
  2 13  1  0
  3 14  1  0
  4 15  1  0
  4 16  1  0
  6 17  1  0
  8 18  1  0
  8 19  1  0
  9 20  1  0
  9 21  1  0
M  END
