
     RDKit          3D

 23 23  0  0  0  0  0  0  0  0999 V2000
    2.7924    0.7661   -0.2383 C   0  0  0  0  0  0  0  0  0  0  0  0
    1.7931   -0.3030    0.0705 C   0  0  0  0  0  0  0  0  0  0  0  0
    0.7336    0.0976    1.1075 C   0  0  0  0  0  0  0  0  0  0  0  0
   -0.1477   -0.8619    0.3333 C   0  0  0  0  0  0  0  0  0  0  0  0
   -1.6068   -0.5709    0.3509 C   0  0  0  0  0  0  0  0  0  0  0  0
   -2.2342   -1.5721   -0.4189 O   0  0  0  0  0  0  0  0  0  0  0  0
   -1.9828    0.7398   -0.2566 C   0  0  0  0  0  0  0  0  0  0  0  0
   -3.3875    0.8415   -0.2009 O   0  0  0  0  0  0  0  0  0  0  0  0
    0.6197   -0.3944   -0.8873 C   0  0  0  0  0  0  0  0  0  0  0  0
    3.1658    0.5809   -1.2670 H   0  0  0  0  0  0  0  0  0  0  0  0
    3.6456    0.6461    0.4420 H   0  0  0  0  0  0  0  0  0  0  0  0
    2.3308    1.7459   -0.1057 H   0  0  0  0  0  0  0  0  0  0  0  0
    2.1660   -1.2990    0.3059 H   0  0  0  0  0  0  0  0  0  0  0  0
    0.4956    1.1676    0.9552 H   0  0  0  0  0  0  0  0  0  0  0  0
    1.0159   -0.2166    2.1102 H   0  0  0  0  0  0  0  0  0  0  0  0
    0.1407   -1.9026    0.5626 H   0  0  0  0  0  0  0  0  0  0  0  0
   -2.0215   -0.6115    1.3688 H   0  0  0  0  0  0  0  0  0  0  0  0
   -1.5814   -2.0086   -1.0302 H   0  0  0  0  0  0  0  0  0  0  0  0
   -1.7120    0.8463   -1.3189 H   0  0  0  0  0  0  0  0  0  0  0  0
   -1.5957    1.5933    0.3478 H   0  0  0  0  0  0  0  0  0  0  0  0
   -3.6563    1.2469    0.6768 H   0  0  0  0  0  0  0  0  0  0  0  0
    0.3140    0.6145   -1.2272 H   0  0  0  0  0  0  0  0  0  0  0  0
    0.7127   -1.1457   -1.6804 H   0  0  0  0  0  0  0  0  0  0  0  0
  1  2  1  0
  2  3  1  0
  3  4  1  0
  4  5  1  0
  5  6  1  0
  5  7  1  0
  7  8  1  0
  4  9  1  0
  9  2  1  0
  1 10  1  0
  1 11  1  0
  1 12  1  0
  2 13  1  0
  3 14  1  0
  3 15  1  0
  4 16  1  0
  5 17  1  0
  6 18  1  0
  7 19  1  0
  7 20  1  0
  8 21  1  0
  9 22  1  0
  9 23  1  0
M  END
