
     RDKit          3D

 23 23  0  0  0  0  0  0  0  0999 V2000
   -2.4883    1.1409   -0.2545 C   0  0  0  0  0  0  0  0  0  0  0  0
   -1.4993    0.0657    0.0913 C   0  0  0  0  0  0  0  0  0  0  0  0
   -1.0481   -0.7592   -1.1012 C   0  0  0  0  0  0  0  0  0  0  0  0
    0.0465   -1.5936   -0.4311 C   0  0  0  0  0  0  0  0  0  0  0  0
    0.7397   -0.5571    0.4322 C   0  0  0  0  0  0  0  0  0  0  0  0
    2.0856   -0.2267   -0.2184 C   0  0  0  0  0  0  0  0  0  0  0  0
    2.8327    0.7812    0.5535 C   0  0  0  0  0  0  0  0  0  0  0  0
    2.2980    1.8499    0.7998 O   0  0  0  0  0  0  0  0  0  0  0  0
   -0.1347    0.6503    0.4969 C   0  0  0  0  0  0  0  0  0  0  0  0
   -1.9409    1.9736   -0.7372 H   0  0  0  0  0  0  0  0  0  0  0  0
   -2.9961    1.4337    0.6728 H   0  0  0  0  0  0  0  0  0  0  0  0
   -3.2301    0.7027   -0.9718 H   0  0  0  0  0  0  0  0  0  0  0  0
   -1.8229   -0.6284    0.8730 H   0  0  0  0  0  0  0  0  0  0  0  0
   -1.8501   -1.3980   -1.4943 H   0  0  0  0  0  0  0  0  0  0  0  0
   -0.6075   -0.1130   -1.8758 H   0  0  0  0  0  0  0  0  0  0  0  0
   -0.4326   -2.3510    0.1873 H   0  0  0  0  0  0  0  0  0  0  0  0
    0.7390   -2.0189   -1.1815 H   0  0  0  0  0  0  0  0  0  0  0  0
    0.9097   -0.9434    1.4507 H   0  0  0  0  0  0  0  0  0  0  0  0
    2.6874   -1.1605   -0.2933 H   0  0  0  0  0  0  0  0  0  0  0  0
    1.9081    0.0968   -1.2667 H   0  0  0  0  0  0  0  0  0  0  0  0
    3.8434    0.6029    0.9102 H   0  0  0  0  0  0  0  0  0  0  0  0
   -0.2057    1.0838    1.5142 H   0  0  0  0  0  0  0  0  0  0  0  0
    0.1663    1.3681   -0.2754 H   0  0  0  0  0  0  0  0  0  0  0  0
  1  2  1  0
  2  3  1  0
  3  4  1  0
  4  5  1  0
  5  6  1  0
  6  7  1  0
  7  8  2  0
  5  9  1  0
  9  2  1  0
  1 10  1  0
  1 11  1  0
  1 12  1  0
  2 13  1  0
  3 14  1  0
  3 15  1  0
  4 16  1  0
  4 17  1  0
  5 18  1  0
  6 19  1  0
  6 20  1  0
  7 21  1  0
  9 22  1  0
  9 23  1  0
M  END
