
     RDKit          3D

 23 24  0  0  0  0  0  0  0  0999 V2000
   -1.6793   -1.4642   -0.2324 C   0  0  0  0  0  0  0  0  0  0  0  0
   -0.4966   -0.7603    0.3455 C   0  0  0  0  0  0  0  0  0  0  0  0
   -0.5831    0.6898    0.5888 C   0  0  0  0  0  0  0  0  0  0  0  0
   -1.7547    1.4458    0.0855 C   0  0  0  0  0  0  0  0  0  0  0  0
    0.6212    0.8965   -0.3053 C   0  0  0  0  0  0  0  0  0  0  0  0
    1.9386    0.9533    0.4587 C   0  0  0  0  0  0  0  0  0  0  0  0
    2.7360    0.1222   -0.3328 O   0  0  0  0  0  0  0  0  0  0  0  0
    1.9423   -1.0487   -0.3431 C   0  0  0  0  0  0  0  0  0  0  0  0
    0.5774   -0.5543   -0.7156 C   0  0  0  0  0  0  0  0  0  0  0  0
   -1.3294   -2.4648   -0.6245 H   0  0  0  0  0  0  0  0  0  0  0  0
   -2.3839   -1.7005    0.6005 H   0  0  0  0  0  0  0  0  0  0  0  0
   -2.1472   -0.9615   -1.0775 H   0  0  0  0  0  0  0  0  0  0  0  0
   -0.0863   -1.3518    1.2018 H   0  0  0  0  0  0  0  0  0  0  0  0
   -0.3905    0.9380    1.6632 H   0  0  0  0  0  0  0  0  0  0  0  0
   -1.3977    2.4874   -0.1703 H   0  0  0  0  0  0  0  0  0  0  0  0
   -2.2149    1.0620   -0.8320 H   0  0  0  0  0  0  0  0  0  0  0  0
   -2.5030    1.5136    0.9184 H   0  0  0  0  0  0  0  0  0  0  0  0
    0.5096    1.6229   -1.1115 H   0  0  0  0  0  0  0  0  0  0  0  0
    2.2630    1.9945    0.4694 H   0  0  0  0  0  0  0  0  0  0  0  0
    1.8149    0.5458    1.4811 H   0  0  0  0  0  0  0  0  0  0  0  0
    2.3631   -1.7864   -1.0491 H   0  0  0  0  0  0  0  0  0  0  0  0
    1.9721   -1.4142    0.7155 H   0  0  0  0  0  0  0  0  0  0  0  0
    0.2284   -0.7652   -1.7341 H   0  0  0  0  0  0  0  0  0  0  0  0
  1  2  1  0
  2  3  1  0
  3  4  1  0
  3  5  1  0
  5  6  1  0
  6  7  1  0
  7  8  1  0
  8  9  1  0
  9  2  1  0
  9  5  1  0
  1 10  1  0
  1 11  1  0
  1 12  1  0
  2 13  1  0
  3 14  1  0
  4 15  1  0
  4 16  1  0
  4 17  1  0
  5 18  1  0
  6 19  1  0
  6 20  1  0
  8 21  1  0
  8 22  1  0
  9 23  1  0
M  END
