
     RDKit          3D

 19 20  0  0  0  0  0  0  0  0999 V2000
   -0.7772    1.7950    0.4280 C   0  0  0  0  0  0  0  0  0  0  0  0
   -0.5121    0.3392    0.5958 C   0  0  0  0  0  0  0  0  0  0  0  0
   -1.2432   -0.4882   -0.4142 C   0  0  0  0  0  0  0  0  0  0  0  0
   -0.8091   -1.9107   -0.0766 C   0  0  0  0  0  0  0  0  0  0  0  0
    0.6482   -1.6212   -0.0782 C   0  0  0  0  0  0  0  0  0  0  0  0
    1.5843   -2.3355    0.0303 O   0  0  0  0  0  0  0  0  0  0  0  0
    0.6297   -0.1555   -0.2567 C   0  0  0  0  0  0  0  0  0  0  0  0
    1.8662    0.5931   -0.3074 C   0  0  0  0  0  0  0  0  0  0  0  0
   -0.2724   -0.0355   -1.3415 O   0  0  0  0  0  0  0  0  0  0  0  0
   -0.6654    2.1206   -0.6081 H   0  0  0  0  0  0  0  0  0  0  0  0
   -1.8404    1.9969    0.7363 H   0  0  0  0  0  0  0  0  0  0  0  0
   -0.1601    2.3888    1.1450 H   0  0  0  0  0  0  0  0  0  0  0  0
   -0.5318   -0.0076    1.6333 H   0  0  0  0  0  0  0  0  0  0  0  0
   -2.2648   -0.3047   -0.6352 H   0  0  0  0  0  0  0  0  0  0  0  0
   -1.1113   -2.6309   -0.8424 H   0  0  0  0  0  0  0  0  0  0  0  0
   -1.1199   -2.1366    0.9420 H   0  0  0  0  0  0  0  0  0  0  0  0
    2.2329    0.6564   -1.3738 H   0  0  0  0  0  0  0  0  0  0  0  0
    1.7014    1.6154    0.1155 H   0  0  0  0  0  0  0  0  0  0  0  0
    2.6450    0.1212    0.3081 H   0  0  0  0  0  0  0  0  0  0  0  0
  1  2  1  0
  2  3  1  0
  3  4  1  0
  4  5  1  0
  5  6  2  0
  5  7  1  0
  7  8  1  0
  7  9  1  0
  7  2  1  0
  9  3  1  0
  1 10  1  0
  1 11  1  0
  1 12  1  0
  2 13  1  0
  3 14  1  0
  4 15  1  0
  4 16  1  0
  8 17  1  0
  8 18  1  0
  8 19  1  0
M  END
