
     RDKit          3D

 21 23  0  0  0  0  0  0  0  0999 V2000
    2.7967   -0.0221    0.5907 C   0  0  0  0  0  0  0  0  0  0  0  0
    1.4200    0.5625    0.3377 C   0  0  0  0  0  0  0  0  0  0  0  0
    0.8943    0.5147   -1.0563 C   0  0  0  0  0  0  0  0  0  0  0  0
   -0.1354    1.3046   -1.4716 O   0  0  0  0  0  0  0  0  0  0  0  0
   -1.3271    0.7849   -1.0192 C   0  0  0  0  0  0  0  0  0  0  0  0
   -1.6114    1.1158    0.4447 C   0  0  0  0  0  0  0  0  0  0  0  0
   -1.0550   -0.1807    0.0672 C   0  0  0  0  0  0  0  0  0  0  0  0
   -1.9493   -1.4044    0.2561 C   0  0  0  0  0  0  0  0  0  0  0  0
    0.4023   -0.4605   -0.0421 C   0  0  0  0  0  0  0  0  0  0  0  0
    2.6757   -0.9695    1.1919 H   0  0  0  0  0  0  0  0  0  0  0  0
    3.2316   -0.3671   -0.3806 H   0  0  0  0  0  0  0  0  0  0  0  0
    3.4502    0.6241    1.1685 H   0  0  0  0  0  0  0  0  0  0  0  0
    1.0328    1.3345    1.0524 H   0  0  0  0  0  0  0  0  0  0  0  0
    1.5917    0.1976   -1.8615 H   0  0  0  0  0  0  0  0  0  0  0  0
   -2.1496    0.5449   -1.6913 H   0  0  0  0  0  0  0  0  0  0  0  0
   -1.0176    1.9285    0.9193 H   0  0  0  0  0  0  0  0  0  0  0  0
   -2.6731    1.1359    0.7645 H   0  0  0  0  0  0  0  0  0  0  0  0
   -3.0031   -1.1923    0.0804 H   0  0  0  0  0  0  0  0  0  0  0  0
   -1.7358   -1.7516    1.3086 H   0  0  0  0  0  0  0  0  0  0  0  0
   -1.5284   -2.1907   -0.4168 H   0  0  0  0  0  0  0  0  0  0  0  0
    0.6903   -1.5092   -0.2428 H   0  0  0  0  0  0  0  0  0  0  0  0
  1  2  1  0
  2  3  1  0
  3  4  1  0
  4  5  1  0
  5  6  1  0
  6  7  1  0
  7  8  1  0
  7  9  1  0
  9  2  1  0
  9  3  1  0
  7  5  1  0
  1 10  1  0
  1 11  1  0
  1 12  1  0
  2 13  1  0
  3 14  1  0
  5 15  1  0
  6 16  1  0
  6 17  1  0
  8 18  1  0
  8 19  1  0
  8 20  1  0
  9 21  1  0
M  END
