
     RDKit          3D

 17 17  0  0  0  0  0  0  0  0999 V2000
   -1.6010   -0.0398   -0.5493 C   0  0  0  0  0  0  0  0  0  0  0  0
   -0.7378   -0.0957    0.6792 C   0  0  0  0  0  0  0  0  0  0  0  0
    0.0400   -1.3427    0.7619 C   0  0  0  0  0  0  0  0  0  0  0  0
   -0.1975   -2.4579    1.1676 O   0  0  0  0  0  0  0  0  0  0  0  0
    1.1866   -0.6264    0.1478 C   0  0  0  0  0  0  0  0  0  0  0  0
    1.2987   -0.7489   -1.2309 O   0  0  0  0  0  0  0  0  0  0  0  0
    0.5492    0.6597    0.6304 C   0  0  0  0  0  0  0  0  0  0  0  0
    0.6365    1.8089   -0.2604 C   0  0  0  0  0  0  0  0  0  0  0  0
    1.7202    2.1666   -0.6819 O   0  0  0  0  0  0  0  0  0  0  0  0
   -1.2240   -0.7012   -1.3679 H   0  0  0  0  0  0  0  0  0  0  0  0
   -2.5928   -0.4956   -0.2552 H   0  0  0  0  0  0  0  0  0  0  0  0
   -1.7468    0.9854   -0.8936 H   0  0  0  0  0  0  0  0  0  0  0  0
   -1.3274    0.1849    1.5697 H   0  0  0  0  0  0  0  0  0  0  0  0
    2.1660   -0.8087    0.6158 H   0  0  0  0  0  0  0  0  0  0  0  0
    1.1788   -1.7046   -1.4504 H   0  0  0  0  0  0  0  0  0  0  0  0
    0.9133    0.8761    1.6609 H   0  0  0  0  0  0  0  0  0  0  0  0
   -0.2621    2.3401   -0.5439 H   0  0  0  0  0  0  0  0  0  0  0  0
  1  2  1  0
  2  3  1  0
  3  4  2  0
  3  5  1  0
  5  6  1  0
  5  7  1  0
  7  8  1  0
  8  9  2  0
  7  2  1  0
  1 10  1  0
  1 11  1  0
  1 12  1  0
  2 13  1  0
  5 14  1  0
  6 15  1  0
  7 16  1  0
  8 17  1  0
M  END
