
     RDKit          3D

 19 21  0  0  0  0  0  0  0  0999 V2000
    2.0600    0.2016    0.2072 C   0  0  0  0  0  0  0  0  0  0  0  0
    0.7143   -0.0779    0.8527 C   0  0  0  0  0  0  0  0  0  0  0  0
   -0.2320    1.0746    0.4649 C   0  0  0  0  0  0  0  0  0  0  0  0
   -1.1826    0.3461   -0.4293 C   0  0  0  0  0  0  0  0  0  0  0  0
   -2.1588    1.0266   -1.0583 O   0  0  0  0  0  0  0  0  0  0  0  0
   -0.4247   -0.7081   -1.1727 C   0  0  0  0  0  0  0  0  0  0  0  0
   -1.5493   -1.5096   -1.0358 O   0  0  0  0  0  0  0  0  0  0  0  0
   -1.4626   -0.9478    0.2269 C   0  0  0  0  0  0  0  0  0  0  0  0
    0.0106   -1.2106    0.1570 C   0  0  0  0  0  0  0  0  0  0  0  0
    2.8384   -0.3931    0.7216 H   0  0  0  0  0  0  0  0  0  0  0  0
    2.3287    1.2657    0.2909 H   0  0  0  0  0  0  0  0  0  0  0  0
    2.0661   -0.0805   -0.8573 H   0  0  0  0  0  0  0  0  0  0  0  0
    0.7829   -0.1844    1.9358 H   0  0  0  0  0  0  0  0  0  0  0  0
   -0.7458    1.4422    1.3844 H   0  0  0  0  0  0  0  0  0  0  0  0
    0.2869    1.8554   -0.0933 H   0  0  0  0  0  0  0  0  0  0  0  0
   -1.7713    1.8327   -1.4850 H   0  0  0  0  0  0  0  0  0  0  0  0
    0.1304   -0.5860   -2.0045 H   0  0  0  0  0  0  0  0  0  0  0  0
   -2.0696   -1.1386    1.0133 H   0  0  0  0  0  0  0  0  0  0  0  0
    0.3784   -2.2083    0.2709 H   0  0  0  0  0  0  0  0  0  0  0  0
  1  2  1  0
  2  3  1  0
  3  4  1  0
  4  5  1  0
  4  6  1  0
  6  7  1  0
  7  8  1  0
  8  9  1  0
  9  2  1  0
  8  4  1  0
  9  6  1  0
  1 10  1  0
  1 11  1  0
  1 12  1  0
  2 13  1  0
  3 14  1  0
  3 15  1  0
  5 16  1  0
  6 17  1  0
  8 18  1  0
  9 19  1  0
M  END
