
     RDKit          3D

 19 20  0  0  0  0  0  0  0  0999 V2000
    2.3599    0.3216    0.2569 C   0  0  0  0  0  0  0  0  0  0  0  0
    1.2163   -0.3530   -0.4513 C   0  0  0  0  0  0  0  0  0  0  0  0
    0.2273   -0.8892    0.5877 C   0  0  0  0  0  0  0  0  0  0  0  0
   -0.7994    0.0006   -0.0145 C   0  0  0  0  0  0  0  0  0  0  0  0
   -1.8508    0.6848    0.6865 C   0  0  0  0  0  0  0  0  0  0  0  0
   -2.1509   -0.4536   -0.3283 C   0  0  0  0  0  0  0  0  0  0  0  0
    0.1482    0.5864   -0.9849 C   0  0  0  0  0  0  0  0  0  0  0  0
    2.0332    1.2564    0.7554 H   0  0  0  0  0  0  0  0  0  0  0  0
    2.7421   -0.3798    1.0420 H   0  0  0  0  0  0  0  0  0  0  0  0
    3.2044    0.4717   -0.4416 H   0  0  0  0  0  0  0  0  0  0  0  0
    1.5793   -1.1111   -1.1479 H   0  0  0  0  0  0  0  0  0  0  0  0
    0.5158   -0.7225    1.6296 H   0  0  0  0  0  0  0  0  0  0  0  0
   -0.0069   -1.9601    0.3633 H   0  0  0  0  0  0  0  0  0  0  0  0
   -2.2125    1.6783    0.3691 H   0  0  0  0  0  0  0  0  0  0  0  0
   -2.1099    0.4540    1.7414 H   0  0  0  0  0  0  0  0  0  0  0  0
   -2.4517   -1.4378    0.1300 H   0  0  0  0  0  0  0  0  0  0  0  0
   -2.6630   -0.1764   -1.2556 H   0  0  0  0  0  0  0  0  0  0  0  0
   -0.1722    0.3712   -2.0338 H   0  0  0  0  0  0  0  0  0  0  0  0
    0.3907    1.6584   -0.9042 H   0  0  0  0  0  0  0  0  0  0  0  0
  1  2  1  0
  2  3  1  0
  3  4  1  0
  4  5  1  0
  5  6  1  0
  4  7  1  0
  7  2  1  0
  6  4  1  0
  1  8  1  0
  1  9  1  0
  1 10  1  0
  2 11  1  0
  3 12  1  0
  3 13  1  0
  5 14  1  0
  5 15  1  0
  6 16  1  0
  6 17  1  0
  7 18  1  0
  7 19  1  0
M  END
