
     RDKit          3D

 21 22  0  0  0  0  0  0  0  0999 V2000
    1.8729   -0.9189    0.5253 C   0  0  0  0  0  0  0  0  0  0  0  0
    1.0019   -0.3101   -0.5757 C   0  0  0  0  0  0  0  0  0  0  0  0
    1.1084    1.1685   -0.5781 C   0  0  0  0  0  0  0  0  0  0  0  0
    0.1415    1.8517    0.3271 C   0  0  0  0  0  0  0  0  0  0  0  0
   -1.0788    1.3315    0.3849 C   0  0  0  0  0  0  0  0  0  0  0  0
   -1.4666    0.1455   -0.3975 C   0  0  0  0  0  0  0  0  0  0  0  0
   -2.0459   -0.9805    0.4334 C   0  0  0  0  0  0  0  0  0  0  0  0
   -0.7439   -1.2508    0.8571 O   0  0  0  0  0  0  0  0  0  0  0  0
   -0.3541   -0.8810   -0.4516 C   0  0  0  0  0  0  0  0  0  0  0  0
    2.7791   -0.3193    0.6489 H   0  0  0  0  0  0  0  0  0  0  0  0
    1.2451   -0.9314    1.4371 H   0  0  0  0  0  0  0  0  0  0  0  0
    2.0790   -1.9647    0.2199 H   0  0  0  0  0  0  0  0  0  0  0  0
    1.4569   -0.6929   -1.5359 H   0  0  0  0  0  0  0  0  0  0  0  0
    1.0203    1.6407   -1.5777 H   0  0  0  0  0  0  0  0  0  0  0  0
    2.1277    1.4415   -0.1914 H   0  0  0  0  0  0  0  0  0  0  0  0
    0.3977    2.7282    0.9170 H   0  0  0  0  0  0  0  0  0  0  0  0
   -1.8151    1.7935    1.0284 H   0  0  0  0  0  0  0  0  0  0  0  0
   -1.9838    0.3282   -1.3574 H   0  0  0  0  0  0  0  0  0  0  0  0
   -2.7405   -0.6627    1.2276 H   0  0  0  0  0  0  0  0  0  0  0  0
   -2.3945   -1.8161   -0.2073 H   0  0  0  0  0  0  0  0  0  0  0  0
   -0.6071   -1.7009   -1.1341 H   0  0  0  0  0  0  0  0  0  0  0  0
  1  2  1  0
  2  3  1  0
  3  4  1  0
  4  5  2  0
  5  6  1  0
  6  7  1  0
  7  8  1  0
  8  9  1  0
  9  2  1  0
  9  6  1  0
  1 10  1  0
  1 11  1  0
  1 12  1  0
  2 13  1  0
  3 14  1  0
  3 15  1  0
  4 16  1  0
  5 17  1  0
  6 18  1  0
  7 19  1  0
  7 20  1  0
  9 21  1  0
M  END
