
     RDKit          3D

 16 17  0  0  0  0  0  0  0  0999 V2000
    1.8526   -0.0806    0.6004 C   0  0  0  0  0  0  0  0  0  0  0  0
    0.8156    0.1380   -0.4459 C   0  0  0  0  0  0  0  0  0  0  0  0
   -0.0339   -1.0266   -0.9269 C   0  0  0  0  0  0  0  0  0  0  0  0
   -0.5841    0.0171   -0.1046 C   0  0  0  0  0  0  0  0  0  0  0  0
   -1.6500    0.9785   -0.4686 C   0  0  0  0  0  0  0  0  0  0  0  0
   -2.0444    0.8893    0.9133 O   0  0  0  0  0  0  0  0  0  0  0  0
   -1.1422   -0.1095    1.2184 C   0  0  0  0  0  0  0  0  0  0  0  0
   -0.9382   -0.8012    2.2332 O   0  0  0  0  0  0  0  0  0  0  0  0
    1.9500   -1.1150    0.9494 H   0  0  0  0  0  0  0  0  0  0  0  0
    2.8664    0.2083    0.2067 H   0  0  0  0  0  0  0  0  0  0  0  0
    1.6889    0.6053    1.4743 H   0  0  0  0  0  0  0  0  0  0  0  0
    1.0999    0.8608   -1.2513 H   0  0  0  0  0  0  0  0  0  0  0  0
   -0.2953   -1.0605   -2.0045 H   0  0  0  0  0  0  0  0  0  0  0  0
    0.2614   -2.0122   -0.5290 H   0  0  0  0  0  0  0  0  0  0  0  0
   -1.3642    1.9744   -0.7987 H   0  0  0  0  0  0  0  0  0  0  0  0
   -2.4826    0.5338   -1.0659 H   0  0  0  0  0  0  0  0  0  0  0  0
  1  2  1  0
  2  3  1  0
  3  4  1  0
  4  5  1  0
  5  6  1  0
  6  7  1  0
  7  8  2  0
  4  2  1  0
  7  4  1  0
  1  9  1  0
  1 10  1  0
  1 11  1  0
  2 12  1  0
  3 13  1  0
  3 14  1  0
  5 15  1  0
  5 16  1  0
M  END
