
     RDKit          3D

 21 22  0  0  0  0  0  0  0  0999 V2000
    2.1581   -0.4738   -0.4752 C   0  0  0  0  0  0  0  0  0  0  0  0
    1.2551    0.5500    0.1019 C   0  0  0  0  0  0  0  0  0  0  0  0
    0.3881    1.2521   -0.9489 C   0  0  0  0  0  0  0  0  0  0  0  0
   -0.9718    0.8578   -0.4302 C   0  0  0  0  0  0  0  0  0  0  0  0
   -0.8002    1.0185    1.0290 C   0  0  0  0  0  0  0  0  0  0  0  0
   -1.2039    1.6909    1.9316 O   0  0  0  0  0  0  0  0  0  0  0  0
    0.1650   -0.0964    0.9055 C   0  0  0  0  0  0  0  0  0  0  0  0
   -0.7827   -0.6194   -0.1694 C   0  0  0  0  0  0  0  0  0  0  0  0
   -1.9528   -1.3253    0.4301 C   0  0  0  0  0  0  0  0  0  0  0  0
    2.7080   -0.9281    0.3944 H   0  0  0  0  0  0  0  0  0  0  0  0
    1.6910   -1.3007   -1.0041 H   0  0  0  0  0  0  0  0  0  0  0  0
    2.9442   -0.0520   -1.1427 H   0  0  0  0  0  0  0  0  0  0  0  0
    1.8422    1.2839    0.6568 H   0  0  0  0  0  0  0  0  0  0  0  0
    0.5994    0.9178   -1.9598 H   0  0  0  0  0  0  0  0  0  0  0  0
    0.4513    2.3630   -0.8381 H   0  0  0  0  0  0  0  0  0  0  0  0
   -1.8487    1.1993   -0.9124 H   0  0  0  0  0  0  0  0  0  0  0  0
    0.3869   -0.7121    1.7334 H   0  0  0  0  0  0  0  0  0  0  0  0
   -0.3336   -1.1025   -1.0267 H   0  0  0  0  0  0  0  0  0  0  0  0
   -2.7562   -1.4132   -0.3479 H   0  0  0  0  0  0  0  0  0  0  0  0
   -2.3278   -0.7735    1.3197 H   0  0  0  0  0  0  0  0  0  0  0  0
   -1.6115   -2.3363    0.7528 H   0  0  0  0  0  0  0  0  0  0  0  0
  1  2  1  0
  2  3  1  0
  3  4  1  0
  4  5  1  0
  5  6  2  0
  5  7  1  0
  7  8  1  0
  8  9  1  0
  7  2  1  0
  8  4  1  0
  1 10  1  0
  1 11  1  0
  1 12  1  0
  2 13  1  0
  3 14  1  0
  3 15  1  0
  4 16  1  0
  7 17  1  0
  8 18  1  0
  9 19  1  0
  9 20  1  0
  9 21  1  0
M  END
