
     RDKit          3D

 21 22  0  0  0  0  0  0  0  0999 V2000
    2.2461   -0.3190    0.1133 C   0  0  0  0  0  0  0  0  0  0  0  0
    0.7623   -0.2142    0.1951 C   0  0  0  0  0  0  0  0  0  0  0  0
    0.0500   -1.3960   -0.4565 C   0  0  0  0  0  0  0  0  0  0  0  0
   -1.3357   -1.4525    0.1668 C   0  0  0  0  0  0  0  0  0  0  0  0
   -1.7366   -0.0493    0.4700 C   0  0  0  0  0  0  0  0  0  0  0  0
   -2.4715    0.1896    1.4110 O   0  0  0  0  0  0  0  0  0  0  0  0
   -1.2360    1.0494   -0.3794 C   0  0  0  0  0  0  0  0  0  0  0  0
   -0.3728    2.1160    0.2698 C   0  0  0  0  0  0  0  0  0  0  0  0
    0.2817    1.0215   -0.5214 C   0  0  0  0  0  0  0  0  0  0  0  0
    2.6670   -0.2285    1.1445 H   0  0  0  0  0  0  0  0  0  0  0  0
    2.5279   -1.2909   -0.3171 H   0  0  0  0  0  0  0  0  0  0  0  0
    2.6958    0.4956   -0.5157 H   0  0  0  0  0  0  0  0  0  0  0  0
    0.4127   -0.1714    1.2535 H   0  0  0  0  0  0  0  0  0  0  0  0
   -0.0150   -1.2361   -1.5524 H   0  0  0  0  0  0  0  0  0  0  0  0
    0.6352   -2.3045   -0.2249 H   0  0  0  0  0  0  0  0  0  0  0  0
   -1.2391   -2.0138    1.1173 H   0  0  0  0  0  0  0  0  0  0  0  0
   -2.0894   -1.8742   -0.5190 H   0  0  0  0  0  0  0  0  0  0  0  0
   -1.7533    1.2573   -1.3192 H   0  0  0  0  0  0  0  0  0  0  0  0
   -0.4669    3.0992   -0.2127 H   0  0  0  0  0  0  0  0  0  0  0  0
   -0.2897    2.0651    1.3870 H   0  0  0  0  0  0  0  0  0  0  0  0
    0.7273    1.2569   -1.5100 H   0  0  0  0  0  0  0  0  0  0  0  0
  1  2  1  0
  2  3  1  0
  3  4  1  0
  4  5  1  0
  5  6  2  0
  5  7  1  0
  7  8  1  0
  8  9  1  0
  9  2  1  0
  9  7  1  0
  1 10  1  0
  1 11  1  0
  1 12  1  0
  2 13  1  0
  3 14  1  0
  3 15  1  0
  4 16  1  0
  4 17  1  0
  7 18  1  0
  8 19  1  0
  8 20  1  0
  9 21  1  0
M  END
