
     RDKit          3D

 22 23  0  0  0  0  0  0  0  0999 V2000
    2.5815    0.3898    0.1851 C   0  0  0  0  0  0  0  0  0  0  0  0
    1.2756    0.0418   -0.4929 C   0  0  0  0  0  0  0  0  0  0  0  0
    0.7473   -1.3306   -0.2379 C   0  0  0  0  0  0  0  0  0  0  0  0
   -0.3592   -0.7967    0.6598 C   0  0  0  0  0  0  0  0  0  0  0  0
   -1.7451   -0.9066    0.0981 C   0  0  0  0  0  0  0  0  0  0  0  0
   -2.1868    0.5631    0.0668 C   0  0  0  0  0  0  0  0  0  0  0  0
   -0.9454    1.1942   -0.5500 C   0  0  0  0  0  0  0  0  0  0  0  0
    0.1353    0.5940    0.3417 C   0  0  0  0  0  0  0  0  0  0  0  0
    2.6358    1.5177    0.1673 H   0  0  0  0  0  0  0  0  0  0  0  0
    3.4607   -0.0171   -0.2951 H   0  0  0  0  0  0  0  0  0  0  0  0
    2.4606    0.1282    1.2568 H   0  0  0  0  0  0  0  0  0  0  0  0
    1.2243    0.3646   -1.5461 H   0  0  0  0  0  0  0  0  0  0  0  0
    1.5126   -1.9371    0.3049 H   0  0  0  0  0  0  0  0  0  0  0  0
    0.3499   -1.8357   -1.1612 H   0  0  0  0  0  0  0  0  0  0  0  0
   -0.2461   -1.1206    1.7102 H   0  0  0  0  0  0  0  0  0  0  0  0
   -1.7782   -1.2532   -0.9490 H   0  0  0  0  0  0  0  0  0  0  0  0
   -2.3971   -1.5142    0.7408 H   0  0  0  0  0  0  0  0  0  0  0  0
   -2.2740    0.9796    1.0864 H   0  0  0  0  0  0  0  0  0  0  0  0
   -3.0821    0.6914   -0.5322 H   0  0  0  0  0  0  0  0  0  0  0  0
   -0.8467    0.7665   -1.5570 H   0  0  0  0  0  0  0  0  0  0  0  0
   -0.9406    2.2790   -0.5000 H   0  0  0  0  0  0  0  0  0  0  0  0
    0.4178    1.2018    1.2035 H   0  0  0  0  0  0  0  0  0  0  0  0
  1  2  1  0
  2  3  1  0
  3  4  1  0
  4  5  1  0
  5  6  1  0
  6  7  1  0
  7  8  1  0
  8  2  1  0
  8  4  1  0
  1  9  1  0
  1 10  1  0
  1 11  1  0
  2 12  1  0
  3 13  1  0
  3 14  1  0
  4 15  1  0
  5 16  1  0
  5 17  1  0
  6 18  1  0
  6 19  1  0
  7 20  1  0
  7 21  1  0
  8 22  1  0
M  END
