
     RDKit          3D

 19 19  0  0  0  0  0  0  0  0999 V2000
   -1.0268   -1.4803   -0.3629 C   0  0  0  0  0  0  0  0  0  0  0  0
   -0.6293   -0.3024    0.4477 C   0  0  0  0  0  0  0  0  0  0  0  0
   -1.4966    0.8703    0.0930 C   0  0  0  0  0  0  0  0  0  0  0  0
   -0.5299    2.0242    0.2197 C   0  0  0  0  0  0  0  0  0  0  0  0
    0.6351    1.5025   -0.2998 O   0  0  0  0  0  0  0  0  0  0  0  0
    0.7604    0.1982    0.1770 C   0  0  0  0  0  0  0  0  0  0  0  0
    1.4491   -0.5410   -0.7816 O   0  0  0  0  0  0  0  0  0  0  0  0
    2.7003   -1.0564   -0.4977 C   0  0  0  0  0  0  0  0  0  0  0  0
    3.2453   -0.8742    0.6211 O   0  0  0  0  0  0  0  0  0  0  0  0
   -0.5817   -1.5229   -1.3691 H   0  0  0  0  0  0  0  0  0  0  0  0
   -2.1394   -1.4593   -0.4767 H   0  0  0  0  0  0  0  0  0  0  0  0
   -0.8002   -2.4563    0.1294 H   0  0  0  0  0  0  0  0  0  0  0  0
   -0.7359   -0.5199    1.5190 H   0  0  0  0  0  0  0  0  0  0  0  0
   -1.8610    0.8098   -0.9585 H   0  0  0  0  0  0  0  0  0  0  0  0
   -2.3723    0.9486    0.7359 H   0  0  0  0  0  0  0  0  0  0  0  0
   -0.8420    2.9051   -0.3528 H   0  0  0  0  0  0  0  0  0  0  0  0
   -0.4250    2.3313    1.2793 H   0  0  0  0  0  0  0  0  0  0  0  0
    1.3762    0.2629    1.0957 H   0  0  0  0  0  0  0  0  0  0  0  0
    3.2736   -1.6403   -1.2186 H   0  0  0  0  0  0  0  0  0  0  0  0
  1  2  1  0
  2  3  1  0
  3  4  1  0
  4  5  1  0
  5  6  1  0
  6  7  1  0
  7  8  1  0
  8  9  2  0
  6  2  1  0
  1 10  1  0
  1 11  1  0
  1 12  1  0
  2 13  1  0
  3 14  1  0
  3 15  1  0
  4 16  1  0
  4 17  1  0
  6 18  1  0
  8 19  1  0
M  END
