
     RDKit          3D

 27 27  0  0  0  0  0  0  0  0999 V2000
    1.3210    1.9083    0.9630 C   0  0  0  0  0  0  0  0  0  0  0  0
    1.4289    0.4135    0.9359 C   0  0  0  0  0  0  0  0  0  0  0  0
    1.7976   -0.1221   -0.4585 C   0  0  0  0  0  0  0  0  0  0  0  0
    0.5063   -0.4711    0.2376 C   0  0  0  0  0  0  0  0  0  0  0  0
    0.4943   -1.9276    0.7400 C   0  0  0  0  0  0  0  0  0  0  0  0
   -0.7528   -0.1033   -0.4235 C   0  0  0  0  0  0  0  0  0  0  0  0
   -0.6582    0.8917   -1.5439 C   0  0  0  0  0  0  0  0  0  0  0  0
   -1.7442    0.4685    0.5909 C   0  0  0  0  0  0  0  0  0  0  0  0
   -1.3961   -1.3420   -1.0162 C   0  0  0  0  0  0  0  0  0  0  0  0
    1.4563    2.3845   -0.0330 H   0  0  0  0  0  0  0  0  0  0  0  0
    0.3651    2.2493    1.4485 H   0  0  0  0  0  0  0  0  0  0  0  0
    2.1240    2.3367    1.5996 H   0  0  0  0  0  0  0  0  0  0  0  0
    1.9838    0.0039    1.8074 H   0  0  0  0  0  0  0  0  0  0  0  0
    2.6463   -0.8313   -0.4366 H   0  0  0  0  0  0  0  0  0  0  0  0
    1.8257    0.5638   -1.3033 H   0  0  0  0  0  0  0  0  0  0  0  0
   -0.4102   -2.1493    1.3048 H   0  0  0  0  0  0  0  0  0  0  0  0
    1.4393   -2.1743    1.2589 H   0  0  0  0  0  0  0  0  0  0  0  0
    0.4678   -2.5804   -0.1795 H   0  0  0  0  0  0  0  0  0  0  0  0
   -0.5786    1.9377   -1.2160 H   0  0  0  0  0  0  0  0  0  0  0  0
   -1.6619    0.8463   -2.0693 H   0  0  0  0  0  0  0  0  0  0  0  0
    0.0690    0.6067   -2.3314 H   0  0  0  0  0  0  0  0  0  0  0  0
   -1.2839    0.5055    1.6088 H   0  0  0  0  0  0  0  0  0  0  0  0
   -2.6985   -0.0980    0.5972 H   0  0  0  0  0  0  0  0  0  0  0  0
   -2.0166    1.5186    0.3546 H   0  0  0  0  0  0  0  0  0  0  0  0
   -1.8213   -2.0141   -0.2711 H   0  0  0  0  0  0  0  0  0  0  0  0
   -0.6608   -1.8110   -1.6995 H   0  0  0  0  0  0  0  0  0  0  0  0
   -2.2421   -1.0105   -1.6785 H   0  0  0  0  0  0  0  0  0  0  0  0
  1  2  1  0
  2  3  1  0
  3  4  1  0
  4  5  1  0
  4  6  1  0
  6  7  1  0
  6  8  1  0
  6  9  1  0
  4  2  1  0
  1 10  1  0
  1 11  1  0
  1 12  1  0
  2 13  1  0
  3 14  1  0
  3 15  1  0
  5 16  1  0
  5 17  1  0
  5 18  1  0
  7 19  1  0
  7 20  1  0
  7 21  1  0
  8 22  1  0
  8 23  1  0
  8 24  1  0
  9 25  1  0
  9 26  1  0
  9 27  1  0
M  END
