
     RDKit          3D

 21 22  0  0  0  0  0  0  0  0999 V2000
    2.2933   -0.0924   -0.2530 C   0  0  0  0  0  0  0  0  0  0  0  0
    0.9394    0.4785   -0.0752 C   0  0  0  0  0  0  0  0  0  0  0  0
    0.3276    0.1902    1.2866 C   0  0  0  0  0  0  0  0  0  0  0  0
   -0.9953   -0.4151    0.9414 C   0  0  0  0  0  0  0  0  0  0  0  0
   -1.9018    0.6015    0.2280 C   0  0  0  0  0  0  0  0  0  0  0  0
   -1.2066    0.8472   -1.0553 C   0  0  0  0  0  0  0  0  0  0  0  0
   -1.5039    1.6267   -1.9095 O   0  0  0  0  0  0  0  0  0  0  0  0
   -0.0519   -0.0721   -1.0819 C   0  0  0  0  0  0  0  0  0  0  0  0
   -0.5893   -1.2603   -0.2810 C   0  0  0  0  0  0  0  0  0  0  0  0
    2.8205    0.5161   -1.0442 H   0  0  0  0  0  0  0  0  0  0  0  0
    2.9304   -0.0799    0.6311 H   0  0  0  0  0  0  0  0  0  0  0  0
    2.2051   -1.1142   -0.7137 H   0  0  0  0  0  0  0  0  0  0  0  0
    1.0033    1.5860   -0.1604 H   0  0  0  0  0  0  0  0  0  0  0  0
    0.9175   -0.5555    1.8283 H   0  0  0  0  0  0  0  0  0  0  0  0
    0.1515    1.1098    1.8724 H   0  0  0  0  0  0  0  0  0  0  0  0
   -1.4915   -0.9778    1.7059 H   0  0  0  0  0  0  0  0  0  0  0  0
   -2.0381    1.5052    0.8350 H   0  0  0  0  0  0  0  0  0  0  0  0
   -2.8387    0.0760    0.0057 H   0  0  0  0  0  0  0  0  0  0  0  0
    0.3468   -0.3231   -2.0363 H   0  0  0  0  0  0  0  0  0  0  0  0
    0.1882   -1.9782   -0.0221 H   0  0  0  0  0  0  0  0  0  0  0  0
   -1.5065   -1.6687   -0.7019 H   0  0  0  0  0  0  0  0  0  0  0  0
  1  2  1  0
  2  3  1  0
  3  4  1  0
  4  5  1  0
  5  6  1  0
  6  7  2  0
  6  8  1  0
  8  9  1  0
  8  2  1  0
  9  4  1  0
  1 10  1  0
  1 11  1  0
  1 12  1  0
  2 13  1  0
  3 14  1  0
  3 15  1  0
  4 16  1  0
  5 17  1  0
  5 18  1  0
  8 19  1  0
  9 20  1  0
  9 21  1  0
M  END
