
     RDKit          3D

 19 19  0  0  0  0  0  0  0  0999 V2000
    2.6030    0.3660    0.0049 C   0  0  0  0  0  0  0  0  0  0  0  0
    1.1139    0.4822   -0.1944 C   0  0  0  0  0  0  0  0  0  0  0  0
    0.4902   -0.8667   -0.4091 C   0  0  0  0  0  0  0  0  0  0  0  0
   -0.5955   -0.2068    0.3820 C   0  0  0  0  0  0  0  0  0  0  0  0
   -1.2675   -1.1864    1.2685 C   0  0  0  0  0  0  0  0  0  0  0  0
   -2.1172   -1.8893    0.7622 O   0  0  0  0  0  0  0  0  0  0  0  0
   -1.6233    0.5505   -0.4225 C   0  0  0  0  0  0  0  0  0  0  0  0
   -2.2561    1.4194    0.4941 O   0  0  0  0  0  0  0  0  0  0  0  0
    0.3700    0.5803    0.9926 O   0  0  0  0  0  0  0  0  0  0  0  0
    2.9770    1.0855    0.7495 H   0  0  0  0  0  0  0  0  0  0  0  0
    2.9021   -0.6789    0.2139 H   0  0  0  0  0  0  0  0  0  0  0  0
    3.0829    0.6489   -0.9683 H   0  0  0  0  0  0  0  0  0  0  0  0
    0.8325    1.1956   -0.9838 H   0  0  0  0  0  0  0  0  0  0  0  0
    0.2599   -1.1427   -1.4388 H   0  0  0  0  0  0  0  0  0  0  0  0
    1.0145   -1.6449    0.1776 H   0  0  0  0  0  0  0  0  0  0  0  0
   -0.9999   -1.2523    2.3001 H   0  0  0  0  0  0  0  0  0  0  0  0
   -2.4057   -0.1726   -0.7351 H   0  0  0  0  0  0  0  0  0  0  0  0
   -1.1951    1.1047   -1.2711 H   0  0  0  0  0  0  0  0  0  0  0  0
   -3.1858    1.6076    0.2305 H   0  0  0  0  0  0  0  0  0  0  0  0
  1  2  1  0
  2  3  1  0
  3  4  1  0
  4  5  1  0
  5  6  2  0
  4  7  1  0
  7  8  1  0
  4  9  1  0
  9  2  1  0
  1 10  1  0
  1 11  1  0
  1 12  1  0
  2 13  1  0
  3 14  1  0
  3 15  1  0
  5 16  1  0
  7 17  1  0
  7 18  1  0
  8 19  1  0
M  END
