
     RDKit          3D

 18 18  0  0  0  0  0  0  0  0999 V2000
    2.2675    0.2297   -0.0317 C   0  0  0  0  0  0  0  0  0  0  0  0
    0.8482    0.1967   -0.5457 C   0  0  0  0  0  0  0  0  0  0  0  0
    0.4033   -1.2092   -0.6443 C   0  0  0  0  0  0  0  0  0  0  0  0
   -0.8064   -1.3368   -0.1653 C   0  0  0  0  0  0  0  0  0  0  0  0
   -1.3585   -0.0677    0.3217 C   0  0  0  0  0  0  0  0  0  0  0  0
   -2.3342    0.5536   -0.6152 C   0  0  0  0  0  0  0  0  0  0  0  0
   -2.2737    1.6958   -1.0024 O   0  0  0  0  0  0  0  0  0  0  0  0
   -0.1041    0.7884    0.4708 C   0  0  0  0  0  0  0  0  0  0  0  0
    2.7211   -0.7860   -0.1435 H   0  0  0  0  0  0  0  0  0  0  0  0
    2.2876    0.4694    1.0716 H   0  0  0  0  0  0  0  0  0  0  0  0
    2.9182    0.9223   -0.6073 H   0  0  0  0  0  0  0  0  0  0  0  0
    0.7290    0.7155   -1.5103 H   0  0  0  0  0  0  0  0  0  0  0  0
    1.0350   -2.0316   -1.0741 H   0  0  0  0  0  0  0  0  0  0  0  0
   -1.3546   -2.2856   -0.1285 H   0  0  0  0  0  0  0  0  0  0  0  0
   -1.8491   -0.2139    1.3204 H   0  0  0  0  0  0  0  0  0  0  0  0
   -3.1435   -0.0767   -0.9603 H   0  0  0  0  0  0  0  0  0  0  0  0
   -0.3093    1.8566    0.2949 H   0  0  0  0  0  0  0  0  0  0  0  0
    0.3235    0.5795    1.4668 H   0  0  0  0  0  0  0  0  0  0  0  0
  1  2  1  0
  2  3  1  0
  3  4  2  0
  4  5  1  0
  5  6  1  0
  6  7  2  0
  5  8  1  0
  8  2  1  0
  1  9  1  0
  1 10  1  0
  1 11  1  0
  2 12  1  0
  3 13  1  0
  4 14  1  0
  5 15  1  0
  6 16  1  0
  8 17  1  0
  8 18  1  0
M  END
