
     RDKit          3D

 21 22  0  0  0  0  0  0  0  0999 V2000
    2.7067   -0.5741   -0.6679 C   0  0  0  0  0  0  0  0  0  0  0  0
    1.6530    0.4816   -0.5133 C   0  0  0  0  0  0  0  0  0  0  0  0
    0.7553    0.1691    0.6571 C   0  0  0  0  0  0  0  0  0  0  0  0
   -0.3049    0.2181   -0.3875 C   0  0  0  0  0  0  0  0  0  0  0  0
   -1.2281   -0.9566   -0.4774 C   0  0  0  0  0  0  0  0  0  0  0  0
   -2.4715   -0.4439    0.2224 C   0  0  0  0  0  0  0  0  0  0  0  0
   -2.1008    0.7410    0.8637 O   0  0  0  0  0  0  0  0  0  0  0  0
   -1.2771    1.3505   -0.1121 C   0  0  0  0  0  0  0  0  0  0  0  0
    0.5849    0.4109   -1.4011 O   0  0  0  0  0  0  0  0  0  0  0  0
    3.6638   -0.1310   -1.0481 H   0  0  0  0  0  0  0  0  0  0  0  0
    2.4237   -1.3861   -1.3584 H   0  0  0  0  0  0  0  0  0  0  0  0
    2.9480   -0.9738    0.3512 H   0  0  0  0  0  0  0  0  0  0  0  0
    2.1092    1.5002   -0.4747 H   0  0  0  0  0  0  0  0  0  0  0  0
    0.7435    0.9857    1.3970 H   0  0  0  0  0  0  0  0  0  0  0  0
    0.8449   -0.8495    1.0783 H   0  0  0  0  0  0  0  0  0  0  0  0
   -1.4175   -1.1242   -1.5785 H   0  0  0  0  0  0  0  0  0  0  0  0
   -0.8374   -1.8831   -0.0541 H   0  0  0  0  0  0  0  0  0  0  0  0
   -3.1865   -0.1418   -0.5837 H   0  0  0  0  0  0  0  0  0  0  0  0
   -2.9080   -1.1703    0.9190 H   0  0  0  0  0  0  0  0  0  0  0  0
   -1.9345    1.5695   -0.9674 H   0  0  0  0  0  0  0  0  0  0  0  0
   -0.7667    2.2080    0.3203 H   0  0  0  0  0  0  0  0  0  0  0  0
  1  2  1  0
  2  3  1  0
  3  4  1  0
  4  5  1  0
  5  6  1  0
  6  7  1  0
  7  8  1  0
  4  9  1  0
  9  2  1  0
  8  4  1  0
  1 10  1  0
  1 11  1  0
  1 12  1  0
  2 13  1  0
  3 14  1  0
  3 15  1  0
  5 16  1  0
  5 17  1  0
  6 18  1  0
  6 19  1  0
  8 20  1  0
  8 21  1  0
M  END
