
     RDKit          3D

 21 23  0  0  0  0  0  0  0  0999 V2000
    2.5034   -0.1462    0.6760 C   0  0  0  0  0  0  0  0  0  0  0  0
    1.2395    0.3590    0.0349 C   0  0  0  0  0  0  0  0  0  0  0  0
    0.0805    0.4172    0.9702 C   0  0  0  0  0  0  0  0  0  0  0  0
   -1.0978    0.1177    0.0372 C   0  0  0  0  0  0  0  0  0  0  0  0
   -2.4458    0.1843    0.6504 C   0  0  0  0  0  0  0  0  0  0  0  0
   -0.9733    0.4356   -1.3969 C   0  0  0  0  0  0  0  0  0  0  0  0
    0.2132    0.3608   -2.0897 O   0  0  0  0  0  0  0  0  0  0  0  0
    0.8059   -0.4815   -1.1438 C   0  0  0  0  0  0  0  0  0  0  0  0
   -0.5775   -0.9418   -0.7851 C   0  0  0  0  0  0  0  0  0  0  0  0
    2.8785   -1.0581    0.1385 H   0  0  0  0  0  0  0  0  0  0  0  0
    2.3984   -0.4278    1.7246 H   0  0  0  0  0  0  0  0  0  0  0  0
    3.3465    0.5879    0.6073 H   0  0  0  0  0  0  0  0  0  0  0  0
    1.4527    1.4210   -0.2878 H   0  0  0  0  0  0  0  0  0  0  0  0
    0.1421   -0.4740    1.6509 H   0  0  0  0  0  0  0  0  0  0  0  0
   -0.0436    1.3544    1.5034 H   0  0  0  0  0  0  0  0  0  0  0  0
   -2.7129   -0.6893    1.2839 H   0  0  0  0  0  0  0  0  0  0  0  0
   -3.2451    0.3780   -0.1229 H   0  0  0  0  0  0  0  0  0  0  0  0
   -2.4772    1.1160    1.2913 H   0  0  0  0  0  0  0  0  0  0  0  0
   -1.9180    0.4645   -1.9709 H   0  0  0  0  0  0  0  0  0  0  0  0
    1.5063   -1.2152   -1.5162 H   0  0  0  0  0  0  0  0  0  0  0  0
   -1.0758   -1.7624   -1.2552 H   0  0  0  0  0  0  0  0  0  0  0  0
  1  2  1  0
  2  3  1  0
  3  4  1  0
  4  5  1  0
  4  6  1  0
  6  7  1  0
  7  8  1  0
  8  9  1  0
  8  2  1  0
  9  4  1  0
  9  6  1  0
  1 10  1  0
  1 11  1  0
  1 12  1  0
  2 13  1  0
  3 14  1  0
  3 15  1  0
  5 16  1  0
  5 17  1  0
  5 18  1  0
  6 19  1  0
  8 20  1  0
  9 21  1  0
M  END
