
     RDKit          3D

 21 22  0  0  0  0  0  0  0  0999 V2000
    2.3240   -0.1165    0.2149 C   0  0  0  0  0  0  0  0  0  0  0  0
    0.9264    0.0347   -0.3400 C   0  0  0  0  0  0  0  0  0  0  0  0
    0.3834    1.4228   -0.1578 C   0  0  0  0  0  0  0  0  0  0  0  0
   -1.0812    1.3571   -0.3173 C   0  0  0  0  0  0  0  0  0  0  0  0
   -1.7113    2.3117   -0.6739 O   0  0  0  0  0  0  0  0  0  0  0  0
   -1.7713    0.0863   -0.0294 C   0  0  0  0  0  0  0  0  0  0  0  0
   -1.0322   -0.5189    1.1673 C   0  0  0  0  0  0  0  0  0  0  0  0
   -0.0125   -1.0004    0.1630 C   0  0  0  0  0  0  0  0  0  0  0  0
   -1.1857   -1.0732   -0.8288 C   0  0  0  0  0  0  0  0  0  0  0  0
    2.5707   -1.1825    0.2189 H   0  0  0  0  0  0  0  0  0  0  0  0
    2.4530    0.3335    1.2024 H   0  0  0  0  0  0  0  0  0  0  0  0
    3.0246    0.3682   -0.5099 H   0  0  0  0  0  0  0  0  0  0  0  0
    1.0261   -0.1193   -1.4549 H   0  0  0  0  0  0  0  0  0  0  0  0
    0.6889    1.8255    0.8320 H   0  0  0  0  0  0  0  0  0  0  0  0
    0.8292    2.1430   -0.9003 H   0  0  0  0  0  0  0  0  0  0  0  0
   -2.8527    0.1077    0.0514 H   0  0  0  0  0  0  0  0  0  0  0  0
   -0.6846    0.2096    1.9066 H   0  0  0  0  0  0  0  0  0  0  0  0
   -1.6114   -1.3652    1.5477 H   0  0  0  0  0  0  0  0  0  0  0  0
    0.4217   -1.9922    0.3915 H   0  0  0  0  0  0  0  0  0  0  0  0
   -0.9240   -0.8549   -1.8598 H   0  0  0  0  0  0  0  0  0  0  0  0
   -1.7810   -1.9770   -0.6234 H   0  0  0  0  0  0  0  0  0  0  0  0
  1  2  1  0
  2  3  1  0
  3  4  1  0
  4  5  2  0
  4  6  1  0
  6  7  1  0
  7  8  1  0
  8  9  1  0
  8  2  1  0
  9  6  1  0
  1 10  1  0
  1 11  1  0
  1 12  1  0
  2 13  1  0
  3 14  1  0
  3 15  1  0
  6 16  1  0
  7 17  1  0
  7 18  1  0
  8 19  1  0
  9 20  1  0
  9 21  1  0
M  END
