
     RDKit          3D

 19 19  0  0  0  0  0  0  0  0999 V2000
   -2.1548    0.3195    0.6306 C   0  0  0  0  0  0  0  0  0  0  0  0
   -1.1102   -0.0155   -0.4071 C   0  0  0  0  0  0  0  0  0  0  0  0
   -0.3768   -1.2887   -0.1152 C   0  0  0  0  0  0  0  0  0  0  0  0
    1.0536   -1.0279   -0.5735 C   0  0  0  0  0  0  0  0  0  0  0  0
    1.2969    0.4376   -0.4188 C   0  0  0  0  0  0  0  0  0  0  0  0
    2.1214    0.7753    0.7662 C   0  0  0  0  0  0  0  0  0  0  0  0
    2.4385    1.9253    0.9469 O   0  0  0  0  0  0  0  0  0  0  0  0
   -0.0654    1.0454   -0.3329 C   0  0  0  0  0  0  0  0  0  0  0  0
   -0.3328    2.2267   -0.2186 O   0  0  0  0  0  0  0  0  0  0  0  0
   -2.7032    1.2189    0.2350 H   0  0  0  0  0  0  0  0  0  0  0  0
   -2.8785   -0.4814    0.7954 H   0  0  0  0  0  0  0  0  0  0  0  0
   -1.6240    0.6389    1.5375 H   0  0  0  0  0  0  0  0  0  0  0  0
   -1.5720    0.0103   -1.3956 H   0  0  0  0  0  0  0  0  0  0  0  0
   -0.4348   -1.6221    0.9263 H   0  0  0  0  0  0  0  0  0  0  0  0
   -0.7637   -2.0920   -0.7794 H   0  0  0  0  0  0  0  0  0  0  0  0
    1.7865   -1.6289   -0.0157 H   0  0  0  0  0  0  0  0  0  0  0  0
    1.1518   -1.2913   -1.6585 H   0  0  0  0  0  0  0  0  0  0  0  0
    1.7612    0.8792   -1.3469 H   0  0  0  0  0  0  0  0  0  0  0  0
    2.4064   -0.0294    1.4242 H   0  0  0  0  0  0  0  0  0  0  0  0
  1  2  1  0
  2  3  1  0
  3  4  1  0
  4  5  1  0
  5  6  1  0
  6  7  2  0
  5  8  1  0
  8  9  2  0
  8  2  1  0
  1 10  1  0
  1 11  1  0
  1 12  1  0
  2 13  1  0
  3 14  1  0
  3 15  1  0
  4 16  1  0
  4 17  1  0
  5 18  1  0
  6 19  1  0
M  END
