
     RDKit          3D

 21 23  0  0  0  0  0  0  0  0999 V2000
   -1.7975   -1.0034   -0.8784 C   0  0  0  0  0  0  0  0  0  0  0  0
   -1.3325   -0.4011    0.3942 C   0  0  0  0  0  0  0  0  0  0  0  0
   -0.3947    0.7398    0.3039 C   0  0  0  0  0  0  0  0  0  0  0  0
    0.4872    0.9661   -0.8744 C   0  0  0  0  0  0  0  0  0  0  0  0
    1.6151   -0.0144   -0.7868 C   0  0  0  0  0  0  0  0  0  0  0  0
    1.1769   -1.0872    0.2031 C   0  0  0  0  0  0  0  0  0  0  0  0
    0.0145   -0.5679    0.9450 C   0  0  0  0  0  0  0  0  0  0  0  0
    0.2912    0.1518    2.1086 O   0  0  0  0  0  0  0  0  0  0  0  0
   -0.0480    1.4150    1.6013 C   0  0  0  0  0  0  0  0  0  0  0  0
   -2.7826   -0.5150   -1.1415 H   0  0  0  0  0  0  0  0  0  0  0  0
   -2.0096   -2.0920   -0.8223 H   0  0  0  0  0  0  0  0  0  0  0  0
   -1.1489   -0.8301   -1.7508 H   0  0  0  0  0  0  0  0  0  0  0  0
   -2.1484   -0.2626    1.1579 H   0  0  0  0  0  0  0  0  0  0  0  0
   -0.0065    0.8571   -1.8518 H   0  0  0  0  0  0  0  0  0  0  0  0
    0.8335    2.0363   -0.8300 H   0  0  0  0  0  0  0  0  0  0  0  0
    1.8338   -0.5397   -1.7323 H   0  0  0  0  0  0  0  0  0  0  0  0
    2.5073    0.5485   -0.4077 H   0  0  0  0  0  0  0  0  0  0  0  0
    1.0564   -2.0720   -0.2669 H   0  0  0  0  0  0  0  0  0  0  0  0
    2.0343   -1.2043    0.9291 H   0  0  0  0  0  0  0  0  0  0  0  0
   -0.9739    1.7557    2.1143 H   0  0  0  0  0  0  0  0  0  0  0  0
    0.7925    2.1196    1.5855 H   0  0  0  0  0  0  0  0  0  0  0  0
  1  2  1  0
  2  3  1  0
  3  4  1  0
  4  5  1  0
  5  6  1  0
  6  7  1  0
  7  8  1  0
  8  9  1  0
  7  2  1  0
  7  3  1  0
  9  3  1  0
  1 10  1  0
  1 11  1  0
  1 12  1  0
  2 13  1  0
  4 14  1  0
  4 15  1  0
  5 16  1  0
  5 17  1  0
  6 18  1  0
  6 19  1  0
  9 20  1  0
  9 21  1  0
M  END
