
     RDKit          3D

 18 19  0  0  0  0  0  0  0  0999 V2000
    1.7959    0.6181   -0.1639 C   0  0  0  0  0  0  0  0  0  0  0  0
    0.8585   -0.5145    0.0322 C   0  0  0  0  0  0  0  0  0  0  0  0
   -0.2677   -0.1957    1.0244 C   0  0  0  0  0  0  0  0  0  0  0  0
   -0.9855    1.0146    0.4846 C   0  0  0  0  0  0  0  0  0  0  0  0
   -0.9059    0.6568   -0.9596 C   0  0  0  0  0  0  0  0  0  0  0  0
   -1.2684    1.2877   -1.9106 O   0  0  0  0  0  0  0  0  0  0  0  0
   -0.2743   -0.6596   -0.9420 C   0  0  0  0  0  0  0  0  0  0  0  0
   -1.0021   -1.3004    0.2590 C   0  0  0  0  0  0  0  0  0  0  0  0
    1.3423    1.5988    0.0158 H   0  0  0  0  0  0  0  0  0  0  0  0
    2.6511    0.4641    0.5414 H   0  0  0  0  0  0  0  0  0  0  0  0
    2.2711    0.5996   -1.1838 H   0  0  0  0  0  0  0  0  0  0  0  0
    1.3063   -1.4823    0.3285 H   0  0  0  0  0  0  0  0  0  0  0  0
   -0.0903   -0.3190    2.0536 H   0  0  0  0  0  0  0  0  0  0  0  0
   -0.5307    1.9653    0.7356 H   0  0  0  0  0  0  0  0  0  0  0  0
   -2.0550    0.9761    0.8429 H   0  0  0  0  0  0  0  0  0  0  0  0
   -0.1685   -1.2494   -1.8116 H   0  0  0  0  0  0  0  0  0  0  0  0
   -0.6029   -2.2941    0.4821 H   0  0  0  0  0  0  0  0  0  0  0  0
   -2.0738   -1.1661    0.1713 H   0  0  0  0  0  0  0  0  0  0  0  0
  1  2  1  0
  2  3  1  0
  3  4  1  0
  4  5  1  0
  5  6  2  0
  5  7  1  0
  7  8  1  0
  7  2  1  0
  8  3  1  0
  1  9  1  0
  1 10  1  0
  1 11  1  0
  2 12  1  0
  3 13  1  0
  4 14  1  0
  4 15  1  0
  7 16  1  0
  8 17  1  0
  8 18  1  0
M  END
