
     RDKit          3D

 20 20  0  0  0  0  0  0  0  0999 V2000
    1.9851   -0.0602    0.1330 C   0  0  0  0  0  0  0  0  0  0  0  0
    0.5327   -0.3919    0.3633 C   0  0  0  0  0  0  0  0  0  0  0  0
    0.1006   -1.3990   -0.6362 C   0  0  0  0  0  0  0  0  0  0  0  0
   -1.2055   -1.6179   -0.7150 C   0  0  0  0  0  0  0  0  0  0  0  0
   -2.0022   -0.7782    0.2497 C   0  0  0  0  0  0  0  0  0  0  0  0
   -1.6426    0.5394   -0.0060 O   0  0  0  0  0  0  0  0  0  0  0  0
   -0.3532    0.7942    0.4289 C   0  0  0  0  0  0  0  0  0  0  0  0
    0.1944    1.9912   -0.3277 C   0  0  0  0  0  0  0  0  0  0  0  0
    2.3612    0.4766    1.0372 H   0  0  0  0  0  0  0  0  0  0  0  0
    2.1773    0.4634   -0.7979 H   0  0  0  0  0  0  0  0  0  0  0  0
    2.5421   -1.0232    0.1070 H   0  0  0  0  0  0  0  0  0  0  0  0
    0.4675   -0.9076    1.3693 H   0  0  0  0  0  0  0  0  0  0  0  0
    0.8275   -1.9009   -1.2420 H   0  0  0  0  0  0  0  0  0  0  0  0
   -1.6262   -2.3227   -1.4004 H   0  0  0  0  0  0  0  0  0  0  0  0
   -1.6611   -1.0019    1.3012 H   0  0  0  0  0  0  0  0  0  0  0  0
   -3.0661   -0.9725    0.1372 H   0  0  0  0  0  0  0  0  0  0  0  0
   -0.4672    1.1682    1.4916 H   0  0  0  0  0  0  0  0  0  0  0  0
    0.1215    1.8062   -1.4133 H   0  0  0  0  0  0  0  0  0  0  0  0
   -0.4788    2.8605   -0.0882 H   0  0  0  0  0  0  0  0  0  0  0  0
    1.1929    2.2762    0.0082 H   0  0  0  0  0  0  0  0  0  0  0  0
  1  2  1  0
  2  3  1  0
  3  4  2  0
  4  5  1  0
  5  6  1  0
  6  7  1  0
  7  8  1  0
  7  2  1  0
  1  9  1  0
  1 10  1  0
  1 11  1  0
  2 12  1  0
  3 13  1  0
  4 14  1  0
  5 15  1  0
  5 16  1  0
  7 17  1  0
  8 18  1  0
  8 19  1  0
  8 20  1  0
M  END
