
     RDKit          3D

 18 18  0  0  0  0  0  0  0  0999 V2000
   -2.4256    0.9875    0.3087 C   0  0  0  0  0  0  0  0  0  0  0  0
   -1.0845    0.3982    0.6919 C   0  0  0  0  0  0  0  0  0  0  0  0
   -1.0878   -1.1209    0.6816 C   0  0  0  0  0  0  0  0  0  0  0  0
   -0.3044   -0.2978   -0.3461 C   0  0  0  0  0  0  0  0  0  0  0  0
    1.1634   -0.4954   -0.2825 C   0  0  0  0  0  0  0  0  0  0  0  0
    1.9021    0.7084   -0.2264 O   0  0  0  0  0  0  0  0  0  0  0  0
    3.2977    0.5672   -0.1651 C   0  0  0  0  0  0  0  0  0  0  0  0
    3.8488   -0.5744   -0.1611 O   0  0  0  0  0  0  0  0  0  0  0  0
   -2.6697    0.7297   -0.7508 H   0  0  0  0  0  0  0  0  0  0  0  0
   -3.2007    0.4405    0.9157 H   0  0  0  0  0  0  0  0  0  0  0  0
   -2.5217    2.0491    0.5358 H   0  0  0  0  0  0  0  0  0  0  0  0
   -0.6092    0.9145    1.5545 H   0  0  0  0  0  0  0  0  0  0  0  0
   -1.9535   -1.6592    0.2614 H   0  0  0  0  0  0  0  0  0  0  0  0
   -0.5451   -1.6092    1.4885 H   0  0  0  0  0  0  0  0  0  0  0  0
   -0.7374   -0.2447   -1.3828 H   0  0  0  0  0  0  0  0  0  0  0  0
    1.4839   -1.0518   -1.1925 H   0  0  0  0  0  0  0  0  0  0  0  0
    1.4780   -1.1569    0.5771 H   0  0  0  0  0  0  0  0  0  0  0  0
    3.9658    1.4153   -0.1189 H   0  0  0  0  0  0  0  0  0  0  0  0
  1  2  1  0
  2  3  1  0
  3  4  1  0
  4  5  1  0
  5  6  1  0
  6  7  1  0
  7  8  2  0
  4  2  1  0
  1  9  1  0
  1 10  1  0
  1 11  1  0
  2 12  1  0
  3 13  1  0
  3 14  1  0
  4 15  1  0
  5 16  1  0
  5 17  1  0
  7 18  1  0
M  END
