
     RDKit          3D

 20 21  0  0  0  0  0  0  0  0999 V2000
   -1.9500    0.2993    0.6967 C   0  0  0  0  0  0  0  0  0  0  0  0
   -0.8193    0.6463   -0.2316 C   0  0  0  0  0  0  0  0  0  0  0  0
   -0.7506   -0.3543   -1.3612 C   0  0  0  0  0  0  0  0  0  0  0  0
    0.5459   -0.8927   -0.8929 C   0  0  0  0  0  0  0  0  0  0  0  0
    0.8763   -1.1630    0.5081 C   0  0  0  0  0  0  0  0  0  0  0  0
    0.0352   -1.8670    1.3602 O   0  0  0  0  0  0  0  0  0  0  0  0
    0.5470    0.2347    0.1823 C   0  0  0  0  0  0  0  0  0  0  0  0
    1.6887    1.2374    0.0618 C   0  0  0  0  0  0  0  0  0  0  0  0
   -1.9666    0.8623    1.6251 H   0  0  0  0  0  0  0  0  0  0  0  0
   -1.9772   -0.7985    0.8382 H   0  0  0  0  0  0  0  0  0  0  0  0
   -2.8994    0.5477    0.1392 H   0  0  0  0  0  0  0  0  0  0  0  0
   -0.8507    1.7057   -0.5319 H   0  0  0  0  0  0  0  0  0  0  0  0
   -1.5697   -1.0760   -1.4243 H   0  0  0  0  0  0  0  0  0  0  0  0
   -0.6879    0.2105   -2.3331 H   0  0  0  0  0  0  0  0  0  0  0  0
    1.3734   -0.8440   -1.6420 H   0  0  0  0  0  0  0  0  0  0  0  0
    1.9568   -1.3594    0.7201 H   0  0  0  0  0  0  0  0  0  0  0  0
    0.4498   -1.7964    2.2787 H   0  0  0  0  0  0  0  0  0  0  0  0
    2.6184    0.7192   -0.3116 H   0  0  0  0  0  0  0  0  0  0  0  0
    1.4431    1.9913   -0.6975 H   0  0  0  0  0  0  0  0  0  0  0  0
    1.9369    1.6969    1.0157 H   0  0  0  0  0  0  0  0  0  0  0  0
  1  2  1  0
  2  3  1  0
  3  4  1  0
  4  5  1  0
  5  6  1  0
  5  7  1  0
  7  8  1  0
  7  2  1  0
  7  4  1  0
  1  9  1  0
  1 10  1  0
  1 11  1  0
  2 12  1  0
  3 13  1  0
  3 14  1  0
  4 15  1  0
  5 16  1  0
  6 17  1  0
  8 18  1  0
  8 19  1  0
  8 20  1  0
M  END
