
     RDKit          3D

 23 23  0  0  0  0  0  0  0  0999 V2000
   -1.3555    1.4612   -0.5108 C   0  0  0  0  0  0  0  0  0  0  0  0
   -1.1000    0.1182    0.0520 C   0  0  0  0  0  0  0  0  0  0  0  0
   -1.1577   -0.9958   -0.9985 C   0  0  0  0  0  0  0  0  0  0  0  0
    0.2495   -1.3700   -0.6443 C   0  0  0  0  0  0  0  0  0  0  0  0
    0.2474   -0.3210    0.4582 C   0  0  0  0  0  0  0  0  0  0  0  0
    0.1817   -0.9869    1.8490 C   0  0  0  0  0  0  0  0  0  0  0  0
    1.4133    0.5817    0.4322 C   0  0  0  0  0  0  0  0  0  0  0  0
    1.8229    1.1518   -0.8524 C   0  0  0  0  0  0  0  0  0  0  0  0
    2.1520    2.3180   -0.9039 O   0  0  0  0  0  0  0  0  0  0  0  0
   -0.5168    2.1411   -0.6096 H   0  0  0  0  0  0  0  0  0  0  0  0
   -1.8036    1.3298   -1.5429 H   0  0  0  0  0  0  0  0  0  0  0  0
   -2.1869    2.0097    0.0370 H   0  0  0  0  0  0  0  0  0  0  0  0
   -1.9153   -0.0930    0.8283 H   0  0  0  0  0  0  0  0  0  0  0  0
   -1.8695   -1.7963   -0.7387 H   0  0  0  0  0  0  0  0  0  0  0  0
   -1.3081   -0.5626   -2.0196 H   0  0  0  0  0  0  0  0  0  0  0  0
    0.3413   -2.3929   -0.2259 H   0  0  0  0  0  0  0  0  0  0  0  0
    0.9473   -1.2050   -1.4723 H   0  0  0  0  0  0  0  0  0  0  0  0
    1.1837   -1.2151    2.2309 H   0  0  0  0  0  0  0  0  0  0  0  0
   -0.2864   -0.2376    2.5214 H   0  0  0  0  0  0  0  0  0  0  0  0
   -0.4783   -1.8597    1.8314 H   0  0  0  0  0  0  0  0  0  0  0  0
    2.2987   -0.0221    0.8186 H   0  0  0  0  0  0  0  0  0  0  0  0
    1.2947    1.3706    1.2193 H   0  0  0  0  0  0  0  0  0  0  0  0
    1.8457    0.5760   -1.7594 H   0  0  0  0  0  0  0  0  0  0  0  0
  1  2  1  0
  2  3  1  0
  3  4  1  0
  4  5  1  0
  5  6  1  0
  5  7  1  0
  7  8  1  0
  8  9  2  0
  5  2  1  0
  1 10  1  0
  1 11  1  0
  1 12  1  0
  2 13  1  0
  3 14  1  0
  3 15  1  0
  4 16  1  0
  4 17  1  0
  6 18  1  0
  6 19  1  0
  6 20  1  0
  7 21  1  0
  7 22  1  0
  8 23  1  0
M  END
