
     RDKit          3D

 19 19  0  0  0  0  0  0  0  0999 V2000
    2.1333    0.2170    0.1598 C   0  0  0  0  0  0  0  0  0  0  0  0
    0.8446   -0.5359    0.0997 C   0  0  0  0  0  0  0  0  0  0  0  0
    0.1763   -0.5085   -1.2347 C   0  0  0  0  0  0  0  0  0  0  0  0
   -1.3210   -0.4288   -0.9638 C   0  0  0  0  0  0  0  0  0  0  0  0
   -1.4658    0.1175    0.4236 C   0  0  0  0  0  0  0  0  0  0  0  0
   -1.9480    1.4317    0.3335 O   0  0  0  0  0  0  0  0  0  0  0  0
   -0.1200    0.1046    1.0723 C   0  0  0  0  0  0  0  0  0  0  0  0
    1.9681    1.2398    0.6022 H   0  0  0  0  0  0  0  0  0  0  0  0
    2.8479   -0.2843    0.8482 H   0  0  0  0  0  0  0  0  0  0  0  0
    2.6241    0.3774   -0.8020 H   0  0  0  0  0  0  0  0  0  0  0  0
    1.0196   -1.6117    0.3724 H   0  0  0  0  0  0  0  0  0  0  0  0
    0.3236   -1.4416   -1.8294 H   0  0  0  0  0  0  0  0  0  0  0  0
    0.5167    0.3276   -1.8878 H   0  0  0  0  0  0  0  0  0  0  0  0
   -1.8134   -1.4147   -1.0708 H   0  0  0  0  0  0  0  0  0  0  0  0
   -1.7380    0.2745   -1.7266 H   0  0  0  0  0  0  0  0  0  0  0  0
   -2.2229   -0.4404    1.0210 H   0  0  0  0  0  0  0  0  0  0  0  0
   -1.9271    1.8480    1.2368 H   0  0  0  0  0  0  0  0  0  0  0  0
   -0.0949   -0.4284    2.0456 H   0  0  0  0  0  0  0  0  0  0  0  0
    0.1968    1.1562    1.3001 H   0  0  0  0  0  0  0  0  0  0  0  0
  1  2  1  0
  2  3  1  0
  3  4  1  0
  4  5  1  0
  5  6  1  0
  5  7  1  0
  7  2  1  0
  1  8  1  0
  1  9  1  0
  1 10  1  0
  2 11  1  0
  3 12  1  0
  3 13  1  0
  4 14  1  0
  4 15  1  0
  5 16  1  0
  6 17  1  0
  7 18  1  0
  7 19  1  0
M  END
