
     RDKit          3D

 19 21  0  0  0  0  0  0  0  0999 V2000
   -2.0151   -0.2961   -0.7014 C   0  0  0  0  0  0  0  0  0  0  0  0
   -1.2167   -0.1027    0.5429 C   0  0  0  0  0  0  0  0  0  0  0  0
   -1.0188    1.4016    0.7835 C   0  0  0  0  0  0  0  0  0  0  0  0
    0.3021    1.1525    1.1798 O   0  0  0  0  0  0  0  0  0  0  0  0
    0.2340   -0.0349    0.4777 C   0  0  0  0  0  0  0  0  0  0  0  0
    1.0929   -0.3471   -0.6526 C   0  0  0  0  0  0  0  0  0  0  0  0
    2.5672    0.0318   -0.4586 C   0  0  0  0  0  0  0  0  0  0  0  0
    2.5432   -0.7633    0.6873 O   0  0  0  0  0  0  0  0  0  0  0  0
    1.1790   -1.1215    0.6936 C   0  0  0  0  0  0  0  0  0  0  0  0
   -2.0826   -1.3198   -1.0636 H   0  0  0  0  0  0  0  0  0  0  0  0
   -1.6908    0.4158   -1.5051 H   0  0  0  0  0  0  0  0  0  0  0  0
   -3.0713    0.0281   -0.4633 H   0  0  0  0  0  0  0  0  0  0  0  0
   -1.7139   -0.5286    1.4309 H   0  0  0  0  0  0  0  0  0  0  0  0
   -1.6749    1.8236    1.5547 H   0  0  0  0  0  0  0  0  0  0  0  0
   -0.9881    1.9527   -0.1854 H   0  0  0  0  0  0  0  0  0  0  0  0
    0.8004   -0.9333   -1.5179 H   0  0  0  0  0  0  0  0  0  0  0  0
    3.2339   -0.2812   -1.2587 H   0  0  0  0  0  0  0  0  0  0  0  0
    2.5929    1.1117   -0.1720 H   0  0  0  0  0  0  0  0  0  0  0  0
    0.9267   -2.1894    0.6283 H   0  0  0  0  0  0  0  0  0  0  0  0
  1  2  1  0
  2  3  1  0
  3  4  1  0
  4  5  1  0
  5  6  1  0
  6  7  1  0
  7  8  1  0
  8  9  1  0
  5  2  1  0
  9  6  1  0
  9  5  1  0
  1 10  1  0
  1 11  1  0
  1 12  1  0
  2 13  1  0
  3 14  1  0
  3 15  1  0
  6 16  1  0
  7 17  1  0
  7 18  1  0
  9 19  1  0
M  END
