
     RDKit          3D

 18 18  0  0  0  0  0  0  0  0999 V2000
    1.9518   -0.5956    0.3393 C   0  0  0  0  0  0  0  0  0  0  0  0
    0.7437   -0.1870   -0.4720 C   0  0  0  0  0  0  0  0  0  0  0  0
   -0.4649   -0.9988   -0.1490 C   0  0  0  0  0  0  0  0  0  0  0  0
   -1.7408   -0.1847   -0.1239 C   0  0  0  0  0  0  0  0  0  0  0  0
   -1.5546    0.9252    0.8634 C   0  0  0  0  0  0  0  0  0  0  0  0
   -2.4101    1.2442    1.7099 O   0  0  0  0  0  0  0  0  0  0  0  0
   -0.3395    1.5958    0.7770 O   0  0  0  0  0  0  0  0  0  0  0  0
    0.4558    1.2826   -0.3742 C   0  0  0  0  0  0  0  0  0  0  0  0
    2.8886   -0.3116   -0.1669 H   0  0  0  0  0  0  0  0  0  0  0  0
    1.9476   -1.7221    0.3555 H   0  0  0  0  0  0  0  0  0  0  0  0
    1.9201   -0.2390    1.3689 H   0  0  0  0  0  0  0  0  0  0  0  0
    1.0061   -0.3974   -1.5480 H   0  0  0  0  0  0  0  0  0  0  0  0
   -0.6117   -1.8228   -0.8809 H   0  0  0  0  0  0  0  0  0  0  0  0
   -0.3982   -1.4973    0.8561 H   0  0  0  0  0  0  0  0  0  0  0  0
   -1.9762    0.2749   -1.0952 H   0  0  0  0  0  0  0  0  0  0  0  0
   -2.5541   -0.8204    0.2380 H   0  0  0  0  0  0  0  0  0  0  0  0
    1.3343    1.9174   -0.4453 H   0  0  0  0  0  0  0  0  0  0  0  0
   -0.1980    1.5368   -1.2529 H   0  0  0  0  0  0  0  0  0  0  0  0
  1  2  1  0
  2  3  1  0
  3  4  1  0
  4  5  1  0
  5  6  2  0
  5  7  1  0
  7  8  1  0
  8  2  1  0
  1  9  1  0
  1 10  1  0
  1 11  1  0
  2 12  1  0
  3 13  1  0
  3 14  1  0
  4 15  1  0
  4 16  1  0
  8 17  1  0
  8 18  1  0
M  END
