
     RDKit          3D

 23 24  0  0  0  0  0  0  0  0999 V2000
    1.3853   -1.6579    0.1383 C   0  0  0  0  0  0  0  0  0  0  0  0
    1.4360   -0.3276   -0.5812 C   0  0  0  0  0  0  0  0  0  0  0  0
    1.6350    0.8191    0.4055 C   0  0  0  0  0  0  0  0  0  0  0  0
    0.4323    1.5264   -0.2091 C   0  0  0  0  0  0  0  0  0  0  0  0
   -0.3424    2.1304    0.7318 O   0  0  0  0  0  0  0  0  0  0  0  0
    0.0491    0.2779   -0.8481 C   0  0  0  0  0  0  0  0  0  0  0  0
   -1.0009   -0.6084   -0.3287 C   0  0  0  0  0  0  0  0  0  0  0  0
   -2.4300   -0.0840   -0.5484 C   0  0  0  0  0  0  0  0  0  0  0  0
   -1.8812   -0.3713    0.7991 C   0  0  0  0  0  0  0  0  0  0  0  0
    2.3577   -1.7830    0.6784 H   0  0  0  0  0  0  0  0  0  0  0  0
    0.6156   -1.6166    0.9569 H   0  0  0  0  0  0  0  0  0  0  0  0
    1.2011   -2.4646   -0.5802 H   0  0  0  0  0  0  0  0  0  0  0  0
    2.1080   -0.3344   -1.4358 H   0  0  0  0  0  0  0  0  0  0  0  0
    1.4335    0.4999    1.4554 H   0  0  0  0  0  0  0  0  0  0  0  0
    2.5937    1.3530    0.3004 H   0  0  0  0  0  0  0  0  0  0  0  0
    0.8332    2.3002   -0.9247 H   0  0  0  0  0  0  0  0  0  0  0  0
    0.1558    2.2253    1.5993 H   0  0  0  0  0  0  0  0  0  0  0  0
   -0.0542    0.3970   -1.9660 H   0  0  0  0  0  0  0  0  0  0  0  0
   -0.8209   -1.6966   -0.5895 H   0  0  0  0  0  0  0  0  0  0  0  0
   -3.0648   -0.7801   -1.1006 H   0  0  0  0  0  0  0  0  0  0  0  0
   -2.5452    0.9774   -0.8105 H   0  0  0  0  0  0  0  0  0  0  0  0
   -1.7976    0.4863    1.5080 H   0  0  0  0  0  0  0  0  0  0  0  0
   -2.2993   -1.2683    1.3496 H   0  0  0  0  0  0  0  0  0  0  0  0
  1  2  1  0
  2  3  1  0
  3  4  1  0
  4  5  1  0
  4  6  1  0
  6  7  1  0
  7  8  1  0
  8  9  1  0
  6  2  1  0
  9  7  1  0
  1 10  1  0
  1 11  1  0
  1 12  1  0
  2 13  1  0
  3 14  1  0
  3 15  1  0
  4 16  1  0
  5 17  1  0
  6 18  1  0
  7 19  1  0
  8 20  1  0
  8 21  1  0
  9 22  1  0
  9 23  1  0
M  END
