
     RDKit          3D

 21 22  0  0  0  0  0  0  0  0999 V2000
   -1.7795   -0.9507   -0.4192 C   0  0  0  0  0  0  0  0  0  0  0  0
   -0.9095    0.0464    0.2693 C   0  0  0  0  0  0  0  0  0  0  0  0
   -0.6026    1.2605   -0.6178 C   0  0  0  0  0  0  0  0  0  0  0  0
    0.4721    1.9417    0.1947 C   0  0  0  0  0  0  0  0  0  0  0  0
    1.7966    1.5982    0.0247 O   0  0  0  0  0  0  0  0  0  0  0  0
    1.1723    0.8325    0.9753 C   0  0  0  0  0  0  0  0  0  0  0  0
    0.4915   -0.4613    0.5243 C   0  0  0  0  0  0  0  0  0  0  0  0
    1.1279   -1.0329   -0.7075 C   0  0  0  0  0  0  0  0  0  0  0  0
    0.5488   -1.4095    1.5299 O   0  0  0  0  0  0  0  0  0  0  0  0
   -1.3771   -1.9839   -0.3929 H   0  0  0  0  0  0  0  0  0  0  0  0
   -2.7855   -0.9207    0.0681 H   0  0  0  0  0  0  0  0  0  0  0  0
   -1.9341   -0.7047   -1.4857 H   0  0  0  0  0  0  0  0  0  0  0  0
   -1.3022    0.4146    1.2244 H   0  0  0  0  0  0  0  0  0  0  0  0
   -1.4882    1.8974   -0.6737 H   0  0  0  0  0  0  0  0  0  0  0  0
   -0.2122    0.9344   -1.6034 H   0  0  0  0  0  0  0  0  0  0  0  0
    0.1989    2.8721    0.7151 H   0  0  0  0  0  0  0  0  0  0  0  0
    1.2423    1.0500    2.0478 H   0  0  0  0  0  0  0  0  0  0  0  0
    1.9736   -0.3781   -1.0189 H   0  0  0  0  0  0  0  0  0  0  0  0
    1.5773   -2.0365   -0.5153 H   0  0  0  0  0  0  0  0  0  0  0  0
    0.3842   -1.0626   -1.5394 H   0  0  0  0  0  0  0  0  0  0  0  0
    1.4053   -1.9067    1.4003 H   0  0  0  0  0  0  0  0  0  0  0  0
  1  2  1  0
  2  3  1  0
  3  4  1  0
  4  5  1  0
  5  6  1  0
  6  7  1  0
  7  8  1  0
  7  9  1  0
  7  2  1  0
  6  4  1  0
  1 10  1  0
  1 11  1  0
  1 12  1  0
  2 13  1  0
  3 14  1  0
  3 15  1  0
  4 16  1  0
  6 17  1  0
  8 18  1  0
  8 19  1  0
  8 20  1  0
  9 21  1  0
M  END
