
     RDKit          3D

 23 24  0  0  0  0  0  0  0  0999 V2000
   -1.1044   -1.8693   -0.2243 C   0  0  0  0  0  0  0  0  0  0  0  0
   -0.4933   -0.5247   -0.5878 C   0  0  0  0  0  0  0  0  0  0  0  0
   -1.5937    0.4976   -0.5222 C   0  0  0  0  0  0  0  0  0  0  0  0
   -1.1604    1.8889   -0.4918 C   0  0  0  0  0  0  0  0  0  0  0  0
    0.0013    2.2188    0.0264 C   0  0  0  0  0  0  0  0  0  0  0  0
    0.8908    1.2181    0.5841 C   0  0  0  0  0  0  0  0  0  0  0  0
    1.8122    0.5344   -0.4724 C   0  0  0  0  0  0  0  0  0  0  0  0
    0.6951   -0.1846    0.2480 C   0  0  0  0  0  0  0  0  0  0  0  0
    1.1804   -1.2468    1.2088 C   0  0  0  0  0  0  0  0  0  0  0  0
   -1.9726   -2.0127   -0.9200 H   0  0  0  0  0  0  0  0  0  0  0  0
   -1.5344   -1.8650    0.7971 H   0  0  0  0  0  0  0  0  0  0  0  0
   -0.4171   -2.7073   -0.4015 H   0  0  0  0  0  0  0  0  0  0  0  0
   -0.1563   -0.6104   -1.6415 H   0  0  0  0  0  0  0  0  0  0  0  0
   -2.2807    0.3176   -1.4010 H   0  0  0  0  0  0  0  0  0  0  0  0
   -2.2514    0.3125    0.3730 H   0  0  0  0  0  0  0  0  0  0  0  0
   -1.8379    2.6498   -0.9165 H   0  0  0  0  0  0  0  0  0  0  0  0
    0.2996    3.2615    0.0363 H   0  0  0  0  0  0  0  0  0  0  0  0
    1.3607    1.4511    1.5581 H   0  0  0  0  0  0  0  0  0  0  0  0
    2.8556    0.4064   -0.1323 H   0  0  0  0  0  0  0  0  0  0  0  0
    1.6774    0.8328   -1.5232 H   0  0  0  0  0  0  0  0  0  0  0  0
    1.8195   -2.0019    0.6637 H   0  0  0  0  0  0  0  0  0  0  0  0
    1.8500   -0.8133    1.9966 H   0  0  0  0  0  0  0  0  0  0  0  0
    0.3598   -1.7536    1.7421 H   0  0  0  0  0  0  0  0  0  0  0  0
  1  2  1  0
  2  3  1  0
  3  4  1  0
  4  5  2  0
  5  6  1  0
  6  7  1  0
  7  8  1  0
  8  9  1  0
  8  2  1  0
  8  6  1  0
  1 10  1  0
  1 11  1  0
  1 12  1  0
  2 13  1  0
  3 14  1  0
  3 15  1  0
  4 16  1  0
  5 17  1  0
  6 18  1  0
  7 19  1  0
  7 20  1  0
  9 21  1  0
  9 22  1  0
  9 23  1  0
M  END
