
     RDKit          3D

 21 23  0  0  0  0  0  0  0  0999 V2000
    0.7990   -1.8485    0.2538 C   0  0  0  0  0  0  0  0  0  0  0  0
    0.3939   -0.7241   -0.6152 C   0  0  0  0  0  0  0  0  0  0  0  0
    1.2180    0.5357   -0.5517 C   0  0  0  0  0  0  0  0  0  0  0  0
    1.7279    1.2258    0.5667 C   0  0  0  0  0  0  0  0  0  0  0  0
    0.4495    0.6498    0.8324 C   0  0  0  0  0  0  0  0  0  0  0  0
   -0.6433    0.2237   -0.0865 C   0  0  0  0  0  0  0  0  0  0  0  0
   -1.9019   -0.2482    0.4388 C   0  0  0  0  0  0  0  0  0  0  0  0
   -2.5637    0.6833   -0.4015 O   0  0  0  0  0  0  0  0  0  0  0  0
   -1.3383    1.1398   -0.9489 C   0  0  0  0  0  0  0  0  0  0  0  0
    0.9358   -2.7738   -0.3602 H   0  0  0  0  0  0  0  0  0  0  0  0
    1.7794   -1.7082    0.7708 H   0  0  0  0  0  0  0  0  0  0  0  0
   -0.0149   -2.1170    0.9816 H   0  0  0  0  0  0  0  0  0  0  0  0
    0.1368   -1.0441   -1.6401 H   0  0  0  0  0  0  0  0  0  0  0  0
    0.7845    1.2462   -1.3325 H   0  0  0  0  0  0  0  0  0  0  0  0
    1.7666    2.3580    0.6286 H   0  0  0  0  0  0  0  0  0  0  0  0
    2.7162    0.8503    0.9834 H   0  0  0  0  0  0  0  0  0  0  0  0
    0.5790   -0.2435    1.5260 H   0  0  0  0  0  0  0  0  0  0  0  0
   -2.2158   -1.2939    0.2789 H   0  0  0  0  0  0  0  0  0  0  0  0
   -2.0580    0.0320    1.5168 H   0  0  0  0  0  0  0  0  0  0  0  0
   -1.2414    2.2263   -0.8064 H   0  0  0  0  0  0  0  0  0  0  0  0
   -1.3092    0.8303   -2.0347 H   0  0  0  0  0  0  0  0  0  0  0  0
  1  2  1  0
  2  3  1  0
  3  4  1  0
  4  5  1  0
  5  6  1  0
  6  7  1  0
  7  8  1  0
  8  9  1  0
  6  2  1  0
  5  3  1  0
  9  6  1  0
  1 10  1  0
  1 11  1  0
  1 12  1  0
  2 13  1  0
  3 14  1  0
  4 15  1  0
  4 16  1  0
  5 17  1  0
  7 18  1  0
  7 19  1  0
  9 20  1  0
  9 21  1  0
M  END
