
     RDKit          3D

 19 19  0  0  0  0  0  0  0  0999 V2000
   -0.9041    1.4403   -0.4189 C   0  0  0  0  0  0  0  0  0  0  0  0
   -0.0389    0.2134   -0.5646 C   0  0  0  0  0  0  0  0  0  0  0  0
   -0.7667   -0.9883   -0.0093 C   0  0  0  0  0  0  0  0  0  0  0  0
   -2.1288   -0.9212   -0.1726 O   0  0  0  0  0  0  0  0  0  0  0  0
   -0.3711   -0.8608    1.4657 C   0  0  0  0  0  0  0  0  0  0  0  0
    1.0246   -0.6909    1.3088 O   0  0  0  0  0  0  0  0  0  0  0  0
    1.1799    0.2622    0.3157 C   0  0  0  0  0  0  0  0  0  0  0  0
    2.3567   -0.0281   -0.5395 C   0  0  0  0  0  0  0  0  0  0  0  0
    2.6293    0.7103   -1.4531 O   0  0  0  0  0  0  0  0  0  0  0  0
   -1.7513    1.3158   -1.1415 H   0  0  0  0  0  0  0  0  0  0  0  0
   -1.3585    1.5482    0.5720 H   0  0  0  0  0  0  0  0  0  0  0  0
   -0.3293    2.3287   -0.6765 H   0  0  0  0  0  0  0  0  0  0  0  0
    0.1821    0.0571   -1.6211 H   0  0  0  0  0  0  0  0  0  0  0  0
   -0.3054   -1.8991   -0.4018 H   0  0  0  0  0  0  0  0  0  0  0  0
   -2.3369   -1.1581   -1.1019 H   0  0  0  0  0  0  0  0  0  0  0  0
   -0.5969   -1.7522    2.0373 H   0  0  0  0  0  0  0  0  0  0  0  0
   -0.7352    0.0760    1.9086 H   0  0  0  0  0  0  0  0  0  0  0  0
    1.2825    1.2420    0.8401 H   0  0  0  0  0  0  0  0  0  0  0  0
    2.9680   -0.8953   -0.3474 H   0  0  0  0  0  0  0  0  0  0  0  0
  1  2  1  0
  2  3  1  0
  3  4  1  0
  3  5  1  0
  5  6  1  0
  6  7  1  0
  7  8  1  0
  8  9  2  0
  7  2  1  0
  1 10  1  0
  1 11  1  0
  1 12  1  0
  2 13  1  0
  3 14  1  0
  4 15  1  0
  5 16  1  0
  5 17  1  0
  7 18  1  0
  8 19  1  0
M  END
