
     RDKit          3D

 19 20  0  0  0  0  0  0  0  0999 V2000
    2.0909    0.6154    0.2673 C   0  0  0  0  0  0  0  0  0  0  0  0
    0.9815   -0.3725    0.0979 C   0  0  0  0  0  0  0  0  0  0  0  0
    0.3267   -0.3184   -1.2232 C   0  0  0  0  0  0  0  0  0  0  0  0
    0.8391   -0.1725   -2.2866 O   0  0  0  0  0  0  0  0  0  0  0  0
   -1.1211   -0.4819   -0.9915 C   0  0  0  0  0  0  0  0  0  0  0  0
   -1.6251    0.8569   -0.5506 C   0  0  0  0  0  0  0  0  0  0  0  0
   -0.9519    1.0995    0.5880 C   0  0  0  0  0  0  0  0  0  0  0  0
   -0.1973   -0.1194    1.0064 C   0  0  0  0  0  0  0  0  0  0  0  0
   -1.1243   -1.1866    0.3850 C   0  0  0  0  0  0  0  0  0  0  0  0
    1.7909    1.6618    0.1366 H   0  0  0  0  0  0  0  0  0  0  0  0
    2.8510    0.3897   -0.5105 H   0  0  0  0  0  0  0  0  0  0  0  0
    2.5724    0.4205    1.2434 H   0  0  0  0  0  0  0  0  0  0  0  0
    1.3577   -1.3748    0.3086 H   0  0  0  0  0  0  0  0  0  0  0  0
   -1.6907   -0.9753   -1.7324 H   0  0  0  0  0  0  0  0  0  0  0  0
   -2.3565    1.4566   -1.0532 H   0  0  0  0  0  0  0  0  0  0  0  0
   -0.9928    2.0616    1.0809 H   0  0  0  0  0  0  0  0  0  0  0  0
   -0.0373   -0.2397    2.0521 H   0  0  0  0  0  0  0  0  0  0  0  0
   -0.6042   -2.1391    0.3422 H   0  0  0  0  0  0  0  0  0  0  0  0
   -2.1092   -1.1817    0.8394 H   0  0  0  0  0  0  0  0  0  0  0  0
  1  2  1  0
  2  3  1  0
  3  4  2  0
  3  5  1  0
  5  6  1  0
  6  7  2  0
  7  8  1  0
  8  9  1  0
  8  2  1  0
  9  5  1  0
  1 10  1  0
  1 11  1  0
  1 12  1  0
  2 13  1  0
  5 14  1  0
  6 15  1  0
  7 16  1  0
  8 17  1  0
  9 18  1  0
  9 19  1  0
M  END
