
     RDKit          3D

 23 24  0  0  0  0  0  0  0  0999 V2000
   -1.0413    1.6000    0.5730 C   0  0  0  0  0  0  0  0  0  0  0  0
   -0.4504    0.2161    0.6448 C   0  0  0  0  0  0  0  0  0  0  0  0
    0.8713    0.0174   -0.0018 C   0  0  0  0  0  0  0  0  0  0  0  0
    1.8718   -0.6885    0.9221 C   0  0  0  0  0  0  0  0  0  0  0  0
    1.4827    1.1725   -0.7150 C   0  0  0  0  0  0  0  0  0  0  0  0
    0.2097   -0.9560   -0.9741 C   0  0  0  0  0  0  0  0  0  0  0  0
   -1.1002   -0.6983   -0.3293 C   0  0  0  0  0  0  0  0  0  0  0  0
   -2.1786   -1.5161   -0.1316 C   0  0  0  0  0  0  0  0  0  0  0  0
   -2.2140   -0.3362   -1.0404 O   0  0  0  0  0  0  0  0  0  0  0  0
   -1.3208    1.8583   -0.4657 H   0  0  0  0  0  0  0  0  0  0  0  0
   -0.4089    2.3261    1.0759 H   0  0  0  0  0  0  0  0  0  0  0  0
   -2.0210    1.5441    1.1316 H   0  0  0  0  0  0  0  0  0  0  0  0
   -0.5322   -0.1635    1.6956 H   0  0  0  0  0  0  0  0  0  0  0  0
    1.7586   -0.2173    1.9218 H   0  0  0  0  0  0  0  0  0  0  0  0
    1.5931   -1.7621    0.9524 H   0  0  0  0  0  0  0  0  0  0  0  0
    2.8958   -0.5396    0.5160 H   0  0  0  0  0  0  0  0  0  0  0  0
    1.0716    2.1557   -0.4451 H   0  0  0  0  0  0  0  0  0  0  0  0
    2.5840    1.2315   -0.4724 H   0  0  0  0  0  0  0  0  0  0  0  0
    1.4440    1.0897   -1.8219 H   0  0  0  0  0  0  0  0  0  0  0  0
    0.5986   -1.9721   -0.8738 H   0  0  0  0  0  0  0  0  0  0  0  0
    0.1997   -0.5751   -2.0329 H   0  0  0  0  0  0  0  0  0  0  0  0
   -2.9398   -1.3608    0.6324 H   0  0  0  0  0  0  0  0  0  0  0  0
   -2.3738   -2.4255   -0.7618 H   0  0  0  0  0  0  0  0  0  0  0  0
  1  2  1  0
  2  3  1  0
  3  4  1  0
  3  5  1  0
  3  6  1  0
  6  7  1  0
  7  8  1  0
  8  9  1  0
  7  2  1  0
  9  7  1  0
  1 10  1  0
  1 11  1  0
  1 12  1  0
  2 13  1  0
  4 14  1  0
  4 15  1  0
  4 16  1  0
  5 17  1  0
  5 18  1  0
  5 19  1  0
  6 20  1  0
  6 21  1  0
  8 22  1  0
  8 23  1  0
M  END
