
     RDKit          3D

 23 23  0  0  0  0  0  0  0  0999 V2000
    2.2179   -0.7001   -0.5631 C   0  0  0  0  0  0  0  0  0  0  0  0
    0.7403   -0.4970   -0.5183 C   0  0  0  0  0  0  0  0  0  0  0  0
    0.1288   -1.1712    0.6672 C   0  0  0  0  0  0  0  0  0  0  0  0
   -1.1660   -1.3633    0.8698 C   0  0  0  0  0  0  0  0  0  0  0  0
   -2.3053   -0.9704   -0.0015 C   0  0  0  0  0  0  0  0  0  0  0  0
   -1.8421   -0.0594   -0.9763 O   0  0  0  0  0  0  0  0  0  0  0  0
   -1.1898    0.9995   -0.4018 C   0  0  0  0  0  0  0  0  0  0  0  0
    0.3133    0.9308   -0.5094 C   0  0  0  0  0  0  0  0  0  0  0  0
    0.8972    1.7342    0.6081 C   0  0  0  0  0  0  0  0  0  0  0  0
    2.3992   -1.8043   -0.5939 H   0  0  0  0  0  0  0  0  0  0  0  0
    2.5785   -0.3257   -1.5583 H   0  0  0  0  0  0  0  0  0  0  0  0
    2.7714   -0.3008    0.2833 H   0  0  0  0  0  0  0  0  0  0  0  0
    0.3133   -0.9663   -1.4418 H   0  0  0  0  0  0  0  0  0  0  0  0
    0.7891   -1.5393    1.4342 H   0  0  0  0  0  0  0  0  0  0  0  0
   -1.4844   -1.8667    1.7715 H   0  0  0  0  0  0  0  0  0  0  0  0
   -2.5772   -1.8903   -0.5845 H   0  0  0  0  0  0  0  0  0  0  0  0
   -3.1576   -0.5577    0.5601 H   0  0  0  0  0  0  0  0  0  0  0  0
   -1.4485    1.1451    0.6811 H   0  0  0  0  0  0  0  0  0  0  0  0
   -1.5262    1.9358   -0.9241 H   0  0  0  0  0  0  0  0  0  0  0  0
    0.5754    1.3652   -1.5076 H   0  0  0  0  0  0  0  0  0  0  0  0
    0.9170    2.8056    0.2739 H   0  0  0  0  0  0  0  0  0  0  0  0
    1.8665    1.3918    0.9728 H   0  0  0  0  0  0  0  0  0  0  0  0
    0.1891    1.7046    1.4586 H   0  0  0  0  0  0  0  0  0  0  0  0
  1  2  1  0
  2  3  1  0
  3  4  2  0
  4  5  1  0
  5  6  1  0
  6  7  1  0
  7  8  1  0
  8  9  1  0
  8  2  1  0
  1 10  1  0
  1 11  1  0
  1 12  1  0
  2 13  1  0
  3 14  1  0
  4 15  1  0
  5 16  1  0
  5 17  1  0
  7 18  1  0
  7 19  1  0
  8 20  1  0
  9 21  1  0
  9 22  1  0
  9 23  1  0
M  END
