
     RDKit          3D

 23 24  0  0  0  0  0  0  0  0999 V2000
   -2.4725   -0.4811   -0.3625 C   0  0  0  0  0  0  0  0  0  0  0  0
   -1.0587   -0.5465    0.1612 C   0  0  0  0  0  0  0  0  0  0  0  0
   -0.8134    0.5540    1.1125 C   0  0  0  0  0  0  0  0  0  0  0  0
    0.6710    0.9194    1.2912 C   0  0  0  0  0  0  0  0  0  0  0  0
    1.1923    1.0827   -0.0681 C   0  0  0  0  0  0  0  0  0  0  0  0
    2.2630    0.5072   -0.7888 C   0  0  0  0  0  0  0  0  0  0  0  0
    1.2170   -0.4086   -0.5654 C   0  0  0  0  0  0  0  0  0  0  0  0
    1.4521   -1.3955    0.4283 O   0  0  0  0  0  0  0  0  0  0  0  0
   -0.1501   -0.5602   -1.0773 C   0  0  0  0  0  0  0  0  0  0  0  0
   -2.6730   -1.4899   -0.8277 H   0  0  0  0  0  0  0  0  0  0  0  0
   -3.1635   -0.2992    0.4786 H   0  0  0  0  0  0  0  0  0  0  0  0
   -2.5472    0.2851   -1.1602 H   0  0  0  0  0  0  0  0  0  0  0  0
   -0.9535   -1.5181    0.6855 H   0  0  0  0  0  0  0  0  0  0  0  0
   -1.2825    1.4833    0.7101 H   0  0  0  0  0  0  0  0  0  0  0  0
   -1.2740    0.3001    2.0733 H   0  0  0  0  0  0  0  0  0  0  0  0
    0.7450    1.7719    1.9587 H   0  0  0  0  0  0  0  0  0  0  0  0
    1.1092    0.0403    1.8299 H   0  0  0  0  0  0  0  0  0  0  0  0
    0.5319    1.7930   -0.6523 H   0  0  0  0  0  0  0  0  0  0  0  0
    2.5053    0.9114   -1.8103 H   0  0  0  0  0  0  0  0  0  0  0  0
    3.2408    0.3497   -0.2468 H   0  0  0  0  0  0  0  0  0  0  0  0
    2.2580   -1.9034    0.1416 H   0  0  0  0  0  0  0  0  0  0  0  0
   -0.5058    0.1766   -1.7900 H   0  0  0  0  0  0  0  0  0  0  0  0
   -0.2914   -1.5721   -1.5214 H   0  0  0  0  0  0  0  0  0  0  0  0
  1  2  1  0
  2  3  1  0
  3  4  1  0
  4  5  1  0
  5  6  1  0
  6  7  1  0
  7  8  1  0
  7  9  1  0
  9  2  1  0
  7  5  1  0
  1 10  1  0
  1 11  1  0
  1 12  1  0
  2 13  1  0
  3 14  1  0
  3 15  1  0
  4 16  1  0
  4 17  1  0
  5 18  1  0
  6 19  1  0
  6 20  1  0
  8 21  1  0
  9 22  1  0
  9 23  1  0
M  END
