
     RDKit          3D

 21 23  0  0  0  0  0  0  0  0999 V2000
    2.1916   -0.9092   -0.4453 C   0  0  0  0  0  0  0  0  0  0  0  0
    1.0898    0.0669   -0.5976 C   0  0  0  0  0  0  0  0  0  0  0  0
    0.8082    0.9073    0.6042 C   0  0  0  0  0  0  0  0  0  0  0  0
   -0.6711    1.2706    0.4431 C   0  0  0  0  0  0  0  0  0  0  0  0
   -1.5676    0.0647    0.5823 C   0  0  0  0  0  0  0  0  0  0  0  0
   -0.9482   -1.2457    0.1952 C   0  0  0  0  0  0  0  0  0  0  0  0
   -0.2393   -0.5490   -0.9714 C   0  0  0  0  0  0  0  0  0  0  0  0
   -1.1570    0.6126   -0.7496 C   0  0  0  0  0  0  0  0  0  0  0  0
   -2.0242    1.0741   -1.6645 O   0  0  0  0  0  0  0  0  0  0  0  0
    2.7046   -1.0166   -1.4437 H   0  0  0  0  0  0  0  0  0  0  0  0
    1.9285   -1.8661   -0.0016 H   0  0  0  0  0  0  0  0  0  0  0  0
    2.9825   -0.4394    0.2085 H   0  0  0  0  0  0  0  0  0  0  0  0
    1.3402    0.7782   -1.4385 H   0  0  0  0  0  0  0  0  0  0  0  0
    0.9075    0.3323    1.5577 H   0  0  0  0  0  0  0  0  0  0  0  0
    1.4577    1.7800    0.6028 H   0  0  0  0  0  0  0  0  0  0  0  0
   -1.0474    2.1943    0.8741 H   0  0  0  0  0  0  0  0  0  0  0  0
   -2.6218    0.1631    0.8212 H   0  0  0  0  0  0  0  0  0  0  0  0
   -0.2768   -1.6830    0.9397 H   0  0  0  0  0  0  0  0  0  0  0  0
   -1.7402   -1.9239   -0.2043 H   0  0  0  0  0  0  0  0  0  0  0  0
   -0.2908   -1.0689   -1.9250 H   0  0  0  0  0  0  0  0  0  0  0  0
   -2.8262    1.4576   -1.1871 H   0  0  0  0  0  0  0  0  0  0  0  0
  1  2  1  0
  2  3  1  0
  3  4  1  0
  4  5  1  0
  5  6  1  0
  6  7  1  0
  7  8  1  0
  8  9  1  0
  7  2  1  0
  8  4  1  0
  8  5  1  0
  1 10  1  0
  1 11  1  0
  1 12  1  0
  2 13  1  0
  3 14  1  0
  3 15  1  0
  4 16  1  0
  5 17  1  0
  6 18  1  0
  6 19  1  0
  7 20  1  0
  9 21  1  0
M  END
