
     RDKit          3D

 21 22  0  0  0  0  0  0  0  0999 V2000
    2.5099   -0.3652    0.3511 C   0  0  0  0  0  0  0  0  0  0  0  0
    1.1514    0.1301   -0.1398 C   0  0  0  0  0  0  0  0  0  0  0  0
    0.3619    0.7062    0.9871 C   0  0  0  0  0  0  0  0  0  0  0  0
   -1.0635    0.9349    0.5261 C   0  0  0  0  0  0  0  0  0  0  0  0
   -1.1686    0.7755   -0.9956 C   0  0  0  0  0  0  0  0  0  0  0  0
   -0.8026   -0.7160   -1.0560 C   0  0  0  0  0  0  0  0  0  0  0  0
   -1.6754   -1.1790    0.1043 C   0  0  0  0  0  0  0  0  0  0  0  0
   -1.8199   -0.1219    0.9618 O   0  0  0  0  0  0  0  0  0  0  0  0
    0.5063   -0.9309   -0.7155 O   0  0  0  0  0  0  0  0  0  0  0  0
    3.1602    0.5479    0.4421 H   0  0  0  0  0  0  0  0  0  0  0  0
    2.4533   -0.8004    1.3520 H   0  0  0  0  0  0  0  0  0  0  0  0
    2.9921   -1.0044   -0.4043 H   0  0  0  0  0  0  0  0  0  0  0  0
    1.3985    0.9091   -0.9176 H   0  0  0  0  0  0  0  0  0  0  0  0
    0.8285    1.6180    1.3978 H   0  0  0  0  0  0  0  0  0  0  0  0
    0.3889   -0.0496    1.8247 H   0  0  0  0  0  0  0  0  0  0  0  0
   -1.4240    1.9092    0.8494 H   0  0  0  0  0  0  0  0  0  0  0  0
   -2.2251    0.8585   -1.2462 H   0  0  0  0  0  0  0  0  0  0  0  0
   -0.4803    1.4018   -1.5389 H   0  0  0  0  0  0  0  0  0  0  0  0
   -1.1066   -1.1725   -2.0027 H   0  0  0  0  0  0  0  0  0  0  0  0
   -2.6915   -1.3599   -0.3558 H   0  0  0  0  0  0  0  0  0  0  0  0
   -1.2935   -2.0914    0.5759 H   0  0  0  0  0  0  0  0  0  0  0  0
  1  2  1  0
  2  3  1  0
  3  4  1  0
  4  5  1  0
  5  6  1  0
  6  7  1  0
  7  8  1  0
  6  9  1  0
  9  2  1  0
  8  4  1  0
  1 10  1  0
  1 11  1  0
  1 12  1  0
  2 13  1  0
  3 14  1  0
  3 15  1  0
  4 16  1  0
  5 17  1  0
  5 18  1  0
  6 19  1  0
  7 20  1  0
  7 21  1  0
M  END
