
     RDKit          3D

 19 21  0  0  0  0  0  0  0  0999 V2000
    2.1674   -1.0569   -0.3768 C   0  0  0  0  0  0  0  0  0  0  0  0
    0.9362   -0.2355   -0.3285 C   0  0  0  0  0  0  0  0  0  0  0  0
    0.9072    0.8946    0.6510 C   0  0  0  0  0  0  0  0  0  0  0  0
    0.6095   -0.0727    1.6387 O   0  0  0  0  0  0  0  0  0  0  0  0
   -0.1224   -0.7194    0.6141 C   0  0  0  0  0  0  0  0  0  0  0  0
   -1.2718    0.2384    0.4419 C   0  0  0  0  0  0  0  0  0  0  0  0
   -2.3142    0.0450   -0.5777 C   0  0  0  0  0  0  0  0  0  0  0  0
   -1.4612    1.2584    1.3475 O   0  0  0  0  0  0  0  0  0  0  0  0
   -0.4462    1.5380    0.4570 C   0  0  0  0  0  0  0  0  0  0  0  0
    2.2831   -1.7522    0.4733 H   0  0  0  0  0  0  0  0  0  0  0  0
    2.1514   -1.6818   -1.2925 H   0  0  0  0  0  0  0  0  0  0  0  0
    3.1137   -0.4594   -0.4282 H   0  0  0  0  0  0  0  0  0  0  0  0
    0.5215    0.0354   -1.3418 H   0  0  0  0  0  0  0  0  0  0  0  0
    1.7622    1.5069    0.8000 H   0  0  0  0  0  0  0  0  0  0  0  0
   -0.3112   -1.7598    0.7261 H   0  0  0  0  0  0  0  0  0  0  0  0
   -2.8595    1.0128   -0.7235 H   0  0  0  0  0  0  0  0  0  0  0  0
   -3.0653   -0.6972   -0.1755 H   0  0  0  0  0  0  0  0  0  0  0  0
   -1.9952   -0.3444   -1.5463 H   0  0  0  0  0  0  0  0  0  0  0  0
   -0.6052    2.2499   -0.3588 H   0  0  0  0  0  0  0  0  0  0  0  0
  1  2  1  0
  2  3  1  0
  3  4  1  0
  4  5  1  0
  5  6  1  0
  6  7  1  0
  6  8  1  0
  8  9  1  0
  5  2  1  0
  9  6  1  0
  9  3  1  0
  1 10  1  0
  1 11  1  0
  1 12  1  0
  2 13  1  0
  3 14  1  0
  5 15  1  0
  7 16  1  0
  7 17  1  0
  7 18  1  0
  9 19  1  0
M  END
