
     RDKit          3D

 19 19  0  0  0  0  0  0  0  0999 V2000
    2.3123    0.3286    0.1978 C   0  0  0  0  0  0  0  0  0  0  0  0
    1.0939   -0.2328   -0.5112 C   0  0  0  0  0  0  0  0  0  0  0  0
    0.5512   -1.4220    0.2440 C   0  0  0  0  0  0  0  0  0  0  0  0
   -0.9079   -1.1694    0.2525 C   0  0  0  0  0  0  0  0  0  0  0  0
   -1.7651   -2.0087    0.1747 O   0  0  0  0  0  0  0  0  0  0  0  0
   -1.0629    0.2922    0.3736 C   0  0  0  0  0  0  0  0  0  0  0  0
   -2.3675    0.8032   -0.1778 C   0  0  0  0  0  0  0  0  0  0  0  0
    0.0231    0.7903   -0.5150 C   0  0  0  0  0  0  0  0  0  0  0  0
    0.0152    1.8272   -1.1132 O   0  0  0  0  0  0  0  0  0  0  0  0
    2.4396    1.4253   -0.0278 H   0  0  0  0  0  0  0  0  0  0  0  0
    2.2187    0.2022    1.2923 H   0  0  0  0  0  0  0  0  0  0  0  0
    3.2245   -0.2126   -0.1430 H   0  0  0  0  0  0  0  0  0  0  0  0
    1.3906   -0.4833   -1.5489 H   0  0  0  0  0  0  0  0  0  0  0  0
    0.9053   -1.3344    1.2844 H   0  0  0  0  0  0  0  0  0  0  0  0
    0.8182   -2.3866   -0.2268 H   0  0  0  0  0  0  0  0  0  0  0  0
   -0.9144    0.6410    1.4307 H   0  0  0  0  0  0  0  0  0  0  0  0
   -2.3832    1.9023    0.0115 H   0  0  0  0  0  0  0  0  0  0  0  0
   -2.3433    0.6848   -1.2891 H   0  0  0  0  0  0  0  0  0  0  0  0
   -3.2483    0.3527    0.2915 H   0  0  0  0  0  0  0  0  0  0  0  0
  1  2  1  0
  2  3  1  0
  3  4  1  0
  4  5  2  0
  4  6  1  0
  6  7  1  0
  6  8  1  0
  8  9  2  0
  8  2  1  0
  1 10  1  0
  1 11  1  0
  1 12  1  0
  2 13  1  0
  3 14  1  0
  3 15  1  0
  6 16  1  0
  7 17  1  0
  7 18  1  0
  7 19  1  0
M  END
