
     RDKit          3D

 23 24  0  0  0  0  0  0  0  0999 V2000
   -2.3766   -0.6093    0.6453 C   0  0  0  0  0  0  0  0  0  0  0  0
   -1.4079   -0.3832   -0.5167 C   0  0  0  0  0  0  0  0  0  0  0  0
   -0.9789    1.0740   -0.4186 C   0  0  0  0  0  0  0  0  0  0  0  0
    0.3321    0.9905    0.3175 C   0  0  0  0  0  0  0  0  0  0  0  0
    1.4233    1.5919   -0.5363 C   0  0  0  0  0  0  0  0  0  0  0  0
    1.3354    0.4215   -1.3296 O   0  0  0  0  0  0  0  0  0  0  0  0
    0.9475   -0.2473   -0.1970 C   0  0  0  0  0  0  0  0  0  0  0  0
    2.1205   -0.8236    0.5305 C   0  0  0  0  0  0  0  0  0  0  0  0
   -0.1814   -1.2138   -0.3113 C   0  0  0  0  0  0  0  0  0  0  0  0
   -3.3950   -0.3113    0.3576 H   0  0  0  0  0  0  0  0  0  0  0  0
   -2.2633   -1.6511    0.9507 H   0  0  0  0  0  0  0  0  0  0  0  0
   -2.0362    0.0391    1.4961 H   0  0  0  0  0  0  0  0  0  0  0  0
   -1.8766   -0.6123   -1.4895 H   0  0  0  0  0  0  0  0  0  0  0  0
   -0.8732    1.4557   -1.4542 H   0  0  0  0  0  0  0  0  0  0  0  0
   -1.7119    1.6851    0.1099 H   0  0  0  0  0  0  0  0  0  0  0  0
    0.3382    1.2120    1.3709 H   0  0  0  0  0  0  0  0  0  0  0  0
    2.3788    1.7155   -0.0200 H   0  0  0  0  0  0  0  0  0  0  0  0
    1.1388    2.5010   -1.1049 H   0  0  0  0  0  0  0  0  0  0  0  0
    1.8822   -1.2119    1.5394 H   0  0  0  0  0  0  0  0  0  0  0  0
    3.0078   -0.1475    0.5243 H   0  0  0  0  0  0  0  0  0  0  0  0
    2.4524   -1.7257   -0.0604 H   0  0  0  0  0  0  0  0  0  0  0  0
   -0.0153   -1.9836   -1.0740 H   0  0  0  0  0  0  0  0  0  0  0  0
   -0.2408   -1.7658    0.6702 H   0  0  0  0  0  0  0  0  0  0  0  0
  1  2  1  0
  2  3  1  0
  3  4  1  0
  4  5  1  0
  5  6  1  0
  6  7  1  0
  7  8  1  0
  7  9  1  0
  9  2  1  0
  7  4  1  0
  1 10  1  0
  1 11  1  0
  1 12  1  0
  2 13  1  0
  3 14  1  0
  3 15  1  0
  4 16  1  0
  5 17  1  0
  5 18  1  0
  8 19  1  0
  8 20  1  0
  8 21  1  0
  9 22  1  0
  9 23  1  0
M  END
