
     RDKit          3D

 21 22  0  0  0  0  0  0  0  0999 V2000
    2.1384   -0.2627   -0.0042 C   0  0  0  0  0  0  0  0  0  0  0  0
    0.6883   -0.5799   -0.0387 C   0  0  0  0  0  0  0  0  0  0  0  0
   -0.0861    0.1261   -1.1390 C   0  0  0  0  0  0  0  0  0  0  0  0
   -1.4622   -0.4534   -1.2967 C   0  0  0  0  0  0  0  0  0  0  0  0
   -2.1793   -0.4975   -0.1441 O   0  0  0  0  0  0  0  0  0  0  0  0
   -1.4692   -0.5141    1.0212 C   0  0  0  0  0  0  0  0  0  0  0  0
   -0.1760    0.2416    0.9285 C   0  0  0  0  0  0  0  0  0  0  0  0
    0.4309    0.6065    2.0911 O   0  0  0  0  0  0  0  0  0  0  0  0
   -0.2208    1.3038   -0.1670 C   0  0  0  0  0  0  0  0  0  0  0  0
    2.5737   -0.4967   -0.9996 H   0  0  0  0  0  0  0  0  0  0  0  0
    2.6236   -0.9919    0.7083 H   0  0  0  0  0  0  0  0  0  0  0  0
    2.4002    0.7517    0.2956 H   0  0  0  0  0  0  0  0  0  0  0  0
    0.4941   -1.6700    0.0418 H   0  0  0  0  0  0  0  0  0  0  0  0
    0.4442    0.3307   -2.0562 H   0  0  0  0  0  0  0  0  0  0  0  0
   -1.4278   -1.4351   -1.8542 H   0  0  0  0  0  0  0  0  0  0  0  0
   -2.0103    0.2312   -2.0105 H   0  0  0  0  0  0  0  0  0  0  0  0
   -2.0946   -0.2107    1.8779 H   0  0  0  0  0  0  0  0  0  0  0  0
   -1.1912   -1.5905    1.2243 H   0  0  0  0  0  0  0  0  0  0  0  0
    1.0481    1.3596    1.9251 H   0  0  0  0  0  0  0  0  0  0  0  0
    0.6504    1.9469   -0.1008 H   0  0  0  0  0  0  0  0  0  0  0  0
   -1.1744    1.8045   -0.3031 H   0  0  0  0  0  0  0  0  0  0  0  0
  1  2  1  0
  2  3  1  0
  3  4  1  0
  4  5  1  0
  5  6  1  0
  6  7  1  0
  7  8  1  0
  7  9  1  0
  7  2  1  0
  9  3  1  0
  1 10  1  0
  1 11  1  0
  1 12  1  0
  2 13  1  0
  3 14  1  0
  4 15  1  0
  4 16  1  0
  6 17  1  0
  6 18  1  0
  8 19  1  0
  9 20  1  0
  9 21  1  0
M  END
