
     RDKit          3D

 21 22  0  0  0  0  0  0  0  0999 V2000
    2.3597    0.3035   -0.1218 C   0  0  0  0  0  0  0  0  0  0  0  0
    1.0399   -0.3569    0.0723 C   0  0  0  0  0  0  0  0  0  0  0  0
    0.2061    0.2368    1.1650 C   0  0  0  0  0  0  0  0  0  0  0  0
   -1.2492    0.1282    0.6981 C   0  0  0  0  0  0  0  0  0  0  0  0
   -1.3992    1.1960   -0.3757 C   0  0  0  0  0  0  0  0  0  0  0  0
   -0.4014    0.9887   -1.3140 O   0  0  0  0  0  0  0  0  0  0  0  0
    0.2116   -0.2422   -1.2152 C   0  0  0  0  0  0  0  0  0  0  0  0
   -0.7148   -1.2964   -1.1424 O   0  0  0  0  0  0  0  0  0  0  0  0
   -1.4824   -1.2030    0.0126 C   0  0  0  0  0  0  0  0  0  0  0  0
    2.8078   -0.1135   -1.0596 H   0  0  0  0  0  0  0  0  0  0  0  0
    2.3228    1.3917   -0.2427 H   0  0  0  0  0  0  0  0  0  0  0  0
    3.0593    0.0056    0.6903 H   0  0  0  0  0  0  0  0  0  0  0  0
    1.2070   -1.4203    0.3125 H   0  0  0  0  0  0  0  0  0  0  0  0
    0.3825    1.3362    1.2928 H   0  0  0  0  0  0  0  0  0  0  0  0
    0.3199   -0.2250    2.1396 H   0  0  0  0  0  0  0  0  0  0  0  0
   -1.9612    0.2326    1.5152 H   0  0  0  0  0  0  0  0  0  0  0  0
   -2.3850    1.0702   -0.8413 H   0  0  0  0  0  0  0  0  0  0  0  0
   -1.3034    2.1760    0.1478 H   0  0  0  0  0  0  0  0  0  0  0  0
    0.8734   -0.3866   -2.0678 H   0  0  0  0  0  0  0  0  0  0  0  0
   -1.3427   -2.0646    0.6663 H   0  0  0  0  0  0  0  0  0  0  0  0
   -2.5506   -1.1793   -0.3317 H   0  0  0  0  0  0  0  0  0  0  0  0
  1  2  1  0
  2  3  1  0
  3  4  1  0
  4  5  1  0
  5  6  1  0
  6  7  1  0
  7  8  1  0
  8  9  1  0
  7  2  1  0
  9  4  1  0
  1 10  1  0
  1 11  1  0
  1 12  1  0
  2 13  1  0
  3 14  1  0
  3 15  1  0
  4 16  1  0
  5 17  1  0
  5 18  1  0
  7 19  1  0
  9 20  1  0
  9 21  1  0
M  END
