
     RDKit          3D

 23 25  0  0  0  0  0  0  0  0999 V2000
   -1.8373    1.3357    0.6159 C   0  0  0  0  0  0  0  0  0  0  0  0
   -1.3702    0.1330   -0.1286 C   0  0  0  0  0  0  0  0  0  0  0  0
   -1.5355   -1.1885    0.6346 C   0  0  0  0  0  0  0  0  0  0  0  0
   -0.1290   -1.5483    0.1283 C   0  0  0  0  0  0  0  0  0  0  0  0
    0.0234   -0.1652   -0.2717 C   0  0  0  0  0  0  0  0  0  0  0  0
    0.7677    0.1764   -1.5423 C   0  0  0  0  0  0  0  0  0  0  0  0
    1.9436   -0.2168   -0.6493 C   0  0  0  0  0  0  0  0  0  0  0  0
    2.4779    0.4723    0.4694 C   0  0  0  0  0  0  0  0  0  0  0  0
    1.0779    0.7052    0.3172 C   0  0  0  0  0  0  0  0  0  0  0  0
   -2.9593    1.3831    0.4921 H   0  0  0  0  0  0  0  0  0  0  0  0
   -1.4485    2.2383    0.1285 H   0  0  0  0  0  0  0  0  0  0  0  0
   -1.5721    1.3513    1.6864 H   0  0  0  0  0  0  0  0  0  0  0  0
   -1.9483    0.0432   -1.0944 H   0  0  0  0  0  0  0  0  0  0  0  0
   -1.5315   -1.0012    1.7300 H   0  0  0  0  0  0  0  0  0  0  0  0
   -2.3238   -1.8404    0.2512 H   0  0  0  0  0  0  0  0  0  0  0  0
   -0.2156   -2.2830   -0.7196 H   0  0  0  0  0  0  0  0  0  0  0  0
    0.4556   -1.9702    0.9463 H   0  0  0  0  0  0  0  0  0  0  0  0
    0.7390    1.2600   -1.7181 H   0  0  0  0  0  0  0  0  0  0  0  0
    0.6435   -0.4878   -2.3902 H   0  0  0  0  0  0  0  0  0  0  0  0
    1.8026   -1.3294   -0.4528 H   0  0  0  0  0  0  0  0  0  0  0  0
    2.7745   -0.0603    1.4247 H   0  0  0  0  0  0  0  0  0  0  0  0
    3.2772    1.2462    0.2518 H   0  0  0  0  0  0  0  0  0  0  0  0
    0.8882    1.7465   -0.1094 H   0  0  0  0  0  0  0  0  0  0  0  0
  1  2  1  0
  2  3  1  0
  3  4  1  0
  4  5  1  0
  5  6  1  0
  6  7  1  0
  7  8  1  0
  8  9  1  0
  5  2  1  0
  9  7  1  0
  9  5  1  0
  1 10  1  0
  1 11  1  0
  1 12  1  0
  2 13  1  0
  3 14  1  0
  3 15  1  0
  4 16  1  0
  4 17  1  0
  6 18  1  0
  6 19  1  0
  7 20  1  0
  8 21  1  0
  8 22  1  0
  9 23  1  0
M  END
