
     RDKit          3D

 21 22  0  0  0  0  0  0  0  0999 V2000
    2.6361   -0.1248    0.7691 C   0  0  0  0  0  0  0  0  0  0  0  0
    1.4615    0.0951   -0.1351 C   0  0  0  0  0  0  0  0  0  0  0  0
    0.3792   -0.9529    0.1604 C   0  0  0  0  0  0  0  0  0  0  0  0
   -0.6060    0.1697    0.0726 C   0  0  0  0  0  0  0  0  0  0  0  0
   -1.3974    0.3055   -1.1663 C   0  0  0  0  0  0  0  0  0  0  0  0
   -2.5235   -0.3809   -0.3791 C   0  0  0  0  0  0  0  0  0  0  0  0
   -1.8105    0.1014    0.8650 C   0  0  0  0  0  0  0  0  0  0  0  0
   -2.2837    0.2826    1.9830 O   0  0  0  0  0  0  0  0  0  0  0  0
    0.4567    1.1344    0.3810 C   0  0  0  0  0  0  0  0  0  0  0  0
    2.3759   -0.7595    1.6532 H   0  0  0  0  0  0  0  0  0  0  0  0
    3.1383    0.8121    1.0842 H   0  0  0  0  0  0  0  0  0  0  0  0
    3.3904   -0.7029    0.2015 H   0  0  0  0  0  0  0  0  0  0  0  0
    1.6652    0.1563   -1.2051 H   0  0  0  0  0  0  0  0  0  0  0  0
    0.4886   -1.4261    1.1532 H   0  0  0  0  0  0  0  0  0  0  0  0
    0.2247   -1.6694   -0.6625 H   0  0  0  0  0  0  0  0  0  0  0  0
   -1.7108    1.3332   -1.3959 H   0  0  0  0  0  0  0  0  0  0  0  0
   -1.0609   -0.2686   -2.0544 H   0  0  0  0  0  0  0  0  0  0  0  0
   -2.4057   -1.4824   -0.4979 H   0  0  0  0  0  0  0  0  0  0  0  0
   -3.5143    0.0352   -0.5311 H   0  0  0  0  0  0  0  0  0  0  0  0
    0.4976    2.0907   -0.1511 H   0  0  0  0  0  0  0  0  0  0  0  0
    0.5984    1.2514    1.4868 H   0  0  0  0  0  0  0  0  0  0  0  0
  1  2  1  0
  2  3  1  0
  3  4  1  0
  4  5  1  0
  5  6  1  0
  6  7  1  0
  7  8  2  0
  4  9  1  0
  9  2  1  0
  7  4  1  0
  1 10  1  0
  1 11  1  0
  1 12  1  0
  2 13  1  0
  3 14  1  0
  3 15  1  0
  5 16  1  0
  5 17  1  0
  6 18  1  0
  6 19  1  0
  9 20  1  0
  9 21  1  0
M  END
