
     RDKit          3D

 20 21  0  0  0  0  0  0  0  0999 V2000
    1.8876   -0.9381   -0.0237 C   0  0  0  0  0  0  0  0  0  0  0  0
    0.8582    0.0343    0.5548 C   0  0  0  0  0  0  0  0  0  0  0  0
    0.8204    1.2507   -0.3052 C   0  0  0  0  0  0  0  0  0  0  0  0
   -0.2947    1.3891   -1.0796 O   0  0  0  0  0  0  0  0  0  0  0  0
   -1.3797    0.6493   -0.7120 C   0  0  0  0  0  0  0  0  0  0  0  0
   -1.5392    0.4977    0.7895 C   0  0  0  0  0  0  0  0  0  0  0  0
   -0.4882   -0.6092    0.6754 C   0  0  0  0  0  0  0  0  0  0  0  0
   -1.0850   -0.8594   -0.7124 C   0  0  0  0  0  0  0  0  0  0  0  0
    1.6159   -1.1689   -1.0759 H   0  0  0  0  0  0  0  0  0  0  0  0
    2.8496   -0.3791   -0.0793 H   0  0  0  0  0  0  0  0  0  0  0  0
    1.9391   -1.8223    0.6176 H   0  0  0  0  0  0  0  0  0  0  0  0
    1.2125    0.2519    1.5914 H   0  0  0  0  0  0  0  0  0  0  0  0
    0.9540    2.1381    0.3576 H   0  0  0  0  0  0  0  0  0  0  0  0
    1.7125    1.2734   -0.9902 H   0  0  0  0  0  0  0  0  0  0  0  0
   -2.2742    0.9250   -1.2688 H   0  0  0  0  0  0  0  0  0  0  0  0
   -2.5340    0.0375    0.9952 H   0  0  0  0  0  0  0  0  0  0  0  0
   -1.2583    1.3516    1.3978 H   0  0  0  0  0  0  0  0  0  0  0  0
   -0.5794   -1.4228    1.3819 H   0  0  0  0  0  0  0  0  0  0  0  0
   -0.3847   -1.1898   -1.4722 H   0  0  0  0  0  0  0  0  0  0  0  0
   -2.0324   -1.4089   -0.6419 H   0  0  0  0  0  0  0  0  0  0  0  0
  1  2  1  0
  2  3  1  0
  3  4  1  0
  4  5  1  0
  5  6  1  0
  6  7  1  0
  7  8  1  0
  7  2  1  0
  8  5  1  0
  1  9  1  0
  1 10  1  0
  1 11  1  0
  2 12  1  0
  3 13  1  0
  3 14  1  0
  5 15  1  0
  6 16  1  0
  6 17  1  0
  7 18  1  0
  8 19  1  0
  8 20  1  0
M  END
