
     RDKit          3D

 23 25  0  0  0  0  0  0  0  0999 V2000
   -2.6784   -1.1489   -0.1240 C   0  0  0  0  0  0  0  0  0  0  0  0
   -1.4056   -0.4603   -0.6538 C   0  0  0  0  0  0  0  0  0  0  0  0
   -0.0726   -0.8800   -0.3254 C   0  0  0  0  0  0  0  0  0  0  0  0
    1.1086   -0.1382    0.1781 C   0  0  0  0  0  0  0  0  0  0  0  0
    2.0815    0.6448   -0.4331 C   0  0  0  0  0  0  0  0  0  0  0  0
    2.4215   -0.7185    0.2597 C   0  0  0  0  0  0  0  0  0  0  0  0
    0.2087    0.1411    1.3537 C   0  0  0  0  0  0  0  0  0  0  0  0
   -0.7630    0.4358    0.2336 C   0  0  0  0  0  0  0  0  0  0  0  0
   -0.3179    1.7318   -0.4712 C   0  0  0  0  0  0  0  0  0  0  0  0
   -3.3796   -0.4343    0.3064 H   0  0  0  0  0  0  0  0  0  0  0  0
   -2.2958   -1.8485    0.6706 H   0  0  0  0  0  0  0  0  0  0  0  0
   -3.1529   -1.7697   -0.8800 H   0  0  0  0  0  0  0  0  0  0  0  0
   -1.5670   -0.2384   -1.7528 H   0  0  0  0  0  0  0  0  0  0  0  0
   -0.1429   -1.7762    0.3777 H   0  0  0  0  0  0  0  0  0  0  0  0
    2.2731    0.6514   -1.5111 H   0  0  0  0  0  0  0  0  0  0  0  0
    2.5310    1.5235    0.0870 H   0  0  0  0  0  0  0  0  0  0  0  0
    2.6755   -1.5491   -0.4299 H   0  0  0  0  0  0  0  0  0  0  0  0
    2.9718   -0.6421    1.2222 H   0  0  0  0  0  0  0  0  0  0  0  0
   -0.0294   -0.7611    1.9509 H   0  0  0  0  0  0  0  0  0  0  0  0
    0.4859    1.0326    1.9180 H   0  0  0  0  0  0  0  0  0  0  0  0
   -1.2905    2.2915   -0.6261 H   0  0  0  0  0  0  0  0  0  0  0  0
    0.0443    1.5316   -1.4914 H   0  0  0  0  0  0  0  0  0  0  0  0
    0.2937    2.3811    0.1409 H   0  0  0  0  0  0  0  0  0  0  0  0
  1  2  1  0
  2  3  1  0
  3  4  1  0
  4  5  1  0
  5  6  1  0
  4  7  1  0
  7  8  1  0
  8  9  1  0
  8  2  1  0
  8  3  1  0
  6  4  1  0
  1 10  1  0
  1 11  1  0
  1 12  1  0
  2 13  1  0
  3 14  1  0
  5 15  1  0
  5 16  1  0
  6 17  1  0
  6 18  1  0
  7 19  1  0
  7 20  1  0
  9 21  1  0
  9 22  1  0
  9 23  1  0
M  END
