
     RDKit          3D

 19 21  0  0  0  0  0  0  0  0999 V2000
    2.4004    0.5777   -0.0916 C   0  0  0  0  0  0  0  0  0  0  0  0
    0.9473    0.7377    0.2132 C   0  0  0  0  0  0  0  0  0  0  0  0
    0.0120    0.4204   -0.9089 C   0  0  0  0  0  0  0  0  0  0  0  0
   -1.4495    0.7422   -0.7072 C   0  0  0  0  0  0  0  0  0  0  0  0
   -2.1172   -0.5779   -0.4850 C   0  0  0  0  0  0  0  0  0  0  0  0
   -1.2952   -0.4701    0.7609 C   0  0  0  0  0  0  0  0  0  0  0  0
   -1.5237    0.9251    0.6942 O   0  0  0  0  0  0  0  0  0  0  0  0
    0.1508   -0.5295    0.3362 C   0  0  0  0  0  0  0  0  0  0  0  0
    0.7758   -1.7317    0.1266 O   0  0  0  0  0  0  0  0  0  0  0  0
    2.9919    0.8101    0.8173 H   0  0  0  0  0  0  0  0  0  0  0  0
    2.6052   -0.4733   -0.4163 H   0  0  0  0  0  0  0  0  0  0  0  0
    2.7276    1.2060   -0.9706 H   0  0  0  0  0  0  0  0  0  0  0  0
    0.6293    1.6067    0.8318 H   0  0  0  0  0  0  0  0  0  0  0  0
    0.3661   -0.0137   -1.8480 H   0  0  0  0  0  0  0  0  0  0  0  0
   -1.9095    1.4823   -1.3215 H   0  0  0  0  0  0  0  0  0  0  0  0
   -1.8664   -1.3707   -1.1930 H   0  0  0  0  0  0  0  0  0  0  0  0
   -3.1865   -0.4606   -0.2694 H   0  0  0  0  0  0  0  0  0  0  0  0
   -1.6005   -0.9731    1.6513 H   0  0  0  0  0  0  0  0  0  0  0  0
    1.3422   -1.9074    0.9454 H   0  0  0  0  0  0  0  0  0  0  0  0
  1  2  1  0
  2  3  1  0
  3  4  1  0
  4  5  1  0
  5  6  1  0
  6  7  1  0
  6  8  1  0
  8  9  1  0
  8  2  1  0
  8  3  1  0
  7  4  1  0
  1 10  1  0
  1 11  1  0
  1 12  1  0
  2 13  1  0
  3 14  1  0
  4 15  1  0
  5 16  1  0
  5 17  1  0
  6 18  1  0
  9 19  1  0
M  END
