
     RDKit          3D

 25 25  0  0  0  0  0  0  0  0999 V2000
    3.3118    0.2450   -0.7632 C   0  0  0  0  0  0  0  0  0  0  0  0
    2.5419   -0.3202    0.4063 C   0  0  0  0  0  0  0  0  0  0  0  0
    1.6369    0.6006    1.1521 C   0  0  0  0  0  0  0  0  0  0  0  0
    1.0810   -0.5387    0.3262 C   0  0  0  0  0  0  0  0  0  0  0  0
    0.2916   -0.1459   -0.8824 C   0  0  0  0  0  0  0  0  0  0  0  0
   -1.1627   -0.4790   -0.6985 C   0  0  0  0  0  0  0  0  0  0  0  0
   -1.7903    0.2143    0.4707 C   0  0  0  0  0  0  0  0  0  0  0  0
   -3.2521   -0.2247    0.5197 C   0  0  0  0  0  0  0  0  0  0  0  0
   -3.9191    0.1140   -0.6316 O   0  0  0  0  0  0  0  0  0  0  0  0
    3.3696   -0.4505   -1.6225 H   0  0  0  0  0  0  0  0  0  0  0  0
    4.3581    0.4035   -0.4139 H   0  0  0  0  0  0  0  0  0  0  0  0
    2.9355    1.2462   -1.0586 H   0  0  0  0  0  0  0  0  0  0  0  0
    3.1286   -1.0424    1.0094 H   0  0  0  0  0  0  0  0  0  0  0  0
    1.4997    0.5052    2.2460 H   0  0  0  0  0  0  0  0  0  0  0  0
    1.5850    1.6330    0.7788 H   0  0  0  0  0  0  0  0  0  0  0  0
    0.6729   -1.4177    0.8991 H   0  0  0  0  0  0  0  0  0  0  0  0
    0.6369   -0.6440   -1.8114 H   0  0  0  0  0  0  0  0  0  0  0  0
    0.3519    0.9612   -1.0413 H   0  0  0  0  0  0  0  0  0  0  0  0
   -1.2534   -1.5876   -0.4982 H   0  0  0  0  0  0  0  0  0  0  0  0
   -1.7345   -0.3003   -1.6331 H   0  0  0  0  0  0  0  0  0  0  0  0
   -1.2639   -0.1047    1.3899 H   0  0  0  0  0  0  0  0  0  0  0  0
   -1.7497    1.3030    0.4257 H   0  0  0  0  0  0  0  0  0  0  0  0
   -3.7486    0.2765    1.3839 H   0  0  0  0  0  0  0  0  0  0  0  0
   -3.3395   -1.3184    0.6712 H   0  0  0  0  0  0  0  0  0  0  0  0
   -4.1876    1.0716   -0.6822 H   0  0  0  0  0  0  0  0  0  0  0  0
  1  2  1  0
  2  3  1  0
  3  4  1  0
  4  5  1  0
  5  6  1  0
  6  7  1  0
  7  8  1  0
  8  9  1  0
  4  2  1  0
  1 10  1  0
  1 11  1  0
  1 12  1  0
  2 13  1  0
  3 14  1  0
  3 15  1  0
  4 16  1  0
  5 17  1  0
  5 18  1  0
  6 19  1  0
  6 20  1  0
  7 21  1  0
  7 22  1  0
  8 23  1  0
  8 24  1  0
  9 25  1  0
M  END
