
     RDKit          3D

 21 21  0  0  0  0  0  0  0  0999 V2000
   -2.0675    0.5791   -0.7753 C   0  0  0  0  0  0  0  0  0  0  0  0
   -1.1815    0.5742    0.4679 C   0  0  0  0  0  0  0  0  0  0  0  0
   -1.2614   -0.7638    1.0852 C   0  0  0  0  0  0  0  0  0  0  0  0
   -0.1126   -1.4931    1.1289 O   0  0  0  0  0  0  0  0  0  0  0  0
    0.7643   -1.2882    0.0931 C   0  0  0  0  0  0  0  0  0  0  0  0
    1.3125    0.1315    0.2977 C   0  0  0  0  0  0  0  0  0  0  0  0
    2.4419    0.3280   -0.6459 C   0  0  0  0  0  0  0  0  0  0  0  0
    0.1680    1.0267    0.0930 C   0  0  0  0  0  0  0  0  0  0  0  0
    0.3263    2.1171   -0.3750 O   0  0  0  0  0  0  0  0  0  0  0  0
   -1.9378   -0.3966   -1.2903 H   0  0  0  0  0  0  0  0  0  0  0  0
   -1.7981    1.3653   -1.4811 H   0  0  0  0  0  0  0  0  0  0  0  0
   -3.1526    0.6092   -0.4793 H   0  0  0  0  0  0  0  0  0  0  0  0
   -1.6348    1.3611    1.1399 H   0  0  0  0  0  0  0  0  0  0  0  0
   -1.6298   -0.6555    2.1483 H   0  0  0  0  0  0  0  0  0  0  0  0
   -2.0515   -1.4115    0.6022 H   0  0  0  0  0  0  0  0  0  0  0  0
    1.5554   -2.0275    0.0802 H   0  0  0  0  0  0  0  0  0  0  0  0
    0.2778   -1.2951   -0.9113 H   0  0  0  0  0  0  0  0  0  0  0  0
    1.6665    0.1426    1.3628 H   0  0  0  0  0  0  0  0  0  0  0  0
    2.5544    1.3886   -0.9357 H   0  0  0  0  0  0  0  0  0  0  0  0
    2.3669   -0.3524   -1.5029 H   0  0  0  0  0  0  0  0  0  0  0  0
    3.3935    0.0603   -0.1022 H   0  0  0  0  0  0  0  0  0  0  0  0
  1  2  1  0
  2  3  1  0
  3  4  1  0
  4  5  1  0
  5  6  1  0
  6  7  1  0
  6  8  1  0
  8  9  2  0
  8  2  1  0
  1 10  1  0
  1 11  1  0
  1 12  1  0
  2 13  1  0
  3 14  1  0
  3 15  1  0
  5 16  1  0
  5 17  1  0
  6 18  1  0
  7 19  1  0
  7 20  1  0
  7 21  1  0
M  END
