
     RDKit          3D

 19 19  0  0  0  0  0  0  0  0999 V2000
   -2.2258   -0.4805   -0.0455 C   0  0  0  0  0  0  0  0  0  0  0  0
   -0.7690   -0.2054   -0.1889 C   0  0  0  0  0  0  0  0  0  0  0  0
    0.0996   -1.2354    0.5111 C   0  0  0  0  0  0  0  0  0  0  0  0
    1.5228   -0.8880    0.3016 C   0  0  0  0  0  0  0  0  0  0  0  0
    2.3464   -1.7899    0.2198 O   0  0  0  0  0  0  0  0  0  0  0  0
    2.0335    0.5001    0.1814 C   0  0  0  0  0  0  0  0  0  0  0  0
    0.9446    1.4868   -0.0624 C   0  0  0  0  0  0  0  0  0  0  0  0
    1.1846    2.5135   -0.6482 O   0  0  0  0  0  0  0  0  0  0  0  0
   -0.4088    1.1422    0.4420 C   0  0  0  0  0  0  0  0  0  0  0  0
   -2.4599   -1.5603   -0.0753 H   0  0  0  0  0  0  0  0  0  0  0  0
   -2.7508   -0.0420   -0.9427 H   0  0  0  0  0  0  0  0  0  0  0  0
   -2.6919    0.0347    0.8293 H   0  0  0  0  0  0  0  0  0  0  0  0
   -0.5086   -0.2328   -1.2658 H   0  0  0  0  0  0  0  0  0  0  0  0
   -0.1014   -2.2685    0.1354 H   0  0  0  0  0  0  0  0  0  0  0  0
   -0.1291   -1.1642    1.5918 H   0  0  0  0  0  0  0  0  0  0  0  0
    2.6304    0.8097    1.0774 H   0  0  0  0  0  0  0  0  0  0  0  0
    2.7365    0.5627   -0.6739 H   0  0  0  0  0  0  0  0  0  0  0  0
   -0.2861    0.9209    1.5416 H   0  0  0  0  0  0  0  0  0  0  0  0
   -1.1671    1.8965    0.2379 H   0  0  0  0  0  0  0  0  0  0  0  0
  1  2  1  0
  2  3  1  0
  3  4  1  0
  4  5  2  0
  4  6  1  0
  6  7  1  0
  7  8  2  0
  7  9  1  0
  9  2  1  0
  1 10  1  0
  1 11  1  0
  1 12  1  0
  2 13  1  0
  3 14  1  0
  3 15  1  0
  6 16  1  0
  6 17  1  0
  9 18  1  0
  9 19  1  0
M  END
