
     RDKit          3D

 19 21  0  0  0  0  0  0  0  0999 V2000
    1.9389    0.3453    0.3675 C   0  0  0  0  0  0  0  0  0  0  0  0
    0.8121   -0.0570   -0.5678 C   0  0  0  0  0  0  0  0  0  0  0  0
    0.2009   -1.3140    0.0732 C   0  0  0  0  0  0  0  0  0  0  0  0
   -0.7921   -0.8040    1.0256 C   0  0  0  0  0  0  0  0  0  0  0  0
   -2.0721   -0.9957    1.2144 O   0  0  0  0  0  0  0  0  0  0  0  0
   -1.9256   -0.3873    0.0512 C   0  0  0  0  0  0  0  0  0  0  0  0
   -1.5101    0.9537   -0.3368 C   0  0  0  0  0  0  0  0  0  0  0  0
   -1.0848    1.1123   -1.6978 O   0  0  0  0  0  0  0  0  0  0  0  0
   -0.1129    1.0837   -0.7018 C   0  0  0  0  0  0  0  0  0  0  0  0
    2.7223    0.8426   -0.2333 H   0  0  0  0  0  0  0  0  0  0  0  0
    1.5850    1.1200    1.1084 H   0  0  0  0  0  0  0  0  0  0  0  0
    2.3148   -0.5013    0.9568 H   0  0  0  0  0  0  0  0  0  0  0  0
    1.2590   -0.4092   -1.5180 H   0  0  0  0  0  0  0  0  0  0  0  0
   -0.2186   -1.9869   -0.7151 H   0  0  0  0  0  0  0  0  0  0  0  0
    0.9960   -1.8884    0.5884 H   0  0  0  0  0  0  0  0  0  0  0  0
   -0.3666    0.0104    1.6829 H   0  0  0  0  0  0  0  0  0  0  0  0
   -2.1401   -1.0870   -0.8052 H   0  0  0  0  0  0  0  0  0  0  0  0
   -1.9922    1.8676    0.1100 H   0  0  0  0  0  0  0  0  0  0  0  0
    0.3860    2.0951   -0.6025 H   0  0  0  0  0  0  0  0  0  0  0  0
  1  2  1  0
  2  3  1  0
  3  4  1  0
  4  5  1  0
  5  6  1  0
  6  7  1  0
  7  8  1  0
  8  9  1  0
  9  2  1  0
  6  4  1  0
  9  7  1  0
  1 10  1  0
  1 11  1  0
  1 12  1  0
  2 13  1  0
  3 14  1  0
  3 15  1  0
  4 16  1  0
  6 17  1  0
  7 18  1  0
  9 19  1  0
M  END
