
     RDKit          3D

 21 23  0  0  0  0  0  0  0  0999 V2000
    2.0623   -1.1527    0.2075 C   0  0  0  0  0  0  0  0  0  0  0  0
    1.2496    0.0090   -0.2116 C   0  0  0  0  0  0  0  0  0  0  0  0
    0.7755    0.8859    0.9159 C   0  0  0  0  0  0  0  0  0  0  0  0
   -0.0649    1.8788    0.0965 C   0  0  0  0  0  0  0  0  0  0  0  0
   -0.9203    0.8252   -0.6250 C   0  0  0  0  0  0  0  0  0  0  0  0
   -0.1204   -0.3870   -0.7727 C   0  0  0  0  0  0  0  0  0  0  0  0
   -1.0005   -0.2454    0.3839 C   0  0  0  0  0  0  0  0  0  0  0  0
   -2.2493   -1.0179    0.5954 C   0  0  0  0  0  0  0  0  0  0  0  0
   -0.2111    0.1316    1.4947 O   0  0  0  0  0  0  0  0  0  0  0  0
    2.8419   -1.3326   -0.5899 H   0  0  0  0  0  0  0  0  0  0  0  0
    2.6722   -0.8392    1.1046 H   0  0  0  0  0  0  0  0  0  0  0  0
    1.5231   -2.0661    0.4494 H   0  0  0  0  0  0  0  0  0  0  0  0
    1.7361    0.6320   -0.9605 H   0  0  0  0  0  0  0  0  0  0  0  0
    1.5128    1.3300    1.5319 H   0  0  0  0  0  0  0  0  0  0  0  0
   -0.6641    2.5319    0.7276 H   0  0  0  0  0  0  0  0  0  0  0  0
    0.6069    2.3691   -0.6052 H   0  0  0  0  0  0  0  0  0  0  0  0
   -1.7313    1.1371   -1.2630 H   0  0  0  0  0  0  0  0  0  0  0  0
   -0.1999   -1.1080   -1.5646 H   0  0  0  0  0  0  0  0  0  0  0  0
   -2.0814   -2.0923    0.7442 H   0  0  0  0  0  0  0  0  0  0  0  0
   -2.8647   -0.9282   -0.3391 H   0  0  0  0  0  0  0  0  0  0  0  0
   -2.8724   -0.5610    1.3940 H   0  0  0  0  0  0  0  0  0  0  0  0
  1  2  1  0
  2  3  1  0
  3  4  1  0
  4  5  1  0
  5  6  1  0
  6  7  1  0
  7  8  1  0
  7  9  1  0
  6  2  1  0
  9  3  1  0
  7  5  1  0
  1 10  1  0
  1 11  1  0
  1 12  1  0
  2 13  1  0
  3 14  1  0
  4 15  1  0
  4 16  1  0
  5 17  1  0
  6 18  1  0
  8 19  1  0
  8 20  1  0
  8 21  1  0
M  END
