
     RDKit          3D

 20 21  0  0  0  0  0  0  0  0999 V2000
   -2.0562   -0.7512    0.2992 C   0  0  0  0  0  0  0  0  0  0  0  0
   -0.9496    0.0486   -0.2722 C   0  0  0  0  0  0  0  0  0  0  0  0
    0.0859   -0.8233   -1.0120 C   0  0  0  0  0  0  0  0  0  0  0  0
    1.2577    0.0490   -0.8310 C   0  0  0  0  0  0  0  0  0  0  0  0
    2.3533    0.0955    0.0525 C   0  0  0  0  0  0  0  0  0  0  0  0
    1.1387   -0.0340    0.7473 C   0  0  0  0  0  0  0  0  0  0  0  0
   -0.1071    0.7469    0.8131 C   0  0  0  0  0  0  0  0  0  0  0  0
    0.0171    2.0979    0.5665 O   0  0  0  0  0  0  0  0  0  0  0  0
   -1.9311   -1.0485    1.3532 H   0  0  0  0  0  0  0  0  0  0  0  0
   -2.2977   -1.6215   -0.3689 H   0  0  0  0  0  0  0  0  0  0  0  0
   -2.9897   -0.1153    0.2576 H   0  0  0  0  0  0  0  0  0  0  0  0
   -1.2491    0.8279   -0.9746 H   0  0  0  0  0  0  0  0  0  0  0  0
    0.1962   -1.7929   -0.4439 H   0  0  0  0  0  0  0  0  0  0  0  0
   -0.2193   -1.0494   -2.0256 H   0  0  0  0  0  0  0  0  0  0  0  0
    0.9920    1.0636   -1.2738 H   0  0  0  0  0  0  0  0  0  0  0  0
    2.9225    1.0591    0.2216 H   0  0  0  0  0  0  0  0  0  0  0  0
    3.0914   -0.7379    0.0309 H   0  0  0  0  0  0  0  0  0  0  0  0
    0.9463   -1.0717    1.1631 H   0  0  0  0  0  0  0  0  0  0  0  0
   -0.5724    0.6294    1.8100 H   0  0  0  0  0  0  0  0  0  0  0  0
   -0.6290    2.4277   -0.1131 H   0  0  0  0  0  0  0  0  0  0  0  0
  1  2  1  0
  2  3  1  0
  3  4  1  0
  4  5  1  0
  5  6  1  0
  6  7  1  0
  7  8  1  0
  7  2  1  0
  6  4  1  0
  1  9  1  0
  1 10  1  0
  1 11  1  0
  2 12  1  0
  3 13  1  0
  3 14  1  0
  4 15  1  0
  5 16  1  0
  5 17  1  0
  6 18  1  0
  7 19  1  0
  8 20  1  0
M  END
