
     RDKit          3D

 19 19  0  0  0  0  0  0  0  0999 V2000
    2.4254   -0.0046    0.5549 C   0  0  0  0  0  0  0  0  0  0  0  0
    1.1378   -0.0619   -0.1814 C   0  0  0  0  0  0  0  0  0  0  0  0
    0.0977   -0.8388    0.6367 C   0  0  0  0  0  0  0  0  0  0  0  0
   -0.8900    0.1319   -0.0273 C   0  0  0  0  0  0  0  0  0  0  0  0
   -2.0377    0.4620    0.8672 C   0  0  0  0  0  0  0  0  0  0  0  0
   -1.2625   -0.4147   -1.3581 C   0  0  0  0  0  0  0  0  0  0  0  0
   -0.8464    0.1136   -2.3782 O   0  0  0  0  0  0  0  0  0  0  0  0
    0.2300    1.0984   -0.0439 C   0  0  0  0  0  0  0  0  0  0  0  0
    0.3407    2.2938    0.0246 O   0  0  0  0  0  0  0  0  0  0  0  0
    2.7032   -1.0638    0.8347 H   0  0  0  0  0  0  0  0  0  0  0  0
    2.3015    0.5398    1.4930 H   0  0  0  0  0  0  0  0  0  0  0  0
    3.2595    0.3640   -0.0745 H   0  0  0  0  0  0  0  0  0  0  0  0
    1.1914   -0.4673   -1.2097 H   0  0  0  0  0  0  0  0  0  0  0  0
    0.2277   -0.5864    1.6945 H   0  0  0  0  0  0  0  0  0  0  0  0
   -0.0224   -1.8791    0.3611 H   0  0  0  0  0  0  0  0  0  0  0  0
   -2.3450    1.5111    0.6823 H   0  0  0  0  0  0  0  0  0  0  0  0
   -1.7354    0.3465    1.9126 H   0  0  0  0  0  0  0  0  0  0  0  0
   -2.8655   -0.2552    0.6200 H   0  0  0  0  0  0  0  0  0  0  0  0
   -1.9101   -1.2892   -1.3643 H   0  0  0  0  0  0  0  0  0  0  0  0
  1  2  1  0
  2  3  1  0
  3  4  1  0
  4  5  1  0
  4  6  1  0
  6  7  2  0
  4  8  1  0
  8  9  2  0
  8  2  1  0
  1 10  1  0
  1 11  1  0
  1 12  1  0
  2 13  1  0
  3 14  1  0
  3 15  1  0
  5 16  1  0
  5 17  1  0
  5 18  1  0
  6 19  1  0
M  END
