
     RDKit          3D

 23 24  0  0  0  0  0  0  0  0999 V2000
   -2.1118    0.2037    0.1804 C   0  0  0  0  0  0  0  0  0  0  0  0
   -0.9205    0.2799   -0.7898 C   0  0  0  0  0  0  0  0  0  0  0  0
   -0.0229    1.3314   -0.2662 C   0  0  0  0  0  0  0  0  0  0  0  0
   -0.2933    1.6503    1.0874 O   0  0  0  0  0  0  0  0  0  0  0  0
    1.4286    1.0771   -0.3910 C   0  0  0  0  0  0  0  0  0  0  0  0
    1.8484   -0.3254   -0.0721 C   0  0  0  0  0  0  0  0  0  0  0  0
    0.9649   -1.3860   -0.5821 C   0  0  0  0  0  0  0  0  0  0  0  0
   -0.1366   -1.8247    0.3752 C   0  0  0  0  0  0  0  0  0  0  0  0
   -0.3877   -1.0714   -0.9440 C   0  0  0  0  0  0  0  0  0  0  0  0
   -2.5430   -0.8306    0.1574 H   0  0  0  0  0  0  0  0  0  0  0  0
   -1.6763    0.3144    1.1962 H   0  0  0  0  0  0  0  0  0  0  0  0
   -2.8448    0.9884   -0.0115 H   0  0  0  0  0  0  0  0  0  0  0  0
   -1.3897    0.6002   -1.7673 H   0  0  0  0  0  0  0  0  0  0  0  0
   -0.2482    2.2932   -0.8126 H   0  0  0  0  0  0  0  0  0  0  0  0
   -0.1530    2.6174    1.2579 H   0  0  0  0  0  0  0  0  0  0  0  0
    1.9558    1.7430    0.3555 H   0  0  0  0  0  0  0  0  0  0  0  0
    1.8215    1.4181   -1.3812 H   0  0  0  0  0  0  0  0  0  0  0  0
    1.9838   -0.4784    1.0336 H   0  0  0  0  0  0  0  0  0  0  0  0
    2.8721   -0.4578   -0.4994 H   0  0  0  0  0  0  0  0  0  0  0  0
    1.4508   -2.2598   -1.0959 H   0  0  0  0  0  0  0  0  0  0  0  0
   -0.2887   -1.2768    1.3124 H   0  0  0  0  0  0  0  0  0  0  0  0
   -0.4148   -2.8890    0.4245 H   0  0  0  0  0  0  0  0  0  0  0  0
   -0.8946   -1.7174   -1.7155 H   0  0  0  0  0  0  0  0  0  0  0  0
  1  2  1  0
  2  3  1  0
  3  4  1  0
  3  5  1  0
  5  6  1  0
  6  7  1  0
  7  8  1  0
  8  9  1  0
  9  2  1  0
  9  7  1  0
  1 10  1  0
  1 11  1  0
  1 12  1  0
  2 13  1  0
  3 14  1  0
  4 15  1  0
  5 16  1  0
  5 17  1  0
  6 18  1  0
  6 19  1  0
  7 20  1  0
  8 21  1  0
  8 22  1  0
  9 23  1  0
M  END
