
     RDKit          3D

 23 24  0  0  0  0  0  0  0  0999 V2000
    2.3183    0.3331    0.5448 C   0  0  0  0  0  0  0  0  0  0  0  0
    1.4048   -0.0086   -0.5858 C   0  0  0  0  0  0  0  0  0  0  0  0
    0.7701   -1.3728   -0.3157 C   0  0  0  0  0  0  0  0  0  0  0  0
   -0.4563   -1.0869    0.5409 C   0  0  0  0  0  0  0  0  0  0  0  0
   -1.1757    0.0627   -0.0916 C   0  0  0  0  0  0  0  0  0  0  0  0
   -2.6521   -0.0463   -0.0209 C   0  0  0  0  0  0  0  0  0  0  0  0
   -0.5292    1.3352    0.3039 C   0  0  0  0  0  0  0  0  0  0  0  0
    0.3365    0.9893   -0.8537 C   0  0  0  0  0  0  0  0  0  0  0  0
   -0.7586    0.2984   -1.4110 O   0  0  0  0  0  0  0  0  0  0  0  0
    2.9405   -0.5880    0.7469 H   0  0  0  0  0  0  0  0  0  0  0  0
    1.7798    0.5260    1.4891 H   0  0  0  0  0  0  0  0  0  0  0  0
    3.0479    1.1256    0.3080 H   0  0  0  0  0  0  0  0  0  0  0  0
    2.0198   -0.1081   -1.5037 H   0  0  0  0  0  0  0  0  0  0  0  0
    1.4625   -2.0731    0.1522 H   0  0  0  0  0  0  0  0  0  0  0  0
    0.3686   -1.7241   -1.3005 H   0  0  0  0  0  0  0  0  0  0  0  0
   -0.0555   -0.7325    1.5326 H   0  0  0  0  0  0  0  0  0  0  0  0
   -1.0863   -1.9868    0.6758 H   0  0  0  0  0  0  0  0  0  0  0  0
   -2.9756   -0.7908   -0.8077 H   0  0  0  0  0  0  0  0  0  0  0  0
   -3.1881    0.8828   -0.2680 H   0  0  0  0  0  0  0  0  0  0  0  0
   -3.0311   -0.4735    0.9347 H   0  0  0  0  0  0  0  0  0  0  0  0
   -0.0583    1.3893    1.3005 H   0  0  0  0  0  0  0  0  0  0  0  0
   -1.1753    2.2039    0.0617 H   0  0  0  0  0  0  0  0  0  0  0  0
    0.6935    1.8451   -1.4323 H   0  0  0  0  0  0  0  0  0  0  0  0
  1  2  1  0
  2  3  1  0
  3  4  1  0
  4  5  1  0
  5  6  1  0
  5  7  1  0
  7  8  1  0
  8  9  1  0
  8  2  1  0
  9  5  1  0
  1 10  1  0
  1 11  1  0
  1 12  1  0
  2 13  1  0
  3 14  1  0
  3 15  1  0
  4 16  1  0
  4 17  1  0
  6 18  1  0
  6 19  1  0
  6 20  1  0
  7 21  1  0
  7 22  1  0
  8 23  1  0
M  END
