
     RDKit          3D

 25 25  0  0  0  0  0  0  0  0999 V2000
    2.4950    0.8643    0.2207 C   0  0  0  0  0  0  0  0  0  0  0  0
    1.0287    0.4160    0.3033 C   0  0  0  0  0  0  0  0  0  0  0  0
    0.2398    1.1143   -0.7430 C   0  0  0  0  0  0  0  0  0  0  0  0
   -1.0682    1.6148   -0.1504 C   0  0  0  0  0  0  0  0  0  0  0  0
   -2.0794    0.4665   -0.1988 C   0  0  0  0  0  0  0  0  0  0  0  0
   -1.8356   -0.3230    0.8926 O   0  0  0  0  0  0  0  0  0  0  0  0
   -1.4193   -1.5895    0.6272 C   0  0  0  0  0  0  0  0  0  0  0  0
   -0.2244   -1.6848   -0.2850 C   0  0  0  0  0  0  0  0  0  0  0  0
    1.0056   -1.0582    0.2642 C   0  0  0  0  0  0  0  0  0  0  0  0
    3.1835    0.0000    0.2877 H   0  0  0  0  0  0  0  0  0  0  0  0
    2.7569    1.5727    1.0064 H   0  0  0  0  0  0  0  0  0  0  0  0
    2.6680    1.2938   -0.8083 H   0  0  0  0  0  0  0  0  0  0  0  0
    0.6709    0.7730    1.3102 H   0  0  0  0  0  0  0  0  0  0  0  0
    0.0772    0.5619   -1.6698 H   0  0  0  0  0  0  0  0  0  0  0  0
    0.8014    2.0497   -1.0368 H   0  0  0  0  0  0  0  0  0  0  0  0
   -1.4398    2.5180   -0.6317 H   0  0  0  0  0  0  0  0  0  0  0  0
   -0.9133    1.8546    0.9315 H   0  0  0  0  0  0  0  0  0  0  0  0
   -3.0850    0.9755   -0.1223 H   0  0  0  0  0  0  0  0  0  0  0  0
   -2.0736   -0.0403   -1.1649 H   0  0  0  0  0  0  0  0  0  0  0  0
   -1.1603   -2.0907    1.5770 H   0  0  0  0  0  0  0  0  0  0  0  0
   -2.2200   -2.2230    0.1630 H   0  0  0  0  0  0  0  0  0  0  0  0
   -0.0075   -2.7932   -0.3675 H   0  0  0  0  0  0  0  0  0  0  0  0
   -0.4597   -1.3747   -1.3220 H   0  0  0  0  0  0  0  0  0  0  0  0
    1.8715   -1.4146   -0.3581 H   0  0  0  0  0  0  0  0  0  0  0  0
    1.1874   -1.4832    1.2749 H   0  0  0  0  0  0  0  0  0  0  0  0
  1  2  1  0
  2  3  1  0
  3  4  1  0
  4  5  1  0
  5  6  1  0
  6  7  1  0
  7  8  1  0
  8  9  1  0
  9  2  1  0
  1 10  1  0
  1 11  1  0
  1 12  1  0
  2 13  1  0
  3 14  1  0
  3 15  1  0
  4 16  1  0
  4 17  1  0
  5 18  1  0
  5 19  1  0
  7 20  1  0
  7 21  1  0
  8 22  1  0
  8 23  1  0
  9 24  1  0
  9 25  1  0
M  END
