
     RDKit          3D

 18 18  0  0  0  0  0  0  0  0999 V2000
   -1.7596   -1.5806    0.2316 C   0  0  0  0  0  0  0  0  0  0  0  0
   -1.0088   -0.3031    0.5052 C   0  0  0  0  0  0  0  0  0  0  0  0
   -0.9107    0.7682   -0.5032 C   0  0  0  0  0  0  0  0  0  0  0  0
   -0.6479    2.0653   -0.0266 O   0  0  0  0  0  0  0  0  0  0  0  0
    0.2657   -0.1697   -0.3188 C   0  0  0  0  0  0  0  0  0  0  0  0
    1.4536    0.2912    0.4621 C   0  0  0  0  0  0  0  0  0  0  0  0
    2.6734    0.4152   -0.3440 C   0  0  0  0  0  0  0  0  0  0  0  0
    2.6611    0.1561   -1.5232 O   0  0  0  0  0  0  0  0  0  0  0  0
   -1.0392   -2.4161    0.3522 H   0  0  0  0  0  0  0  0  0  0  0  0
   -2.5544   -1.7567    1.0118 H   0  0  0  0  0  0  0  0  0  0  0  0
   -2.2572   -1.5927   -0.7514 H   0  0  0  0  0  0  0  0  0  0  0  0
   -0.9966   -0.0015    1.5538 H   0  0  0  0  0  0  0  0  0  0  0  0
   -1.4538    0.7631   -1.4542 H   0  0  0  0  0  0  0  0  0  0  0  0
   -1.3206    2.7098   -0.3293 H   0  0  0  0  0  0  0  0  0  0  0  0
    0.4148   -0.8538   -1.1738 H   0  0  0  0  0  0  0  0  0  0  0  0
    1.6571   -0.5028    1.2385 H   0  0  0  0  0  0  0  0  0  0  0  0
    1.2346    1.2690    0.9548 H   0  0  0  0  0  0  0  0  0  0  0  0
    3.5885    0.7391    0.1144 H   0  0  0  0  0  0  0  0  0  0  0  0
  1  2  1  0
  2  3  1  0
  3  4  1  0
  3  5  1  0
  5  6  1  0
  6  7  1  0
  7  8  2  0
  5  2  1  0
  1  9  1  0
  1 10  1  0
  1 11  1  0
  2 12  1  0
  3 13  1  0
  4 14  1  0
  5 15  1  0
  6 16  1  0
  6 17  1  0
  7 18  1  0
M  END
