
     RDKit          3D

 15 16  0  0  0  0  0  0  0  0999 V2000
    1.6008    0.6961   -0.0960 C   0  0  0  0  0  0  0  0  0  0  0  0
    0.6106   -0.4104   -0.1934 C   0  0  0  0  0  0  0  0  0  0  0  0
    0.2009   -1.0567    1.0931 C   0  0  0  0  0  0  0  0  0  0  0  0
   -0.3281    0.1720    1.4556 O   0  0  0  0  0  0  0  0  0  0  0  0
   -0.7818    0.0372    0.1282 C   0  0  0  0  0  0  0  0  0  0  0  0
   -1.5195    0.9667   -0.5289 C   0  0  0  0  0  0  0  0  0  0  0  0
   -1.8619    2.0369    0.0014 O   0  0  0  0  0  0  0  0  0  0  0  0
   -1.1004   -1.3369    0.4584 C   0  0  0  0  0  0  0  0  0  0  0  0
   -1.9307   -2.1861    0.3027 O   0  0  0  0  0  0  0  0  0  0  0  0
    2.6154    0.3663    0.2199 H   0  0  0  0  0  0  0  0  0  0  0  0
    1.1974    1.4828    0.5867 H   0  0  0  0  0  0  0  0  0  0  0  0
    1.6938    1.1727   -1.0932 H   0  0  0  0  0  0  0  0  0  0  0  0
    0.7360   -1.1411   -0.9885 H   0  0  0  0  0  0  0  0  0  0  0  0
    0.7469   -1.6792    1.6670 H   0  0  0  0  0  0  0  0  0  0  0  0
   -1.8793    0.8796   -1.5558 H   0  0  0  0  0  0  0  0  0  0  0  0
  1  2  1  0
  2  3  1  0
  3  4  1  0
  4  5  1  0
  5  6  1  0
  6  7  2  0
  5  8  1  0
  8  9  2  0
  5  2  1  0
  8  3  1  0
  1 10  1  0
  1 11  1  0
  1 12  1  0
  2 13  1  0
  3 14  1  0
  6 15  1  0
M  END
