
     RDKit          3D

 19 19  0  0  0  0  0  0  0  0999 V2000
   -1.5126    1.5591    0.4191 C   0  0  0  0  0  0  0  0  0  0  0  0
   -0.5672    0.6377   -0.2646 C   0  0  0  0  0  0  0  0  0  0  0  0
    0.8626    0.8903    0.1043 C   0  0  0  0  0  0  0  0  0  0  0  0
    1.3535    1.8267    0.7015 O   0  0  0  0  0  0  0  0  0  0  0  0
    1.5738   -0.3183   -0.4511 C   0  0  0  0  0  0  0  0  0  0  0  0
    2.8639   -0.4162   -0.0068 O   0  0  0  0  0  0  0  0  0  0  0  0
    0.6719   -1.4313    0.0039 C   0  0  0  0  0  0  0  0  0  0  0  0
   -0.7233   -0.8103    0.1498 C   0  0  0  0  0  0  0  0  0  0  0  0
   -1.6114   -1.4768   -0.6823 O   0  0  0  0  0  0  0  0  0  0  0  0
   -2.3433    1.7883   -0.3123 H   0  0  0  0  0  0  0  0  0  0  0  0
   -2.0028    1.1415    1.3113 H   0  0  0  0  0  0  0  0  0  0  0  0
   -0.9950    2.5316    0.6171 H   0  0  0  0  0  0  0  0  0  0  0  0
   -0.6116    0.6703   -1.3706 H   0  0  0  0  0  0  0  0  0  0  0  0
    1.4810   -0.2295   -1.5538 H   0  0  0  0  0  0  0  0  0  0  0  0
    3.4313    0.1509   -0.6177 H   0  0  0  0  0  0  0  0  0  0  0  0
    0.6689   -2.2242   -0.7843 H   0  0  0  0  0  0  0  0  0  0  0  0
    1.0469   -1.8129    0.9743 H   0  0  0  0  0  0  0  0  0  0  0  0
   -1.0751   -0.9110    1.1930 H   0  0  0  0  0  0  0  0  0  0  0  0
   -2.5115   -1.5658   -0.2908 H   0  0  0  0  0  0  0  0  0  0  0  0
  1  2  1  0
  2  3  1  0
  3  4  2  0
  3  5  1  0
  5  6  1  0
  5  7  1  0
  7  8  1  0
  8  9  1  0
  8  2  1  0
  1 10  1  0
  1 11  1  0
  1 12  1  0
  2 13  1  0
  5 14  1  0
  6 15  1  0
  7 16  1  0
  7 17  1  0
  8 18  1  0
  9 19  1  0
M  END
