
     RDKit          3D

 18 20  0  0  0  0  0  0  0  0999 V2000
    2.2335    0.2130    0.2563 C   0  0  0  0  0  0  0  0  0  0  0  0
    1.0157   -0.5550   -0.1553 C   0  0  0  0  0  0  0  0  0  0  0  0
   -0.1232    0.2544   -0.7132 C   0  0  0  0  0  0  0  0  0  0  0  0
   -0.3220    0.7799    0.6643 C   0  0  0  0  0  0  0  0  0  0  0  0
   -1.7975    0.9147    0.7903 C   0  0  0  0  0  0  0  0  0  0  0  0
   -2.2381   -0.2215    0.2005 C   0  0  0  0  0  0  0  0  0  0  0  0
   -1.0119   -0.8709   -0.2559 C   0  0  0  0  0  0  0  0  0  0  0  0
   -0.0626   -0.6819    0.8842 C   0  0  0  0  0  0  0  0  0  0  0  0
    2.1192    1.3115    0.0978 H   0  0  0  0  0  0  0  0  0  0  0  0
    2.4193    0.0969    1.3616 H   0  0  0  0  0  0  0  0  0  0  0  0
    3.1166   -0.1909   -0.2923 H   0  0  0  0  0  0  0  0  0  0  0  0
    1.1949   -1.4505   -0.7828 H   0  0  0  0  0  0  0  0  0  0  0  0
   -0.1570    0.7363   -1.5871 H   0  0  0  0  0  0  0  0  0  0  0  0
    0.3178    1.5125    1.0822 H   0  0  0  0  0  0  0  0  0  0  0  0
   -2.4027    1.6986    1.2306 H   0  0  0  0  0  0  0  0  0  0  0  0
   -3.2470   -0.5893    0.0794 H   0  0  0  0  0  0  0  0  0  0  0  0
   -1.0310   -1.7820   -0.7982 H   0  0  0  0  0  0  0  0  0  0  0  0
   -0.0239   -1.1758    1.7514 H   0  0  0  0  0  0  0  0  0  0  0  0
  1  2  1  0
  2  3  1  0
  3  4  1  0
  4  5  1  0
  5  6  2  0
  6  7  1  0
  7  8  1  0
  8  2  1  0
  7  3  1  0
  8  4  1  0
  1  9  1  0
  1 10  1  0
  1 11  1  0
  2 12  1  0
  3 13  1  0
  4 14  1  0
  5 15  1  0
  6 16  1  0
  7 17  1  0
  8 18  1  0
M  END
