
     RDKit          3D

 23 23  0  0  0  0  0  0  0  0999 V2000
   -1.4851   -1.3041    0.4805 C   0  0  0  0  0  0  0  0  0  0  0  0
   -0.2159   -0.6914   -0.0159 C   0  0  0  0  0  0  0  0  0  0  0  0
    0.9758   -1.0362    0.8734 C   0  0  0  0  0  0  0  0  0  0  0  0
    2.2255   -0.6359    0.1493 C   0  0  0  0  0  0  0  0  0  0  0  0
    2.0448    0.5348   -0.7379 C   0  0  0  0  0  0  0  0  0  0  0  0
    0.9310    1.2177   -0.8697 C   0  0  0  0  0  0  0  0  0  0  0  0
   -0.2541    0.8124   -0.0853 C   0  0  0  0  0  0  0  0  0  0  0  0
   -1.5416    1.3331   -0.6694 C   0  0  0  0  0  0  0  0  0  0  0  0
   -2.6125    0.9142    0.1179 O   0  0  0  0  0  0  0  0  0  0  0  0
   -1.8727   -0.8862    1.4108 H   0  0  0  0  0  0  0  0  0  0  0  0
   -1.2524   -2.3861    0.7021 H   0  0  0  0  0  0  0  0  0  0  0  0
   -2.2222   -1.3420   -0.3504 H   0  0  0  0  0  0  0  0  0  0  0  0
    0.0112   -1.1237   -1.0064 H   0  0  0  0  0  0  0  0  0  0  0  0
    0.9604   -2.1056    1.1533 H   0  0  0  0  0  0  0  0  0  0  0  0
    0.8802   -0.3844    1.7698 H   0  0  0  0  0  0  0  0  0  0  0  0
    3.0853   -0.4300    0.8450 H   0  0  0  0  0  0  0  0  0  0  0  0
    2.5447   -1.4911   -0.4818 H   0  0  0  0  0  0  0  0  0  0  0  0
    2.9026    0.8518   -1.3251 H   0  0  0  0  0  0  0  0  0  0  0  0
    0.8688    2.0568   -1.5313 H   0  0  0  0  0  0  0  0  0  0  0  0
   -0.1219    1.2632    0.9350 H   0  0  0  0  0  0  0  0  0  0  0  0
   -1.7336    1.0064   -1.6870 H   0  0  0  0  0  0  0  0  0  0  0  0
   -1.5634    2.4389   -0.6619 H   0  0  0  0  0  0  0  0  0  0  0  0
   -2.5549    1.3871    0.9850 H   0  0  0  0  0  0  0  0  0  0  0  0
  1  2  1  0
  2  3  1  0
  3  4  1  0
  4  5  1  0
  5  6  2  0
  6  7  1  0
  7  8  1  0
  8  9  1  0
  7  2  1  0
  1 10  1  0
  1 11  1  0
  1 12  1  0
  2 13  1  0
  3 14  1  0
  3 15  1  0
  4 16  1  0
  4 17  1  0
  5 18  1  0
  6 19  1  0
  7 20  1  0
  8 21  1  0
  8 22  1  0
  9 23  1  0
M  END
