
     RDKit          3D

 22 22  0  0  0  0  0  0  0  0999 V2000
    2.6347   -0.1563    0.2038 C   0  0  0  0  0  0  0  0  0  0  0  0
    1.2562   -0.7576    0.2552 C   0  0  0  0  0  0  0  0  0  0  0  0
    0.3632   -0.2397   -0.8512 C   0  0  0  0  0  0  0  0  0  0  0  0
   -0.8696    0.1720   -0.0574 C   0  0  0  0  0  0  0  0  0  0  0  0
   -1.5824    1.3374   -0.6452 C   0  0  0  0  0  0  0  0  0  0  0  0
   -1.7370   -1.0353    0.0855 C   0  0  0  0  0  0  0  0  0  0  0  0
   -0.2188    0.5844    1.2509 C   0  0  0  0  0  0  0  0  0  0  0  0
    0.6515   -0.4803    1.4513 O   0  0  0  0  0  0  0  0  0  0  0  0
    3.2214   -0.6199    1.0235 H   0  0  0  0  0  0  0  0  0  0  0  0
    3.1345   -0.4465   -0.7378 H   0  0  0  0  0  0  0  0  0  0  0  0
    2.6094    0.9471    0.3628 H   0  0  0  0  0  0  0  0  0  0  0  0
    1.3852   -1.8649    0.1963 H   0  0  0  0  0  0  0  0  0  0  0  0
    0.8112    0.6033   -1.4007 H   0  0  0  0  0  0  0  0  0  0  0  0
    0.1158   -1.1037   -1.5129 H   0  0  0  0  0  0  0  0  0  0  0  0
   -1.1147    2.3078   -0.3809 H   0  0  0  0  0  0  0  0  0  0  0  0
   -1.7333    1.2713   -1.7407 H   0  0  0  0  0  0  0  0  0  0  0  0
   -2.6106    1.3632   -0.2042 H   0  0  0  0  0  0  0  0  0  0  0  0
   -1.4228   -1.6401    0.9359 H   0  0  0  0  0  0  0  0  0  0  0  0
   -2.8027   -0.7584    0.0789 H   0  0  0  0  0  0  0  0  0  0  0  0
   -1.5862   -1.6762   -0.8315 H   0  0  0  0  0  0  0  0  0  0  0  0
    0.4078    1.4776    1.0201 H   0  0  0  0  0  0  0  0  0  0  0  0
   -0.9126    0.7146    2.0681 H   0  0  0  0  0  0  0  0  0  0  0  0
  1  2  1  0
  2  3  1  0
  3  4  1  0
  4  5  1  0
  4  6  1  0
  4  7  1  0
  7  8  1  0
  8  2  1  0
  1  9  1  0
  1 10  1  0
  1 11  1  0
  2 12  1  0
  3 13  1  0
  3 14  1  0
  5 15  1  0
  5 16  1  0
  5 17  1  0
  6 18  1  0
  6 19  1  0
  6 20  1  0
  7 21  1  0
  7 22  1  0
M  END
