
     RDKit          3D

 21 22  0  0  0  0  0  0  0  0999 V2000
    2.6290   -0.3642    0.1106 C   0  0  0  0  0  0  0  0  0  0  0  0
    1.3133   -0.3447   -0.6393 C   0  0  0  0  0  0  0  0  0  0  0  0
    0.6915    1.0342   -0.6349 C   0  0  0  0  0  0  0  0  0  0  0  0
   -0.7413    0.7993   -0.2813 C   0  0  0  0  0  0  0  0  0  0  0  0
   -1.9807    1.2121   -0.3868 C   0  0  0  0  0  0  0  0  0  0  0  0
   -2.8542    0.2422    0.3780 C   0  0  0  0  0  0  0  0  0  0  0  0
   -2.0253   -0.9161    0.3786 O   0  0  0  0  0  0  0  0  0  0  0  0
   -0.7605   -0.4283    0.5638 C   0  0  0  0  0  0  0  0  0  0  0  0
    0.3474   -1.2995    0.0206 C   0  0  0  0  0  0  0  0  0  0  0  0
    2.6777    0.4667    0.8451 H   0  0  0  0  0  0  0  0  0  0  0  0
    2.6967   -1.3618    0.6071 H   0  0  0  0  0  0  0  0  0  0  0  0
    3.4927   -0.2813   -0.6125 H   0  0  0  0  0  0  0  0  0  0  0  0
    1.5277   -0.6746   -1.6772 H   0  0  0  0  0  0  0  0  0  0  0  0
    1.1150    1.6984    0.1372 H   0  0  0  0  0  0  0  0  0  0  0  0
    0.8319    1.4930   -1.6107 H   0  0  0  0  0  0  0  0  0  0  0  0
   -2.3302    2.0887   -0.9226 H   0  0  0  0  0  0  0  0  0  0  0  0
   -3.7584    0.0781   -0.2381 H   0  0  0  0  0  0  0  0  0  0  0  0
   -3.0695    0.5896    1.3914 H   0  0  0  0  0  0  0  0  0  0  0  0
   -0.6049   -0.1562    1.6254 H   0  0  0  0  0  0  0  0  0  0  0  0
    0.8128   -1.8011    0.9002 H   0  0  0  0  0  0  0  0  0  0  0  0
   -0.0106   -2.0746   -0.6693 H   0  0  0  0  0  0  0  0  0  0  0  0
  1  2  1  0
  2  3  1  0
  3  4  1  0
  4  5  2  0
  5  6  1  0
  6  7  1  0
  7  8  1  0
  8  9  1  0
  9  2  1  0
  8  4  1  0
  1 10  1  0
  1 11  1  0
  1 12  1  0
  2 13  1  0
  3 14  1  0
  3 15  1  0
  5 16  1  0
  6 17  1  0
  6 18  1  0
  8 19  1  0
  9 20  1  0
  9 21  1  0
M  END
