
     RDKit          3D

 25 26  0  0  0  0  0  0  0  0999 V2000
   -1.0637    1.5015    1.6100 C   0  0  0  0  0  0  0  0  0  0  0  0
   -0.7994    1.0136    0.1996 C   0  0  0  0  0  0  0  0  0  0  0  0
   -0.8448   -0.4409   -0.0828 C   0  0  0  0  0  0  0  0  0  0  0  0
   -1.2830   -1.3899    1.0183 C   0  0  0  0  0  0  0  0  0  0  0  0
   -1.2380   -0.9417   -1.4693 C   0  0  0  0  0  0  0  0  0  0  0  0
    0.4208    0.2816   -0.0325 C   0  0  0  0  0  0  0  0  0  0  0  0
    1.3339    0.4622   -1.1953 C   0  0  0  0  0  0  0  0  0  0  0  0
    2.4701   -0.0232   -0.2866 C   0  0  0  0  0  0  0  0  0  0  0  0
    1.5153    0.0452    0.9150 C   0  0  0  0  0  0  0  0  0  0  0  0
   -0.8441    2.5949    1.6372 H   0  0  0  0  0  0  0  0  0  0  0  0
   -0.3141    1.0423    2.3071 H   0  0  0  0  0  0  0  0  0  0  0  0
   -2.0979    1.3017    1.9309 H   0  0  0  0  0  0  0  0  0  0  0  0
   -1.1032    1.7651   -0.5759 H   0  0  0  0  0  0  0  0  0  0  0  0
   -0.8273   -1.1140    1.9733 H   0  0  0  0  0  0  0  0  0  0  0  0
   -1.0286   -2.4318    0.6931 H   0  0  0  0  0  0  0  0  0  0  0  0
   -2.3911   -1.3469    1.1640 H   0  0  0  0  0  0  0  0  0  0  0  0
   -0.8977   -0.2499   -2.2492 H   0  0  0  0  0  0  0  0  0  0  0  0
   -0.6398   -1.8845   -1.6152 H   0  0  0  0  0  0  0  0  0  0  0  0
   -2.3070   -1.0943   -1.5843 H   0  0  0  0  0  0  0  0  0  0  0  0
    1.1592   -0.1980   -2.0759 H   0  0  0  0  0  0  0  0  0  0  0  0
    1.4271    1.5499   -1.4421 H   0  0  0  0  0  0  0  0  0  0  0  0
    3.3076    0.6721   -0.2102 H   0  0  0  0  0  0  0  0  0  0  0  0
    2.7563   -1.0494   -0.5648 H   0  0  0  0  0  0  0  0  0  0  0  0
    1.7586    0.8654    1.6155 H   0  0  0  0  0  0  0  0  0  0  0  0
    1.5310   -0.9309    1.4418 H   0  0  0  0  0  0  0  0  0  0  0  0
  1  2  1  0
  2  3  1  0
  3  4  1  0
  3  5  1  0
  3  6  1  0
  6  7  1  0
  7  8  1  0
  8  9  1  0
  6  2  1  0
  9  6  1  0
  1 10  1  0
  1 11  1  0
  1 12  1  0
  2 13  1  0
  4 14  1  0
  4 15  1  0
  4 16  1  0
  5 17  1  0
  5 18  1  0
  5 19  1  0
  7 20  1  0
  7 21  1  0
  8 22  1  0
  8 23  1  0
  9 24  1  0
  9 25  1  0
M  END
