
     RDKit          3D

 17 17  0  0  0  0  0  0  0  0999 V2000
    1.0640   -1.5103    0.5538 C   0  0  0  0  0  0  0  0  0  0  0  0
    0.3782   -0.5294   -0.3826 C   0  0  0  0  0  0  0  0  0  0  0  0
   -1.0997   -0.7240   -0.5414 C   0  0  0  0  0  0  0  0  0  0  0  0
   -1.3817    0.6209    0.0684 C   0  0  0  0  0  0  0  0  0  0  0  0
    0.0875    0.7764    0.3592 C   0  0  0  0  0  0  0  0  0  0  0  0
    0.7639    1.8942   -0.3253 C   0  0  0  0  0  0  0  0  0  0  0  0
    0.8675    2.9566    0.2657 O   0  0  0  0  0  0  0  0  0  0  0  0
    0.3525   -2.1649    1.0805 H   0  0  0  0  0  0  0  0  0  0  0  0
    1.8625   -2.0799    0.0399 H   0  0  0  0  0  0  0  0  0  0  0  0
    1.5910   -0.9293    1.3657 H   0  0  0  0  0  0  0  0  0  0  0  0
    0.8974   -0.4134   -1.3332 H   0  0  0  0  0  0  0  0  0  0  0  0
   -1.4644   -0.7443   -1.5985 H   0  0  0  0  0  0  0  0  0  0  0  0
   -1.5238   -1.5956   -0.0061 H   0  0  0  0  0  0  0  0  0  0  0  0
   -2.0402    0.5056    0.9547 H   0  0  0  0  0  0  0  0  0  0  0  0
   -1.8067    1.3743   -0.6284 H   0  0  0  0  0  0  0  0  0  0  0  0
    0.2682    0.7106    1.4528 H   0  0  0  0  0  0  0  0  0  0  0  0
    1.1839    1.8524   -1.3249 H   0  0  0  0  0  0  0  0  0  0  0  0
  1  2  1  0
  2  3  1  0
  3  4  1  0
  4  5  1  0
  5  6  1  0
  6  7  2  0
  5  2  1  0
  1  8  1  0
  1  9  1  0
  1 10  1  0
  2 11  1  0
  3 12  1  0
  3 13  1  0
  4 14  1  0
  4 15  1  0
  5 16  1  0
  6 17  1  0
M  END
