
     RDKit          3D

 17 18  0  0  0  0  0  0  0  0999 V2000
   -2.1830   -0.4972   -0.2556 C   0  0  0  0  0  0  0  0  0  0  0  0
   -0.6816   -0.6579   -0.1945 C   0  0  0  0  0  0  0  0  0  0  0  0
    0.1068   -0.0941    0.9165 C   0  0  0  0  0  0  0  0  0  0  0  0
    1.4769   -0.5899    1.0829 C   0  0  0  0  0  0  0  0  0  0  0  0
    2.2079   -0.2520    0.0377 C   0  0  0  0  0  0  0  0  0  0  0  0
    1.4304    0.4994   -0.9414 C   0  0  0  0  0  0  0  0  0  0  0  0
    1.8387    0.9455   -2.0439 O   0  0  0  0  0  0  0  0  0  0  0  0
    0.0837    0.6210   -0.3682 C   0  0  0  0  0  0  0  0  0  0  0  0
   -0.6278    1.8075   -0.4966 O   0  0  0  0  0  0  0  0  0  0  0  0
   -2.4773   -0.5276   -1.3456 H   0  0  0  0  0  0  0  0  0  0  0  0
   -2.5096    0.4996    0.1376 H   0  0  0  0  0  0  0  0  0  0  0  0
   -2.7227   -1.3117    0.2560 H   0  0  0  0  0  0  0  0  0  0  0  0
   -0.3088   -1.5835   -0.6440 H   0  0  0  0  0  0  0  0  0  0  0  0
   -0.3883    0.3620    1.7951 H   0  0  0  0  0  0  0  0  0  0  0  0
    1.8588   -1.1608    1.9435 H   0  0  0  0  0  0  0  0  0  0  0  0
    3.2722   -0.5049   -0.0821 H   0  0  0  0  0  0  0  0  0  0  0  0
   -0.3764    2.4444    0.2028 H   0  0  0  0  0  0  0  0  0  0  0  0
  1  2  1  0
  2  3  1  0
  3  4  1  0
  4  5  2  0
  5  6  1  0
  6  7  2  0
  6  8  1  0
  8  9  1  0
  8  2  1  0
  8  3  1  0
  1 10  1  0
  1 11  1  0
  1 12  1  0
  2 13  1  0
  3 14  1  0
  4 15  1  0
  5 16  1  0
  9 17  1  0
M  END
