
     RDKit          3D

 23 25  0  0  0  0  0  0  0  0999 V2000
    2.1891   -0.9929    0.0050 C   0  0  0  0  0  0  0  0  0  0  0  0
    1.0428   -0.0931    0.2630 C   0  0  0  0  0  0  0  0  0  0  0  0
   -0.1111   -0.7082    0.9763 C   0  0  0  0  0  0  0  0  0  0  0  0
   -1.0598    0.4257    1.3341 C   0  0  0  0  0  0  0  0  0  0  0  0
   -1.3936    0.9769   -0.0476 C   0  0  0  0  0  0  0  0  0  0  0  0
   -0.2462    1.8127   -0.6341 C   0  0  0  0  0  0  0  0  0  0  0  0
    0.4023    0.4665   -0.9915 C   0  0  0  0  0  0  0  0  0  0  0  0
   -0.9831   -0.0874   -1.0407 C   0  0  0  0  0  0  0  0  0  0  0  0
   -0.8994   -1.3255   -0.1806 C   0  0  0  0  0  0  0  0  0  0  0  0
    3.1666   -0.5587    0.3691 H   0  0  0  0  0  0  0  0  0  0  0  0
    2.3220   -1.1474   -1.0764 H   0  0  0  0  0  0  0  0  0  0  0  0
    2.1086   -1.9639    0.5702 H   0  0  0  0  0  0  0  0  0  0  0  0
    1.4089    0.7651    0.8980 H   0  0  0  0  0  0  0  0  0  0  0  0
    0.1049   -1.3864    1.7737 H   0  0  0  0  0  0  0  0  0  0  0  0
   -0.5967    1.1609    1.9890 H   0  0  0  0  0  0  0  0  0  0  0  0
   -1.9774   -0.0443    1.7220 H   0  0  0  0  0  0  0  0  0  0  0  0
   -2.3852    1.4049   -0.1646 H   0  0  0  0  0  0  0  0  0  0  0  0
    0.3109    2.4003    0.0876 H   0  0  0  0  0  0  0  0  0  0  0  0
   -0.6176    2.3234   -1.5432 H   0  0  0  0  0  0  0  0  0  0  0  0
    1.0000    0.4629   -1.8947 H   0  0  0  0  0  0  0  0  0  0  0  0
   -1.5048   -0.1434   -1.9710 H   0  0  0  0  0  0  0  0  0  0  0  0
   -1.9082   -1.6014    0.2170 H   0  0  0  0  0  0  0  0  0  0  0  0
   -0.3732   -2.1469   -0.6608 H   0  0  0  0  0  0  0  0  0  0  0  0
  1  2  1  0
  2  3  1  0
  3  4  1  0
  4  5  1  0
  5  6  1  0
  6  7  1  0
  7  8  1  0
  8  9  1  0
  7  2  1  0
  9  3  1  0
  8  5  1  0
  1 10  1  0
  1 11  1  0
  1 12  1  0
  2 13  1  0
  3 14  1  0
  4 15  1  0
  4 16  1  0
  5 17  1  0
  6 18  1  0
  6 19  1  0
  7 20  1  0
  8 21  1  0
  9 22  1  0
  9 23  1  0
M  END
