
     RDKit          3D

 20 20  0  0  0  0  0  0  0  0999 V2000
    2.3510    1.0093   -0.2247 C   0  0  0  0  0  0  0  0  0  0  0  0
    1.9812   -0.3347    0.3618 C   0  0  0  0  0  0  0  0  0  0  0  0
    1.5551   -1.4469   -0.5262 C   0  0  0  0  0  0  0  0  0  0  0  0
    0.5784   -0.7616    0.4454 C   0  0  0  0  0  0  0  0  0  0  0  0
   -0.4436   -0.0570   -0.1862 O   0  0  0  0  0  0  0  0  0  0  0  0
   -1.6441   -0.2719    0.4917 C   0  0  0  0  0  0  0  0  0  0  0  0
   -2.7929    0.4690   -0.1488 C   0  0  0  0  0  0  0  0  0  0  0  0
   -2.6225    1.8301   -0.1881 O   0  0  0  0  0  0  0  0  0  0  0  0
    3.2831    0.9895   -0.7990 H   0  0  0  0  0  0  0  0  0  0  0  0
    2.5362    1.6903    0.6497 H   0  0  0  0  0  0  0  0  0  0  0  0
    1.5180    1.4159   -0.7940 H   0  0  0  0  0  0  0  0  0  0  0  0
    2.6592   -0.6360    1.1991 H   0  0  0  0  0  0  0  0  0  0  0  0
    1.7884   -2.5029   -0.2909 H   0  0  0  0  0  0  0  0  0  0  0  0
    1.4465   -1.2078   -1.6041 H   0  0  0  0  0  0  0  0  0  0  0  0
    0.2857   -1.3608    1.3555 H   0  0  0  0  0  0  0  0  0  0  0  0
   -1.5082   -0.0064    1.5529 H   0  0  0  0  0  0  0  0  0  0  0  0
   -1.8663   -1.3522    0.4263 H   0  0  0  0  0  0  0  0  0  0  0  0
   -3.0151    0.0670   -1.1486 H   0  0  0  0  0  0  0  0  0  0  0  0
   -3.6862    0.2716    0.5062 H   0  0  0  0  0  0  0  0  0  0  0  0
   -2.4040    2.1957   -1.0781 H   0  0  0  0  0  0  0  0  0  0  0  0
  1  2  1  0
  2  3  1  0
  3  4  1  0
  4  5  1  0
  5  6  1  0
  6  7  1  0
  7  8  1  0
  4  2  1  0
  1  9  1  0
  1 10  1  0
  1 11  1  0
  2 12  1  0
  3 13  1  0
  3 14  1  0
  4 15  1  0
  6 16  1  0
  6 17  1  0
  7 18  1  0
  7 19  1  0
  8 20  1  0
M  END
