
     RDKit          3D

 21 22  0  0  0  0  0  0  0  0999 V2000
   -1.9229    0.2782    1.0412 C   0  0  0  0  0  0  0  0  0  0  0  0
   -1.0598   -0.0492   -0.1230 C   0  0  0  0  0  0  0  0  0  0  0  0
   -0.0981    1.1023   -0.4041 C   0  0  0  0  0  0  0  0  0  0  0  0
    0.7680    0.3722   -1.4499 C   0  0  0  0  0  0  0  0  0  0  0  0
    1.2038   -0.6873   -0.4185 C   0  0  0  0  0  0  0  0  0  0  0  0
    1.7299    0.2854    0.6184 C   0  0  0  0  0  0  0  0  0  0  0  0
    0.7639    1.2834    0.6506 O   0  0  0  0  0  0  0  0  0  0  0  0
   -0.1179   -1.1996    0.1008 C   0  0  0  0  0  0  0  0  0  0  0  0
    0.0523   -1.5130    1.4453 O   0  0  0  0  0  0  0  0  0  0  0  0
   -2.3917   -0.5809    1.5233 H   0  0  0  0  0  0  0  0  0  0  0  0
   -1.3607    0.9281    1.7654 H   0  0  0  0  0  0  0  0  0  0  0  0
   -2.7634    0.9243    0.6654 H   0  0  0  0  0  0  0  0  0  0  0  0
   -1.6321   -0.1859   -1.0829 H   0  0  0  0  0  0  0  0  0  0  0  0
   -0.5712    1.9838   -0.7946 H   0  0  0  0  0  0  0  0  0  0  0  0
    1.5874    1.0211   -1.7425 H   0  0  0  0  0  0  0  0  0  0  0  0
    0.1671   -0.0565   -2.2433 H   0  0  0  0  0  0  0  0  0  0  0  0
    1.8904   -1.4052   -0.7882 H   0  0  0  0  0  0  0  0  0  0  0  0
    1.9439   -0.1701    1.5803 H   0  0  0  0  0  0  0  0  0  0  0  0
    2.6944    0.7003    0.2151 H   0  0  0  0  0  0  0  0  0  0  0  0
   -0.4437   -2.1345   -0.4028 H   0  0  0  0  0  0  0  0  0  0  0  0
   -0.4398   -0.8970    2.0247 H   0  0  0  0  0  0  0  0  0  0  0  0
  1  2  1  0
  2  3  1  0
  3  4  1  0
  4  5  1  0
  5  6  1  0
  6  7  1  0
  5  8  1  0
  8  9  1  0
  8  2  1  0
  7  3  1  0
  1 10  1  0
  1 11  1  0
  1 12  1  0
  2 13  1  0
  3 14  1  0
  4 15  1  0
  4 16  1  0
  5 17  1  0
  6 18  1  0
  6 19  1  0
  8 20  1  0
  9 21  1  0
M  END
