
     RDKit          3D

 19 21  0  0  0  0  0  0  0  0999 V2000
    2.0380    0.2724    0.5718 C   0  0  0  0  0  0  0  0  0  0  0  0
    1.1575   -0.6335   -0.2315 C   0  0  0  0  0  0  0  0  0  0  0  0
    0.7675    0.1200   -1.4773 C   0  0  0  0  0  0  0  0  0  0  0  0
    1.5093    0.3254   -2.4089 O   0  0  0  0  0  0  0  0  0  0  0  0
   -0.6262    0.4703   -1.2101 C   0  0  0  0  0  0  0  0  0  0  0  0
   -1.2169   -0.7957   -0.6832 C   0  0  0  0  0  0  0  0  0  0  0  0
   -2.1045    0.0817    0.1540 C   0  0  0  0  0  0  0  0  0  0  0  0
   -0.7479    0.7140    0.2726 C   0  0  0  0  0  0  0  0  0  0  0  0
   -0.2041   -0.6617    0.4251 C   0  0  0  0  0  0  0  0  0  0  0  0
    3.0719    0.1990    0.2356 H   0  0  0  0  0  0  0  0  0  0  0  0
    1.7043    1.3311    0.3831 H   0  0  0  0  0  0  0  0  0  0  0  0
    1.9080    0.1298    1.6697 H   0  0  0  0  0  0  0  0  0  0  0  0
    1.5708   -1.6162   -0.4456 H   0  0  0  0  0  0  0  0  0  0  0  0
   -1.1802    1.0832   -1.8845 H   0  0  0  0  0  0  0  0  0  0  0  0
   -1.4661   -1.6268   -1.1789 H   0  0  0  0  0  0  0  0  0  0  0  0
   -2.5260   -0.3683    1.0630 H   0  0  0  0  0  0  0  0  0  0  0  0
   -2.8132    0.6381   -0.4947 H   0  0  0  0  0  0  0  0  0  0  0  0
   -0.5040    1.5497    0.7653 H   0  0  0  0  0  0  0  0  0  0  0  0
   -0.3383   -1.2126    1.3283 H   0  0  0  0  0  0  0  0  0  0  0  0
  1  2  1  0
  2  3  1  0
  3  4  2  0
  3  5  1  0
  5  6  1  0
  6  7  1  0
  7  8  1  0
  8  9  1  0
  9  2  1  0
  8  5  1  0
  9  6  1  0
  1 10  1  0
  1 11  1  0
  1 12  1  0
  2 13  1  0
  5 14  1  0
  6 15  1  0
  7 16  1  0
  7 17  1  0
  8 18  1  0
  9 19  1  0
M  END
