
     RDKit          3D

 19 21  0  0  0  0  0  0  0  0999 V2000
   -2.0638   -0.7072    0.0509 C   0  0  0  0  0  0  0  0  0  0  0  0
   -0.6017   -0.7412   -0.1082 C   0  0  0  0  0  0  0  0  0  0  0  0
    0.0392    0.3447   -0.9561 C   0  0  0  0  0  0  0  0  0  0  0  0
   -0.5079    1.5829   -0.3041 C   0  0  0  0  0  0  0  0  0  0  0  0
   -0.3430    1.2231    1.0589 O   0  0  0  0  0  0  0  0  0  0  0  0
    0.2118   -0.0318    0.9915 C   0  0  0  0  0  0  0  0  0  0  0  0
    1.2403    0.0731   -0.0860 C   0  0  0  0  0  0  0  0  0  0  0  0
    2.3800   -0.5902   -0.3389 C   0  0  0  0  0  0  0  0  0  0  0  0
    2.3227    0.8727   -0.0408 O   0  0  0  0  0  0  0  0  0  0  0  0
   -2.3505   -0.7109    1.1271 H   0  0  0  0  0  0  0  0  0  0  0  0
   -2.6061    0.0873   -0.4668 H   0  0  0  0  0  0  0  0  0  0  0  0
   -2.4816   -1.6754   -0.3564 H   0  0  0  0  0  0  0  0  0  0  0  0
   -0.1126   -1.7072   -0.3103 H   0  0  0  0  0  0  0  0  0  0  0  0
    0.0883    0.2396   -2.0002 H   0  0  0  0  0  0  0  0  0  0  0  0
   -1.5393    1.8210   -0.5522 H   0  0  0  0  0  0  0  0  0  0  0  0
    0.1628    2.4327   -0.5145 H   0  0  0  0  0  0  0  0  0  0  0  0
    0.4078   -0.5893    1.8743 H   0  0  0  0  0  0  0  0  0  0  0  0
    2.9798   -1.1471    0.4103 H   0  0  0  0  0  0  0  0  0  0  0  0
    2.7737   -0.7766   -1.3798 H   0  0  0  0  0  0  0  0  0  0  0  0
  1  2  1  0
  2  3  1  0
  3  4  1  0
  4  5  1  0
  5  6  1  0
  6  7  1  0
  7  8  1  0
  8  9  1  0
  6  2  1  0
  9  7  1  0
  7  3  1  0
  1 10  1  0
  1 11  1  0
  1 12  1  0
  2 13  1  0
  3 14  1  0
  4 15  1  0
  4 16  1  0
  6 17  1  0
  8 18  1  0
  8 19  1  0
M  END
