
     RDKit          3D

 23 23  0  0  0  0  0  0  0  0999 V2000
   -3.2634   -0.6657   -0.0916 C   0  0  0  0  0  0  0  0  0  0  0  0
   -1.9992    0.0948    0.2372 C   0  0  0  0  0  0  0  0  0  0  0  0
   -1.3857    0.9522   -0.8716 C   0  0  0  0  0  0  0  0  0  0  0  0
   -0.6894   -0.2873   -0.2752 C   0  0  0  0  0  0  0  0  0  0  0  0
   -0.5338   -1.3030   -1.2096 O   0  0  0  0  0  0  0  0  0  0  0  0
    0.4964   -0.0370    0.6187 C   0  0  0  0  0  0  0  0  0  0  0  0
    1.7980   -0.4690   -0.0096 C   0  0  0  0  0  0  0  0  0  0  0  0
    2.9186   -0.1751    0.9655 C   0  0  0  0  0  0  0  0  0  0  0  0
    4.1472   -0.5726    0.3956 O   0  0  0  0  0  0  0  0  0  0  0  0
   -3.1258   -1.4579   -0.8268 H   0  0  0  0  0  0  0  0  0  0  0  0
   -3.7335   -1.0116    0.8328 H   0  0  0  0  0  0  0  0  0  0  0  0
   -3.9634    0.1019   -0.5389 H   0  0  0  0  0  0  0  0  0  0  0  0
   -2.0553    0.6346    1.2007 H   0  0  0  0  0  0  0  0  0  0  0  0
   -1.8893    0.8549   -1.8332 H   0  0  0  0  0  0  0  0  0  0  0  0
   -0.9099    1.9078   -0.6018 H   0  0  0  0  0  0  0  0  0  0  0  0
   -0.1606   -0.8590   -2.0351 H   0  0  0  0  0  0  0  0  0  0  0  0
    0.5808    1.0587    0.8256 H   0  0  0  0  0  0  0  0  0  0  0  0
    0.3159   -0.5767    1.5627 H   0  0  0  0  0  0  0  0  0  0  0  0
    1.7820   -1.5849   -0.1532 H   0  0  0  0  0  0  0  0  0  0  0  0
    1.9796    0.0006   -0.9723 H   0  0  0  0  0  0  0  0  0  0  0  0
    2.9386    0.9218    1.1510 H   0  0  0  0  0  0  0  0  0  0  0  0
    2.8169   -0.7323    1.8950 H   0  0  0  0  0  0  0  0  0  0  0  0
    3.9352   -1.2640   -0.2660 H   0  0  0  0  0  0  0  0  0  0  0  0
  1  2  1  0
  2  3  1  0
  3  4  1  0
  4  5  1  0
  4  6  1  0
  6  7  1  0
  7  8  1  0
  8  9  1  0
  4  2  1  0
  1 10  1  0
  1 11  1  0
  1 12  1  0
  2 13  1  0
  3 14  1  0
  3 15  1  0
  5 16  1  0
  6 17  1  0
  6 18  1  0
  7 19  1  0
  7 20  1  0
  8 21  1  0
  8 22  1  0
  9 23  1  0
M  END
