
     RDKit          3D

 19 20  0  0  0  0  0  0  0  0999 V2000
   -2.2325    0.0379    0.2628 C   0  0  0  0  0  0  0  0  0  0  0  0
   -0.8485    0.0962   -0.3148 C   0  0  0  0  0  0  0  0  0  0  0  0
   -0.0988   -1.2013   -0.1688 C   0  0  0  0  0  0  0  0  0  0  0  0
    1.3313   -0.9172   -0.6053 C   0  0  0  0  0  0  0  0  0  0  0  0
    1.3881    0.2687   -1.3738 O   0  0  0  0  0  0  0  0  0  0  0  0
    1.4260    0.9734   -0.1722 C   0  0  0  0  0  0  0  0  0  0  0  0
   -0.0017    1.1601    0.3526 C   0  0  0  0  0  0  0  0  0  0  0  0
    2.0705   -0.2112    0.4285 C   0  0  0  0  0  0  0  0  0  0  0  0
    2.8262   -0.4793    1.3201 O   0  0  0  0  0  0  0  0  0  0  0  0
   -2.8378   -0.6284   -0.3738 H   0  0  0  0  0  0  0  0  0  0  0  0
   -2.2282   -0.2228    1.3271 H   0  0  0  0  0  0  0  0  0  0  0  0
   -2.6675    1.0611    0.1670 H   0  0  0  0  0  0  0  0  0  0  0  0
   -0.9575    0.2845   -1.4068 H   0  0  0  0  0  0  0  0  0  0  0  0
   -0.5529   -2.0383   -0.7095 H   0  0  0  0  0  0  0  0  0  0  0  0
   -0.0342   -1.4040    0.9385 H   0  0  0  0  0  0  0  0  0  0  0  0
    1.7846   -1.7917   -1.0737 H   0  0  0  0  0  0  0  0  0  0  0  0
    1.9853    1.9065   -0.1782 H   0  0  0  0  0  0  0  0  0  0  0  0
   -0.3248    2.1786    0.1314 H   0  0  0  0  0  0  0  0  0  0  0  0
   -0.0275    0.9270    1.4491 H   0  0  0  0  0  0  0  0  0  0  0  0
  1  2  1  0
  2  3  1  0
  3  4  1  0
  4  5  1  0
  5  6  1  0
  6  7  1  0
  6  8  1  0
  8  9  2  0
  7  2  1  0
  8  4  1  0
  1 10  1  0
  1 11  1  0
  1 12  1  0
  2 13  1  0
  3 14  1  0
  3 15  1  0
  4 16  1  0
  6 17  1  0
  7 18  1  0
  7 19  1  0
M  END
