
     RDKit          3D

 23 23  0  0  0  0  0  0  0  0999 V2000
    1.5881    1.0009   -0.8135 C   0  0  0  0  0  0  0  0  0  0  0  0
    0.8946    0.4682    0.3936 C   0  0  0  0  0  0  0  0  0  0  0  0
    1.3113   -0.9928    0.6157 C   0  0  0  0  0  0  0  0  0  0  0  0
    0.0603   -1.3842   -0.1354 C   0  0  0  0  0  0  0  0  0  0  0  0
    0.1968   -1.4523   -1.5107 O   0  0  0  0  0  0  0  0  0  0  0  0
   -0.5001   -0.0062    0.2461 C   0  0  0  0  0  0  0  0  0  0  0  0
   -1.2085   -0.0241    1.5921 C   0  0  0  0  0  0  0  0  0  0  0  0
   -1.3199    0.5702   -0.8672 C   0  0  0  0  0  0  0  0  0  0  0  0
   -1.4870    1.9272   -0.8114 O   0  0  0  0  0  0  0  0  0  0  0  0
    2.5853    1.4002   -0.4700 H   0  0  0  0  0  0  0  0  0  0  0  0
    1.0838    1.8457   -1.2988 H   0  0  0  0  0  0  0  0  0  0  0  0
    1.8583    0.2006   -1.5527 H   0  0  0  0  0  0  0  0  0  0  0  0
    1.0942    1.1197    1.2836 H   0  0  0  0  0  0  0  0  0  0  0  0
    2.2635   -1.2440    0.1548 H   0  0  0  0  0  0  0  0  0  0  0  0
    1.1892   -1.2739    1.6962 H   0  0  0  0  0  0  0  0  0  0  0  0
   -0.4561   -2.2305    0.3249 H   0  0  0  0  0  0  0  0  0  0  0  0
    0.4653   -2.3152   -1.8589 H   0  0  0  0  0  0  0  0  0  0  0  0
   -0.6970    0.6659    2.3195 H   0  0  0  0  0  0  0  0  0  0  0  0
   -1.1137   -1.0353    2.0378 H   0  0  0  0  0  0  0  0  0  0  0  0
   -2.2645    0.3066    1.5084 H   0  0  0  0  0  0  0  0  0  0  0  0
   -0.9429    0.1960   -1.8485 H   0  0  0  0  0  0  0  0  0  0  0  0
   -2.3482    0.1106   -0.7727 H   0  0  0  0  0  0  0  0  0  0  0  0
   -2.2525    2.1466   -0.2330 H   0  0  0  0  0  0  0  0  0  0  0  0
  1  2  1  0
  2  3  1  0
  3  4  1  0
  4  5  1  0
  4  6  1  0
  6  7  1  0
  6  8  1  0
  8  9  1  0
  6  2  1  0
  1 10  1  0
  1 11  1  0
  1 12  1  0
  2 13  1  0
  3 14  1  0
  3 15  1  0
  4 16  1  0
  5 17  1  0
  7 18  1  0
  7 19  1  0
  7 20  1  0
  8 21  1  0
  8 22  1  0
  9 23  1  0
M  END
