
     RDKit          3D

 21 23  0  0  0  0  0  0  0  0999 V2000
    2.1838    0.6587   -0.2362 C   0  0  0  0  0  0  0  0  0  0  0  0
    1.0698   -0.1178    0.3385 C   0  0  0  0  0  0  0  0  0  0  0  0
    0.3961   -1.0590   -0.6459 C   0  0  0  0  0  0  0  0  0  0  0  0
   -0.9842   -1.2311   -0.0759 C   0  0  0  0  0  0  0  0  0  0  0  0
   -1.8916   -0.0656   -0.3695 C   0  0  0  0  0  0  0  0  0  0  0  0
   -0.9834    1.1405   -0.3421 C   0  0  0  0  0  0  0  0  0  0  0  0
   -0.0945    0.6771    0.8231 C   0  0  0  0  0  0  0  0  0  0  0  0
   -0.9945   -0.4904    1.2604 C   0  0  0  0  0  0  0  0  0  0  0  0
   -2.2767   -0.1330    0.9888 O   0  0  0  0  0  0  0  0  0  0  0  0
    2.3030    0.6276   -1.3169 H   0  0  0  0  0  0  0  0  0  0  0  0
    2.1634    1.7328    0.1080 H   0  0  0  0  0  0  0  0  0  0  0  0
    3.1468    0.2613    0.1981 H   0  0  0  0  0  0  0  0  0  0  0  0
    1.4063   -0.7710    1.1925 H   0  0  0  0  0  0  0  0  0  0  0  0
    0.9404   -1.9916   -0.7927 H   0  0  0  0  0  0  0  0  0  0  0  0
    0.2917   -0.5849   -1.6522 H   0  0  0  0  0  0  0  0  0  0  0  0
   -1.4196   -2.2138   -0.0861 H   0  0  0  0  0  0  0  0  0  0  0  0
   -2.6459   -0.1471   -1.1090 H   0  0  0  0  0  0  0  0  0  0  0  0
   -0.4124    1.2924   -1.2549 H   0  0  0  0  0  0  0  0  0  0  0  0
   -1.5542    2.0302   -0.1008 H   0  0  0  0  0  0  0  0  0  0  0  0
    0.0711    1.4100    1.5728 H   0  0  0  0  0  0  0  0  0  0  0  0
   -0.7156   -1.0254    2.1305 H   0  0  0  0  0  0  0  0  0  0  0  0
  1  2  1  0
  2  3  1  0
  3  4  1  0
  4  5  1  0
  5  6  1  0
  6  7  1  0
  7  8  1  0
  8  9  1  0
  7  2  1  0
  8  4  1  0
  9  5  1  0
  1 10  1  0
  1 11  1  0
  1 12  1  0
  2 13  1  0
  3 14  1  0
  3 15  1  0
  4 16  1  0
  5 17  1  0
  6 18  1  0
  6 19  1  0
  7 20  1  0
  8 21  1  0
M  END
