
     RDKit          3D

 25 25  0  0  0  0  0  0  0  0999 V2000
   -2.1695   -0.5602    0.3281 C   0  0  0  0  0  0  0  0  0  0  0  0
   -0.7880    0.0106    0.3463 C   0  0  0  0  0  0  0  0  0  0  0  0
   -0.7728    1.2325   -0.5773 C   0  0  0  0  0  0  0  0  0  0  0  0
    0.3783    2.0942   -0.0833 C   0  0  0  0  0  0  0  0  0  0  0  0
    1.5478    1.2162    0.2061 C   0  0  0  0  0  0  0  0  0  0  0  0
    1.4948   -0.1187   -0.4978 C   0  0  0  0  0  0  0  0  0  0  0  0
    0.2670   -0.9139   -0.1513 C   0  0  0  0  0  0  0  0  0  0  0  0
    0.6188   -2.0141    0.8324 C   0  0  0  0  0  0  0  0  0  0  0  0
   -0.1354   -1.5665   -1.3353 O   0  0  0  0  0  0  0  0  0  0  0  0
   -2.5737   -0.6907   -0.7148 H   0  0  0  0  0  0  0  0  0  0  0  0
   -2.2768   -1.4625    0.9401 H   0  0  0  0  0  0  0  0  0  0  0  0
   -2.8462    0.2084    0.7874 H   0  0  0  0  0  0  0  0  0  0  0  0
   -0.5454    0.3152    1.3662 H   0  0  0  0  0  0  0  0  0  0  0  0
   -1.7307    1.7479   -0.5437 H   0  0  0  0  0  0  0  0  0  0  0  0
   -0.4763    0.8831   -1.5962 H   0  0  0  0  0  0  0  0  0  0  0  0
    0.5528    2.8843   -0.8135 H   0  0  0  0  0  0  0  0  0  0  0  0
   -0.0006    2.5912    0.8534 H   0  0  0  0  0  0  0  0  0  0  0  0
    2.4583    1.7368   -0.1796 H   0  0  0  0  0  0  0  0  0  0  0  0
    1.7380    1.0580    1.2903 H   0  0  0  0  0  0  0  0  0  0  0  0
    1.6200    0.0411   -1.5875 H   0  0  0  0  0  0  0  0  0  0  0  0
    2.3985   -0.6883   -0.1422 H   0  0  0  0  0  0  0  0  0  0  0  0
   -0.3218   -2.4608    1.1730 H   0  0  0  0  0  0  0  0  0  0  0  0
    1.1689   -2.7868    0.2490 H   0  0  0  0  0  0  0  0  0  0  0  0
    1.2766   -1.6456    1.6263 H   0  0  0  0  0  0  0  0  0  0  0  0
   -0.8826   -1.1115   -1.7760 H   0  0  0  0  0  0  0  0  0  0  0  0
  1  2  1  0
  2  3  1  0
  3  4  1  0
  4  5  1  0
  5  6  1  0
  6  7  1  0
  7  8  1  0
  7  9  1  0
  7  2  1  0
  1 10  1  0
  1 11  1  0
  1 12  1  0
  2 13  1  0
  3 14  1  0
  3 15  1  0
  4 16  1  0
  4 17  1  0
  5 18  1  0
  5 19  1  0
  6 20  1  0
  6 21  1  0
  8 22  1  0
  8 23  1  0
  8 24  1  0
  9 25  1  0
M  END
