
     RDKit          3D

 17 17  0  0  0  0  0  0  0  0999 V2000
   -1.9386   -0.0080    0.0519 C   0  0  0  0  0  0  0  0  0  0  0  0
   -0.5157   -0.1932   -0.3797 C   0  0  0  0  0  0  0  0  0  0  0  0
    0.1525   -1.3708    0.3435 C   0  0  0  0  0  0  0  0  0  0  0  0
    1.5815   -1.0790    0.0711 C   0  0  0  0  0  0  0  0  0  0  0  0
    2.5246   -1.9020    0.0430 O   0  0  0  0  0  0  0  0  0  0  0  0
    1.7358    0.3476   -0.1666 C   0  0  0  0  0  0  0  0  0  0  0  0
    2.7506    1.0142   -0.4918 O   0  0  0  0  0  0  0  0  0  0  0  0
    0.3817    0.9454    0.0559 C   0  0  0  0  0  0  0  0  0  0  0  0
    0.1852    2.0927   -0.6901 O   0  0  0  0  0  0  0  0  0  0  0  0
   -2.5198    0.4756   -0.7790 H   0  0  0  0  0  0  0  0  0  0  0  0
   -2.0624    0.6171    0.9366 H   0  0  0  0  0  0  0  0  0  0  0  0
   -2.4007   -1.0040    0.2533 H   0  0  0  0  0  0  0  0  0  0  0  0
   -0.3940   -0.3044   -1.4710 H   0  0  0  0  0  0  0  0  0  0  0  0
   -0.0909   -1.2601    1.4050 H   0  0  0  0  0  0  0  0  0  0  0  0
   -0.1933   -2.3049   -0.1146 H   0  0  0  0  0  0  0  0  0  0  0  0
    0.1898    1.1003    1.1400 H   0  0  0  0  0  0  0  0  0  0  0  0
    0.6136    2.8336   -0.2075 H   0  0  0  0  0  0  0  0  0  0  0  0
  1  2  1  0
  2  3  1  0
  3  4  1  0
  4  5  2  0
  4  6  1  0
  6  7  2  0
  6  8  1  0
  8  9  1  0
  8  2  1  0
  1 10  1  0
  1 11  1  0
  1 12  1  0
  2 13  1  0
  3 14  1  0
  3 15  1  0
  8 16  1  0
  9 17  1  0
M  END
