
     RDKit          3D

 19 19  0  0  0  0  0  0  0  0999 V2000
    2.5099   -0.4601    0.4484 C   0  0  0  0  0  0  0  0  0  0  0  0
    0.9906   -0.2184    0.3981 C   0  0  0  0  0  0  0  0  0  0  0  0
    0.6958    1.1361   -0.0871 C   0  0  0  0  0  0  0  0  0  0  0  0
   -0.5064    1.6562   -0.2736 C   0  0  0  0  0  0  0  0  0  0  0  0
   -1.7902    0.9872   -0.0348 C   0  0  0  0  0  0  0  0  0  0  0  0
   -2.8283    1.6930    0.0163 O   0  0  0  0  0  0  0  0  0  0  0  0
   -1.9309   -0.5081    0.1530 C   0  0  0  0  0  0  0  0  0  0  0  0
   -0.8603   -1.1931   -0.6849 C   0  0  0  0  0  0  0  0  0  0  0  0
    0.3697   -1.2621   -0.1658 O   0  0  0  0  0  0  0  0  0  0  0  0
    3.0236    0.5244    0.4666 H   0  0  0  0  0  0  0  0  0  0  0  0
    2.8195   -1.0157   -0.4767 H   0  0  0  0  0  0  0  0  0  0  0  0
    2.7691   -1.0955    1.2927 H   0  0  0  0  0  0  0  0  0  0  0  0
    0.7046   -0.2123    1.4956 H   0  0  0  0  0  0  0  0  0  0  0  0
    1.5527    1.7923   -0.3220 H   0  0  0  0  0  0  0  0  0  0  0  0
   -0.5713    2.6874   -0.6406 H   0  0  0  0  0  0  0  0  0  0  0  0
   -2.9156   -0.7664   -0.2703 H   0  0  0  0  0  0  0  0  0  0  0  0
   -1.8827   -0.7885    1.2083 H   0  0  0  0  0  0  0  0  0  0  0  0
   -0.9087   -0.7091   -1.6943 H   0  0  0  0  0  0  0  0  0  0  0  0
   -1.2412   -2.2473   -0.8287 H   0  0  0  0  0  0  0  0  0  0  0  0
  1  2  1  0
  2  3  1  0
  3  4  2  0
  4  5  1  0
  5  6  2  0
  5  7  1  0
  7  8  1  0
  8  9  1  0
  9  2  1  0
  1 10  1  0
  1 11  1  0
  1 12  1  0
  2 13  1  0
  3 14  1  0
  4 15  1  0
  7 16  1  0
  7 17  1  0
  8 18  1  0
  8 19  1  0
M  END
