
     RDKit          3D

 19 19  0  0  0  0  0  0  0  0999 V2000
   -1.2219   -1.3653   -0.5816 C   0  0  0  0  0  0  0  0  0  0  0  0
   -1.0686   -0.0000   -0.0357 C   0  0  0  0  0  0  0  0  0  0  0  0
   -1.1904    0.1401    1.4453 C   0  0  0  0  0  0  0  0  0  0  0  0
   -2.0848   -0.1164    2.2944 O   0  0  0  0  0  0  0  0  0  0  0  0
    0.0815    0.6792    1.5990 O   0  0  0  0  0  0  0  0  0  0  0  0
    0.2689    0.5534    0.2104 C   0  0  0  0  0  0  0  0  0  0  0  0
    0.4173    1.9311   -0.4277 C   0  0  0  0  0  0  0  0  0  0  0  0
    1.4657   -0.2807   -0.0986 C   0  0  0  0  0  0  0  0  0  0  0  0
    1.3881   -1.5675    0.4038 O   0  0  0  0  0  0  0  0  0  0  0  0
   -2.0874   -1.4223   -1.3075 H   0  0  0  0  0  0  0  0  0  0  0  0
   -1.4791   -2.1443    0.1946 H   0  0  0  0  0  0  0  0  0  0  0  0
   -0.3548   -1.7506   -1.1431 H   0  0  0  0  0  0  0  0  0  0  0  0
   -1.8018    0.7185   -0.5068 H   0  0  0  0  0  0  0  0  0  0  0  0
    1.3966    2.3313   -0.1112 H   0  0  0  0  0  0  0  0  0  0  0  0
    0.3259    1.7963   -1.5116 H   0  0  0  0  0  0  0  0  0  0  0  0
   -0.4299    2.5414   -0.0040 H   0  0  0  0  0  0  0  0  0  0  0  0
    1.7091   -0.2803   -1.1919 H   0  0  0  0  0  0  0  0  0  0  0  0
    2.3544    0.2021    0.3988 H   0  0  0  0  0  0  0  0  0  0  0  0
    2.3112   -1.9660    0.3735 H   0  0  0  0  0  0  0  0  0  0  0  0
  1  2  1  0
  2  3  1  0
  3  4  2  0
  3  5  1  0
  5  6  1  0
  6  7  1  0
  6  8  1  0
  8  9  1  0
  6  2  1  0
  1 10  1  0
  1 11  1  0
  1 12  1  0
  2 13  1  0
  7 14  1  0
  7 15  1  0
  7 16  1  0
  8 17  1  0
  8 18  1  0
  9 19  1  0
M  END
