
     RDKit          3D

 19 21  0  0  0  0  0  0  0  0999 V2000
   -1.7545   -0.4928   -0.9880 C   0  0  0  0  0  0  0  0  0  0  0  0
   -1.0593   -0.0426    0.2600 C   0  0  0  0  0  0  0  0  0  0  0  0
    0.0264   -0.9731    0.7409 C   0  0  0  0  0  0  0  0  0  0  0  0
    0.9990   -1.4144   -0.2831 C   0  0  0  0  0  0  0  0  0  0  0  0
    1.8040   -0.4230   -0.6461 C   0  0  0  0  0  0  0  0  0  0  0  0
    1.4134    0.7882    0.1340 C   0  0  0  0  0  0  0  0  0  0  0  0
    0.6957    0.2682    1.2691 C   0  0  0  0  0  0  0  0  0  0  0  0
   -0.0416    1.0276    0.1352 C   0  0  0  0  0  0  0  0  0  0  0  0
   -0.4617    2.3085    0.3793 O   0  0  0  0  0  0  0  0  0  0  0  0
   -1.0569   -0.8336   -1.7614 H   0  0  0  0  0  0  0  0  0  0  0  0
   -2.3913   -1.3762   -0.7029 H   0  0  0  0  0  0  0  0  0  0  0  0
   -2.4575    0.2908   -1.3128 H   0  0  0  0  0  0  0  0  0  0  0  0
   -1.7797    0.1669    1.0541 H   0  0  0  0  0  0  0  0  0  0  0  0
   -0.2801   -1.7209    1.4762 H   0  0  0  0  0  0  0  0  0  0  0  0
    1.0484   -2.4127   -0.6839 H   0  0  0  0  0  0  0  0  0  0  0  0
    2.6184   -0.4065   -1.3653 H   0  0  0  0  0  0  0  0  0  0  0  0
    2.0867    1.6268    0.2533 H   0  0  0  0  0  0  0  0  0  0  0  0
    0.5077    0.6901    2.2318 H   0  0  0  0  0  0  0  0  0  0  0  0
    0.0829    2.9289   -0.1904 H   0  0  0  0  0  0  0  0  0  0  0  0
  1  2  1  0
  2  3  1  0
  3  4  1  0
  4  5  2  0
  5  6  1  0
  6  7  1  0
  7  8  1  0
  8  9  1  0
  8  2  1  0
  7  3  1  0
  8  6  1  0
  1 10  1  0
  1 11  1  0
  1 12  1  0
  2 13  1  0
  3 14  1  0
  4 15  1  0
  5 16  1  0
  6 17  1  0
  7 18  1  0
  9 19  1  0
M  END
