
     RDKit          3D

 18 18  0  0  0  0  0  0  0  0999 V2000
    2.1374    0.6843   -0.0600 C   0  0  0  0  0  0  0  0  0  0  0  0
    0.9403    0.0324    0.6363 C   0  0  0  0  0  0  0  0  0  0  0  0
    0.5476   -1.2501   -0.0391 C   0  0  0  0  0  0  0  0  0  0  0  0
   -0.8426   -0.9271   -0.5488 C   0  0  0  0  0  0  0  0  0  0  0  0
   -1.2606    0.2048    0.3748 C   0  0  0  0  0  0  0  0  0  0  0  0
   -2.2895    1.0574   -0.2573 C   0  0  0  0  0  0  0  0  0  0  0  0
   -1.9980    2.2047   -0.5307 O   0  0  0  0  0  0  0  0  0  0  0  0
   -0.1070    0.9122    0.5415 O   0  0  0  0  0  0  0  0  0  0  0  0
    2.9671   -0.0083   -0.2050 H   0  0  0  0  0  0  0  0  0  0  0  0
    1.7958    1.1864   -0.9917 H   0  0  0  0  0  0  0  0  0  0  0  0
    2.4583    1.5035    0.6337 H   0  0  0  0  0  0  0  0  0  0  0  0
    1.2046   -0.1169    1.7079 H   0  0  0  0  0  0  0  0  0  0  0  0
    0.4317   -2.0781    0.6874 H   0  0  0  0  0  0  0  0  0  0  0  0
    1.2282   -1.5716   -0.8264 H   0  0  0  0  0  0  0  0  0  0  0  0
   -0.7755   -0.5834   -1.5816 H   0  0  0  0  0  0  0  0  0  0  0  0
   -1.5313   -1.7883   -0.3983 H   0  0  0  0  0  0  0  0  0  0  0  0
   -1.6190   -0.1808    1.3479 H   0  0  0  0  0  0  0  0  0  0  0  0
   -3.2873    0.7189   -0.4905 H   0  0  0  0  0  0  0  0  0  0  0  0
  1  2  1  0
  2  3  1  0
  3  4  1  0
  4  5  1  0
  5  6  1  0
  6  7  2  0
  5  8  1  0
  8  2  1  0
  1  9  1  0
  1 10  1  0
  1 11  1  0
  2 12  1  0
  3 13  1  0
  3 14  1  0
  4 15  1  0
  4 16  1  0
  5 17  1  0
  6 18  1  0
M  END
