
     RDKit          3D

 19 20  0  0  0  0  0  0  0  0999 V2000
   -2.2069   -0.4896    0.5501 C   0  0  0  0  0  0  0  0  0  0  0  0
   -0.9249   -0.4095   -0.1972 C   0  0  0  0  0  0  0  0  0  0  0  0
    0.0308   -1.5247   -0.0188 C   0  0  0  0  0  0  0  0  0  0  0  0
   -0.0496   -2.7219    0.0769 O   0  0  0  0  0  0  0  0  0  0  0  0
    1.0934   -0.5378   -0.0112 C   0  0  0  0  0  0  0  0  0  0  0  0
    2.4157   -0.5698   -0.2782 C   0  0  0  0  0  0  0  0  0  0  0  0
    1.5695   -0.2399   -1.3891 O   0  0  0  0  0  0  0  0  0  0  0  0
    0.1460    0.4715    0.4614 C   0  0  0  0  0  0  0  0  0  0  0  0
    0.1381    1.8206   -0.1638 C   0  0  0  0  0  0  0  0  0  0  0  0
   -2.4773   -1.5580    0.6932 H   0  0  0  0  0  0  0  0  0  0  0  0
   -2.0957    0.0563    1.5122 H   0  0  0  0  0  0  0  0  0  0  0  0
   -3.0124    0.0327   -0.0420 H   0  0  0  0  0  0  0  0  0  0  0  0
   -1.0253   -0.1679   -1.2826 H   0  0  0  0  0  0  0  0  0  0  0  0
    3.1110    0.2460    0.0106 H   0  0  0  0  0  0  0  0  0  0  0  0
    2.9640   -1.5147   -0.4973 H   0  0  0  0  0  0  0  0  0  0  0  0
    0.0485    0.5261    1.5627 H   0  0  0  0  0  0  0  0  0  0  0  0
    0.4450    1.8115   -1.2234 H   0  0  0  0  0  0  0  0  0  0  0  0
   -0.9186    2.1998   -0.1342 H   0  0  0  0  0  0  0  0  0  0  0  0
    0.7488    2.5694    0.3706 H   0  0  0  0  0  0  0  0  0  0  0  0
  1  2  1  0
  2  3  1  0
  3  4  2  0
  3  5  1  0
  5  6  1  0
  6  7  1  0
  5  8  1  0
  8  9  1  0
  8  2  1  0
  7  5  1  0
  1 10  1  0
  1 11  1  0
  1 12  1  0
  2 13  1  0
  6 14  1  0
  6 15  1  0
  8 16  1  0
  9 17  1  0
  9 18  1  0
  9 19  1  0
M  END
