
     RDKit          3D

 21 22  0  0  0  0  0  0  0  0999 V2000
    2.7836   -0.2385    0.1841 C   0  0  0  0  0  0  0  0  0  0  0  0
    1.3001   -0.2353    0.2992 C   0  0  0  0  0  0  0  0  0  0  0  0
    0.6704   -0.9266   -0.8682 C   0  0  0  0  0  0  0  0  0  0  0  0
   -0.6351   -0.8308   -0.9919 C   0  0  0  0  0  0  0  0  0  0  0  0
   -1.4243   -0.0741   -0.0173 C   0  0  0  0  0  0  0  0  0  0  0  0
   -2.9305   -0.0859   -0.2183 C   0  0  0  0  0  0  0  0  0  0  0  0
   -1.1168   -0.1741    1.3488 O   0  0  0  0  0  0  0  0  0  0  0  0
   -0.7945    1.0275    0.5267 C   0  0  0  0  0  0  0  0  0  0  0  0
    0.6908    1.1272    0.4039 C   0  0  0  0  0  0  0  0  0  0  0  0
    3.2897   -0.5215    1.1463 H   0  0  0  0  0  0  0  0  0  0  0  0
    3.1378    0.7273   -0.1710 H   0  0  0  0  0  0  0  0  0  0  0  0
    3.0763   -1.0334   -0.5587 H   0  0  0  0  0  0  0  0  0  0  0  0
    0.9526   -0.8142    1.2033 H   0  0  0  0  0  0  0  0  0  0  0  0
    1.2958   -1.4707   -1.5571 H   0  0  0  0  0  0  0  0  0  0  0  0
   -1.1328   -1.3143   -1.8204 H   0  0  0  0  0  0  0  0  0  0  0  0
   -3.2160   -0.2826   -1.2497 H   0  0  0  0  0  0  0  0  0  0  0  0
   -3.3053   -0.9545    0.3913 H   0  0  0  0  0  0  0  0  0  0  0  0
   -3.3853    0.8294    0.2093 H   0  0  0  0  0  0  0  0  0  0  0  0
   -1.3425    1.9301    0.8830 H   0  0  0  0  0  0  0  0  0  0  0  0
    1.0177    1.7169   -0.4897 H   0  0  0  0  0  0  0  0  0  0  0  0
    1.0683    1.5982    1.3466 H   0  0  0  0  0  0  0  0  0  0  0  0
  1  2  1  0
  2  3  1  0
  3  4  2  0
  4  5  1  0
  5  6  1  0
  5  7  1  0
  7  8  1  0
  8  9  1  0
  9  2  1  0
  8  5  1  0
  1 10  1  0
  1 11  1  0
  1 12  1  0
  2 13  1  0
  3 14  1  0
  4 15  1  0
  6 16  1  0
  6 17  1  0
  6 18  1  0
  8 19  1  0
  9 20  1  0
  9 21  1  0
M  END
