
     RDKit          3D

 21 22  0  0  0  0  0  0  0  0999 V2000
   -2.0913    1.3384   -0.5594 C   0  0  0  0  0  0  0  0  0  0  0  0
   -1.1997    0.5521    0.3478 C   0  0  0  0  0  0  0  0  0  0  0  0
   -1.5453   -0.9260    0.3147 C   0  0  0  0  0  0  0  0  0  0  0  0
   -2.6709   -1.3534    0.2903 O   0  0  0  0  0  0  0  0  0  0  0  0
   -0.2198   -1.6518    0.3203 C   0  0  0  0  0  0  0  0  0  0  0  0
    0.6257   -0.6061    0.9509 C   0  0  0  0  0  0  0  0  0  0  0  0
    1.4641    0.4124    0.4894 C   0  0  0  0  0  0  0  0  0  0  0  0
    2.6926    0.0484   -0.3406 C   0  0  0  0  0  0  0  0  0  0  0  0
    0.2023    0.4696   -0.1318 C   0  0  0  0  0  0  0  0  0  0  0  0
   -2.7688    2.0192   -0.0046 H   0  0  0  0  0  0  0  0  0  0  0  0
   -1.4347    1.9089   -1.2582 H   0  0  0  0  0  0  0  0  0  0  0  0
   -2.6757    0.6038   -1.1808 H   0  0  0  0  0  0  0  0  0  0  0  0
   -1.1907    0.9204    1.3947 H   0  0  0  0  0  0  0  0  0  0  0  0
    0.0588   -1.9141   -0.7093 H   0  0  0  0  0  0  0  0  0  0  0  0
   -0.2914   -2.5902    0.8905 H   0  0  0  0  0  0  0  0  0  0  0  0
    0.1982   -0.4338    1.9916 H   0  0  0  0  0  0  0  0  0  0  0  0
    1.7225    1.2858    1.1597 H   0  0  0  0  0  0  0  0  0  0  0  0
    2.3567   -0.3022   -1.3614 H   0  0  0  0  0  0  0  0  0  0  0  0
    3.2449   -0.7987    0.1035 H   0  0  0  0  0  0  0  0  0  0  0  0
    3.3352    0.9220   -0.5399 H   0  0  0  0  0  0  0  0  0  0  0  0
    0.1875    0.0952   -1.2017 H   0  0  0  0  0  0  0  0  0  0  0  0
  1  2  1  0
  2  3  1  0
  3  4  2  0
  3  5  1  0
  5  6  1  0
  6  7  1  0
  7  8  1  0
  7  9  1  0
  9  2  1  0
  9  6  1  0
  1 10  1  0
  1 11  1  0
  1 12  1  0
  2 13  1  0
  5 14  1  0
  5 15  1  0
  6 16  1  0
  7 17  1  0
  8 18  1  0
  8 19  1  0
  8 20  1  0
  9 21  1  0
M  END
