
     RDKit          3D

 20 21  0  0  0  0  0  0  0  0999 V2000
   -0.7608    2.0568   -0.1385 C   0  0  0  0  0  0  0  0  0  0  0  0
   -0.7029    0.5850   -0.5356 C   0  0  0  0  0  0  0  0  0  0  0  0
   -0.9469   -0.4166    0.5444 C   0  0  0  0  0  0  0  0  0  0  0  0
   -1.6839   -1.7116    0.2159 C   0  0  0  0  0  0  0  0  0  0  0  0
    0.3641   -0.2652   -0.0651 C   0  0  0  0  0  0  0  0  0  0  0  0
    1.5995    0.1396    0.6147 C   0  0  0  0  0  0  0  0  0  0  0  0
    2.1829   -0.4773   -0.6619 C   0  0  0  0  0  0  0  0  0  0  0  0
    1.0012   -1.2339   -0.8051 O   0  0  0  0  0  0  0  0  0  0  0  0
    0.2090    2.3397    0.2811 H   0  0  0  0  0  0  0  0  0  0  0  0
   -1.5055    2.1467    0.6918 H   0  0  0  0  0  0  0  0  0  0  0  0
   -1.0238    2.6977   -0.9923 H   0  0  0  0  0  0  0  0  0  0  0  0
   -1.1384    0.3934   -1.5500 H   0  0  0  0  0  0  0  0  0  0  0  0
   -1.0855   -0.0194    1.5843 H   0  0  0  0  0  0  0  0  0  0  0  0
   -1.5721   -2.3550    1.1322 H   0  0  0  0  0  0  0  0  0  0  0  0
   -1.1487   -2.2727   -0.5864 H   0  0  0  0  0  0  0  0  0  0  0  0
   -2.7436   -1.5571    0.0252 H   0  0  0  0  0  0  0  0  0  0  0  0
    1.8449    1.2019    0.7178 H   0  0  0  0  0  0  0  0  0  0  0  0
    1.8186   -0.5094    1.4945 H   0  0  0  0  0  0  0  0  0  0  0  0
    3.0961   -1.0504   -0.5264 H   0  0  0  0  0  0  0  0  0  0  0  0
    2.1957    0.3078   -1.4406 H   0  0  0  0  0  0  0  0  0  0  0  0
  1  2  1  0
  2  3  1  0
  3  4  1  0
  3  5  1  0
  5  6  1  0
  6  7  1  0
  7  8  1  0
  5  2  1  0
  8  5  1  0
  1  9  1  0
  1 10  1  0
  1 11  1  0
  2 12  1  0
  3 13  1  0
  4 14  1  0
  4 15  1  0
  4 16  1  0
  6 17  1  0
  6 18  1  0
  7 19  1  0
  7 20  1  0
M  END
