
     RDKit          3D

 19 20  0  0  0  0  0  0  0  0999 V2000
    1.5447   -1.1408    0.2897 C   0  0  0  0  0  0  0  0  0  0  0  0
    0.6435   -0.0179    0.6723 C   0  0  0  0  0  0  0  0  0  0  0  0
    1.0564    1.2469   -0.0938 C   0  0  0  0  0  0  0  0  0  0  0  0
   -0.4324    1.5033   -0.3662 C   0  0  0  0  0  0  0  0  0  0  0  0
   -0.6719    0.0999    0.0631 C   0  0  0  0  0  0  0  0  0  0  0  0
   -1.1557   -0.8791   -0.9212 C   0  0  0  0  0  0  0  0  0  0  0  0
   -2.4732   -0.5268   -0.4644 O   0  0  0  0  0  0  0  0  0  0  0  0
   -1.8801   -0.2383    0.7637 C   0  0  0  0  0  0  0  0  0  0  0  0
   -2.3464   -0.2989    1.9317 O   0  0  0  0  0  0  0  0  0  0  0  0
    2.6249   -0.8161    0.2758 H   0  0  0  0  0  0  0  0  0  0  0  0
    1.3016   -1.4732   -0.7377 H   0  0  0  0  0  0  0  0  0  0  0  0
    1.5134   -1.9693    1.0339 H   0  0  0  0  0  0  0  0  0  0  0  0
    0.6940    0.2011    1.7664 H   0  0  0  0  0  0  0  0  0  0  0  0
    1.5612    1.0204   -1.0565 H   0  0  0  0  0  0  0  0  0  0  0  0
    1.5251    2.0167    0.5232 H   0  0  0  0  0  0  0  0  0  0  0  0
   -0.6763    1.6350   -1.4373 H   0  0  0  0  0  0  0  0  0  0  0  0
   -0.8887    2.2506    0.3154 H   0  0  0  0  0  0  0  0  0  0  0  0
   -0.9670   -1.9283   -0.5758 H   0  0  0  0  0  0  0  0  0  0  0  0
   -0.9731   -0.6852   -1.9825 H   0  0  0  0  0  0  0  0  0  0  0  0
  1  2  1  0
  2  3  1  0
  3  4  1  0
  4  5  1  0
  5  6  1  0
  6  7  1  0
  7  8  1  0
  8  9  2  0
  5  2  1  0
  8  5  1  0
  1 10  1  0
  1 11  1  0
  1 12  1  0
  2 13  1  0
  3 14  1  0
  3 15  1  0
  4 16  1  0
  4 17  1  0
  6 18  1  0
  6 19  1  0
M  END
