
     RDKit          3D

 20 20  0  0  0  0  0  0  0  0999 V2000
    2.0605    0.1976    0.6709 C   0  0  0  0  0  0  0  0  0  0  0  0
    1.3442   -0.2818   -0.5462 C   0  0  0  0  0  0  0  0  0  0  0  0
    0.5688   -1.5362   -0.3193 C   0  0  0  0  0  0  0  0  0  0  0  0
   -0.6762   -1.2754    0.0446 C   0  0  0  0  0  0  0  0  0  0  0  0
   -0.8307    0.1941    0.0910 C   0  0  0  0  0  0  0  0  0  0  0  0
   -2.2213    0.6416   -0.2815 C   0  0  0  0  0  0  0  0  0  0  0  0
   -0.5926    0.6838    1.3811 O   0  0  0  0  0  0  0  0  0  0  0  0
    0.2089    0.6860   -0.8854 C   0  0  0  0  0  0  0  0  0  0  0  0
    1.6025   -0.0816    1.6243 H   0  0  0  0  0  0  0  0  0  0  0  0
    2.0487    1.3266    0.6256 H   0  0  0  0  0  0  0  0  0  0  0  0
    3.1095   -0.1849    0.6981 H   0  0  0  0  0  0  0  0  0  0  0  0
    2.0277   -0.3346   -1.3864 H   0  0  0  0  0  0  0  0  0  0  0  0
    1.0191   -2.5275   -0.4508 H   0  0  0  0  0  0  0  0  0  0  0  0
   -1.4456   -2.0436    0.2687 H   0  0  0  0  0  0  0  0  0  0  0  0
   -2.8745    0.4858    0.6176 H   0  0  0  0  0  0  0  0  0  0  0  0
   -2.6236    0.1303   -1.1558 H   0  0  0  0  0  0  0  0  0  0  0  0
   -2.1696    1.7569   -0.3977 H   0  0  0  0  0  0  0  0  0  0  0  0
   -0.9037   -0.0056    2.0407 H   0  0  0  0  0  0  0  0  0  0  0  0
    0.4915    1.7318   -0.7389 H   0  0  0  0  0  0  0  0  0  0  0  0
   -0.1437    0.4368   -1.9005 H   0  0  0  0  0  0  0  0  0  0  0  0
  1  2  1  0
  2  3  1  0
  3  4  2  0
  4  5  1  0
  5  6  1  0
  5  7  1  0
  5  8  1  0
  8  2  1  0
  1  9  1  0
  1 10  1  0
  1 11  1  0
  2 12  1  0
  3 13  1  0
  4 14  1  0
  6 15  1  0
  6 16  1  0
  6 17  1  0
  7 18  1  0
  8 19  1  0
  8 20  1  0
M  END
