
     RDKit          3D

 23 24  0  0  0  0  0  0  0  0999 V2000
   -2.1374   -0.6691    0.7068 C   0  0  0  0  0  0  0  0  0  0  0  0
   -0.7902    0.0103    0.6363 C   0  0  0  0  0  0  0  0  0  0  0  0
   -0.8170    1.1323   -0.4225 C   0  0  0  0  0  0  0  0  0  0  0  0
    0.3766    0.7030   -1.2265 C   0  0  0  0  0  0  0  0  0  0  0  0
    0.0164   -0.7710   -1.4705 C   0  0  0  0  0  0  0  0  0  0  0  0
    0.2619   -0.8637    0.0439 C   0  0  0  0  0  0  0  0  0  0  0  0
    0.5755   -2.0385    0.5627 O   0  0  0  0  0  0  0  0  0  0  0  0
    1.3820    0.1448   -0.2327 C   0  0  0  0  0  0  0  0  0  0  0  0
    1.7054    1.0288    0.9264 C   0  0  0  0  0  0  0  0  0  0  0  0
   -2.4013   -1.2306   -0.1883 H   0  0  0  0  0  0  0  0  0  0  0  0
   -2.8748    0.1130    0.9858 H   0  0  0  0  0  0  0  0  0  0  0  0
   -2.0946   -1.3687    1.5649 H   0  0  0  0  0  0  0  0  0  0  0  0
   -0.5538    0.4015    1.6302 H   0  0  0  0  0  0  0  0  0  0  0  0
   -0.7392    2.1185    0.0267 H   0  0  0  0  0  0  0  0  0  0  0  0
   -1.7142    0.9991   -1.0802 H   0  0  0  0  0  0  0  0  0  0  0  0
    0.7167    1.2708   -2.0459 H   0  0  0  0  0  0  0  0  0  0  0  0
   -1.0229   -0.9374   -1.7730 H   0  0  0  0  0  0  0  0  0  0  0  0
    0.8072   -1.2258   -2.0785 H   0  0  0  0  0  0  0  0  0  0  0  0
    1.5088   -2.3155    0.5541 H   0  0  0  0  0  0  0  0  0  0  0  0
    2.2407   -0.2878   -0.7756 H   0  0  0  0  0  0  0  0  0  0  0  0
    2.6627    1.5513    0.6909 H   0  0  0  0  0  0  0  0  0  0  0  0
    1.9317    0.4325    1.8542 H   0  0  0  0  0  0  0  0  0  0  0  0
    0.9596    1.8024    1.1108 H   0  0  0  0  0  0  0  0  0  0  0  0
  1  2  1  0
  2  3  1  0
  3  4  1  0
  4  5  1  0
  5  6  1  0
  6  7  1  0
  6  8  1  0
  8  9  1  0
  6  2  1  0
  8  4  1  0
  1 10  1  0
  1 11  1  0
  1 12  1  0
  2 13  1  0
  3 14  1  0
  3 15  1  0
  4 16  1  0
  5 17  1  0
  5 18  1  0
  7 19  1  0
  8 20  1  0
  9 21  1  0
  9 22  1  0
  9 23  1  0
M  END
