
     RDKit          3D

 20 21  0  0  0  0  0  0  0  0999 V2000
    1.9941    1.0877   -0.5583 C   0  0  0  0  0  0  0  0  0  0  0  0
    1.2279    0.3731    0.4925 C   0  0  0  0  0  0  0  0  0  0  0  0
    1.1307   -1.1492    0.2602 C   0  0  0  0  0  0  0  0  0  0  0  0
   -0.0500   -0.2872    0.2610 C   0  0  0  0  0  0  0  0  0  0  0  0
   -0.9008   -0.0472   -0.9484 C   0  0  0  0  0  0  0  0  0  0  0  0
   -2.2347    0.2876   -0.3841 C   0  0  0  0  0  0  0  0  0  0  0  0
   -2.2198    0.1183    0.9688 O   0  0  0  0  0  0  0  0  0  0  0  0
   -1.0590   -0.5041    1.3464 C   0  0  0  0  0  0  0  0  0  0  0  0
    1.8070    2.1528   -0.6504 H   0  0  0  0  0  0  0  0  0  0  0  0
    3.0922    0.9181   -0.3546 H   0  0  0  0  0  0  0  0  0  0  0  0
    1.8170    0.5515   -1.5364 H   0  0  0  0  0  0  0  0  0  0  0  0
    1.4368    0.7085    1.5377 H   0  0  0  0  0  0  0  0  0  0  0  0
    1.3821   -1.7496    1.1679 H   0  0  0  0  0  0  0  0  0  0  0  0
    1.5252   -1.5582   -0.6710 H   0  0  0  0  0  0  0  0  0  0  0  0
   -0.5120    0.8377   -1.4886 H   0  0  0  0  0  0  0  0  0  0  0  0
   -0.9228   -0.8946   -1.6568 H   0  0  0  0  0  0  0  0  0  0  0  0
   -3.0030   -0.3278   -0.9062 H   0  0  0  0  0  0  0  0  0  0  0  0
   -2.5204    1.3564   -0.5870 H   0  0  0  0  0  0  0  0  0  0  0  0
   -0.7162   -0.2602    2.3523 H   0  0  0  0  0  0  0  0  0  0  0  0
   -1.2742   -1.6138    1.3549 H   0  0  0  0  0  0  0  0  0  0  0  0
  1  2  1  0
  2  3  1  0
  3  4  1  0
  4  5  1  0
  5  6  1  0
  6  7  1  0
  7  8  1  0
  4  2  1  0
  8  4  1  0
  1  9  1  0
  1 10  1  0
  1 11  1  0
  2 12  1  0
  3 13  1  0
  3 14  1  0
  5 15  1  0
  5 16  1  0
  6 17  1  0
  6 18  1  0
  8 19  1  0
  8 20  1  0
M  END
