
     RDKit          3D

 21 22  0  0  0  0  0  0  0  0999 V2000
   -1.8639    0.3607    0.8231 C   0  0  0  0  0  0  0  0  0  0  0  0
   -1.2629    0.2907   -0.5339 C   0  0  0  0  0  0  0  0  0  0  0  0
   -0.1291    1.2227   -0.8238 C   0  0  0  0  0  0  0  0  0  0  0  0
    0.7539    1.4056    0.3888 C   0  0  0  0  0  0  0  0  0  0  0  0
    1.5685    0.5342    0.9755 C   0  0  0  0  0  0  0  0  0  0  0  0
    1.7721   -0.8926    0.5758 C   0  0  0  0  0  0  0  0  0  0  0  0
    0.3904   -1.4440    0.2613 C   0  0  0  0  0  0  0  0  0  0  0  0
   -0.3020   -0.7850   -0.8566 C   0  0  0  0  0  0  0  0  0  0  0  0
    0.4510    0.1581   -1.5573 O   0  0  0  0  0  0  0  0  0  0  0  0
   -1.1808    0.2395    1.6567 H   0  0  0  0  0  0  0  0  0  0  0  0
   -2.3129    1.3930    0.9306 H   0  0  0  0  0  0  0  0  0  0  0  0
   -2.7452   -0.3229    0.8437 H   0  0  0  0  0  0  0  0  0  0  0  0
   -2.0469    0.3932   -1.3128 H   0  0  0  0  0  0  0  0  0  0  0  0
   -0.3323    2.1249   -1.3925 H   0  0  0  0  0  0  0  0  0  0  0  0
    0.7181    2.3948    0.8492 H   0  0  0  0  0  0  0  0  0  0  0  0
    2.1509    0.8859    1.8356 H   0  0  0  0  0  0  0  0  0  0  0  0
    2.2337   -1.4930    1.3562 H   0  0  0  0  0  0  0  0  0  0  0  0
    2.4445   -0.9540   -0.3256 H   0  0  0  0  0  0  0  0  0  0  0  0
    0.5679   -2.5295   -0.0012 H   0  0  0  0  0  0  0  0  0  0  0  0
   -0.1569   -1.4698    1.2178 H   0  0  0  0  0  0  0  0  0  0  0  0
   -0.7184   -1.5125   -1.6123 H   0  0  0  0  0  0  0  0  0  0  0  0
  1  2  1  0
  2  3  1  0
  3  4  1  0
  4  5  2  0
  5  6  1  0
  6  7  1  0
  7  8  1  0
  8  9  1  0
  8  2  1  0
  9  3  1  0
  1 10  1  0
  1 11  1  0
  1 12  1  0
  2 13  1  0
  3 14  1  0
  4 15  1  0
  5 16  1  0
  6 17  1  0
  6 18  1  0
  7 19  1  0
  7 20  1  0
  8 21  1  0
M  END
