
     RDKit          3D

 23 25  0  0  0  0  0  0  0  0999 V2000
    2.8979    0.4017   -0.3388 C   0  0  0  0  0  0  0  0  0  0  0  0
    1.4442    0.2724    0.1240 C   0  0  0  0  0  0  0  0  0  0  0  0
    0.6672   -0.9118   -0.3218 C   0  0  0  0  0  0  0  0  0  0  0  0
   -0.5020   -1.4175    0.4461 C   0  0  0  0  0  0  0  0  0  0  0  0
   -1.7008   -0.5144    0.4073 C   0  0  0  0  0  0  0  0  0  0  0  0
   -1.3677    0.9327    0.6400 C   0  0  0  0  0  0  0  0  0  0  0  0
   -0.8969    0.9909   -0.7761 C   0  0  0  0  0  0  0  0  0  0  0  0
   -1.9095   -0.1292   -1.0616 C   0  0  0  0  0  0  0  0  0  0  0  0
    0.4627    0.4012   -0.9857 C   0  0  0  0  0  0  0  0  0  0  0  0
    3.5954    0.4380    0.4952 H   0  0  0  0  0  0  0  0  0  0  0  0
    2.9451    1.4114   -0.8418 H   0  0  0  0  0  0  0  0  0  0  0  0
    3.1421   -0.3324   -1.1255 H   0  0  0  0  0  0  0  0  0  0  0  0
    1.2768    0.6906    1.1106 H   0  0  0  0  0  0  0  0  0  0  0  0
    1.2980   -1.7026   -0.8263 H   0  0  0  0  0  0  0  0  0  0  0  0
   -0.8388   -2.3768   -0.0514 H   0  0  0  0  0  0  0  0  0  0  0  0
   -0.2448   -1.7310    1.4878 H   0  0  0  0  0  0  0  0  0  0  0  0
   -2.5642   -0.9257    0.9119 H   0  0  0  0  0  0  0  0  0  0  0  0
   -2.3315    1.5052    0.7326 H   0  0  0  0  0  0  0  0  0  0  0  0
   -0.6772    1.1764    1.4325 H   0  0  0  0  0  0  0  0  0  0  0  0
   -1.0523    1.9064   -1.3357 H   0  0  0  0  0  0  0  0  0  0  0  0
   -2.9141    0.2958   -1.2510 H   0  0  0  0  0  0  0  0  0  0  0  0
   -1.5524   -0.8901   -1.7710 H   0  0  0  0  0  0  0  0  0  0  0  0
    0.8227    0.5087   -2.0415 H   0  0  0  0  0  0  0  0  0  0  0  0
  1  2  1  0
  2  3  1  0
  3  4  1  0
  4  5  1  0
  5  6  1  0
  6  7  1  0
  7  8  1  0
  7  9  1  0
  9  2  1  0
  9  3  1  0
  8  5  1  0
  1 10  1  0
  1 11  1  0
  1 12  1  0
  2 13  1  0
  3 14  1  0
  4 15  1  0
  4 16  1  0
  5 17  1  0
  6 18  1  0
  6 19  1  0
  7 20  1  0
  8 21  1  0
  8 22  1  0
  9 23  1  0
M  END
