
     RDKit          3D

 21 22  0  0  0  0  0  0  0  0999 V2000
    2.9332    0.0108    0.3876 C   0  0  0  0  0  0  0  0  0  0  0  0
    1.4894    0.4120    0.2032 C   0  0  0  0  0  0  0  0  0  0  0  0
    0.7723   -0.4129   -0.8761 C   0  0  0  0  0  0  0  0  0  0  0  0
   -0.3366   -0.2005    0.0905 C   0  0  0  0  0  0  0  0  0  0  0  0
   -1.3925   -1.2405    0.1903 C   0  0  0  0  0  0  0  0  0  0  0  0
   -2.5457   -0.4569    0.7715 C   0  0  0  0  0  0  0  0  0  0  0  0
   -2.3688    0.8261    0.5770 C   0  0  0  0  0  0  0  0  0  0  0  0
   -1.1098    1.0643   -0.1397 C   0  0  0  0  0  0  0  0  0  0  0  0
    0.5984   -0.1538    1.1172 O   0  0  0  0  0  0  0  0  0  0  0  0
    3.4021    0.0899   -0.6377 H   0  0  0  0  0  0  0  0  0  0  0  0
    3.0546   -0.9959    0.8036 H   0  0  0  0  0  0  0  0  0  0  0  0
    3.4361    0.7510    1.0107 H   0  0  0  0  0  0  0  0  0  0  0  0
    1.4003    1.4894    0.0580 H   0  0  0  0  0  0  0  0  0  0  0  0
    0.7328    0.1426   -1.8150 H   0  0  0  0  0  0  0  0  0  0  0  0
    1.1905   -1.4248   -0.9565 H   0  0  0  0  0  0  0  0  0  0  0  0
   -1.1884   -2.0482    0.9089 H   0  0  0  0  0  0  0  0  0  0  0  0
   -1.7351   -1.6376   -0.7757 H   0  0  0  0  0  0  0  0  0  0  0  0
   -3.3858   -0.9076    1.2716 H   0  0  0  0  0  0  0  0  0  0  0  0
   -3.0823    1.5924    0.9155 H   0  0  0  0  0  0  0  0  0  0  0  0
   -1.2580    1.1566   -1.2496 H   0  0  0  0  0  0  0  0  0  0  0  0
   -0.6066    1.9438    0.2919 H   0  0  0  0  0  0  0  0  0  0  0  0
  1  2  1  0
  2  3  1  0
  3  4  1  0
  4  5  1  0
  5  6  1  0
  6  7  2  0
  7  8  1  0
  4  9  1  0
  9  2  1  0
  8  4  1  0
  1 10  1  0
  1 11  1  0
  1 12  1  0
  2 13  1  0
  3 14  1  0
  3 15  1  0
  5 16  1  0
  5 17  1  0
  6 18  1  0
  7 19  1  0
  8 20  1  0
  8 21  1  0
M  END
