
     RDKit          3D

 21 22  0  0  0  0  0  0  0  0999 V2000
    2.0529    0.1947   -0.2606 C   0  0  0  0  0  0  0  0  0  0  0  0
    0.7348   -0.0900   -0.9941 C   0  0  0  0  0  0  0  0  0  0  0  0
   -0.4819    0.6856   -0.5603 C   0  0  0  0  0  0  0  0  0  0  0  0
   -0.3506    1.8317    0.3954 C   0  0  0  0  0  0  0  0  0  0  0  0
   -1.6242    2.3563    0.6153 O   0  0  0  0  0  0  0  0  0  0  0  0
   -0.2834   -0.6881   -0.1649 C   0  0  0  0  0  0  0  0  0  0  0  0
   -0.1050   -1.2164    1.1933 C   0  0  0  0  0  0  0  0  0  0  0  0
   -1.2079   -2.0714    0.9627 O   0  0  0  0  0  0  0  0  0  0  0  0
   -1.1380   -1.8348   -0.4293 C   0  0  0  0  0  0  0  0  0  0  0  0
    1.8733    1.0356    0.4119 H   0  0  0  0  0  0  0  0  0  0  0  0
    2.2475   -0.7498    0.3288 H   0  0  0  0  0  0  0  0  0  0  0  0
    2.8931    0.2994   -0.9452 H   0  0  0  0  0  0  0  0  0  0  0  0
    0.8577   -0.2175   -2.0758 H   0  0  0  0  0  0  0  0  0  0  0  0
   -1.2661    0.8683   -1.3516 H   0  0  0  0  0  0  0  0  0  0  0  0
    0.2892    2.6368   -0.0335 H   0  0  0  0  0  0  0  0  0  0  0  0
    0.0922    1.5548    1.3595 H   0  0  0  0  0  0  0  0  0  0  0  0
   -2.2868    2.0028   -0.0144 H   0  0  0  0  0  0  0  0  0  0  0  0
   -0.2162   -0.5423    2.0382 H   0  0  0  0  0  0  0  0  0  0  0  0
    0.7976   -1.8777    1.2916 H   0  0  0  0  0  0  0  0  0  0  0  0
   -0.7057   -2.6586   -1.0111 H   0  0  0  0  0  0  0  0  0  0  0  0
   -2.1725   -1.5197   -0.7559 H   0  0  0  0  0  0  0  0  0  0  0  0
  1  2  1  0
  2  3  1  0
  3  4  1  0
  4  5  1  0
  3  6  1  0
  6  7  1  0
  7  8  1  0
  8  9  1  0
  6  2  1  0
  9  6  1  0
  1 10  1  0
  1 11  1  0
  1 12  1  0
  2 13  1  0
  3 14  1  0
  4 15  1  0
  4 16  1  0
  5 17  1  0
  7 18  1  0
  7 19  1  0
  9 20  1  0
  9 21  1  0
M  END
