
     RDKit          3D

 17 17  0  0  0  0  0  0  0  0999 V2000
   -2.0564    0.3178    0.3878 C   0  0  0  0  0  0  0  0  0  0  0  0
   -0.8278   -0.5971    0.4127 C   0  0  0  0  0  0  0  0  0  0  0  0
   -0.2349   -0.6690   -0.9500 C   0  0  0  0  0  0  0  0  0  0  0  0
    0.9661    0.1821   -1.1326 C   0  0  0  0  0  0  0  0  0  0  0  0
    1.1623    0.8549   -2.1217 O   0  0  0  0  0  0  0  0  0  0  0  0
    1.9631    0.1929   -0.0339 C   0  0  0  0  0  0  0  0  0  0  0  0
    1.2160    0.5247    1.2075 C   0  0  0  0  0  0  0  0  0  0  0  0
    1.7221    1.3777    1.9809 O   0  0  0  0  0  0  0  0  0  0  0  0
    0.0331   -0.1278    1.4087 O   0  0  0  0  0  0  0  0  0  0  0  0
   -2.4929    0.2554    1.3997 H   0  0  0  0  0  0  0  0  0  0  0  0
   -1.7008    1.3671    0.2634 H   0  0  0  0  0  0  0  0  0  0  0  0
   -2.7486    0.0000   -0.4116 H   0  0  0  0  0  0  0  0  0  0  0  0
   -1.2133   -1.6112    0.6631 H   0  0  0  0  0  0  0  0  0  0  0  0
    0.0260   -1.7298   -1.2235 H   0  0  0  0  0  0  0  0  0  0  0  0
   -0.9728   -0.3598   -1.7463 H   0  0  0  0  0  0  0  0  0  0  0  0
    2.3524   -0.8569    0.1183 H   0  0  0  0  0  0  0  0  0  0  0  0
    2.8062    0.8789   -0.2224 H   0  0  0  0  0  0  0  0  0  0  0  0
  1  2  1  0
  2  3  1  0
  3  4  1  0
  4  5  2  0
  4  6  1  0
  6  7  1  0
  7  8  2  0
  7  9  1  0
  9  2  1  0
  1 10  1  0
  1 11  1  0
  1 12  1  0
  2 13  1  0
  3 14  1  0
  3 15  1  0
  6 16  1  0
  6 17  1  0
M  END
