
     RDKit          3D

 21 21  0  0  0  0  0  0  0  0999 V2000
   -1.5079   -0.9979   -0.7283 C   0  0  0  0  0  0  0  0  0  0  0  0
   -0.7941   -0.5761    0.5112 C   0  0  0  0  0  0  0  0  0  0  0  0
   -0.5607    0.8902    0.7777 C   0  0  0  0  0  0  0  0  0  0  0  0
   -0.8818    1.8665   -0.3254 C   0  0  0  0  0  0  0  0  0  0  0  0
    0.5803   -0.0765    0.5655 C   0  0  0  0  0  0  0  0  0  0  0  0
    1.3384   -0.4435    1.7084 O   0  0  0  0  0  0  0  0  0  0  0  0
    1.4304    0.1996   -0.6257 C   0  0  0  0  0  0  0  0  0  0  0  0
    1.6725   -0.9879   -1.4831 C   0  0  0  0  0  0  0  0  0  0  0  0
    2.4836   -1.8600   -1.1304 O   0  0  0  0  0  0  0  0  0  0  0  0
   -1.5007   -2.1229   -0.7627 H   0  0  0  0  0  0  0  0  0  0  0  0
   -2.5598   -0.6158   -0.6565 H   0  0  0  0  0  0  0  0  0  0  0  0
   -1.0340   -0.6805   -1.6760 H   0  0  0  0  0  0  0  0  0  0  0  0
   -1.1594   -1.1162    1.4319 H   0  0  0  0  0  0  0  0  0  0  0  0
   -0.6307    1.2813    1.8099 H   0  0  0  0  0  0  0  0  0  0  0  0
   -0.9751    1.3140   -1.2851 H   0  0  0  0  0  0  0  0  0  0  0  0
   -1.8295    2.3899   -0.0911 H   0  0  0  0  0  0  0  0  0  0  0  0
   -0.0241    2.5564   -0.4463 H   0  0  0  0  0  0  0  0  0  0  0  0
    1.3135   -1.4372    1.7456 H   0  0  0  0  0  0  0  0  0  0  0  0
    2.4175    0.5638   -0.2815 H   0  0  0  0  0  0  0  0  0  0  0  0
    1.0371    1.0151   -1.2750 H   0  0  0  0  0  0  0  0  0  0  0  0
    1.1847   -1.1626   -2.4206 H   0  0  0  0  0  0  0  0  0  0  0  0
  1  2  1  0
  2  3  1  0
  3  4  1  0
  3  5  1  0
  5  6  1  0
  5  7  1  0
  7  8  1  0
  8  9  2  0
  5  2  1  0
  1 10  1  0
  1 11  1  0
  1 12  1  0
  2 13  1  0
  3 14  1  0
  4 15  1  0
  4 16  1  0
  4 17  1  0
  6 18  1  0
  7 19  1  0
  7 20  1  0
  8 21  1  0
M  END
