
     RDKit          3D

 21 22  0  0  0  0  0  0  0  0999 V2000
    2.3517    0.0510   -0.4671 C   0  0  0  0  0  0  0  0  0  0  0  0
    0.9271    0.4107   -0.2709 C   0  0  0  0  0  0  0  0  0  0  0  0
    0.5449    0.6685    1.1351 C   0  0  0  0  0  0  0  0  0  0  0  0
    1.1699    1.2471    1.9731 O   0  0  0  0  0  0  0  0  0  0  0  0
   -0.7874    0.0530    1.2880 C   0  0  0  0  0  0  0  0  0  0  0  0
   -1.7206    0.6652    0.2726 C   0  0  0  0  0  0  0  0  0  0  0  0
   -1.3356    0.0920   -1.0782 C   0  0  0  0  0  0  0  0  0  0  0  0
   -0.0522   -0.6320   -0.7308 C   0  0  0  0  0  0  0  0  0  0  0  0
   -0.5065   -1.2885    0.5854 C   0  0  0  0  0  0  0  0  0  0  0  0
    3.0230    0.4354    0.3561 H   0  0  0  0  0  0  0  0  0  0  0  0
    2.4771   -1.0268   -0.6247 H   0  0  0  0  0  0  0  0  0  0  0  0
    2.7563    0.5573   -1.3914 H   0  0  0  0  0  0  0  0  0  0  0  0
    0.7302    1.3744   -0.8260 H   0  0  0  0  0  0  0  0  0  0  0  0
   -1.1647   -0.0486    2.2774 H   0  0  0  0  0  0  0  0  0  0  0  0
   -2.7917    0.4702    0.4983 H   0  0  0  0  0  0  0  0  0  0  0  0
   -1.5405    1.7735    0.1994 H   0  0  0  0  0  0  0  0  0  0  0  0
   -1.1630    0.8739   -1.8334 H   0  0  0  0  0  0  0  0  0  0  0  0
   -2.1012   -0.6427   -1.4124 H   0  0  0  0  0  0  0  0  0  0  0  0
    0.2983   -1.3290   -1.4598 H   0  0  0  0  0  0  0  0  0  0  0  0
   -1.4209   -1.8675    0.4424 H   0  0  0  0  0  0  0  0  0  0  0  0
    0.3057   -1.8373    1.0670 H   0  0  0  0  0  0  0  0  0  0  0  0
  1  2  1  0
  2  3  1  0
  3  4  2  0
  3  5  1  0
  5  6  1  0
  6  7  1  0
  7  8  1  0
  8  9  1  0
  8  2  1  0
  9  5  1  0
  1 10  1  0
  1 11  1  0
  1 12  1  0
  2 13  1  0
  5 14  1  0
  6 15  1  0
  6 16  1  0
  7 17  1  0
  7 18  1  0
  8 19  1  0
  9 20  1  0
  9 21  1  0
M  END
