
     RDKit          3D

 16 16  0  0  0  0  0  0  0  0999 V2000
    2.0768    0.2259   -0.3621 C   0  0  0  0  0  0  0  0  0  0  0  0
    0.6804    0.0775    0.1268 C   0  0  0  0  0  0  0  0  0  0  0  0
   -0.1412   -0.8983   -0.7200 C   0  0  0  0  0  0  0  0  0  0  0  0
   -1.5235   -0.5613   -0.1391 C   0  0  0  0  0  0  0  0  0  0  0  0
   -1.3837    0.9351    0.0198 C   0  0  0  0  0  0  0  0  0  0  0  0
   -0.0488    1.2315    0.0942 O   0  0  0  0  0  0  0  0  0  0  0  0
    2.2835    1.3330   -0.4487 H   0  0  0  0  0  0  0  0  0  0  0  0
    2.3190   -0.3178   -1.2708 H   0  0  0  0  0  0  0  0  0  0  0  0
    2.7889   -0.1106    0.4469 H   0  0  0  0  0  0  0  0  0  0  0  0
    0.6255   -0.3379    1.1696 H   0  0  0  0  0  0  0  0  0  0  0  0
    0.1361   -1.9362   -0.5571 H   0  0  0  0  0  0  0  0  0  0  0  0
   -0.1235   -0.5418   -1.7483 H   0  0  0  0  0  0  0  0  0  0  0  0
   -2.3328   -0.8333   -0.8115 H   0  0  0  0  0  0  0  0  0  0  0  0
   -1.5840   -1.0399    0.8683 H   0  0  0  0  0  0  0  0  0  0  0  0
   -1.7739    1.4274   -0.9203 H   0  0  0  0  0  0  0  0  0  0  0  0
   -1.9986    1.3468    0.8355 H   0  0  0  0  0  0  0  0  0  0  0  0
  1  2  1  0
  2  3  1  0
  3  4  1  0
  4  5  1  0
  5  6  1  0
  6  2  1  0
  1  7  1  0
  1  8  1  0
  1  9  1  0
  2 10  1  0
  3 11  1  0
  3 12  1  0
  4 13  1  0
  4 14  1  0
  5 15  1  0
  5 16  1  0
M  END
