
     RDKit          3D

 25 25  0  0  0  0  0  0  0  0999 V2000
   -2.7819    0.9245   -0.0336 C   0  0  0  0  0  0  0  0  0  0  0  0
   -1.8021   -0.1456    0.2889 C   0  0  0  0  0  0  0  0  0  0  0  0
   -0.4675    0.3470    0.8680 C   0  0  0  0  0  0  0  0  0  0  0  0
    0.1747   -0.7627    0.0616 C   0  0  0  0  0  0  0  0  0  0  0  0
    0.1890   -1.9860    0.7699 O   0  0  0  0  0  0  0  0  0  0  0  0
    1.5376   -0.4759   -0.4636 C   0  0  0  0  0  0  0  0  0  0  0  0
    1.6078    0.7026   -1.3798 C   0  0  0  0  0  0  0  0  0  0  0  0
    2.4185   -0.1540    0.7509 C   0  0  0  0  0  0  0  0  0  0  0  0
   -0.9693   -0.6421   -0.9025 C   0  0  0  0  0  0  0  0  0  0  0  0
   -3.7244    0.8296    0.5802 H   0  0  0  0  0  0  0  0  0  0  0  0
   -2.3454    1.9079    0.1278 H   0  0  0  0  0  0  0  0  0  0  0  0
   -3.1134    0.7831   -1.0910 H   0  0  0  0  0  0  0  0  0  0  0  0
   -2.2722   -0.9577    0.8745 H   0  0  0  0  0  0  0  0  0  0  0  0
   -0.2147    1.3308    0.4265 H   0  0  0  0  0  0  0  0  0  0  0  0
   -0.3823    0.2724    1.9520 H   0  0  0  0  0  0  0  0  0  0  0  0
   -0.4128   -1.9509    1.5488 H   0  0  0  0  0  0  0  0  0  0  0  0
    1.9343   -1.4044   -0.9179 H   0  0  0  0  0  0  0  0  0  0  0  0
    2.6874    0.8057   -1.6894 H   0  0  0  0  0  0  0  0  0  0  0  0
    1.3927    1.6205   -0.7955 H   0  0  0  0  0  0  0  0  0  0  0  0
    1.0376    0.6094   -2.3046 H   0  0  0  0  0  0  0  0  0  0  0  0
    1.8530    0.6273    1.3144 H   0  0  0  0  0  0  0  0  0  0  0  0
    3.4075    0.2020    0.4641 H   0  0  0  0  0  0  0  0  0  0  0  0
    2.4227   -1.0828    1.3611 H   0  0  0  0  0  0  0  0  0  0  0  0
   -1.3494   -1.5883   -1.3236 H   0  0  0  0  0  0  0  0  0  0  0  0
   -0.8276    0.1876   -1.5946 H   0  0  0  0  0  0  0  0  0  0  0  0
  1  2  1  0
  2  3  1  0
  3  4  1  0
  4  5  1  0
  4  6  1  0
  6  7  1  0
  6  8  1  0
  4  9  1  0
  9  2  1  0
  1 10  1  0
  1 11  1  0
  1 12  1  0
  2 13  1  0
  3 14  1  0
  3 15  1  0
  5 16  1  0
  6 17  1  0
  7 18  1  0
  7 19  1  0
  7 20  1  0
  8 21  1  0
  8 22  1  0
  8 23  1  0
  9 24  1  0
  9 25  1  0
M  END
