
     RDKit          3D

 17 18  0  0  0  0  0  0  0  0999 V2000
   -1.9683    0.4223    0.7048 C   0  0  0  0  0  0  0  0  0  0  0  0
   -1.2258   -0.1944   -0.4467 C   0  0  0  0  0  0  0  0  0  0  0  0
   -0.3026   -1.2320    0.1459 C   0  0  0  0  0  0  0  0  0  0  0  0
    0.9381   -0.8177    0.1558 C   0  0  0  0  0  0  0  0  0  0  0  0
    2.3721   -0.4822    0.2292 C   0  0  0  0  0  0  0  0  0  0  0  0
    2.1270    0.2166   -0.9969 O   0  0  0  0  0  0  0  0  0  0  0  0
    0.9697    0.6182   -0.3811 C   0  0  0  0  0  0  0  0  0  0  0  0
   -0.2739    0.7682   -1.0970 C   0  0  0  0  0  0  0  0  0  0  0  0
   -0.5645    1.4765   -2.0130 O   0  0  0  0  0  0  0  0  0  0  0  0
   -2.4328   -0.4106    1.2756 H   0  0  0  0  0  0  0  0  0  0  0  0
   -1.2257    0.9735    1.3163 H   0  0  0  0  0  0  0  0  0  0  0  0
   -2.7285    1.1496    0.3242 H   0  0  0  0  0  0  0  0  0  0  0  0
   -1.8553   -0.6010   -1.2415 H   0  0  0  0  0  0  0  0  0  0  0  0
   -0.6791   -2.1790    0.4999 H   0  0  0  0  0  0  0  0  0  0  0  0
    2.5647    0.2542    1.0232 H   0  0  0  0  0  0  0  0  0  0  0  0
    3.0841   -1.3073    0.1180 H   0  0  0  0  0  0  0  0  0  0  0  0
    1.2008    1.3453    0.4244 H   0  0  0  0  0  0  0  0  0  0  0  0
  1  2  1  0
  2  3  1  0
  3  4  2  0
  4  5  1  0
  5  6  1  0
  6  7  1  0
  7  8  1  0
  8  9  2  0
  8  2  1  0
  7  4  1  0
  1 10  1  0
  1 11  1  0
  1 12  1  0
  2 13  1  0
  3 14  1  0
  5 15  1  0
  5 16  1  0
  7 17  1  0
M  END
