
     RDKit          3D

 23 25  0  0  0  0  0  0  0  0999 V2000
   -0.1573    1.8307   -0.8296 C   0  0  0  0  0  0  0  0  0  0  0  0
    0.0167    0.9769    0.3557 C   0  0  0  0  0  0  0  0  0  0  0  0
    1.3351    0.4165    0.6217 C   0  0  0  0  0  0  0  0  0  0  0  0
    2.3903   -0.1051   -0.1674 C   0  0  0  0  0  0  0  0  0  0  0  0
    1.1679   -0.7591   -0.4210 C   0  0  0  0  0  0  0  0  0  0  0  0
    0.1567   -1.4670    0.3495 C   0  0  0  0  0  0  0  0  0  0  0  0
   -0.6203   -1.1410    1.5038 C   0  0  0  0  0  0  0  0  0  0  0  0
   -0.8758   -0.2739    0.3581 C   0  0  0  0  0  0  0  0  0  0  0  0
   -1.9511   -0.4377   -0.6301 C   0  0  0  0  0  0  0  0  0  0  0  0
    0.2720    1.5000   -1.7688 H   0  0  0  0  0  0  0  0  0  0  0  0
    0.3402    2.8190   -0.5938 H   0  0  0  0  0  0  0  0  0  0  0  0
   -1.2435    2.1077   -0.9130 H   0  0  0  0  0  0  0  0  0  0  0  0
   -0.3522    1.5713    1.2454 H   0  0  0  0  0  0  0  0  0  0  0  0
    1.4084    0.0745    1.7024 H   0  0  0  0  0  0  0  0  0  0  0  0
    3.2224   -0.7128    0.2707 H   0  0  0  0  0  0  0  0  0  0  0  0
    2.8514    0.6058   -0.9158 H   0  0  0  0  0  0  0  0  0  0  0  0
    0.7143   -0.4532   -1.4215 H   0  0  0  0  0  0  0  0  0  0  0  0
   -0.1871   -2.3985   -0.2082 H   0  0  0  0  0  0  0  0  0  0  0  0
   -0.2677   -0.7032    2.4740 H   0  0  0  0  0  0  0  0  0  0  0  0
   -1.5000   -1.8090    1.7612 H   0  0  0  0  0  0  0  0  0  0  0  0
   -1.5395   -0.9957   -1.5215 H   0  0  0  0  0  0  0  0  0  0  0  0
   -2.4293    0.4574   -1.0180 H   0  0  0  0  0  0  0  0  0  0  0  0
   -2.7516   -1.1038   -0.2338 H   0  0  0  0  0  0  0  0  0  0  0  0
  1  2  1  0
  2  3  1  0
  3  4  1  0
  4  5  1  0
  5  6  1  0
  6  7  1  0
  7  8  1  0
  8  9  1  0
  8  2  1  0
  5  3  1  0
  8  6  1  0
  1 10  1  0
  1 11  1  0
  1 12  1  0
  2 13  1  0
  3 14  1  0
  4 15  1  0
  4 16  1  0
  5 17  1  0
  6 18  1  0
  7 19  1  0
  7 20  1  0
  9 21  1  0
  9 22  1  0
  9 23  1  0
M  END
