
     RDKit          3D

 23 24  0  0  0  0  0  0  0  0999 V2000
   -2.8050    0.1180   -0.0599 C   0  0  0  0  0  0  0  0  0  0  0  0
   -1.3805    0.4734    0.2543 C   0  0  0  0  0  0  0  0  0  0  0  0
   -0.7018    1.1791   -0.8480 C   0  0  0  0  0  0  0  0  0  0  0  0
    0.6118    1.1151   -0.8957 C   0  0  0  0  0  0  0  0  0  0  0  0
    1.2413   -0.0312   -0.1560 C   0  0  0  0  0  0  0  0  0  0  0  0
    2.6871   -0.2407   -0.3813 C   0  0  0  0  0  0  0  0  0  0  0  0
    0.7497   -0.0887    1.2725 C   0  0  0  0  0  0  0  0  0  0  0  0
   -0.5475   -0.6770    0.6961 C   0  0  0  0  0  0  0  0  0  0  0  0
    0.3362   -1.2331   -0.4265 C   0  0  0  0  0  0  0  0  0  0  0  0
   -3.2717   -0.2453    0.8745 H   0  0  0  0  0  0  0  0  0  0  0  0
   -2.9341   -0.5654   -0.8955 H   0  0  0  0  0  0  0  0  0  0  0  0
   -3.3299    1.0820   -0.2997 H   0  0  0  0  0  0  0  0  0  0  0  0
   -1.4220    1.2006    1.1156 H   0  0  0  0  0  0  0  0  0  0  0  0
   -1.2673    1.7185   -1.5741 H   0  0  0  0  0  0  0  0  0  0  0  0
    1.2403    1.8145   -1.4174 H   0  0  0  0  0  0  0  0  0  0  0  0
    3.2471    0.3703    0.3810 H   0  0  0  0  0  0  0  0  0  0  0  0
    2.9846    0.1663   -1.3595 H   0  0  0  0  0  0  0  0  0  0  0  0
    2.9699   -1.3053   -0.2908 H   0  0  0  0  0  0  0  0  0  0  0  0
    1.2733   -0.8813    1.8147 H   0  0  0  0  0  0  0  0  0  0  0  0
    0.6289    0.8730    1.7731 H   0  0  0  0  0  0  0  0  0  0  0  0
   -0.9971   -1.4319    1.3309 H   0  0  0  0  0  0  0  0  0  0  0  0
   -0.1333   -1.2501   -1.4145 H   0  0  0  0  0  0  0  0  0  0  0  0
    0.8203   -2.1607   -0.0934 H   0  0  0  0  0  0  0  0  0  0  0  0
  1  2  1  0
  2  3  1  0
  3  4  2  0
  4  5  1  0
  5  6  1  0
  5  7  1  0
  7  8  1  0
  8  9  1  0
  8  2  1  0
  9  5  1  0
  1 10  1  0
  1 11  1  0
  1 12  1  0
  2 13  1  0
  3 14  1  0
  4 15  1  0
  6 16  1  0
  6 17  1  0
  6 18  1  0
  7 19  1  0
  7 20  1  0
  8 21  1  0
  9 22  1  0
  9 23  1  0
M  END
