
     RDKit          3D

 19 20  0  0  0  0  0  0  0  0999 V2000
    1.8896   -0.5780    0.3635 C   0  0  0  0  0  0  0  0  0  0  0  0
    0.6357    0.2315    0.6808 C   0  0  0  0  0  0  0  0  0  0  0  0
    0.5724    1.4028   -0.3108 C   0  0  0  0  0  0  0  0  0  0  0  0
   -0.3697    2.3221    0.1211 O   0  0  0  0  0  0  0  0  0  0  0  0
   -0.0962    0.4233   -1.2492 C   0  0  0  0  0  0  0  0  0  0  0  0
   -0.1769    0.3535   -2.4626 O   0  0  0  0  0  0  0  0  0  0  0  0
   -0.5320   -0.2945   -0.0642 C   0  0  0  0  0  0  0  0  0  0  0  0
   -1.0786   -1.6178    0.0151 C   0  0  0  0  0  0  0  0  0  0  0  0
   -1.8810   -0.4159    0.4246 C   0  0  0  0  0  0  0  0  0  0  0  0
    1.9757   -1.4440    1.0451 H   0  0  0  0  0  0  0  0  0  0  0  0
    1.7773   -0.9285   -0.7033 H   0  0  0  0  0  0  0  0  0  0  0  0
    2.8010    0.0249    0.3860 H   0  0  0  0  0  0  0  0  0  0  0  0
    0.4941    0.5000    1.7227 H   0  0  0  0  0  0  0  0  0  0  0  0
    1.5330    1.7800   -0.6443 H   0  0  0  0  0  0  0  0  0  0  0  0
   -0.5921    2.9304   -0.6400 H   0  0  0  0  0  0  0  0  0  0  0  0
   -0.7600   -2.2471    0.8958 H   0  0  0  0  0  0  0  0  0  0  0  0
   -1.4246   -2.1844   -0.8811 H   0  0  0  0  0  0  0  0  0  0  0  0
   -2.0590   -0.2110    1.5105 H   0  0  0  0  0  0  0  0  0  0  0  0
   -2.7087   -0.0473   -0.2098 H   0  0  0  0  0  0  0  0  0  0  0  0
  1  2  1  0
  2  3  1  0
  3  4  1  0
  3  5  1  0
  5  6  2  0
  5  7  1  0
  7  8  1  0
  8  9  1  0
  7  2  1  0
  9  7  1  0
  1 10  1  0
  1 11  1  0
  1 12  1  0
  2 13  1  0
  3 14  1  0
  4 15  1  0
  8 16  1  0
  8 17  1  0
  9 18  1  0
  9 19  1  0
M  END
