
     RDKit          3D

 21 22  0  0  0  0  0  0  0  0999 V2000
    2.4926   -0.0600   -0.1796 C   0  0  0  0  0  0  0  0  0  0  0  0
    1.1366    0.2325    0.4014 C   0  0  0  0  0  0  0  0  0  0  0  0
    0.6212   -0.8562    1.2484 C   0  0  0  0  0  0  0  0  0  0  0  0
   -0.5656   -1.2863    0.8299 C   0  0  0  0  0  0  0  0  0  0  0  0
   -1.0121   -0.5416   -0.3614 C   0  0  0  0  0  0  0  0  0  0  0  0
   -1.4377   -1.2931   -1.4366 O   0  0  0  0  0  0  0  0  0  0  0  0
   -1.9889    0.5806   -0.0907 C   0  0  0  0  0  0  0  0  0  0  0  0
   -0.8522    1.5609   -0.2722 C   0  0  0  0  0  0  0  0  0  0  0  0
    0.0791    0.4418   -0.6368 C   0  0  0  0  0  0  0  0  0  0  0  0
    2.4752   -0.3372   -1.2416 H   0  0  0  0  0  0  0  0  0  0  0  0
    3.2071    0.7917   -0.0439 H   0  0  0  0  0  0  0  0  0  0  0  0
    2.9292   -0.8912    0.4418 H   0  0  0  0  0  0  0  0  0  0  0  0
    1.2483    1.1436    1.0375 H   0  0  0  0  0  0  0  0  0  0  0  0
    1.1121   -1.2888    2.1178 H   0  0  0  0  0  0  0  0  0  0  0  0
   -1.1648   -2.0819    1.2783 H   0  0  0  0  0  0  0  0  0  0  0  0
   -1.9020   -2.1144   -1.1389 H   0  0  0  0  0  0  0  0  0  0  0  0
   -2.3778    0.5285    0.9493 H   0  0  0  0  0  0  0  0  0  0  0  0
   -2.7853    0.7079   -0.8489 H   0  0  0  0  0  0  0  0  0  0  0  0
   -0.9984    2.3060   -1.0771 H   0  0  0  0  0  0  0  0  0  0  0  0
   -0.6163    2.0585    0.7133 H   0  0  0  0  0  0  0  0  0  0  0  0
    0.3997    0.3987   -1.6901 H   0  0  0  0  0  0  0  0  0  0  0  0
  1  2  1  0
  2  3  1  0
  3  4  2  0
  4  5  1  0
  5  6  1  0
  5  7  1  0
  7  8  1  0
  8  9  1  0
  9  2  1  0
  9  5  1  0
  1 10  1  0
  1 11  1  0
  1 12  1  0
  2 13  1  0
  3 14  1  0
  4 15  1  0
  6 16  1  0
  7 17  1  0
  7 18  1  0
  8 19  1  0
  8 20  1  0
  9 21  1  0
M  END
