
     RDKit          3D

 18 18  0  0  0  0  0  0  0  0999 V2000
    2.4016   -0.2409    0.2462 C   0  0  0  0  0  0  0  0  0  0  0  0
    1.1208   -0.1258    1.0491 C   0  0  0  0  0  0  0  0  0  0  0  0
    0.0002   -0.8351    0.3162 C   0  0  0  0  0  0  0  0  0  0  0  0
   -1.1383    0.1596    0.5060 C   0  0  0  0  0  0  0  0  0  0  0  0
   -2.2485   -0.0255   -0.4563 C   0  0  0  0  0  0  0  0  0  0  0  0
   -0.3891    1.4497    0.2967 C   0  0  0  0  0  0  0  0  0  0  0  0
   -0.7518    2.4485   -0.3819 O   0  0  0  0  0  0  0  0  0  0  0  0
    0.7812    1.2623    1.0278 O   0  0  0  0  0  0  0  0  0  0  0  0
    3.0465   -1.0376    0.6503 H   0  0  0  0  0  0  0  0  0  0  0  0
    2.2005   -0.4470   -0.8303 H   0  0  0  0  0  0  0  0  0  0  0  0
    2.9836    0.7126    0.2926 H   0  0  0  0  0  0  0  0  0  0  0  0
    1.2364   -0.4698    2.0886 H   0  0  0  0  0  0  0  0  0  0  0  0
    0.2330   -0.9996   -0.7512 H   0  0  0  0  0  0  0  0  0  0  0  0
   -0.2905   -1.7839    0.7710 H   0  0  0  0  0  0  0  0  0  0  0  0
   -1.4157    0.1430    1.5675 H   0  0  0  0  0  0  0  0  0  0  0  0
   -2.3747   -1.0916   -0.7781 H   0  0  0  0  0  0  0  0  0  0  0  0
   -3.2093    0.2257    0.0724 H   0  0  0  0  0  0  0  0  0  0  0  0
   -2.1856    0.6554   -1.3420 H   0  0  0  0  0  0  0  0  0  0  0  0
  1  2  1  0
  2  3  1  0
  3  4  1  0
  4  5  1  0
  4  6  1  0
  6  7  2  0
  6  8  1  0
  8  2  1  0
  1  9  1  0
  1 10  1  0
  1 11  1  0
  2 12  1  0
  3 13  1  0
  3 14  1  0
  4 15  1  0
  5 16  1  0
  5 17  1  0
  5 18  1  0
M  END
