
     RDKit          3D

 23 24  0  0  0  0  0  0  0  0999 V2000
    1.7739    1.0828    0.5117 C   0  0  0  0  0  0  0  0  0  0  0  0
    0.9840    0.0603   -0.2539 C   0  0  0  0  0  0  0  0  0  0  0  0
    1.2669   -1.2911    0.3532 C   0  0  0  0  0  0  0  0  0  0  0  0
    0.2349   -2.1748    0.2757 O   0  0  0  0  0  0  0  0  0  0  0  0
   -1.0082   -1.6477    0.0986 C   0  0  0  0  0  0  0  0  0  0  0  0
   -1.1332   -0.7605   -1.1242 C   0  0  0  0  0  0  0  0  0  0  0  0
   -0.4908    0.3274   -0.2493 C   0  0  0  0  0  0  0  0  0  0  0  0
   -0.9419    1.7094   -0.5313 C   0  0  0  0  0  0  0  0  0  0  0  0
   -1.1841   -0.3690    0.9270 C   0  0  0  0  0  0  0  0  0  0  0  0
    2.6122    1.4832   -0.1111 H   0  0  0  0  0  0  0  0  0  0  0  0
    2.2816    0.6353    1.4095 H   0  0  0  0  0  0  0  0  0  0  0  0
    1.1520    1.9233    0.8242 H   0  0  0  0  0  0  0  0  0  0  0  0
    1.3193    0.0320   -1.3291 H   0  0  0  0  0  0  0  0  0  0  0  0
    2.1467   -1.7331   -0.1839 H   0  0  0  0  0  0  0  0  0  0  0  0
    1.6278   -1.1617    1.4116 H   0  0  0  0  0  0  0  0  0  0  0  0
   -1.7947   -2.3931    0.2378 H   0  0  0  0  0  0  0  0  0  0  0  0
   -0.4693   -0.9920   -1.9600 H   0  0  0  0  0  0  0  0  0  0  0  0
   -2.1840   -0.5488   -1.3441 H   0  0  0  0  0  0  0  0  0  0  0  0
   -0.1494    2.4522   -0.6557 H   0  0  0  0  0  0  0  0  0  0  0  0
   -1.5774    2.0629    0.3266 H   0  0  0  0  0  0  0  0  0  0  0  0
   -1.5793    1.7252   -1.4466 H   0  0  0  0  0  0  0  0  0  0  0  0
   -0.6405   -0.3465    1.8670 H   0  0  0  0  0  0  0  0  0  0  0  0
   -2.2465   -0.0757    0.9464 H   0  0  0  0  0  0  0  0  0  0  0  0
  1  2  1  0
  2  3  1  0
  3  4  1  0
  4  5  1  0
  5  6  1  0
  6  7  1  0
  7  8  1  0
  7  9  1  0
  7  2  1  0
  9  5  1  0
  1 10  1  0
  1 11  1  0
  1 12  1  0
  2 13  1  0
  3 14  1  0
  3 15  1  0
  5 16  1  0
  6 17  1  0
  6 18  1  0
  8 19  1  0
  8 20  1  0
  8 21  1  0
  9 22  1  0
  9 23  1  0
M  END
