
     RDKit          3D

 19 21  0  0  0  0  0  0  0  0999 V2000
    2.7788   -0.3707   -0.7356 C   0  0  0  0  0  0  0  0  0  0  0  0
    1.4113    0.2025   -1.0301 C   0  0  0  0  0  0  0  0  0  0  0  0
    0.7031    0.9738   -0.0036 C   0  0  0  0  0  0  0  0  0  0  0  0
   -0.6600    1.4670   -0.4142 C   0  0  0  0  0  0  0  0  0  0  0  0
   -1.1480    2.5607   -0.6805 O   0  0  0  0  0  0  0  0  0  0  0  0
   -1.1065    0.0891   -0.3484 C   0  0  0  0  0  0  0  0  0  0  0  0
   -2.3187   -0.4671   -0.8661 C   0  0  0  0  0  0  0  0  0  0  0  0
   -2.0574   -0.4209    0.6577 C   0  0  0  0  0  0  0  0  0  0  0  0
    0.2550   -0.4616   -0.4239 C   0  0  0  0  0  0  0  0  0  0  0  0
    2.6735   -1.2646   -0.0611 H   0  0  0  0  0  0  0  0  0  0  0  0
    3.4421    0.3251   -0.2124 H   0  0  0  0  0  0  0  0  0  0  0  0
    3.1822   -0.7659   -1.6841 H   0  0  0  0  0  0  0  0  0  0  0  0
    1.2594    0.5654   -2.0882 H   0  0  0  0  0  0  0  0  0  0  0  0
    1.0225    1.0774    1.0298 H   0  0  0  0  0  0  0  0  0  0  0  0
   -3.1116    0.2404   -1.2368 H   0  0  0  0  0  0  0  0  0  0  0  0
   -2.3640   -1.4776   -1.2777 H   0  0  0  0  0  0  0  0  0  0  0  0
   -2.6056    0.3735    1.2285 H   0  0  0  0  0  0  0  0  0  0  0  0
   -1.8365   -1.3814    1.1590 H   0  0  0  0  0  0  0  0  0  0  0  0
    0.4802   -1.2651    0.3345 H   0  0  0  0  0  0  0  0  0  0  0  0
  1  2  1  0
  2  3  1  0
  3  4  1  0
  4  5  2  0
  4  6  1  0
  6  7  1  0
  7  8  1  0
  6  9  1  0
  9  2  1  0
  9  3  1  0
  8  6  1  0
  1 10  1  0
  1 11  1  0
  1 12  1  0
  2 13  1  0
  3 14  1  0
  7 15  1  0
  7 16  1  0
  8 17  1  0
  8 18  1  0
  9 19  1  0
M  END
