
     RDKit          3D

 19 19  0  0  0  0  0  0  0  0999 V2000
    2.1783   -0.6054   -0.0010 C   0  0  0  0  0  0  0  0  0  0  0  0
    0.9011    0.0938   -0.4143 C   0  0  0  0  0  0  0  0  0  0  0  0
    0.7978    1.5133   -0.0710 C   0  0  0  0  0  0  0  0  0  0  0  0
    1.5162    2.4757   -0.1902 O   0  0  0  0  0  0  0  0  0  0  0  0
   -0.5534    1.2832    0.4837 C   0  0  0  0  0  0  0  0  0  0  0  0
   -1.5698    1.5073   -0.4407 O   0  0  0  0  0  0  0  0  0  0  0  0
   -0.2554   -0.2086    0.5357 C   0  0  0  0  0  0  0  0  0  0  0  0
   -1.2513   -1.0791   -0.1764 C   0  0  0  0  0  0  0  0  0  0  0  0
   -2.3374   -1.4118    0.5935 O   0  0  0  0  0  0  0  0  0  0  0  0
    1.9211   -1.6868    0.0980 H   0  0  0  0  0  0  0  0  0  0  0  0
    2.5654   -0.1771    0.9371 H   0  0  0  0  0  0  0  0  0  0  0  0
    2.8829   -0.5027   -0.8530 H   0  0  0  0  0  0  0  0  0  0  0  0
    0.6917   -0.1272   -1.4778 H   0  0  0  0  0  0  0  0  0  0  0  0
   -0.6681    1.7662    1.4605 H   0  0  0  0  0  0  0  0  0  0  0  0
   -1.7866    2.4704   -0.5048 H   0  0  0  0  0  0  0  0  0  0  0  0
    0.0896   -0.5365    1.5155 H   0  0  0  0  0  0  0  0  0  0  0  0
   -1.6100   -0.5075   -1.0644 H   0  0  0  0  0  0  0  0  0  0  0  0
   -0.7963   -2.0035   -0.5622 H   0  0  0  0  0  0  0  0  0  0  0  0
   -2.7156   -2.2639    0.2441 H   0  0  0  0  0  0  0  0  0  0  0  0
  1  2  1  0
  2  3  1  0
  3  4  2  0
  3  5  1  0
  5  6  1  0
  5  7  1  0
  7  8  1  0
  8  9  1  0
  7  2  1  0
  1 10  1  0
  1 11  1  0
  1 12  1  0
  2 13  1  0
  5 14  1  0
  6 15  1  0
  7 16  1  0
  8 17  1  0
  8 18  1  0
  9 19  1  0
M  END
