
     RDKit          3D

 21 22  0  0  0  0  0  0  0  0999 V2000
   -1.7751   -1.1970    0.6715 C   0  0  0  0  0  0  0  0  0  0  0  0
   -0.9320   -0.7556   -0.4991 C   0  0  0  0  0  0  0  0  0  0  0  0
   -0.5785    0.6451   -0.7327 C   0  0  0  0  0  0  0  0  0  0  0  0
   -0.6733    1.7029    0.3370 C   0  0  0  0  0  0  0  0  0  0  0  0
    0.6648    1.5343    1.0277 C   0  0  0  0  0  0  0  0  0  0  0  0
    0.7681    0.1394    1.0937 O   0  0  0  0  0  0  0  0  0  0  0  0
    0.4503   -0.2952   -0.1819 C   0  0  0  0  0  0  0  0  0  0  0  0
    1.5393   -0.8273   -1.0730 C   0  0  0  0  0  0  0  0  0  0  0  0
    2.1824   -1.9221   -0.5603 O   0  0  0  0  0  0  0  0  0  0  0  0
   -2.1345   -0.3744    1.2979 H   0  0  0  0  0  0  0  0  0  0  0  0
   -2.6995   -1.7403    0.3195 H   0  0  0  0  0  0  0  0  0  0  0  0
   -1.1976   -1.9677    1.2317 H   0  0  0  0  0  0  0  0  0  0  0  0
   -1.0708   -1.3761   -1.3986 H   0  0  0  0  0  0  0  0  0  0  0  0
   -0.3902    1.0304   -1.7336 H   0  0  0  0  0  0  0  0  0  0  0  0
   -0.7861    2.7155   -0.1046 H   0  0  0  0  0  0  0  0  0  0  0  0
   -1.4574    1.5360    1.0717 H   0  0  0  0  0  0  0  0  0  0  0  0
    1.4309    1.9572    0.3507 H   0  0  0  0  0  0  0  0  0  0  0  0
    0.6093    2.0132    1.9993 H   0  0  0  0  0  0  0  0  0  0  0  0
    1.0836   -1.1189   -2.0396 H   0  0  0  0  0  0  0  0  0  0  0  0
    2.2141    0.0241   -1.3001 H   0  0  0  0  0  0  0  0  0  0  0  0
    2.7523   -1.7234    0.2229 H   0  0  0  0  0  0  0  0  0  0  0  0
  1  2  1  0
  2  3  1  0
  3  4  1  0
  4  5  1  0
  5  6  1  0
  6  7  1  0
  7  8  1  0
  8  9  1  0
  7  2  1  0
  7  3  1  0
  1 10  1  0
  1 11  1  0
  1 12  1  0
  2 13  1  0
  3 14  1  0
  4 15  1  0
  4 16  1  0
  5 17  1  0
  5 18  1  0
  8 19  1  0
  8 20  1  0
  9 21  1  0
M  END
