
     RDKit          3D

 23 24  0  0  0  0  0  0  0  0999 V2000
    2.6371    0.1415    0.5513 C   0  0  0  0  0  0  0  0  0  0  0  0
    1.8658    0.0907   -0.7010 C   0  0  0  0  0  0  0  0  0  0  0  0
    0.8191    1.1350   -0.8559 C   0  0  0  0  0  0  0  0  0  0  0  0
   -0.3877    0.7078   -0.5807 C   0  0  0  0  0  0  0  0  0  0  0  0
   -1.8744    0.5554   -0.3475 C   0  0  0  0  0  0  0  0  0  0  0  0
   -2.3524    0.7604    1.0391 C   0  0  0  0  0  0  0  0  0  0  0  0
   -1.6059   -0.9520   -0.6765 C   0  0  0  0  0  0  0  0  0  0  0  0
   -0.2642   -0.7409   -0.0903 C   0  0  0  0  0  0  0  0  0  0  0  0
    0.9776   -1.1595   -0.8349 C   0  0  0  0  0  0  0  0  0  0  0  0
    2.8222    1.1957    0.8319 H   0  0  0  0  0  0  0  0  0  0  0  0
    3.6439   -0.3052    0.3720 H   0  0  0  0  0  0  0  0  0  0  0  0
    2.1610   -0.3458    1.4235 H   0  0  0  0  0  0  0  0  0  0  0  0
    2.5366    0.1469   -1.5673 H   0  0  0  0  0  0  0  0  0  0  0  0
    1.0111    2.1874   -1.1736 H   0  0  0  0  0  0  0  0  0  0  0  0
   -2.5194    1.0443   -1.0900 H   0  0  0  0  0  0  0  0  0  0  0  0
   -2.8520    1.7525    1.0964 H   0  0  0  0  0  0  0  0  0  0  0  0
   -3.1866    0.0158    1.2106 H   0  0  0  0  0  0  0  0  0  0  0  0
   -1.5792    0.6263    1.8213 H   0  0  0  0  0  0  0  0  0  0  0  0
   -2.2788   -1.6139   -0.1209 H   0  0  0  0  0  0  0  0  0  0  0  0
   -1.5526   -1.1044   -1.7688 H   0  0  0  0  0  0  0  0  0  0  0  0
   -0.1786   -0.7855    1.0137 H   0  0  0  0  0  0  0  0  0  0  0  0
    0.6932   -1.2986   -1.8941 H   0  0  0  0  0  0  0  0  0  0  0  0
    1.4642   -2.0539   -0.4424 H   0  0  0  0  0  0  0  0  0  0  0  0
  1  2  1  0
  2  3  1  0
  3  4  2  0
  4  5  1  0
  5  6  1  0
  5  7  1  0
  7  8  1  0
  8  9  1  0
  9  2  1  0
  8  4  1  0
  1 10  1  0
  1 11  1  0
  1 12  1  0
  2 13  1  0
  3 14  1  0
  5 15  1  0
  6 16  1  0
  6 17  1  0
  6 18  1  0
  7 19  1  0
  7 20  1  0
  8 21  1  0
  9 22  1  0
  9 23  1  0
M  END
