
     RDKit          3D

 19 20  0  0  0  0  0  0  0  0999 V2000
   -2.4375    0.0841    0.1188 C   0  0  0  0  0  0  0  0  0  0  0  0
   -0.9626   -0.0975    0.3580 C   0  0  0  0  0  0  0  0  0  0  0  0
   -0.2590    1.2165    0.3306 C   0  0  0  0  0  0  0  0  0  0  0  0
    1.0111    1.5027    0.0553 C   0  0  0  0  0  0  0  0  0  0  0  0
    2.0946    0.5550   -0.3087 C   0  0  0  0  0  0  0  0  0  0  0  0
    2.0438   -0.7687   -0.2709 C   0  0  0  0  0  0  0  0  0  0  0  0
    0.9040   -1.5719    0.1393 C   0  0  0  0  0  0  0  0  0  0  0  0
    0.0290   -2.2481   -0.6017 O   0  0  0  0  0  0  0  0  0  0  0  0
   -0.2816   -0.9564   -0.6393 C   0  0  0  0  0  0  0  0  0  0  0  0
   -2.9947   -0.7084    0.6840 H   0  0  0  0  0  0  0  0  0  0  0  0
   -2.7095    0.1313   -0.9418 H   0  0  0  0  0  0  0  0  0  0  0  0
   -2.7233    1.0640    0.5694 H   0  0  0  0  0  0  0  0  0  0  0  0
   -0.8626   -0.4703    1.4184 H   0  0  0  0  0  0  0  0  0  0  0  0
   -0.8495    2.0836    0.5671 H   0  0  0  0  0  0  0  0  0  0  0  0
    1.3547    2.5243    0.0831 H   0  0  0  0  0  0  0  0  0  0  0  0
    2.9914    1.0599   -0.6299 H   0  0  0  0  0  0  0  0  0  0  0  0
    2.9362   -1.2592   -0.5752 H   0  0  0  0  0  0  0  0  0  0  0  0
    0.7804   -1.7008    1.2368 H   0  0  0  0  0  0  0  0  0  0  0  0
   -0.0650   -0.4400   -1.5931 H   0  0  0  0  0  0  0  0  0  0  0  0
  1  2  1  0
  2  3  1  0
  3  4  2  0
  4  5  1  0
  5  6  2  0
  6  7  1  0
  7  8  1  0
  8  9  1  0
  9  2  1  0
  9  7  1  0
  1 10  1  0
  1 11  1  0
  1 12  1  0
  2 13  1  0
  3 14  1  0
  4 15  1  0
  5 16  1  0
  6 17  1  0
  7 18  1  0
  9 19  1  0
M  END
