
     RDKit          3D

 17 17  0  0  0  0  0  0  0  0999 V2000
    1.9718   -0.3788   -0.0718 C   0  0  0  0  0  0  0  0  0  0  0  0
    0.6569    0.2769   -0.2791 C   0  0  0  0  0  0  0  0  0  0  0  0
    0.2759    1.2161    0.8070 C   0  0  0  0  0  0  0  0  0  0  0  0
    1.0460    1.8187    1.5898 O   0  0  0  0  0  0  0  0  0  0  0  0
   -1.1820    1.2845    0.7645 C   0  0  0  0  0  0  0  0  0  0  0  0
   -1.9306    2.0488    1.4284 O   0  0  0  0  0  0  0  0  0  0  0  0
   -1.6716    0.2635   -0.2313 C   0  0  0  0  0  0  0  0  0  0  0  0
   -0.5057   -0.7209   -0.1787 C   0  0  0  0  0  0  0  0  0  0  0  0
   -0.5148   -1.6200   -1.2038 O   0  0  0  0  0  0  0  0  0  0  0  0
    2.3048   -0.7864   -1.0708 H   0  0  0  0  0  0  0  0  0  0  0  0
    2.7438    0.2642    0.3585 H   0  0  0  0  0  0  0  0  0  0  0  0
    1.8319   -1.2939    0.5615 H   0  0  0  0  0  0  0  0  0  0  0  0
    0.5373    0.7810   -1.2523 H   0  0  0  0  0  0  0  0  0  0  0  0
   -1.6705    0.6894   -1.2625 H   0  0  0  0  0  0  0  0  0  0  0  0
   -2.6189   -0.1818    0.0643 H   0  0  0  0  0  0  0  0  0  0  0  0
   -0.4410   -1.1536    0.8303 H   0  0  0  0  0  0  0  0  0  0  0  0
   -0.8333   -2.5078   -0.8540 H   0  0  0  0  0  0  0  0  0  0  0  0
  1  2  1  0
  2  3  1  0
  3  4  2  0
  3  5  1  0
  5  6  2  0
  5  7  1  0
  7  8  1  0
  8  9  1  0
  8  2  1  0
  1 10  1  0
  1 11  1  0
  1 12  1  0
  2 13  1  0
  7 14  1  0
  7 15  1  0
  8 16  1  0
  9 17  1  0
M  END
