
     RDKit          3D

 21 21  0  0  0  0  0  0  0  0999 V2000
   -2.5444   -0.1406    0.1539 C   0  0  0  0  0  0  0  0  0  0  0  0
   -1.1775   -0.1042   -0.4142 C   0  0  0  0  0  0  0  0  0  0  0  0
   -0.3687   -1.4013   -0.2780 C   0  0  0  0  0  0  0  0  0  0  0  0
    0.8405   -0.4896   -0.1940 C   0  0  0  0  0  0  0  0  0  0  0  0
    1.8949   -0.9329    0.5901 O   0  0  0  0  0  0  0  0  0  0  0  0
    3.2050   -0.8671    0.1259 C   0  0  0  0  0  0  0  0  0  0  0  0
    3.4348   -0.3994   -1.0197 O   0  0  0  0  0  0  0  0  0  0  0  0
   -0.1147    0.4973    0.4933 C   0  0  0  0  0  0  0  0  0  0  0  0
    0.1593    1.9301    0.1803 C   0  0  0  0  0  0  0  0  0  0  0  0
   -2.5805   -0.7831    1.0603 H   0  0  0  0  0  0  0  0  0  0  0  0
   -3.2514   -0.4542   -0.6334 H   0  0  0  0  0  0  0  0  0  0  0  0
   -2.8520    0.9084    0.4307 H   0  0  0  0  0  0  0  0  0  0  0  0
   -1.0863    0.2795   -1.4306 H   0  0  0  0  0  0  0  0  0  0  0  0
   -0.6514   -1.8722    0.6872 H   0  0  0  0  0  0  0  0  0  0  0  0
   -0.4115   -2.0502   -1.1666 H   0  0  0  0  0  0  0  0  0  0  0  0
    1.0842   -0.0867   -1.1918 H   0  0  0  0  0  0  0  0  0  0  0  0
    4.0591   -1.2003    0.7006 H   0  0  0  0  0  0  0  0  0  0  0  0
   -0.2737    0.2269    1.5400 H   0  0  0  0  0  0  0  0  0  0  0  0
    1.1569    2.0843   -0.2844 H   0  0  0  0  0  0  0  0  0  0  0  0
   -0.6092    2.3576   -0.4975 H   0  0  0  0  0  0  0  0  0  0  0  0
    0.0865    2.4979    1.1482 H   0  0  0  0  0  0  0  0  0  0  0  0
  1  2  1  0
  2  3  1  0
  3  4  1  0
  4  5  1  0
  5  6  1  0
  6  7  2  0
  4  8  1  0
  8  9  1  0
  8  2  1  0
  1 10  1  0
  1 11  1  0
  1 12  1  0
  2 13  1  0
  3 14  1  0
  3 15  1  0
  4 16  1  0
  6 17  1  0
  8 18  1  0
  9 19  1  0
  9 20  1  0
  9 21  1  0
M  END
