
     RDKit          3D

 23 23  0  0  0  0  0  0  0  0999 V2000
    3.0884   -0.4184    0.0417 C   0  0  0  0  0  0  0  0  0  0  0  0
    1.7324   -0.1527   -0.5562 C   0  0  0  0  0  0  0  0  0  0  0  0
    0.6537   -0.9482    0.1058 C   0  0  0  0  0  0  0  0  0  0  0  0
   -0.4592   -0.2257    0.1661 C   0  0  0  0  0  0  0  0  0  0  0  0
   -1.7442   -0.6825    0.7566 C   0  0  0  0  0  0  0  0  0  0  0  0
   -2.8030   -0.6427   -0.3205 C   0  0  0  0  0  0  0  0  0  0  0  0
   -2.9705    0.6398   -0.8288 O   0  0  0  0  0  0  0  0  0  0  0  0
   -0.2367    1.1101   -0.4434 C   0  0  0  0  0  0  0  0  0  0  0  0
    1.2692    1.2673   -0.2929 C   0  0  0  0  0  0  0  0  0  0  0  0
    3.8401   -0.1907   -0.7459 H   0  0  0  0  0  0  0  0  0  0  0  0
    3.1423   -1.4972    0.2966 H   0  0  0  0  0  0  0  0  0  0  0  0
    3.3143    0.2390    0.9010 H   0  0  0  0  0  0  0  0  0  0  0  0
    1.7337   -0.2892   -1.6591 H   0  0  0  0  0  0  0  0  0  0  0  0
    0.8342   -1.9623    0.4581 H   0  0  0  0  0  0  0  0  0  0  0  0
   -1.6796   -1.7014    1.1578 H   0  0  0  0  0  0  0  0  0  0  0  0
   -2.0938    0.0102    1.5629 H   0  0  0  0  0  0  0  0  0  0  0  0
   -2.6279   -1.3676   -1.1219 H   0  0  0  0  0  0  0  0  0  0  0  0
   -3.7696   -0.9438    0.1781 H   0  0  0  0  0  0  0  0  0  0  0  0
   -3.1682    1.2551   -0.0603 H   0  0  0  0  0  0  0  0  0  0  0  0
   -0.4587    1.0049   -1.5374 H   0  0  0  0  0  0  0  0  0  0  0  0
   -0.7968    1.9116    0.0358 H   0  0  0  0  0  0  0  0  0  0  0  0
    1.6801    1.9752   -1.0384 H   0  0  0  0  0  0  0  0  0  0  0  0
    1.5198    1.6094    0.7257 H   0  0  0  0  0  0  0  0  0  0  0  0
  1  2  1  0
  2  3  1  0
  3  4  2  0
  4  5  1  0
  5  6  1  0
  6  7  1  0
  4  8  1  0
  8  9  1  0
  9  2  1  0
  1 10  1  0
  1 11  1  0
  1 12  1  0
  2 13  1  0
  3 14  1  0
  5 15  1  0
  5 16  1  0
  6 17  1  0
  6 18  1  0
  7 19  1  0
  8 20  1  0
  8 21  1  0
  9 22  1  0
  9 23  1  0
M  END
