
     RDKit          3D

 19 20  0  0  0  0  0  0  0  0999 V2000
    2.3220    0.0008    0.4668 C   0  0  0  0  0  0  0  0  0  0  0  0
    1.2260   -0.1173   -0.6126 C   0  0  0  0  0  0  0  0  0  0  0  0
    0.2010   -1.0462   -0.3376 C   0  0  0  0  0  0  0  0  0  0  0  0
   -1.0841   -0.9199    0.4059 C   0  0  0  0  0  0  0  0  0  0  0  0
   -1.4209   -0.0566   -0.8287 C   0  0  0  0  0  0  0  0  0  0  0  0
   -2.4417    0.8147   -0.5944 O   0  0  0  0  0  0  0  0  0  0  0  0
   -0.0538    0.5011   -0.5260 C   0  0  0  0  0  0  0  0  0  0  0  0
   -0.1208    1.3746    0.6445 C   0  0  0  0  0  0  0  0  0  0  0  0
   -0.8384    2.3740    0.5107 O   0  0  0  0  0  0  0  0  0  0  0  0
    3.0473   -0.8199    0.3764 H   0  0  0  0  0  0  0  0  0  0  0  0
    1.8012   -0.1337    1.4345 H   0  0  0  0  0  0  0  0  0  0  0  0
    2.7810    0.9945    0.4565 H   0  0  0  0  0  0  0  0  0  0  0  0
    1.7401    0.0004   -1.6182 H   0  0  0  0  0  0  0  0  0  0  0  0
   -0.0412   -1.6531   -1.2739 H   0  0  0  0  0  0  0  0  0  0  0  0
   -1.7241   -1.7972    0.4261 H   0  0  0  0  0  0  0  0  0  0  0  0
   -1.0969   -0.4042    1.3522 H   0  0  0  0  0  0  0  0  0  0  0  0
   -1.4586   -0.6941   -1.7095 H   0  0  0  0  0  0  0  0  0  0  0  0
   -3.1861    0.2980   -0.1582 H   0  0  0  0  0  0  0  0  0  0  0  0
    0.3480    1.2843    1.5852 H   0  0  0  0  0  0  0  0  0  0  0  0
  1  2  1  0
  2  3  1  0
  3  4  1  0
  4  5  1  0
  5  6  1  0
  5  7  1  0
  7  8  1  0
  8  9  2  0
  7  2  1  0
  7  3  1  0
  1 10  1  0
  1 11  1  0
  1 12  1  0
  2 13  1  0
  3 14  1  0
  4 15  1  0
  4 16  1  0
  5 17  1  0
  6 18  1  0
  8 19  1  0
M  END
