
     RDKit          3D

 19 20  0  0  0  0  0  0  0  0999 V2000
   -2.3976   -0.5244   -0.2350 C   0  0  0  0  0  0  0  0  0  0  0  0
   -1.2215    0.3031    0.2617 C   0  0  0  0  0  0  0  0  0  0  0  0
   -0.2557   -0.5003    1.0795 C   0  0  0  0  0  0  0  0  0  0  0  0
   -0.2840   -1.1819    2.0834 O   0  0  0  0  0  0  0  0  0  0  0  0
    0.7966   -0.1216    0.1424 C   0  0  0  0  0  0  0  0  0  0  0  0
    1.9546   -0.9233   -0.1961 C   0  0  0  0  0  0  0  0  0  0  0  0
    2.1004    0.4082    0.5461 C   0  0  0  0  0  0  0  0  0  0  0  0
   -0.1379    0.5166   -0.7880 C   0  0  0  0  0  0  0  0  0  0  0  0
    0.0683    1.8096   -1.1751 O   0  0  0  0  0  0  0  0  0  0  0  0
   -3.3066    0.1410   -0.2400 H   0  0  0  0  0  0  0  0  0  0  0  0
   -2.5470   -1.4305    0.3553 H   0  0  0  0  0  0  0  0  0  0  0  0
   -2.1948   -0.7658   -1.3010 H   0  0  0  0  0  0  0  0  0  0  0  0
   -1.5176    1.2191    0.7811 H   0  0  0  0  0  0  0  0  0  0  0  0
    2.2838   -0.9495   -1.2684 H   0  0  0  0  0  0  0  0  0  0  0  0
    2.1004   -1.8595    0.3984 H   0  0  0  0  0  0  0  0  0  0  0  0
    2.4044    0.2827    1.6238 H   0  0  0  0  0  0  0  0  0  0  0  0
    2.5689    1.2536    0.0417 H   0  0  0  0  0  0  0  0  0  0  0  0
   -0.3559   -0.1438   -1.6714 H   0  0  0  0  0  0  0  0  0  0  0  0
   -0.0588    2.4668   -0.4385 H   0  0  0  0  0  0  0  0  0  0  0  0
  1  2  1  0
  2  3  1  0
  3  4  2  0
  3  5  1  0
  5  6  1  0
  6  7  1  0
  5  8  1  0
  8  9  1  0
  8  2  1  0
  7  5  1  0
  1 10  1  0
  1 11  1  0
  1 12  1  0
  2 13  1  0
  6 14  1  0
  6 15  1  0
  7 16  1  0
  7 17  1  0
  8 18  1  0
  9 19  1  0
M  END
