
     RDKit          3D

 23 24  0  0  0  0  0  0  0  0999 V2000
   -2.0748   -1.1833    0.5155 C   0  0  0  0  0  0  0  0  0  0  0  0
   -1.3870   -0.2343   -0.4364 C   0  0  0  0  0  0  0  0  0  0  0  0
   -1.6720    1.2050   -0.1228 C   0  0  0  0  0  0  0  0  0  0  0  0
   -0.3543    1.9089   -0.0400 C   0  0  0  0  0  0  0  0  0  0  0  0
    0.6576    0.8244   -0.1283 C   0  0  0  0  0  0  0  0  0  0  0  0
    0.0924   -0.3464   -0.3449 C   0  0  0  0  0  0  0  0  0  0  0  0
    1.1418   -1.4146   -0.4281 C   0  0  0  0  0  0  0  0  0  0  0  0
    2.2214   -0.7934    0.4588 C   0  0  0  0  0  0  0  0  0  0  0  0
    2.1421    0.6545   -0.0450 C   0  0  0  0  0  0  0  0  0  0  0  0
   -1.2756   -1.7778    1.0441 H   0  0  0  0  0  0  0  0  0  0  0  0
   -2.7439   -1.8861   -0.0457 H   0  0  0  0  0  0  0  0  0  0  0  0
   -2.6657   -0.6232    1.2598 H   0  0  0  0  0  0  0  0  0  0  0  0
   -1.7030   -0.4758   -1.4755 H   0  0  0  0  0  0  0  0  0  0  0  0
   -2.2203    1.2431    0.8415 H   0  0  0  0  0  0  0  0  0  0  0  0
   -2.2754    1.6545   -0.9432 H   0  0  0  0  0  0  0  0  0  0  0  0
   -0.2005    2.6002   -0.8920 H   0  0  0  0  0  0  0  0  0  0  0  0
   -0.3049    2.4522    0.9252 H   0  0  0  0  0  0  0  0  0  0  0  0
    1.5455   -1.4081   -1.4506 H   0  0  0  0  0  0  0  0  0  0  0  0
    0.8015   -2.3772   -0.0607 H   0  0  0  0  0  0  0  0  0  0  0  0
    3.2093   -1.2333    0.2860 H   0  0  0  0  0  0  0  0  0  0  0  0
    1.9109   -0.7844    1.5227 H   0  0  0  0  0  0  0  0  0  0  0  0
    2.6224    1.3578    0.6318 H   0  0  0  0  0  0  0  0  0  0  0  0
    2.5325    0.6373   -1.0722 H   0  0  0  0  0  0  0  0  0  0  0  0
  1  2  1  0
  2  3  1  0
  3  4  1  0
  4  5  1  0
  5  6  2  0
  6  7  1  0
  7  8  1  0
  8  9  1  0
  6  2  1  0
  9  5  1  0
  1 10  1  0
  1 11  1  0
  1 12  1  0
  2 13  1  0
  3 14  1  0
  3 15  1  0
  4 16  1  0
  4 17  1  0
  7 18  1  0
  7 19  1  0
  8 20  1  0
  8 21  1  0
  9 22  1  0
  9 23  1  0
M  END
