
     RDKit          3D

 23 23  0  0  0  0  0  0  0  0999 V2000
   -2.4207   -0.0522    0.6621 C   0  0  0  0  0  0  0  0  0  0  0  0
   -1.3591    0.2723   -0.3667 C   0  0  0  0  0  0  0  0  0  0  0  0
   -0.9025   -1.1065   -0.9470 C   0  0  0  0  0  0  0  0  0  0  0  0
    0.4717   -1.4893   -0.5663 C   0  0  0  0  0  0  0  0  0  0  0  0
    1.6926   -1.0566   -0.2288 C   0  0  0  0  0  0  0  0  0  0  0  0
    2.2519    0.2942   -0.0753 C   0  0  0  0  0  0  0  0  0  0  0  0
    1.9013    1.1434    0.9188 O   0  0  0  0  0  0  0  0  0  0  0  0
    0.6173    1.7787    0.7850 C   0  0  0  0  0  0  0  0  0  0  0  0
   -0.1699    0.7893    0.1687 C   0  0  0  0  0  0  0  0  0  0  0  0
   -3.1969   -0.7328    0.2450 H   0  0  0  0  0  0  0  0  0  0  0  0
   -1.9032   -0.6662    1.4570 H   0  0  0  0  0  0  0  0  0  0  0  0
   -2.8169    0.8241    1.1675 H   0  0  0  0  0  0  0  0  0  0  0  0
   -1.8659    0.8616   -1.1601 H   0  0  0  0  0  0  0  0  0  0  0  0
   -0.8978   -0.9642   -2.0473 H   0  0  0  0  0  0  0  0  0  0  0  0
   -1.6114   -1.8838   -0.6739 H   0  0  0  0  0  0  0  0  0  0  0  0
    0.5131   -2.5959   -0.5553 H   0  0  0  0  0  0  0  0  0  0  0  0
    2.3462   -1.8779   -0.0469 H   0  0  0  0  0  0  0  0  0  0  0  0
    3.3526    0.0940    0.1705 H   0  0  0  0  0  0  0  0  0  0  0  0
    2.4058    0.8110   -1.0758 H   0  0  0  0  0  0  0  0  0  0  0  0
    0.8588    2.7276    0.2356 H   0  0  0  0  0  0  0  0  0  0  0  0
    0.3318    2.0961    1.8057 H   0  0  0  0  0  0  0  0  0  0  0  0
    0.4184    0.7730   -0.7980 H   0  0  0  0  0  0  0  0  0  0  0  0
   -0.0173   -0.0397    0.9256 H   0  0  0  0  0  0  0  0  0  0  0  0
  1  2  1  0
  2  3  1  0
  3  4  1  0
  4  5  2  3
  5  6  1  0
  6  7  1  0
  7  8  1  0
  8  9  1  0
  9  2  1  0
  1 10  1  0
  1 11  1  0
  1 12  1  0
  2 13  1  0
  3 14  1  0
  3 15  1  0
  4 16  1  0
  5 17  1  0
  6 18  1  0
  6 19  1  0
  8 20  1  0
  8 21  1  0
  9 22  1  0
  9 23  1  0
M  END
