
     RDKit          3D

 21 21  0  0  0  0  0  0  0  0999 V2000
   -2.6860    0.2820   -0.2552 C   0  0  0  0  0  0  0  0  0  0  0  0
   -1.2041    0.0245   -0.4764 C   0  0  0  0  0  0  0  0  0  0  0  0
   -0.4770    1.2934   -0.2652 C   0  0  0  0  0  0  0  0  0  0  0  0
    0.6864    1.3157    0.3568 C   0  0  0  0  0  0  0  0  0  0  0  0
    1.2348    0.0173    0.8352 C   0  0  0  0  0  0  0  0  0  0  0  0
    2.0933   -0.6581   -0.2194 C   0  0  0  0  0  0  0  0  0  0  0  0
    3.0719    0.2179   -0.6283 O   0  0  0  0  0  0  0  0  0  0  0  0
    0.2487   -0.8291    1.2648 O   0  0  0  0  0  0  0  0  0  0  0  0
   -0.7523   -1.0908    0.3876 C   0  0  0  0  0  0  0  0  0  0  0  0
   -3.2195   -0.6648   -0.5150 H   0  0  0  0  0  0  0  0  0  0  0  0
   -2.8347    0.5747    0.8051 H   0  0  0  0  0  0  0  0  0  0  0  0
   -3.0307    1.0501   -0.9729 H   0  0  0  0  0  0  0  0  0  0  0  0
   -1.1034   -0.2202   -1.5666 H   0  0  0  0  0  0  0  0  0  0  0  0
   -0.9093    2.2122   -0.6276 H   0  0  0  0  0  0  0  0  0  0  0  0
    1.1778    2.2680    0.4861 H   0  0  0  0  0  0  0  0  0  0  0  0
    1.8833    0.2530    1.7237 H   0  0  0  0  0  0  0  0  0  0  0  0
    1.4153   -0.9977   -1.0110 H   0  0  0  0  0  0  0  0  0  0  0  0
    2.5034   -1.5755    0.2640 H   0  0  0  0  0  0  0  0  0  0  0  0
    3.9797   -0.0116   -0.2983 H   0  0  0  0  0  0  0  0  0  0  0  0
   -0.4575   -1.9585   -0.2715 H   0  0  0  0  0  0  0  0  0  0  0  0
   -1.6200   -1.5024    0.9843 H   0  0  0  0  0  0  0  0  0  0  0  0
  1  2  1  0
  2  3  1  0
  3  4  2  0
  4  5  1  0
  5  6  1  0
  6  7  1  0
  5  8  1  0
  8  9  1  0
  9  2  1  0
  1 10  1  0
  1 11  1  0
  1 12  1  0
  2 13  1  0
  3 14  1  0
  4 15  1  0
  5 16  1  0
  6 17  1  0
  6 18  1  0
  7 19  1  0
  9 20  1  0
  9 21  1  0
M  END
