
     RDKit          3D

 21 22  0  0  0  0  0  0  0  0999 V2000
   -2.1024   -1.3707   -0.1793 C   0  0  0  0  0  0  0  0  0  0  0  0
   -1.1161   -0.3534    0.3124 C   0  0  0  0  0  0  0  0  0  0  0  0
   -0.8508    0.7663   -0.6666 C   0  0  0  0  0  0  0  0  0  0  0  0
   -1.0877    2.1272   -0.1292 C   0  0  0  0  0  0  0  0  0  0  0  0
   -2.1479    2.4972    0.2960 O   0  0  0  0  0  0  0  0  0  0  0  0
    0.6031    0.3683   -0.6814 C   0  0  0  0  0  0  0  0  0  0  0  0
    1.3638    0.2351    0.5843 C   0  0  0  0  0  0  0  0  0  0  0  0
    2.7866   -0.2189    0.4592 C   0  0  0  0  0  0  0  0  0  0  0  0
    0.3141   -0.7716    0.1962 C   0  0  0  0  0  0  0  0  0  0  0  0
   -1.6072   -2.3525   -0.3641 H   0  0  0  0  0  0  0  0  0  0  0  0
   -2.5389   -1.0086   -1.1227 H   0  0  0  0  0  0  0  0  0  0  0  0
   -2.9278   -1.5277    0.5398 H   0  0  0  0  0  0  0  0  0  0  0  0
   -1.4079    0.0599    1.3203 H   0  0  0  0  0  0  0  0  0  0  0  0
   -1.3353    0.5683   -1.6259 H   0  0  0  0  0  0  0  0  0  0  0  0
   -0.2636    2.8321   -0.1162 H   0  0  0  0  0  0  0  0  0  0  0  0
    1.1204    0.2230   -1.6469 H   0  0  0  0  0  0  0  0  0  0  0  0
    1.0886    0.8400    1.4727 H   0  0  0  0  0  0  0  0  0  0  0  0
    2.8460   -1.2856    0.1166 H   0  0  0  0  0  0  0  0  0  0  0  0
    3.2679   -0.2251    1.4749 H   0  0  0  0  0  0  0  0  0  0  0  0
    3.4010    0.4073   -0.1957 H   0  0  0  0  0  0  0  0  0  0  0  0
    0.5941   -1.8107   -0.0445 H   0  0  0  0  0  0  0  0  0  0  0  0
  1  2  1  0
  2  3  1  0
  3  4  1  0
  4  5  2  0
  3  6  1  0
  6  7  1  0
  7  8  1  0
  7  9  1  0
  9  2  1  0
  9  6  1  0
  1 10  1  0
  1 11  1  0
  1 12  1  0
  2 13  1  0
  3 14  1  0
  4 15  1  0
  6 16  1  0
  7 17  1  0
  8 18  1  0
  8 19  1  0
  8 20  1  0
  9 21  1  0
M  END
