
     RDKit          3D

 17 18  0  0  0  0  0  0  0  0999 V2000
   -2.2150    0.0251    0.5946 C   0  0  0  0  0  0  0  0  0  0  0  0
   -1.2565   -0.3514   -0.5155 C   0  0  0  0  0  0  0  0  0  0  0  0
   -0.0442   -1.0709   -0.0490 C   0  0  0  0  0  0  0  0  0  0  0  0
    0.1888   -2.1784    0.3661 O   0  0  0  0  0  0  0  0  0  0  0  0
    0.7277    0.1358   -0.3107 C   0  0  0  0  0  0  0  0  0  0  0  0
    2.0281    0.4386    0.2969 C   0  0  0  0  0  0  0  0  0  0  0  0
    3.0286   -0.2783   -0.3733 O   0  0  0  0  0  0  0  0  0  0  0  0
    0.6983    0.5096   -1.7392 O   0  0  0  0  0  0  0  0  0  0  0  0
   -0.3045    0.8142   -0.8312 C   0  0  0  0  0  0  0  0  0  0  0  0
   -2.4769   -0.8886    1.1597 H   0  0  0  0  0  0  0  0  0  0  0  0
   -3.0989    0.4757    0.1277 H   0  0  0  0  0  0  0  0  0  0  0  0
   -1.7426    0.7165    1.3243 H   0  0  0  0  0  0  0  0  0  0  0  0
   -1.7588   -0.7588   -1.3941 H   0  0  0  0  0  0  0  0  0  0  0  0
    2.2664    1.5188    0.1370 H   0  0  0  0  0  0  0  0  0  0  0  0
    2.0147    0.1756    1.3699 H   0  0  0  0  0  0  0  0  0  0  0  0
    2.6361   -1.1082   -0.7911 H   0  0  0  0  0  0  0  0  0  0  0  0
   -0.6913    1.8246   -0.8723 H   0  0  0  0  0  0  0  0  0  0  0  0
  1  2  1  0
  2  3  1  0
  3  4  2  0
  3  5  1  0
  5  6  1  0
  6  7  1  0
  5  8  1  0
  8  9  1  0
  9  2  1  0
  9  5  1  0
  1 10  1  0
  1 11  1  0
  1 12  1  0
  2 13  1  0
  6 14  1  0
  6 15  1  0
  7 16  1  0
  9 17  1  0
M  END
