
     RDKit          3D

 21 22  0  0  0  0  0  0  0  0999 V2000
   -1.9006    0.6403    0.4246 C   0  0  0  0  0  0  0  0  0  0  0  0
   -0.9597   -0.3138   -0.2225 C   0  0  0  0  0  0  0  0  0  0  0  0
   -0.2148   -1.2471    0.7423 C   0  0  0  0  0  0  0  0  0  0  0  0
    0.9379   -1.1639   -0.2688 C   0  0  0  0  0  0  0  0  0  0  0  0
    0.4353    0.2572   -0.5235 C   0  0  0  0  0  0  0  0  0  0  0  0
    0.6026    0.7004   -1.9397 C   0  0  0  0  0  0  0  0  0  0  0  0
    0.7944    1.1331    0.4656 O   0  0  0  0  0  0  0  0  0  0  0  0
    1.0272    0.4450    1.6681 C   0  0  0  0  0  0  0  0  0  0  0  0
    0.1235   -0.5676    1.8873 O   0  0  0  0  0  0  0  0  0  0  0  0
   -2.0175    0.4786    1.5064 H   0  0  0  0  0  0  0  0  0  0  0  0
   -2.9223    0.5161   -0.0194 H   0  0  0  0  0  0  0  0  0  0  0  0
   -1.5069    1.6721    0.2575 H   0  0  0  0  0  0  0  0  0  0  0  0
   -1.3093   -0.8538   -1.1169 H   0  0  0  0  0  0  0  0  0  0  0  0
   -0.6139   -2.2487    0.8240 H   0  0  0  0  0  0  0  0  0  0  0  0
    1.9328   -1.2460    0.1534 H   0  0  0  0  0  0  0  0  0  0  0  0
    0.7142   -1.8164   -1.1183 H   0  0  0  0  0  0  0  0  0  0  0  0
    0.1683    1.6936   -2.0724 H   0  0  0  0  0  0  0  0  0  0  0  0
    1.6584    0.6151   -2.2590 H   0  0  0  0  0  0  0  0  0  0  0  0
   -0.0280    0.0037   -2.5679 H   0  0  0  0  0  0  0  0  0  0  0  0
    0.9828    1.2065    2.4980 H   0  0  0  0  0  0  0  0  0  0  0  0
    2.0957    0.0957    1.6812 H   0  0  0  0  0  0  0  0  0  0  0  0
  1  2  1  0
  2  3  1  0
  3  4  1  0
  4  5  1  0
  5  6  1  0
  5  7  1  0
  7  8  1  0
  8  9  1  0
  5  2  1  0
  9  3  1  0
  1 10  1  0
  1 11  1  0
  1 12  1  0
  2 13  1  0
  3 14  1  0
  4 15  1  0
  4 16  1  0
  6 17  1  0
  6 18  1  0
  6 19  1  0
  8 20  1  0
  8 21  1  0
M  END
