
     RDKit          3D

 17 17  0  0  0  0  0  0  0  0999 V2000
   -0.4169   -1.3721    0.1565 C   0  0  0  0  0  0  0  0  0  0  0  0
    0.1291   -0.0573    0.6339 C   0  0  0  0  0  0  0  0  0  0  0  0
    1.1597    0.5732   -0.3000 C   0  0  0  0  0  0  0  0  0  0  0  0
    2.1721   -0.3399   -0.8244 C   0  0  0  0  0  0  0  0  0  0  0  0
    2.0747   -0.8149   -1.9320 O   0  0  0  0  0  0  0  0  0  0  0  0
    0.0917    0.8529   -1.1533 O   0  0  0  0  0  0  0  0  0  0  0  0
   -0.6559    1.0954   -0.0061 C   0  0  0  0  0  0  0  0  0  0  0  0
   -2.0781    0.7682   -0.0774 C   0  0  0  0  0  0  0  0  0  0  0  0
   -2.5675    0.3101   -1.0894 O   0  0  0  0  0  0  0  0  0  0  0  0
   -0.4452   -1.3300   -0.9545 H   0  0  0  0  0  0  0  0  0  0  0  0
    0.2108   -2.2250    0.4775 H   0  0  0  0  0  0  0  0  0  0  0  0
   -1.4589   -1.4546    0.5398 H   0  0  0  0  0  0  0  0  0  0  0  0
    0.3137    0.0620    1.6955 H   0  0  0  0  0  0  0  0  0  0  0  0
    1.5328    1.5092    0.1546 H   0  0  0  0  0  0  0  0  0  0  0  0
    3.0274   -0.6054   -0.2266 H   0  0  0  0  0  0  0  0  0  0  0  0
   -0.3875    2.0897    0.4024 H   0  0  0  0  0  0  0  0  0  0  0  0
   -2.7020    0.9383    0.7875 H   0  0  0  0  0  0  0  0  0  0  0  0
  1  2  1  0
  2  3  1  0
  3  4  1  0
  4  5  2  0
  3  6  1  0
  6  7  1  0
  7  8  1  0
  8  9  2  0
  7  2  1  0
  1 10  1  0
  1 11  1  0
  1 12  1  0
  2 13  1  0
  3 14  1  0
  4 15  1  0
  7 16  1  0
  8 17  1  0
M  END
