
     RDKit          3D

 20 21  0  0  0  0  0  0  0  0999 V2000
    1.9321    0.8041   -0.2874 C   0  0  0  0  0  0  0  0  0  0  0  0
    1.0018   -0.3213   -0.0507 C   0  0  0  0  0  0  0  0  0  0  0  0
    0.2456   -0.1928    1.2852 C   0  0  0  0  0  0  0  0  0  0  0  0
   -1.1541   -0.4098    0.7840 C   0  0  0  0  0  0  0  0  0  0  0  0
   -0.9748   -1.5053   -0.2713 C   0  0  0  0  0  0  0  0  0  0  0  0
   -0.1613   -0.4067   -0.9733 C   0  0  0  0  0  0  0  0  0  0  0  0
   -1.2145    0.5434   -0.3878 C   0  0  0  0  0  0  0  0  0  0  0  0
   -0.7810    1.8212   -0.1566 O   0  0  0  0  0  0  0  0  0  0  0  0
    2.1531    0.8523   -1.3771 H   0  0  0  0  0  0  0  0  0  0  0  0
    1.5503    1.7999    0.0104 H   0  0  0  0  0  0  0  0  0  0  0  0
    2.8957    0.5744    0.2410 H   0  0  0  0  0  0  0  0  0  0  0  0
    1.5979   -1.2747    0.0039 H   0  0  0  0  0  0  0  0  0  0  0  0
    0.5451   -0.9993    1.9847 H   0  0  0  0  0  0  0  0  0  0  0  0
    0.3345    0.8178    1.6987 H   0  0  0  0  0  0  0  0  0  0  0  0
   -1.9664   -0.4822    1.4501 H   0  0  0  0  0  0  0  0  0  0  0  0
   -1.8646   -1.7192   -0.8694 H   0  0  0  0  0  0  0  0  0  0  0  0
   -0.3426   -2.3353    0.0445 H   0  0  0  0  0  0  0  0  0  0  0  0
   -0.0573   -0.4571   -2.0198 H   0  0  0  0  0  0  0  0  0  0  0  0
   -2.1731    0.4515   -0.9262 H   0  0  0  0  0  0  0  0  0  0  0  0
   -1.5663    2.4392   -0.1829 H   0  0  0  0  0  0  0  0  0  0  0  0
  1  2  1  0
  2  3  1  0
  3  4  1  0
  4  5  1  0
  5  6  1  0
  6  7  1  0
  7  8  1  0
  6  2  1  0
  7  4  1  0
  1  9  1  0
  1 10  1  0
  1 11  1  0
  2 12  1  0
  3 13  1  0
  3 14  1  0
  4 15  1  0
  5 16  1  0
  5 17  1  0
  6 18  1  0
  7 19  1  0
  8 20  1  0
M  END
