
     RDKit          3D

 21 23  0  0  0  0  0  0  0  0999 V2000
    2.7322    0.0904    0.1723 C   0  0  0  0  0  0  0  0  0  0  0  0
    1.3569   -0.3605   -0.2278 C   0  0  0  0  0  0  0  0  0  0  0  0
    0.3795   -0.3744    0.9599 C   0  0  0  0  0  0  0  0  0  0  0  0
   -0.6287    0.1181   -0.0036 C   0  0  0  0  0  0  0  0  0  0  0  0
    0.4752    0.7565   -0.7901 C   0  0  0  0  0  0  0  0  0  0  0  0
   -1.4865   -0.8650   -0.7079 C   0  0  0  0  0  0  0  0  0  0  0  0
   -2.6937   -0.1412   -0.1593 C   0  0  0  0  0  0  0  0  0  0  0  0
   -2.7681    1.1987   -0.4282 O   0  0  0  0  0  0  0  0  0  0  0  0
   -1.7565    0.9203    0.4419 C   0  0  0  0  0  0  0  0  0  0  0  0
    3.2148   -0.7580    0.6998 H   0  0  0  0  0  0  0  0  0  0  0  0
    3.3334    0.3600   -0.6921 H   0  0  0  0  0  0  0  0  0  0  0  0
    2.6306    0.9027    0.9155 H   0  0  0  0  0  0  0  0  0  0  0  0
    1.2748   -1.2614   -0.8315 H   0  0  0  0  0  0  0  0  0  0  0  0
    0.6478    0.3976    1.7328 H   0  0  0  0  0  0  0  0  0  0  0  0
    0.2605   -1.3931    1.3212 H   0  0  0  0  0  0  0  0  0  0  0  0
    0.7842    1.7465   -0.3973 H   0  0  0  0  0  0  0  0  0  0  0  0
    0.3093    0.7211   -1.8681 H   0  0  0  0  0  0  0  0  0  0  0  0
   -1.3283   -1.8888   -0.3322 H   0  0  0  0  0  0  0  0  0  0  0  0
   -1.4113   -0.7340   -1.8087 H   0  0  0  0  0  0  0  0  0  0  0  0
   -3.3852   -0.6550    0.5120 H   0  0  0  0  0  0  0  0  0  0  0  0
   -1.9406    1.2192    1.4912 H   0  0  0  0  0  0  0  0  0  0  0  0
  1  2  1  0
  2  3  1  0
  3  4  1  0
  4  5  1  0
  4  6  1  0
  6  7  1  0
  7  8  1  0
  8  9  1  0
  5  2  1  0
  9  7  1  0
  9  4  1  0
  1 10  1  0
  1 11  1  0
  1 12  1  0
  2 13  1  0
  3 14  1  0
  3 15  1  0
  5 16  1  0
  5 17  1  0
  6 18  1  0
  6 19  1  0
  7 20  1  0
  9 21  1  0
M  END
