
     RDKit          3D

 22 22  0  0  0  0  0  0  0  0999 V2000
    2.0060   -0.5517   -0.6719 C   0  0  0  0  0  0  0  0  0  0  0  0
    0.9237   -0.4638    0.4016 C   0  0  0  0  0  0  0  0  0  0  0  0
    0.9233    0.9835    0.8708 C   0  0  0  0  0  0  0  0  0  0  0  0
   -0.1760    1.6474    0.0926 C   0  0  0  0  0  0  0  0  0  0  0  0
   -1.1455    0.5790   -0.3130 C   0  0  0  0  0  0  0  0  0  0  0  0
   -1.6032    0.7339   -1.6286 O   0  0  0  0  0  0  0  0  0  0  0  0
   -0.4180   -0.7308   -0.1967 C   0  0  0  0  0  0  0  0  0  0  0  0
   -1.2728   -1.6567    0.6405 C   0  0  0  0  0  0  0  0  0  0  0  0
    2.8883    0.0475   -0.3258 H   0  0  0  0  0  0  0  0  0  0  0  0
    2.2669   -1.5912   -0.9186 H   0  0  0  0  0  0  0  0  0  0  0  0
    1.6011    0.0192   -1.5448 H   0  0  0  0  0  0  0  0  0  0  0  0
    1.1908   -1.1620    1.2301 H   0  0  0  0  0  0  0  0  0  0  0  0
    0.8223    1.0656    1.9585 H   0  0  0  0  0  0  0  0  0  0  0  0
    1.8866    1.4983    0.6090 H   0  0  0  0  0  0  0  0  0  0  0  0
    0.2300    2.1110   -0.8238 H   0  0  0  0  0  0  0  0  0  0  0  0
   -0.7290    2.3756    0.7274 H   0  0  0  0  0  0  0  0  0  0  0  0
   -2.0701    0.6064    0.3231 H   0  0  0  0  0  0  0  0  0  0  0  0
   -2.4244    1.2726   -1.6581 H   0  0  0  0  0  0  0  0  0  0  0  0
   -0.2772   -1.1794   -1.2107 H   0  0  0  0  0  0  0  0  0  0  0  0
   -0.7301   -2.5148    1.0423 H   0  0  0  0  0  0  0  0  0  0  0  0
   -2.0875   -2.0235   -0.0359 H   0  0  0  0  0  0  0  0  0  0  0  0
   -1.8054   -1.0662    1.4320 H   0  0  0  0  0  0  0  0  0  0  0  0
  1  2  1  0
  2  3  1  0
  3  4  1  0
  4  5  1  0
  5  6  1  0
  5  7  1  0
  7  8  1  0
  7  2  1  0
  1  9  1  0
  1 10  1  0
  1 11  1  0
  2 12  1  0
  3 13  1  0
  3 14  1  0
  4 15  1  0
  4 16  1  0
  5 17  1  0
  6 18  1  0
  7 19  1  0
  8 20  1  0
  8 21  1  0
  8 22  1  0
M  END
