
     RDKit          3D

 19 21  0  0  0  0  0  0  0  0999 V2000
    1.8159   -0.5205    0.5595 C   0  0  0  0  0  0  0  0  0  0  0  0
    0.8864    0.0725   -0.4366 C   0  0  0  0  0  0  0  0  0  0  0  0
   -0.2530   -0.8468   -0.8138 C   0  0  0  0  0  0  0  0  0  0  0  0
   -1.0145   -1.2429    0.4298 C   0  0  0  0  0  0  0  0  0  0  0  0
   -1.4084   -0.1674    1.1570 O   0  0  0  0  0  0  0  0  0  0  0  0
   -1.1545    1.0590    0.6428 C   0  0  0  0  0  0  0  0  0  0  0  0
   -1.1228    1.2011   -0.8147 C   0  0  0  0  0  0  0  0  0  0  0  0
   -1.0713    0.0327   -1.5234 O   0  0  0  0  0  0  0  0  0  0  0  0
    0.1540    1.2852    0.0211 C   0  0  0  0  0  0  0  0  0  0  0  0
    2.4447   -1.2800    0.0271 H   0  0  0  0  0  0  0  0  0  0  0  0
    2.5011    0.2587    0.9223 H   0  0  0  0  0  0  0  0  0  0  0  0
    1.3311   -0.9778    1.4300 H   0  0  0  0  0  0  0  0  0  0  0  0
    1.4448    0.3111   -1.3600 H   0  0  0  0  0  0  0  0  0  0  0  0
    0.0460   -1.6997   -1.4150 H   0  0  0  0  0  0  0  0  0  0  0  0
   -0.4382   -1.9779    1.0496 H   0  0  0  0  0  0  0  0  0  0  0  0
   -1.9235   -1.7974    0.0802 H   0  0  0  0  0  0  0  0  0  0  0  0
   -1.5556    1.9075    1.2465 H   0  0  0  0  0  0  0  0  0  0  0  0
   -1.3662    2.1501   -1.3037 H   0  0  0  0  0  0  0  0  0  0  0  0
    0.6842    2.2326    0.1014 H   0  0  0  0  0  0  0  0  0  0  0  0
  1  2  1  0
  2  3  1  0
  3  4  1  0
  4  5  1  0
  5  6  1  0
  6  7  1  0
  7  8  1  0
  7  9  1  0
  9  2  1  0
  8  3  1  0
  9  6  1  0
  1 10  1  0
  1 11  1  0
  1 12  1  0
  2 13  1  0
  3 14  1  0
  4 15  1  0
  4 16  1  0
  6 17  1  0
  7 18  1  0
  9 19  1  0
M  END
