
     RDKit          3D

 21 21  0  0  0  0  0  0  0  0999 V2000
    2.1031    0.6235    0.7706 C   0  0  0  0  0  0  0  0  0  0  0  0
    0.9831   -0.3400    1.0932 C   0  0  0  0  0  0  0  0  0  0  0  0
    0.9018   -1.3240   -0.0559 C   0  0  0  0  0  0  0  0  0  0  0  0
   -0.2696   -0.8364   -0.8438 C   0  0  0  0  0  0  0  0  0  0  0  0
   -0.8713    0.2624   -0.0014 C   0  0  0  0  0  0  0  0  0  0  0  0
   -2.3596   -0.0007    0.1482 C   0  0  0  0  0  0  0  0  0  0  0  0
   -0.7327    1.5876   -0.6274 C   0  0  0  0  0  0  0  0  0  0  0  0
   -0.1306    2.4547   -0.0554 O   0  0  0  0  0  0  0  0  0  0  0  0
   -0.2422    0.2525    1.2128 O   0  0  0  0  0  0  0  0  0  0  0  0
    2.0702    1.5500    1.3419 H   0  0  0  0  0  0  0  0  0  0  0  0
    2.0451    0.7934   -0.3407 H   0  0  0  0  0  0  0  0  0  0  0  0
    3.0575    0.0478    0.9415 H   0  0  0  0  0  0  0  0  0  0  0  0
    1.2139   -0.8798    2.0480 H   0  0  0  0  0  0  0  0  0  0  0  0
    1.7993   -1.2835   -0.7011 H   0  0  0  0  0  0  0  0  0  0  0  0
    0.8057   -2.3555    0.3040 H   0  0  0  0  0  0  0  0  0  0  0  0
   -0.9956   -1.6923   -0.9167 H   0  0  0  0  0  0  0  0  0  0  0  0
    0.0061   -0.4633   -1.8571 H   0  0  0  0  0  0  0  0  0  0  0  0
   -2.5697   -1.0624   -0.0035 H   0  0  0  0  0  0  0  0  0  0  0  0
   -2.6913    0.3134    1.1572 H   0  0  0  0  0  0  0  0  0  0  0  0
   -2.9540    0.5852   -0.5799 H   0  0  0  0  0  0  0  0  0  0  0  0
   -1.1691    1.7674   -1.5862 H   0  0  0  0  0  0  0  0  0  0  0  0
  1  2  1  0
  2  3  1  0
  3  4  1  0
  4  5  1  0
  5  6  1  0
  5  7  1  0
  7  8  2  0
  5  9  1  0
  9  2  1  0
  1 10  1  0
  1 11  1  0
  1 12  1  0
  2 13  1  0
  3 14  1  0
  3 15  1  0
  4 16  1  0
  4 17  1  0
  6 18  1  0
  6 19  1  0
  6 20  1  0
  7 21  1  0
M  END
