
     RDKit          3D

 19 19  0  0  0  0  0  0  0  0999 V2000
   -2.1298    0.1078    0.0123 C   0  0  0  0  0  0  0  0  0  0  0  0
   -0.6973   -0.2185    0.2602 C   0  0  0  0  0  0  0  0  0  0  0  0
   -0.2864   -1.5179   -0.4225 C   0  0  0  0  0  0  0  0  0  0  0  0
    1.1113   -1.6852   -0.4234 O   0  0  0  0  0  0  0  0  0  0  0  0
    2.0132   -0.7925    0.0999 C   0  0  0  0  0  0  0  0  0  0  0  0
    3.2055   -1.1335    0.2025 O   0  0  0  0  0  0  0  0  0  0  0  0
    1.5914    0.5483    0.5363 C   0  0  0  0  0  0  0  0  0  0  0  0
    0.2627    0.8342   -0.1785 C   0  0  0  0  0  0  0  0  0  0  0  0
   -0.1688    2.1275    0.0528 O   0  0  0  0  0  0  0  0  0  0  0  0
   -2.5589   -0.5393   -0.7924 H   0  0  0  0  0  0  0  0  0  0  0  0
   -2.1746    1.1697   -0.3452 H   0  0  0  0  0  0  0  0  0  0  0  0
   -2.7648    0.0380    0.9265 H   0  0  0  0  0  0  0  0  0  0  0  0
   -0.5517   -0.4086    1.3626 H   0  0  0  0  0  0  0  0  0  0  0  0
   -0.7348   -2.3871    0.0823 H   0  0  0  0  0  0  0  0  0  0  0  0
   -0.6112   -1.4786   -1.4826 H   0  0  0  0  0  0  0  0  0  0  0  0
    2.3324    1.3363    0.3321 H   0  0  0  0  0  0  0  0  0  0  0  0
    1.3837    0.5975    1.6375 H   0  0  0  0  0  0  0  0  0  0  0  0
    0.4797    0.6883   -1.2570 H   0  0  0  0  0  0  0  0  0  0  0  0
    0.2984    2.7138   -0.6032 H   0  0  0  0  0  0  0  0  0  0  0  0
  1  2  1  0
  2  3  1  0
  3  4  1  0
  4  5  1  0
  5  6  2  0
  5  7  1  0
  7  8  1  0
  8  9  1  0
  8  2  1  0
  1 10  1  0
  1 11  1  0
  1 12  1  0
  2 13  1  0
  3 14  1  0
  3 15  1  0
  7 16  1  0
  7 17  1  0
  8 18  1  0
  9 19  1  0
M  END
