
     RDKit          3D

 21 22  0  0  0  0  0  0  0  0999 V2000
    2.0085   -0.6334   -0.7486 C   0  0  0  0  0  0  0  0  0  0  0  0
    0.5449   -0.6279   -0.4837 C   0  0  0  0  0  0  0  0  0  0  0  0
    0.1594   -0.4879    0.9995 C   0  0  0  0  0  0  0  0  0  0  0  0
    0.9285    0.5563    1.4177 O   0  0  0  0  0  0  0  0  0  0  0  0
    0.7055    1.5242    0.4040 C   0  0  0  0  0  0  0  0  0  0  0  0
   -0.1166    0.7287   -0.5568 C   0  0  0  0  0  0  0  0  0  0  0  0
   -0.5445    1.2170   -1.7016 O   0  0  0  0  0  0  0  0  0  0  0  0
   -1.1326    0.1112    0.4193 C   0  0  0  0  0  0  0  0  0  0  0  0
   -2.0058   -0.9399   -0.1673 C   0  0  0  0  0  0  0  0  0  0  0  0
    2.3334   -1.4791   -1.4177 H   0  0  0  0  0  0  0  0  0  0  0  0
    2.3598    0.2876   -1.2765 H   0  0  0  0  0  0  0  0  0  0  0  0
    2.5994   -0.7674    0.1848 H   0  0  0  0  0  0  0  0  0  0  0  0
    0.0225   -1.4389   -0.9813 H   0  0  0  0  0  0  0  0  0  0  0  0
    0.0675   -1.3850    1.5598 H   0  0  0  0  0  0  0  0  0  0  0  0
    0.0380    2.2832    0.8791 H   0  0  0  0  0  0  0  0  0  0  0  0
    1.6290    1.9333    0.0088 H   0  0  0  0  0  0  0  0  0  0  0  0
   -1.2905    1.8576   -1.5630 H   0  0  0  0  0  0  0  0  0  0  0  0
   -1.5840    0.8898    1.0285 H   0  0  0  0  0  0  0  0  0  0  0  0
   -3.0215   -0.8413    0.3052 H   0  0  0  0  0  0  0  0  0  0  0  0
   -1.6376   -1.9512    0.1233 H   0  0  0  0  0  0  0  0  0  0  0  0
   -2.0631   -0.8372   -1.2633 H   0  0  0  0  0  0  0  0  0  0  0  0
  1  2  1  0
  2  3  1  0
  3  4  1  0
  4  5  1  0
  5  6  1  0
  6  7  1  0
  6  8  1  0
  8  9  1  0
  6  2  1  0
  8  3  1  0
  1 10  1  0
  1 11  1  0
  1 12  1  0
  2 13  1  0
  3 14  1  0
  5 15  1  0
  5 16  1  0
  7 17  1  0
  8 18  1  0
  9 19  1  0
  9 20  1  0
  9 21  1  0
M  END
