
     RDKit          3D

 17 17  0  0  0  0  0  0  0  0999 V2000
   -2.0638   -0.5727    0.3288 C   0  0  0  0  0  0  0  0  0  0  0  0
   -0.6207   -0.1471    0.4120 C   0  0  0  0  0  0  0  0  0  0  0  0
   -0.3359    1.0943   -0.3866 C   0  0  0  0  0  0  0  0  0  0  0  0
    1.0925    1.4435   -0.1733 C   0  0  0  0  0  0  0  0  0  0  0  0
    1.5045    2.6065    0.0531 O   0  0  0  0  0  0  0  0  0  0  0  0
    2.0720    0.3583   -0.2328 C   0  0  0  0  0  0  0  0  0  0  0  0
    1.6981   -0.9077   -0.1553 C   0  0  0  0  0  0  0  0  0  0  0  0
    0.2879   -1.2351   -0.0081 C   0  0  0  0  0  0  0  0  0  0  0  0
   -0.1081   -2.4036   -0.2362 O   0  0  0  0  0  0  0  0  0  0  0  0
   -2.3605   -0.9498   -0.6592 H   0  0  0  0  0  0  0  0  0  0  0  0
   -2.2022   -1.3962    1.0749 H   0  0  0  0  0  0  0  0  0  0  0  0
   -2.6752    0.3080    0.6545 H   0  0  0  0  0  0  0  0  0  0  0  0
   -0.3969    0.0763    1.4711 H   0  0  0  0  0  0  0  0  0  0  0  0
   -0.4331    0.8951   -1.4928 H   0  0  0  0  0  0  0  0  0  0  0  0
   -1.0060    1.9241   -0.1074 H   0  0  0  0  0  0  0  0  0  0  0  0
    3.1266    0.6118   -0.3432 H   0  0  0  0  0  0  0  0  0  0  0  0
    2.4209   -1.7056   -0.1994 H   0  0  0  0  0  0  0  0  0  0  0  0
  1  2  1  0
  2  3  1  0
  3  4  1  0
  4  5  2  0
  4  6  1  0
  6  7  2  0
  7  8  1  0
  8  9  2  0
  8  2  1  0
  1 10  1  0
  1 11  1  0
  1 12  1  0
  2 13  1  0
  3 14  1  0
  3 15  1  0
  6 16  1  0
  7 17  1  0
M  END
