
     RDKit          3D

 21 22  0  0  0  0  0  0  0  0999 V2000
   -1.6031   -1.1724    1.1207 C   0  0  0  0  0  0  0  0  0  0  0  0
   -1.0096    0.1041    0.5879 C   0  0  0  0  0  0  0  0  0  0  0  0
   -1.8516    0.7218   -0.4962 C   0  0  0  0  0  0  0  0  0  0  0  0
   -0.9042    1.4485   -1.3607 C   0  0  0  0  0  0  0  0  0  0  0  0
    0.3001    0.9592   -1.1632 C   0  0  0  0  0  0  0  0  0  0  0  0
    0.2914   -0.1354   -0.1559 C   0  0  0  0  0  0  0  0  0  0  0  0
    0.6964   -1.3963   -0.4738 O   0  0  0  0  0  0  0  0  0  0  0  0
    1.4639   -0.6031    0.4934 C   0  0  0  0  0  0  0  0  0  0  0  0
    2.8268   -0.1850    0.0252 C   0  0  0  0  0  0  0  0  0  0  0  0
   -2.4093   -1.4808    0.4287 H   0  0  0  0  0  0  0  0  0  0  0  0
   -0.8683   -1.9905    1.1856 H   0  0  0  0  0  0  0  0  0  0  0  0
   -2.0831   -0.9414    2.0991 H   0  0  0  0  0  0  0  0  0  0  0  0
   -0.8350    0.8691    1.3646 H   0  0  0  0  0  0  0  0  0  0  0  0
   -2.3437   -0.0614   -1.1181 H   0  0  0  0  0  0  0  0  0  0  0  0
   -2.6185    1.4096   -0.0584 H   0  0  0  0  0  0  0  0  0  0  0  0
   -1.2121    2.2651   -2.0455 H   0  0  0  0  0  0  0  0  0  0  0  0
    1.2059    1.3082   -1.6735 H   0  0  0  0  0  0  0  0  0  0  0  0
    1.4076   -1.0151    1.5365 H   0  0  0  0  0  0  0  0  0  0  0  0
    3.2221   -0.8091   -0.8044 H   0  0  0  0  0  0  0  0  0  0  0  0
    3.5391   -0.1629    0.8807 H   0  0  0  0  0  0  0  0  0  0  0  0
    2.7852    0.8680   -0.3728 H   0  0  0  0  0  0  0  0  0  0  0  0
  1  2  1  0
  2  3  1  0
  3  4  1  0
  4  5  2  0
  5  6  1  0
  6  7  1  0
  7  8  1  0
  8  9  1  0
  6  2  1  0
  8  6  1  0
  1 10  1  0
  1 11  1  0
  1 12  1  0
  2 13  1  0
  3 14  1  0
  3 15  1  0
  4 16  1  0
  5 17  1  0
  8 18  1  0
  9 19  1  0
  9 20  1  0
  9 21  1  0
M  END
