
     RDKit          3D

 23 24  0  0  0  0  0  0  0  0999 V2000
    2.6531   -0.1956    0.5060 C   0  0  0  0  0  0  0  0  0  0  0  0
    1.2328    0.0518    0.0154 C   0  0  0  0  0  0  0  0  0  0  0  0
    0.4845   -1.2310    0.1272 C   0  0  0  0  0  0  0  0  0  0  0  0
   -0.9883   -1.1191   -0.0901 C   0  0  0  0  0  0  0  0  0  0  0  0
   -1.3618   -0.1657   -1.2035 C   0  0  0  0  0  0  0  0  0  0  0  0
   -1.5287    0.9100   -0.1557 C   0  0  0  0  0  0  0  0  0  0  0  0
   -0.2816    1.7000    0.0875 C   0  0  0  0  0  0  0  0  0  0  0  0
    0.6573    1.0097    0.8674 O   0  0  0  0  0  0  0  0  0  0  0  0
   -1.6825   -0.2157    0.8703 C   0  0  0  0  0  0  0  0  0  0  0  0
    2.7183   -0.2541    1.6022 H   0  0  0  0  0  0  0  0  0  0  0  0
    3.1026   -1.0965    0.0748 H   0  0  0  0  0  0  0  0  0  0  0  0
    3.2932    0.6646    0.2003 H   0  0  0  0  0  0  0  0  0  0  0  0
    1.3271    0.4410   -1.0138 H   0  0  0  0  0  0  0  0  0  0  0  0
    0.6692   -1.6469    1.1424 H   0  0  0  0  0  0  0  0  0  0  0  0
    0.8845   -1.9246   -0.6522 H   0  0  0  0  0  0  0  0  0  0  0  0
   -1.4309   -2.1395   -0.2107 H   0  0  0  0  0  0  0  0  0  0  0  0
   -2.3550   -0.4715   -1.6289 H   0  0  0  0  0  0  0  0  0  0  0  0
   -0.5708   -0.0217   -1.9368 H   0  0  0  0  0  0  0  0  0  0  0  0
   -2.4166    1.5427   -0.2820 H   0  0  0  0  0  0  0  0  0  0  0  0
    0.1669    2.0629   -0.8526 H   0  0  0  0  0  0  0  0  0  0  0  0
   -0.5771    2.6068    0.6739 H   0  0  0  0  0  0  0  0  0  0  0  0
   -1.2150   -0.0300    1.8383 H   0  0  0  0  0  0  0  0  0  0  0  0
   -2.7811   -0.4773    0.9005 H   0  0  0  0  0  0  0  0  0  0  0  0
  1  2  1  0
  2  3  1  0
  3  4  1  0
  4  5  1  0
  5  6  1  0
  6  7  1  0
  7  8  1  0
  6  9  1  0
  8  2  1  0
  9  4  1  0
  1 10  1  0
  1 11  1  0
  1 12  1  0
  2 13  1  0
  3 14  1  0
  3 15  1  0
  4 16  1  0
  5 17  1  0
  5 18  1  0
  6 19  1  0
  7 20  1  0
  7 21  1  0
  9 22  1  0
  9 23  1  0
M  END
