
     RDKit          3D

 25 25  0  0  0  0  0  0  0  0999 V2000
    1.9975   -1.1001    0.6132 C   0  0  0  0  0  0  0  0  0  0  0  0
    1.5816    0.0025   -0.3025 C   0  0  0  0  0  0  0  0  0  0  0  0
    0.7450   -0.2789   -1.5231 C   0  0  0  0  0  0  0  0  0  0  0  0
    0.2661    0.6114   -0.3286 C   0  0  0  0  0  0  0  0  0  0  0  0
    0.2082    2.1126   -0.6652 C   0  0  0  0  0  0  0  0  0  0  0  0
   -0.9743    0.0949    0.2797 C   0  0  0  0  0  0  0  0  0  0  0  0
   -1.4292   -1.2604   -0.2274 C   0  0  0  0  0  0  0  0  0  0  0  0
   -0.9435    0.0022    1.7862 C   0  0  0  0  0  0  0  0  0  0  0  0
   -2.0581    0.9593   -0.0215 O   0  0  0  0  0  0  0  0  0  0  0  0
    1.5472   -2.0858    0.3913 H   0  0  0  0  0  0  0  0  0  0  0  0
    1.8214   -0.7715    1.6699 H   0  0  0  0  0  0  0  0  0  0  0  0
    3.0947   -1.2692    0.5497 H   0  0  0  0  0  0  0  0  0  0  0  0
    2.4474    0.6880   -0.5565 H   0  0  0  0  0  0  0  0  0  0  0  0
    0.3755   -1.3005   -1.5777 H   0  0  0  0  0  0  0  0  0  0  0  0
    0.9168    0.2489   -2.4652 H   0  0  0  0  0  0  0  0  0  0  0  0
   -0.8329    2.3829   -0.8849 H   0  0  0  0  0  0  0  0  0  0  0  0
    0.8885    2.2936   -1.5329 H   0  0  0  0  0  0  0  0  0  0  0  0
    0.6042    2.6250    0.2254 H   0  0  0  0  0  0  0  0  0  0  0  0
   -2.4521   -1.4091    0.2319 H   0  0  0  0  0  0  0  0  0  0  0  0
   -1.6418   -1.2229   -1.3270 H   0  0  0  0  0  0  0  0  0  0  0  0
   -0.8205   -2.0988    0.0887 H   0  0  0  0  0  0  0  0  0  0  0  0
   -0.5204   -0.9580    2.1433 H   0  0  0  0  0  0  0  0  0  0  0  0
   -0.4753    0.8857    2.2659 H   0  0  0  0  0  0  0  0  0  0  0  0
   -2.0094   -0.0084    2.1260 H   0  0  0  0  0  0  0  0  0  0  0  0
   -2.3364    0.8564   -0.9588 H   0  0  0  0  0  0  0  0  0  0  0  0
  1  2  1  0
  2  3  1  0
  3  4  1  0
  4  5  1  0
  4  6  1  0
  6  7  1  0
  6  8  1  0
  6  9  1  0
  4  2  1  0
  1 10  1  0
  1 11  1  0
  1 12  1  0
  2 13  1  0
  3 14  1  0
  3 15  1  0
  5 16  1  0
  5 17  1  0
  5 18  1  0
  7 19  1  0
  7 20  1  0
  7 21  1  0
  8 22  1  0
  8 23  1  0
  8 24  1  0
  9 25  1  0
M  END
