
     RDKit          3D

 25 26  0  0  0  0  0  0  0  0999 V2000
    2.5727   -0.4341    0.3166 C   0  0  0  0  0  0  0  0  0  0  0  0
    1.2760   -0.3679   -0.4317 C   0  0  0  0  0  0  0  0  0  0  0  0
    0.4022   -1.5119    0.0059 C   0  0  0  0  0  0  0  0  0  0  0  0
   -0.9531   -0.9480    0.2698 C   0  0  0  0  0  0  0  0  0  0  0  0
   -1.7341   -0.2052   -0.7221 C   0  0  0  0  0  0  0  0  0  0  0  0
   -3.2387   -0.1963   -0.5355 C   0  0  0  0  0  0  0  0  0  0  0  0
   -0.8497    0.5162    0.2288 C   0  0  0  0  0  0  0  0  0  0  0  0
    0.5257    0.8934   -0.2869 C   0  0  0  0  0  0  0  0  0  0  0  0
    1.1784    1.9384    0.5625 C   0  0  0  0  0  0  0  0  0  0  0  0
    2.9993   -1.4621    0.1175 H   0  0  0  0  0  0  0  0  0  0  0  0
    2.4637   -0.3681    1.4086 H   0  0  0  0  0  0  0  0  0  0  0  0
    3.3455    0.2651   -0.0709 H   0  0  0  0  0  0  0  0  0  0  0  0
    1.5158   -0.5477   -1.5117 H   0  0  0  0  0  0  0  0  0  0  0  0
    0.7795   -2.0125    0.9211 H   0  0  0  0  0  0  0  0  0  0  0  0
    0.2984   -2.3004   -0.7803 H   0  0  0  0  0  0  0  0  0  0  0  0
   -1.5136   -1.4395    1.1101 H   0  0  0  0  0  0  0  0  0  0  0  0
   -1.4103   -0.2628   -1.7745 H   0  0  0  0  0  0  0  0  0  0  0  0
   -3.6407   -1.0151   -1.1711 H   0  0  0  0  0  0  0  0  0  0  0  0
   -3.5121   -0.4435    0.5154 H   0  0  0  0  0  0  0  0  0  0  0  0
   -3.7078    0.7379   -0.8925 H   0  0  0  0  0  0  0  0  0  0  0  0
   -1.2450    1.0612    1.1037 H   0  0  0  0  0  0  0  0  0  0  0  0
    0.3478    1.3687   -1.2968 H   0  0  0  0  0  0  0  0  0  0  0  0
    0.9872    1.8422    1.6364 H   0  0  0  0  0  0  0  0  0  0  0  0
    2.2689    1.9277    0.4159 H   0  0  0  0  0  0  0  0  0  0  0  0
    0.8437    2.9640    0.2303 H   0  0  0  0  0  0  0  0  0  0  0  0
  1  2  1  0
  2  3  1  0
  3  4  1  0
  4  5  1  0
  5  6  1  0
  5  7  1  0
  7  8  1  0
  8  9  1  0
  8  2  1  0
  7  4  1  0
  1 10  1  0
  1 11  1  0
  1 12  1  0
  2 13  1  0
  3 14  1  0
  3 15  1  0
  4 16  1  0
  5 17  1  0
  6 18  1  0
  6 19  1  0
  6 20  1  0
  7 21  1  0
  8 22  1  0
  9 23  1  0
  9 24  1  0
  9 25  1  0
M  END
