
     RDKit          3D

 21 23  0  0  0  0  0  0  0  0999 V2000
    2.2034    0.8915    0.4616 C   0  0  0  0  0  0  0  0  0  0  0  0
    1.1162    0.3726   -0.4320 C   0  0  0  0  0  0  0  0  0  0  0  0
    0.8240   -1.1129   -0.1505 C   0  0  0  0  0  0  0  0  0  0  0  0
   -0.6258   -0.9972    0.2400 C   0  0  0  0  0  0  0  0  0  0  0  0
   -0.7732    0.2355    1.0842 C   0  0  0  0  0  0  0  0  0  0  0  0
   -2.1299    0.3794    0.4634 C   0  0  0  0  0  0  0  0  0  0  0  0
   -1.2468    0.0050   -0.6992 C   0  0  0  0  0  0  0  0  0  0  0  0
   -1.5630   -0.1489   -1.8974 O   0  0  0  0  0  0  0  0  0  0  0  0
   -0.2356    0.9571   -0.1132 C   0  0  0  0  0  0  0  0  0  0  0  0
    1.7809    1.1184    1.4700 H   0  0  0  0  0  0  0  0  0  0  0  0
    2.6442    1.7787   -0.0292 H   0  0  0  0  0  0  0  0  0  0  0  0
    3.0162    0.1436    0.5658 H   0  0  0  0  0  0  0  0  0  0  0  0
    1.3585    0.4980   -1.5084 H   0  0  0  0  0  0  0  0  0  0  0  0
    0.9400   -1.7109   -1.0662 H   0  0  0  0  0  0  0  0  0  0  0  0
    1.3775   -1.4791    0.7175 H   0  0  0  0  0  0  0  0  0  0  0  0
   -1.1725   -1.8792    0.4939 H   0  0  0  0  0  0  0  0  0  0  0  0
   -0.5171    0.3542    2.0446 H   0  0  0  0  0  0  0  0  0  0  0  0
   -2.5771    1.3731    0.4474 H   0  0  0  0  0  0  0  0  0  0  0  0
   -2.7834   -0.4660    0.7732 H   0  0  0  0  0  0  0  0  0  0  0  0
   -1.2462    0.4115   -2.6487 H   0  0  0  0  0  0  0  0  0  0  0  0
   -0.3902    2.0088   -0.2169 H   0  0  0  0  0  0  0  0  0  0  0  0
  1  2  1  0
  2  3  1  0
  3  4  1  0
  4  5  1  0
  5  6  1  0
  6  7  1  0
  7  8  1  0
  7  9  1  0
  9  2  1  0
  7  4  1  0
  9  5  1  0
  1 10  1  0
  1 11  1  0
  1 12  1  0
  2 13  1  0
  3 14  1  0
  3 15  1  0
  4 16  1  0
  5 17  1  0
  6 18  1  0
  6 19  1  0
  8 20  1  0
  9 21  1  0
M  END
