
     RDKit          3D

 21 22  0  0  0  0  0  0  0  0999 V2000
   -2.3303    1.1750   -0.0590 C   0  0  0  0  0  0  0  0  0  0  0  0
   -1.3085    0.2556   -0.6894 C   0  0  0  0  0  0  0  0  0  0  0  0
   -1.7890   -1.1926   -0.6587 C   0  0  0  0  0  0  0  0  0  0  0  0
   -0.4392   -1.5458   -0.4242 O   0  0  0  0  0  0  0  0  0  0  0  0
   -0.3279   -0.3521    0.2839 C   0  0  0  0  0  0  0  0  0  0  0  0
    1.0358    0.2618    0.3154 C   0  0  0  0  0  0  0  0  0  0  0  0
    2.1829   -0.7343    0.5030 C   0  0  0  0  0  0  0  0  0  0  0  0
    2.8616    0.3994   -0.2789 C   0  0  0  0  0  0  0  0  0  0  0  0
    1.5998    0.6027   -0.8878 O   0  0  0  0  0  0  0  0  0  0  0  0
   -2.3008    0.9674    1.0379 H   0  0  0  0  0  0  0  0  0  0  0  0
   -3.3416    0.8851   -0.4588 H   0  0  0  0  0  0  0  0  0  0  0  0
   -2.1054    2.2360   -0.2707 H   0  0  0  0  0  0  0  0  0  0  0  0
   -0.8876    0.5821   -1.6453 H   0  0  0  0  0  0  0  0  0  0  0  0
   -2.3592   -1.3802    0.2726 H   0  0  0  0  0  0  0  0  0  0  0  0
   -2.2092   -1.5718   -1.5883 H   0  0  0  0  0  0  0  0  0  0  0  0
   -0.7812   -0.3997    1.2914 H   0  0  0  0  0  0  0  0  0  0  0  0
    1.1262    1.0410    1.0990 H   0  0  0  0  0  0  0  0  0  0  0  0
    2.0905   -1.6626   -0.0615 H   0  0  0  0  0  0  0  0  0  0  0  0
    2.5215   -0.8416    1.5385 H   0  0  0  0  0  0  0  0  0  0  0  0
    3.1100    1.2063    0.4283 H   0  0  0  0  0  0  0  0  0  0  0  0
    3.6517    0.0681   -0.9530 H   0  0  0  0  0  0  0  0  0  0  0  0
  1  2  1  0
  2  3  1  0
  3  4  1  0
  4  5  1  0
  5  6  1  0
  6  7  1  0
  7  8  1  0
  8  9  1  0
  5  2  1  0
  9  6  1  0
  1 10  1  0
  1 11  1  0
  1 12  1  0
  2 13  1  0
  3 14  1  0
  3 15  1  0
  5 16  1  0
  6 17  1  0
  7 18  1  0
  7 19  1  0
  8 20  1  0
  8 21  1  0
M  END
