
     RDKit          3D

 23 24  0  0  0  0  0  0  0  0999 V2000
    2.4613    0.4157    0.0583 C   0  0  0  0  0  0  0  0  0  0  0  0
    1.1073   -0.0410    0.4882 C   0  0  0  0  0  0  0  0  0  0  0  0
    0.6453   -1.3603   -0.1536 C   0  0  0  0  0  0  0  0  0  0  0  0
   -0.6533   -0.7130   -0.2735 C   0  0  0  0  0  0  0  0  0  0  0  0
   -1.6217   -0.9955    0.8906 C   0  0  0  0  0  0  0  0  0  0  0  0
   -1.9561   -1.1736   -0.5239 C   0  0  0  0  0  0  0  0  0  0  0  0
   -0.0278    0.5975   -0.3307 C   0  0  0  0  0  0  0  0  0  0  0  0
   -0.6911    1.7587    0.3346 C   0  0  0  0  0  0  0  0  0  0  0  0
    0.5036    0.8917   -1.6069 O   0  0  0  0  0  0  0  0  0  0  0  0
    3.2139   -0.1062    0.6708 H   0  0  0  0  0  0  0  0  0  0  0  0
    2.5628    0.2291   -1.0264 H   0  0  0  0  0  0  0  0  0  0  0  0
    2.5527    1.4963    0.3044 H   0  0  0  0  0  0  0  0  0  0  0  0
    0.8859   -0.0352    1.5597 H   0  0  0  0  0  0  0  0  0  0  0  0
    1.1673   -1.4476   -1.1483 H   0  0  0  0  0  0  0  0  0  0  0  0
    0.7768   -2.2373    0.4775 H   0  0  0  0  0  0  0  0  0  0  0  0
   -1.9210   -0.0988    1.4799 H   0  0  0  0  0  0  0  0  0  0  0  0
   -1.3966   -1.8630    1.5363 H   0  0  0  0  0  0  0  0  0  0  0  0
   -2.6976   -0.4583   -0.9787 H   0  0  0  0  0  0  0  0  0  0  0  0
   -2.1458   -2.2113   -0.8610 H   0  0  0  0  0  0  0  0  0  0  0  0
   -0.2830    2.6900   -0.1484 H   0  0  0  0  0  0  0  0  0  0  0  0
   -0.5047    1.8490    1.4060 H   0  0  0  0  0  0  0  0  0  0  0  0
   -1.7792    1.7762    0.1168 H   0  0  0  0  0  0  0  0  0  0  0  0
   -0.1990    1.0369   -2.2716 H   0  0  0  0  0  0  0  0  0  0  0  0
  1  2  1  0
  2  3  1  0
  3  4  1  0
  4  5  1  0
  5  6  1  0
  4  7  1  0
  7  8  1  0
  7  9  1  0
  7  2  1  0
  6  4  1  0
  1 10  1  0
  1 11  1  0
  1 12  1  0
  2 13  1  0
  3 14  1  0
  3 15  1  0
  5 16  1  0
  5 17  1  0
  6 18  1  0
  6 19  1  0
  8 20  1  0
  8 21  1  0
  8 22  1  0
  9 23  1  0
M  END
