
     RDKit          3D

 23 24  0  0  0  0  0  0  0  0999 V2000
   -2.0506    1.1855    0.4265 C   0  0  0  0  0  0  0  0  0  0  0  0
   -1.0290    0.8639   -0.6220 C   0  0  0  0  0  0  0  0  0  0  0  0
   -0.7217   -0.5300   -1.0203 C   0  0  0  0  0  0  0  0  0  0  0  0
   -1.3759   -1.7054   -0.3419 C   0  0  0  0  0  0  0  0  0  0  0  0
    0.2780    0.2931   -0.3137 C   0  0  0  0  0  0  0  0  0  0  0  0
    1.4871    0.8166   -0.9956 C   0  0  0  0  0  0  0  0  0  0  0  0
    2.5691    0.5124   -0.2867 C   0  0  0  0  0  0  0  0  0  0  0  0
    2.2103   -0.2349    0.9261 C   0  0  0  0  0  0  0  0  0  0  0  0
    0.7110   -0.1602    1.0291 C   0  0  0  0  0  0  0  0  0  0  0  0
   -2.6668    0.3321    0.7395 H   0  0  0  0  0  0  0  0  0  0  0  0
   -1.5759    1.5832    1.3654 H   0  0  0  0  0  0  0  0  0  0  0  0
   -2.7649    1.9806    0.0969 H   0  0  0  0  0  0  0  0  0  0  0  0
   -1.0467    1.5894   -1.4893 H   0  0  0  0  0  0  0  0  0  0  0  0
   -0.4593   -0.7546   -2.0951 H   0  0  0  0  0  0  0  0  0  0  0  0
   -0.6031   -2.5184   -0.2032 H   0  0  0  0  0  0  0  0  0  0  0  0
   -2.1629   -2.0831   -1.0547 H   0  0  0  0  0  0  0  0  0  0  0  0
   -1.7622   -1.4942    0.6525 H   0  0  0  0  0  0  0  0  0  0  0  0
    1.4370    1.3654   -1.9413 H   0  0  0  0  0  0  0  0  0  0  0  0
    3.5653    0.7938   -0.5927 H   0  0  0  0  0  0  0  0  0  0  0  0
    2.6653    0.1666    1.8435 H   0  0  0  0  0  0  0  0  0  0  0  0
    2.5598   -1.2893    0.7919 H   0  0  0  0  0  0  0  0  0  0  0  0
    0.3453   -1.2028    1.2183 H   0  0  0  0  0  0  0  0  0  0  0  0
    0.3908    0.4904    1.8668 H   0  0  0  0  0  0  0  0  0  0  0  0
  1  2  1  0
  2  3  1  0
  3  4  1  0
  3  5  1  0
  5  6  1  0
  6  7  2  0
  7  8  1  0
  8  9  1  0
  5  2  1  0
  9  5  1  0
  1 10  1  0
  1 11  1  0
  1 12  1  0
  2 13  1  0
  3 14  1  0
  4 15  1  0
  4 16  1  0
  4 17  1  0
  6 18  1  0
  7 19  1  0
  8 20  1  0
  8 21  1  0
  9 22  1  0
  9 23  1  0
M  END
