
     RDKit          3D

 18 19  0  0  0  0  0  0  0  0999 V2000
    1.8374    0.7284    0.5583 C   0  0  0  0  0  0  0  0  0  0  0  0
    0.8865   -0.3873    0.3171 C   0  0  0  0  0  0  0  0  0  0  0  0
    0.7589   -0.9150   -1.0377 C   0  0  0  0  0  0  0  0  0  0  0  0
    1.5360   -1.1786   -1.9283 O   0  0  0  0  0  0  0  0  0  0  0  0
   -0.7191   -1.0236   -0.9469 C   0  0  0  0  0  0  0  0  0  0  0  0
   -1.4281   -1.2833    0.3056 C   0  0  0  0  0  0  0  0  0  0  0  0
   -0.5678   -0.0817    0.2705 C   0  0  0  0  0  0  0  0  0  0  0  0
   -1.0951    1.2847    0.0414 C   0  0  0  0  0  0  0  0  0  0  0  0
    1.6430    1.6479    0.0187 H   0  0  0  0  0  0  0  0  0  0  0  0
    1.8837    0.9113    1.6547 H   0  0  0  0  0  0  0  0  0  0  0  0
    2.8597    0.3763    0.2695 H   0  0  0  0  0  0  0  0  0  0  0  0
    1.1188   -1.2330    1.0276 H   0  0  0  0  0  0  0  0  0  0  0  0
   -1.3122   -0.6618   -1.8016 H   0  0  0  0  0  0  0  0  0  0  0  0
   -2.5021   -1.1114    0.3312 H   0  0  0  0  0  0  0  0  0  0  0  0
   -1.0858   -2.0805    1.0171 H   0  0  0  0  0  0  0  0  0  0  0  0
   -1.9853    1.5222    0.6922 H   0  0  0  0  0  0  0  0  0  0  0  0
   -1.4797    1.4351   -1.0079 H   0  0  0  0  0  0  0  0  0  0  0  0
   -0.3490    2.0503    0.2186 H   0  0  0  0  0  0  0  0  0  0  0  0
  1  2  1  0
  2  3  1  0
  3  4  2  0
  3  5  1  0
  5  6  1  0
  6  7  1  0
  7  8  1  0
  7  2  1  0
  7  5  1  0
  1  9  1  0
  1 10  1  0
  1 11  1  0
  2 12  1  0
  5 13  1  0
  6 14  1  0
  6 15  1  0
  8 16  1  0
  8 17  1  0
  8 18  1  0
M  END
