
     RDKit          3D

 19 20  0  0  0  0  0  0  0  0999 V2000
   -0.8333    2.0268   -0.6522 C   0  0  0  0  0  0  0  0  0  0  0  0
   -0.1208    1.0144    0.2392 C   0  0  0  0  0  0  0  0  0  0  0  0
   -0.7055   -0.2836    0.5510 C   0  0  0  0  0  0  0  0  0  0  0  0
   -0.4469   -0.8110    1.8156 O   0  0  0  0  0  0  0  0  0  0  0  0
   -1.2878   -1.2142   -0.4498 C   0  0  0  0  0  0  0  0  0  0  0  0
   -0.5046   -0.6641   -1.4704 O   0  0  0  0  0  0  0  0  0  0  0  0
    0.3479   -0.1919   -0.4756 C   0  0  0  0  0  0  0  0  0  0  0  0
    1.7074   -0.7628   -0.3091 C   0  0  0  0  0  0  0  0  0  0  0  0
    2.3322   -0.1067    0.7524 O   0  0  0  0  0  0  0  0  0  0  0  0
   -0.1228    2.4008   -1.4372 H   0  0  0  0  0  0  0  0  0  0  0  0
   -1.7204    1.5268   -1.1114 H   0  0  0  0  0  0  0  0  0  0  0  0
   -1.1234    2.8946   -0.0516 H   0  0  0  0  0  0  0  0  0  0  0  0
    0.5939    1.4636    0.9446 H   0  0  0  0  0  0  0  0  0  0  0  0
   -1.2315   -0.6794    2.3899 H   0  0  0  0  0  0  0  0  0  0  0  0
   -0.9362   -2.2750   -0.2941 H   0  0  0  0  0  0  0  0  0  0  0  0
   -2.3643   -1.2114   -0.6084 H   0  0  0  0  0  0  0  0  0  0  0  0
    2.2780   -0.5744   -1.2654 H   0  0  0  0  0  0  0  0  0  0  0  0
    1.7492   -1.8375   -0.1101 H   0  0  0  0  0  0  0  0  0  0  0  0
    2.3890   -0.7151    1.5425 H   0  0  0  0  0  0  0  0  0  0  0  0
  1  2  1  0
  2  3  1  0
  3  4  1  0
  3  5  1  0
  5  6  1  0
  6  7  1  0
  7  8  1  0
  8  9  1  0
  7  2  1  0
  7  3  1  0
  1 10  1  0
  1 11  1  0
  1 12  1  0
  2 13  1  0
  4 14  1  0
  5 15  1  0
  5 16  1  0
  8 17  1  0
  8 18  1  0
  9 19  1  0
M  END
