
     RDKit          3D

 23 23  0  0  0  0  0  0  0  0999 V2000
    2.5791    0.0565   -0.4504 C   0  0  0  0  0  0  0  0  0  0  0  0
    1.1792   -0.4988   -0.1818 C   0  0  0  0  0  0  0  0  0  0  0  0
    0.8574   -0.4635    1.2766 C   0  0  0  0  0  0  0  0  0  0  0  0
   -0.5086   -0.0081    1.6178 C   0  0  0  0  0  0  0  0  0  0  0  0
   -1.5178   -0.4823    0.8293 O   0  0  0  0  0  0  0  0  0  0  0  0
   -2.2319    0.5182    0.1618 C   0  0  0  0  0  0  0  0  0  0  0  0
   -1.9917    0.2924   -1.3234 C   0  0  0  0  0  0  0  0  0  0  0  0
   -0.8339   -0.4945   -1.5174 O   0  0  0  0  0  0  0  0  0  0  0  0
    0.2279    0.2787   -1.0400 C   0  0  0  0  0  0  0  0  0  0  0  0
    2.5815    0.7897   -1.2737 H   0  0  0  0  0  0  0  0  0  0  0  0
    2.9114    0.6214    0.4603 H   0  0  0  0  0  0  0  0  0  0  0  0
    3.3218   -0.7434   -0.5926 H   0  0  0  0  0  0  0  0  0  0  0  0
    1.2244   -1.5681   -0.5318 H   0  0  0  0  0  0  0  0  0  0  0  0
    1.1266   -1.4474    1.7637 H   0  0  0  0  0  0  0  0  0  0  0  0
    1.5834    0.2642    1.7487 H   0  0  0  0  0  0  0  0  0  0  0  0
   -0.5513    1.0960    1.6384 H   0  0  0  0  0  0  0  0  0  0  0  0
   -0.7273   -0.3457    2.6734 H   0  0  0  0  0  0  0  0  0  0  0  0
   -3.3285    0.4495    0.3549 H   0  0  0  0  0  0  0  0  0  0  0  0
   -1.9218    1.5381    0.4732 H   0  0  0  0  0  0  0  0  0  0  0  0
   -1.7766    1.2610   -1.8523 H   0  0  0  0  0  0  0  0  0  0  0  0
   -2.8524   -0.1906   -1.8039 H   0  0  0  0  0  0  0  0  0  0  0  0
   -0.1067    1.1589   -0.4641 H   0  0  0  0  0  0  0  0  0  0  0  0
    0.7559    0.6517   -1.9667 H   0  0  0  0  0  0  0  0  0  0  0  0
  1  2  1  0
  2  3  1  0
  3  4  1  0
  4  5  1  0
  5  6  1  0
  6  7  1  0
  7  8  1  0
  8  9  1  0
  9  2  1  0
  1 10  1  0
  1 11  1  0
  1 12  1  0
  2 13  1  0
  3 14  1  0
  3 15  1  0
  4 16  1  0
  4 17  1  0
  6 18  1  0
  6 19  1  0
  7 20  1  0
  7 21  1  0
  9 22  1  0
  9 23  1  0
M  END
