
     RDKit          3D

 19 20  0  0  0  0  0  0  0  0999 V2000
   -2.1703    0.1042    0.5120 C   0  0  0  0  0  0  0  0  0  0  0  0
   -0.9350   -0.4452   -0.1383 C   0  0  0  0  0  0  0  0  0  0  0  0
   -0.5519    0.1319   -1.4589 C   0  0  0  0  0  0  0  0  0  0  0  0
    0.8864    0.2012   -0.9552 C   0  0  0  0  0  0  0  0  0  0  0  0
    1.1117    1.1430    0.1621 C   0  0  0  0  0  0  0  0  0  0  0  0
    2.4143    1.2300    0.6249 O   0  0  0  0  0  0  0  0  0  0  0  0
    0.3708   -0.0952    0.4920 C   0  0  0  0  0  0  0  0  0  0  0  0
    1.0983   -1.1468    1.2423 C   0  0  0  0  0  0  0  0  0  0  0  0
    0.9482   -2.3029    0.9070 O   0  0  0  0  0  0  0  0  0  0  0  0
   -3.0393   -0.2333   -0.1082 H   0  0  0  0  0  0  0  0  0  0  0  0
   -2.1941    1.1824    0.6171 H   0  0  0  0  0  0  0  0  0  0  0  0
   -2.2904   -0.4261    1.4863 H   0  0  0  0  0  0  0  0  0  0  0  0
   -1.0320   -1.5677   -0.2027 H   0  0  0  0  0  0  0  0  0  0  0  0
   -0.7042   -0.5423   -2.3185 H   0  0  0  0  0  0  0  0  0  0  0  0
   -0.9336    1.1752   -1.6237 H   0  0  0  0  0  0  0  0  0  0  0  0
    1.6319   -0.4937   -1.3304 H   0  0  0  0  0  0  0  0  0  0  0  0
    0.5592    2.1099    0.0831 H   0  0  0  0  0  0  0  0  0  0  0  0
    3.0759    0.9113   -0.0615 H   0  0  0  0  0  0  0  0  0  0  0  0
    1.7539   -0.9360    2.0707 H   0  0  0  0  0  0  0  0  0  0  0  0
  1  2  1  0
  2  3  1  0
  3  4  1  0
  4  5  1  0
  5  6  1  0
  5  7  1  0
  7  8  1  0
  8  9  2  0
  7  2  1  0
  7  4  1  0
  1 10  1  0
  1 11  1  0
  1 12  1  0
  2 13  1  0
  3 14  1  0
  3 15  1  0
  4 16  1  0
  5 17  1  0
  6 18  1  0
  8 19  1  0
M  END
