
     RDKit          3D

 23 25  0  0  0  0  0  0  0  0999 V2000
    2.5076    1.1311    0.5676 C   0  0  0  0  0  0  0  0  0  0  0  0
    1.8653   -0.2511    0.4789 C   0  0  0  0  0  0  0  0  0  0  0  0
    1.6083   -0.7938   -0.9447 C   0  0  0  0  0  0  0  0  0  0  0  0
    0.5400   -0.3048   -0.1007 C   0  0  0  0  0  0  0  0  0  0  0  0
   -0.3143    0.8809   -0.3968 C   0  0  0  0  0  0  0  0  0  0  0  0
   -1.5132    0.0988    0.0660 C   0  0  0  0  0  0  0  0  0  0  0  0
   -2.6750   -0.0834   -0.8483 C   0  0  0  0  0  0  0  0  0  0  0  0
   -1.5320   -0.5191    1.4087 C   0  0  0  0  0  0  0  0  0  0  0  0
   -0.6091   -1.0716    0.3993 C   0  0  0  0  0  0  0  0  0  0  0  0
    2.4882    1.5656   -0.4425 H   0  0  0  0  0  0  0  0  0  0  0  0
    1.8488    1.7679    1.2015 H   0  0  0  0  0  0  0  0  0  0  0  0
    3.5325    1.0788    0.9972 H   0  0  0  0  0  0  0  0  0  0  0  0
    2.2734   -0.9773    1.1862 H   0  0  0  0  0  0  0  0  0  0  0  0
    1.7576   -1.8779   -1.0863 H   0  0  0  0  0  0  0  0  0  0  0  0
    1.9398   -0.1158   -1.7817 H   0  0  0  0  0  0  0  0  0  0  0  0
   -0.3468    1.0847   -1.4765 H   0  0  0  0  0  0  0  0  0  0  0  0
   -0.0705    1.7914    0.1583 H   0  0  0  0  0  0  0  0  0  0  0  0
   -3.5424    0.5030   -0.4405 H   0  0  0  0  0  0  0  0  0  0  0  0
   -2.4652    0.3747   -1.8416 H   0  0  0  0  0  0  0  0  0  0  0  0
   -2.9574   -1.1254   -1.0295 H   0  0  0  0  0  0  0  0  0  0  0  0
   -1.0839   -0.0149    2.2800 H   0  0  0  0  0  0  0  0  0  0  0  0
   -2.4514   -1.0818    1.6610 H   0  0  0  0  0  0  0  0  0  0  0  0
   -0.8004   -2.0599   -0.0156 H   0  0  0  0  0  0  0  0  0  0  0  0
  1  2  1  0
  2  3  1  0
  3  4  1  0
  4  5  1  0
  5  6  1  0
  6  7  1  0
  6  8  1  0
  8  9  1  0
  4  2  1  0
  9  6  1  0
  9  4  1  0
  1 10  1  0
  1 11  1  0
  1 12  1  0
  2 13  1  0
  3 14  1  0
  3 15  1  0
  5 16  1  0
  5 17  1  0
  7 18  1  0
  7 19  1  0
  7 20  1  0
  8 21  1  0
  8 22  1  0
  9 23  1  0
M  END
