
     RDKit          3D

 23 24  0  0  0  0  0  0  0  0999 V2000
   -1.4337   -1.0160    1.3205 C   0  0  0  0  0  0  0  0  0  0  0  0
   -0.2215   -0.8196    0.4756 C   0  0  0  0  0  0  0  0  0  0  0  0
   -0.3930   -0.8339   -1.0055 C   0  0  0  0  0  0  0  0  0  0  0  0
    0.8825   -0.0267   -1.0765 C   0  0  0  0  0  0  0  0  0  0  0  0
    2.1492   -0.7177   -0.8030 C   0  0  0  0  0  0  0  0  0  0  0  0
    0.1275    0.5724    0.0687 C   0  0  0  0  0  0  0  0  0  0  0  0
    0.4940    1.6313    0.8621 C   0  0  0  0  0  0  0  0  0  0  0  0
   -1.0446    0.5169   -0.8824 C   0  0  0  0  0  0  0  0  0  0  0  0
   -2.2915    0.5776   -0.3496 O   0  0  0  0  0  0  0  0  0  0  0  0
   -1.6983   -0.0533    1.8201 H   0  0  0  0  0  0  0  0  0  0  0  0
   -2.2972   -1.4662    0.7817 H   0  0  0  0  0  0  0  0  0  0  0  0
   -1.2471   -1.7225    2.1834 H   0  0  0  0  0  0  0  0  0  0  0  0
    0.6205   -1.4371    0.8722 H   0  0  0  0  0  0  0  0  0  0  0  0
   -0.6587   -1.5861   -1.6052 H   0  0  0  0  0  0  0  0  0  0  0  0
    0.8903    0.5665   -2.0136 H   0  0  0  0  0  0  0  0  0  0  0  0
    2.9596   -0.2508   -1.4287 H   0  0  0  0  0  0  0  0  0  0  0  0
    2.5203   -0.6497    0.2389 H   0  0  0  0  0  0  0  0  0  0  0  0
    2.1494   -1.7966   -1.1148 H   0  0  0  0  0  0  0  0  0  0  0  0
    0.1174    1.5551    1.9106 H   0  0  0  0  0  0  0  0  0  0  0  0
    1.5884    1.7737    0.9574 H   0  0  0  0  0  0  0  0  0  0  0  0
    0.1047    2.6151    0.4973 H   0  0  0  0  0  0  0  0  0  0  0  0
   -0.8711    1.1053   -1.8087 H   0  0  0  0  0  0  0  0  0  0  0  0
   -2.4472    1.4624    0.0995 H   0  0  0  0  0  0  0  0  0  0  0  0
  1  2  1  0
  2  3  1  0
  3  4  1  0
  4  5  1  0
  4  6  1  0
  6  7  1  0
  6  8  1  0
  8  9  1  0
  6  2  1  0
  8  3  1  0
  1 10  1  0
  1 11  1  0
  1 12  1  0
  2 13  1  0
  3 14  1  0
  4 15  1  0
  5 16  1  0
  5 17  1  0
  5 18  1  0
  7 19  1  0
  7 20  1  0
  7 21  1  0
  8 22  1  0
  9 23  1  0
M  END
