
     RDKit          3D

 20 21  0  0  0  0  0  0  0  0999 V2000
    1.9102   -0.9623    0.0494 C   0  0  0  0  0  0  0  0  0  0  0  0
    0.6664   -0.3771   -0.5501 C   0  0  0  0  0  0  0  0  0  0  0  0
    0.7209    1.1105   -0.7263 C   0  0  0  0  0  0  0  0  0  0  0  0
   -0.3603    1.6798    0.1434 C   0  0  0  0  0  0  0  0  0  0  0  0
   -1.2662    0.5792    0.5584 C   0  0  0  0  0  0  0  0  0  0  0  0
   -1.8430   -0.4052   -0.3608 C   0  0  0  0  0  0  0  0  0  0  0  0
   -0.5325   -0.6655    0.3185 C   0  0  0  0  0  0  0  0  0  0  0  0
   -0.4338   -1.5595    1.3614 O   0  0  0  0  0  0  0  0  0  0  0  0
    2.7379   -0.2275   -0.0108 H   0  0  0  0  0  0  0  0  0  0  0  0
    2.2313   -1.9010   -0.4646 H   0  0  0  0  0  0  0  0  0  0  0  0
    1.6827   -1.2632    1.1000 H   0  0  0  0  0  0  0  0  0  0  0  0
    0.5068   -0.8343   -1.5545 H   0  0  0  0  0  0  0  0  0  0  0  0
    0.5558    1.4392   -1.7774 H   0  0  0  0  0  0  0  0  0  0  0  0
    1.7361    1.4397   -0.3660 H   0  0  0  0  0  0  0  0  0  0  0  0
   -0.8659    2.5532   -0.3141 H   0  0  0  0  0  0  0  0  0  0  0  0
    0.1246    2.0851    1.0786 H   0  0  0  0  0  0  0  0  0  0  0  0
   -1.7925    0.7640    1.5318 H   0  0  0  0  0  0  0  0  0  0  0  0
   -2.6853   -1.0100    0.0304 H   0  0  0  0  0  0  0  0  0  0  0  0
   -1.8890   -0.2712   -1.4576 H   0  0  0  0  0  0  0  0  0  0  0  0
   -1.2042   -2.1739    1.4100 H   0  0  0  0  0  0  0  0  0  0  0  0
  1  2  1  0
  2  3  1  0
  3  4  1  0
  4  5  1  0
  5  6  1  0
  6  7  1  0
  7  8  1  0
  7  2  1  0
  7  5  1  0
  1  9  1  0
  1 10  1  0
  1 11  1  0
  2 12  1  0
  3 13  1  0
  3 14  1  0
  4 15  1  0
  4 16  1  0
  5 17  1  0
  6 18  1  0
  6 19  1  0
  8 20  1  0
M  END
