
     RDKit          3D

 19 21  0  0  0  0  0  0  0  0999 V2000
   -1.7172    1.3824    0.4600 C   0  0  0  0  0  0  0  0  0  0  0  0
   -0.8509    0.1619    0.5390 C   0  0  0  0  0  0  0  0  0  0  0  0
   -1.1785   -0.8402   -0.5813 C   0  0  0  0  0  0  0  0  0  0  0  0
   -1.0374   -2.1753   -0.4320 O   0  0  0  0  0  0  0  0  0  0  0  0
    0.2041   -1.5080   -0.7457 C   0  0  0  0  0  0  0  0  0  0  0  0
    1.0241   -0.9638    0.3389 C   0  0  0  0  0  0  0  0  0  0  0  0
    1.8289    0.1807    0.5010 C   0  0  0  0  0  0  0  0  0  0  0  0
    2.9199    0.3084   -0.3930 O   0  0  0  0  0  0  0  0  0  0  0  0
    0.5304    0.5246    0.1141 C   0  0  0  0  0  0  0  0  0  0  0  0
   -1.2360    2.1995   -0.1525 H   0  0  0  0  0  0  0  0  0  0  0  0
   -1.7733    1.8027    1.5050 H   0  0  0  0  0  0  0  0  0  0  0  0
   -2.7070    1.2222    0.0419 H   0  0  0  0  0  0  0  0  0  0  0  0
   -0.8930   -0.3501    1.5183 H   0  0  0  0  0  0  0  0  0  0  0  0
   -1.6734   -0.4545   -1.4799 H   0  0  0  0  0  0  0  0  0  0  0  0
    0.5513   -1.6149   -1.7876 H   0  0  0  0  0  0  0  0  0  0  0  0
    0.7141   -1.4284    1.3288 H   0  0  0  0  0  0  0  0  0  0  0  0
    2.1816    0.5057    1.5205 H   0  0  0  0  0  0  0  0  0  0  0  0
    2.6477    0.1993   -1.3208 H   0  0  0  0  0  0  0  0  0  0  0  0
    0.4645    0.8476   -0.9747 H   0  0  0  0  0  0  0  0  0  0  0  0
  1  2  1  0
  2  3  1  0
  3  4  1  0
  4  5  1  0
  5  6  1  0
  6  7  1  0
  7  8  1  0
  7  9  1  0
  9  2  1  0
  5  3  1  0
  9  6  1  0
  1 10  1  0
  1 11  1  0
  1 12  1  0
  2 13  1  0
  3 14  1  0
  5 15  1  0
  6 16  1  0
  7 17  1  0
  8 18  1  0
  9 19  1  0
M  END
