
     RDKit          3D

 23 25  0  0  0  0  0  0  0  0999 V2000
    2.1282   -0.5669   -0.4595 C   0  0  0  0  0  0  0  0  0  0  0  0
    1.1940   -0.2185    0.6188 C   0  0  0  0  0  0  0  0  0  0  0  0
    0.5944    1.1393    0.5688 C   0  0  0  0  0  0  0  0  0  0  0  0
    0.3207    2.0939   -0.4139 C   0  0  0  0  0  0  0  0  0  0  0  0
   -0.1368    0.8153   -0.8006 C   0  0  0  0  0  0  0  0  0  0  0  0
   -1.0136   -0.1990   -0.2115 C   0  0  0  0  0  0  0  0  0  0  0  0
   -2.3305    0.1246    0.4192 C   0  0  0  0  0  0  0  0  0  0  0  0
   -0.6982   -1.7061   -0.4299 C   0  0  0  0  0  0  0  0  0  0  0  0
   -0.0594   -1.0630    0.6896 C   0  0  0  0  0  0  0  0  0  0  0  0
    2.5395    0.3713   -0.9348 H   0  0  0  0  0  0  0  0  0  0  0  0
    3.0532   -1.0736   -0.0498 H   0  0  0  0  0  0  0  0  0  0  0  0
    1.7530   -1.2530   -1.2376 H   0  0  0  0  0  0  0  0  0  0  0  0
    1.7055   -0.3352    1.5985 H   0  0  0  0  0  0  0  0  0  0  0  0
   -0.1002    1.2070    1.4698 H   0  0  0  0  0  0  0  0  0  0  0  0
   -0.4670    2.8856   -0.2600 H   0  0  0  0  0  0  0  0  0  0  0  0
    1.1879    2.5863   -0.9349 H   0  0  0  0  0  0  0  0  0  0  0  0
    0.5277    0.3394   -1.5917 H   0  0  0  0  0  0  0  0  0  0  0  0
   -2.5672   -0.7119    1.1402 H   0  0  0  0  0  0  0  0  0  0  0  0
   -2.2958    1.0488    1.0182 H   0  0  0  0  0  0  0  0  0  0  0  0
   -3.1772    0.1124   -0.3061 H   0  0  0  0  0  0  0  0  0  0  0  0
   -1.5448   -2.3596   -0.2408 H   0  0  0  0  0  0  0  0  0  0  0  0
   -0.1568   -1.9486   -1.3683 H   0  0  0  0  0  0  0  0  0  0  0  0
   -0.4566   -1.2884    1.7164 H   0  0  0  0  0  0  0  0  0  0  0  0
  1  2  1  0
  2  3  1  0
  3  4  1  0
  4  5  1  0
  5  6  1  0
  6  7  1  0
  6  8  1  0
  8  9  1  0
  9  2  1  0
  5  3  1  0
  9  6  1  0
  1 10  1  0
  1 11  1  0
  1 12  1  0
  2 13  1  0
  3 14  1  0
  4 15  1  0
  4 16  1  0
  5 17  1  0
  7 18  1  0
  7 19  1  0
  7 20  1  0
  8 21  1  0
  8 22  1  0
  9 23  1  0
M  END
