
     RDKit          3D

 23 23  0  0  0  0  0  0  0  0999 V2000
   -1.4796    1.4792    0.8859 C   0  0  0  0  0  0  0  0  0  0  0  0
   -1.1635    0.6440   -0.3277 C   0  0  0  0  0  0  0  0  0  0  0  0
   -2.1409   -0.4895   -0.5045 C   0  0  0  0  0  0  0  0  0  0  0  0
   -1.3493   -1.6877   -0.0448 C   0  0  0  0  0  0  0  0  0  0  0  0
    0.0939   -1.2717   -0.0978 C   0  0  0  0  0  0  0  0  0  0  0  0
    0.1890    0.0326   -0.2560 C   0  0  0  0  0  0  0  0  0  0  0  0
    1.4438    0.8102   -0.3525 C   0  0  0  0  0  0  0  0  0  0  0  0
    2.6718   -0.0395   -0.2517 C   0  0  0  0  0  0  0  0  0  0  0  0
    2.7629   -0.7362    0.9388 O   0  0  0  0  0  0  0  0  0  0  0  0
   -0.9512    2.4567    0.8052 H   0  0  0  0  0  0  0  0  0  0  0  0
   -2.5720    1.7327    0.8146 H   0  0  0  0  0  0  0  0  0  0  0  0
   -1.2339    0.9838    1.8363 H   0  0  0  0  0  0  0  0  0  0  0  0
   -1.2569    1.3150   -1.2163 H   0  0  0  0  0  0  0  0  0  0  0  0
   -3.0409   -0.3948    0.1239 H   0  0  0  0  0  0  0  0  0  0  0  0
   -2.4808   -0.5905   -1.5553 H   0  0  0  0  0  0  0  0  0  0  0  0
   -1.5705   -2.5192   -0.7152 H   0  0  0  0  0  0  0  0  0  0  0  0
   -1.5850   -1.9739    0.9931 H   0  0  0  0  0  0  0  0  0  0  0  0
    0.8841   -2.0148   -0.0092 H   0  0  0  0  0  0  0  0  0  0  0  0
    1.4811    1.3259   -1.3416 H   0  0  0  0  0  0  0  0  0  0  0  0
    1.4107    1.6129    0.4057 H   0  0  0  0  0  0  0  0  0  0  0  0
    2.6873   -0.7295   -1.1225 H   0  0  0  0  0  0  0  0  0  0  0  0
    3.5508    0.6287   -0.3742 H   0  0  0  0  0  0  0  0  0  0  0  0
    3.6492   -0.5743    1.3660 H   0  0  0  0  0  0  0  0  0  0  0  0
  1  2  1  0
  2  3  1  0
  3  4  1  0
  4  5  1  0
  5  6  2  0
  6  7  1  0
  7  8  1  0
  8  9  1  0
  6  2  1  0
  1 10  1  0
  1 11  1  0
  1 12  1  0
  2 13  1  0
  3 14  1  0
  3 15  1  0
  4 16  1  0
  4 17  1  0
  5 18  1  0
  7 19  1  0
  7 20  1  0
  8 21  1  0
  8 22  1  0
  9 23  1  0
M  END
