
     RDKit          3D

 19 20  0  0  0  0  0  0  0  0999 V2000
   -2.2797   -0.4401    0.8813 C   0  0  0  0  0  0  0  0  0  0  0  0
   -1.4009   -0.2439   -0.3535 C   0  0  0  0  0  0  0  0  0  0  0  0
   -0.4174    0.7592   -0.3248 C   0  0  0  0  0  0  0  0  0  0  0  0
    0.5526    1.2620   -1.2758 C   0  0  0  0  0  0  0  0  0  0  0  0
    1.8135    0.9387   -0.9656 C   0  0  0  0  0  0  0  0  0  0  0  0
    2.0041    0.1384    0.2695 C   0  0  0  0  0  0  0  0  0  0  0  0
    3.0565    0.3200    0.9356 O   0  0  0  0  0  0  0  0  0  0  0  0
    0.9565   -0.8659    0.7078 C   0  0  0  0  0  0  0  0  0  0  0  0
   -0.0970   -0.7819   -0.3182 C   0  0  0  0  0  0  0  0  0  0  0  0
   -2.2240    0.5120    1.4886 H   0  0  0  0  0  0  0  0  0  0  0  0
   -1.8231   -1.2225    1.5335 H   0  0  0  0  0  0  0  0  0  0  0  0
   -3.3306   -0.5981    0.6622 H   0  0  0  0  0  0  0  0  0  0  0  0
   -2.0129   -0.3727   -1.2833 H   0  0  0  0  0  0  0  0  0  0  0  0
   -0.2841    1.2963    0.6648 H   0  0  0  0  0  0  0  0  0  0  0  0
    0.3769    1.8424   -2.1665 H   0  0  0  0  0  0  0  0  0  0  0  0
    2.6733    1.2265   -1.5547 H   0  0  0  0  0  0  0  0  0  0  0  0
    1.4881   -1.8529    0.6558 H   0  0  0  0  0  0  0  0  0  0  0  0
    0.6527   -0.7135    1.7384 H   0  0  0  0  0  0  0  0  0  0  0  0
    0.2953   -1.2039   -1.2952 H   0  0  0  0  0  0  0  0  0  0  0  0
  1  2  1  0
  2  3  1  0
  3  4  1  0
  4  5  2  0
  5  6  1  0
  6  7  2  0
  6  8  1  0
  8  9  1  0
  9  2  1  0
  9  3  1  0
  1 10  1  0
  1 11  1  0
  1 12  1  0
  2 13  1  0
  3 14  1  0
  4 15  1  0
  5 16  1  0
  8 17  1  0
  8 18  1  0
  9 19  1  0
M  END
