
     RDKit          3D

 17 18  0  0  0  0  0  0  0  0999 V2000
   -2.2824   -0.2677   -0.1093 C   0  0  0  0  0  0  0  0  0  0  0  0
   -1.0466    0.4859   -0.5036 C   0  0  0  0  0  0  0  0  0  0  0  0
   -0.2386    1.2297    0.4755 C   0  0  0  0  0  0  0  0  0  0  0  0
    0.2849    0.7109    1.6286 O   0  0  0  0  0  0  0  0  0  0  0  0
    0.4480   -0.5913    1.1638 C   0  0  0  0  0  0  0  0  0  0  0  0
    0.3164   -0.0616   -0.2182 C   0  0  0  0  0  0  0  0  0  0  0  0
    1.3551    0.1608   -1.1017 O   0  0  0  0  0  0  0  0  0  0  0  0
    2.6247   -0.2572   -1.0059 C   0  0  0  0  0  0  0  0  0  0  0  0
    3.0359   -0.9324   -0.0571 O   0  0  0  0  0  0  0  0  0  0  0  0
   -2.0744   -1.2842    0.2941 H   0  0  0  0  0  0  0  0  0  0  0  0
   -2.8495    0.3348    0.6447 H   0  0  0  0  0  0  0  0  0  0  0  0
   -2.9467   -0.4158   -0.9754 H   0  0  0  0  0  0  0  0  0  0  0  0
   -1.1212    0.9661   -1.5128 H   0  0  0  0  0  0  0  0  0  0  0  0
    0.2541    2.1925    0.1476 H   0  0  0  0  0  0  0  0  0  0  0  0
   -0.4568   -1.1709    1.5264 H   0  0  0  0  0  0  0  0  0  0  0  0
    1.3625   -1.1060    1.4009 H   0  0  0  0  0  0  0  0  0  0  0  0
    3.3347    0.0065   -1.7978 H   0  0  0  0  0  0  0  0  0  0  0  0
  1  2  1  0
  2  3  1  0
  3  4  1  0
  4  5  1  0
  5  6  1  0
  6  7  1  0
  7  8  1  0
  8  9  2  0
  6  2  1  0
  6  3  1  0
  1 10  1  0
  1 11  1  0
  1 12  1  0
  2 13  1  0
  3 14  1  0
  5 15  1  0
  5 16  1  0
  8 17  1  0
M  END
