
     RDKit          3D

 19 20  0  0  0  0  0  0  0  0999 V2000
    2.0864   -0.7724    0.0403 C   0  0  0  0  0  0  0  0  0  0  0  0
    1.1768    0.1503   -0.7610 C   0  0  0  0  0  0  0  0  0  0  0  0
    0.8096    1.4550   -0.0040 C   0  0  0  0  0  0  0  0  0  0  0  0
   -0.1536    0.4122   -0.2414 C   0  0  0  0  0  0  0  0  0  0  0  0
   -1.3778    0.5054   -1.0061 C   0  0  0  0  0  0  0  0  0  0  0  0
   -1.8113    1.2525   -1.8509 O   0  0  0  0  0  0  0  0  0  0  0  0
   -1.8736   -0.7053   -0.3122 C   0  0  0  0  0  0  0  0  0  0  0  0
   -0.8456   -0.4062    0.7895 C   0  0  0  0  0  0  0  0  0  0  0  0
   -1.3698    0.3373    1.8362 O   0  0  0  0  0  0  0  0  0  0  0  0
    3.0083   -0.1821    0.3127 H   0  0  0  0  0  0  0  0  0  0  0  0
    2.3244   -1.6586   -0.5430 H   0  0  0  0  0  0  0  0  0  0  0  0
    1.6303   -1.0344    1.0299 H   0  0  0  0  0  0  0  0  0  0  0  0
    1.4636    0.2515   -1.8178 H   0  0  0  0  0  0  0  0  0  0  0  0
    0.7579    2.3631   -0.6735 H   0  0  0  0  0  0  0  0  0  0  0  0
    1.3173    1.6396    0.9496 H   0  0  0  0  0  0  0  0  0  0  0  0
   -2.9123   -0.6946    0.0160 H   0  0  0  0  0  0  0  0  0  0  0  0
   -1.5613   -1.6104   -0.9067 H   0  0  0  0  0  0  0  0  0  0  0  0
   -0.3847   -1.3452    1.1044 H   0  0  0  0  0  0  0  0  0  0  0  0
   -2.2848    0.0421    2.0381 H   0  0  0  0  0  0  0  0  0  0  0  0
  1  2  1  0
  2  3  1  0
  3  4  1  0
  4  5  1  0
  5  6  2  0
  5  7  1  0
  7  8  1  0
  8  9  1  0
  4  2  1  0
  8  4  1  0
  1 10  1  0
  1 11  1  0
  1 12  1  0
  2 13  1  0
  3 14  1  0
  3 15  1  0
  7 16  1  0
  7 17  1  0
  8 18  1  0
  9 19  1  0
M  END
