
     RDKit          3D

 21 21  0  0  0  0  0  0  0  0999 V2000
    1.9763   -0.1615    0.4089 C   0  0  0  0  0  0  0  0  0  0  0  0
    1.0301   -0.0895   -0.7516 C   0  0  0  0  0  0  0  0  0  0  0  0
    0.3563    1.2557   -0.8060 C   0  0  0  0  0  0  0  0  0  0  0  0
   -0.5220    1.5262    0.3437 C   0  0  0  0  0  0  0  0  0  0  0  0
   -1.4880    0.8417    0.9311 C   0  0  0  0  0  0  0  0  0  0  0  0
   -2.0115   -0.4979    0.5817 C   0  0  0  0  0  0  0  0  0  0  0  0
   -0.8270   -1.3625    0.3136 C   0  0  0  0  0  0  0  0  0  0  0  0
   -0.6458   -2.2277    1.1545 O   0  0  0  0  0  0  0  0  0  0  0  0
    0.0820   -1.2441   -0.8331 C   0  0  0  0  0  0  0  0  0  0  0  0
    1.5182   -0.4094    1.3637 H   0  0  0  0  0  0  0  0  0  0  0  0
    2.4620    0.8455    0.5059 H   0  0  0  0  0  0  0  0  0  0  0  0
    2.8175   -0.8585    0.1359 H   0  0  0  0  0  0  0  0  0  0  0  0
    1.6636   -0.1342   -1.6793 H   0  0  0  0  0  0  0  0  0  0  0  0
   -0.1657    1.3416   -1.7908 H   0  0  0  0  0  0  0  0  0  0  0  0
    1.1686    2.0103   -0.8315 H   0  0  0  0  0  0  0  0  0  0  0  0
   -0.3546    2.4863    0.8207 H   0  0  0  0  0  0  0  0  0  0  0  0
   -1.9478    1.3269    1.7700 H   0  0  0  0  0  0  0  0  0  0  0  0
   -2.6406   -0.9058    1.4158 H   0  0  0  0  0  0  0  0  0  0  0  0
   -2.6434   -0.4546   -0.3514 H   0  0  0  0  0  0  0  0  0  0  0  0
    0.6921   -2.1626   -0.9498 H   0  0  0  0  0  0  0  0  0  0  0  0
   -0.5200   -1.1258   -1.7519 H   0  0  0  0  0  0  0  0  0  0  0  0
  1  2  1  0
  2  3  1  0
  3  4  1  0
  4  5  2  0
  5  6  1  0
  6  7  1  0
  7  8  2  0
  7  9  1  0
  9  2  1  0
  1 10  1  0
  1 11  1  0
  1 12  1  0
  2 13  1  0
  3 14  1  0
  3 15  1  0
  4 16  1  0
  5 17  1  0
  6 18  1  0
  6 19  1  0
  9 20  1  0
  9 21  1  0
M  END
