
     RDKit          3D

 25 26  0  0  0  0  0  0  0  0999 V2000
   -2.4406    0.7267    0.6773 C   0  0  0  0  0  0  0  0  0  0  0  0
   -1.7295   -0.0422   -0.3498 C   0  0  0  0  0  0  0  0  0  0  0  0
   -1.0137   -1.2700    0.2345 C   0  0  0  0  0  0  0  0  0  0  0  0
    0.0445   -1.0072   -0.7929 C   0  0  0  0  0  0  0  0  0  0  0  0
    1.4426   -1.2745   -0.4368 C   0  0  0  0  0  0  0  0  0  0  0  0
    2.0529   -0.3584    0.5697 C   0  0  0  0  0  0  0  0  0  0  0  0
    1.8931    1.0632    0.0283 C   0  0  0  0  0  0  0  0  0  0  0  0
    0.3810    1.3220    0.0888 C   0  0  0  0  0  0  0  0  0  0  0  0
   -0.3775    0.4224   -0.8056 C   0  0  0  0  0  0  0  0  0  0  0  0
   -2.8143    0.0032    1.4608 H   0  0  0  0  0  0  0  0  0  0  0  0
   -1.9016    1.5112    1.1924 H   0  0  0  0  0  0  0  0  0  0  0  0
   -3.3767    1.1746    0.2562 H   0  0  0  0  0  0  0  0  0  0  0  0
   -2.3445   -0.3385   -1.2317 H   0  0  0  0  0  0  0  0  0  0  0  0
   -0.7090   -1.1116    1.2894 H   0  0  0  0  0  0  0  0  0  0  0  0
   -1.6469   -2.1608    0.0774 H   0  0  0  0  0  0  0  0  0  0  0  0
   -0.2360   -1.5180   -1.7499 H   0  0  0  0  0  0  0  0  0  0  0  0
    2.0668   -1.2200   -1.3615 H   0  0  0  0  0  0  0  0  0  0  0  0
    1.5339   -2.3331   -0.0913 H   0  0  0  0  0  0  0  0  0  0  0  0
    1.4595   -0.3915    1.5086 H   0  0  0  0  0  0  0  0  0  0  0  0
    3.1104   -0.5548    0.7040 H   0  0  0  0  0  0  0  0  0  0  0  0
    2.2055    1.1523   -1.0094 H   0  0  0  0  0  0  0  0  0  0  0  0
    2.4036    1.7722    0.6877 H   0  0  0  0  0  0  0  0  0  0  0  0
    0.1198    1.2421    1.1624 H   0  0  0  0  0  0  0  0  0  0  0  0
    0.2484    2.3707   -0.2511 H   0  0  0  0  0  0  0  0  0  0  0  0
   -0.3717    0.8200   -1.8574 H   0  0  0  0  0  0  0  0  0  0  0  0
  1  2  1  0
  2  3  1  0
  3  4  1  0
  4  5  1  0
  5  6  1  0
  6  7  1  0
  7  8  1  0
  8  9  1  0
  9  2  1  0
  9  4  1  0
  1 10  1  0
  1 11  1  0
  1 12  1  0
  2 13  1  0
  3 14  1  0
  3 15  1  0
  4 16  1  0
  5 17  1  0
  5 18  1  0
  6 19  1  0
  6 20  1  0
  7 21  1  0
  7 22  1  0
  8 23  1  0
  8 24  1  0
  9 25  1  0
M  END
