
     RDKit          3D

 19 20  0  0  0  0  0  0  0  0999 V2000
    1.4226    0.6936    0.8865 C   0  0  0  0  0  0  0  0  0  0  0  0
    0.8337    0.1018   -0.3428 C   0  0  0  0  0  0  0  0  0  0  0  0
    0.8657   -1.4419   -0.3152 C   0  0  0  0  0  0  0  0  0  0  0  0
   -0.6250   -1.6538   -0.4703 C   0  0  0  0  0  0  0  0  0  0  0  0
   -1.0319   -0.6499   -1.3873 O   0  0  0  0  0  0  0  0  0  0  0  0
   -0.6847    0.2466   -0.3650 C   0  0  0  0  0  0  0  0  0  0  0  0
   -1.2524    1.5826   -0.3828 C   0  0  0  0  0  0  0  0  0  0  0  0
   -1.2020   -0.7760    0.5504 C   0  0  0  0  0  0  0  0  0  0  0  0
   -1.7776   -0.8362    1.5688 O   0  0  0  0  0  0  0  0  0  0  0  0
    1.9994    1.6098    0.5766 H   0  0  0  0  0  0  0  0  0  0  0  0
    2.1215    0.0572    1.4342 H   0  0  0  0  0  0  0  0  0  0  0  0
    0.6272    1.0342    1.5972 H   0  0  0  0  0  0  0  0  0  0  0  0
    1.2729    0.4266   -1.2873 H   0  0  0  0  0  0  0  0  0  0  0  0
    1.4571   -1.8474   -1.1367 H   0  0  0  0  0  0  0  0  0  0  0  0
    1.1941   -1.7623    0.6942 H   0  0  0  0  0  0  0  0  0  0  0  0
   -0.9962   -2.6352   -0.6267 H   0  0  0  0  0  0  0  0  0  0  0  0
   -0.5181    2.3457   -0.7298 H   0  0  0  0  0  0  0  0  0  0  0  0
   -1.5030    1.8976    0.6735 H   0  0  0  0  0  0  0  0  0  0  0  0
   -2.2034    1.6070   -0.9377 H   0  0  0  0  0  0  0  0  0  0  0  0
  1  2  1  0
  2  3  1  0
  3  4  1  0
  4  5  1  0
  5  6  1  0
  6  7  1  0
  6  8  1  0
  8  9  2  0
  6  2  1  0
  8  4  1  0
  1 10  1  0
  1 11  1  0
  1 12  1  0
  2 13  1  0
  3 14  1  0
  3 15  1  0
  4 16  1  0
  7 17  1  0
  7 18  1  0
  7 19  1  0
M  END
