
     RDKit          3D

 21 22  0  0  0  0  0  0  0  0999 V2000
    2.4125    0.4052    0.3158 C   0  0  0  0  0  0  0  0  0  0  0  0
    1.1955    0.0021   -0.4277 C   0  0  0  0  0  0  0  0  0  0  0  0
    0.5996   -1.3054    0.0142 C   0  0  0  0  0  0  0  0  0  0  0  0
   -0.7353   -1.3128   -0.7015 C   0  0  0  0  0  0  0  0  0  0  0  0
   -0.9580   -0.2296    0.2995 C   0  0  0  0  0  0  0  0  0  0  0  0
   -2.2955    0.1033    0.7478 C   0  0  0  0  0  0  0  0  0  0  0  0
   -0.1241   -0.9688    1.1689 O   0  0  0  0  0  0  0  0  0  0  0  0
   -0.0155    0.8969   -0.1003 C   0  0  0  0  0  0  0  0  0  0  0  0
   -0.4220    1.5630   -1.2286 O   0  0  0  0  0  0  0  0  0  0  0  0
    2.3001    1.4073    0.8254 H   0  0  0  0  0  0  0  0  0  0  0  0
    2.8107   -0.3565    1.0135 H   0  0  0  0  0  0  0  0  0  0  0  0
    3.2470    0.5814   -0.4255 H   0  0  0  0  0  0  0  0  0  0  0  0
    1.3403   -0.0057   -1.5194 H   0  0  0  0  0  0  0  0  0  0  0  0
    1.1889   -2.1884    0.0198 H   0  0  0  0  0  0  0  0  0  0  0  0
   -0.6583   -1.0190   -1.7608 H   0  0  0  0  0  0  0  0  0  0  0  0
   -1.3714   -2.1891   -0.4835 H   0  0  0  0  0  0  0  0  0  0  0  0
   -2.3106    1.1103    1.2133 H   0  0  0  0  0  0  0  0  0  0  0  0
   -2.6688   -0.6629    1.4787 H   0  0  0  0  0  0  0  0  0  0  0  0
   -2.9939    0.1565   -0.1236 H   0  0  0  0  0  0  0  0  0  0  0  0
    0.1764    1.5307    0.7652 H   0  0  0  0  0  0  0  0  0  0  0  0
   -0.7178    2.4815   -0.9322 H   0  0  0  0  0  0  0  0  0  0  0  0
  1  2  1  0
  2  3  1  0
  3  4  1  0
  4  5  1  0
  5  6  1  0
  5  7  1  0
  5  8  1  0
  8  9  1  0
  8  2  1  0
  7  3  1  0
  1 10  1  0
  1 11  1  0
  1 12  1  0
  2 13  1  0
  3 14  1  0
  4 15  1  0
  4 16  1  0
  6 17  1  0
  6 18  1  0
  6 19  1  0
  8 20  1  0
  9 21  1  0
M  END
