
     RDKit          3D

 16 16  0  0  0  0  0  0  0  0999 V2000
    1.8450   -0.1231   -0.0699 C   0  0  0  0  0  0  0  0  0  0  0  0
    0.4165   -0.4141   -0.3327 C   0  0  0  0  0  0  0  0  0  0  0  0
   -0.3602   -0.8988    0.8944 C   0  0  0  0  0  0  0  0  0  0  0  0
   -1.5670   -0.2478    0.2059 C   0  0  0  0  0  0  0  0  0  0  0  0
   -0.5300    0.7769   -0.2894 C   0  0  0  0  0  0  0  0  0  0  0  0
   -0.8199    1.3532   -1.4942 O   0  0  0  0  0  0  0  0  0  0  0  0
    2.3513   -1.0766    0.2335 H   0  0  0  0  0  0  0  0  0  0  0  0
    2.2991    0.3049   -0.9742 H   0  0  0  0  0  0  0  0  0  0  0  0
    1.9736    0.5705    0.7685 H   0  0  0  0  0  0  0  0  0  0  0  0
    0.2133   -1.0678   -1.1810 H   0  0  0  0  0  0  0  0  0  0  0  0
   -0.1445   -0.2834    1.8089 H   0  0  0  0  0  0  0  0  0  0  0  0
   -0.4171   -1.9696    1.0249 H   0  0  0  0  0  0  0  0  0  0  0  0
   -2.3237    0.1505    0.8719 H   0  0  0  0  0  0  0  0  0  0  0  0
   -1.9160   -0.8721   -0.6494 H   0  0  0  0  0  0  0  0  0  0  0  0
   -0.2278    1.4457    0.5398 H   0  0  0  0  0  0  0  0  0  0  0  0
   -0.7928    2.3517   -1.3570 H   0  0  0  0  0  0  0  0  0  0  0  0
  1  2  1  0
  2  3  1  0
  3  4  1  0
  4  5  1  0
  5  6  1  0
  5  2  1  0
  1  7  1  0
  1  8  1  0
  1  9  1  0
  2 10  1  0
  3 11  1  0
  3 12  1  0
  4 13  1  0
  4 14  1  0
  5 15  1  0
  6 16  1  0
M  END
