
     RDKit          3D

 23 24  0  0  0  0  0  0  0  0999 V2000
    2.0524   -1.3548    0.0341 C   0  0  0  0  0  0  0  0  0  0  0  0
    1.5403   -0.3101   -0.9355 C   0  0  0  0  0  0  0  0  0  0  0  0
    1.4613    1.0384   -0.2096 C   0  0  0  0  0  0  0  0  0  0  0  0
   -0.0030    0.8395   -0.0315 C   0  0  0  0  0  0  0  0  0  0  0  0
   -0.9618    1.9781   -0.1672 C   0  0  0  0  0  0  0  0  0  0  0  0
   -0.5718   -0.4464    0.4320 C   0  0  0  0  0  0  0  0  0  0  0  0
   -2.0658   -0.5653    0.4752 C   0  0  0  0  0  0  0  0  0  0  0  0
   -2.3586   -1.8623    0.9426 O   0  0  0  0  0  0  0  0  0  0  0  0
    0.0254   -0.3149   -0.9225 C   0  0  0  0  0  0  0  0  0  0  0  0
    2.9232   -1.9178   -0.3727 H   0  0  0  0  0  0  0  0  0  0  0  0
    1.2723   -2.1187    0.2546 H   0  0  0  0  0  0  0  0  0  0  0  0
    2.4016   -0.9140    0.9913 H   0  0  0  0  0  0  0  0  0  0  0  0
    2.0182   -0.2823   -1.9137 H   0  0  0  0  0  0  0  0  0  0  0  0
    1.7517    1.8300   -0.9300 H   0  0  0  0  0  0  0  0  0  0  0  0
    1.9996    1.0670    0.7489 H   0  0  0  0  0  0  0  0  0  0  0  0
   -1.1497    2.3668    0.8773 H   0  0  0  0  0  0  0  0  0  0  0  0
   -0.5766    2.8298   -0.7453 H   0  0  0  0  0  0  0  0  0  0  0  0
   -1.9770    1.6414   -0.5117 H   0  0  0  0  0  0  0  0  0  0  0  0
   -0.0492   -0.9339    1.2608 H   0  0  0  0  0  0  0  0  0  0  0  0
   -2.4749    0.1893    1.1727 H   0  0  0  0  0  0  0  0  0  0  0  0
   -2.5248   -0.4896   -0.5466 H   0  0  0  0  0  0  0  0  0  0  0  0
   -2.1907   -1.8444    1.9390 H   0  0  0  0  0  0  0  0  0  0  0  0
   -0.5421   -0.4256   -1.8420 H   0  0  0  0  0  0  0  0  0  0  0  0
  1  2  1  0
  2  3  1  0
  3  4  1  0
  4  5  1  0
  4  6  1  0
  6  7  1  0
  7  8  1  0
  6  9  1  0
  9  2  1  0
  9  4  1  0
  1 10  1  0
  1 11  1  0
  1 12  1  0
  2 13  1  0
  3 14  1  0
  3 15  1  0
  5 16  1  0
  5 17  1  0
  5 18  1  0
  6 19  1  0
  7 20  1  0
  7 21  1  0
  8 22  1  0
  9 23  1  0
M  END
