
     RDKit          3D

 21 23  0  0  0  0  0  0  0  0999 V2000
    2.3036    0.9051   -0.1678 C   0  0  0  0  0  0  0  0  0  0  0  0
    1.6311   -0.2684    0.4225 C   0  0  0  0  0  0  0  0  0  0  0  0
    1.1765   -1.3558   -0.5744 C   0  0  0  0  0  0  0  0  0  0  0  0
    0.1666   -0.2885   -0.9105 C   0  0  0  0  0  0  0  0  0  0  0  0
    0.1506   -0.2100    0.6765 C   0  0  0  0  0  0  0  0  0  0  0  0
   -0.9201    0.2075   -0.1449 C   0  0  0  0  0  0  0  0  0  0  0  0
   -2.2642   -0.4206   -0.2622 C   0  0  0  0  0  0  0  0  0  0  0  0
   -2.6334    0.9198    0.3528 C   0  0  0  0  0  0  0  0  0  0  0  0
   -1.4311    1.4682   -0.1533 O   0  0  0  0  0  0  0  0  0  0  0  0
    1.6914    1.8528   -0.1612 H   0  0  0  0  0  0  0  0  0  0  0  0
    2.7437    0.7118   -1.1847 H   0  0  0  0  0  0  0  0  0  0  0  0
    3.2107    1.1974    0.4445 H   0  0  0  0  0  0  0  0  0  0  0  0
    2.2136   -0.7100    1.2361 H   0  0  0  0  0  0  0  0  0  0  0  0
    1.8936   -1.5458   -1.3698 H   0  0  0  0  0  0  0  0  0  0  0  0
    0.7687   -2.2210   -0.0437 H   0  0  0  0  0  0  0  0  0  0  0  0
    0.7296    0.5658   -1.4023 H   0  0  0  0  0  0  0  0  0  0  0  0
   -0.1231   -1.2090    1.1574 H   0  0  0  0  0  0  0  0  0  0  0  0
   -2.6500   -0.5431   -1.3078 H   0  0  0  0  0  0  0  0  0  0  0  0
   -2.4368   -1.2768    0.3912 H   0  0  0  0  0  0  0  0  0  0  0  0
   -2.6745    0.8667    1.4560 H   0  0  0  0  0  0  0  0  0  0  0  0
   -3.5464    1.3539   -0.0452 H   0  0  0  0  0  0  0  0  0  0  0  0
  1  2  1  0
  2  3  1  0
  3  4  1  0
  4  5  1  0
  5  6  1  0
  6  7  1  0
  7  8  1  0
  8  9  1  0
  5  2  1  0
  9  6  1  0
  6  4  1  0
  1 10  1  0
  1 11  1  0
  1 12  1  0
  2 13  1  0
  3 14  1  0
  3 15  1  0
  4 16  1  0
  5 17  1  0
  7 18  1  0
  7 19  1  0
  8 20  1  0
  8 21  1  0
M  END
