
     RDKit          3D

 23 24  0  0  0  0  0  0  0  0999 V2000
    3.1672   -0.4755   -0.5283 C   0  0  0  0  0  0  0  0  0  0  0  0
    1.6982   -0.6023   -0.8771 C   0  0  0  0  0  0  0  0  0  0  0  0
    0.7837   -0.5803    0.2978 C   0  0  0  0  0  0  0  0  0  0  0  0
   -0.6695   -1.0394    0.1252 C   0  0  0  0  0  0  0  0  0  0  0  0
   -1.2962    0.2994   -0.2869 C   0  0  0  0  0  0  0  0  0  0  0  0
   -2.6780    0.1248   -0.8270 C   0  0  0  0  0  0  0  0  0  0  0  0
   -1.2643    1.1778    0.9372 C   0  0  0  0  0  0  0  0  0  0  0  0
   -0.3863    0.7101   -1.2546 O   0  0  0  0  0  0  0  0  0  0  0  0
    0.8538    0.5735   -0.6858 C   0  0  0  0  0  0  0  0  0  0  0  0
    3.6848    0.1227   -1.2886 H   0  0  0  0  0  0  0  0  0  0  0  0
    3.3172   -0.0239    0.4822 H   0  0  0  0  0  0  0  0  0  0  0  0
    3.5622   -1.5102   -0.4542 H   0  0  0  0  0  0  0  0  0  0  0  0
    1.5016   -1.3338   -1.6864 H   0  0  0  0  0  0  0  0  0  0  0  0
    1.1333   -0.3225    1.2998 H   0  0  0  0  0  0  0  0  0  0  0  0
   -0.7049   -1.7279   -0.7387 H   0  0  0  0  0  0  0  0  0  0  0  0
   -1.0976   -1.4295    1.0462 H   0  0  0  0  0  0  0  0  0  0  0  0
   -3.1678    1.1261   -0.8215 H   0  0  0  0  0  0  0  0  0  0  0  0
   -3.2930   -0.5300   -0.2036 H   0  0  0  0  0  0  0  0  0  0  0  0
   -2.6166   -0.2083   -1.8814 H   0  0  0  0  0  0  0  0  0  0  0  0
   -0.9396    2.1904    0.6543 H   0  0  0  0  0  0  0  0  0  0  0  0
   -0.6169    0.7568    1.7466 H   0  0  0  0  0  0  0  0  0  0  0  0
   -2.2973    1.1803    1.3549 H   0  0  0  0  0  0  0  0  0  0  0  0
    1.3260    1.5218   -0.3765 H   0  0  0  0  0  0  0  0  0  0  0  0
  1  2  1  0
  2  3  1  0
  3  4  1  0
  4  5  1  0
  5  6  1  0
  5  7  1  0
  5  8  1  0
  8  9  1  0
  9  2  1  0
  9  3  1  0
  1 10  1  0
  1 11  1  0
  1 12  1  0
  2 13  1  0
  3 14  1  0
  4 15  1  0
  4 16  1  0
  6 17  1  0
  6 18  1  0
  6 19  1  0
  7 20  1  0
  7 21  1  0
  7 22  1  0
  9 23  1  0
M  END
