
     RDKit          3D

 23 24  0  0  0  0  0  0  0  0999 V2000
    2.5319   -0.7307    0.0383 C   0  0  0  0  0  0  0  0  0  0  0  0
    1.1857   -0.3667   -0.4616 C   0  0  0  0  0  0  0  0  0  0  0  0
    0.1558   -1.5040   -0.4814 C   0  0  0  0  0  0  0  0  0  0  0  0
   -0.8669   -0.4160   -0.2059 C   0  0  0  0  0  0  0  0  0  0  0  0
   -2.0356   -0.8249    0.6263 C   0  0  0  0  0  0  0  0  0  0  0  0
   -1.1314    0.4356   -1.2438 O   0  0  0  0  0  0  0  0  0  0  0  0
   -1.1519    1.7051   -0.6712 C   0  0  0  0  0  0  0  0  0  0  0  0
    0.0254    1.7371    0.3034 C   0  0  0  0  0  0  0  0  0  0  0  0
    0.2561    0.2928    0.5653 C   0  0  0  0  0  0  0  0  0  0  0  0
    2.6677   -0.5446    1.1323 H   0  0  0  0  0  0  0  0  0  0  0  0
    3.2704   -0.0301   -0.4530 H   0  0  0  0  0  0  0  0  0  0  0  0
    2.8369   -1.7399   -0.2691 H   0  0  0  0  0  0  0  0  0  0  0  0
    1.1277    0.1658   -1.4212 H   0  0  0  0  0  0  0  0  0  0  0  0
    0.2293   -2.1726    0.3963 H   0  0  0  0  0  0  0  0  0  0  0  0
    0.0381   -2.0029   -1.4432 H   0  0  0  0  0  0  0  0  0  0  0  0
   -2.7338    0.0132    0.6846 H   0  0  0  0  0  0  0  0  0  0  0  0
   -2.5763   -1.6365    0.0564 H   0  0  0  0  0  0  0  0  0  0  0  0
   -1.7868   -1.1386    1.6459 H   0  0  0  0  0  0  0  0  0  0  0  0
   -2.0599    1.8559   -0.0423 H   0  0  0  0  0  0  0  0  0  0  0  0
   -1.0638    2.5002   -1.4184 H   0  0  0  0  0  0  0  0  0  0  0  0
    0.9254    2.2010   -0.1702 H   0  0  0  0  0  0  0  0  0  0  0  0
   -0.2365    2.2440    1.2451 H   0  0  0  0  0  0  0  0  0  0  0  0
    0.3925   -0.0431    1.5874 H   0  0  0  0  0  0  0  0  0  0  0  0
  1  2  1  0
  2  3  1  0
  3  4  1  0
  4  5  1  0
  4  6  1  0
  6  7  1  0
  7  8  1  0
  8  9  1  0
  9  2  1  0
  9  4  1  0
  1 10  1  0
  1 11  1  0
  1 12  1  0
  2 13  1  0
  3 14  1  0
  3 15  1  0
  5 16  1  0
  5 17  1  0
  5 18  1  0
  7 19  1  0
  7 20  1  0
  8 21  1  0
  8 22  1  0
  9 23  1  0
M  END
