
     RDKit          3D

 21 23  0  0  0  0  0  0  0  0999 V2000
    1.7954   -0.8100   -0.1741 C   0  0  0  0  0  0  0  0  0  0  0  0
    1.1418    0.5097    0.0212 C   0  0  0  0  0  0  0  0  0  0  0  0
    0.0543    0.5593    1.0905 C   0  0  0  0  0  0  0  0  0  0  0  0
   -0.7262   -0.7185    1.1044 C   0  0  0  0  0  0  0  0  0  0  0  0
   -1.3351   -1.0463   -0.2139 C   0  0  0  0  0  0  0  0  0  0  0  0
   -2.2324   -0.2062   -0.8305 O   0  0  0  0  0  0  0  0  0  0  0  0
   -0.8195   -0.3197   -1.3116 C   0  0  0  0  0  0  0  0  0  0  0  0
    0.0348    0.8553   -0.9691 C   0  0  0  0  0  0  0  0  0  0  0  0
   -0.6211    1.6094    0.1964 C   0  0  0  0  0  0  0  0  0  0  0  0
    2.0385   -1.2215    0.8488 H   0  0  0  0  0  0  0  0  0  0  0  0
    2.8127   -0.6151   -0.6252 H   0  0  0  0  0  0  0  0  0  0  0  0
    1.2283   -1.5285   -0.7726 H   0  0  0  0  0  0  0  0  0  0  0  0
    1.8111    1.3731    0.1391 H   0  0  0  0  0  0  0  0  0  0  0  0
    0.3608    0.9272    2.0648 H   0  0  0  0  0  0  0  0  0  0  0  0
   -0.0050   -1.5382    1.3549 H   0  0  0  0  0  0  0  0  0  0  0  0
   -1.4431   -0.6659    1.9448 H   0  0  0  0  0  0  0  0  0  0  0  0
   -1.6139   -2.1362   -0.3292 H   0  0  0  0  0  0  0  0  0  0  0  0
   -0.8451   -0.6973   -2.3684 H   0  0  0  0  0  0  0  0  0  0  0  0
    0.3090    1.5426   -1.7639 H   0  0  0  0  0  0  0  0  0  0  0  0
   -1.7374    1.5295    0.1976 H   0  0  0  0  0  0  0  0  0  0  0  0
   -0.2078    2.5973    0.3962 H   0  0  0  0  0  0  0  0  0  0  0  0
  1  2  1  0
  2  3  1  0
  3  4  1  0
  4  5  1  0
  5  6  1  0
  6  7  1  0
  7  8  1  0
  8  9  1  0
  8  2  1  0
  9  3  1  0
  7  5  1  0
  1 10  1  0
  1 11  1  0
  1 12  1  0
  2 13  1  0
  3 14  1  0
  4 15  1  0
  4 16  1  0
  5 17  1  0
  7 18  1  0
  8 19  1  0
  9 20  1  0
  9 21  1  0
M  END
