
     RDKit          3D

 23 24  0  0  0  0  0  0  0  0999 V2000
    2.3510   -1.1148    0.1220 C   0  0  0  0  0  0  0  0  0  0  0  0
    1.2534   -0.1049    0.3549 C   0  0  0  0  0  0  0  0  0  0  0  0
    1.6997    1.2821    0.1113 C   0  0  0  0  0  0  0  0  0  0  0  0
    0.7354    1.9451   -0.4850 C   0  0  0  0  0  0  0  0  0  0  0  0
   -0.4571    1.1368   -0.7238 C   0  0  0  0  0  0  0  0  0  0  0  0
   -1.4098    0.9350    0.4288 C   0  0  0  0  0  0  0  0  0  0  0  0
   -1.2030   -0.5747    0.2283 C   0  0  0  0  0  0  0  0  0  0  0  0
   -2.2856   -1.2338   -0.5865 C   0  0  0  0  0  0  0  0  0  0  0  0
    0.0816   -0.2903   -0.5399 C   0  0  0  0  0  0  0  0  0  0  0  0
    3.1550   -0.7125   -0.5164 H   0  0  0  0  0  0  0  0  0  0  0  0
    1.8560   -2.0072   -0.3592 H   0  0  0  0  0  0  0  0  0  0  0  0
    2.7114   -1.4888    1.1046 H   0  0  0  0  0  0  0  0  0  0  0  0
    0.9099   -0.1262    1.4325 H   0  0  0  0  0  0  0  0  0  0  0  0
    2.7061    1.7017    0.3925 H   0  0  0  0  0  0  0  0  0  0  0  0
    0.8399    3.0084   -0.7680 H   0  0  0  0  0  0  0  0  0  0  0  0
   -0.9226    1.2943   -1.7038 H   0  0  0  0  0  0  0  0  0  0  0  0
   -2.4435    1.2390    0.1873 H   0  0  0  0  0  0  0  0  0  0  0  0
   -1.0881    1.2861    1.4053 H   0  0  0  0  0  0  0  0  0  0  0  0
   -1.0086   -1.1044    1.1825 H   0  0  0  0  0  0  0  0  0  0  0  0
   -3.2989   -0.8690   -0.2638 H   0  0  0  0  0  0  0  0  0  0  0  0
   -2.2277   -2.3182   -0.3958 H   0  0  0  0  0  0  0  0  0  0  0  0
   -2.1676   -1.0355   -1.6837 H   0  0  0  0  0  0  0  0  0  0  0  0
    0.2132   -0.8484   -1.4688 H   0  0  0  0  0  0  0  0  0  0  0  0
  1  2  1  0
  2  3  1  0
  3  4  2  0
  4  5  1  0
  5  6  1  0
  6  7  1  0
  7  8  1  0
  7  9  1  0
  9  2  1  0
  9  5  1  0
  1 10  1  0
  1 11  1  0
  1 12  1  0
  2 13  1  0
  3 14  1  0
  4 15  1  0
  5 16  1  0
  6 17  1  0
  6 18  1  0
  7 19  1  0
  8 20  1  0
  8 21  1  0
  8 22  1  0
  9 23  1  0
M  END
