
     RDKit          3D

 23 25  0  0  0  0  0  0  0  0999 V2000
    1.8209    0.3785   -1.0504 C   0  0  0  0  0  0  0  0  0  0  0  0
    1.0067    0.1507    0.1683 C   0  0  0  0  0  0  0  0  0  0  0  0
    0.7973   -1.3442    0.4522 C   0  0  0  0  0  0  0  0  0  0  0  0
   -0.4970   -1.7072   -0.2014 C   0  0  0  0  0  0  0  0  0  0  0  0
   -1.0029   -0.4292   -0.8888 C   0  0  0  0  0  0  0  0  0  0  0  0
   -0.4174    0.5741    0.0729 C   0  0  0  0  0  0  0  0  0  0  0  0
   -0.7041    1.9699   -0.1762 C   0  0  0  0  0  0  0  0  0  0  0  0
   -0.9773    0.0093    1.3840 C   0  0  0  0  0  0  0  0  0  0  0  0
   -0.4318   -1.4218    1.2413 C   0  0  0  0  0  0  0  0  0  0  0  0
    2.3018    1.3888   -0.9860 H   0  0  0  0  0  0  0  0  0  0  0  0
    2.6926   -0.3390   -1.0321 H   0  0  0  0  0  0  0  0  0  0  0  0
    1.3155    0.2074   -2.0042 H   0  0  0  0  0  0  0  0  0  0  0  0
    1.5270    0.5804    1.0344 H   0  0  0  0  0  0  0  0  0  0  0  0
    1.6434   -2.0079    0.5141 H   0  0  0  0  0  0  0  0  0  0  0  0
   -0.6920   -2.6721   -0.6439 H   0  0  0  0  0  0  0  0  0  0  0  0
   -2.1110   -0.3467   -0.7974 H   0  0  0  0  0  0  0  0  0  0  0  0
   -0.6481   -0.3378   -1.9105 H   0  0  0  0  0  0  0  0  0  0  0  0
   -0.6894    2.1746   -1.2671 H   0  0  0  0  0  0  0  0  0  0  0  0
    0.0513    2.6190    0.3056 H   0  0  0  0  0  0  0  0  0  0  0  0
   -1.7407    2.2184    0.1675 H   0  0  0  0  0  0  0  0  0  0  0  0
   -2.0673   -0.0502    1.3616 H   0  0  0  0  0  0  0  0  0  0  0  0
   -0.5406    0.5319    2.2312 H   0  0  0  0  0  0  0  0  0  0  0  0
   -0.6372   -2.1470    2.0250 H   0  0  0  0  0  0  0  0  0  0  0  0
  1  2  1  0
  2  3  1  0
  3  4  1  0
  4  5  1  0
  5  6  1  0
  6  7  1  0
  6  8  1  0
  8  9  1  0
  6  2  1  0
  9  3  1  0
  9  4  1  0
  1 10  1  0
  1 11  1  0
  1 12  1  0
  2 13  1  0
  3 14  1  0
  4 15  1  0
  5 16  1  0
  5 17  1  0
  7 18  1  0
  7 19  1  0
  7 20  1  0
  8 21  1  0
  8 22  1  0
  9 23  1  0
M  END
