
     RDKit          3D

 21 22  0  0  0  0  0  0  0  0999 V2000
   -2.4112    0.4185   -0.8019 C   0  0  0  0  0  0  0  0  0  0  0  0
   -1.3525   -0.3860   -0.0479 C   0  0  0  0  0  0  0  0  0  0  0  0
   -1.3803   -0.0275    1.4185 C   0  0  0  0  0  0  0  0  0  0  0  0
   -0.6275    1.1134    1.0905 O   0  0  0  0  0  0  0  0  0  0  0  0
   -0.0813    0.3715    0.0173 C   0  0  0  0  0  0  0  0  0  0  0  0
    1.1398   -0.3523    0.4995 C   0  0  0  0  0  0  0  0  0  0  0  0
    2.3264    0.6193    0.4826 C   0  0  0  0  0  0  0  0  0  0  0  0
    3.1242   -0.4610    0.1393 O   0  0  0  0  0  0  0  0  0  0  0  0
    1.9985   -1.0067   -0.5213 C   0  0  0  0  0  0  0  0  0  0  0  0
   -2.1794    0.4504   -1.8862 H   0  0  0  0  0  0  0  0  0  0  0  0
   -2.3651    1.4695   -0.4474 H   0  0  0  0  0  0  0  0  0  0  0  0
   -3.4104    0.0367   -0.5696 H   0  0  0  0  0  0  0  0  0  0  0  0
   -1.3284   -1.4453   -0.2901 H   0  0  0  0  0  0  0  0  0  0  0  0
   -0.8780   -0.7150    2.1011 H   0  0  0  0  0  0  0  0  0  0  0  0
   -2.4241    0.1868    1.7274 H   0  0  0  0  0  0  0  0  0  0  0  0
    0.0855    1.0767   -0.8212 H   0  0  0  0  0  0  0  0  0  0  0  0
    1.0369   -0.9183    1.4203 H   0  0  0  0  0  0  0  0  0  0  0  0
    2.2328    1.3032   -0.3707 H   0  0  0  0  0  0  0  0  0  0  0  0
    2.4744    1.0497    1.4755 H   0  0  0  0  0  0  0  0  0  0  0  0
    2.0819   -2.1189   -0.4454 H   0  0  0  0  0  0  0  0  0  0  0  0
    1.9379   -0.6645   -1.5554 H   0  0  0  0  0  0  0  0  0  0  0  0
  1  2  1  0
  2  3  1  0
  3  4  1  0
  4  5  1  0
  5  6  1  0
  6  7  1  0
  7  8  1  0
  8  9  1  0
  5  2  1  0
  9  6  1  0
  1 10  1  0
  1 11  1  0
  1 12  1  0
  2 13  1  0
  3 14  1  0
  3 15  1  0
  5 16  1  0
  6 17  1  0
  7 18  1  0
  7 19  1  0
  9 20  1  0
  9 21  1  0
M  END
