
     RDKit          3D

 19 21  0  0  0  0  0  0  0  0999 V2000
    2.3584    0.7002    0.3167 C   0  0  0  0  0  0  0  0  0  0  0  0
    1.2232   -0.2455    0.7348 C   0  0  0  0  0  0  0  0  0  0  0  0
    0.8768   -1.2996   -0.0282 C   0  0  0  0  0  0  0  0  0  0  0  0
    0.0340   -0.1465   -0.0490 C   0  0  0  0  0  0  0  0  0  0  0  0
   -0.4072    1.0128    0.4754 O   0  0  0  0  0  0  0  0  0  0  0  0
   -1.7127    0.8545    0.9281 C   0  0  0  0  0  0  0  0  0  0  0  0
   -2.2912    0.0832   -0.2249 C   0  0  0  0  0  0  0  0  0  0  0  0
   -1.8644    0.6010   -1.4358 O   0  0  0  0  0  0  0  0  0  0  0  0
   -1.0350   -0.4653   -0.9034 C   0  0  0  0  0  0  0  0  0  0  0  0
    3.2430    0.0786    0.0543 H   0  0  0  0  0  0  0  0  0  0  0  0
    2.0653    1.3261   -0.5501 H   0  0  0  0  0  0  0  0  0  0  0  0
    2.6555    1.3735    1.1200 H   0  0  0  0  0  0  0  0  0  0  0  0
    1.2610   -0.3944    1.8619 H   0  0  0  0  0  0  0  0  0  0  0  0
    0.5574   -2.2995    0.4058 H   0  0  0  0  0  0  0  0  0  0  0  0
    1.4128   -1.5133   -1.0079 H   0  0  0  0  0  0  0  0  0  0  0  0
   -1.7850    0.3613    1.8918 H   0  0  0  0  0  0  0  0  0  0  0  0
   -2.1745    1.8847    0.9243 H   0  0  0  0  0  0  0  0  0  0  0  0
   -3.1509   -0.5575   -0.1281 H   0  0  0  0  0  0  0  0  0  0  0  0
   -1.2664   -1.3545   -1.5334 H   0  0  0  0  0  0  0  0  0  0  0  0
  1  2  1  0
  2  3  1  0
  3  4  1  0
  4  5  1  0
  5  6  1  0
  6  7  1  0
  7  8  1  0
  8  9  1  0
  4  2  1  0
  9  7  1  0
  9  4  1  0
  1 10  1  0
  1 11  1  0
  1 12  1  0
  2 13  1  0
  3 14  1  0
  3 15  1  0
  6 16  1  0
  6 17  1  0
  7 18  1  0
  9 19  1  0
M  END
