
     RDKit          3D

 19 20  0  0  0  0  0  0  0  0999 V2000
    2.5899   -0.0056   -0.1037 C   0  0  0  0  0  0  0  0  0  0  0  0
    1.0958    0.2035   -0.2143 C   0  0  0  0  0  0  0  0  0  0  0  0
    0.4313    0.0403    1.1147 C   0  0  0  0  0  0  0  0  0  0  0  0
   -0.8523    0.2786    1.3526 C   0  0  0  0  0  0  0  0  0  0  0  0
   -1.9162    0.7447    0.4194 C   0  0  0  0  0  0  0  0  0  0  0  0
   -1.4505    1.4292   -0.7037 O   0  0  0  0  0  0  0  0  0  0  0  0
   -1.7724    0.1242   -0.9568 C   0  0  0  0  0  0  0  0  0  0  0  0
   -0.7778   -0.9766   -0.8752 C   0  0  0  0  0  0  0  0  0  0  0  0
    0.5209   -0.5998   -1.1838 O   0  0  0  0  0  0  0  0  0  0  0  0
    2.8641   -1.0197    0.2136 H   0  0  0  0  0  0  0  0  0  0  0  0
    3.0119    0.7520    0.5656 H   0  0  0  0  0  0  0  0  0  0  0  0
    3.0034    0.2267   -1.1266 H   0  0  0  0  0  0  0  0  0  0  0  0
    0.9618    1.2659   -0.5651 H   0  0  0  0  0  0  0  0  0  0  0  0
    1.0151   -0.2933    1.9543 H   0  0  0  0  0  0  0  0  0  0  0  0
   -1.1862    0.1160    2.3598 H   0  0  0  0  0  0  0  0  0  0  0  0
   -2.9043    0.9566    0.8205 H   0  0  0  0  0  0  0  0  0  0  0  0
   -2.6987   -0.0162   -1.5484 H   0  0  0  0  0  0  0  0  0  0  0  0
   -1.0651   -1.7546   -1.6331 H   0  0  0  0  0  0  0  0  0  0  0  0
   -0.8707   -1.4719    0.1103 H   0  0  0  0  0  0  0  0  0  0  0  0
  1  2  1  0
  2  3  1  0
  3  4  2  0
  4  5  1  0
  5  6  1  0
  6  7  1  0
  7  8  1  0
  8  9  1  0
  9  2  1  0
  7  5  1  0
  1 10  1  0
  1 11  1  0
  1 12  1  0
  2 13  1  0
  3 14  1  0
  4 15  1  0
  5 16  1  0
  7 17  1  0
  8 18  1  0
  8 19  1  0
M  END
