
     RDKit          3D

 20 20  0  0  0  0  0  0  0  0999 V2000
   -2.4509    0.1118    0.1306 C   0  0  0  0  0  0  0  0  0  0  0  0
   -1.0191   -0.2149   -0.2204 C   0  0  0  0  0  0  0  0  0  0  0  0
   -0.4890   -1.1671    0.7939 C   0  0  0  0  0  0  0  0  0  0  0  0
    0.8081   -1.4117    0.7166 C   0  0  0  0  0  0  0  0  0  0  0  0
    1.5758   -0.7252   -0.3488 C   0  0  0  0  0  0  0  0  0  0  0  0
    1.3074    0.7541   -0.1518 C   0  0  0  0  0  0  0  0  0  0  0  0
    2.0842    1.4979   -1.0319 O   0  0  0  0  0  0  0  0  0  0  0  0
   -0.1548    1.0240   -0.2801 C   0  0  0  0  0  0  0  0  0  0  0  0
   -2.5357    1.2177    0.2764 H   0  0  0  0  0  0  0  0  0  0  0  0
   -2.7574   -0.3989    1.0852 H   0  0  0  0  0  0  0  0  0  0  0  0
   -3.1530   -0.2611   -0.6391 H   0  0  0  0  0  0  0  0  0  0  0  0
   -1.0119   -0.6723   -1.2359 H   0  0  0  0  0  0  0  0  0  0  0  0
   -1.1434   -1.6146    1.5335 H   0  0  0  0  0  0  0  0  0  0  0  0
    1.3112   -2.0749    1.3838 H   0  0  0  0  0  0  0  0  0  0  0  0
    2.6614   -0.9447   -0.3063 H   0  0  0  0  0  0  0  0  0  0  0  0
    1.1543   -0.9826   -1.3553 H   0  0  0  0  0  0  0  0  0  0  0  0
    1.6516    0.9769    0.8952 H   0  0  0  0  0  0  0  0  0  0  0  0
    2.9914    1.5620   -0.6112 H   0  0  0  0  0  0  0  0  0  0  0  0
   -0.3844    1.6128   -1.2029 H   0  0  0  0  0  0  0  0  0  0  0  0
   -0.4457    1.7107    0.5686 H   0  0  0  0  0  0  0  0  0  0  0  0
  1  2  1  0
  2  3  1  0
  3  4  2  0
  4  5  1  0
  5  6  1  0
  6  7  1  0
  6  8  1  0
  8  2  1  0
  1  9  1  0
  1 10  1  0
  1 11  1  0
  2 12  1  0
  3 13  1  0
  4 14  1  0
  5 15  1  0
  5 16  1  0
  6 17  1  0
  7 18  1  0
  8 19  1  0
  8 20  1  0
M  END
