
     RDKit          3D

 19 22  0  0  0  0  0  0  0  0999 V2000
    2.2110    0.0898   -0.1878 C   0  0  0  0  0  0  0  0  0  0  0  0
    0.8907   -0.5039    0.1195 C   0  0  0  0  0  0  0  0  0  0  0  0
   -0.0543   -0.5158   -1.0905 C   0  0  0  0  0  0  0  0  0  0  0  0
   -0.1512    0.8488   -1.3319 O   0  0  0  0  0  0  0  0  0  0  0  0
   -0.6438    1.2763   -0.0735 C   0  0  0  0  0  0  0  0  0  0  0  0
   -0.0005    0.4197    0.9591 C   0  0  0  0  0  0  0  0  0  0  0  0
   -1.2350   -0.4250    0.9961 C   0  0  0  0  0  0  0  0  0  0  0  0
   -1.3606   -0.8913   -0.4028 C   0  0  0  0  0  0  0  0  0  0  0  0
   -1.8713    0.4164    0.0155 C   0  0  0  0  0  0  0  0  0  0  0  0
    2.5435    0.8411    0.5552 H   0  0  0  0  0  0  0  0  0  0  0  0
    2.3106    0.4905   -1.2271 H   0  0  0  0  0  0  0  0  0  0  0  0
    2.9747   -0.7414   -0.1162 H   0  0  0  0  0  0  0  0  0  0  0  0
    0.9092   -1.4693    0.6281 H   0  0  0  0  0  0  0  0  0  0  0  0
    0.2474   -1.1368   -1.8905 H   0  0  0  0  0  0  0  0  0  0  0  0
   -0.7320    2.3313    0.0746 H   0  0  0  0  0  0  0  0  0  0  0  0
    0.4060    0.8275    1.8459 H   0  0  0  0  0  0  0  0  0  0  0  0
   -1.6306   -0.8976    1.8618 H   0  0  0  0  0  0  0  0  0  0  0  0
   -1.9433   -1.7350   -0.7262 H   0  0  0  0  0  0  0  0  0  0  0  0
   -2.8705    0.7747   -0.0092 H   0  0  0  0  0  0  0  0  0  0  0  0
  1  2  1  0
  2  3  1  0
  3  4  1  0
  4  5  1  0
  5  6  1  0
  6  7  1  0
  7  8  1  0
  8  9  1  0
  6  2  1  0
  9  7  1  0
  8  3  1  0
  9  5  1  0
  1 10  1  0
  1 11  1  0
  1 12  1  0
  2 13  1  0
  3 14  1  0
  5 15  1  0
  6 16  1  0
  7 17  1  0
  8 18  1  0
  9 19  1  0
M  END
