
     RDKit          3D

 19 21  0  0  0  0  0  0  0  0999 V2000
    2.0267    0.4846    0.6048 C   0  0  0  0  0  0  0  0  0  0  0  0
    0.8181    0.1418   -0.2404 C   0  0  0  0  0  0  0  0  0  0  0  0
    0.4324   -1.3097   -0.0667 C   0  0  0  0  0  0  0  0  0  0  0  0
   -1.0739   -1.3578   -0.3606 C   0  0  0  0  0  0  0  0  0  0  0  0
   -1.3127   -0.4944   -1.4150 O   0  0  0  0  0  0  0  0  0  0  0  0
   -1.4490    0.7627   -0.8369 C   0  0  0  0  0  0  0  0  0  0  0  0
   -1.5095    0.5393    0.6459 C   0  0  0  0  0  0  0  0  0  0  0  0
   -1.6720   -0.8024    0.7677 O   0  0  0  0  0  0  0  0  0  0  0  0
   -0.3090    1.0591    0.0371 C   0  0  0  0  0  0  0  0  0  0  0  0
    2.5802   -0.4557    0.8412 H   0  0  0  0  0  0  0  0  0  0  0  0
    2.7524    1.1032    0.0173 H   0  0  0  0  0  0  0  0  0  0  0  0
    1.7042    1.0046    1.5310 H   0  0  0  0  0  0  0  0  0  0  0  0
    1.1177    0.3121   -1.3184 H   0  0  0  0  0  0  0  0  0  0  0  0
    0.5779   -1.5662    0.9921 H   0  0  0  0  0  0  0  0  0  0  0  0
    0.9836   -1.9128   -0.7811 H   0  0  0  0  0  0  0  0  0  0  0  0
   -1.4151   -2.3669   -0.5925 H   0  0  0  0  0  0  0  0  0  0  0  0
   -2.0748    1.5149   -1.3129 H   0  0  0  0  0  0  0  0  0  0  0  0
   -2.1695    1.2415    1.1850 H   0  0  0  0  0  0  0  0  0  0  0  0
   -0.0075    2.1019    0.3022 H   0  0  0  0  0  0  0  0  0  0  0  0
  1  2  1  0
  2  3  1  0
  3  4  1  0
  4  5  1  0
  5  6  1  0
  6  7  1  0
  7  8  1  0
  7  9  1  0
  9  2  1  0
  8  4  1  0
  9  6  1  0
  1 10  1  0
  1 11  1  0
  1 12  1  0
  2 13  1  0
  3 14  1  0
  3 15  1  0
  4 16  1  0
  6 17  1  0
  7 18  1  0
  9 19  1  0
M  END
