
     RDKit          3D

 25 25  0  0  0  0  0  0  0  0999 V2000
    2.7417    0.9606    0.3050 C   0  0  0  0  0  0  0  0  0  0  0  0
    2.1032   -0.3459   -0.0262 C   0  0  0  0  0  0  0  0  0  0  0  0
    1.6460   -0.4618   -1.4201 C   0  0  0  0  0  0  0  0  0  0  0  0
    0.3584   -0.1686   -1.5275 C   0  0  0  0  0  0  0  0  0  0  0  0
   -0.1831    0.1764   -0.2061 C   0  0  0  0  0  0  0  0  0  0  0  0
   -1.5400   -0.3971    0.0706 C   0  0  0  0  0  0  0  0  0  0  0  0
   -2.5990    0.0367   -0.8832 C   0  0  0  0  0  0  0  0  0  0  0  0
   -1.9161   -0.0446    1.4961 C   0  0  0  0  0  0  0  0  0  0  0  0
    0.8086   -0.4546    0.7478 C   0  0  0  0  0  0  0  0  0  0  0  0
    3.3305    0.8185    1.2445 H   0  0  0  0  0  0  0  0  0  0  0  0
    1.9955    1.7681    0.5541 H   0  0  0  0  0  0  0  0  0  0  0  0
    3.3620    1.3855   -0.5101 H   0  0  0  0  0  0  0  0  0  0  0  0
    2.7826   -1.1650    0.2809 H   0  0  0  0  0  0  0  0  0  0  0  0
    2.2706   -0.7478   -2.2549 H   0  0  0  0  0  0  0  0  0  0  0  0
   -0.1669   -0.1953   -2.4732 H   0  0  0  0  0  0  0  0  0  0  0  0
   -0.2091    1.2764   -0.1206 H   0  0  0  0  0  0  0  0  0  0  0  0
   -1.4752   -1.5118    0.0345 H   0  0  0  0  0  0  0  0  0  0  0  0
   -2.2364    0.7300   -1.6795 H   0  0  0  0  0  0  0  0  0  0  0  0
   -3.0441   -0.8334   -1.4462 H   0  0  0  0  0  0  0  0  0  0  0  0
   -3.4343    0.4974   -0.3142 H   0  0  0  0  0  0  0  0  0  0  0  0
   -2.8158   -0.6353    1.7924 H   0  0  0  0  0  0  0  0  0  0  0  0
   -2.1243    1.0597    1.5751 H   0  0  0  0  0  0  0  0  0  0  0  0
   -1.0923   -0.3097    2.1883 H   0  0  0  0  0  0  0  0  0  0  0  0
    0.5831   -1.5291    0.8585 H   0  0  0  0  0  0  0  0  0  0  0  0
    0.8545    0.0906    1.7140 H   0  0  0  0  0  0  0  0  0  0  0  0
  1  2  1  0
  2  3  1  0
  3  4  2  0
  4  5  1  0
  5  6  1  0
  6  7  1  0
  6  8  1  0
  5  9  1  0
  9  2  1  0
  1 10  1  0
  1 11  1  0
  1 12  1  0
  2 13  1  0
  3 14  1  0
  4 15  1  0
  5 16  1  0
  6 17  1  0
  7 18  1  0
  7 19  1  0
  7 20  1  0
  8 21  1  0
  8 22  1  0
  8 23  1  0
  9 24  1  0
  9 25  1  0
M  END
