
     RDKit          3D

 23 24  0  0  0  0  0  0  0  0999 V2000
    1.4129   -1.8326    0.4178 C   0  0  0  0  0  0  0  0  0  0  0  0
    1.3601   -0.4580   -0.1469 C   0  0  0  0  0  0  0  0  0  0  0  0
    1.1511    0.6289    0.8737 C   0  0  0  0  0  0  0  0  0  0  0  0
    1.1394    2.0633    0.4816 C   0  0  0  0  0  0  0  0  0  0  0  0
    0.4140    1.7709   -0.8203 C   0  0  0  0  0  0  0  0  0  0  0  0
    0.1730    0.3612   -0.2844 C   0  0  0  0  0  0  0  0  0  0  0  0
   -1.2011    0.0613    0.0928 C   0  0  0  0  0  0  0  0  0  0  0  0
   -1.8313   -1.1291   -0.5614 C   0  0  0  0  0  0  0  0  0  0  0  0
   -3.1387   -1.2361   -0.0624 O   0  0  0  0  0  0  0  0  0  0  0  0
    2.4832   -2.0524    0.6664 H   0  0  0  0  0  0  0  0  0  0  0  0
    0.8666   -1.9489    1.3762 H   0  0  0  0  0  0  0  0  0  0  0  0
    1.1275   -2.6338   -0.3179 H   0  0  0  0  0  0  0  0  0  0  0  0
    2.1978   -0.2372   -0.8652 H   0  0  0  0  0  0  0  0  0  0  0  0
    0.8009    0.3496    1.8936 H   0  0  0  0  0  0  0  0  0  0  0  0
    2.1001    2.5753    0.3845 H   0  0  0  0  0  0  0  0  0  0  0  0
    0.4473    2.6530    1.1415 H   0  0  0  0  0  0  0  0  0  0  0  0
   -0.4872    2.3640   -0.9938 H   0  0  0  0  0  0  0  0  0  0  0  0
    1.1127    1.7206   -1.6866 H   0  0  0  0  0  0  0  0  0  0  0  0
   -1.8660    0.9315   -0.0789 H   0  0  0  0  0  0  0  0  0  0  0  0
   -1.2615   -0.1180    1.2067 H   0  0  0  0  0  0  0  0  0  0  0  0
   -1.2980   -2.0366   -0.2052 H   0  0  0  0  0  0  0  0  0  0  0  0
   -1.9123   -1.0538   -1.6496 H   0  0  0  0  0  0  0  0  0  0  0  0
   -3.7906   -0.7430   -0.6077 H   0  0  0  0  0  0  0  0  0  0  0  0
  1  2  1  0
  2  3  1  0
  3  4  1  0
  4  5  1  0
  5  6  1  0
  6  7  1  0
  7  8  1  0
  8  9  1  0
  6  2  1  0
  6  3  1  0
  1 10  1  0
  1 11  1  0
  1 12  1  0
  2 13  1  0
  3 14  1  0
  4 15  1  0
  4 16  1  0
  5 17  1  0
  5 18  1  0
  7 19  1  0
  7 20  1  0
  8 21  1  0
  8 22  1  0
  9 23  1  0
M  END
