
     RDKit          3D

 19 19  0  0  0  0  0  0  0  0999 V2000
   -1.5493   -0.8938   -1.7801 C   0  0  0  0  0  0  0  0  0  0  0  0
   -1.4693   -0.3167   -0.3857 C   0  0  0  0  0  0  0  0  0  0  0  0
   -2.3284    0.9176   -0.2001 C   0  0  0  0  0  0  0  0  0  0  0  0
   -1.3326    1.3941    0.6553 O   0  0  0  0  0  0  0  0  0  0  0  0
   -0.4177    0.7268   -0.1764 C   0  0  0  0  0  0  0  0  0  0  0  0
    0.7800    0.3077    0.5218 C   0  0  0  0  0  0  0  0  0  0  0  0
    1.7630   -0.0165    1.1014 C   0  0  0  0  0  0  0  0  0  0  0  0
    2.9638   -0.4157    1.8330 C   0  0  0  0  0  0  0  0  0  0  0  0
    4.0657    0.2058    1.2926 O   0  0  0  0  0  0  0  0  0  0  0  0
   -1.5687   -0.0680   -2.5100 H   0  0  0  0  0  0  0  0  0  0  0  0
   -0.7647   -1.6235   -1.9666 H   0  0  0  0  0  0  0  0  0  0  0  0
   -2.5376   -1.4029   -1.8620 H   0  0  0  0  0  0  0  0  0  0  0  0
   -1.5945   -1.0423    0.4309 H   0  0  0  0  0  0  0  0  0  0  0  0
   -2.3721    1.4907   -1.1408 H   0  0  0  0  0  0  0  0  0  0  0  0
   -3.3101    0.7315    0.2745 H   0  0  0  0  0  0  0  0  0  0  0  0
   -0.2678    1.3196   -1.0933 H   0  0  0  0  0  0  0  0  0  0  0  0
    2.8378   -0.1569    2.9057 H   0  0  0  0  0  0  0  0  0  0  0  0
    3.1235   -1.5123    1.7831 H   0  0  0  0  0  0  0  0  0  0  0  0
    3.9790    0.3546    0.3165 H   0  0  0  0  0  0  0  0  0  0  0  0
  1  2  1  0
  2  3  1  0
  3  4  1  0
  4  5  1  0
  5  6  1  0
  6  7  3  0
  7  8  1  0
  8  9  1  0
  5  2  1  0
  1 10  1  0
  1 11  1  0
  1 12  1  0
  2 13  1  0
  3 14  1  0
  3 15  1  0
  5 16  1  0
  8 17  1  0
  8 18  1  0
  9 19  1  0
M  END
