
     RDKit          3D

 21 21  0  0  0  0  0  0  0  0999 V2000
   -0.3832    2.0733    1.0096 C   0  0  0  0  0  0  0  0  0  0  0  0
   -0.1387    0.5937    0.8159 C   0  0  0  0  0  0  0  0  0  0  0  0
    0.7187    0.2541   -0.4134 C   0  0  0  0  0  0  0  0  0  0  0  0
    1.8188   -0.7087   -0.1124 C   0  0  0  0  0  0  0  0  0  0  0  0
    2.5692   -0.9857   -1.2601 O   0  0  0  0  0  0  0  0  0  0  0  0
   -0.6955   -0.0699   -0.4282 C   0  0  0  0  0  0  0  0  0  0  0  0
   -1.5436    0.7630   -1.1660 O   0  0  0  0  0  0  0  0  0  0  0  0
   -1.2298   -1.4759   -0.2910 C   0  0  0  0  0  0  0  0  0  0  0  0
   -2.4657   -1.4765    0.3536 O   0  0  0  0  0  0  0  0  0  0  0  0
    0.4575    2.6453    0.5632 H   0  0  0  0  0  0  0  0  0  0  0  0
   -1.3161    2.3560    0.5168 H   0  0  0  0  0  0  0  0  0  0  0  0
   -0.3992    2.2611    2.1116 H   0  0  0  0  0  0  0  0  0  0  0  0
   -0.0737   -0.0676    1.6861 H   0  0  0  0  0  0  0  0  0  0  0  0
    1.0514    1.1158   -1.0519 H   0  0  0  0  0  0  0  0  0  0  0  0
    2.5585   -0.2637    0.6165 H   0  0  0  0  0  0  0  0  0  0  0  0
    1.4778   -1.6875    0.2767 H   0  0  0  0  0  0  0  0  0  0  0  0
    3.2175   -0.2453   -1.3750 H   0  0  0  0  0  0  0  0  0  0  0  0
   -1.3583    0.7211   -2.1367 H   0  0  0  0  0  0  0  0  0  0  0  0
   -0.5094   -2.1409    0.2548 H   0  0  0  0  0  0  0  0  0  0  0  0
   -1.3787   -1.9573   -1.2788 H   0  0  0  0  0  0  0  0  0  0  0  0
   -2.3772   -1.7044    1.3087 H   0  0  0  0  0  0  0  0  0  0  0  0
  1  2  1  0
  2  3  1  0
  3  4  1  0
  4  5  1  0
  3  6  1  0
  6  7  1  0
  6  8  1  0
  8  9  1  0
  6  2  1  0
  1 10  1  0
  1 11  1  0
  1 12  1  0
  2 13  1  0
  3 14  1  0
  4 15  1  0
  4 16  1  0
  5 17  1  0
  7 18  1  0
  8 19  1  0
  8 20  1  0
  9 21  1  0
M  END
