
     RDKit          3D

 21 23  0  0  0  0  0  0  0  0999 V2000
    2.2324   -0.1269   -0.8014 C   0  0  0  0  0  0  0  0  0  0  0  0
    1.7568    0.7124    0.3330 C   0  0  0  0  0  0  0  0  0  0  0  0
    0.9679    0.0204    1.3890 C   0  0  0  0  0  0  0  0  0  0  0  0
    0.0360   -1.0899    1.1980 C   0  0  0  0  0  0  0  0  0  0  0  0
   -0.9587   -0.8923    0.3893 C   0  0  0  0  0  0  0  0  0  0  0  0
   -2.2215   -0.9636   -0.4904 C   0  0  0  0  0  0  0  0  0  0  0  0
   -2.0950    0.6145   -0.3939 C   0  0  0  0  0  0  0  0  0  0  0  0
   -0.6352    0.3926   -0.3885 C   0  0  0  0  0  0  0  0  0  0  0  0
    0.3159    1.0871    0.4715 C   0  0  0  0  0  0  0  0  0  0  0  0
    2.0105   -1.1860   -0.6118 H   0  0  0  0  0  0  0  0  0  0  0  0
    1.7805    0.1340   -1.7850 H   0  0  0  0  0  0  0  0  0  0  0  0
    3.3444   -0.0499   -0.8954 H   0  0  0  0  0  0  0  0  0  0  0  0
    2.4692    1.4682    0.7000 H   0  0  0  0  0  0  0  0  0  0  0  0
    1.1319    0.3745    2.4634 H   0  0  0  0  0  0  0  0  0  0  0  0
    0.1855   -2.0620    1.7318 H   0  0  0  0  0  0  0  0  0  0  0  0
   -1.9778   -1.3191   -1.4734 H   0  0  0  0  0  0  0  0  0  0  0  0
   -3.1095   -1.2871    0.0466 H   0  0  0  0  0  0  0  0  0  0  0  0
   -2.5428    1.0452   -1.3070 H   0  0  0  0  0  0  0  0  0  0  0  0
   -2.5281    0.9940    0.5433 H   0  0  0  0  0  0  0  0  0  0  0  0
   -0.2236    0.1056   -1.4128 H   0  0  0  0  0  0  0  0  0  0  0  0
    0.0610    2.0284    0.9552 H   0  0  0  0  0  0  0  0  0  0  0  0
  1  2  1  0
  2  3  1  0
  3  4  1  0
  4  5  2  0
  5  6  1  0
  6  7  1  0
  7  8  1  0
  8  9  1  0
  9  2  1  0
  9  3  1  0
  8  5  1  0
  1 10  1  0
  1 11  1  0
  1 12  1  0
  2 13  1  0
  3 14  1  0
  4 15  1  0
  6 16  1  0
  6 17  1  0
  7 18  1  0
  7 19  1  0
  8 20  1  0
  9 21  1  0
M  END
