
     RDKit          3D

 20 20  0  0  0  0  0  0  0  0999 V2000
   -2.4549   -0.5539   -0.1016 C   0  0  0  0  0  0  0  0  0  0  0  0
   -1.0294   -0.0741   -0.2093 C   0  0  0  0  0  0  0  0  0  0  0  0
   -0.0972   -1.1534   -0.5964 C   0  0  0  0  0  0  0  0  0  0  0  0
    1.2116   -1.0398   -0.7158 C   0  0  0  0  0  0  0  0  0  0  0  0
    2.1921    0.0543   -0.5425 C   0  0  0  0  0  0  0  0  0  0  0  0
    1.6350    1.2532    0.1288 C   0  0  0  0  0  0  0  0  0  0  0  0
    0.5283    1.4386    0.8180 C   0  0  0  0  0  0  0  0  0  0  0  0
   -0.5319    0.4617    1.1391 C   0  0  0  0  0  0  0  0  0  0  0  0
   -2.8877   -0.2418    0.8752 H   0  0  0  0  0  0  0  0  0  0  0  0
   -2.4990   -1.6702   -0.1399 H   0  0  0  0  0  0  0  0  0  0  0  0
   -3.0960   -0.1964   -0.9344 H   0  0  0  0  0  0  0  0  0  0  0  0
   -1.0069    0.7324   -0.9713 H   0  0  0  0  0  0  0  0  0  0  0  0
   -0.5039   -2.1456   -0.8084 H   0  0  0  0  0  0  0  0  0  0  0  0
    1.7215   -1.9688   -1.0157 H   0  0  0  0  0  0  0  0  0  0  0  0
    2.5185    0.3495   -1.5829 H   0  0  0  0  0  0  0  0  0  0  0  0
    3.0969   -0.3026    0.0205 H   0  0  0  0  0  0  0  0  0  0  0  0
    2.2709    2.1505    0.0269 H   0  0  0  0  0  0  0  0  0  0  0  0
    0.3872    2.4306    1.1901 H   0  0  0  0  0  0  0  0  0  0  0  0
   -1.3558    0.8833    1.7213 H   0  0  0  0  0  0  0  0  0  0  0  0
   -0.0993   -0.4074    1.6981 H   0  0  0  0  0  0  0  0  0  0  0  0
  1  2  1  0
  2  3  1  0
  3  4  2  0
  4  5  1  0
  5  6  1  0
  6  7  2  0
  7  8  1  0
  8  2  1  0
  1  9  1  0
  1 10  1  0
  1 11  1  0
  2 12  1  0
  3 13  1  0
  4 14  1  0
  5 15  1  0
  5 16  1  0
  6 17  1  0
  7 18  1  0
  8 19  1  0
  8 20  1  0
M  END
