
     RDKit          3D

 21 22  0  0  0  0  0  0  0  0999 V2000
    0.3626    1.5558   -0.2099 C   0  0  0  0  0  0  0  0  0  0  0  0
    0.0435    0.2409   -0.8810 C   0  0  0  0  0  0  0  0  0  0  0  0
    0.8070   -0.9394   -0.3425 C   0  0  0  0  0  0  0  0  0  0  0  0
    2.0263   -0.5730    0.4843 C   0  0  0  0  0  0  0  0  0  0  0  0
    3.0880   -0.1998   -0.3607 O   0  0  0  0  0  0  0  0  0  0  0  0
   -0.2447   -1.3099    0.4929 O   0  0  0  0  0  0  0  0  0  0  0  0
   -1.0733   -0.4642   -0.1834 C   0  0  0  0  0  0  0  0  0  0  0  0
   -2.2521    0.1855    0.3558 C   0  0  0  0  0  0  0  0  0  0  0  0
   -2.3367   -0.8228   -0.7998 C   0  0  0  0  0  0  0  0  0  0  0  0
   -0.3137    2.3320   -0.5726 H   0  0  0  0  0  0  0  0  0  0  0  0
    0.1454    1.4304    0.8819 H   0  0  0  0  0  0  0  0  0  0  0  0
    1.3878    1.8508   -0.4249 H   0  0  0  0  0  0  0  0  0  0  0  0
   -0.1045    0.2741   -1.9698 H   0  0  0  0  0  0  0  0  0  0  0  0
    1.0370   -1.6402   -1.1690 H   0  0  0  0  0  0  0  0  0  0  0  0
    2.3678   -1.4163    1.0865 H   0  0  0  0  0  0  0  0  0  0  0  0
    1.8274    0.2978    1.1377 H   0  0  0  0  0  0  0  0  0  0  0  0
    3.7794    0.2756    0.1396 H   0  0  0  0  0  0  0  0  0  0  0  0
   -2.4583    1.2344    0.0344 H   0  0  0  0  0  0  0  0  0  0  0  0
   -2.7366   -0.0789    1.3064 H   0  0  0  0  0  0  0  0  0  0  0  0
   -2.7994   -1.7958   -0.4975 H   0  0  0  0  0  0  0  0  0  0  0  0
   -2.5529   -0.4369   -1.8100 H   0  0  0  0  0  0  0  0  0  0  0  0
  1  2  1  0
  2  3  1  0
  3  4  1  0
  4  5  1  0
  3  6  1  0
  6  7  1  0
  7  8  1  0
  8  9  1  0
  7  2  1  0
  9  7  1  0
  1 10  1  0
  1 11  1  0
  1 12  1  0
  2 13  1  0
  3 14  1  0
  4 15  1  0
  4 16  1  0
  5 17  1  0
  8 18  1  0
  8 19  1  0
  9 20  1  0
  9 21  1  0
M  END
