
     RDKit          3D

 23 24  0  0  0  0  0  0  0  0999 V2000
   -2.9582   -0.3928    0.2828 C   0  0  0  0  0  0  0  0  0  0  0  0
   -1.5971    0.2713    0.1836 C   0  0  0  0  0  0  0  0  0  0  0  0
   -0.9369    0.4378   -1.1280 C   0  0  0  0  0  0  0  0  0  0  0  0
   -0.2906    1.6529   -1.3266 O   0  0  0  0  0  0  0  0  0  0  0  0
   -0.4229   -0.6197   -0.2807 C   0  0  0  0  0  0  0  0  0  0  0  0
    0.7558   -0.5563    0.6029 C   0  0  0  0  0  0  0  0  0  0  0  0
    1.4493    0.7194    0.8346 C   0  0  0  0  0  0  0  0  0  0  0  0
    2.4894    0.3350   -0.2023 C   0  0  0  0  0  0  0  0  0  0  0  0
    2.0337   -1.0927   -0.0542 C   0  0  0  0  0  0  0  0  0  0  0  0
   -2.7457   -1.4758    0.5024 H   0  0  0  0  0  0  0  0  0  0  0  0
   -3.5051   -0.3586   -0.6771 H   0  0  0  0  0  0  0  0  0  0  0  0
   -3.5485    0.0361    1.1232 H   0  0  0  0  0  0  0  0  0  0  0  0
   -1.3949    1.0158    0.9669 H   0  0  0  0  0  0  0  0  0  0  0  0
   -1.5601    0.1488   -2.0090 H   0  0  0  0  0  0  0  0  0  0  0  0
   -0.9026    2.3490   -0.9347 H   0  0  0  0  0  0  0  0  0  0  0  0
   -0.7404   -1.6740   -0.5356 H   0  0  0  0  0  0  0  0  0  0  0  0
    0.5787   -1.1597    1.5379 H   0  0  0  0  0  0  0  0  0  0  0  0
    0.9276    1.6634    0.6668 H   0  0  0  0  0  0  0  0  0  0  0  0
    1.9586    0.7156    1.8432 H   0  0  0  0  0  0  0  0  0  0  0  0
    3.5512    0.4713    0.1403 H   0  0  0  0  0  0  0  0  0  0  0  0
    2.3204    0.8038   -1.1777 H   0  0  0  0  0  0  0  0  0  0  0  0
    1.8489   -1.6329   -1.0046 H   0  0  0  0  0  0  0  0  0  0  0  0
    2.6894   -1.6578    0.6458 H   0  0  0  0  0  0  0  0  0  0  0  0
  1  2  1  0
  2  3  1  0
  3  4  1  0
  3  5  1  0
  5  6  1  0
  6  7  1  0
  7  8  1  0
  8  9  1  0
  5  2  1  0
  9  6  1  0
  1 10  1  0
  1 11  1  0
  1 12  1  0
  2 13  1  0
  3 14  1  0
  4 15  1  0
  5 16  1  0
  6 17  1  0
  7 18  1  0
  7 19  1  0
  8 20  1  0
  8 21  1  0
  9 22  1  0
  9 23  1  0
M  END
