
     RDKit          3D

 21 22  0  0  0  0  0  0  0  0999 V2000
   -2.3077   -0.6791   -0.1118 C   0  0  0  0  0  0  0  0  0  0  0  0
   -0.9205   -0.1702    0.1586 C   0  0  0  0  0  0  0  0  0  0  0  0
   -0.8089    1.3338   -0.0482 C   0  0  0  0  0  0  0  0  0  0  0  0
    0.5066    1.7320    0.5209 C   0  0  0  0  0  0  0  0  0  0  0  0
    1.6728    1.1392    0.3092 C   0  0  0  0  0  0  0  0  0  0  0  0
    1.9707   -0.1349   -0.4385 C   0  0  0  0  0  0  0  0  0  0  0  0
    1.3340   -1.2820    0.2693 C   0  0  0  0  0  0  0  0  0  0  0  0
    0.1029   -0.9505   -0.5879 C   0  0  0  0  0  0  0  0  0  0  0  0
    0.9407   -0.2307   -1.4046 O   0  0  0  0  0  0  0  0  0  0  0  0
   -2.8855   -0.8468    0.8291 H   0  0  0  0  0  0  0  0  0  0  0  0
   -2.2543   -1.6811   -0.6015 H   0  0  0  0  0  0  0  0  0  0  0  0
   -2.8853    0.0065   -0.7352 H   0  0  0  0  0  0  0  0  0  0  0  0
   -0.7313   -0.3314    1.2550 H   0  0  0  0  0  0  0  0  0  0  0  0
   -0.7423    1.4687   -1.1646 H   0  0  0  0  0  0  0  0  0  0  0  0
   -1.6489    1.8600    0.3903 H   0  0  0  0  0  0  0  0  0  0  0  0
    0.4592    2.5960    1.1655 H   0  0  0  0  0  0  0  0  0  0  0  0
    2.5752    1.6108    0.7202 H   0  0  0  0  0  0  0  0  0  0  0  0
    2.9800   -0.2365   -0.8132 H   0  0  0  0  0  0  0  0  0  0  0  0
    1.1844   -1.0900    1.3478 H   0  0  0  0  0  0  0  0  0  0  0  0
    1.7787   -2.2679    0.0327 H   0  0  0  0  0  0  0  0  0  0  0  0
   -0.3208   -1.8460   -1.0932 H   0  0  0  0  0  0  0  0  0  0  0  0
  1  2  1  0
  2  3  1  0
  3  4  1  0
  4  5  2  0
  5  6  1  0
  6  7  1  0
  7  8  1  0
  8  9  1  0
  8  2  1  0
  9  6  1  0
  1 10  1  0
  1 11  1  0
  1 12  1  0
  2 13  1  0
  3 14  1  0
  3 15  1  0
  4 16  1  0
  5 17  1  0
  6 18  1  0
  7 19  1  0
  7 20  1  0
  8 21  1  0
M  END
