
     RDKit          3D

 19 20  0  0  0  0  0  0  0  0999 V2000
   -1.0760   -1.6246   -0.1550 C   0  0  0  0  0  0  0  0  0  0  0  0
   -0.8217   -0.2906    0.4257 C   0  0  0  0  0  0  0  0  0  0  0  0
   -0.5934    0.7938   -0.6462 C   0  0  0  0  0  0  0  0  0  0  0  0
   -1.6183    1.6957   -0.6935 O   0  0  0  0  0  0  0  0  0  0  0  0
    0.6821    1.3504   -0.0443 C   0  0  0  0  0  0  0  0  0  0  0  0
    0.5042    1.2578    1.3555 O   0  0  0  0  0  0  0  0  0  0  0  0
    0.4912   -0.1406    1.1366 C   0  0  0  0  0  0  0  0  0  0  0  0
    1.5273    0.1224    0.0763 C   0  0  0  0  0  0  0  0  0  0  0  0
    1.5306   -0.7261   -1.0018 O   0  0  0  0  0  0  0  0  0  0  0  0
   -1.7527   -1.4907   -1.0492 H   0  0  0  0  0  0  0  0  0  0  0  0
   -1.7097   -2.2045    0.5720 H   0  0  0  0  0  0  0  0  0  0  0  0
   -0.2144   -2.1930   -0.4888 H   0  0  0  0  0  0  0  0  0  0  0  0
   -1.6454    0.0443    1.0603 H   0  0  0  0  0  0  0  0  0  0  0  0
   -0.3473    0.3032   -1.5901 H   0  0  0  0  0  0  0  0  0  0  0  0
   -1.7194    2.1310    0.1643 H   0  0  0  0  0  0  0  0  0  0  0  0
    1.0864    2.2508   -0.4333 H   0  0  0  0  0  0  0  0  0  0  0  0
    0.7289   -0.7685    1.9628 H   0  0  0  0  0  0  0  0  0  0  0  0
    2.5059    0.3691    0.5199 H   0  0  0  0  0  0  0  0  0  0  0  0
    2.4420   -0.8801   -1.2966 H   0  0  0  0  0  0  0  0  0  0  0  0
  1  2  1  0
  2  3  1  0
  3  4  1  0
  3  5  1  0
  5  6  1  0
  6  7  1  0
  7  8  1  0
  8  9  1  0
  7  2  1  0
  8  5  1  0
  1 10  1  0
  1 11  1  0
  1 12  1  0
  2 13  1  0
  3 14  1  0
  4 15  1  0
  5 16  1  0
  7 17  1  0
  8 18  1  0
  9 19  1  0
M  END
