
     RDKit          3D

 19 19  0  0  0  0  0  0  0  0999 V2000
    1.7968    0.6852    0.1594 C   0  0  0  0  0  0  0  0  0  0  0  0
    0.6432   -0.0790   -0.4153 C   0  0  0  0  0  0  0  0  0  0  0  0
    0.0657   -1.1388    0.5214 C   0  0  0  0  0  0  0  0  0  0  0  0
    0.5207   -2.3917    0.1298 O   0  0  0  0  0  0  0  0  0  0  0  0
   -1.3004   -0.7576    0.0010 C   0  0  0  0  0  0  0  0  0  0  0  0
   -0.6962    0.6039   -0.3724 C   0  0  0  0  0  0  0  0  0  0  0  0
   -1.0844    1.0418   -1.6253 O   0  0  0  0  0  0  0  0  0  0  0  0
   -0.9041    1.5867    0.6834 C   0  0  0  0  0  0  0  0  0  0  0  0
   -1.3776    2.6667    0.4160 O   0  0  0  0  0  0  0  0  0  0  0  0
    1.5489    1.3370    0.9950 H   0  0  0  0  0  0  0  0  0  0  0  0
    2.3383    1.1900   -0.6693 H   0  0  0  0  0  0  0  0  0  0  0  0
    2.5167   -0.0843    0.5662 H   0  0  0  0  0  0  0  0  0  0  0  0
    0.8457   -0.4848   -1.4065 H   0  0  0  0  0  0  0  0  0  0  0  0
    0.2311   -0.9318    1.5932 H   0  0  0  0  0  0  0  0  0  0  0  0
   -0.1913   -3.0654    0.2341 H   0  0  0  0  0  0  0  0  0  0  0  0
   -1.5105   -1.3155   -0.9284 H   0  0  0  0  0  0  0  0  0  0  0  0
   -2.1063   -0.7049    0.7432 H   0  0  0  0  0  0  0  0  0  0  0  0
   -0.6938    0.4758   -2.3265 H   0  0  0  0  0  0  0  0  0  0  0  0
   -0.6424    1.3666    1.7009 H   0  0  0  0  0  0  0  0  0  0  0  0
  1  2  1  0
  2  3  1  0
  3  4  1  0
  3  5  1  0
  5  6  1  0
  6  7  1  0
  6  8  1  0
  8  9  2  0
  6  2  1  0
  1 10  1  0
  1 11  1  0
  1 12  1  0
  2 13  1  0
  3 14  1  0
  4 15  1  0
  5 16  1  0
  5 17  1  0
  7 18  1  0
  8 19  1  0
M  END
