
     RDKit          3D

 23 24  0  0  0  0  0  0  0  0999 V2000
    1.9615   -1.0188   -0.4247 C   0  0  0  0  0  0  0  0  0  0  0  0
    0.5132   -0.6271   -0.7694 C   0  0  0  0  0  0  0  0  0  0  0  0
   -0.4554   -1.4695   -0.0431 C   0  0  0  0  0  0  0  0  0  0  0  0
   -1.4663   -0.7651    0.7788 C   0  0  0  0  0  0  0  0  0  0  0  0
   -1.9232    0.5419    0.2370 C   0  0  0  0  0  0  0  0  0  0  0  0
   -0.7846    1.4396   -0.0888 C   0  0  0  0  0  0  0  0  0  0  0  0
   -0.1286    1.9135    1.0614 O   0  0  0  0  0  0  0  0  0  0  0  0
    1.0844    1.4870    0.5361 C   0  0  0  0  0  0  0  0  0  0  0  0
    0.4110    0.8277   -0.6492 C   0  0  0  0  0  0  0  0  0  0  0  0
    2.1719   -2.0223   -0.8542 H   0  0  0  0  0  0  0  0  0  0  0  0
    2.5856   -0.2188   -0.8988 H   0  0  0  0  0  0  0  0  0  0  0  0
    2.1220   -1.0841    0.6482 H   0  0  0  0  0  0  0  0  0  0  0  0
    0.4328   -0.8987   -1.8665 H   0  0  0  0  0  0  0  0  0  0  0  0
    0.1176   -2.1579    0.6466 H   0  0  0  0  0  0  0  0  0  0  0  0
   -1.0123   -2.1887   -0.7158 H   0  0  0  0  0  0  0  0  0  0  0  0
   -1.1001   -0.6037    1.8173 H   0  0  0  0  0  0  0  0  0  0  0  0
   -2.3826   -1.4149    0.8990 H   0  0  0  0  0  0  0  0  0  0  0  0
   -2.5382    1.0396    1.0400 H   0  0  0  0  0  0  0  0  0  0  0  0
   -2.5624    0.4507   -0.6738 H   0  0  0  0  0  0  0  0  0  0  0  0
   -1.1592    2.3475   -0.6465 H   0  0  0  0  0  0  0  0  0  0  0  0
    1.5588    0.7797    1.2573 H   0  0  0  0  0  0  0  0  0  0  0  0
    1.8039    2.2813    0.2955 H   0  0  0  0  0  0  0  0  0  0  0  0
    0.7501    1.3613   -1.5864 H   0  0  0  0  0  0  0  0  0  0  0  0
  1  2  1  0
  2  3  1  0
  3  4  1  0
  4  5  1  0
  5  6  1  0
  6  7  1  0
  7  8  1  0
  8  9  1  0
  9  2  1  0
  9  6  1  0
  1 10  1  0
  1 11  1  0
  1 12  1  0
  2 13  1  0
  3 14  1  0
  3 15  1  0
  4 16  1  0
  4 17  1  0
  5 18  1  0
  5 19  1  0
  6 20  1  0
  8 21  1  0
  8 22  1  0
  9 23  1  0
M  END
