
     RDKit          3D

 23 24  0  0  0  0  0  0  0  0999 V2000
   -2.0606   -0.8000    0.8711 C   0  0  0  0  0  0  0  0  0  0  0  0
   -1.3146   -0.3473   -0.3900 C   0  0  0  0  0  0  0  0  0  0  0  0
   -1.3577    1.1341   -0.5520 C   0  0  0  0  0  0  0  0  0  0  0  0
   -0.2591    1.8424    0.1429 C   0  0  0  0  0  0  0  0  0  0  0  0
    0.9486    1.2835    0.1606 O   0  0  0  0  0  0  0  0  0  0  0  0
    1.1548   -0.0083   -0.0399 C   0  0  0  0  0  0  0  0  0  0  0  0
    2.5368   -0.3682   -0.6387 C   0  0  0  0  0  0  0  0  0  0  0  0
    2.3136   -0.6301    0.7920 C   0  0  0  0  0  0  0  0  0  0  0  0
    0.0609   -0.8893   -0.4706 C   0  0  0  0  0  0  0  0  0  0  0  0
   -1.9182   -1.9054    0.9067 H   0  0  0  0  0  0  0  0  0  0  0  0
   -3.1437   -0.6105    0.6584 H   0  0  0  0  0  0  0  0  0  0  0  0
   -1.7144   -0.2730    1.7573 H   0  0  0  0  0  0  0  0  0  0  0  0
   -1.9164   -0.7866   -1.2391 H   0  0  0  0  0  0  0  0  0  0  0  0
   -2.3454    1.5168   -0.1941 H   0  0  0  0  0  0  0  0  0  0  0  0
   -1.3380    1.3718   -1.6476 H   0  0  0  0  0  0  0  0  0  0  0  0
   -0.1717    2.8685   -0.3254 H   0  0  0  0  0  0  0  0  0  0  0  0
   -0.6043    2.0630    1.1923 H   0  0  0  0  0  0  0  0  0  0  0  0
    2.5926   -1.2514   -1.2943 H   0  0  0  0  0  0  0  0  0  0  0  0
    3.1689    0.4850   -0.9823 H   0  0  0  0  0  0  0  0  0  0  0  0
    2.8183    0.0410    1.5153 H   0  0  0  0  0  0  0  0  0  0  0  0
    2.1797   -1.6623    1.1341 H   0  0  0  0  0  0  0  0  0  0  0  0
    0.2764   -1.2479   -1.5175 H   0  0  0  0  0  0  0  0  0  0  0  0
    0.0936   -1.8257    0.1610 H   0  0  0  0  0  0  0  0  0  0  0  0
  1  2  1  0
  2  3  1  0
  3  4  1  0
  4  5  1  0
  5  6  1  0
  6  7  1  0
  7  8  1  0
  6  9  1  0
  9  2  1  0
  8  6  1  0
  1 10  1  0
  1 11  1  0
  1 12  1  0
  2 13  1  0
  3 14  1  0
  3 15  1  0
  4 16  1  0
  4 17  1  0
  7 18  1  0
  7 19  1  0
  8 20  1  0
  8 21  1  0
  9 22  1  0
  9 23  1  0
M  END
