
     RDKit          3D

 23 24  0  0  0  0  0  0  0  0999 V2000
    1.6797   -0.7717   -0.6497 C   0  0  0  0  0  0  0  0  0  0  0  0
    0.7948   -0.4208    0.4956 C   0  0  0  0  0  0  0  0  0  0  0  0
    0.9942    1.0363    0.9351 C   0  0  0  0  0  0  0  0  0  0  0  0
    0.4504    1.8405   -0.2044 C   0  0  0  0  0  0  0  0  0  0  0  0
   -0.8063    1.2160    0.3253 C   0  0  0  0  0  0  0  0  0  0  0  0
   -0.1977    1.3092    1.6011 O   0  0  0  0  0  0  0  0  0  0  0  0
   -0.6729   -0.2553    0.0539 C   0  0  0  0  0  0  0  0  0  0  0  0
   -0.8843   -0.6577   -1.3479 C   0  0  0  0  0  0  0  0  0  0  0  0
   -1.5090   -1.0051    1.0281 C   0  0  0  0  0  0  0  0  0  0  0  0
    1.3146   -0.4942   -1.6352 H   0  0  0  0  0  0  0  0  0  0  0  0
    1.8567   -1.8819   -0.6199 H   0  0  0  0  0  0  0  0  0  0  0  0
    2.6805   -0.2854   -0.4725 H   0  0  0  0  0  0  0  0  0  0  0  0
    0.8898   -1.0891    1.3500 H   0  0  0  0  0  0  0  0  0  0  0  0
    1.9199    1.2926    1.3867 H   0  0  0  0  0  0  0  0  0  0  0  0
    0.5095    2.9207    0.0294 H   0  0  0  0  0  0  0  0  0  0  0  0
    0.7396    1.5346   -1.2099 H   0  0  0  0  0  0  0  0  0  0  0  0
   -1.7437    1.7022    0.1929 H   0  0  0  0  0  0  0  0  0  0  0  0
   -1.9756   -0.8905   -1.4868 H   0  0  0  0  0  0  0  0  0  0  0  0
   -0.3764   -1.6538   -1.5058 H   0  0  0  0  0  0  0  0  0  0  0  0
   -0.6197    0.0651   -2.1160 H   0  0  0  0  0  0  0  0  0  0  0  0
   -2.5490   -1.0231    0.6746 H   0  0  0  0  0  0  0  0  0  0  0  0
   -1.0688   -2.0177    1.1554 H   0  0  0  0  0  0  0  0  0  0  0  0
   -1.4264   -0.4710    2.0200 H   0  0  0  0  0  0  0  0  0  0  0  0
  1  2  1  0
  2  3  1  0
  3  4  1  0
  4  5  1  0
  5  6  1  0
  5  7  1  0
  7  8  1  0
  7  9  1  0
  7  2  1  0
  6  3  1  0
  1 10  1  0
  1 11  1  0
  1 12  1  0
  2 13  1  0
  3 14  1  0
  4 15  1  0
  4 16  1  0
  5 17  1  0
  8 18  1  0
  8 19  1  0
  8 20  1  0
  9 21  1  0
  9 22  1  0
  9 23  1  0
M  END
