
     RDKit          3D

 19 20  0  0  0  0  0  0  0  0999 V2000
    2.2507   -0.3184    0.3337 C   0  0  0  0  0  0  0  0  0  0  0  0
    0.9687   -0.3748   -0.4490 C   0  0  0  0  0  0  0  0  0  0  0  0
   -0.0590   -1.3294    0.0813 C   0  0  0  0  0  0  0  0  0  0  0  0
   -0.1700   -0.4792    1.1711 O   0  0  0  0  0  0  0  0  0  0  0  0
   -0.1706    0.4343    0.1190 C   0  0  0  0  0  0  0  0  0  0  0  0
   -0.2479    1.8004    0.2034 C   0  0  0  0  0  0  0  0  0  0  0  0
   -1.0924   -0.4981   -0.5976 C   0  0  0  0  0  0  0  0  0  0  0  0
   -2.4694   -0.5938   -0.1218 C   0  0  0  0  0  0  0  0  0  0  0  0
   -2.8034   -0.3349    1.0004 O   0  0  0  0  0  0  0  0  0  0  0  0
    2.9407   -1.0705   -0.1211 H   0  0  0  0  0  0  0  0  0  0  0  0
    2.0705   -0.6587    1.3691 H   0  0  0  0  0  0  0  0  0  0  0  0
    2.7478    0.6574    0.2594 H   0  0  0  0  0  0  0  0  0  0  0  0
    1.0447   -0.3553   -1.5372 H   0  0  0  0  0  0  0  0  0  0  0  0
    0.0080   -2.3358    0.1046 H   0  0  0  0  0  0  0  0  0  0  0  0
    0.4290    2.3653   -0.5029 H   0  0  0  0  0  0  0  0  0  0  0  0
    0.0103    2.2348    1.2141 H   0  0  0  0  0  0  0  0  0  0  0  0
   -1.2686    2.2348   -0.0123 H   0  0  0  0  0  0  0  0  0  0  0  0
   -0.9515   -0.4580   -1.6837 H   0  0  0  0  0  0  0  0  0  0  0  0
   -3.2375   -0.9200   -0.8305 H   0  0  0  0  0  0  0  0  0  0  0  0
  1  2  1  0
  2  3  1  0
  3  4  1  0
  4  5  1  0
  5  6  1  0
  5  7  1  0
  7  8  1  0
  8  9  2  0
  5  2  1  0
  7  3  1  0
  1 10  1  0
  1 11  1  0
  1 12  1  0
  2 13  1  0
  3 14  1  0
  6 15  1  0
  6 16  1  0
  6 17  1  0
  7 18  1  0
  8 19  1  0
M  END
