
     RDKit          3D

 20 21  0  0  0  0  0  0  0  0999 V2000
   -2.2837   -0.5123    0.6658 C   0  0  0  0  0  0  0  0  0  0  0  0
   -1.0279   -0.6606   -0.1271 C   0  0  0  0  0  0  0  0  0  0  0  0
    0.1882   -1.1351    0.6149 C   0  0  0  0  0  0  0  0  0  0  0  0
    0.2015    0.1075    1.2393 O   0  0  0  0  0  0  0  0  0  0  0  0
   -0.0581    0.4711   -0.0699 C   0  0  0  0  0  0  0  0  0  0  0  0
   -0.2110    1.7417   -0.5791 C   0  0  0  0  0  0  0  0  0  0  0  0
    1.0138   -0.5211   -0.4620 C   0  0  0  0  0  0  0  0  0  0  0  0
    2.4123   -0.1617   -0.0642 C   0  0  0  0  0  0  0  0  0  0  0  0
   -2.4949   -1.4915    1.1520 H   0  0  0  0  0  0  0  0  0  0  0  0
   -3.1130   -0.2815   -0.0055 H   0  0  0  0  0  0  0  0  0  0  0  0
   -2.1560    0.3097    1.3877 H   0  0  0  0  0  0  0  0  0  0  0  0
   -1.1616   -1.1102   -1.1232 H   0  0  0  0  0  0  0  0  0  0  0  0
    0.3115   -2.0303    1.0589 H   0  0  0  0  0  0  0  0  0  0  0  0
   -1.2593    1.9493   -0.9527 H   0  0  0  0  0  0  0  0  0  0  0  0
    0.4303    1.9664   -1.4833 H   0  0  0  0  0  0  0  0  0  0  0  0
   -0.0109    2.6113    0.1147 H   0  0  0  0  0  0  0  0  0  0  0  0
    0.9041   -0.9164   -1.4790 H   0  0  0  0  0  0  0  0  0  0  0  0
    3.0344   -1.0921   -0.1388 H   0  0  0  0  0  0  0  0  0  0  0  0
    2.4039    0.1739    0.9892 H   0  0  0  0  0  0  0  0  0  0  0  0
    2.8762    0.5820   -0.7375 H   0  0  0  0  0  0  0  0  0  0  0  0
  1  2  1  0
  2  3  1  0
  3  4  1  0
  4  5  1  0
  5  6  1  0
  5  7  1  0
  7  8  1  0
  5  2  1  0
  7  3  1  0
  1  9  1  0
  1 10  1  0
  1 11  1  0
  2 12  1  0
  3 13  1  0
  6 14  1  0
  6 15  1  0
  6 16  1  0
  7 17  1  0
  8 18  1  0
  8 19  1  0
  8 20  1  0
M  END
