
     RDKit          3D

 19 20  0  0  0  0  0  0  0  0999 V2000
    2.0690   -0.2052   -0.4551 C   0  0  0  0  0  0  0  0  0  0  0  0
    0.7061    0.4012   -0.4511 C   0  0  0  0  0  0  0  0  0  0  0  0
    0.1771    0.7872    0.9379 C   0  0  0  0  0  0  0  0  0  0  0  0
   -0.1528   -0.6943    1.0776 C   0  0  0  0  0  0  0  0  0  0  0  0
   -0.4487   -0.5718   -0.4201 C   0  0  0  0  0  0  0  0  0  0  0  0
   -0.4452   -1.6577   -1.1723 O   0  0  0  0  0  0  0  0  0  0  0  0
   -1.6635    0.3389   -0.3804 C   0  0  0  0  0  0  0  0  0  0  0  0
   -1.1201    1.3423    0.5790 C   0  0  0  0  0  0  0  0  0  0  0  0
   -1.6363    2.3531    0.9532 O   0  0  0  0  0  0  0  0  0  0  0  0
    2.7820    0.5609   -0.8455 H   0  0  0  0  0  0  0  0  0  0  0  0
    2.1480   -1.0767   -1.1311 H   0  0  0  0  0  0  0  0  0  0  0  0
    2.4393   -0.4823    0.5549 H   0  0  0  0  0  0  0  0  0  0  0  0
    0.5110    1.2283   -1.1407 H   0  0  0  0  0  0  0  0  0  0  0  0
    0.8355    1.2370    1.6179 H   0  0  0  0  0  0  0  0  0  0  0  0
   -1.0896   -0.8041    1.6539 H   0  0  0  0  0  0  0  0  0  0  0  0
    0.6800   -1.3460    1.3305 H   0  0  0  0  0  0  0  0  0  0  0  0
   -1.3682   -1.9521   -1.3843 H   0  0  0  0  0  0  0  0  0  0  0  0
   -2.5206   -0.2242    0.0337 H   0  0  0  0  0  0  0  0  0  0  0  0
   -1.9029    0.7654   -1.3579 H   0  0  0  0  0  0  0  0  0  0  0  0
  1  2  1  0
  2  3  1  0
  3  4  1  0
  4  5  1  0
  5  6  1  0
  5  7  1  0
  7  8  1  0
  8  9  2  0
  5  2  1  0
  8  3  1  0
  1 10  1  0
  1 11  1  0
  1 12  1  0
  2 13  1  0
  3 14  1  0
  4 15  1  0
  4 16  1  0
  6 17  1  0
  7 18  1  0
  7 19  1  0
M  END
