
     RDKit          3D

 19 20  0  0  0  0  0  0  0  0999 V2000
   -1.9373   -0.9602    0.0272 C   0  0  0  0  0  0  0  0  0  0  0  0
   -0.6598   -0.4712   -0.5756 C   0  0  0  0  0  0  0  0  0  0  0  0
   -0.6677    1.0117   -0.5428 C   0  0  0  0  0  0  0  0  0  0  0  0
   -1.4409    1.6845   -1.2156 O   0  0  0  0  0  0  0  0  0  0  0  0
    0.3499    1.5416    0.3809 C   0  0  0  0  0  0  0  0  0  0  0  0
    0.9419    0.3472    1.0494 C   0  0  0  0  0  0  0  0  0  0  0  0
    2.2896    0.1136    0.7066 O   0  0  0  0  0  0  0  0  0  0  0  0
    1.8079   -0.3531   -0.5290 C   0  0  0  0  0  0  0  0  0  0  0  0
    0.5612   -0.8241    0.1960 C   0  0  0  0  0  0  0  0  0  0  0  0
   -2.3812   -0.1895    0.6897 H   0  0  0  0  0  0  0  0  0  0  0  0
   -1.8365   -1.9125    0.5844 H   0  0  0  0  0  0  0  0  0  0  0  0
   -2.7106   -1.1605   -0.7657 H   0  0  0  0  0  0  0  0  0  0  0  0
   -0.6223   -0.8242   -1.6364 H   0  0  0  0  0  0  0  0  0  0  0  0
    1.0970    2.1599   -0.1501 H   0  0  0  0  0  0  0  0  0  0  0  0
   -0.1304    2.1809    1.1595 H   0  0  0  0  0  0  0  0  0  0  0  0
    0.7273    0.1892    2.1063 H   0  0  0  0  0  0  0  0  0  0  0  0
    2.3912   -1.1952   -0.9234 H   0  0  0  0  0  0  0  0  0  0  0  0
    1.6012    0.4773   -1.2110 H   0  0  0  0  0  0  0  0  0  0  0  0
    0.6194   -1.8153    0.6495 H   0  0  0  0  0  0  0  0  0  0  0  0
  1  2  1  0
  2  3  1  0
  3  4  2  0
  3  5  1  0
  5  6  1  0
  6  7  1  0
  7  8  1  0
  8  9  1  0
  9  2  1  0
  9  6  1  0
  1 10  1  0
  1 11  1  0
  1 12  1  0
  2 13  1  0
  5 14  1  0
  5 15  1  0
  6 16  1  0
  8 17  1  0
  8 18  1  0
  9 19  1  0
M  END
