
     RDKit          3D

 23 24  0  0  0  0  0  0  0  0999 V2000
    2.2253   -0.3544   -0.0217 C   0  0  0  0  0  0  0  0  0  0  0  0
    0.7500   -0.5742   -0.1702 C   0  0  0  0  0  0  0  0  0  0  0  0
    0.1620   -1.4297    0.9242 C   0  0  0  0  0  0  0  0  0  0  0  0
   -1.0405   -1.9111    0.5087 O   0  0  0  0  0  0  0  0  0  0  0  0
   -1.7953   -1.1101   -0.2780 C   0  0  0  0  0  0  0  0  0  0  0  0
   -1.5023    0.3351   -0.2709 C   0  0  0  0  0  0  0  0  0  0  0  0
   -0.7828    0.9921   -1.4303 C   0  0  0  0  0  0  0  0  0  0  0  0
   -0.0506    0.6955   -0.2029 C   0  0  0  0  0  0  0  0  0  0  0  0
    0.2684    1.7379    0.8304 C   0  0  0  0  0  0  0  0  0  0  0  0
    2.5697    0.2275   -0.8892 H   0  0  0  0  0  0  0  0  0  0  0  0
    2.7151   -1.3482   -0.0921 H   0  0  0  0  0  0  0  0  0  0  0  0
    2.5342    0.0948    0.9199 H   0  0  0  0  0  0  0  0  0  0  0  0
    0.6045   -1.1482   -1.1271 H   0  0  0  0  0  0  0  0  0  0  0  0
   -0.0295   -0.7475    1.7993 H   0  0  0  0  0  0  0  0  0  0  0  0
    0.8784   -2.2234    1.1880 H   0  0  0  0  0  0  0  0  0  0  0  0
   -1.7656   -1.4742   -1.3369 H   0  0  0  0  0  0  0  0  0  0  0  0
   -2.8754   -1.2460    0.0254 H   0  0  0  0  0  0  0  0  0  0  0  0
   -2.2499    1.0365    0.2026 H   0  0  0  0  0  0  0  0  0  0  0  0
   -0.9738    2.0350   -1.6846 H   0  0  0  0  0  0  0  0  0  0  0  0
   -0.6320    0.3343   -2.3081 H   0  0  0  0  0  0  0  0  0  0  0  0
    1.0823    1.4013    1.5084 H   0  0  0  0  0  0  0  0  0  0  0  0
   -0.6043    1.9437    1.5163 H   0  0  0  0  0  0  0  0  0  0  0  0
    0.5119    2.7332    0.3888 H   0  0  0  0  0  0  0  0  0  0  0  0
  1  2  1  0
  2  3  1  0
  3  4  1  0
  4  5  1  0
  5  6  1  0
  6  7  1  0
  7  8  1  0
  8  9  1  0
  8  2  1  0
  8  6  1  0
  1 10  1  0
  1 11  1  0
  1 12  1  0
  2 13  1  0
  3 14  1  0
  3 15  1  0
  5 16  1  0
  5 17  1  0
  6 18  1  0
  7 19  1  0
  7 20  1  0
  9 21  1  0
  9 22  1  0
  9 23  1  0
M  END
