
     RDKit          3D

 17 17  0  0  0  0  0  0  0  0999 V2000
    1.8488    0.0180   -0.7483 C   0  0  0  0  0  0  0  0  0  0  0  0
    0.8083    0.5058    0.1737 C   0  0  0  0  0  0  0  0  0  0  0  0
    0.2886   -0.4615    1.2208 C   0  0  0  0  0  0  0  0  0  0  0  0
   -0.6016   -0.0131    0.0859 C   0  0  0  0  0  0  0  0  0  0  0  0
   -1.6870    0.9836    0.3560 C   0  0  0  0  0  0  0  0  0  0  0  0
   -0.8800   -1.0179   -0.9378 C   0  0  0  0  0  0  0  0  0  0  0  0
   -1.0664   -2.1952   -0.5074 O   0  0  0  0  0  0  0  0  0  0  0  0
    1.5021   -0.4962   -1.6625 H   0  0  0  0  0  0  0  0  0  0  0  0
    2.5262   -0.7151   -0.2125 H   0  0  0  0  0  0  0  0  0  0  0  0
    2.5675    0.8432   -1.0297 H   0  0  0  0  0  0  0  0  0  0  0  0
    0.8457    1.5704    0.4270 H   0  0  0  0  0  0  0  0  0  0  0  0
    0.7612   -1.5028    1.1659 H   0  0  0  0  0  0  0  0  0  0  0  0
    0.1882   -0.1020    2.2482 H   0  0  0  0  0  0  0  0  0  0  0  0
   -2.5892    0.3289    0.6197 H   0  0  0  0  0  0  0  0  0  0  0  0
   -1.5592    1.5570    1.3057 H   0  0  0  0  0  0  0  0  0  0  0  0
   -2.0276    1.5667   -0.5065 H   0  0  0  0  0  0  0  0  0  0  0  0
   -0.9256   -0.8697   -1.9982 H   0  0  0  0  0  0  0  0  0  0  0  0
  1  2  1  0
  2  3  1  0
  3  4  1  0
  4  5  1  0
  4  6  1  0
  6  7  2  0
  4  2  1  0
  1  8  1  0
  1  9  1  0
  1 10  1  0
  2 11  1  0
  3 12  1  0
  3 13  1  0
  5 14  1  0
  5 15  1  0
  5 16  1  0
  6 17  1  0
M  END
