
     RDKit          3D

 21 22  0  0  0  0  0  0  0  0999 V2000
    2.6531   -0.1103   -0.1908 C   0  0  0  0  0  0  0  0  0  0  0  0
    1.3665    0.5618    0.1581 C   0  0  0  0  0  0  0  0  0  0  0  0
    0.5690   -0.2412    1.1968 C   0  0  0  0  0  0  0  0  0  0  0  0
   -0.5998   -0.1346    0.3007 C   0  0  0  0  0  0  0  0  0  0  0  0
   -1.7178    0.7675    0.6849 C   0  0  0  0  0  0  0  0  0  0  0  0
   -2.7698    0.2957   -0.1238 O   0  0  0  0  0  0  0  0  0  0  0  0
   -2.2861   -0.7928   -0.8140 C   0  0  0  0  0  0  0  0  0  0  0  0
   -1.2902   -1.3360    0.0327 O   0  0  0  0  0  0  0  0  0  0  0  0
    0.2489    0.2971   -0.8585 C   0  0  0  0  0  0  0  0  0  0  0  0
    3.5009    0.6182   -0.0917 H   0  0  0  0  0  0  0  0  0  0  0  0
    2.5846   -0.5217   -1.2259 H   0  0  0  0  0  0  0  0  0  0  0  0
    2.8357   -0.9814    0.4813 H   0  0  0  0  0  0  0  0  0  0  0  0
    1.4050    1.6412    0.3849 H   0  0  0  0  0  0  0  0  0  0  0  0
    0.9165   -1.3065    1.2720 H   0  0  0  0  0  0  0  0  0  0  0  0
    0.4615    0.2857    2.1566 H   0  0  0  0  0  0  0  0  0  0  0  0
   -2.0276    0.5008    1.7338 H   0  0  0  0  0  0  0  0  0  0  0  0
   -1.5299    1.8340    0.5592 H   0  0  0  0  0  0  0  0  0  0  0  0
   -3.0196   -1.5594   -1.0481 H   0  0  0  0  0  0  0  0  0  0  0  0
   -1.7171   -0.4410   -1.7186 H   0  0  0  0  0  0  0  0  0  0  0  0
   -0.0696    1.2049   -1.3856 H   0  0  0  0  0  0  0  0  0  0  0  0
    0.4858   -0.5820   -1.5039 H   0  0  0  0  0  0  0  0  0  0  0  0
  1  2  1  0
  2  3  1  0
  3  4  1  0
  4  5  1  0
  5  6  1  0
  6  7  1  0
  7  8  1  0
  4  9  1  0
  9  2  1  0
  8  4  1  0
  1 10  1  0
  1 11  1  0
  1 12  1  0
  2 13  1  0
  3 14  1  0
  3 15  1  0
  5 16  1  0
  5 17  1  0
  7 18  1  0
  7 19  1  0
  9 20  1  0
  9 21  1  0
M  END
