
     RDKit          3D

 23 24  0  0  0  0  0  0  0  0999 V2000
   -2.4271    0.6263   -0.2030 C   0  0  0  0  0  0  0  0  0  0  0  0
   -1.6774   -0.6342   -0.4973 C   0  0  0  0  0  0  0  0  0  0  0  0
   -0.5283   -0.4924   -1.4674 C   0  0  0  0  0  0  0  0  0  0  0  0
    0.4618   -0.8279   -0.3701 C   0  0  0  0  0  0  0  0  0  0  0  0
    1.4540    0.2469   -0.1832 C   0  0  0  0  0  0  0  0  0  0  0  0
    2.4371   -0.1058    0.9188 C   0  0  0  0  0  0  0  0  0  0  0  0
    1.8493    0.7526    1.8140 O   0  0  0  0  0  0  0  0  0  0  0  0
    1.1966    1.3682    0.7397 C   0  0  0  0  0  0  0  0  0  0  0  0
   -0.6763   -0.9629    0.5779 C   0  0  0  0  0  0  0  0  0  0  0  0
   -2.1614    1.0450    0.8016 H   0  0  0  0  0  0  0  0  0  0  0  0
   -3.5157    0.4270   -0.1599 H   0  0  0  0  0  0  0  0  0  0  0  0
   -2.1630    1.3849   -0.9705 H   0  0  0  0  0  0  0  0  0  0  0  0
   -2.3534   -1.4550   -0.7901 H   0  0  0  0  0  0  0  0  0  0  0  0
   -0.5391   -1.2689   -2.2645 H   0  0  0  0  0  0  0  0  0  0  0  0
   -0.4064    0.5251   -1.9081 H   0  0  0  0  0  0  0  0  0  0  0  0
    0.9666   -1.8098   -0.5493 H   0  0  0  0  0  0  0  0  0  0  0  0
    1.9273    0.5430   -1.1442 H   0  0  0  0  0  0  0  0  0  0  0  0
    2.3636   -1.1733    1.2543 H   0  0  0  0  0  0  0  0  0  0  0  0
    3.4586    0.1971    0.5998 H   0  0  0  0  0  0  0  0  0  0  0  0
    1.7142    2.3066    0.4050 H   0  0  0  0  0  0  0  0  0  0  0  0
    0.1707    1.6063    1.0249 H   0  0  0  0  0  0  0  0  0  0  0  0
   -0.8492   -2.0089    0.9220 H   0  0  0  0  0  0  0  0  0  0  0  0
   -0.7024   -0.2898    1.4495 H   0  0  0  0  0  0  0  0  0  0  0  0
  1  2  1  0
  2  3  1  0
  3  4  1  0
  4  5  1  0
  5  6  1  0
  6  7  1  0
  7  8  1  0
  4  9  1  0
  9  2  1  0
  8  5  1  0
  1 10  1  0
  1 11  1  0
  1 12  1  0
  2 13  1  0
  3 14  1  0
  3 15  1  0
  4 16  1  0
  5 17  1  0
  6 18  1  0
  6 19  1  0
  8 20  1  0
  8 21  1  0
  9 22  1  0
  9 23  1  0
M  END
