
     RDKit          3D

 19 19  0  0  0  0  0  0  0  0999 V2000
   -1.5912    1.4538    0.0080 C   0  0  0  0  0  0  0  0  0  0  0  0
   -0.4876    0.6773    0.6990 C   0  0  0  0  0  0  0  0  0  0  0  0
    0.6660    0.2306   -0.1240 C   0  0  0  0  0  0  0  0  0  0  0  0
    1.9681    0.1787    0.4285 O   0  0  0  0  0  0  0  0  0  0  0  0
    3.1143    0.3691   -0.3247 C   0  0  0  0  0  0  0  0  0  0  0  0
    3.0262    0.6003   -1.5570 O   0  0  0  0  0  0  0  0  0  0  0  0
   -0.2939   -0.7567    0.4841 C   0  0  0  0  0  0  0  0  0  0  0  0
   -1.0897   -1.5405   -0.5356 C   0  0  0  0  0  0  0  0  0  0  0  0
    0.1495   -1.5459    1.5566 O   0  0  0  0  0  0  0  0  0  0  0  0
   -2.4458    1.5872    0.7209 H   0  0  0  0  0  0  0  0  0  0  0  0
   -1.9907    0.9269   -0.8720 H   0  0  0  0  0  0  0  0  0  0  0  0
   -1.2373    2.4481   -0.3559 H   0  0  0  0  0  0  0  0  0  0  0  0
   -0.2842    1.0782    1.7326 H   0  0  0  0  0  0  0  0  0  0  0  0
    0.6449    0.4367   -1.2114 H   0  0  0  0  0  0  0  0  0  0  0  0
    4.0623    0.3093    0.1929 H   0  0  0  0  0  0  0  0  0  0  0  0
   -2.0298   -1.8553   -0.0234 H   0  0  0  0  0  0  0  0  0  0  0  0
   -1.3308   -0.9426   -1.4325 H   0  0  0  0  0  0  0  0  0  0  0  0
   -0.4762   -2.4303   -0.8044 H   0  0  0  0  0  0  0  0  0  0  0  0
   -0.3741   -1.2252    2.3473 H   0  0  0  0  0  0  0  0  0  0  0  0
  1  2  1  0
  2  3  1  0
  3  4  1  0
  4  5  1  0
  5  6  2  0
  3  7  1  0
  7  8  1  0
  7  9  1  0
  7  2  1  0
  1 10  1  0
  1 11  1  0
  1 12  1  0
  2 13  1  0
  3 14  1  0
  5 15  1  0
  8 16  1  0
  8 17  1  0
  8 18  1  0
  9 19  1  0
M  END
