
     RDKit          3D

 17 17  0  0  0  0  0  0  0  0999 V2000
   -1.4421   -1.5506    0.0413 C   0  0  0  0  0  0  0  0  0  0  0  0
   -0.9197   -0.2330   -0.4745 C   0  0  0  0  0  0  0  0  0  0  0  0
   -0.4464    0.6987    0.6236 C   0  0  0  0  0  0  0  0  0  0  0  0
   -0.8272    2.1446    0.5024 C   0  0  0  0  0  0  0  0  0  0  0  0
   -0.9228    2.6894   -0.5907 O   0  0  0  0  0  0  0  0  0  0  0  0
    0.5125    0.1156   -0.3806 C   0  0  0  0  0  0  0  0  0  0  0  0
    1.4538   -0.7696    0.1616 O   0  0  0  0  0  0  0  0  0  0  0  0
    2.7778   -0.6547   -0.2267 C   0  0  0  0  0  0  0  0  0  0  0  0
    3.1024    0.2507   -1.0643 O   0  0  0  0  0  0  0  0  0  0  0  0
   -2.1373   -2.0420   -0.6596 H   0  0  0  0  0  0  0  0  0  0  0  0
   -0.6487   -2.2559    0.3289 H   0  0  0  0  0  0  0  0  0  0  0  0
   -2.0215   -1.3030    0.9725 H   0  0  0  0  0  0  0  0  0  0  0  0
   -1.4964    0.2249   -1.3014 H   0  0  0  0  0  0  0  0  0  0  0  0
   -0.4000    0.3480    1.6545 H   0  0  0  0  0  0  0  0  0  0  0  0
   -1.0341    2.7715    1.3636 H   0  0  0  0  0  0  0  0  0  0  0  0
    0.8980    0.8565   -1.0923 H   0  0  0  0  0  0  0  0  0  0  0  0
    3.5519   -1.2912    0.1417 H   0  0  0  0  0  0  0  0  0  0  0  0
  1  2  1  0
  2  3  1  0
  3  4  1  0
  4  5  2  0
  3  6  1  0
  6  7  1  0
  7  8  1  0
  8  9  2  0
  6  2  1  0
  1 10  1  0
  1 11  1  0
  1 12  1  0
  2 13  1  0
  3 14  1  0
  4 15  1  0
  6 16  1  0
  8 17  1  0
M  END
