
     RDKit          3D

 21 21  0  0  0  0  0  0  0  0999 V2000
   -2.0046   -0.2044    0.6646 C   0  0  0  0  0  0  0  0  0  0  0  0
   -1.1647    0.4157   -0.4075 C   0  0  0  0  0  0  0  0  0  0  0  0
   -0.4731    1.6522    0.1817 C   0  0  0  0  0  0  0  0  0  0  0  0
    0.9494    1.2817    0.2117 C   0  0  0  0  0  0  0  0  0  0  0  0
    1.8926    2.0139    0.1675 O   0  0  0  0  0  0  0  0  0  0  0  0
    0.9892   -0.1852    0.3079 C   0  0  0  0  0  0  0  0  0  0  0  0
    2.3359   -0.7748   -0.0192 C   0  0  0  0  0  0  0  0  0  0  0  0
   -0.0552   -0.5491   -0.7490 C   0  0  0  0  0  0  0  0  0  0  0  0
   -0.4342   -1.8643   -0.6647 O   0  0  0  0  0  0  0  0  0  0  0  0
   -2.7358   -0.9370    0.2248 H   0  0  0  0  0  0  0  0  0  0  0  0
   -1.3912   -0.8048    1.3719 H   0  0  0  0  0  0  0  0  0  0  0  0
   -2.5134    0.5687    1.2428 H   0  0  0  0  0  0  0  0  0  0  0  0
   -1.7833    0.6882   -1.2850 H   0  0  0  0  0  0  0  0  0  0  0  0
   -0.8700    1.8699    1.1960 H   0  0  0  0  0  0  0  0  0  0  0  0
   -0.6898    2.5515   -0.4302 H   0  0  0  0  0  0  0  0  0  0  0  0
    0.6689   -0.5188    1.3147 H   0  0  0  0  0  0  0  0  0  0  0  0
    2.7746   -0.2768   -0.8825 H   0  0  0  0  0  0  0  0  0  0  0  0
    2.1646   -1.8758   -0.1781 H   0  0  0  0  0  0  0  0  0  0  0  0
    2.9568   -0.7155    0.9023 H   0  0  0  0  0  0  0  0  0  0  0  0
    0.3613   -0.2508   -1.7259 H   0  0  0  0  0  0  0  0  0  0  0  0
   -0.9781   -2.0843   -1.4437 H   0  0  0  0  0  0  0  0  0  0  0  0
  1  2  1  0
  2  3  1  0
  3  4  1  0
  4  5  2  0
  4  6  1  0
  6  7  1  0
  6  8  1  0
  8  9  1  0
  8  2  1  0
  1 10  1  0
  1 11  1  0
  1 12  1  0
  2 13  1  0
  3 14  1  0
  3 15  1  0
  6 16  1  0
  7 17  1  0
  7 18  1  0
  7 19  1  0
  8 20  1  0
  9 21  1  0
M  END
