
     RDKit          3D

 25 25  0  0  0  0  0  0  0  0999 V2000
    2.8401    0.1016    0.3868 C   0  0  0  0  0  0  0  0  0  0  0  0
    1.3840   -0.3373    0.5430 C   0  0  0  0  0  0  0  0  0  0  0  0
    0.9463   -1.0748   -0.6860 C   0  0  0  0  0  0  0  0  0  0  0  0
   -0.5325   -1.1298   -0.8755 C   0  0  0  0  0  0  0  0  0  0  0  0
   -1.2344    0.1706   -0.6233 C   0  0  0  0  0  0  0  0  0  0  0  0
   -2.7294   -0.0886   -0.7818 C   0  0  0  0  0  0  0  0  0  0  0  0
   -0.9020    0.6568    0.7592 C   0  0  0  0  0  0  0  0  0  0  0  0
   -1.5308    1.8696    1.0435 O   0  0  0  0  0  0  0  0  0  0  0  0
    0.5824    0.9002    0.8214 C   0  0  0  0  0  0  0  0  0  0  0  0
    3.3644   -0.6836   -0.1732 H   0  0  0  0  0  0  0  0  0  0  0  0
    2.8674    1.0799   -0.1377 H   0  0  0  0  0  0  0  0  0  0  0  0
    3.2279    0.2255    1.4161 H   0  0  0  0  0  0  0  0  0  0  0  0
    1.3261   -0.9894    1.4411 H   0  0  0  0  0  0  0  0  0  0  0  0
    1.3030   -2.1399   -0.5663 H   0  0  0  0  0  0  0  0  0  0  0  0
    1.4330   -0.6404   -1.5960 H   0  0  0  0  0  0  0  0  0  0  0  0
   -0.7174   -1.3887   -1.9578 H   0  0  0  0  0  0  0  0  0  0  0  0
   -0.9760   -1.9598   -0.2742 H   0  0  0  0  0  0  0  0  0  0  0  0
   -0.9114    0.8862   -1.3940 H   0  0  0  0  0  0  0  0  0  0  0  0
   -2.8684   -0.5096   -1.8074 H   0  0  0  0  0  0  0  0  0  0  0  0
   -3.3028    0.8406   -0.6758 H   0  0  0  0  0  0  0  0  0  0  0  0
   -3.0155   -0.8818   -0.0597 H   0  0  0  0  0  0  0  0  0  0  0  0
   -1.1950   -0.0885    1.5088 H   0  0  0  0  0  0  0  0  0  0  0  0
   -1.0139    2.2557    1.8191 H   0  0  0  0  0  0  0  0  0  0  0  0
    0.8119    1.6719    0.0420 H   0  0  0  0  0  0  0  0  0  0  0  0
    0.8429    1.2536    1.8277 H   0  0  0  0  0  0  0  0  0  0  0  0
  1  2  1  0
  2  3  1  0
  3  4  1  0
  4  5  1  0
  5  6  1  0
  5  7  1  0
  7  8  1  0
  7  9  1  0
  9  2  1  0
  1 10  1  0
  1 11  1  0
  1 12  1  0
  2 13  1  0
  3 14  1  0
  3 15  1  0
  4 16  1  0
  4 17  1  0
  5 18  1  0
  6 19  1  0
  6 20  1  0
  6 21  1  0
  7 22  1  0
  8 23  1  0
  9 24  1  0
  9 25  1  0
M  END
