
     RDKit          3D

 23 23  0  0  0  0  0  0  0  0999 V2000
    2.6385    0.5505   -0.1100 C   0  0  0  0  0  0  0  0  0  0  0  0
    1.1701    0.1316   -0.0964 C   0  0  0  0  0  0  0  0  0  0  0  0
    0.4415    1.1113    0.7194 C   0  0  0  0  0  0  0  0  0  0  0  0
   -0.8309    1.5029    0.8417 C   0  0  0  0  0  0  0  0  0  0  0  0
   -2.1002    1.1257    0.2056 C   0  0  0  0  0  0  0  0  0  0  0  0
   -2.2093   -0.3787   -0.0367 C   0  0  0  0  0  0  0  0  0  0  0  0
   -1.0632   -0.8778   -0.6277 O   0  0  0  0  0  0  0  0  0  0  0  0
   -0.3599   -1.7380    0.2121 C   0  0  0  0  0  0  0  0  0  0  0  0
    1.0556   -1.2874    0.4457 C   0  0  0  0  0  0  0  0  0  0  0  0
    3.1908    0.1130   -0.9470 H   0  0  0  0  0  0  0  0  0  0  0  0
    3.1090    0.2808    0.8799 H   0  0  0  0  0  0  0  0  0  0  0  0
    2.6689    1.6564   -0.1474 H   0  0  0  0  0  0  0  0  0  0  0  0
    0.8501    0.0910   -1.1535 H   0  0  0  0  0  0  0  0  0  0  0  0
    1.0875    1.6760    1.4111 H   0  0  0  0  0  0  0  0  0  0  0  0
   -0.9461    2.2874    1.5922 H   0  0  0  0  0  0  0  0  0  0  0  0
   -2.2107    1.6229   -0.7814 H   0  0  0  0  0  0  0  0  0  0  0  0
   -2.9286    1.4286    0.8813 H   0  0  0  0  0  0  0  0  0  0  0  0
   -2.4938   -0.9215    0.8757 H   0  0  0  0  0  0  0  0  0  0  0  0
   -3.0383   -0.5060   -0.7740 H   0  0  0  0  0  0  0  0  0  0  0  0
   -0.3166   -2.7330   -0.2781 H   0  0  0  0  0  0  0  0  0  0  0  0
   -0.8684   -1.8933    1.1835 H   0  0  0  0  0  0  0  0  0  0  0  0
    1.7816   -1.8934   -0.1718 H   0  0  0  0  0  0  0  0  0  0  0  0
    1.3725   -1.3488    1.4981 H   0  0  0  0  0  0  0  0  0  0  0  0
  1  2  1  0
  2  3  1  0
  3  4  2  3
  4  5  1  0
  5  6  1  0
  6  7  1  0
  7  8  1  0
  8  9  1  0
  9  2  1  0
  1 10  1  0
  1 11  1  0
  1 12  1  0
  2 13  1  0
  3 14  1  0
  4 15  1  0
  5 16  1  0
  5 17  1  0
  6 18  1  0
  6 19  1  0
  8 20  1  0
  8 21  1  0
  9 22  1  0
  9 23  1  0
M  END
