
     RDKit          3D

 19 20  0  0  0  0  0  0  0  0999 V2000
   -1.3743   -1.2324    0.2444 C   0  0  0  0  0  0  0  0  0  0  0  0
   -1.0562    0.2024    0.4805 C   0  0  0  0  0  0  0  0  0  0  0  0
   -0.5468    0.9630   -0.7338 C   0  0  0  0  0  0  0  0  0  0  0  0
    0.3762    0.1226   -1.5395 C   0  0  0  0  0  0  0  0  0  0  0  0
    1.4344   -0.3738   -0.9180 C   0  0  0  0  0  0  0  0  0  0  0  0
    1.3661   -0.4332    0.5723 C   0  0  0  0  0  0  0  0  0  0  0  0
    0.3046    0.5027    1.0662 C   0  0  0  0  0  0  0  0  0  0  0  0
    0.2644    1.7304    0.2411 C   0  0  0  0  0  0  0  0  0  0  0  0
    0.6863    2.8489    0.3068 O   0  0  0  0  0  0  0  0  0  0  0  0
   -1.1519   -1.8746    1.1348 H   0  0  0  0  0  0  0  0  0  0  0  0
   -0.8676   -1.6465   -0.6725 H   0  0  0  0  0  0  0  0  0  0  0  0
   -2.4745   -1.3074    0.0904 H   0  0  0  0  0  0  0  0  0  0  0  0
   -1.8336    0.7679    0.9831 H   0  0  0  0  0  0  0  0  0  0  0  0
   -1.2939    1.5087   -1.3028 H   0  0  0  0  0  0  0  0  0  0  0  0
    0.1846   -0.0631   -2.5639 H   0  0  0  0  0  0  0  0  0  0  0  0
    2.3238   -0.7276   -1.4586 H   0  0  0  0  0  0  0  0  0  0  0  0
    1.0857   -1.4746    0.8948 H   0  0  0  0  0  0  0  0  0  0  0  0
    2.3223   -0.1504    1.0260 H   0  0  0  0  0  0  0  0  0  0  0  0
    0.2506    0.6371    2.1487 H   0  0  0  0  0  0  0  0  0  0  0  0
  1  2  1  0
  2  3  1  0
  3  4  1  0
  4  5  2  0
  5  6  1  0
  6  7  1  0
  7  8  1  0
  8  9  2  0
  7  2  1  0
  8  3  1  0
  1 10  1  0
  1 11  1  0
  1 12  1  0
  2 13  1  0
  3 14  1  0
  4 15  1  0
  5 16  1  0
  6 17  1  0
  6 18  1  0
  7 19  1  0
M  END
