
     RDKit          3D

 19 20  0  0  0  0  0  0  0  0999 V2000
    1.6377   -0.5931   -0.3132 C   0  0  0  0  0  0  0  0  0  0  0  0
    0.7072    0.2438    0.5111 C   0  0  0  0  0  0  0  0  0  0  0  0
    0.5923    1.6280   -0.0462 C   0  0  0  0  0  0  0  0  0  0  0  0
    1.4799    2.3074   -0.5138 O   0  0  0  0  0  0  0  0  0  0  0  0
   -0.8179    1.9372    0.1139 C   0  0  0  0  0  0  0  0  0  0  0  0
   -1.8851    1.7896   -0.6174 O   0  0  0  0  0  0  0  0  0  0  0  0
   -1.2752    0.6383   -0.6301 C   0  0  0  0  0  0  0  0  0  0  0  0
   -0.7421   -0.2687    0.4268 C   0  0  0  0  0  0  0  0  0  0  0  0
   -0.8119   -1.7144    0.0916 C   0  0  0  0  0  0  0  0  0  0  0  0
    1.2363   -0.8492   -1.3159 H   0  0  0  0  0  0  0  0  0  0  0  0
    1.9622   -1.4719    0.2391 H   0  0  0  0  0  0  0  0  0  0  0  0
    2.5608    0.0311   -0.4835 H   0  0  0  0  0  0  0  0  0  0  0  0
    1.0675    0.2895    1.5352 H   0  0  0  0  0  0  0  0  0  0  0  0
   -1.0739    1.9656    1.2216 H   0  0  0  0  0  0  0  0  0  0  0  0
   -0.7444    0.4359   -1.6123 H   0  0  0  0  0  0  0  0  0  0  0  0
   -1.2036   -0.0065    1.3977 H   0  0  0  0  0  0  0  0  0  0  0  0
    0.1111   -2.1752   -0.2498 H   0  0  0  0  0  0  0  0  0  0  0  0
   -1.1900   -2.3525    0.9434 H   0  0  0  0  0  0  0  0  0  0  0  0
   -1.6110   -1.8349   -0.6982 H   0  0  0  0  0  0  0  0  0  0  0  0
  1  2  1  0
  2  3  1  0
  3  4  2  0
  3  5  1  0
  5  6  1  0
  6  7  1  0
  7  8  1  0
  8  9  1  0
  8  2  1  0
  7  5  1  0
  1 10  1  0
  1 11  1  0
  1 12  1  0
  2 13  1  0
  5 14  1  0
  7 15  1  0
  8 16  1  0
  9 17  1  0
  9 18  1  0
  9 19  1  0
M  END
