
     RDKit          3D

 21 22  0  0  0  0  0  0  0  0999 V2000
    2.0764   -0.2441   -0.6175 C   0  0  0  0  0  0  0  0  0  0  0  0
    0.6044   -0.4396   -0.5973 C   0  0  0  0  0  0  0  0  0  0  0  0
    0.0654   -0.9005    0.7389 C   0  0  0  0  0  0  0  0  0  0  0  0
    0.2104    0.3390    1.5582 C   0  0  0  0  0  0  0  0  0  0  0  0
    0.1367    1.4008    0.7604 C   0  0  0  0  0  0  0  0  0  0  0  0
   -0.0835    0.9308   -0.6429 C   0  0  0  0  0  0  0  0  0  0  0  0
   -1.5320    0.6897   -0.8291 C   0  0  0  0  0  0  0  0  0  0  0  0
   -2.0756   -0.3866   -0.2683 O   0  0  0  0  0  0  0  0  0  0  0  0
   -1.3917   -1.1887    0.5551 C   0  0  0  0  0  0  0  0  0  0  0  0
    2.5622   -0.4166    0.3524 H   0  0  0  0  0  0  0  0  0  0  0  0
    2.3304    0.8141   -0.9133 H   0  0  0  0  0  0  0  0  0  0  0  0
    2.5015   -0.8826   -1.4375 H   0  0  0  0  0  0  0  0  0  0  0  0
    0.2142   -1.1093   -1.3814 H   0  0  0  0  0  0  0  0  0  0  0  0
    0.5797   -1.7622    1.1539 H   0  0  0  0  0  0  0  0  0  0  0  0
    0.3508    0.3624    2.6170 H   0  0  0  0  0  0  0  0  0  0  0  0
    0.2167    2.4488    1.0340 H   0  0  0  0  0  0  0  0  0  0  0  0
    0.3905    1.5469   -1.3936 H   0  0  0  0  0  0  0  0  0  0  0  0
   -2.0772    1.6171   -0.4846 H   0  0  0  0  0  0  0  0  0  0  0  0
   -1.7318    0.6709   -1.9417 H   0  0  0  0  0  0  0  0  0  0  0  0
   -1.8843   -1.2433    1.5669 H   0  0  0  0  0  0  0  0  0  0  0  0
   -1.4631   -2.2471    0.1703 H   0  0  0  0  0  0  0  0  0  0  0  0
  1  2  1  0
  2  3  1  0
  3  4  1  0
  4  5  2  0
  5  6  1  0
  6  7  1  0
  7  8  1  0
  8  9  1  0
  6  2  1  0
  9  3  1  0
  1 10  1  0
  1 11  1  0
  1 12  1  0
  2 13  1  0
  3 14  1  0
  4 15  1  0
  5 16  1  0
  6 17  1  0
  7 18  1  0
  7 19  1  0
  9 20  1  0
  9 21  1  0
M  END
