
     RDKit          3D

 19 20  0  0  0  0  0  0  0  0999 V2000
    1.6952   -1.2036    0.1651 C   0  0  0  0  0  0  0  0  0  0  0  0
    0.6647   -0.2353    0.6611 C   0  0  0  0  0  0  0  0  0  0  0  0
    0.3565    0.8874   -0.2992 C   0  0  0  0  0  0  0  0  0  0  0  0
   -0.1229    2.1517    0.3553 C   0  0  0  0  0  0  0  0  0  0  0  0
   -1.4712    1.8987    0.7076 O   0  0  0  0  0  0  0  0  0  0  0  0
   -1.7648    0.5528    0.5535 C   0  0  0  0  0  0  0  0  0  0  0  0
   -2.8657    0.0556    0.8901 O   0  0  0  0  0  0  0  0  0  0  0  0
   -0.6487   -0.1875   -0.0380 C   0  0  0  0  0  0  0  0  0  0  0  0
   -0.9069   -1.2592   -1.0728 C   0  0  0  0  0  0  0  0  0  0  0  0
    1.8735   -1.0894   -0.9237 H   0  0  0  0  0  0  0  0  0  0  0  0
    1.4921   -2.2512    0.4663 H   0  0  0  0  0  0  0  0  0  0  0  0
    2.6653   -0.9217    0.6652 H   0  0  0  0  0  0  0  0  0  0  0  0
    0.6317   -0.0261    1.7407 H   0  0  0  0  0  0  0  0  0  0  0  0
    0.8022    0.8943   -1.2994 H   0  0  0  0  0  0  0  0  0  0  0  0
    0.4319    2.3321    1.3094 H   0  0  0  0  0  0  0  0  0  0  0  0
   -0.0103    3.0428   -0.2800 H   0  0  0  0  0  0  0  0  0  0  0  0
   -0.5495   -2.2500   -0.6700 H   0  0  0  0  0  0  0  0  0  0  0  0
   -0.2846   -1.0725   -1.9757 H   0  0  0  0  0  0  0  0  0  0  0  0
   -1.9884   -1.3188   -1.3557 H   0  0  0  0  0  0  0  0  0  0  0  0
  1  2  1  0
  2  3  1  0
  3  4  1  0
  4  5  1  0
  5  6  1  0
  6  7  2  0
  6  8  1  0
  8  9  1  0
  8  2  1  0
  8  3  1  0
  1 10  1  0
  1 11  1  0
  1 12  1  0
  2 13  1  0
  3 14  1  0
  4 15  1  0
  4 16  1  0
  9 17  1  0
  9 18  1  0
  9 19  1  0
M  END
