
     RDKit          3D

 21 22  0  0  0  0  0  0  0  0999 V2000
   -1.6012   -0.4789   -1.2030 C   0  0  0  0  0  0  0  0  0  0  0  0
   -1.0946   -0.1613    0.1379 C   0  0  0  0  0  0  0  0  0  0  0  0
   -0.0393   -1.1297    0.6522 C   0  0  0  0  0  0  0  0  0  0  0  0
    1.1601   -1.1287   -0.2173 C   0  0  0  0  0  0  0  0  0  0  0  0
    1.6583   -0.0068   -0.6812 C   0  0  0  0  0  0  0  0  0  0  0  0
    0.7661    1.1765   -0.8131 C   0  0  0  0  0  0  0  0  0  0  0  0
   -0.3217    1.1228    0.2628 C   0  0  0  0  0  0  0  0  0  0  0  0
    0.3383    0.9173    1.5819 C   0  0  0  0  0  0  0  0  0  0  0  0
    0.3784   -0.3719    1.8977 C   0  0  0  0  0  0  0  0  0  0  0  0
   -2.5534    0.0944   -1.3632 H   0  0  0  0  0  0  0  0  0  0  0  0
   -0.9133   -0.3999   -2.0386 H   0  0  0  0  0  0  0  0  0  0  0  0
   -1.9422   -1.5575   -1.1871 H   0  0  0  0  0  0  0  0  0  0  0  0
   -1.9047   -0.1451    0.8625 H   0  0  0  0  0  0  0  0  0  0  0  0
   -0.4224   -2.1179    0.8773 H   0  0  0  0  0  0  0  0  0  0  0  0
    1.6279   -2.0612   -0.4707 H   0  0  0  0  0  0  0  0  0  0  0  0
    2.7174    0.0988   -0.9802 H   0  0  0  0  0  0  0  0  0  0  0  0
    1.3488    2.1186   -0.7090 H   0  0  0  0  0  0  0  0  0  0  0  0
    0.3491    1.1833   -1.8264 H   0  0  0  0  0  0  0  0  0  0  0  0
   -0.9236    2.0229    0.2021 H   0  0  0  0  0  0  0  0  0  0  0  0
    0.7357    1.6962    2.2093 H   0  0  0  0  0  0  0  0  0  0  0  0
    0.6363   -0.8718    2.8061 H   0  0  0  0  0  0  0  0  0  0  0  0
  1  2  1  0
  2  3  1  0
  3  4  1  0
  4  5  2  0
  5  6  1  0
  6  7  1  0
  7  8  1  0
  8  9  2  0
  7  2  1  0
  9  3  1  0
  1 10  1  0
  1 11  1  0
  1 12  1  0
  2 13  1  0
  3 14  1  0
  4 15  1  0
  5 16  1  0
  6 17  1  0
  6 18  1  0
  7 19  1  0
  8 20  1  0
  9 21  1  0
M  END
