
     RDKit          3D

 23 23  0  0  0  0  0  0  0  0999 V2000
    2.4252    1.0917   -0.4070 C   0  0  0  0  0  0  0  0  0  0  0  0
    1.1751    0.4054    0.1598 C   0  0  0  0  0  0  0  0  0  0  0  0
    1.3470   -1.0754    0.1536 C   0  0  0  0  0  0  0  0  0  0  0  0
    0.0819   -1.8516    0.0073 C   0  0  0  0  0  0  0  0  0  0  0  0
   -0.9186   -1.2156   -0.6721 O   0  0  0  0  0  0  0  0  0  0  0  0
   -1.0472    0.1236   -0.4294 C   0  0  0  0  0  0  0  0  0  0  0  0
   -1.6933    0.3508    0.9318 C   0  0  0  0  0  0  0  0  0  0  0  0
   -2.0414    0.6772   -1.4542 C   0  0  0  0  0  0  0  0  0  0  0  0
    0.1111    0.8553   -0.5740 O   0  0  0  0  0  0  0  0  0  0  0  0
    2.1802    2.1804   -0.3997 H   0  0  0  0  0  0  0  0  0  0  0  0
    3.2877    0.8351    0.2048 H   0  0  0  0  0  0  0  0  0  0  0  0
    2.5132    0.7906   -1.4650 H   0  0  0  0  0  0  0  0  0  0  0  0
    1.0697    0.7643    1.2048 H   0  0  0  0  0  0  0  0  0  0  0  0
    1.8336   -1.3713    1.1161 H   0  0  0  0  0  0  0  0  0  0  0  0
    2.1024   -1.3215   -0.6351 H   0  0  0  0  0  0  0  0  0  0  0  0
    0.3378   -2.7835   -0.5797 H   0  0  0  0  0  0  0  0  0  0  0  0
   -0.2386   -2.2543    1.0101 H   0  0  0  0  0  0  0  0  0  0  0  0
   -1.7793    1.4400    1.1324 H   0  0  0  0  0  0  0  0  0  0  0  0
   -2.7513   -0.0098    0.8271 H   0  0  0  0  0  0  0  0  0  0  0  0
   -1.1842   -0.1737    1.7411 H   0  0  0  0  0  0  0  0  0  0  0  0
   -2.0395    0.0388   -2.3556 H   0  0  0  0  0  0  0  0  0  0  0  0
   -1.7254    1.6938   -1.8054 H   0  0  0  0  0  0  0  0  0  0  0  0
   -3.0462    0.8100   -1.0218 H   0  0  0  0  0  0  0  0  0  0  0  0
  1  2  1  0
  2  3  1  0
  3  4  1  0
  4  5  1  0
  5  6  1  0
  6  7  1  0
  6  8  1  0
  6  9  1  0
  9  2  1  0
  1 10  1  0
  1 11  1  0
  1 12  1  0
  2 13  1  0
  3 14  1  0
  3 15  1  0
  4 16  1  0
  4 17  1  0
  7 18  1  0
  7 19  1  0
  7 20  1  0
  8 21  1  0
  8 22  1  0
  8 23  1  0
M  END
