
     RDKit          3D

 25 26  0  0  0  0  0  0  0  0999 V2000
    2.6566   -0.5869   -0.5724 C   0  0  0  0  0  0  0  0  0  0  0  0
    1.3101   -0.6249    0.0644 C   0  0  0  0  0  0  0  0  0  0  0  0
    0.0990   -0.6144   -0.7747 C   0  0  0  0  0  0  0  0  0  0  0  0
   -1.1008   -1.4283   -0.4294 C   0  0  0  0  0  0  0  0  0  0  0  0
   -2.1990   -0.4932    0.0122 C   0  0  0  0  0  0  0  0  0  0  0  0
   -1.8228    0.2744    1.2326 C   0  0  0  0  0  0  0  0  0  0  0  0
   -0.4258    0.7789    1.2594 C   0  0  0  0  0  0  0  0  0  0  0  0
    0.3862    0.5366    0.0484 C   0  0  0  0  0  0  0  0  0  0  0  0
    0.7978    1.8107   -0.6954 C   0  0  0  0  0  0  0  0  0  0  0  0
    3.0687   -1.6394   -0.5299 H   0  0  0  0  0  0  0  0  0  0  0  0
    3.4032    0.0221   -0.0111 H   0  0  0  0  0  0  0  0  0  0  0  0
    2.6378   -0.3411   -1.6562 H   0  0  0  0  0  0  0  0  0  0  0  0
    1.2548   -1.3021    0.9607 H   0  0  0  0  0  0  0  0  0  0  0  0
    0.2927   -0.5500   -1.8816 H   0  0  0  0  0  0  0  0  0  0  0  0
   -0.8929   -2.2009    0.3495 H   0  0  0  0  0  0  0  0  0  0  0  0
   -1.4911   -2.0027   -1.3072 H   0  0  0  0  0  0  0  0  0  0  0  0
   -2.4376    0.1771   -0.8353 H   0  0  0  0  0  0  0  0  0  0  0  0
   -3.0885   -1.1205    0.2403 H   0  0  0  0  0  0  0  0  0  0  0  0
   -2.0264   -0.3897    2.1227 H   0  0  0  0  0  0  0  0  0  0  0  0
   -2.5820    1.1031    1.3465 H   0  0  0  0  0  0  0  0  0  0  0  0
   -0.4706    1.8716    1.5346 H   0  0  0  0  0  0  0  0  0  0  0  0
    0.1160    0.3117    2.1348 H   0  0  0  0  0  0  0  0  0  0  0  0
    0.7353    2.6978   -0.0291 H   0  0  0  0  0  0  0  0  0  0  0  0
   -0.0134    1.9669   -1.4591 H   0  0  0  0  0  0  0  0  0  0  0  0
    1.7928    1.7431   -1.1248 H   0  0  0  0  0  0  0  0  0  0  0  0
  1  2  1  0
  2  3  1  0
  3  4  1  0
  4  5  1  0
  5  6  1  0
  6  7  1  0
  7  8  1  0
  8  9  1  0
  8  2  1  0
  8  3  1  0
  1 10  1  0
  1 11  1  0
  1 12  1  0
  2 13  1  0
  3 14  1  0
  4 15  1  0
  4 16  1  0
  5 17  1  0
  5 18  1  0
  6 19  1  0
  6 20  1  0
  7 21  1  0
  7 22  1  0
  9 23  1  0
  9 24  1  0
  9 25  1  0
M  END
