
     RDKit          3D

 20 21  0  0  0  0  0  0  0  0999 V2000
    2.3988   -0.5097    0.1191 C   0  0  0  0  0  0  0  0  0  0  0  0
    1.0638   -0.1223   -0.4211 C   0  0  0  0  0  0  0  0  0  0  0  0
    0.6397    1.2699   -0.0996 C   0  0  0  0  0  0  0  0  0  0  0  0
   -0.8624    1.2321    0.1645 C   0  0  0  0  0  0  0  0  0  0  0  0
   -1.2745   -0.1421   -0.2377 C   0  0  0  0  0  0  0  0  0  0  0  0
   -2.5785   -0.6455   -0.2566 C   0  0  0  0  0  0  0  0  0  0  0  0
   -1.8617   -0.3095   -1.4703 O   0  0  0  0  0  0  0  0  0  0  0  0
   -0.0689   -0.9754    0.1496 C   0  0  0  0  0  0  0  0  0  0  0  0
    3.0837    0.3714   -0.0320 H   0  0  0  0  0  0  0  0  0  0  0  0
    2.7689   -1.3758   -0.4900 H   0  0  0  0  0  0  0  0  0  0  0  0
    2.3762   -0.8191    1.1771 H   0  0  0  0  0  0  0  0  0  0  0  0
    1.0896   -0.2837   -1.5300 H   0  0  0  0  0  0  0  0  0  0  0  0
    1.1313    1.6477    0.8183 H   0  0  0  0  0  0  0  0  0  0  0  0
    0.8582    1.9821   -0.9363 H   0  0  0  0  0  0  0  0  0  0  0  0
   -1.0639    1.3576    1.2427 H   0  0  0  0  0  0  0  0  0  0  0  0
   -1.3878    1.9649   -0.4672 H   0  0  0  0  0  0  0  0  0  0  0  0
   -3.4582    0.0071   -0.0381 H   0  0  0  0  0  0  0  0  0  0  0  0
   -2.7705   -1.7436   -0.2409 H   0  0  0  0  0  0  0  0  0  0  0  0
   -0.0003   -0.9201    1.2603 H   0  0  0  0  0  0  0  0  0  0  0  0
   -0.0836   -1.9861   -0.2515 H   0  0  0  0  0  0  0  0  0  0  0  0
  1  2  1  0
  2  3  1  0
  3  4  1  0
  4  5  1  0
  5  6  1  0
  6  7  1  0
  5  8  1  0
  8  2  1  0
  7  5  1  0
  1  9  1  0
  1 10  1  0
  1 11  1  0
  2 12  1  0
  3 13  1  0
  3 14  1  0
  4 15  1  0
  4 16  1  0
  6 17  1  0
  6 18  1  0
  8 19  1  0
  8 20  1  0
M  END
