
     RDKit          3D

 17 18  0  0  0  0  0  0  0  0999 V2000
   -1.8899   -0.6054   -0.0335 C   0  0  0  0  0  0  0  0  0  0  0  0
   -0.6844    0.0973   -0.5956 C   0  0  0  0  0  0  0  0  0  0  0  0
   -0.3765    1.3910    0.0856 C   0  0  0  0  0  0  0  0  0  0  0  0
    0.6153    1.1888    1.0048 O   0  0  0  0  0  0  0  0  0  0  0  0
    1.1413   -0.0596    0.8608 C   0  0  0  0  0  0  0  0  0  0  0  0
    2.3962   -0.1731    0.0949 C   0  0  0  0  0  0  0  0  0  0  0  0
    3.6132   -0.2957    0.3189 O   0  0  0  0  0  0  0  0  0  0  0  0
    1.6665   -0.0864   -1.0713 O   0  0  0  0  0  0  0  0  0  0  0  0
    0.5855   -0.6803   -0.3919 C   0  0  0  0  0  0  0  0  0  0  0  0
   -2.4291   -0.0400    0.7238 H   0  0  0  0  0  0  0  0  0  0  0  0
   -1.5479   -1.5884    0.4009 H   0  0  0  0  0  0  0  0  0  0  0  0
   -2.6101   -0.8809   -0.8329 H   0  0  0  0  0  0  0  0  0  0  0  0
   -0.8408    0.2262   -1.6861 H   0  0  0  0  0  0  0  0  0  0  0  0
   -1.2628    1.9105    0.4883 H   0  0  0  0  0  0  0  0  0  0  0  0
    0.0385    2.0830   -0.7025 H   0  0  0  0  0  0  0  0  0  0  0  0
    1.0654   -0.7195    1.7537 H   0  0  0  0  0  0  0  0  0  0  0  0
    0.5196   -1.7675   -0.4178 H   0  0  0  0  0  0  0  0  0  0  0  0
  1  2  1  0
  2  3  1  0
  3  4  1  0
  4  5  1  0
  5  6  1  0
  6  7  2  0
  6  8  1  0
  8  9  1  0
  9  2  1  0
  9  5  1  0
  1 10  1  0
  1 11  1  0
  1 12  1  0
  2 13  1  0
  3 14  1  0
  3 15  1  0
  5 16  1  0
  9 17  1  0
M  END
