
     RDKit          3D

 23 23  0  0  0  0  0  0  0  0999 V2000
   -2.6666   -0.9221   -0.2709 C   0  0  0  0  0  0  0  0  0  0  0  0
   -1.7682   -0.2120    0.7039 C   0  0  0  0  0  0  0  0  0  0  0  0
   -0.3809   -0.8200    0.6984 C   0  0  0  0  0  0  0  0  0  0  0  0
    0.1752    0.5858    0.6777 C   0  0  0  0  0  0  0  0  0  0  0  0
    0.4168    1.0710    1.9349 O   0  0  0  0  0  0  0  0  0  0  0  0
    1.3329    0.6640   -0.2935 C   0  0  0  0  0  0  0  0  0  0  0  0
    2.3812   -0.3310    0.2088 C   0  0  0  0  0  0  0  0  0  0  0  0
    3.5028   -0.3503   -0.6094 O   0  0  0  0  0  0  0  0  0  0  0  0
   -1.1447    1.0604    0.1394 C   0  0  0  0  0  0  0  0  0  0  0  0
   -3.7072   -0.8973    0.0643 H   0  0  0  0  0  0  0  0  0  0  0  0
   -2.5330   -0.4374   -1.2740 H   0  0  0  0  0  0  0  0  0  0  0  0
   -2.2813   -1.9722   -0.4211 H   0  0  0  0  0  0  0  0  0  0  0  0
   -2.1392   -0.1089    1.7337 H   0  0  0  0  0  0  0  0  0  0  0  0
   -0.1454   -1.3749    1.6301 H   0  0  0  0  0  0  0  0  0  0  0  0
   -0.1482   -1.4140   -0.2247 H   0  0  0  0  0  0  0  0  0  0  0  0
    1.2206    1.6429    1.9099 H   0  0  0  0  0  0  0  0  0  0  0  0
    1.7082    1.6904   -0.2710 H   0  0  0  0  0  0  0  0  0  0  0  0
    1.0375    0.4032   -1.3081 H   0  0  0  0  0  0  0  0  0  0  0  0
    1.9651   -1.3582    0.2295 H   0  0  0  0  0  0  0  0  0  0  0  0
    2.6278   -0.0664    1.2613 H   0  0  0  0  0  0  0  0  0  0  0  0
    3.3444    0.0775   -1.4852 H   0  0  0  0  0  0  0  0  0  0  0  0
   -1.2251    1.1092   -0.9537 H   0  0  0  0  0  0  0  0  0  0  0  0
   -1.5726    1.9603    0.6455 H   0  0  0  0  0  0  0  0  0  0  0  0
  1  2  1  0
  2  3  1  0
  3  4  1  0
  4  5  1  0
  4  6  1  0
  6  7  1  0
  7  8  1  0
  4  9  1  0
  9  2  1  0
  1 10  1  0
  1 11  1  0
  1 12  1  0
  2 13  1  0
  3 14  1  0
  3 15  1  0
  5 16  1  0
  6 17  1  0
  6 18  1  0
  7 19  1  0
  7 20  1  0
  8 21  1  0
  9 22  1  0
  9 23  1  0
M  END
