
     RDKit          3D

 25 25  0  0  0  0  0  0  0  0999 V2000
    2.5427   -0.2419   -0.0206 C   0  0  0  0  0  0  0  0  0  0  0  0
    1.1158   -0.3618    0.3321 C   0  0  0  0  0  0  0  0  0  0  0  0
    0.4735   -1.6676   -0.0842 C   0  0  0  0  0  0  0  0  0  0  0  0
   -0.9973   -1.3607    0.1560 C   0  0  0  0  0  0  0  0  0  0  0  0
   -1.2831   -1.8532    1.4437 O   0  0  0  0  0  0  0  0  0  0  0  0
   -1.1330    0.1429    0.1025 C   0  0  0  0  0  0  0  0  0  0  0  0
   -2.2756    0.6155   -0.7246 C   0  0  0  0  0  0  0  0  0  0  0  0
    0.2172    0.6291   -0.4065 C   0  0  0  0  0  0  0  0  0  0  0  0
    0.5070    2.0451    0.0085 C   0  0  0  0  0  0  0  0  0  0  0  0
    3.1267   -0.0828    0.9328 H   0  0  0  0  0  0  0  0  0  0  0  0
    2.9272   -1.2127   -0.4209 H   0  0  0  0  0  0  0  0  0  0  0  0
    2.8042    0.6194   -0.6625 H   0  0  0  0  0  0  0  0  0  0  0  0
    0.9054   -0.2219    1.4122 H   0  0  0  0  0  0  0  0  0  0  0  0
    0.6148   -1.7485   -1.1847 H   0  0  0  0  0  0  0  0  0  0  0  0
    0.8295   -2.5331    0.4787 H   0  0  0  0  0  0  0  0  0  0  0  0
   -1.6538   -1.8616   -0.5904 H   0  0  0  0  0  0  0  0  0  0  0  0
   -1.7394   -1.1757    2.0044 H   0  0  0  0  0  0  0  0  0  0  0  0
   -1.2465    0.4982    1.1641 H   0  0  0  0  0  0  0  0  0  0  0  0
   -2.5006   -0.1325   -1.5008 H   0  0  0  0  0  0  0  0  0  0  0  0
   -3.1623    0.7245   -0.0691 H   0  0  0  0  0  0  0  0  0  0  0  0
   -2.0451    1.6078   -1.1567 H   0  0  0  0  0  0  0  0  0  0  0  0
    0.2594    0.4831   -1.4995 H   0  0  0  0  0  0  0  0  0  0  0  0
    0.2699    2.1578    1.0800 H   0  0  0  0  0  0  0  0  0  0  0  0
    1.5860    2.2266   -0.2009 H   0  0  0  0  0  0  0  0  0  0  0  0
   -0.1425    2.7038   -0.5936 H   0  0  0  0  0  0  0  0  0  0  0  0
  1  2  1  0
  2  3  1  0
  3  4  1  0
  4  5  1  0
  4  6  1  0
  6  7  1  0
  6  8  1  0
  8  9  1  0
  8  2  1  0
  1 10  1  0
  1 11  1  0
  1 12  1  0
  2 13  1  0
  3 14  1  0
  3 15  1  0
  4 16  1  0
  5 17  1  0
  6 18  1  0
  7 19  1  0
  7 20  1  0
  7 21  1  0
  8 22  1  0
  9 23  1  0
  9 24  1  0
  9 25  1  0
M  END
