
     RDKit          3D

 21 22  0  0  0  0  0  0  0  0999 V2000
   -2.3555    0.2081    0.6630 C   0  0  0  0  0  0  0  0  0  0  0  0
   -1.1607    0.0722   -0.2329 C   0  0  0  0  0  0  0  0  0  0  0  0
   -0.1681    1.2264   -0.1413 C   0  0  0  0  0  0  0  0  0  0  0  0
    0.4743    1.5117   -1.3444 O   0  0  0  0  0  0  0  0  0  0  0  0
    0.6214    0.3611    0.8154 C   0  0  0  0  0  0  0  0  0  0  0  0
    2.0106    0.0574    0.4209 C   0  0  0  0  0  0  0  0  0  0  0  0
    2.1218   -0.9302   -0.4406 C   0  0  0  0  0  0  0  0  0  0  0  0
    0.7738   -1.4450   -0.7561 C   0  0  0  0  0  0  0  0  0  0  0  0
   -0.1042   -0.8938    0.3091 C   0  0  0  0  0  0  0  0  0  0  0  0
   -3.1911   -0.3894    0.2472 H   0  0  0  0  0  0  0  0  0  0  0  0
   -2.0648   -0.1754    1.6688 H   0  0  0  0  0  0  0  0  0  0  0  0
   -2.6996    1.2643    0.7560 H   0  0  0  0  0  0  0  0  0  0  0  0
   -1.3985   -0.1521   -1.2920 H   0  0  0  0  0  0  0  0  0  0  0  0
   -0.5644    2.1136    0.3988 H   0  0  0  0  0  0  0  0  0  0  0  0
    0.5829    2.5118   -1.4097 H   0  0  0  0  0  0  0  0  0  0  0  0
    0.4627    0.5604    1.8876 H   0  0  0  0  0  0  0  0  0  0  0  0
    2.8600    0.6104    0.8162 H   0  0  0  0  0  0  0  0  0  0  0  0
    3.0729   -1.3285   -0.8743 H   0  0  0  0  0  0  0  0  0  0  0  0
    0.7458   -2.5516   -0.8331 H   0  0  0  0  0  0  0  0  0  0  0  0
    0.4250   -1.0743   -1.7631 H   0  0  0  0  0  0  0  0  0  0  0  0
   -0.4443   -1.5571    1.1044 H   0  0  0  0  0  0  0  0  0  0  0  0
  1  2  1  0
  2  3  1  0
  3  4  1  0
  3  5  1  0
  5  6  1  0
  6  7  2  0
  7  8  1  0
  8  9  1  0
  9  2  1  0
  9  5  1  0
  1 10  1  0
  1 11  1  0
  1 12  1  0
  2 13  1  0
  3 14  1  0
  4 15  1  0
  5 16  1  0
  6 17  1  0
  7 18  1  0
  8 19  1  0
  8 20  1  0
  9 21  1  0
M  END
