
     RDKit          3D

 23 24  0  0  0  0  0  0  0  0999 V2000
   -1.2188    1.8994   -0.1414 C   0  0  0  0  0  0  0  0  0  0  0  0
   -0.1080    0.9505   -0.3692 C   0  0  0  0  0  0  0  0  0  0  0  0
    0.5689    0.4767    0.9049 C   0  0  0  0  0  0  0  0  0  0  0  0
   -0.3735   -0.6007    1.4336 C   0  0  0  0  0  0  0  0  0  0  0  0
   -1.0134   -1.2210    0.2151 C   0  0  0  0  0  0  0  0  0  0  0  0
   -0.5392   -0.3760   -0.9633 C   0  0  0  0  0  0  0  0  0  0  0  0
    0.7618   -1.0501   -1.4227 C   0  0  0  0  0  0  0  0  0  0  0  0
    1.5174   -1.3249   -0.3019 O   0  0  0  0  0  0  0  0  0  0  0  0
    1.8571   -0.2163    0.4403 C   0  0  0  0  0  0  0  0  0  0  0  0
   -0.7873    2.9433   -0.1658 H   0  0  0  0  0  0  0  0  0  0  0  0
   -1.7496    1.7977    0.8100 H   0  0  0  0  0  0  0  0  0  0  0  0
   -1.9122    1.8614   -1.0242 H   0  0  0  0  0  0  0  0  0  0  0  0
    0.6740    1.4223   -1.0140 H   0  0  0  0  0  0  0  0  0  0  0  0
    0.7575    1.2712    1.6224 H   0  0  0  0  0  0  0  0  0  0  0  0
   -1.1506   -0.1589    2.0793 H   0  0  0  0  0  0  0  0  0  0  0  0
    0.1724   -1.3456    2.0579 H   0  0  0  0  0  0  0  0  0  0  0  0
   -0.6200   -2.2675    0.1473 H   0  0  0  0  0  0  0  0  0  0  0  0
   -2.1017   -1.2932    0.2717 H   0  0  0  0  0  0  0  0  0  0  0  0
   -1.2701   -0.2915   -1.7570 H   0  0  0  0  0  0  0  0  0  0  0  0
    0.4311   -2.0407   -1.8350 H   0  0  0  0  0  0  0  0  0  0  0  0
    1.2540   -0.4168   -2.1639 H   0  0  0  0  0  0  0  0  0  0  0  0
    2.4293    0.5437   -0.1491 H   0  0  0  0  0  0  0  0  0  0  0  0
    2.4209   -0.5631    1.3249 H   0  0  0  0  0  0  0  0  0  0  0  0
  1  2  1  0
  2  3  1  0
  3  4  1  0
  4  5  1  0
  5  6  1  0
  6  7  1  0
  7  8  1  0
  8  9  1  0
  6  2  1  0
  9  3  1  0
  1 10  1  0
  1 11  1  0
  1 12  1  0
  2 13  1  0
  3 14  1  0
  4 15  1  0
  4 16  1  0
  5 17  1  0
  5 18  1  0
  6 19  1  0
  7 20  1  0
  7 21  1  0
  9 22  1  0
  9 23  1  0
M  END
