
     RDKit          3D

 21 21  0  0  0  0  0  0  0  0999 V2000
   -1.4197   -0.5436    1.4910 C   0  0  0  0  0  0  0  0  0  0  0  0
   -0.5838   -0.6639    0.2293 C   0  0  0  0  0  0  0  0  0  0  0  0
   -1.4047   -0.4679   -0.9977 C   0  0  0  0  0  0  0  0  0  0  0  0
   -0.5566    0.7684   -1.3211 C   0  0  0  0  0  0  0  0  0  0  0  0
    0.2629    0.5255   -0.0765 C   0  0  0  0  0  0  0  0  0  0  0  0
    0.1378    1.5898    0.8246 O   0  0  0  0  0  0  0  0  0  0  0  0
    1.6902    0.2063   -0.4700 C   0  0  0  0  0  0  0  0  0  0  0  0
    2.4106   -0.5180    0.6029 C   0  0  0  0  0  0  0  0  0  0  0  0
    2.7241   -1.6849    0.4802 O   0  0  0  0  0  0  0  0  0  0  0  0
   -0.9356    0.1011    2.2658 H   0  0  0  0  0  0  0  0  0  0  0  0
   -1.6153   -1.5591    1.9274 H   0  0  0  0  0  0  0  0  0  0  0  0
   -2.3877   -0.0273    1.2612 H   0  0  0  0  0  0  0  0  0  0  0  0
    0.0076   -1.5961    0.2697 H   0  0  0  0  0  0  0  0  0  0  0  0
   -2.4792   -0.2287   -0.8422 H   0  0  0  0  0  0  0  0  0  0  0  0
   -1.2867   -1.3053   -1.6929 H   0  0  0  0  0  0  0  0  0  0  0  0
   -0.0762    0.6086   -2.2848 H   0  0  0  0  0  0  0  0  0  0  0  0
   -1.1442    1.7102   -1.3109 H   0  0  0  0  0  0  0  0  0  0  0  0
    0.1724    2.4517    0.3168 H   0  0  0  0  0  0  0  0  0  0  0  0
    1.6007   -0.4781   -1.3655 H   0  0  0  0  0  0  0  0  0  0  0  0
    2.2259    1.1087   -0.8089 H   0  0  0  0  0  0  0  0  0  0  0  0
    2.6575    0.0025    1.5014 H   0  0  0  0  0  0  0  0  0  0  0  0
  1  2  1  0
  2  3  1  0
  3  4  1  0
  4  5  1  0
  5  6  1  0
  5  7  1  0
  7  8  1  0
  8  9  2  0
  5  2  1  0
  1 10  1  0
  1 11  1  0
  1 12  1  0
  2 13  1  0
  3 14  1  0
  3 15  1  0
  4 16  1  0
  4 17  1  0
  6 18  1  0
  7 19  1  0
  7 20  1  0
  8 21  1  0
M  END
