
     RDKit          3D

 19 20  0  0  0  0  0  0  0  0999 V2000
   -2.1668   -0.6974   -0.3443 C   0  0  0  0  0  0  0  0  0  0  0  0
   -1.0731   -0.0611    0.4238 C   0  0  0  0  0  0  0  0  0  0  0  0
   -0.0280   -1.0749    0.8312 C   0  0  0  0  0  0  0  0  0  0  0  0
   -0.0160   -2.1941    1.3123 O   0  0  0  0  0  0  0  0  0  0  0  0
    1.0496   -0.1101    0.3867 C   0  0  0  0  0  0  0  0  0  0  0  0
    2.1388   -0.7438   -0.3903 C   0  0  0  0  0  0  0  0  0  0  0  0
    0.0024    0.6504   -0.2693 C   0  0  0  0  0  0  0  0  0  0  0  0
    0.0513    2.1418   -0.2205 C   0  0  0  0  0  0  0  0  0  0  0  0
   -0.0050    1.3600   -1.3717 O   0  0  0  0  0  0  0  0  0  0  0  0
   -3.1348   -0.4953    0.2016 H   0  0  0  0  0  0  0  0  0  0  0  0
   -2.0960   -1.8234   -0.3446 H   0  0  0  0  0  0  0  0  0  0  0  0
   -2.2474   -0.3092   -1.3887 H   0  0  0  0  0  0  0  0  0  0  0  0
   -1.3909    0.4656    1.3532 H   0  0  0  0  0  0  0  0  0  0  0  0
    1.4540    0.4220    1.2955 H   0  0  0  0  0  0  0  0  0  0  0  0
    3.1110   -0.2440   -0.1548 H   0  0  0  0  0  0  0  0  0  0  0  0
    2.0041   -0.7006   -1.4873 H   0  0  0  0  0  0  0  0  0  0  0  0
    2.1994   -1.8197   -0.0947 H   0  0  0  0  0  0  0  0  0  0  0  0
   -0.8461    2.6652    0.1358 H   0  0  0  0  0  0  0  0  0  0  0  0
    0.9935    2.5687    0.1262 H   0  0  0  0  0  0  0  0  0  0  0  0
  1  2  1  0
  2  3  1  0
  3  4  2  0
  3  5  1  0
  5  6  1  0
  5  7  1  0
  7  8  1  0
  8  9  1  0
  7  2  1  0
  9  7  1  0
  1 10  1  0
  1 11  1  0
  1 12  1  0
  2 13  1  0
  5 14  1  0
  6 15  1  0
  6 16  1  0
  6 17  1  0
  8 18  1  0
  8 19  1  0
M  END
