
     RDKit          3D

 19 19  0  0  0  0  0  0  0  0999 V2000
    2.3868   -0.0172   -0.0264 C   0  0  0  0  0  0  0  0  0  0  0  0
    1.0144    0.0997    0.5247 C   0  0  0  0  0  0  0  0  0  0  0  0
    0.2378   -1.1472    0.6830 C   0  0  0  0  0  0  0  0  0  0  0  0
    0.4733   -2.2963    0.9287 O   0  0  0  0  0  0  0  0  0  0  0  0
   -0.9699   -0.3463    0.4023 C   0  0  0  0  0  0  0  0  0  0  0  0
   -2.0867   -1.0241   -0.3072 C   0  0  0  0  0  0  0  0  0  0  0  0
   -0.0619    0.5141   -0.4887 C   0  0  0  0  0  0  0  0  0  0  0  0
   -0.4742    1.9215   -0.4051 C   0  0  0  0  0  0  0  0  0  0  0  0
   -1.6697    2.1734   -0.4643 O   0  0  0  0  0  0  0  0  0  0  0  0
    2.6501   -1.0493   -0.3101 H   0  0  0  0  0  0  0  0  0  0  0  0
    2.5695    0.6476   -0.9052 H   0  0  0  0  0  0  0  0  0  0  0  0
    3.1079    0.2623    0.7922 H   0  0  0  0  0  0  0  0  0  0  0  0
    0.9048    0.7234    1.4404 H   0  0  0  0  0  0  0  0  0  0  0  0
   -1.2417    0.2460    1.3015 H   0  0  0  0  0  0  0  0  0  0  0  0
   -3.0054   -0.3820   -0.1755 H   0  0  0  0  0  0  0  0  0  0  0  0
   -1.8947   -1.1336   -1.3841 H   0  0  0  0  0  0  0  0  0  0  0  0
   -2.2572   -2.0212    0.1843 H   0  0  0  0  0  0  0  0  0  0  0  0
    0.1069    0.0978   -1.4944 H   0  0  0  0  0  0  0  0  0  0  0  0
    0.2102    2.7313   -0.2960 H   0  0  0  0  0  0  0  0  0  0  0  0
  1  2  1  0
  2  3  1  0
  3  4  2  0
  3  5  1  0
  5  6  1  0
  5  7  1  0
  7  8  1  0
  8  9  2  0
  7  2  1  0
  1 10  1  0
  1 11  1  0
  1 12  1  0
  2 13  1  0
  5 14  1  0
  6 15  1  0
  6 16  1  0
  6 17  1  0
  7 18  1  0
  8 19  1  0
M  END
