
     RDKit          3D

 17 18  0  0  0  0  0  0  0  0999 V2000
   -2.3737   -0.4475   -0.2838 C   0  0  0  0  0  0  0  0  0  0  0  0
   -0.9089   -0.2611   -0.5787 C   0  0  0  0  0  0  0  0  0  0  0  0
   -0.0039   -0.4738    0.6408 C   0  0  0  0  0  0  0  0  0  0  0  0
    1.1397   -1.1501    0.3702 O   0  0  0  0  0  0  0  0  0  0  0  0
    2.3076   -0.4387    0.4306 C   0  0  0  0  0  0  0  0  0  0  0  0
    2.2389    0.8155   -0.2216 O   0  0  0  0  0  0  0  0  0  0  0  0
    1.0412    1.4346   -0.5230 C   0  0  0  0  0  0  0  0  0  0  0  0
    1.0583    2.4512   -1.2480 O   0  0  0  0  0  0  0  0  0  0  0  0
   -0.1802    0.8506    0.0340 C   0  0  0  0  0  0  0  0  0  0  0  0
   -2.9852   -0.3581   -1.1962 H   0  0  0  0  0  0  0  0  0  0  0  0
   -2.4951   -1.4959    0.0786 H   0  0  0  0  0  0  0  0  0  0  0  0
   -2.7441    0.2608    0.4995 H   0  0  0  0  0  0  0  0  0  0  0  0
   -0.5955   -0.7008   -1.5451 H   0  0  0  0  0  0  0  0  0  0  0  0
   -0.4885   -0.6783    1.6186 H   0  0  0  0  0  0  0  0  0  0  0  0
    3.0805   -1.0206   -0.1552 H   0  0  0  0  0  0  0  0  0  0  0  0
    2.7271   -0.3633    1.4585 H   0  0  0  0  0  0  0  0  0  0  0  0
   -0.8184    1.5754    0.6209 H   0  0  0  0  0  0  0  0  0  0  0  0
  1  2  1  0
  2  3  1  0
  3  4  1  0
  4  5  1  0
  5  6  1  0
  6  7  1  0
  7  8  2  0
  7  9  1  0
  9  2  1  0
  9  3  1  0
  1 10  1  0
  1 11  1  0
  1 12  1  0
  2 13  1  0
  3 14  1  0
  5 15  1  0
  5 16  1  0
  9 17  1  0
M  END
