
     RDKit          3D

 21 22  0  0  0  0  0  0  0  0999 V2000
   -2.2143   -0.4398    0.4532 C   0  0  0  0  0  0  0  0  0  0  0  0
   -0.9834   -0.0364   -0.2931 C   0  0  0  0  0  0  0  0  0  0  0  0
   -0.0773   -1.1600   -0.6513 C   0  0  0  0  0  0  0  0  0  0  0  0
    1.3569   -0.6831   -0.5429 C   0  0  0  0  0  0  0  0  0  0  0  0
    1.5740   -0.4293    0.9336 C   0  0  0  0  0  0  0  0  0  0  0  0
    0.6829    0.4273    1.4517 C   0  0  0  0  0  0  0  0  0  0  0  0
   -0.2094    1.0750    0.4146 C   0  0  0  0  0  0  0  0  0  0  0  0
    0.7302    1.6076   -0.6198 C   0  0  0  0  0  0  0  0  0  0  0  0
    1.5135    0.6837   -1.1738 C   0  0  0  0  0  0  0  0  0  0  0  0
   -2.8899   -0.9572   -0.2681 H   0  0  0  0  0  0  0  0  0  0  0  0
   -2.7474    0.4850    0.7592 H   0  0  0  0  0  0  0  0  0  0  0  0
   -2.0399   -1.1205    1.2878 H   0  0  0  0  0  0  0  0  0  0  0  0
   -1.3298    0.4326   -1.2607 H   0  0  0  0  0  0  0  0  0  0  0  0
   -0.2948   -1.6345   -1.6311 H   0  0  0  0  0  0  0  0  0  0  0  0
   -0.1901   -1.9695    0.1191 H   0  0  0  0  0  0  0  0  0  0  0  0
    2.0849   -1.3926   -0.9397 H   0  0  0  0  0  0  0  0  0  0  0  0
    2.3581   -0.8937    1.4804 H   0  0  0  0  0  0  0  0  0  0  0  0
    0.5953    0.6455    2.4955 H   0  0  0  0  0  0  0  0  0  0  0  0
   -0.8588    1.8328    0.8433 H   0  0  0  0  0  0  0  0  0  0  0  0
    0.7444    2.6579   -0.8701 H   0  0  0  0  0  0  0  0  0  0  0  0
    2.1951    0.8691   -1.9876 H   0  0  0  0  0  0  0  0  0  0  0  0
  1  2  1  0
  2  3  1  0
  3  4  1  0
  4  5  1  0
  5  6  2  0
  6  7  1  0
  7  8  1  0
  8  9  2  0
  7  2  1  0
  9  4  1  0
  1 10  1  0
  1 11  1  0
  1 12  1  0
  2 13  1  0
  3 14  1  0
  3 15  1  0
  4 16  1  0
  5 17  1  0
  6 18  1  0
  7 19  1  0
  8 20  1  0
  9 21  1  0
M  END
