
     RDKit          3D

 22 23  0  0  0  0  0  0  0  0999 V2000
   -1.2457    1.7193    0.2786 C   0  0  0  0  0  0  0  0  0  0  0  0
   -0.1246    0.7891    0.5498 C   0  0  0  0  0  0  0  0  0  0  0  0
    1.0144    0.8550   -0.4747 C   0  0  0  0  0  0  0  0  0  0  0  0
    1.9999   -0.0989    0.1064 C   0  0  0  0  0  0  0  0  0  0  0  0
    1.0431   -1.2433    0.5051 C   0  0  0  0  0  0  0  0  0  0  0  0
   -0.2591   -0.6231    0.0622 C   0  0  0  0  0  0  0  0  0  0  0  0
   -1.4976   -1.3434    0.1852 C   0  0  0  0  0  0  0  0  0  0  0  0
    0.1399   -0.0731   -1.3161 C   0  0  0  0  0  0  0  0  0  0  0  0
   -2.0178    1.3615   -0.4024 H   0  0  0  0  0  0  0  0  0  0  0  0
   -0.8015    2.6757   -0.1253 H   0  0  0  0  0  0  0  0  0  0  0  0
   -1.6950    2.0369    1.2654 H   0  0  0  0  0  0  0  0  0  0  0  0
    0.2914    0.9075    1.5741 H   0  0  0  0  0  0  0  0  0  0  0  0
    1.2897    1.7915   -0.8638 H   0  0  0  0  0  0  0  0  0  0  0  0
    2.7005   -0.5277   -0.6242 H   0  0  0  0  0  0  0  0  0  0  0  0
    2.4722    0.3391    0.9925 H   0  0  0  0  0  0  0  0  0  0  0  0
    1.1094   -1.4115    1.5860 H   0  0  0  0  0  0  0  0  0  0  0  0
    1.2101   -2.1362   -0.1005 H   0  0  0  0  0  0  0  0  0  0  0  0
   -1.7238   -1.9001   -0.7723 H   0  0  0  0  0  0  0  0  0  0  0  0
   -1.4769   -2.1164    0.9689 H   0  0  0  0  0  0  0  0  0  0  0  0
   -2.3618   -0.6456    0.3042 H   0  0  0  0  0  0  0  0  0  0  0  0
   -0.7495    0.4223   -1.7498 H   0  0  0  0  0  0  0  0  0  0  0  0
    0.6827   -0.7783   -1.9492 H   0  0  0  0  0  0  0  0  0  0  0  0
  1  2  1  0
  2  3  1  0
  3  4  1  0
  4  5  1  0
  5  6  1  0
  6  7  1  0
  6  8  1  0
  6  2  1  0
  8  3  1  0
  1  9  1  0
  1 10  1  0
  1 11  1  0
  2 12  1  0
  3 13  1  0
  4 14  1  0
  4 15  1  0
  5 16  1  0
  5 17  1  0
  7 18  1  0
  7 19  1  0
  7 20  1  0
  8 21  1  0
  8 22  1  0
M  END
