
     RDKit          3D

 20 21  0  0  0  0  0  0  0  0999 V2000
   -2.5501   -0.0584   -0.3638 C   0  0  0  0  0  0  0  0  0  0  0  0
   -1.1247   -0.1789   -0.7074 C   0  0  0  0  0  0  0  0  0  0  0  0
   -0.2358   -0.9619    0.2203 C   0  0  0  0  0  0  0  0  0  0  0  0
   -0.4002    0.1799    1.1773 C   0  0  0  0  0  0  0  0  0  0  0  0
   -0.1808    0.8542   -0.1255 C   0  0  0  0  0  0  0  0  0  0  0  0
    0.8698   -0.1817   -0.4002 C   0  0  0  0  0  0  0  0  0  0  0  0
    2.1752   -0.0832    0.2596 C   0  0  0  0  0  0  0  0  0  0  0  0
    3.0087    0.7125   -0.5617 O   0  0  0  0  0  0  0  0  0  0  0  0
   -2.9329   -1.0273    0.0730 H   0  0  0  0  0  0  0  0  0  0  0  0
   -2.8370    0.8136    0.2423 H   0  0  0  0  0  0  0  0  0  0  0  0
   -3.1339    0.0434   -1.3255 H   0  0  0  0  0  0  0  0  0  0  0  0
   -0.9049   -0.3504   -1.7827 H   0  0  0  0  0  0  0  0  0  0  0  0
   -0.2767   -1.9393    0.4208 H   0  0  0  0  0  0  0  0  0  0  0  0
   -1.4299    0.2724    1.6187 H   0  0  0  0  0  0  0  0  0  0  0  0
    0.3293    0.2879    1.9789 H   0  0  0  0  0  0  0  0  0  0  0  0
   -0.1586    1.8276   -0.3522 H   0  0  0  0  0  0  0  0  0  0  0  0
    0.9676   -0.3327   -1.5132 H   0  0  0  0  0  0  0  0  0  0  0  0
    2.6604   -1.0891    0.2646 H   0  0  0  0  0  0  0  0  0  0  0  0
    2.2203    0.3646    1.2459 H   0  0  0  0  0  0  0  0  0  0  0  0
    3.9343    0.4547   -0.3692 H   0  0  0  0  0  0  0  0  0  0  0  0
  1  2  1  0
  2  3  1  0
  3  4  1  0
  4  5  1  0
  5  6  1  0
  6  7  1  0
  7  8  1  0
  5  2  1  0
  6  3  1  0
  1  9  1  0
  1 10  1  0
  1 11  1  0
  2 12  1  0
  3 13  1  0
  4 14  1  0
  4 15  1  0
  5 16  1  0
  6 17  1  0
  7 18  1  0
  7 19  1  0
  8 20  1  0
M  END
