
     RDKit          3D

 21 23  0  0  0  0  0  0  0  0999 V2000
   -1.8920    1.0379    0.1833 C   0  0  0  0  0  0  0  0  0  0  0  0
   -1.0198   -0.1544    0.1427 C   0  0  0  0  0  0  0  0  0  0  0  0
    0.1926   -0.0151    1.0728 C   0  0  0  0  0  0  0  0  0  0  0  0
    0.8516   -1.3574    0.7732 C   0  0  0  0  0  0  0  0  0  0  0  0
    0.7771   -1.3558   -0.7590 C   0  0  0  0  0  0  0  0  0  0  0  0
    1.7409   -0.5040   -1.3030 O   0  0  0  0  0  0  0  0  0  0  0  0
    0.9015    0.5904   -1.0744 C   0  0  0  0  0  0  0  0  0  0  0  0
    1.0169    1.0273    0.3950 C   0  0  0  0  0  0  0  0  0  0  0  0
   -0.2636   -0.3501   -1.1370 C   0  0  0  0  0  0  0  0  0  0  0  0
   -2.8829    0.7644   -0.2544 H   0  0  0  0  0  0  0  0  0  0  0  0
   -2.1182    1.2619    1.2662 H   0  0  0  0  0  0  0  0  0  0  0  0
   -1.4644    1.9502   -0.2339 H   0  0  0  0  0  0  0  0  0  0  0  0
   -1.5938   -1.0573    0.3649 H   0  0  0  0  0  0  0  0  0  0  0  0
   -0.0592    0.1434    2.0983 H   0  0  0  0  0  0  0  0  0  0  0  0
    1.8914   -1.2793    1.0952 H   0  0  0  0  0  0  0  0  0  0  0  0
    0.2859   -2.1849    1.1999 H   0  0  0  0  0  0  0  0  0  0  0  0
    0.7043   -2.3499   -1.2029 H   0  0  0  0  0  0  0  0  0  0  0  0
    0.9446    1.3991   -1.7995 H   0  0  0  0  0  0  0  0  0  0  0  0
    0.6984    2.0546    0.5445 H   0  0  0  0  0  0  0  0  0  0  0  0
    2.0889    0.8414    0.6814 H   0  0  0  0  0  0  0  0  0  0  0  0
   -0.8002   -0.4625   -2.0534 H   0  0  0  0  0  0  0  0  0  0  0  0
  1  2  1  0
  2  3  1  0
  3  4  1  0
  4  5  1  0
  5  6  1  0
  6  7  1  0
  7  8  1  0
  7  9  1  0
  9  2  1  0
  8  3  1  0
  9  5  1  0
  1 10  1  0
  1 11  1  0
  1 12  1  0
  2 13  1  0
  3 14  1  0
  4 15  1  0
  4 16  1  0
  5 17  1  0
  7 18  1  0
  8 19  1  0
  8 20  1  0
  9 21  1  0
M  END
