
     RDKit          3D

 19 21  0  0  0  0  0  0  0  0999 V2000
    2.6415   -0.3279   -0.0930 C   0  0  0  0  0  0  0  0  0  0  0  0
    1.2062   -0.3456   -0.5677 C   0  0  0  0  0  0  0  0  0  0  0  0
    0.4639    0.9383   -0.4302 C   0  0  0  0  0  0  0  0  0  0  0  0
   -0.7216    1.0889   -1.2800 C   0  0  0  0  0  0  0  0  0  0  0  0
   -1.7090    0.2797   -0.9313 C   0  0  0  0  0  0  0  0  0  0  0  0
   -1.2729   -0.5109    0.2127 C   0  0  0  0  0  0  0  0  0  0  0  0
   -2.1529   -0.5429    1.4689 C   0  0  0  0  0  0  0  0  0  0  0  0
   -1.9558   -1.6200    0.6418 O   0  0  0  0  0  0  0  0  0  0  0  0
    0.1557   -0.2804    0.4554 C   0  0  0  0  0  0  0  0  0  0  0  0
    3.1972    0.5624   -0.4930 H   0  0  0  0  0  0  0  0  0  0  0  0
    3.1224   -1.2810   -0.4008 H   0  0  0  0  0  0  0  0  0  0  0  0
    2.6902   -0.2754    1.0333 H   0  0  0  0  0  0  0  0  0  0  0  0
    1.0787   -0.8659   -1.5326 H   0  0  0  0  0  0  0  0  0  0  0  0
    0.8965    1.8087    0.0689 H   0  0  0  0  0  0  0  0  0  0  0  0
   -0.7813    1.7944   -2.1117 H   0  0  0  0  0  0  0  0  0  0  0  0
   -2.6946    0.1880   -1.3928 H   0  0  0  0  0  0  0  0  0  0  0  0
   -3.0435    0.1073    1.3736 H   0  0  0  0  0  0  0  0  0  0  0  0
   -1.6242   -0.5256    2.4579 H   0  0  0  0  0  0  0  0  0  0  0  0
    0.5036   -0.1921    1.5207 H   0  0  0  0  0  0  0  0  0  0  0  0
  1  2  1  0
  2  3  1  0
  3  4  1  0
  4  5  2  0
  5  6  1  0
  6  7  1  0
  7  8  1  0
  6  9  1  0
  9  2  1  0
  9  3  1  0
  8  6  1  0
  1 10  1  0
  1 11  1  0
  1 12  1  0
  2 13  1  0
  3 14  1  0
  4 15  1  0
  5 16  1  0
  7 17  1  0
  7 18  1  0
  9 19  1  0
M  END
