
     RDKit          3D

 21 22  0  0  0  0  0  0  0  0999 V2000
    2.5098   -0.2778    0.2614 C   0  0  0  0  0  0  0  0  0  0  0  0
    1.1792   -0.3626   -0.3877 C   0  0  0  0  0  0  0  0  0  0  0  0
    0.7292    0.9162   -1.0503 C   0  0  0  0  0  0  0  0  0  0  0  0
   -0.6334    0.6182   -1.2798 O   0  0  0  0  0  0  0  0  0  0  0  0
   -1.0960    0.1106   -0.0926 C   0  0  0  0  0  0  0  0  0  0  0  0
   -1.8626    1.0909    0.7395 C   0  0  0  0  0  0  0  0  0  0  0  0
   -1.6865   -1.2623   -0.1112 C   0  0  0  0  0  0  0  0  0  0  0  0
   -0.5080   -1.8430    0.3955 O   0  0  0  0  0  0  0  0  0  0  0  0
    0.0393   -0.5959    0.5948 C   0  0  0  0  0  0  0  0  0  0  0  0
    2.8683   -1.3256    0.4421 H   0  0  0  0  0  0  0  0  0  0  0  0
    2.5564    0.2855    1.1939 H   0  0  0  0  0  0  0  0  0  0  0  0
    3.2064    0.2385   -0.4538 H   0  0  0  0  0  0  0  0  0  0  0  0
    1.2023   -1.1435   -1.1657 H   0  0  0  0  0  0  0  0  0  0  0  0
    0.7283    1.7183   -0.2845 H   0  0  0  0  0  0  0  0  0  0  0  0
    1.2605    1.1588   -1.9679 H   0  0  0  0  0  0  0  0  0  0  0  0
   -2.5984    1.5901    0.0694 H   0  0  0  0  0  0  0  0  0  0  0  0
   -2.4374    0.5214    1.4989 H   0  0  0  0  0  0  0  0  0  0  0  0
   -1.2366    1.8945    1.1787 H   0  0  0  0  0  0  0  0  0  0  0  0
   -2.4787   -1.3974    0.6835 H   0  0  0  0  0  0  0  0  0  0  0  0
   -1.9896   -1.6167   -1.0982 H   0  0  0  0  0  0  0  0  0  0  0  0
    0.2473   -0.3182    1.6302 H   0  0  0  0  0  0  0  0  0  0  0  0
  1  2  1  0
  2  3  1  0
  3  4  1  0
  4  5  1  0
  5  6  1  0
  5  7  1  0
  7  8  1  0
  8  9  1  0
  9  2  1  0
  9  5  1  0
  1 10  1  0
  1 11  1  0
  1 12  1  0
  2 13  1  0
  3 14  1  0
  3 15  1  0
  6 16  1  0
  6 17  1  0
  6 18  1  0
  7 19  1  0
  7 20  1  0
  9 21  1  0
M  END
