
     RDKit          3D

 21 23  0  0  0  0  0  0  0  0999 V2000
    3.1848   -0.3328    0.3136 C   0  0  0  0  0  0  0  0  0  0  0  0
    1.7580   -0.0979    0.7434 C   0  0  0  0  0  0  0  0  0  0  0  0
    1.0224    0.9856    0.0745 C   0  0  0  0  0  0  0  0  0  0  0  0
   -0.4370    1.2033    0.2985 C   0  0  0  0  0  0  0  0  0  0  0  0
   -0.6817   -0.2489    0.0636 C   0  0  0  0  0  0  0  0  0  0  0  0
   -1.2407   -1.0533    1.0370 O   0  0  0  0  0  0  0  0  0  0  0  0
   -1.8523   -0.8480   -0.3137 C   0  0  0  0  0  0  0  0  0  0  0  0
   -3.1803   -0.1021   -0.1663 C   0  0  0  0  0  0  0  0  0  0  0  0
    0.7319   -0.5031   -0.2736 C   0  0  0  0  0  0  0  0  0  0  0  0
    3.7419    0.6088    0.4193 H   0  0  0  0  0  0  0  0  0  0  0  0
    3.2465   -0.7574   -0.7282 H   0  0  0  0  0  0  0  0  0  0  0  0
    3.6200   -1.1439    0.9604 H   0  0  0  0  0  0  0  0  0  0  0  0
    1.5171   -0.3700    1.7913 H   0  0  0  0  0  0  0  0  0  0  0  0
    1.4850    1.5573   -0.7430 H   0  0  0  0  0  0  0  0  0  0  0  0
   -0.6741    1.6002    1.2993 H   0  0  0  0  0  0  0  0  0  0  0  0
   -0.9256    1.8088   -0.5148 H   0  0  0  0  0  0  0  0  0  0  0  0
   -1.8981   -1.8119   -0.8845 H   0  0  0  0  0  0  0  0  0  0  0  0
   -4.0102   -0.7899    0.0488 H   0  0  0  0  0  0  0  0  0  0  0  0
   -3.3673    0.5662   -1.0360 H   0  0  0  0  0  0  0  0  0  0  0  0
   -3.1067    0.5855    0.7169 H   0  0  0  0  0  0  0  0  0  0  0  0
    1.0668   -0.8566   -1.2582 H   0  0  0  0  0  0  0  0  0  0  0  0
  1  2  1  0
  2  3  1  0
  3  4  1  0
  4  5  1  0
  5  6  1  0
  6  7  1  0
  7  8  1  0
  5  9  1  0
  9  2  1  0
  9  3  1  0
  7  5  1  0
  1 10  1  0
  1 11  1  0
  1 12  1  0
  2 13  1  0
  3 14  1  0
  4 15  1  0
  4 16  1  0
  7 17  1  0
  8 18  1  0
  8 19  1  0
  8 20  1  0
  9 21  1  0
M  END
