
     RDKit          3D

 21 22  0  0  0  0  0  0  0  0999 V2000
   -2.3754   -0.1758    0.0563 C   0  0  0  0  0  0  0  0  0  0  0  0
   -0.9100   -0.0163   -0.3631 C   0  0  0  0  0  0  0  0  0  0  0  0
   -0.3864    1.1849    0.3401 C   0  0  0  0  0  0  0  0  0  0  0  0
    0.9929    1.5973   -0.1422 C   0  0  0  0  0  0  0  0  0  0  0  0
    1.8845    0.7985    0.5586 O   0  0  0  0  0  0  0  0  0  0  0  0
    2.1245   -0.4088   -0.0648 C   0  0  0  0  0  0  0  0  0  0  0  0
    1.0906   -1.4548    0.1814 C   0  0  0  0  0  0  0  0  0  0  0  0
    0.2330   -1.3565    1.2806 O   0  0  0  0  0  0  0  0  0  0  0  0
   -0.2273   -1.2863   -0.1331 C   0  0  0  0  0  0  0  0  0  0  0  0
   -2.7339    0.6714    0.6435 H   0  0  0  0  0  0  0  0  0  0  0  0
   -3.0378   -0.3376   -0.7958 H   0  0  0  0  0  0  0  0  0  0  0  0
   -2.4946   -1.0828    0.7178 H   0  0  0  0  0  0  0  0  0  0  0  0
   -0.9612    0.2473   -1.4580 H   0  0  0  0  0  0  0  0  0  0  0  0
   -1.0664    2.0407    0.0882 H   0  0  0  0  0  0  0  0  0  0  0  0
   -0.3695    1.1141    1.4315 H   0  0  0  0  0  0  0  0  0  0  0  0
    1.0725    1.4661   -1.2403 H   0  0  0  0  0  0  0  0  0  0  0  0
    1.1635    2.6612    0.0974 H   0  0  0  0  0  0  0  0  0  0  0  0
    3.1288   -0.7470    0.2683 H   0  0  0  0  0  0  0  0  0  0  0  0
    2.2154   -0.2579   -1.1730 H   0  0  0  0  0  0  0  0  0  0  0  0
    1.5322   -2.4823    0.1037 H   0  0  0  0  0  0  0  0  0  0  0  0
   -0.8754   -2.1753   -0.3971 H   0  0  0  0  0  0  0  0  0  0  0  0
  1  2  1  0
  2  3  1  0
  3  4  1  0
  4  5  1  0
  5  6  1  0
  6  7  1  0
  7  8  1  0
  8  9  1  0
  9  2  1  0
  9  7  1  0
  1 10  1  0
  1 11  1  0
  1 12  1  0
  2 13  1  0
  3 14  1  0
  3 15  1  0
  4 16  1  0
  4 17  1  0
  6 18  1  0
  6 19  1  0
  7 20  1  0
  9 21  1  0
M  END
