
     RDKit          3D

 19 20  0  0  0  0  0  0  0  0999 V2000
    1.7702    0.8738   -0.1861 C   0  0  0  0  0  0  0  0  0  0  0  0
    0.7831   -0.2083   -0.4316 C   0  0  0  0  0  0  0  0  0  0  0  0
    0.5171   -1.1286    0.7748 C   0  0  0  0  0  0  0  0  0  0  0  0
   -0.3721    0.0260    1.2642 C   0  0  0  0  0  0  0  0  0  0  0  0
   -0.6651    0.1168   -0.2175 C   0  0  0  0  0  0  0  0  0  0  0  0
   -1.2683    1.2645   -0.7642 C   0  0  0  0  0  0  0  0  0  0  0  0
   -2.1738    1.8564   -0.2061 O   0  0  0  0  0  0  0  0  0  0  0  0
   -1.2840   -1.2588   -0.4617 C   0  0  0  0  0  0  0  0  0  0  0  0
   -0.3869   -2.0345    0.3185 O   0  0  0  0  0  0  0  0  0  0  0  0
    2.7421    0.5534   -0.6656 H   0  0  0  0  0  0  0  0  0  0  0  0
    1.4853    1.8637   -0.5763 H   0  0  0  0  0  0  0  0  0  0  0  0
    2.0331    0.9845    0.9000 H   0  0  0  0  0  0  0  0  0  0  0  0
    0.9685   -0.8728   -1.3102 H   0  0  0  0  0  0  0  0  0  0  0  0
    1.3454   -1.3937    1.3729 H   0  0  0  0  0  0  0  0  0  0  0  0
   -1.2367   -0.3878    1.8094 H   0  0  0  0  0  0  0  0  0  0  0  0
    0.1643    0.8611    1.7090 H   0  0  0  0  0  0  0  0  0  0  0  0
   -0.9420    1.6651   -1.7134 H   0  0  0  0  0  0  0  0  0  0  0  0
   -2.3079   -1.3177   -0.0863 H   0  0  0  0  0  0  0  0  0  0  0  0
   -1.1725   -1.4632   -1.5299 H   0  0  0  0  0  0  0  0  0  0  0  0
  1  2  1  0
  2  3  1  0
  3  4  1  0
  4  5  1  0
  5  6  1  0
  6  7  2  0
  5  8  1  0
  8  9  1  0
  5  2  1  0
  9  3  1  0
  1 10  1  0
  1 11  1  0
  1 12  1  0
  2 13  1  0
  3 14  1  0
  4 15  1  0
  4 16  1  0
  6 17  1  0
  8 18  1  0
  8 19  1  0
M  END
