
     RDKit          3D

 21 23  0  0  0  0  0  0  0  0999 V2000
    2.4446    0.2122    0.3852 C   0  0  0  0  0  0  0  0  0  0  0  0
    1.2438   -0.0811   -0.4243 C   0  0  0  0  0  0  0  0  0  0  0  0
    0.4171    1.1726   -0.7457 C   0  0  0  0  0  0  0  0  0  0  0  0
   -1.0125    0.6905   -0.7607 C   0  0  0  0  0  0  0  0  0  0  0  0
   -1.5337    0.3670    0.6434 C   0  0  0  0  0  0  0  0  0  0  0  0
   -2.1456   -0.8820   -0.0117 C   0  0  0  0  0  0  0  0  0  0  0  0
   -0.8959   -0.8363   -0.8067 C   0  0  0  0  0  0  0  0  0  0  0  0
    0.2035   -0.9166    0.2530 C   0  0  0  0  0  0  0  0  0  0  0  0
   -0.4449   -0.1710    1.2706 O   0  0  0  0  0  0  0  0  0  0  0  0
    2.4639    1.2359    0.8250 H   0  0  0  0  0  0  0  0  0  0  0  0
    2.6735   -0.5442    1.1640 H   0  0  0  0  0  0  0  0  0  0  0  0
    3.3380    0.1892   -0.3064 H   0  0  0  0  0  0  0  0  0  0  0  0
    1.4497   -0.5500   -1.4165 H   0  0  0  0  0  0  0  0  0  0  0  0
    0.6865    1.5970   -1.7167 H   0  0  0  0  0  0  0  0  0  0  0  0
    0.5656    1.8988    0.0942 H   0  0  0  0  0  0  0  0  0  0  0  0
   -1.7025    1.1428   -1.4402 H   0  0  0  0  0  0  0  0  0  0  0  0
   -2.1837    1.0509    1.1074 H   0  0  0  0  0  0  0  0  0  0  0  0
   -2.2270   -1.7471    0.6574 H   0  0  0  0  0  0  0  0  0  0  0  0
   -3.0490   -0.6083   -0.5867 H   0  0  0  0  0  0  0  0  0  0  0  0
   -0.7686   -1.3123   -1.7268 H   0  0  0  0  0  0  0  0  0  0  0  0
    0.4773   -1.9078    0.5390 H   0  0  0  0  0  0  0  0  0  0  0  0
  1  2  1  0
  2  3  1  0
  3  4  1  0
  4  5  1  0
  5  6  1  0
  6  7  1  0
  7  8  1  0
  8  9  1  0
  8  2  1  0
  7  4  1  0
  9  5  1  0
  1 10  1  0
  1 11  1  0
  1 12  1  0
  2 13  1  0
  3 14  1  0
  3 15  1  0
  4 16  1  0
  5 17  1  0
  6 18  1  0
  6 19  1  0
  7 20  1  0
  8 21  1  0
M  END
