
     RDKit          3D

 23 23  0  0  0  0  0  0  0  0999 V2000
   -2.1109   -0.4869   -0.8371 C   0  0  0  0  0  0  0  0  0  0  0  0
   -0.6678   -0.6828   -0.4788 C   0  0  0  0  0  0  0  0  0  0  0  0
   -0.4941   -1.2639    0.9089 C   0  0  0  0  0  0  0  0  0  0  0  0
    0.9511   -1.0418    1.1048 C   0  0  0  0  0  0  0  0  0  0  0  0
    1.6862   -1.7775    1.7008 O   0  0  0  0  0  0  0  0  0  0  0  0
    1.2871    0.2290    0.4371 C   0  0  0  0  0  0  0  0  0  0  0  0
    2.4125    0.0956   -0.5632 C   0  0  0  0  0  0  0  0  0  0  0  0
    0.0440    0.6455   -0.3405 C   0  0  0  0  0  0  0  0  0  0  0  0
   -0.7653    1.6777    0.3775 C   0  0  0  0  0  0  0  0  0  0  0  0
   -2.6289   -0.0971    0.0758 H   0  0  0  0  0  0  0  0  0  0  0  0
   -2.1710    0.2588   -1.6619 H   0  0  0  0  0  0  0  0  0  0  0  0
   -2.5830   -1.4087   -1.1729 H   0  0  0  0  0  0  0  0  0  0  0  0
   -0.0993   -1.2950   -1.1792 H   0  0  0  0  0  0  0  0  0  0  0  0
   -0.7870   -2.3294    0.9398 H   0  0  0  0  0  0  0  0  0  0  0  0
   -1.0876   -0.7160    1.6647 H   0  0  0  0  0  0  0  0  0  0  0  0
    1.4810    1.0568    1.1628 H   0  0  0  0  0  0  0  0  0  0  0  0
    3.1218    0.9373   -0.4153 H   0  0  0  0  0  0  0  0  0  0  0  0
    2.8988   -0.8812   -0.3697 H   0  0  0  0  0  0  0  0  0  0  0  0
    2.0682    0.1459   -1.6112 H   0  0  0  0  0  0  0  0  0  0  0  0
    0.2896    0.9945   -1.3624 H   0  0  0  0  0  0  0  0  0  0  0  0
   -1.4044    2.2142   -0.3638 H   0  0  0  0  0  0  0  0  0  0  0  0
   -0.0484    2.4271    0.8000 H   0  0  0  0  0  0  0  0  0  0  0  0
   -1.3928    1.2979    1.1836 H   0  0  0  0  0  0  0  0  0  0  0  0
  1  2  1  0
  2  3  1  0
  3  4  1  0
  4  5  2  0
  4  6  1  0
  6  7  1  0
  6  8  1  0
  8  9  1  0
  8  2  1  0
  1 10  1  0
  1 11  1  0
  1 12  1  0
  2 13  1  0
  3 14  1  0
  3 15  1  0
  6 16  1  0
  7 17  1  0
  7 18  1  0
  7 19  1  0
  8 20  1  0
  9 21  1  0
  9 22  1  0
  9 23  1  0
M  END
