
     RDKit          3D

 23 24  0  0  0  0  0  0  0  0999 V2000
   -2.1724   -0.1217    0.0489 C   0  0  0  0  0  0  0  0  0  0  0  0
   -0.7274   -0.2994   -0.3743 C   0  0  0  0  0  0  0  0  0  0  0  0
   -0.1605   -1.5619    0.1771 C   0  0  0  0  0  0  0  0  0  0  0  0
    1.3072   -1.6431    0.2434 C   0  0  0  0  0  0  0  0  0  0  0  0
    2.0686   -0.4711   -0.2585 C   0  0  0  0  0  0  0  0  0  0  0  0
    1.7014   -0.0160   -1.5195 O   0  0  0  0  0  0  0  0  0  0  0  0
    1.4516    0.7781   -0.4201 C   0  0  0  0  0  0  0  0  0  0  0  0
    0.0791    0.8471    0.1785 C   0  0  0  0  0  0  0  0  0  0  0  0
   -0.5887    2.1699    0.0393 C   0  0  0  0  0  0  0  0  0  0  0  0
   -2.1991    0.1130    1.1288 H   0  0  0  0  0  0  0  0  0  0  0  0
   -2.7103   -1.0789   -0.1645 H   0  0  0  0  0  0  0  0  0  0  0  0
   -2.6722    0.6585   -0.5482 H   0  0  0  0  0  0  0  0  0  0  0  0
   -0.7370   -0.3000   -1.4944 H   0  0  0  0  0  0  0  0  0  0  0  0
   -0.6048   -2.4244   -0.3911 H   0  0  0  0  0  0  0  0  0  0  0  0
   -0.5814   -1.6847    1.2188 H   0  0  0  0  0  0  0  0  0  0  0  0
    1.6465   -2.5453   -0.3435 H   0  0  0  0  0  0  0  0  0  0  0  0
    1.6657   -1.8547    1.2896 H   0  0  0  0  0  0  0  0  0  0  0  0
    3.1685   -0.5182   -0.0044 H   0  0  0  0  0  0  0  0  0  0  0  0
    2.0371    1.7260   -0.2817 H   0  0  0  0  0  0  0  0  0  0  0  0
    0.2017    0.6359    1.2797 H   0  0  0  0  0  0  0  0  0  0  0  0
   -0.5327    2.5999   -0.9635 H   0  0  0  0  0  0  0  0  0  0  0  0
   -0.0384    2.8893    0.7148 H   0  0  0  0  0  0  0  0  0  0  0  0
   -1.6025    2.1016    0.4449 H   0  0  0  0  0  0  0  0  0  0  0  0
  1  2  1  0
  2  3  1  0
  3  4  1  0
  4  5  1  0
  5  6  1  0
  6  7  1  0
  7  8  1  0
  8  9  1  0
  8  2  1  0
  7  5  1  0
  1 10  1  0
  1 11  1  0
  1 12  1  0
  2 13  1  0
  3 14  1  0
  3 15  1  0
  4 16  1  0
  4 17  1  0
  5 18  1  0
  7 19  1  0
  8 20  1  0
  9 21  1  0
  9 22  1  0
  9 23  1  0
M  END
