
     RDKit          3D

 21 23  0  0  0  0  0  0  0  0999 V2000
    2.2830   -0.4097    0.8434 C   0  0  0  0  0  0  0  0  0  0  0  0
    1.4201    0.3653   -0.0970 C   0  0  0  0  0  0  0  0  0  0  0  0
    0.6963   -0.4075   -1.1525 C   0  0  0  0  0  0  0  0  0  0  0  0
   -0.5886    0.3011   -0.9121 C   0  0  0  0  0  0  0  0  0  0  0  0
   -1.7392   -0.6069   -0.5335 C   0  0  0  0  0  0  0  0  0  0  0  0
   -1.7442   -0.5409    0.9527 C   0  0  0  0  0  0  0  0  0  0  0  0
   -0.5512   -0.0522    1.3928 O   0  0  0  0  0  0  0  0  0  0  0  0
    0.0351    0.7215    0.4524 C   0  0  0  0  0  0  0  0  0  0  0  0
   -0.6789    1.6846   -0.4106 C   0  0  0  0  0  0  0  0  0  0  0  0
    1.7443   -1.2394    1.3134 H   0  0  0  0  0  0  0  0  0  0  0  0
    2.7190    0.2795    1.5766 H   0  0  0  0  0  0  0  0  0  0  0  0
    3.1244   -0.8360    0.2608 H   0  0  0  0  0  0  0  0  0  0  0  0
    1.9424    1.2320   -0.5405 H   0  0  0  0  0  0  0  0  0  0  0  0
    0.6985   -1.4973   -0.8551 H   0  0  0  0  0  0  0  0  0  0  0  0
    1.1265   -0.3451   -2.1711 H   0  0  0  0  0  0  0  0  0  0  0  0
   -2.6662   -0.1077   -0.9368 H   0  0  0  0  0  0  0  0  0  0  0  0
   -1.6327   -1.6035   -0.9592 H   0  0  0  0  0  0  0  0  0  0  0  0
   -2.5725    0.1061    1.3418 H   0  0  0  0  0  0  0  0  0  0  0  0
   -1.9273   -1.5792    1.3328 H   0  0  0  0  0  0  0  0  0  0  0  0
   -1.6491    2.0373   -0.0596 H   0  0  0  0  0  0  0  0  0  0  0  0
   -0.0395    2.4981   -0.8386 H   0  0  0  0  0  0  0  0  0  0  0  0
  1  2  1  0
  2  3  1  0
  3  4  1  0
  4  5  1  0
  5  6  1  0
  6  7  1  0
  7  8  1  0
  8  9  1  0
  8  2  1  0
  8  4  1  0
  9  4  1  0
  1 10  1  0
  1 11  1  0
  1 12  1  0
  2 13  1  0
  3 14  1  0
  3 15  1  0
  5 16  1  0
  5 17  1  0
  6 18  1  0
  6 19  1  0
  9 20  1  0
  9 21  1  0
M  END
