
     RDKit          3D

 23 23  0  0  0  0  0  0  0  0999 V2000
   -2.3154   -0.9830    0.2475 C   0  0  0  0  0  0  0  0  0  0  0  0
   -1.3651    0.0056   -0.3861 C   0  0  0  0  0  0  0  0  0  0  0  0
   -0.1535   -0.7459   -0.8635 C   0  0  0  0  0  0  0  0  0  0  0  0
    1.0294    0.1111   -0.5249 C   0  0  0  0  0  0  0  0  0  0  0  0
    2.1469   -0.8018   -0.0659 C   0  0  0  0  0  0  0  0  0  0  0  0
    3.2962   -0.1134    0.2747 O   0  0  0  0  0  0  0  0  0  0  0  0
    0.6070    1.0947    0.5099 C   0  0  0  0  0  0  0  0  0  0  0  0
   -0.9094    1.0700    0.5572 C   0  0  0  0  0  0  0  0  0  0  0  0
   -1.3841    2.3209    0.1570 O   0  0  0  0  0  0  0  0  0  0  0  0
   -1.9819   -1.3059    1.2460 H   0  0  0  0  0  0  0  0  0  0  0  0
   -2.3284   -1.8843   -0.4014 H   0  0  0  0  0  0  0  0  0  0  0  0
   -3.3670   -0.6074    0.2721 H   0  0  0  0  0  0  0  0  0  0  0  0
   -1.9267    0.4827   -1.2300 H   0  0  0  0  0  0  0  0  0  0  0  0
   -0.0783   -1.7240   -0.3069 H   0  0  0  0  0  0  0  0  0  0  0  0
   -0.2469   -0.9191   -1.9378 H   0  0  0  0  0  0  0  0  0  0  0  0
    1.3248    0.6527   -1.4459 H   0  0  0  0  0  0  0  0  0  0  0  0
    2.3620   -1.4754   -0.9438 H   0  0  0  0  0  0  0  0  0  0  0  0
    1.7712   -1.4361    0.7632 H   0  0  0  0  0  0  0  0  0  0  0  0
    3.5228   -0.3429    1.2268 H   0  0  0  0  0  0  0  0  0  0  0  0
    0.9706    2.1129    0.2404 H   0  0  0  0  0  0  0  0  0  0  0  0
    1.0198    0.8803    1.5259 H   0  0  0  0  0  0  0  0  0  0  0  0
   -1.2420    0.9094    1.6015 H   0  0  0  0  0  0  0  0  0  0  0  0
   -0.7518    2.6990   -0.5162 H   0  0  0  0  0  0  0  0  0  0  0  0
  1  2  1  0
  2  3  1  0
  3  4  1  0
  4  5  1  0
  5  6  1  0
  4  7  1  0
  7  8  1  0
  8  9  1  0
  8  2  1  0
  1 10  1  0
  1 11  1  0
  1 12  1  0
  2 13  1  0
  3 14  1  0
  3 15  1  0
  4 16  1  0
  5 17  1  0
  5 18  1  0
  6 19  1  0
  7 20  1  0
  7 21  1  0
  8 22  1  0
  9 23  1  0
M  END
