
     RDKit          3D

 23 24  0  0  0  0  0  0  0  0999 V2000
    2.5701    0.9290    0.4054 C   0  0  0  0  0  0  0  0  0  0  0  0
    1.1365    0.3760    0.3746 C   0  0  0  0  0  0  0  0  0  0  0  0
    0.7337   -0.5007   -0.7523 C   0  0  0  0  0  0  0  0  0  0  0  0
   -0.2662   -1.5805   -0.6309 C   0  0  0  0  0  0  0  0  0  0  0  0
   -1.0959   -1.5853    0.5950 C   0  0  0  0  0  0  0  0  0  0  0  0
   -2.2346   -0.7879    0.3449 O   0  0  0  0  0  0  0  0  0  0  0  0
   -1.8126    0.5176    0.6631 C   0  0  0  0  0  0  0  0  0  0  0  0
   -1.1929    1.1032   -0.5475 C   0  0  0  0  0  0  0  0  0  0  0  0
    0.2736    0.8756   -0.6938 C   0  0  0  0  0  0  0  0  0  0  0  0
    3.2420    0.2051    0.9100 H   0  0  0  0  0  0  0  0  0  0  0  0
    2.5763    1.9324    0.8796 H   0  0  0  0  0  0  0  0  0  0  0  0
    2.8391    1.0592   -0.6785 H   0  0  0  0  0  0  0  0  0  0  0  0
    0.7868    0.1667    1.4063 H   0  0  0  0  0  0  0  0  0  0  0  0
    1.5865   -0.7473   -1.4524 H   0  0  0  0  0  0  0  0  0  0  0  0
    0.2898   -2.5646   -0.6522 H   0  0  0  0  0  0  0  0  0  0  0  0
   -0.9555   -1.6441   -1.5143 H   0  0  0  0  0  0  0  0  0  0  0  0
   -1.5127   -2.6228    0.7375 H   0  0  0  0  0  0  0  0  0  0  0  0
   -0.5999   -1.3241    1.5238 H   0  0  0  0  0  0  0  0  0  0  0  0
   -2.7537    1.0767    0.8889 H   0  0  0  0  0  0  0  0  0  0  0  0
   -1.2151    0.5210    1.5691 H   0  0  0  0  0  0  0  0  0  0  0  0
   -1.3458    2.2219   -0.4960 H   0  0  0  0  0  0  0  0  0  0  0  0
   -1.7828    0.7852   -1.4368 H   0  0  0  0  0  0  0  0  0  0  0  0
    0.7335    1.5880   -1.4435 H   0  0  0  0  0  0  0  0  0  0  0  0
  1  2  1  0
  2  3  1  0
  3  4  1  0
  4  5  1  0
  5  6  1  0
  6  7  1  0
  7  8  1  0
  8  9  1  0
  9  2  1  0
  9  3  1  0
  1 10  1  0
  1 11  1  0
  1 12  1  0
  2 13  1  0
  3 14  1  0
  4 15  1  0
  4 16  1  0
  5 17  1  0
  5 18  1  0
  7 19  1  0
  7 20  1  0
  8 21  1  0
  8 22  1  0
  9 23  1  0
M  END
