
     RDKit          3D

 19 19  0  0  0  0  0  0  0  0999 V2000
   -0.4539    1.7141    0.6265 C   0  0  0  0  0  0  0  0  0  0  0  0
   -0.6707    0.5894   -0.3286 C   0  0  0  0  0  0  0  0  0  0  0  0
   -1.8934   -0.2547    0.0494 C   0  0  0  0  0  0  0  0  0  0  0  0
   -1.6841   -1.4323   -0.6161 O   0  0  0  0  0  0  0  0  0  0  0  0
   -0.3422   -1.6529   -0.7543 C   0  0  0  0  0  0  0  0  0  0  0  0
    0.3890   -0.4987   -0.0996 C   0  0  0  0  0  0  0  0  0  0  0  0
    1.6042   -0.1946   -0.6897 O   0  0  0  0  0  0  0  0  0  0  0  0
    2.7734   -0.0566    0.0646 C   0  0  0  0  0  0  0  0  0  0  0  0
    2.7251   -0.2124    1.3166 O   0  0  0  0  0  0  0  0  0  0  0  0
   -1.1398    2.5423    0.3520 H   0  0  0  0  0  0  0  0  0  0  0  0
    0.5843    2.0945    0.4599 H   0  0  0  0  0  0  0  0  0  0  0  0
   -0.5667    1.3670    1.6541 H   0  0  0  0  0  0  0  0  0  0  0  0
   -0.7194    0.8837   -1.3773 H   0  0  0  0  0  0  0  0  0  0  0  0
   -2.8251    0.2561   -0.1852 H   0  0  0  0  0  0  0  0  0  0  0  0
   -1.7932   -0.4374    1.1579 H   0  0  0  0  0  0  0  0  0  0  0  0
   -0.0453   -1.6369   -1.8436 H   0  0  0  0  0  0  0  0  0  0  0  0
   -0.0661   -2.6340   -0.3257 H   0  0  0  0  0  0  0  0  0  0  0  0
    0.4424   -0.6183    1.0100 H   0  0  0  0  0  0  0  0  0  0  0  0
    3.6814    0.1817   -0.4708 H   0  0  0  0  0  0  0  0  0  0  0  0
  1  2  1  0
  2  3  1  0
  3  4  1  0
  4  5  1  0
  5  6  1  0
  6  7  1  0
  7  8  1  0
  8  9  2  0
  6  2  1  0
  1 10  1  0
  1 11  1  0
  1 12  1  0
  2 13  1  0
  3 14  1  0
  3 15  1  0
  5 16  1  0
  5 17  1  0
  6 18  1  0
  8 19  1  0
M  END
