
     RDKit          3D

 23 24  0  0  0  0  0  0  0  0999 V2000
    2.1360   -0.6671    0.6374 C   0  0  0  0  0  0  0  0  0  0  0  0
    1.3788   -0.2072   -0.5502 C   0  0  0  0  0  0  0  0  0  0  0  0
    0.1564   -1.0987   -0.7650 C   0  0  0  0  0  0  0  0  0  0  0  0
   -0.8038   -0.4730    0.2333 C   0  0  0  0  0  0  0  0  0  0  0  0
   -2.1775   -1.0395    0.1328 C   0  0  0  0  0  0  0  0  0  0  0  0
   -0.6999    0.9749   -0.1394 C   0  0  0  0  0  0  0  0  0  0  0  0
   -1.5830    1.5606   -1.0017 O   0  0  0  0  0  0  0  0  0  0  0  0
    0.2567    1.7960    0.6810 C   0  0  0  0  0  0  0  0  0  0  0  0
    0.8083    1.1456   -0.4915 C   0  0  0  0  0  0  0  0  0  0  0  0
    2.8735    0.0724    0.9879 H   0  0  0  0  0  0  0  0  0  0  0  0
    2.7381   -1.5715    0.3243 H   0  0  0  0  0  0  0  0  0  0  0  0
    1.5294   -1.0047    1.4894 H   0  0  0  0  0  0  0  0  0  0  0  0
    2.0319   -0.3473   -1.4506 H   0  0  0  0  0  0  0  0  0  0  0  0
    0.3563   -2.1494   -0.5795 H   0  0  0  0  0  0  0  0  0  0  0  0
   -0.2320   -0.8539   -1.7651 H   0  0  0  0  0  0  0  0  0  0  0  0
   -0.4581   -0.5952    1.2812 H   0  0  0  0  0  0  0  0  0  0  0  0
   -2.4135   -1.3328   -0.8864 H   0  0  0  0  0  0  0  0  0  0  0  0
   -2.9073   -0.3733    0.6187 H   0  0  0  0  0  0  0  0  0  0  0  0
   -2.1876   -1.9872    0.7484 H   0  0  0  0  0  0  0  0  0  0  0  0
   -2.2650    2.0615   -0.4736 H   0  0  0  0  0  0  0  0  0  0  0  0
    0.0639    2.8805    0.6372 H   0  0  0  0  0  0  0  0  0  0  0  0
    0.3935    1.4211    1.7191 H   0  0  0  0  0  0  0  0  0  0  0  0
    1.0050    1.7884   -1.3879 H   0  0  0  0  0  0  0  0  0  0  0  0
  1  2  1  0
  2  3  1  0
  3  4  1  0
  4  5  1  0
  4  6  1  0
  6  7  1  0
  6  8  1  0
  8  9  1  0
  9  2  1  0
  9  6  1  0
  1 10  1  0
  1 11  1  0
  1 12  1  0
  2 13  1  0
  3 14  1  0
  3 15  1  0
  4 16  1  0
  5 17  1  0
  5 18  1  0
  5 19  1  0
  7 20  1  0
  8 21  1  0
  8 22  1  0
  9 23  1  0
M  END
