
     RDKit          3D

 21 22  0  0  0  0  0  0  0  0999 V2000
   -0.1891   -1.8847    0.2999 C   0  0  0  0  0  0  0  0  0  0  0  0
   -0.0483   -0.5818   -0.3983 C   0  0  0  0  0  0  0  0  0  0  0  0
    0.5324    0.5160    0.4555 C   0  0  0  0  0  0  0  0  0  0  0  0
    2.0290    0.4394    0.5632 C   0  0  0  0  0  0  0  0  0  0  0  0
    2.6606    0.3819   -0.6646 O   0  0  0  0  0  0  0  0  0  0  0  0
    0.1631    1.6560   -0.2532 O   0  0  0  0  0  0  0  0  0  0  0  0
   -1.1217    1.4566   -0.7176 C   0  0  0  0  0  0  0  0  0  0  0  0
   -2.0953    0.9040    0.2268 C   0  0  0  0  0  0  0  0  0  0  0  0
   -1.4025   -0.0126   -0.7080 C   0  0  0  0  0  0  0  0  0  0  0  0
   -1.1577   -2.0141    0.8204 H   0  0  0  0  0  0  0  0  0  0  0  0
    0.6409   -2.1068    1.0057 H   0  0  0  0  0  0  0  0  0  0  0  0
   -0.1735   -2.6914   -0.4902 H   0  0  0  0  0  0  0  0  0  0  0  0
    0.5244   -0.6164   -1.3397 H   0  0  0  0  0  0  0  0  0  0  0  0
    0.1215    0.5259    1.4807 H   0  0  0  0  0  0  0  0  0  0  0  0
    2.3383   -0.3849    1.2280 H   0  0  0  0  0  0  0  0  0  0  0  0
    2.3582    1.3995    1.0545 H   0  0  0  0  0  0  0  0  0  0  0  0
    3.2509   -0.4304   -0.6809 H   0  0  0  0  0  0  0  0  0  0  0  0
   -1.4225    1.9586   -1.6737 H   0  0  0  0  0  0  0  0  0  0  0  0
   -1.8768    0.9270    1.3065 H   0  0  0  0  0  0  0  0  0  0  0  0
   -3.1779    1.0610   -0.0061 H   0  0  0  0  0  0  0  0  0  0  0  0
   -1.9541   -0.5028   -1.5087 H   0  0  0  0  0  0  0  0  0  0  0  0
  1  2  1  0
  2  3  1  0
  3  4  1  0
  4  5  1  0
  3  6  1  0
  6  7  1  0
  7  8  1  0
  8  9  1  0
  9  2  1  0
  9  7  1  0
  1 10  1  0
  1 11  1  0
  1 12  1  0
  2 13  1  0
  3 14  1  0
  4 15  1  0
  4 16  1  0
  5 17  1  0
  7 18  1  0
  8 19  1  0
  8 20  1  0
  9 21  1  0
M  END
