
     RDKit          3D

 23 24  0  0  0  0  0  0  0  0999 V2000
    2.9863   -0.3865   -0.1626 C   0  0  0  0  0  0  0  0  0  0  0  0
    1.5768   -0.0239   -0.4854 C   0  0  0  0  0  0  0  0  0  0  0  0
    1.0978    1.2789    0.1531 C   0  0  0  0  0  0  0  0  0  0  0  0
    0.4944   -0.0012    0.5041 C   0  0  0  0  0  0  0  0  0  0  0  0
   -0.9282   -0.3550    0.1167 C   0  0  0  0  0  0  0  0  0  0  0  0
   -1.1380   -1.7489   -0.4368 C   0  0  0  0  0  0  0  0  0  0  0  0
   -1.9975    0.0667    1.1140 C   0  0  0  0  0  0  0  0  0  0  0  0
   -1.8959    0.6797   -0.2851 C   0  0  0  0  0  0  0  0  0  0  0  0
   -1.6205    2.0215   -0.2809 O   0  0  0  0  0  0  0  0  0  0  0  0
    3.5583    0.5399    0.1346 H   0  0  0  0  0  0  0  0  0  0  0  0
    3.1078   -1.1028    0.6594 H   0  0  0  0  0  0  0  0  0  0  0  0
    3.5366   -0.7769   -1.0533 H   0  0  0  0  0  0  0  0  0  0  0  0
    1.2787   -0.2318   -1.5329 H   0  0  0  0  0  0  0  0  0  0  0  0
    0.6980    1.9882   -0.5754 H   0  0  0  0  0  0  0  0  0  0  0  0
    1.7777    1.7671    0.8999 H   0  0  0  0  0  0  0  0  0  0  0  0
    0.7530   -0.4123    1.5205 H   0  0  0  0  0  0  0  0  0  0  0  0
   -1.6107   -2.4073    0.3427 H   0  0  0  0  0  0  0  0  0  0  0  0
   -1.9078   -1.7090   -1.2614 H   0  0  0  0  0  0  0  0  0  0  0  0
   -0.2157   -2.1836   -0.8286 H   0  0  0  0  0  0  0  0  0  0  0  0
   -1.6817    0.6877    1.9779 H   0  0  0  0  0  0  0  0  0  0  0  0
   -2.8387   -0.5890    1.3225 H   0  0  0  0  0  0  0  0  0  0  0  0
   -2.7003    0.3681   -0.9958 H   0  0  0  0  0  0  0  0  0  0  0  0
   -2.3305    2.5302   -0.7043 H   0  0  0  0  0  0  0  0  0  0  0  0
  1  2  1  0
  2  3  1  0
  3  4  1  0
  4  5  1  0
  5  6  1  0
  5  7  1  0
  7  8  1  0
  8  9  1  0
  4  2  1  0
  8  5  1  0
  1 10  1  0
  1 11  1  0
  1 12  1  0
  2 13  1  0
  3 14  1  0
  3 15  1  0
  4 16  1  0
  6 17  1  0
  6 18  1  0
  6 19  1  0
  7 20  1  0
  7 21  1  0
  8 22  1  0
  9 23  1  0
M  END
