
     RDKit          3D

 19 19  0  0  0  0  0  0  0  0999 V2000
   -2.3415   -0.4795    0.0783 C   0  0  0  0  0  0  0  0  0  0  0  0
   -0.8518   -0.2671   -0.2145 C   0  0  0  0  0  0  0  0  0  0  0  0
   -0.5858    1.1714   -0.2500 C   0  0  0  0  0  0  0  0  0  0  0  0
    0.7805    1.6177   -0.0055 C   0  0  0  0  0  0  0  0  0  0  0  0
    1.8839    0.9335    0.2324 C   0  0  0  0  0  0  0  0  0  0  0  0
    2.0663   -0.5113    0.3235 C   0  0  0  0  0  0  0  0  0  0  0  0
    3.2269   -0.9276    0.5665 O   0  0  0  0  0  0  0  0  0  0  0  0
    1.0273   -1.5588    0.1603 C   0  0  0  0  0  0  0  0  0  0  0  0
   -0.1477   -1.0399    0.6492 O   0  0  0  0  0  0  0  0  0  0  0  0
   -2.8844    0.2404   -0.5697 H   0  0  0  0  0  0  0  0  0  0  0  0
   -2.6515   -1.5182   -0.1396 H   0  0  0  0  0  0  0  0  0  0  0  0
   -2.5881   -0.2267    1.1235 H   0  0  0  0  0  0  0  0  0  0  0  0
   -0.7115   -0.6931   -1.2513 H   0  0  0  0  0  0  0  0  0  0  0  0
   -1.2426    1.6952    0.5063 H   0  0  0  0  0  0  0  0  0  0  0  0
   -0.9497    1.5873   -1.2360 H   0  0  0  0  0  0  0  0  0  0  0  0
    0.9210    2.6874   -0.0201 H   0  0  0  0  0  0  0  0  0  0  0  0
    2.8080    1.5182    0.3868 H   0  0  0  0  0  0  0  0  0  0  0  0
    0.9235   -1.7084   -0.9540 H   0  0  0  0  0  0  0  0  0  0  0  0
    1.3171   -2.5205    0.6139 H   0  0  0  0  0  0  0  0  0  0  0  0
  1  2  1  0
  2  3  1  0
  3  4  1  0
  4  5  2  0
  5  6  1  0
  6  7  2  0
  6  8  1  0
  8  9  1  0
  9  2  1  0
  1 10  1  0
  1 11  1  0
  1 12  1  0
  2 13  1  0
  3 14  1  0
  3 15  1  0
  4 16  1  0
  5 17  1  0
  8 18  1  0
  8 19  1  0
M  END
