
     RDKit          3D

 27 27  0  0  0  0  0  0  0  0999 V2000
   -2.1933   -1.1740    0.5066 C   0  0  0  0  0  0  0  0  0  0  0  0
   -0.9876   -0.3535    0.8591 C   0  0  0  0  0  0  0  0  0  0  0  0
    0.3156   -1.1030    0.5885 C   0  0  0  0  0  0  0  0  0  0  0  0
    1.2572   -0.1112   -0.0283 C   0  0  0  0  0  0  0  0  0  0  0  0
    2.0953   -0.7663   -1.1157 C   0  0  0  0  0  0  0  0  0  0  0  0
    2.2050    0.5126    0.9542 C   0  0  0  0  0  0  0  0  0  0  0  0
    0.3872    0.9253   -0.6769 C   0  0  0  0  0  0  0  0  0  0  0  0
   -0.8804    0.9378    0.1481 C   0  0  0  0  0  0  0  0  0  0  0  0
   -2.0248    1.2190   -0.8042 C   0  0  0  0  0  0  0  0  0  0  0  0
   -3.0263   -1.0639    1.2504 H   0  0  0  0  0  0  0  0  0  0  0  0
   -2.6133   -0.9134   -0.4671 H   0  0  0  0  0  0  0  0  0  0  0  0
   -1.9489   -2.2688    0.5242 H   0  0  0  0  0  0  0  0  0  0  0  0
   -1.0237   -0.1977    1.9744 H   0  0  0  0  0  0  0  0  0  0  0  0
    0.0390   -1.9109   -0.1387 H   0  0  0  0  0  0  0  0  0  0  0  0
    0.7445   -1.5309    1.5166 H   0  0  0  0  0  0  0  0  0  0  0  0
    3.1034   -0.2952   -1.1430 H   0  0  0  0  0  0  0  0  0  0  0  0
    1.6197   -0.5983   -2.1033 H   0  0  0  0  0  0  0  0  0  0  0  0
    2.2020   -1.8399   -0.8758 H   0  0  0  0  0  0  0  0  0  0  0  0
    2.2560    0.0015    1.9230 H   0  0  0  0  0  0  0  0  0  0  0  0
    3.2544    0.5552    0.5609 H   0  0  0  0  0  0  0  0  0  0  0  0
    1.9107    1.5849    1.0845 H   0  0  0  0  0  0  0  0  0  0  0  0
    0.8251    1.9501   -0.5866 H   0  0  0  0  0  0  0  0  0  0  0  0
    0.1822    0.6374   -1.7217 H   0  0  0  0  0  0  0  0  0  0  0  0
   -0.8908    1.7758    0.8921 H   0  0  0  0  0  0  0  0  0  0  0  0
   -2.9700    1.1180   -0.2553 H   0  0  0  0  0  0  0  0  0  0  0  0
   -1.9720    0.6217   -1.7300 H   0  0  0  0  0  0  0  0  0  0  0  0
   -1.8663    2.2880   -1.1359 H   0  0  0  0  0  0  0  0  0  0  0  0
  1  2  1  0
  2  3  1  0
  3  4  1  0
  4  5  1  0
  4  6  1  0
  4  7  1  0
  7  8  1  0
  8  9  1  0
  8  2  1  0
  1 10  1  0
  1 11  1  0
  1 12  1  0
  2 13  1  0
  3 14  1  0
  3 15  1  0
  5 16  1  0
  5 17  1  0
  5 18  1  0
  6 19  1  0
  6 20  1  0
  6 21  1  0
  7 22  1  0
  7 23  1  0
  8 24  1  0
  9 25  1  0
  9 26  1  0
  9 27  1  0
M  END
