
     RDKit          3D

 21 21  0  0  0  0  0  0  0  0999 V2000
   -2.0921    1.5079    0.2270 C   0  0  0  0  0  0  0  0  0  0  0  0
   -0.9401    0.5637    0.2794 C   0  0  0  0  0  0  0  0  0  0  0  0
   -1.2574   -0.7932   -0.3401 C   0  0  0  0  0  0  0  0  0  0  0  0
   -0.1030   -1.7056    0.0092 C   0  0  0  0  0  0  0  0  0  0  0  0
    1.2351   -1.0820   -0.1964 C   0  0  0  0  0  0  0  0  0  0  0  0
    1.2811    0.3889    0.1220 C   0  0  0  0  0  0  0  0  0  0  0  0
    2.5467    0.9566   -0.3664 C   0  0  0  0  0  0  0  0  0  0  0  0
    3.6149    0.5110    0.0133 O   0  0  0  0  0  0  0  0  0  0  0  0
    0.1825    1.0430   -0.4361 O   0  0  0  0  0  0  0  0  0  0  0  0
   -1.8094    2.3693   -0.4332 H   0  0  0  0  0  0  0  0  0  0  0  0
   -2.2159    1.9634    1.2489 H   0  0  0  0  0  0  0  0  0  0  0  0
   -3.0421    1.0417   -0.0713 H   0  0  0  0  0  0  0  0  0  0  0  0
   -0.6367    0.3437    1.3442 H   0  0  0  0  0  0  0  0  0  0  0  0
   -1.3237   -0.7411   -1.4419 H   0  0  0  0  0  0  0  0  0  0  0  0
   -2.1865   -1.1928    0.1060 H   0  0  0  0  0  0  0  0  0  0  0  0
   -0.2343   -1.9694    1.0915 H   0  0  0  0  0  0  0  0  0  0  0  0
   -0.2213   -2.6173   -0.6088 H   0  0  0  0  0  0  0  0  0  0  0  0
    1.5904   -1.2696   -1.2359 H   0  0  0  0  0  0  0  0  0  0  0  0
    1.9422   -1.5778    0.5320 H   0  0  0  0  0  0  0  0  0  0  0  0
    1.1632    0.4809    1.2269 H   0  0  0  0  0  0  0  0  0  0  0  0
    2.5064    1.7786   -1.0703 H   0  0  0  0  0  0  0  0  0  0  0  0
  1  2  1  0
  2  3  1  0
  3  4  1  0
  4  5  1  0
  5  6  1  0
  6  7  1  0
  7  8  2  0
  6  9  1  0
  9  2  1  0
  1 10  1  0
  1 11  1  0
  1 12  1  0
  2 13  1  0
  3 14  1  0
  3 15  1  0
  4 16  1  0
  4 17  1  0
  5 18  1  0
  5 19  1  0
  6 20  1  0
  7 21  1  0
M  END
