
     RDKit          3D

 21 21  0  0  0  0  0  0  0  0999 V2000
   -1.5648   -1.4395    0.8332 C   0  0  0  0  0  0  0  0  0  0  0  0
   -0.4648   -0.3954    0.8029 C   0  0  0  0  0  0  0  0  0  0  0  0
   -0.6828    0.9165    0.1491 C   0  0  0  0  0  0  0  0  0  0  0  0
   -1.9058    1.2113   -0.6528 C   0  0  0  0  0  0  0  0  0  0  0  0
    0.2312   -0.1286   -0.4681 C   0  0  0  0  0  0  0  0  0  0  0  0
    1.6673    0.2398   -0.5519 C   0  0  0  0  0  0  0  0  0  0  0  0
    1.8776    1.4234    0.1598 O   0  0  0  0  0  0  0  0  0  0  0  0
    2.5914   -0.8080   -0.1056 C   0  0  0  0  0  0  0  0  0  0  0  0
    2.5485   -1.9096   -0.6198 O   0  0  0  0  0  0  0  0  0  0  0  0
   -1.4367   -2.0694   -0.0709 H   0  0  0  0  0  0  0  0  0  0  0  0
   -2.5656   -0.9986    0.9089 H   0  0  0  0  0  0  0  0  0  0  0  0
   -1.4496   -2.1270    1.7062 H   0  0  0  0  0  0  0  0  0  0  0  0
    0.1950   -0.4179    1.7109 H   0  0  0  0  0  0  0  0  0  0  0  0
   -0.2357    1.7891    0.6492 H   0  0  0  0  0  0  0  0  0  0  0  0
   -2.1904    2.2991   -0.5938 H   0  0  0  0  0  0  0  0  0  0  0  0
   -1.7720    1.0157   -1.7513 H   0  0  0  0  0  0  0  0  0  0  0  0
   -2.8042    0.6521   -0.3503 H   0  0  0  0  0  0  0  0  0  0  0  0
   -0.1453   -0.6996   -1.3444 H   0  0  0  0  0  0  0  0  0  0  0  0
    1.9335    0.4659   -1.6130 H   0  0  0  0  0  0  0  0  0  0  0  0
    2.8522    1.6200    0.0977 H   0  0  0  0  0  0  0  0  0  0  0  0
    3.3209   -0.6395    0.6740 H   0  0  0  0  0  0  0  0  0  0  0  0
  1  2  1  0
  2  3  1  0
  3  4  1  0
  3  5  1  0
  5  6  1  0
  6  7  1  0
  6  8  1  0
  8  9  2  0
  5  2  1  0
  1 10  1  0
  1 11  1  0
  1 12  1  0
  2 13  1  0
  3 14  1  0
  4 15  1  0
  4 16  1  0
  4 17  1  0
  5 18  1  0
  6 19  1  0
  7 20  1  0
  8 21  1  0
M  END
