
     RDKit          3D

 23 23  0  0  0  0  0  0  0  0999 V2000
   -0.8399   -1.7353   -0.2152 C   0  0  0  0  0  0  0  0  0  0  0  0
   -0.4690   -0.6183    0.6909 C   0  0  0  0  0  0  0  0  0  0  0  0
    0.9616   -0.6637    1.1430 C   0  0  0  0  0  0  0  0  0  0  0  0
    1.9466   -0.2603    0.0890 C   0  0  0  0  0  0  0  0  0  0  0  0
    1.6423    1.0622   -0.5521 C   0  0  0  0  0  0  0  0  0  0  0  0
    0.2116    1.1258   -0.8956 C   0  0  0  0  0  0  0  0  0  0  0  0
   -0.1548    1.4712   -1.9855 O   0  0  0  0  0  0  0  0  0  0  0  0
   -0.7505    0.7494    0.1489 C   0  0  0  0  0  0  0  0  0  0  0  0
   -2.1375    0.9366   -0.3599 C   0  0  0  0  0  0  0  0  0  0  0  0
    0.0909   -2.3531   -0.3821 H   0  0  0  0  0  0  0  0  0  0  0  0
   -1.2603   -1.4574   -1.1769 H   0  0  0  0  0  0  0  0  0  0  0  0
   -1.5566   -2.4618    0.2642 H   0  0  0  0  0  0  0  0  0  0  0  0
   -1.0965   -0.7235    1.6244 H   0  0  0  0  0  0  0  0  0  0  0  0
    1.2457   -1.6613    1.5100 H   0  0  0  0  0  0  0  0  0  0  0  0
    1.0587    0.0525    1.9897 H   0  0  0  0  0  0  0  0  0  0  0  0
    2.9346   -0.1253    0.6158 H   0  0  0  0  0  0  0  0  0  0  0  0
    2.0985   -1.0149   -0.6974 H   0  0  0  0  0  0  0  0  0  0  0  0
    2.2412    1.1428   -1.4885 H   0  0  0  0  0  0  0  0  0  0  0  0
    1.9727    1.9145    0.0841 H   0  0  0  0  0  0  0  0  0  0  0  0
   -0.6280    1.4612    1.0199 H   0  0  0  0  0  0  0  0  0  0  0  0
   -2.1541    1.9107   -0.9203 H   0  0  0  0  0  0  0  0  0  0  0  0
   -2.8465    1.1024    0.4981 H   0  0  0  0  0  0  0  0  0  0  0  0
   -2.5106    0.1455   -1.0045 H   0  0  0  0  0  0  0  0  0  0  0  0
  1  2  1  0
  2  3  1  0
  3  4  1  0
  4  5  1  0
  5  6  1  0
  6  7  2  0
  6  8  1  0
  8  9  1  0
  8  2  1  0
  1 10  1  0
  1 11  1  0
  1 12  1  0
  2 13  1  0
  3 14  1  0
  3 15  1  0
  4 16  1  0
  4 17  1  0
  5 18  1  0
  5 19  1  0
  8 20  1  0
  9 21  1  0
  9 22  1  0
  9 23  1  0
M  END
