
     RDKit          3D

 21 22  0  0  0  0  0  0  0  0999 V2000
   -2.5899   -0.0899    0.5770 C   0  0  0  0  0  0  0  0  0  0  0  0
   -1.1364   -0.4629    0.7053 C   0  0  0  0  0  0  0  0  0  0  0  0
   -0.1648    0.6872    0.6936 C   0  0  0  0  0  0  0  0  0  0  0  0
    0.3217    0.3054   -0.6632 C   0  0  0  0  0  0  0  0  0  0  0  0
   -0.0340    1.2503   -1.6395 O   0  0  0  0  0  0  0  0  0  0  0  0
    1.7538   -0.1315   -0.7709 C   0  0  0  0  0  0  0  0  0  0  0  0
    2.6373   -0.2763    0.3663 C   0  0  0  0  0  0  0  0  0  0  0  0
    2.7715    0.8071   -0.6494 O   0  0  0  0  0  0  0  0  0  0  0  0
   -0.5885   -0.9065   -0.6273 C   0  0  0  0  0  0  0  0  0  0  0  0
   -3.0999   -0.8714   -0.0553 H   0  0  0  0  0  0  0  0  0  0  0  0
   -2.6959    0.9053    0.0814 H   0  0  0  0  0  0  0  0  0  0  0  0
   -3.0806   -0.1200    1.5667 H   0  0  0  0  0  0  0  0  0  0  0  0
   -0.9401   -1.1197    1.5596 H   0  0  0  0  0  0  0  0  0  0  0  0
    0.5565    0.7268    1.5075 H   0  0  0  0  0  0  0  0  0  0  0  0
   -0.7517    1.6494    0.6866 H   0  0  0  0  0  0  0  0  0  0  0  0
    0.4589    2.0829   -1.3830 H   0  0  0  0  0  0  0  0  0  0  0  0
    1.9213   -0.8352   -1.6230 H   0  0  0  0  0  0  0  0  0  0  0  0
    3.4839   -1.0031    0.3072 H   0  0  0  0  0  0  0  0  0  0  0  0
    2.5215    0.2014    1.3343 H   0  0  0  0  0  0  0  0  0  0  0  0
   -0.0488   -1.8848   -0.5152 H   0  0  0  0  0  0  0  0  0  0  0  0
   -1.2959   -0.9146   -1.4586 H   0  0  0  0  0  0  0  0  0  0  0  0
  1  2  1  0
  2  3  1  0
  3  4  1  0
  4  5  1  0
  4  6  1  0
  6  7  1  0
  7  8  1  0
  4  9  1  0
  9  2  1  0
  8  6  1  0
  1 10  1  0
  1 11  1  0
  1 12  1  0
  2 13  1  0
  3 14  1  0
  3 15  1  0
  5 16  1  0
  6 17  1  0
  7 18  1  0
  7 19  1  0
  9 20  1  0
  9 21  1  0
M  END
