
     RDKit          3D

 23 24  0  0  0  0  0  0  0  0999 V2000
    2.2994   -0.8892   -0.1898 C   0  0  0  0  0  0  0  0  0  0  0  0
    1.1550   -0.3871    0.6373 C   0  0  0  0  0  0  0  0  0  0  0  0
    0.9136    1.0990    0.4670 C   0  0  0  0  0  0  0  0  0  0  0  0
   -0.2003    1.1455   -0.5130 C   0  0  0  0  0  0  0  0  0  0  0  0
   -0.9083    2.3231   -0.5389 O   0  0  0  0  0  0  0  0  0  0  0  0
   -1.0493   -0.0488   -0.1720 C   0  0  0  0  0  0  0  0  0  0  0  0
   -2.3077    0.1735    0.6182 C   0  0  0  0  0  0  0  0  0  0  0  0
   -0.7565   -1.2918   -0.8819 C   0  0  0  0  0  0  0  0  0  0  0  0
   -0.1285   -1.0919    0.4234 C   0  0  0  0  0  0  0  0  0  0  0  0
    2.6769   -0.0424   -0.7999 H   0  0  0  0  0  0  0  0  0  0  0  0
    1.9999   -1.7280   -0.8306 H   0  0  0  0  0  0  0  0  0  0  0  0
    3.1554   -1.2683    0.4317 H   0  0  0  0  0  0  0  0  0  0  0  0
    1.4635   -0.5152    1.7170 H   0  0  0  0  0  0  0  0  0  0  0  0
    0.5462    1.5703    1.4219 H   0  0  0  0  0  0  0  0  0  0  0  0
    1.8549    1.5502    0.1201 H   0  0  0  0  0  0  0  0  0  0  0  0
    0.2492    1.0001   -1.5383 H   0  0  0  0  0  0  0  0  0  0  0  0
   -0.9640    2.7131   -1.4602 H   0  0  0  0  0  0  0  0  0  0  0  0
   -2.8899   -0.7657    0.6607 H   0  0  0  0  0  0  0  0  0  0  0  0
   -1.9790    0.3584    1.6834 H   0  0  0  0  0  0  0  0  0  0  0  0
   -2.8712    1.0480    0.2866 H   0  0  0  0  0  0  0  0  0  0  0  0
   -1.5606   -2.0331   -0.9692 H   0  0  0  0  0  0  0  0  0  0  0  0
   -0.1758   -1.1909   -1.8430 H   0  0  0  0  0  0  0  0  0  0  0  0
   -0.5229   -1.7288    1.2694 H   0  0  0  0  0  0  0  0  0  0  0  0
  1  2  1  0
  2  3  1  0
  3  4  1  0
  4  5  1  0
  4  6  1  0
  6  7  1  0
  6  8  1  0
  8  9  1  0
  9  2  1  0
  9  6  1  0
  1 10  1  0
  1 11  1  0
  1 12  1  0
  2 13  1  0
  3 14  1  0
  3 15  1  0
  4 16  1  0
  5 17  1  0
  7 18  1  0
  7 19  1  0
  7 20  1  0
  8 21  1  0
  8 22  1  0
  9 23  1  0
M  END
