
     RDKit          3D

 21 23  0  0  0  0  0  0  0  0999 V2000
    2.3509    0.1452   -1.1504 C   0  0  0  0  0  0  0  0  0  0  0  0
    1.1460    0.7965   -0.5048 C   0  0  0  0  0  0  0  0  0  0  0  0
    0.9370    0.3715    0.9654 C   0  0  0  0  0  0  0  0  0  0  0  0
    0.7770    1.3804    1.8906 O   0  0  0  0  0  0  0  0  0  0  0  0
   -0.0261    0.0797   -0.0960 C   0  0  0  0  0  0  0  0  0  0  0  0
   -0.4452   -1.2697   -0.5095 C   0  0  0  0  0  0  0  0  0  0  0  0
   -1.8743   -0.9278   -0.2578 C   0  0  0  0  0  0  0  0  0  0  0  0
   -2.3270   -0.1269    0.8882 C   0  0  0  0  0  0  0  0  0  0  0  0
   -1.4249    0.5567   -0.1234 C   0  0  0  0  0  0  0  0  0  0  0  0
    2.2605   -0.9620   -1.0634 H   0  0  0  0  0  0  0  0  0  0  0  0
    2.4038    0.4852   -2.1988 H   0  0  0  0  0  0  0  0  0  0  0  0
    3.2646    0.5065   -0.6025 H   0  0  0  0  0  0  0  0  0  0  0  0
    1.1351    1.9043   -0.6551 H   0  0  0  0  0  0  0  0  0  0  0  0
    1.5404   -0.4823    1.3352 H   0  0  0  0  0  0  0  0  0  0  0  0
    0.2247    1.1367    2.6562 H   0  0  0  0  0  0  0  0  0  0  0  0
   -0.2547   -1.4483   -1.6069 H   0  0  0  0  0  0  0  0  0  0  0  0
    0.0036   -2.0523    0.1505 H   0  0  0  0  0  0  0  0  0  0  0  0
   -2.5963   -1.1664   -1.0370 H   0  0  0  0  0  0  0  0  0  0  0  0
   -3.3696    0.1817    0.9047 H   0  0  0  0  0  0  0  0  0  0  0  0
   -1.8869   -0.3069    1.9102 H   0  0  0  0  0  0  0  0  0  0  0  0
   -1.8388    1.1982   -0.8953 H   0  0  0  0  0  0  0  0  0  0  0  0
  1  2  1  0
  2  3  1  0
  3  4  1  0
  3  5  1  0
  5  6  1  0
  6  7  1  0
  7  8  1  0
  8  9  1  0
  5  2  1  0
  9  7  1  0
  9  5  1  0
  1 10  1  0
  1 11  1  0
  1 12  1  0
  2 13  1  0
  3 14  1  0
  4 15  1  0
  6 16  1  0
  6 17  1  0
  7 18  1  0
  8 19  1  0
  8 20  1  0
  9 21  1  0
M  END
