
     RDKit          3D

 21 22  0  0  0  0  0  0  0  0999 V2000
    2.1024    0.5899   -0.2205 C   0  0  0  0  0  0  0  0  0  0  0  0
    1.3481   -0.4128    0.5765 C   0  0  0  0  0  0  0  0  0  0  0  0
    0.3445    0.1632    1.5976 C   0  0  0  0  0  0  0  0  0  0  0  0
   -0.6214    0.1309    0.4765 C   0  0  0  0  0  0  0  0  0  0  0  0
   -0.7034    1.3758   -0.3748 C   0  0  0  0  0  0  0  0  0  0  0  0
   -1.8583   -0.4393    0.6062 O   0  0  0  0  0  0  0  0  0  0  0  0
   -2.0523   -1.0852   -0.6692 C   0  0  0  0  0  0  0  0  0  0  0  0
   -0.6821   -1.6851   -0.8911 C   0  0  0  0  0  0  0  0  0  0  0  0
    0.1655   -1.0024   -0.1534 C   0  0  0  0  0  0  0  0  0  0  0  0
    1.6814    0.8023   -1.2119 H   0  0  0  0  0  0  0  0  0  0  0  0
    3.1121    0.1544   -0.4166 H   0  0  0  0  0  0  0  0  0  0  0  0
    2.3101    1.5188    0.3697 H   0  0  0  0  0  0  0  0  0  0  0  0
    1.9740   -1.1625    1.0957 H   0  0  0  0  0  0  0  0  0  0  0  0
    0.6336    1.1825    1.9504 H   0  0  0  0  0  0  0  0  0  0  0  0
    0.1361   -0.5179    2.4391 H   0  0  0  0  0  0  0  0  0  0  0  0
   -1.6960    1.8515   -0.1323 H   0  0  0  0  0  0  0  0  0  0  0  0
   -0.6766    1.1195   -1.4580 H   0  0  0  0  0  0  0  0  0  0  0  0
    0.0462    2.1400   -0.0831 H   0  0  0  0  0  0  0  0  0  0  0  0
   -2.2914   -0.3453   -1.4266 H   0  0  0  0  0  0  0  0  0  0  0  0
   -2.8030   -1.8667   -0.5395 H   0  0  0  0  0  0  0  0  0  0  0  0
   -0.4694   -2.5117   -1.5346 H   0  0  0  0  0  0  0  0  0  0  0  0
  1  2  1  0
  2  3  1  0
  3  4  1  0
  4  5  1  0
  4  6  1  0
  6  7  1  0
  7  8  1  0
  8  9  2  0
  9  2  1  0
  9  4  1  0
  1 10  1  0
  1 11  1  0
  1 12  1  0
  2 13  1  0
  3 14  1  0
  3 15  1  0
  5 16  1  0
  5 17  1  0
  5 18  1  0
  7 19  1  0
  7 20  1  0
  8 21  1  0
M  END
