
     RDKit          3D

 21 23  0  0  0  0  0  0  0  0999 V2000
    1.7151    0.6054   -1.0350 C   0  0  0  0  0  0  0  0  0  0  0  0
    1.1927    0.1420    0.2624 C   0  0  0  0  0  0  0  0  0  0  0  0
    0.3966   -1.1730    0.1969 C   0  0  0  0  0  0  0  0  0  0  0  0
   -0.2207   -0.6476    1.4709 C   0  0  0  0  0  0  0  0  0  0  0  0
   -0.1557    0.6876    0.7088 C   0  0  0  0  0  0  0  0  0  0  0  0
   -1.0628    0.5134   -0.4537 C   0  0  0  0  0  0  0  0  0  0  0  0
   -1.0276    1.5068   -1.3998 O   0  0  0  0  0  0  0  0  0  0  0  0
   -2.0151   -0.5856   -0.6017 C   0  0  0  0  0  0  0  0  0  0  0  0
   -0.5991   -0.9179   -0.8989 C   0  0  0  0  0  0  0  0  0  0  0  0
    1.0461    0.5538   -1.8896 H   0  0  0  0  0  0  0  0  0  0  0  0
    2.1466    1.6160   -0.9277 H   0  0  0  0  0  0  0  0  0  0  0  0
    2.5935   -0.0585   -1.2915 H   0  0  0  0  0  0  0  0  0  0  0  0
    1.9278    0.1759    1.0609 H   0  0  0  0  0  0  0  0  0  0  0  0
    0.9531   -2.0780    0.2180 H   0  0  0  0  0  0  0  0  0  0  0  0
   -1.2016   -0.9903    1.7502 H   0  0  0  0  0  0  0  0  0  0  0  0
    0.5397   -0.6626    2.2856 H   0  0  0  0  0  0  0  0  0  0  0  0
   -0.1694    1.5762    1.2960 H   0  0  0  0  0  0  0  0  0  0  0  0
   -0.5699    2.3348   -1.1163 H   0  0  0  0  0  0  0  0  0  0  0  0
   -2.5560   -1.0634    0.2370 H   0  0  0  0  0  0  0  0  0  0  0  0
   -2.6671   -0.5327   -1.5140 H   0  0  0  0  0  0  0  0  0  0  0  0
   -0.2663   -1.0023   -1.9305 H   0  0  0  0  0  0  0  0  0  0  0  0
  1  2  1  0
  2  3  1  0
  3  4  1  0
  4  5  1  0
  5  6  1  0
  6  7  1  0
  6  8  1  0
  8  9  1  0
  5  2  1  0
  9  6  1  0
  9  3  1  0
  1 10  1  0
  1 11  1  0
  1 12  1  0
  2 13  1  0
  3 14  1  0
  4 15  1  0
  4 16  1  0
  5 17  1  0
  7 18  1  0
  8 19  1  0
  8 20  1  0
  9 21  1  0
M  END
