
     RDKit          3D

 19 20  0  0  0  0  0  0  0  0999 V2000
    2.5894   -0.2425   -0.4570 C   0  0  0  0  0  0  0  0  0  0  0  0
    1.1871    0.1600   -0.0718 C   0  0  0  0  0  0  0  0  0  0  0  0
    0.8243   -0.2891    1.2862 C   0  0  0  0  0  0  0  0  0  0  0  0
   -0.4871   -0.4761    1.2889 C   0  0  0  0  0  0  0  0  0  0  0  0
   -0.9148   -0.1278   -0.1144 C   0  0  0  0  0  0  0  0  0  0  0  0
   -2.2013   -0.7072   -0.5714 C   0  0  0  0  0  0  0  0  0  0  0  0
   -2.6703    0.6196   -0.7200 O   0  0  0  0  0  0  0  0  0  0  0  0
   -1.4665    1.2405   -0.3076 C   0  0  0  0  0  0  0  0  0  0  0  0
    0.2282   -0.4415   -0.8788 O   0  0  0  0  0  0  0  0  0  0  0  0
    2.7324   -0.0071   -1.5202 H   0  0  0  0  0  0  0  0  0  0  0  0
    3.2828    0.4131    0.1206 H   0  0  0  0  0  0  0  0  0  0  0  0
    2.8330   -1.2826   -0.1813 H   0  0  0  0  0  0  0  0  0  0  0  0
    1.1087    1.2601   -0.1950 H   0  0  0  0  0  0  0  0  0  0  0  0
    1.5025   -0.4459    2.1508 H   0  0  0  0  0  0  0  0  0  0  0  0
   -1.1217   -0.7998    2.0903 H   0  0  0  0  0  0  0  0  0  0  0  0
   -2.7246   -1.2535    0.2395 H   0  0  0  0  0  0  0  0  0  0  0  0
   -2.0953   -1.2551   -1.5288 H   0  0  0  0  0  0  0  0  0  0  0  0
   -1.5647    1.8705    0.5809 H   0  0  0  0  0  0  0  0  0  0  0  0
   -1.0418    1.7647   -1.2111 H   0  0  0  0  0  0  0  0  0  0  0  0
  1  2  1  0
  2  3  1  0
  3  4  2  0
  4  5  1  0
  5  6  1  0
  6  7  1  0
  7  8  1  0
  5  9  1  0
  9  2  1  0
  8  5  1  0
  1 10  1  0
  1 11  1  0
  1 12  1  0
  2 13  1  0
  3 14  1  0
  4 15  1  0
  6 16  1  0
  6 17  1  0
  8 18  1  0
  8 19  1  0
M  END
