
     RDKit          3D

 21 23  0  0  0  0  0  0  0  0999 V2000
    1.7836    0.8996    0.6294 C   0  0  0  0  0  0  0  0  0  0  0  0
    1.1423   -0.0168   -0.3401 C   0  0  0  0  0  0  0  0  0  0  0  0
   -0.0027    0.6067   -1.1115 C   0  0  0  0  0  0  0  0  0  0  0  0
   -1.0323    1.1824   -0.1684 C   0  0  0  0  0  0  0  0  0  0  0  0
   -1.5262    0.0948    0.7224 C   0  0  0  0  0  0  0  0  0  0  0  0
   -0.8904   -1.2314    0.5134 C   0  0  0  0  0  0  0  0  0  0  0  0
   -0.5376   -1.5517   -0.8685 C   0  0  0  0  0  0  0  0  0  0  0  0
   -0.5468   -0.4906   -1.7228 O   0  0  0  0  0  0  0  0  0  0  0  0
    0.5360   -1.2465    0.2058 C   0  0  0  0  0  0  0  0  0  0  0  0
    1.6809    0.5971    1.6897 H   0  0  0  0  0  0  0  0  0  0  0  0
    2.8842    0.9930    0.3948 H   0  0  0  0  0  0  0  0  0  0  0  0
    1.3979    1.9448    0.5253 H   0  0  0  0  0  0  0  0  0  0  0  0
    1.8883   -0.3411   -1.1264 H   0  0  0  0  0  0  0  0  0  0  0  0
    0.3902    1.3281   -1.8335 H   0  0  0  0  0  0  0  0  0  0  0  0
   -0.6356    2.0589    0.4003 H   0  0  0  0  0  0  0  0  0  0  0  0
   -1.8766    1.5644   -0.7724 H   0  0  0  0  0  0  0  0  0  0  0  0
   -2.6419   -0.0522    0.6376 H   0  0  0  0  0  0  0  0  0  0  0  0
   -1.3779    0.3932    1.7987 H   0  0  0  0  0  0  0  0  0  0  0  0
   -1.2825   -2.0441    1.1363 H   0  0  0  0  0  0  0  0  0  0  0  0
   -0.4990   -2.5832   -1.2611 H   0  0  0  0  0  0  0  0  0  0  0  0
    1.1461   -2.1055    0.5511 H   0  0  0  0  0  0  0  0  0  0  0  0
  1  2  1  0
  2  3  1  0
  3  4  1  0
  4  5  1  0
  5  6  1  0
  6  7  1  0
  7  8  1  0
  7  9  1  0
  9  2  1  0
  8  3  1  0
  9  6  1  0
  1 10  1  0
  1 11  1  0
  1 12  1  0
  2 13  1  0
  3 14  1  0
  4 15  1  0
  4 16  1  0
  5 17  1  0
  5 18  1  0
  6 19  1  0
  7 20  1  0
  9 21  1  0
M  END
