
     RDKit          3D

 23 24  0  0  0  0  0  0  0  0999 V2000
    3.1083   -0.0448    0.1532 C   0  0  0  0  0  0  0  0  0  0  0  0
    1.7480    0.3115   -0.4043 C   0  0  0  0  0  0  0  0  0  0  0  0
    0.8619   -0.8345   -0.7595 C   0  0  0  0  0  0  0  0  0  0  0  0
   -0.2005   -0.3844    0.1807 C   0  0  0  0  0  0  0  0  0  0  0  0
   -1.3485    0.3761   -0.4066 C   0  0  0  0  0  0  0  0  0  0  0  0
   -2.3874    0.7934    0.6456 C   0  0  0  0  0  0  0  0  0  0  0  0
   -2.7112   -0.1325   -0.4791 C   0  0  0  0  0  0  0  0  0  0  0  0
   -3.0561   -1.4524   -0.2454 O   0  0  0  0  0  0  0  0  0  0  0  0
    0.8046    0.6121    0.7622 C   0  0  0  0  0  0  0  0  0  0  0  0
    3.1827   -1.1239    0.3777 H   0  0  0  0  0  0  0  0  0  0  0  0
    3.2842    0.5082    1.1016 H   0  0  0  0  0  0  0  0  0  0  0  0
    3.9166    0.2589   -0.5354 H   0  0  0  0  0  0  0  0  0  0  0  0
    1.7879    1.0845   -1.1787 H   0  0  0  0  0  0  0  0  0  0  0  0
    1.3267   -1.7978   -0.3973 H   0  0  0  0  0  0  0  0  0  0  0  0
    0.5302   -0.9223   -1.7930 H   0  0  0  0  0  0  0  0  0  0  0  0
   -0.4651   -1.1187    0.9630 H   0  0  0  0  0  0  0  0  0  0  0  0
   -1.0183    1.1764   -1.1277 H   0  0  0  0  0  0  0  0  0  0  0  0
   -2.3472    0.3311    1.6369 H   0  0  0  0  0  0  0  0  0  0  0  0
   -2.6606    1.8468    0.6360 H   0  0  0  0  0  0  0  0  0  0  0  0
   -3.3688    0.3434   -1.2654 H   0  0  0  0  0  0  0  0  0  0  0  0
   -2.6925   -1.8323    0.5737 H   0  0  0  0  0  0  0  0  0  0  0  0
    1.1947    0.3455    1.7526 H   0  0  0  0  0  0  0  0  0  0  0  0
    0.5105    1.6556    0.7237 H   0  0  0  0  0  0  0  0  0  0  0  0
  1  2  1  0
  2  3  1  0
  3  4  1  0
  4  5  1  0
  5  6  1  0
  6  7  1  0
  7  8  1  0
  4  9  1  0
  9  2  1  0
  7  5  1  0
  1 10  1  0
  1 11  1  0
  1 12  1  0
  2 13  1  0
  3 14  1  0
  3 15  1  0
  4 16  1  0
  5 17  1  0
  6 18  1  0
  6 19  1  0
  7 20  1  0
  8 21  1  0
  9 22  1  0
  9 23  1  0
M  END
