
     RDKit          3D

 19 21  0  0  0  0  0  0  0  0999 V2000
    2.2984   -0.4169    0.4365 C   0  0  0  0  0  0  0  0  0  0  0  0
    1.0055   -0.4663   -0.3863 C   0  0  0  0  0  0  0  0  0  0  0  0
    0.2872    0.7615   -0.7840 C   0  0  0  0  0  0  0  0  0  0  0  0
   -0.7084    1.6398   -0.0386 C   0  0  0  0  0  0  0  0  0  0  0  0
   -0.2103    2.2220    1.0968 O   0  0  0  0  0  0  0  0  0  0  0  0
   -0.4747    0.8917    1.2522 C   0  0  0  0  0  0  0  0  0  0  0  0
   -0.1815   -0.1466    0.2214 C   0  0  0  0  0  0  0  0  0  0  0  0
   -1.4144   -0.9808   -0.1512 C   0  0  0  0  0  0  0  0  0  0  0  0
   -1.6379   -0.8536   -1.5110 O   0  0  0  0  0  0  0  0  0  0  0  0
    2.1665    0.1427    1.3663 H   0  0  0  0  0  0  0  0  0  0  0  0
    3.1378   -0.0871   -0.1841 H   0  0  0  0  0  0  0  0  0  0  0  0
    2.4919   -1.4838    0.7250 H   0  0  0  0  0  0  0  0  0  0  0  0
    1.0699   -1.2387   -1.1770 H   0  0  0  0  0  0  0  0  0  0  0  0
    1.0699    1.4333   -1.0526 H   0  0  0  0  0  0  0  0  0  0  0  0
   -1.7036    1.8088   -0.4245 H   0  0  0  0  0  0  0  0  0  0  0  0
   -1.2998    0.6708    1.9468 H   0  0  0  0  0  0  0  0  0  0  0  0
   -1.0771   -2.0485    0.0033 H   0  0  0  0  0  0  0  0  0  0  0  0
   -2.2877   -0.7372    0.4607 H   0  0  0  0  0  0  0  0  0  0  0  0
   -2.5315   -1.1110   -1.7995 H   0  0  0  0  0  0  0  0  0  0  0  0
  1  2  1  0
  2  3  1  0
  3  4  1  0
  4  5  1  0
  5  6  1  0
  6  7  1  0
  7  8  1  0
  8  9  1  0
  7  2  1  0
  7  3  1  0
  6  4  1  0
  1 10  1  0
  1 11  1  0
  1 12  1  0
  2 13  1  0
  3 14  1  0
  4 15  1  0
  6 16  1  0
  8 17  1  0
  8 18  1  0
  9 19  1  0
M  END
