
     RDKit          3D

 23 25  0  0  0  0  0  0  0  0999 V2000
    2.7634    0.2767    0.6491 C   0  0  0  0  0  0  0  0  0  0  0  0
    1.2617    0.3683    0.5078 C   0  0  0  0  0  0  0  0  0  0  0  0
    0.7508    0.0051   -0.8384 C   0  0  0  0  0  0  0  0  0  0  0  0
   -0.6470    0.3707   -1.2675 C   0  0  0  0  0  0  0  0  0  0  0  0
   -1.2843    1.2298   -0.2145 C   0  0  0  0  0  0  0  0  0  0  0  0
   -1.6088    0.2928    0.9519 C   0  0  0  0  0  0  0  0  0  0  0  0
   -0.9608   -0.9976    0.5081 C   0  0  0  0  0  0  0  0  0  0  0  0
   -1.3486   -0.9699   -0.9843 C   0  0  0  0  0  0  0  0  0  0  0  0
    0.5272   -0.8985    0.4092 C   0  0  0  0  0  0  0  0  0  0  0  0
    3.1833    1.0738    1.2967 H   0  0  0  0  0  0  0  0  0  0  0  0
    3.2437    0.4248   -0.3623 H   0  0  0  0  0  0  0  0  0  0  0  0
    3.1014   -0.7157    0.9876 H   0  0  0  0  0  0  0  0  0  0  0  0
    0.8127    1.1692    1.1112 H   0  0  0  0  0  0  0  0  0  0  0  0
    1.4209   -0.4379   -1.5709 H   0  0  0  0  0  0  0  0  0  0  0  0
   -0.7513    0.6996   -2.2817 H   0  0  0  0  0  0  0  0  0  0  0  0
   -0.6923    2.0942    0.0926 H   0  0  0  0  0  0  0  0  0  0  0  0
   -2.2325    1.6303   -0.6574 H   0  0  0  0  0  0  0  0  0  0  0  0
   -1.2579    0.6663    1.9069 H   0  0  0  0  0  0  0  0  0  0  0  0
   -2.7178    0.1030    0.9283 H   0  0  0  0  0  0  0  0  0  0  0  0
   -1.3464   -1.8878    0.9895 H   0  0  0  0  0  0  0  0  0  0  0  0
   -2.4325   -0.8859   -1.0963 H   0  0  0  0  0  0  0  0  0  0  0  0
   -0.8774   -1.7860   -1.5331 H   0  0  0  0  0  0  0  0  0  0  0  0
    1.0927   -1.8253    0.4674 H   0  0  0  0  0  0  0  0  0  0  0  0
  1  2  1  0
  2  3  1  0
  3  4  1  0
  4  5  1  0
  5  6  1  0
  6  7  1  0
  7  8  1  0
  7  9  1  0
  9  2  1  0
  9  3  1  0
  8  4  1  0
  1 10  1  0
  1 11  1  0
  1 12  1  0
  2 13  1  0
  3 14  1  0
  4 15  1  0
  5 16  1  0
  5 17  1  0
  6 18  1  0
  6 19  1  0
  7 20  1  0
  8 21  1  0
  8 22  1  0
  9 23  1  0
M  END
