
     RDKit          3D

 23 24  0  0  0  0  0  0  0  0999 V2000
    2.6812    0.7621    0.5740 C   0  0  0  0  0  0  0  0  0  0  0  0
    1.4704    0.3133   -0.2587 C   0  0  0  0  0  0  0  0  0  0  0  0
    1.1548   -1.0917    0.1850 C   0  0  0  0  0  0  0  0  0  0  0  0
   -0.3103   -1.4100    0.1506 C   0  0  0  0  0  0  0  0  0  0  0  0
   -1.0540   -0.4816   -0.7536 C   0  0  0  0  0  0  0  0  0  0  0  0
   -2.4589   -0.1663   -0.2493 C   0  0  0  0  0  0  0  0  0  0  0  0
   -1.8539    1.0467    0.4460 C   0  0  0  0  0  0  0  0  0  0  0  0
   -0.7172    0.9590   -0.5817 C   0  0  0  0  0  0  0  0  0  0  0  0
    0.4691    1.2184    0.0374 O   0  0  0  0  0  0  0  0  0  0  0  0
    2.7146    1.8797    0.5571 H   0  0  0  0  0  0  0  0  0  0  0  0
    3.5556    0.2881    0.1277 H   0  0  0  0  0  0  0  0  0  0  0  0
    2.4606    0.4277    1.6067 H   0  0  0  0  0  0  0  0  0  0  0  0
    1.6847    0.3841   -1.3432 H   0  0  0  0  0  0  0  0  0  0  0  0
    1.5301   -1.3167    1.1943 H   0  0  0  0  0  0  0  0  0  0  0  0
    1.6672   -1.7781   -0.5263 H   0  0  0  0  0  0  0  0  0  0  0  0
   -0.4917   -2.4546   -0.2419 H   0  0  0  0  0  0  0  0  0  0  0  0
   -0.7212   -1.4399    1.1930 H   0  0  0  0  0  0  0  0  0  0  0  0
   -0.9903   -0.8088   -1.7947 H   0  0  0  0  0  0  0  0  0  0  0  0
   -2.8644   -0.8507    0.4891 H   0  0  0  0  0  0  0  0  0  0  0  0
   -3.0844    0.1303   -1.0988 H   0  0  0  0  0  0  0  0  0  0  0  0
   -1.5058    0.8739    1.4733 H   0  0  0  0  0  0  0  0  0  0  0  0
   -2.3972    1.9823    0.3316 H   0  0  0  0  0  0  0  0  0  0  0  0
   -0.9390    1.5328   -1.5177 H   0  0  0  0  0  0  0  0  0  0  0  0
  1  2  1  0
  2  3  1  0
  3  4  1  0
  4  5  1  0
  5  6  1  0
  6  7  1  0
  7  8  1  0
  8  9  1  0
  9  2  1  0
  8  5  1  0
  1 10  1  0
  1 11  1  0
  1 12  1  0
  2 13  1  0
  3 14  1  0
  3 15  1  0
  4 16  1  0
  4 17  1  0
  5 18  1  0
  6 19  1  0
  6 20  1  0
  7 21  1  0
  7 22  1  0
  8 23  1  0
M  END
