
     RDKit          3D

 19 20  0  0  0  0  0  0  0  0999 V2000
    2.5077   -0.3194   -0.1860 C   0  0  0  0  0  0  0  0  0  0  0  0
    1.0201   -0.1721   -0.4023 C   0  0  0  0  0  0  0  0  0  0  0  0
    0.0605   -0.4855    0.6861 C   0  0  0  0  0  0  0  0  0  0  0  0
   -1.3121   -0.9505    0.4264 C   0  0  0  0  0  0  0  0  0  0  0  0
   -2.1727   -0.1500   -0.4528 C   0  0  0  0  0  0  0  0  0  0  0  0
   -1.7890    1.1886   -0.6354 O   0  0  0  0  0  0  0  0  0  0  0  0
   -0.6042    1.7264   -0.2377 C   0  0  0  0  0  0  0  0  0  0  0  0
   -0.3570    2.9316   -0.4609 O   0  0  0  0  0  0  0  0  0  0  0  0
    0.3865    0.9149    0.4482 C   0  0  0  0  0  0  0  0  0  0  0  0
    2.9120    0.7055   -0.0505 H   0  0  0  0  0  0  0  0  0  0  0  0
    2.9478   -0.8400   -1.0618 H   0  0  0  0  0  0  0  0  0  0  0  0
    2.7544   -0.9206    0.7015 H   0  0  0  0  0  0  0  0  0  0  0  0
    0.6469   -0.3252   -1.4336 H   0  0  0  0  0  0  0  0  0  0  0  0
    0.5423   -0.9510    1.5920 H   0  0  0  0  0  0  0  0  0  0  0  0
   -1.8345   -1.0695    1.4218 H   0  0  0  0  0  0  0  0  0  0  0  0
   -1.2465   -2.0116    0.0404 H   0  0  0  0  0  0  0  0  0  0  0  0
   -2.2357   -0.6063   -1.4778 H   0  0  0  0  0  0  0  0  0  0  0  0
   -3.2461   -0.1193   -0.0984 H   0  0  0  0  0  0  0  0  0  0  0  0
    1.0195    1.4541    1.1808 H   0  0  0  0  0  0  0  0  0  0  0  0
  1  2  1  0
  2  3  1  0
  3  4  1  0
  4  5  1  0
  5  6  1  0
  6  7  1  0
  7  8  2  0
  7  9  1  0
  9  2  1  0
  9  3  1  0
  1 10  1  0
  1 11  1  0
  1 12  1  0
  2 13  1  0
  3 14  1  0
  4 15  1  0
  4 16  1  0
  5 17  1  0
  5 18  1  0
  9 19  1  0
M  END
