
     RDKit          3D

 19 19  0  0  0  0  0  0  0  0999 V2000
   -1.6818   -1.5921   -0.3857 C   0  0  0  0  0  0  0  0  0  0  0  0
   -0.8112   -0.5326    0.2385 C   0  0  0  0  0  0  0  0  0  0  0  0
   -0.7039    0.8150   -0.3882 C   0  0  0  0  0  0  0  0  0  0  0  0
   -0.7118    1.9826    0.5623 C   0  0  0  0  0  0  0  0  0  0  0  0
    0.4351   -0.0882   -0.5201 C   0  0  0  0  0  0  0  0  0  0  0  0
    1.6431   -0.0223    0.2982 C   0  0  0  0  0  0  0  0  0  0  0  0
    1.5468    0.5274    1.4273 O   0  0  0  0  0  0  0  0  0  0  0  0
    2.9380   -0.5492   -0.1108 C   0  0  0  0  0  0  0  0  0  0  0  0
    3.0757   -1.1057   -1.2312 O   0  0  0  0  0  0  0  0  0  0  0  0
   -1.1310   -2.5574   -0.3057 H   0  0  0  0  0  0  0  0  0  0  0  0
   -2.0082   -1.3555   -1.4061 H   0  0  0  0  0  0  0  0  0  0  0  0
   -2.5877   -1.6929    0.2337 H   0  0  0  0  0  0  0  0  0  0  0  0
   -0.7559   -0.5898    1.3456 H   0  0  0  0  0  0  0  0  0  0  0  0
   -1.3534    0.9666   -1.2746 H   0  0  0  0  0  0  0  0  0  0  0  0
    0.2770    2.3849    0.7902 H   0  0  0  0  0  0  0  0  0  0  0  0
   -1.1883    1.6580    1.5233 H   0  0  0  0  0  0  0  0  0  0  0  0
   -1.3686    2.8230    0.2001 H   0  0  0  0  0  0  0  0  0  0  0  0
    0.5760   -0.5826   -1.5041 H   0  0  0  0  0  0  0  0  0  0  0  0
    3.8103   -0.4890    0.5072 H   0  0  0  0  0  0  0  0  0  0  0  0
  1  2  1  0
  2  3  1  0
  3  4  1  0
  3  5  1  0
  5  6  1  0
  6  7  2  0
  6  8  1  0
  8  9  2  0
  5  2  1  0
  1 10  1  0
  1 11  1  0
  1 12  1  0
  2 13  1  0
  3 14  1  0
  4 15  1  0
  4 16  1  0
  4 17  1  0
  5 18  1  0
  8 19  1  0
M  END
