
     RDKit          3D

 21 22  0  0  0  0  0  0  0  0999 V2000
   -2.0336   -1.2371    0.1721 C   0  0  0  0  0  0  0  0  0  0  0  0
   -1.1895   -0.0415   -0.0594 C   0  0  0  0  0  0  0  0  0  0  0  0
    0.0218   -0.2580   -0.9779 C   0  0  0  0  0  0  0  0  0  0  0  0
    0.5130    1.1477   -1.0821 C   0  0  0  0  0  0  0  0  0  0  0  0
    0.4843    1.5284    0.4143 C   0  0  0  0  0  0  0  0  0  0  0  0
   -0.1408    0.2761    0.9613 C   0  0  0  0  0  0  0  0  0  0  0  0
    0.7143   -0.7843    0.2527 C   0  0  0  0  0  0  0  0  0  0  0  0
    2.1519   -0.5380    0.3477 C   0  0  0  0  0  0  0  0  0  0  0  0
    2.8970   -0.9348   -0.5124 O   0  0  0  0  0  0  0  0  0  0  0  0
   -2.8029   -1.2906   -0.6128 H   0  0  0  0  0  0  0  0  0  0  0  0
   -1.5171   -2.1915    0.2401 H   0  0  0  0  0  0  0  0  0  0  0  0
   -2.5573   -1.0938    1.1633 H   0  0  0  0  0  0  0  0  0  0  0  0
   -1.7753    0.8401   -0.3286 H   0  0  0  0  0  0  0  0  0  0  0  0
   -0.1030   -0.8709   -1.8270 H   0  0  0  0  0  0  0  0  0  0  0  0
   -0.2407    1.7367   -1.6465 H   0  0  0  0  0  0  0  0  0  0  0  0
    1.5235    1.2478   -1.4941 H   0  0  0  0  0  0  0  0  0  0  0  0
    1.5078    1.6922    0.7485 H   0  0  0  0  0  0  0  0  0  0  0  0
   -0.1455    2.4154    0.5017 H   0  0  0  0  0  0  0  0  0  0  0  0
   -0.3222    0.1611    1.9926 H   0  0  0  0  0  0  0  0  0  0  0  0
    0.4584   -1.8015    0.5652 H   0  0  0  0  0  0  0  0  0  0  0  0
    2.5560   -0.0035    1.1811 H   0  0  0  0  0  0  0  0  0  0  0  0
  1  2  1  0
  2  3  1  0
  3  4  1  0
  4  5  1  0
  5  6  1  0
  6  7  1  0
  7  8  1  0
  8  9  2  0
  6  2  1  0
  7  3  1  0
  1 10  1  0
  1 11  1  0
  1 12  1  0
  2 13  1  0
  3 14  1  0
  4 15  1  0
  4 16  1  0
  5 17  1  0
  5 18  1  0
  6 19  1  0
  7 20  1  0
  8 21  1  0
M  END
