
     RDKit          3D

 23 24  0  0  0  0  0  0  0  0999 V2000
    2.3958   -0.4712   -0.3409 C   0  0  0  0  0  0  0  0  0  0  0  0
    1.0966   -0.6178    0.3991 C   0  0  0  0  0  0  0  0  0  0  0  0
    0.5367    0.6078    1.0317 C   0  0  0  0  0  0  0  0  0  0  0  0
   -0.4914    0.6754   -0.0708 C   0  0  0  0  0  0  0  0  0  0  0  0
   -0.1749    1.7643   -1.0369 C   0  0  0  0  0  0  0  0  0  0  0  0
   -1.8994    0.5858    0.3502 C   0  0  0  0  0  0  0  0  0  0  0  0
   -2.2974   -0.6655    0.5040 C   0  0  0  0  0  0  0  0  0  0  0  0
   -1.1629   -1.6036    0.1933 C   0  0  0  0  0  0  0  0  0  0  0  0
   -0.1300   -0.7213   -0.4672 C   0  0  0  0  0  0  0  0  0  0  0  0
    3.1908   -0.2017    0.3753 H   0  0  0  0  0  0  0  0  0  0  0  0
    2.6465   -1.4812   -0.7552 H   0  0  0  0  0  0  0  0  0  0  0  0
    2.3577    0.2143   -1.1849 H   0  0  0  0  0  0  0  0  0  0  0  0
    1.1890   -1.4489    1.1503 H   0  0  0  0  0  0  0  0  0  0  0  0
    0.0177    0.4554    2.0175 H   0  0  0  0  0  0  0  0  0  0  0  0
    1.1949    1.4836    1.1019 H   0  0  0  0  0  0  0  0  0  0  0  0
   -0.4852    1.4920   -2.0632 H   0  0  0  0  0  0  0  0  0  0  0  0
    0.8837    2.1095   -0.9851 H   0  0  0  0  0  0  0  0  0  0  0  0
   -0.7819    2.6696   -0.7523 H   0  0  0  0  0  0  0  0  0  0  0  0
   -2.5359    1.4474    0.5150 H   0  0  0  0  0  0  0  0  0  0  0  0
   -3.2891   -0.9551    0.8069 H   0  0  0  0  0  0  0  0  0  0  0  0
   -1.4810   -2.4463   -0.4267 H   0  0  0  0  0  0  0  0  0  0  0  0
   -0.8144   -1.9907    1.1741 H   0  0  0  0  0  0  0  0  0  0  0  0
    0.0339   -0.9019   -1.5361 H   0  0  0  0  0  0  0  0  0  0  0  0
  1  2  1  0
  2  3  1  0
  3  4  1  0
  4  5  1  0
  4  6  1  0
  6  7  2  0
  7  8  1  0
  8  9  1  0
  9  2  1  0
  9  4  1  0
  1 10  1  0
  1 11  1  0
  1 12  1  0
  2 13  1  0
  3 14  1  0
  3 15  1  0
  5 16  1  0
  5 17  1  0
  5 18  1  0
  6 19  1  0
  7 20  1  0
  8 21  1  0
  8 22  1  0
  9 23  1  0
M  END
