
     RDKit          3D

 25 25  0  0  0  0  0  0  0  0999 V2000
   -2.6879   -0.4004   -0.4581 C   0  0  0  0  0  0  0  0  0  0  0  0
   -1.5528    0.1273    0.3930 C   0  0  0  0  0  0  0  0  0  0  0  0
   -1.1635    1.5095   -0.0205 C   0  0  0  0  0  0  0  0  0  0  0  0
    0.0181    1.9341    0.3769 C   0  0  0  0  0  0  0  0  0  0  0  0
    0.8832    1.0512    1.1908 C   0  0  0  0  0  0  0  0  0  0  0  0
    0.9406   -0.2838    0.5114 C   0  0  0  0  0  0  0  0  0  0  0  0
    1.6427   -0.0996   -0.8219 C   0  0  0  0  0  0  0  0  0  0  0  0
    1.8070   -1.2516    1.3122 C   0  0  0  0  0  0  0  0  0  0  0  0
   -0.4312   -0.8462    0.3568 C   0  0  0  0  0  0  0  0  0  0  0  0
   -2.5598   -0.1933   -1.5235 H   0  0  0  0  0  0  0  0  0  0  0  0
   -3.6438    0.0486   -0.1305 H   0  0  0  0  0  0  0  0  0  0  0  0
   -2.7446   -1.4832   -0.3093 H   0  0  0  0  0  0  0  0  0  0  0  0
   -1.9799    0.2498    1.4308 H   0  0  0  0  0  0  0  0  0  0  0  0
   -1.8028    2.1493   -0.6166 H   0  0  0  0  0  0  0  0  0  0  0  0
    0.3616    2.9136    0.1175 H   0  0  0  0  0  0  0  0  0  0  0  0
    1.8940    1.4885    1.3513 H   0  0  0  0  0  0  0  0  0  0  0  0
    0.4692    0.8825    2.2106 H   0  0  0  0  0  0  0  0  0  0  0  0
    2.6507    0.3118   -0.6011 H   0  0  0  0  0  0  0  0  0  0  0  0
    1.7989   -1.0656   -1.3342 H   0  0  0  0  0  0  0  0  0  0  0  0
    1.0986    0.6283   -1.4542 H   0  0  0  0  0  0  0  0  0  0  0  0
    1.8687   -2.1771    0.6767 H   0  0  0  0  0  0  0  0  0  0  0  0
    1.3617   -1.5307    2.2652 H   0  0  0  0  0  0  0  0  0  0  0  0
    2.8437   -0.8888    1.4044 H   0  0  0  0  0  0  0  0  0  0  0  0
   -0.5895   -1.5583    1.2201 H   0  0  0  0  0  0  0  0  0  0  0  0
   -0.4830   -1.5157   -0.5441 H   0  0  0  0  0  0  0  0  0  0  0  0
  1  2  1  0
  2  3  1  0
  3  4  2  0
  4  5  1  0
  5  6  1  0
  6  7  1  0
  6  8  1  0
  6  9  1  0
  9  2  1  0
  1 10  1  0
  1 11  1  0
  1 12  1  0
  2 13  1  0
  3 14  1  0
  4 15  1  0
  5 16  1  0
  5 17  1  0
  7 18  1  0
  7 19  1  0
  7 20  1  0
  8 21  1  0
  8 22  1  0
  8 23  1  0
  9 24  1  0
  9 25  1  0
M  END
