
     RDKit          3D

 21 23  0  0  0  0  0  0  0  0999 V2000
    2.5214    0.3037    0.1640 C   0  0  0  0  0  0  0  0  0  0  0  0
    1.1653   -0.1703    0.5596 C   0  0  0  0  0  0  0  0  0  0  0  0
    0.4650   -1.0199   -0.4558 C   0  0  0  0  0  0  0  0  0  0  0  0
   -0.8458   -1.6524   -0.0204 C   0  0  0  0  0  0  0  0  0  0  0  0
   -1.3455   -0.3235    0.3193 C   0  0  0  0  0  0  0  0  0  0  0  0
   -2.4942    0.2194    0.7677 C   0  0  0  0  0  0  0  0  0  0  0  0
   -1.5907   -0.1498    1.7768 O   0  0  0  0  0  0  0  0  0  0  0  0
   -0.0745    0.3188   -0.0856 C   0  0  0  0  0  0  0  0  0  0  0  0
   -0.0728    1.4611   -1.0522 C   0  0  0  0  0  0  0  0  0  0  0  0
    3.2577   -0.4818    0.5032 H   0  0  0  0  0  0  0  0  0  0  0  0
    2.6331    0.3216   -0.9539 H   0  0  0  0  0  0  0  0  0  0  0  0
    2.7959    1.2518    0.6317 H   0  0  0  0  0  0  0  0  0  0  0  0
    1.0481   -0.5394    1.6037 H   0  0  0  0  0  0  0  0  0  0  0  0
    0.8846   -1.2280   -1.4348 H   0  0  0  0  0  0  0  0  0  0  0  0
   -0.6179   -2.3371    0.8479 H   0  0  0  0  0  0  0  0  0  0  0  0
   -1.2776   -2.2183   -0.8466 H   0  0  0  0  0  0  0  0  0  0  0  0
   -2.6767    1.3339    0.6984 H   0  0  0  0  0  0  0  0  0  0  0  0
   -3.4593   -0.3222    0.8588 H   0  0  0  0  0  0  0  0  0  0  0  0
   -0.4156    2.3712   -0.5421 H   0  0  0  0  0  0  0  0  0  0  0  0
    0.9269    1.6267   -1.5014 H   0  0  0  0  0  0  0  0  0  0  0  0
   -0.8272    1.2345   -1.8381 H   0  0  0  0  0  0  0  0  0  0  0  0
  1  2  1  0
  2  3  1  0
  3  4  1  0
  4  5  1  0
  5  6  1  0
  6  7  1  0
  5  8  1  0
  8  9  1  0
  8  2  1  0
  8  3  1  0
  7  5  1  0
  1 10  1  0
  1 11  1  0
  1 12  1  0
  2 13  1  0
  3 14  1  0
  4 15  1  0
  4 16  1  0
  6 17  1  0
  6 18  1  0
  9 19  1  0
  9 20  1  0
  9 21  1  0
M  END
