
     RDKit          3D

 23 23  0  0  0  0  0  0  0  0999 V2000
   -3.4096    0.2190   -0.0062 C   0  0  0  0  0  0  0  0  0  0  0  0
   -2.0555    0.3667    0.5877 C   0  0  0  0  0  0  0  0  0  0  0  0
   -1.1821   -0.8948    0.5412 C   0  0  0  0  0  0  0  0  0  0  0  0
   -0.0033    0.0681    0.4140 C   0  0  0  0  0  0  0  0  0  0  0  0
    1.0350   -0.3737   -0.3664 O   0  0  0  0  0  0  0  0  0  0  0  0
    2.2171   -0.2229    0.3736 C   0  0  0  0  0  0  0  0  0  0  0  0
    3.4281   -0.6916   -0.4203 C   0  0  0  0  0  0  0  0  0  0  0  0
    3.4783    0.0958   -1.5690 O   0  0  0  0  0  0  0  0  0  0  0  0
   -0.9977    0.9953   -0.2986 C   0  0  0  0  0  0  0  0  0  0  0  0
   -3.6527    1.1398   -0.5881 H   0  0  0  0  0  0  0  0  0  0  0  0
   -4.1514    0.2026    0.8346 H   0  0  0  0  0  0  0  0  0  0  0  0
   -3.5683   -0.7038   -0.5772 H   0  0  0  0  0  0  0  0  0  0  0  0
   -2.0722    0.8624    1.5705 H   0  0  0  0  0  0  0  0  0  0  0  0
   -1.1962   -1.4988    1.4451 H   0  0  0  0  0  0  0  0  0  0  0  0
   -1.4108   -1.4278   -0.4121 H   0  0  0  0  0  0  0  0  0  0  0  0
    0.2786    0.4405    1.4281 H   0  0  0  0  0  0  0  0  0  0  0  0
    2.3869    0.8616    0.6285 H   0  0  0  0  0  0  0  0  0  0  0  0
    2.2043   -0.8164    1.3067 H   0  0  0  0  0  0  0  0  0  0  0  0
    3.3037   -1.7489   -0.6647 H   0  0  0  0  0  0  0  0  0  0  0  0
    4.3106   -0.4818    0.2236 H   0  0  0  0  0  0  0  0  0  0  0  0
    2.8754    0.8908   -1.5120 H   0  0  0  0  0  0  0  0  0  0  0  0
   -1.0524    0.6763   -1.3661 H   0  0  0  0  0  0  0  0  0  0  0  0
   -0.7658    2.0415   -0.1078 H   0  0  0  0  0  0  0  0  0  0  0  0
  1  2  1  0
  2  3  1  0
  3  4  1  0
  4  5  1  0
  5  6  1  0
  6  7  1  0
  7  8  1  0
  4  9  1  0
  9  2  1  0
  1 10  1  0
  1 11  1  0
  1 12  1  0
  2 13  1  0
  3 14  1  0
  3 15  1  0
  4 16  1  0
  6 17  1  0
  6 18  1  0
  7 19  1  0
  7 20  1  0
  8 21  1  0
  9 22  1  0
  9 23  1  0
M  END
