
     RDKit          3D

 23 24  0  0  0  0  0  0  0  0999 V2000
   -0.4001    1.9357   -0.3378 C   0  0  0  0  0  0  0  0  0  0  0  0
    0.1212    0.6515   -0.8624 C   0  0  0  0  0  0  0  0  0  0  0  0
   -0.8485   -0.4992   -0.9503 C   0  0  0  0  0  0  0  0  0  0  0  0
   -1.7226   -0.6321    0.2632 C   0  0  0  0  0  0  0  0  0  0  0  0
   -0.9767   -0.3791    1.5184 C   0  0  0  0  0  0  0  0  0  0  0  0
    0.3594   -0.1637    1.3986 O   0  0  0  0  0  0  0  0  0  0  0  0
    0.8853   -0.2125    0.1502 C   0  0  0  0  0  0  0  0  0  0  0  0
    2.3645   -0.0386    0.1303 C   0  0  0  0  0  0  0  0  0  0  0  0
    0.3629   -1.4028   -0.6673 C   0  0  0  0  0  0  0  0  0  0  0  0
   -1.4679    2.0587   -0.5482 H   0  0  0  0  0  0  0  0  0  0  0  0
    0.1434    2.7665   -0.8773 H   0  0  0  0  0  0  0  0  0  0  0  0
   -0.1641    2.0759    0.7422 H   0  0  0  0  0  0  0  0  0  0  0  0
    0.6947    0.7240   -1.8051 H   0  0  0  0  0  0  0  0  0  0  0  0
   -1.3346   -0.6668   -1.9064 H   0  0  0  0  0  0  0  0  0  0  0  0
   -2.6534   -0.0120    0.1987 H   0  0  0  0  0  0  0  0  0  0  0  0
   -2.1051   -1.6961    0.2587 H   0  0  0  0  0  0  0  0  0  0  0  0
   -1.1382   -1.2316    2.2418 H   0  0  0  0  0  0  0  0  0  0  0  0
   -1.4183    0.5086    2.0586 H   0  0  0  0  0  0  0  0  0  0  0  0
    2.7500    0.5712   -0.6969 H   0  0  0  0  0  0  0  0  0  0  0  0
    2.8340   -1.0360    0.2156 H   0  0  0  0  0  0  0  0  0  0  0  0
    2.6649    0.5083    1.0725 H   0  0  0  0  0  0  0  0  0  0  0  0
    0.9180   -1.5804   -1.5833 H   0  0  0  0  0  0  0  0  0  0  0  0
    0.1312   -2.2493   -0.0140 H   0  0  0  0  0  0  0  0  0  0  0  0
  1  2  1  0
  2  3  1  0
  3  4  1  0
  4  5  1  0
  5  6  1  0
  6  7  1  0
  7  8  1  0
  7  9  1  0
  7  2  1  0
  9  3  1  0
  1 10  1  0
  1 11  1  0
  1 12  1  0
  2 13  1  0
  3 14  1  0
  4 15  1  0
  4 16  1  0
  5 17  1  0
  5 18  1  0
  8 19  1  0
  8 20  1  0
  8 21  1  0
  9 22  1  0
  9 23  1  0
M  END
