
     RDKit          3D

 19 19  0  0  0  0  0  0  0  0999 V2000
   -1.9532   -0.3249    0.0712 C   0  0  0  0  0  0  0  0  0  0  0  0
   -0.6050   -0.1758   -0.5917 C   0  0  0  0  0  0  0  0  0  0  0  0
    0.2489   -1.3414   -0.1351 C   0  0  0  0  0  0  0  0  0  0  0  0
    1.5797   -0.7725    0.2589 C   0  0  0  0  0  0  0  0  0  0  0  0
    1.4082    0.7136    0.4247 C   0  0  0  0  0  0  0  0  0  0  0  0
    0.1089    1.0776   -0.2319 C   0  0  0  0  0  0  0  0  0  0  0  0
   -0.6367    1.9482    0.5563 O   0  0  0  0  0  0  0  0  0  0  0  0
   -2.3268   -1.3459   -0.2250 H   0  0  0  0  0  0  0  0  0  0  0  0
   -1.8540   -0.3488    1.1724 H   0  0  0  0  0  0  0  0  0  0  0  0
   -2.7038    0.3888   -0.2922 H   0  0  0  0  0  0  0  0  0  0  0  0
   -0.7965   -0.2626   -1.6989 H   0  0  0  0  0  0  0  0  0  0  0  0
   -0.1819   -1.8250    0.7740 H   0  0  0  0  0  0  0  0  0  0  0  0
    0.3040   -2.0836   -0.9524 H   0  0  0  0  0  0  0  0  0  0  0  0
    1.9322   -1.1741    1.2318 H   0  0  0  0  0  0  0  0  0  0  0  0
    2.3015   -1.0093   -0.5585 H   0  0  0  0  0  0  0  0  0  0  0  0
    1.4717    1.0410    1.4863 H   0  0  0  0  0  0  0  0  0  0  0  0
    2.2953    1.1946   -0.0784 H   0  0  0  0  0  0  0  0  0  0  0  0
    0.3784    1.6015   -1.1955 H   0  0  0  0  0  0  0  0  0  0  0  0
   -0.9711    2.6987   -0.0159 H   0  0  0  0  0  0  0  0  0  0  0  0
  1  2  1  0
  2  3  1  0
  3  4  1  0
  4  5  1  0
  5  6  1  0
  6  7  1  0
  6  2  1  0
  1  8  1  0
  1  9  1  0
  1 10  1  0
  2 11  1  0
  3 12  1  0
  3 13  1  0
  4 14  1  0
  4 15  1  0
  5 16  1  0
  5 17  1  0
  6 18  1  0
  7 19  1  0
M  END
