
     RDKit          3D

 23 24  0  0  0  0  0  0  0  0999 V2000
    2.7620    1.1362   -0.2190 C   0  0  0  0  0  0  0  0  0  0  0  0
    2.2748    0.1560    0.7941 C   0  0  0  0  0  0  0  0  0  0  0  0
    1.9652   -1.2366    0.4961 C   0  0  0  0  0  0  0  0  0  0  0  0
    0.8302   -0.2855    0.5814 C   0  0  0  0  0  0  0  0  0  0  0  0
    0.1889    0.0482   -0.7507 C   0  0  0  0  0  0  0  0  0  0  0  0
   -1.1086   -0.4468   -0.7098 O   0  0  0  0  0  0  0  0  0  0  0  0
   -1.8936    0.0869    0.2820 C   0  0  0  0  0  0  0  0  0  0  0  0
   -3.3497    0.2892   -0.1494 C   0  0  0  0  0  0  0  0  0  0  0  0
   -3.0403   -0.7692    0.8110 C   0  0  0  0  0  0  0  0  0  0  0  0
    2.5938    2.1656    0.2142 H   0  0  0  0  0  0  0  0  0  0  0  0
    3.8468    1.0240   -0.4372 H   0  0  0  0  0  0  0  0  0  0  0  0
    2.2353    1.0978   -1.1704 H   0  0  0  0  0  0  0  0  0  0  0  0
    2.5374    0.4238    1.8552 H   0  0  0  0  0  0  0  0  0  0  0  0
    2.0441   -1.9650    1.3534 H   0  0  0  0  0  0  0  0  0  0  0  0
    2.1906   -1.7256   -0.4705 H   0  0  0  0  0  0  0  0  0  0  0  0
    0.1712   -0.2410    1.4542 H   0  0  0  0  0  0  0  0  0  0  0  0
    0.6900   -0.4897   -1.6013 H   0  0  0  0  0  0  0  0  0  0  0  0
    0.2102    1.1512   -0.9307 H   0  0  0  0  0  0  0  0  0  0  0  0
   -1.4647    0.8536    0.9617 H   0  0  0  0  0  0  0  0  0  0  0  0
   -3.8057    1.2381    0.2073 H   0  0  0  0  0  0  0  0  0  0  0  0
   -3.6537    0.0067   -1.1578 H   0  0  0  0  0  0  0  0  0  0  0  0
   -3.0481   -1.8380    0.4708 H   0  0  0  0  0  0  0  0  0  0  0  0
   -3.1760   -0.6799    1.9022 H   0  0  0  0  0  0  0  0  0  0  0  0
  1  2  1  0
  2  3  1  0
  3  4  1  0
  4  5  1  0
  5  6  1  0
  6  7  1  0
  7  8  1  0
  8  9  1  0
  4  2  1  0
  9  7  1  0
  1 10  1  0
  1 11  1  0
  1 12  1  0
  2 13  1  0
  3 14  1  0
  3 15  1  0
  4 16  1  0
  5 17  1  0
  5 18  1  0
  7 19  1  0
  8 20  1  0
  8 21  1  0
  9 22  1  0
  9 23  1  0
M  END
