
     RDKit          3D

 18 18  0  0  0  0  0  0  0  0999 V2000
   -1.9017   -0.7766    0.3989 C   0  0  0  0  0  0  0  0  0  0  0  0
   -0.6722   -0.5188   -0.4143 C   0  0  0  0  0  0  0  0  0  0  0  0
   -0.6541    0.8277   -1.1416 C   0  0  0  0  0  0  0  0  0  0  0  0
   -0.1143    1.4076    0.1743 C   0  0  0  0  0  0  0  0  0  0  0  0
    0.5037    0.0368    0.4005 C   0  0  0  0  0  0  0  0  0  0  0  0
    1.6839   -0.0972   -0.3595 O   0  0  0  0  0  0  0  0  0  0  0  0
    2.8492   -0.6405    0.1833 C   0  0  0  0  0  0  0  0  0  0  0  0
    2.7601   -0.9992    1.4016 O   0  0  0  0  0  0  0  0  0  0  0  0
   -1.5797   -1.2538    1.3546 H   0  0  0  0  0  0  0  0  0  0  0  0
   -2.5148   -1.5502   -0.1320 H   0  0  0  0  0  0  0  0  0  0  0  0
   -2.5154    0.1174    0.5700 H   0  0  0  0  0  0  0  0  0  0  0  0
   -0.3626   -1.3742   -1.0173 H   0  0  0  0  0  0  0  0  0  0  0  0
    0.1555    0.8485   -1.8881 H   0  0  0  0  0  0  0  0  0  0  0  0
   -1.6361    1.1941   -1.4372 H   0  0  0  0  0  0  0  0  0  0  0  0
    0.6649    2.1729    0.0415 H   0  0  0  0  0  0  0  0  0  0  0  0
   -0.9653    1.6567    0.8198 H   0  0  0  0  0  0  0  0  0  0  0  0
    0.5421   -0.3048    1.4373 H   0  0  0  0  0  0  0  0  0  0  0  0
    3.7568   -0.7465   -0.3920 H   0  0  0  0  0  0  0  0  0  0  0  0
  1  2  1  0
  2  3  1  0
  3  4  1  0
  4  5  1  0
  5  6  1  0
  6  7  1  0
  7  8  2  0
  5  2  1  0
  1  9  1  0
  1 10  1  0
  1 11  1  0
  2 12  1  0
  3 13  1  0
  3 14  1  0
  4 15  1  0
  4 16  1  0
  5 17  1  0
  7 18  1  0
M  END
