
     RDKit          3D

 23 24  0  0  0  0  0  0  0  0999 V2000
    1.2366    1.7673   -0.4196 C   0  0  0  0  0  0  0  0  0  0  0  0
    0.3695    0.7328    0.2124 C   0  0  0  0  0  0  0  0  0  0  0  0
   -1.0824    0.8529   -0.1057 C   0  0  0  0  0  0  0  0  0  0  0  0
   -1.8271    0.0613    0.9784 C   0  0  0  0  0  0  0  0  0  0  0  0
   -1.3564   -1.2347    0.8135 O   0  0  0  0  0  0  0  0  0  0  0  0
   -0.6426   -1.3106   -0.3567 C   0  0  0  0  0  0  0  0  0  0  0  0
   -1.2558   -0.1904   -1.2243 C   0  0  0  0  0  0  0  0  0  0  0  0
    0.7397   -0.6864   -0.2065 C   0  0  0  0  0  0  0  0  0  0  0  0
    1.5930   -1.3870    0.7828 C   0  0  0  0  0  0  0  0  0  0  0  0
    0.7264    2.3034   -1.2237 H   0  0  0  0  0  0  0  0  0  0  0  0
    1.5506    2.5400    0.3374 H   0  0  0  0  0  0  0  0  0  0  0  0
    2.1841    1.2944   -0.7613 H   0  0  0  0  0  0  0  0  0  0  0  0
    0.4719    0.8247    1.3298 H   0  0  0  0  0  0  0  0  0  0  0  0
   -1.4821    1.8082   -0.3223 H   0  0  0  0  0  0  0  0  0  0  0  0
   -1.5462    0.5142    1.9409 H   0  0  0  0  0  0  0  0  0  0  0  0
   -2.9283    0.1295    0.8103 H   0  0  0  0  0  0  0  0  0  0  0  0
   -0.6423   -2.2654   -0.8533 H   0  0  0  0  0  0  0  0  0  0  0  0
   -0.6147    0.0229   -2.0785 H   0  0  0  0  0  0  0  0  0  0  0  0
   -2.3061   -0.3824   -1.4445 H   0  0  0  0  0  0  0  0  0  0  0  0
    1.1800   -0.6393   -1.2274 H   0  0  0  0  0  0  0  0  0  0  0  0
    1.2317   -2.4146    0.9942 H   0  0  0  0  0  0  0  0  0  0  0  0
    2.6090   -1.5308    0.3123 H   0  0  0  0  0  0  0  0  0  0  0  0
    1.7916   -0.8100    1.7119 H   0  0  0  0  0  0  0  0  0  0  0  0
  1  2  1  0
  2  3  1  0
  3  4  1  0
  4  5  1  0
  5  6  1  0
  6  7  1  0
  6  8  1  0
  8  9  1  0
  8  2  1  0
  7  3  1  0
  1 10  1  0
  1 11  1  0
  1 12  1  0
  2 13  1  0
  3 14  1  0
  4 15  1  0
  4 16  1  0
  6 17  1  0
  7 18  1  0
  7 19  1  0
  8 20  1  0
  9 21  1  0
  9 22  1  0
  9 23  1  0
M  END
