
     RDKit          3D

 19 20  0  0  0  0  0  0  0  0999 V2000
   -1.9009   -0.5198    0.4691 C   0  0  0  0  0  0  0  0  0  0  0  0
   -1.0495   -0.0815   -0.7059 C   0  0  0  0  0  0  0  0  0  0  0  0
   -0.6905    1.3546   -0.4482 C   0  0  0  0  0  0  0  0  0  0  0  0
   -1.4370    2.2628   -0.7502 O   0  0  0  0  0  0  0  0  0  0  0  0
    0.6493    1.3938    0.1941 C   0  0  0  0  0  0  0  0  0  0  0  0
    1.2762    0.0689   -0.0643 C   0  0  0  0  0  0  0  0  0  0  0  0
    2.6072    0.0809   -0.5417 O   0  0  0  0  0  0  0  0  0  0  0  0
    0.8358   -1.1691    0.6001 C   0  0  0  0  0  0  0  0  0  0  0  0
    0.2812   -0.7744   -0.7507 C   0  0  0  0  0  0  0  0  0  0  0  0
   -1.9153   -1.6100    0.5210 H   0  0  0  0  0  0  0  0  0  0  0  0
   -2.9127   -0.0669    0.2959 H   0  0  0  0  0  0  0  0  0  0  0  0
   -1.5286   -0.0397    1.4019 H   0  0  0  0  0  0  0  0  0  0  0  0
   -1.6375   -0.1904   -1.6397 H   0  0  0  0  0  0  0  0  0  0  0  0
    1.2361    2.1692   -0.3694 H   0  0  0  0  0  0  0  0  0  0  0  0
    0.6347    1.7157    1.2345 H   0  0  0  0  0  0  0  0  0  0  0  0
    3.2550   -0.0794    0.1878 H   0  0  0  0  0  0  0  0  0  0  0  0
    1.5138   -2.0369    0.5552 H   0  0  0  0  0  0  0  0  0  0  0  0
    0.1580   -1.1858    1.4691 H   0  0  0  0  0  0  0  0  0  0  0  0
    0.6247   -1.2922   -1.6586 H   0  0  0  0  0  0  0  0  0  0  0  0
  1  2  1  0
  2  3  1  0
  3  4  2  0
  3  5  1  0
  5  6  1  0
  6  7  1  0
  6  8  1  0
  8  9  1  0
  9  2  1  0
  9  6  1  0
  1 10  1  0
  1 11  1  0
  1 12  1  0
  2 13  1  0
  5 14  1  0
  5 15  1  0
  7 16  1  0
  8 17  1  0
  8 18  1  0
  9 19  1  0
M  END
