
     RDKit          3D

 21 22  0  0  0  0  0  0  0  0999 V2000
   -2.4989   -0.1320   -0.7801 C   0  0  0  0  0  0  0  0  0  0  0  0
   -1.3290   -0.1436    0.1700 C   0  0  0  0  0  0  0  0  0  0  0  0
   -0.9895    1.3008    0.5790 C   0  0  0  0  0  0  0  0  0  0  0  0
    0.4239    0.8293    0.6149 C   0  0  0  0  0  0  0  0  0  0  0  0
    1.6916    0.7795    1.0102 C   0  0  0  0  0  0  0  0  0  0  0  0
    2.6183   -0.1968    0.3845 C   0  0  0  0  0  0  0  0  0  0  0  0
    2.0544   -1.3804    0.0365 O   0  0  0  0  0  0  0  0  0  0  0  0
    0.8058   -1.3797   -0.4901 C   0  0  0  0  0  0  0  0  0  0  0  0
    0.0270   -0.1295   -0.4576 C   0  0  0  0  0  0  0  0  0  0  0  0
   -2.4185    0.7999   -1.3851 H   0  0  0  0  0  0  0  0  0  0  0  0
   -3.4209   -0.0342   -0.1693 H   0  0  0  0  0  0  0  0  0  0  0  0
   -2.5322   -1.0378   -1.4108 H   0  0  0  0  0  0  0  0  0  0  0  0
   -1.4820   -0.7951    1.0309 H   0  0  0  0  0  0  0  0  0  0  0  0
   -1.4232    1.5914    1.5507 H   0  0  0  0  0  0  0  0  0  0  0  0
   -1.1362    2.0233   -0.2243 H   0  0  0  0  0  0  0  0  0  0  0  0
    1.9807    1.4704    1.7838 H   0  0  0  0  0  0  0  0  0  0  0  0
    3.1263    0.3106   -0.4573 H   0  0  0  0  0  0  0  0  0  0  0  0
    3.4183   -0.3973    1.1480 H   0  0  0  0  0  0  0  0  0  0  0  0
    0.8819   -1.7314   -1.5433 H   0  0  0  0  0  0  0  0  0  0  0  0
    0.2098   -2.1732    0.0332 H   0  0  0  0  0  0  0  0  0  0  0  0
   -0.0076    0.4255   -1.4238 H   0  0  0  0  0  0  0  0  0  0  0  0
  1  2  1  0
  2  3  1  0
  3  4  1  0
  4  5  2  0
  5  6  1  0
  6  7  1  0
  7  8  1  0
  8  9  1  0
  9  2  1  0
  9  4  1  0
  1 10  1  0
  1 11  1  0
  1 12  1  0
  2 13  1  0
  3 14  1  0
  3 15  1  0
  5 16  1  0
  6 17  1  0
  6 18  1  0
  8 19  1  0
  8 20  1  0
  9 21  1  0
M  END
