
     RDKit          3D

 17 18  0  0  0  0  0  0  0  0999 V2000
   -1.9208    0.4672    0.5012 C   0  0  0  0  0  0  0  0  0  0  0  0
   -0.4892    0.4662    0.0664 C   0  0  0  0  0  0  0  0  0  0  0  0
   -0.0671   -0.6451   -0.8520 C   0  0  0  0  0  0  0  0  0  0  0  0
   -0.2232   -1.5287    0.3045 C   0  0  0  0  0  0  0  0  0  0  0  0
   -0.6948   -2.6236    0.4899 O   0  0  0  0  0  0  0  0  0  0  0  0
    0.4455   -0.3779    0.8857 C   0  0  0  0  0  0  0  0  0  0  0  0
    1.3261   -0.3907   -0.3400 C   0  0  0  0  0  0  0  0  0  0  0  0
    1.8957    0.9367   -0.6435 C   0  0  0  0  0  0  0  0  0  0  0  0
    2.4485    1.1822   -1.7056 O   0  0  0  0  0  0  0  0  0  0  0  0
   -2.5225    0.9866   -0.2720 H   0  0  0  0  0  0  0  0  0  0  0  0
   -2.0121    1.0898    1.4227 H   0  0  0  0  0  0  0  0  0  0  0  0
   -2.3213   -0.5252    0.7207 H   0  0  0  0  0  0  0  0  0  0  0  0
   -0.1376    1.4391   -0.2623 H   0  0  0  0  0  0  0  0  0  0  0  0
   -0.3442   -0.7894   -1.8002 H   0  0  0  0  0  0  0  0  0  0  0  0
    0.7408   -0.2099    1.8273 H   0  0  0  0  0  0  0  0  0  0  0  0
    2.0274   -1.2403   -0.4127 H   0  0  0  0  0  0  0  0  0  0  0  0
    1.8489    1.7630    0.0699 H   0  0  0  0  0  0  0  0  0  0  0  0
  1  2  1  0
  2  3  1  0
  3  4  1  0
  4  5  2  0
  4  6  1  0
  6  7  1  0
  7  8  1  0
  8  9  2  0
  6  2  1  0
  7  3  1  0
  1 10  1  0
  1 11  1  0
  1 12  1  0
  2 13  1  0
  3 14  1  0
  6 15  1  0
  7 16  1  0
  8 17  1  0
M  END
