
     RDKit          3D

 19 19  0  0  0  0  0  0  0  0999 V2000
   -1.8807   -0.9182    0.0264 C   0  0  0  0  0  0  0  0  0  0  0  0
   -0.5468   -0.4247   -0.4535 C   0  0  0  0  0  0  0  0  0  0  0  0
    0.5985   -1.3085   -0.0332 C   0  0  0  0  0  0  0  0  0  0  0  0
    1.7280   -0.3295    0.1969 C   0  0  0  0  0  0  0  0  0  0  0  0
    2.4858   -0.3039   -0.9742 O   0  0  0  0  0  0  0  0  0  0  0  0
    1.0335    0.9553    0.4407 C   0  0  0  0  0  0  0  0  0  0  0  0
   -0.2288    0.9012    0.0794 C   0  0  0  0  0  0  0  0  0  0  0  0
   -1.1428    2.0244    0.2090 C   0  0  0  0  0  0  0  0  0  0  0  0
   -0.7896    3.1376    0.6798 O   0  0  0  0  0  0  0  0  0  0  0  0
   -2.2517   -1.6901   -0.6720 H   0  0  0  0  0  0  0  0  0  0  0  0
   -2.5744   -0.0814    0.0881 H   0  0  0  0  0  0  0  0  0  0  0  0
   -1.8265   -1.3736    1.0452 H   0  0  0  0  0  0  0  0  0  0  0  0
   -0.5927   -0.3592   -1.5610 H   0  0  0  0  0  0  0  0  0  0  0  0
    0.4192   -1.8279    0.9213 H   0  0  0  0  0  0  0  0  0  0  0  0
    0.8308   -2.0378   -0.8299 H   0  0  0  0  0  0  0  0  0  0  0  0
    2.3465   -0.6032    1.0887 H   0  0  0  0  0  0  0  0  0  0  0  0
    3.0822    0.4941   -1.0010 H   0  0  0  0  0  0  0  0  0  0  0  0
    1.4980    1.8303    0.8615 H   0  0  0  0  0  0  0  0  0  0  0  0
   -2.1884    1.9151   -0.1120 H   0  0  0  0  0  0  0  0  0  0  0  0
  1  2  1  0
  2  3  1  0
  3  4  1  0
  4  5  1  0
  4  6  1  0
  6  7  2  0
  7  8  1  0
  8  9  2  0
  7  2  1  0
  1 10  1  0
  1 11  1  0
  1 12  1  0
  2 13  1  0
  3 14  1  0
  3 15  1  0
  4 16  1  0
  5 17  1  0
  6 18  1  0
  8 19  1  0
M  END
