
     RDKit          3D

 23 23  0  0  0  0  0  0  0  0999 V2000
   -1.8700    1.3383    0.4760 C   0  0  0  0  0  0  0  0  0  0  0  0
   -1.2227    0.2901   -0.3708 C   0  0  0  0  0  0  0  0  0  0  0  0
   -2.0327   -0.9453   -0.5600 C   0  0  0  0  0  0  0  0  0  0  0  0
   -1.3747   -1.9972    0.0197 O   0  0  0  0  0  0  0  0  0  0  0  0
   -0.0194   -1.6698    0.0905 C   0  0  0  0  0  0  0  0  0  0  0  0
    0.0643   -0.1832    0.2603 C   0  0  0  0  0  0  0  0  0  0  0  0
    1.2019    0.4350   -0.5096 C   0  0  0  0  0  0  0  0  0  0  0  0
    2.5541    0.0394    0.0231 C   0  0  0  0  0  0  0  0  0  0  0  0
    2.6671    0.4473    1.3451 O   0  0  0  0  0  0  0  0  0  0  0  0
   -1.0329    1.9174    0.9658 H   0  0  0  0  0  0  0  0  0  0  0  0
   -2.4192    2.1071   -0.1299 H   0  0  0  0  0  0  0  0  0  0  0  0
   -2.4738    0.9360    1.3011 H   0  0  0  0  0  0  0  0  0  0  0  0
   -1.0378    0.7464   -1.3838 H   0  0  0  0  0  0  0  0  0  0  0  0
   -3.0459   -0.7773   -0.1299 H   0  0  0  0  0  0  0  0  0  0  0  0
   -2.1679   -1.1870   -1.6443 H   0  0  0  0  0  0  0  0  0  0  0  0
    0.3735   -2.2144    0.9892 H   0  0  0  0  0  0  0  0  0  0  0  0
    0.5082   -2.0543   -0.7857 H   0  0  0  0  0  0  0  0  0  0  0  0
    0.1598    0.0791    1.3176 H   0  0  0  0  0  0  0  0  0  0  0  0
    1.1147    0.2900   -1.5962 H   0  0  0  0  0  0  0  0  0  0  0  0
    1.1151    1.5483   -0.3463 H   0  0  0  0  0  0  0  0  0  0  0  0
    3.3114    0.5049   -0.6411 H   0  0  0  0  0  0  0  0  0  0  0  0
    2.6641   -1.0513   -0.0075 H   0  0  0  0  0  0  0  0  0  0  0  0
    2.9628    1.4005    1.3165 H   0  0  0  0  0  0  0  0  0  0  0  0
  1  2  1  0
  2  3  1  0
  3  4  1  0
  4  5  1  0
  5  6  1  0
  6  7  1  0
  7  8  1  0
  8  9  1  0
  6  2  1  0
  1 10  1  0
  1 11  1  0
  1 12  1  0
  2 13  1  0
  3 14  1  0
  3 15  1  0
  5 16  1  0
  5 17  1  0
  6 18  1  0
  7 19  1  0
  7 20  1  0
  8 21  1  0
  8 22  1  0
  9 23  1  0
M  END
