
     RDKit          3D

 21 21  0  0  0  0  0  0  0  0999 V2000
    2.6723    0.3000    0.7147 C   0  0  0  0  0  0  0  0  0  0  0  0
    1.7881   -0.2610   -0.3562 C   0  0  0  0  0  0  0  0  0  0  0  0
    0.5637   -0.9419    0.2701 C   0  0  0  0  0  0  0  0  0  0  0  0
   -0.2567   -0.3131   -0.8364 C   0  0  0  0  0  0  0  0  0  0  0  0
   -1.5326    0.2758   -0.4230 C   0  0  0  0  0  0  0  0  0  0  0  0
   -1.7218    1.4724   -0.6190 O   0  0  0  0  0  0  0  0  0  0  0  0
   -2.6317   -0.4873    0.2277 C   0  0  0  0  0  0  0  0  0  0  0  0
   -3.7189    0.3184    0.5097 O   0  0  0  0  0  0  0  0  0  0  0  0
    0.8249    0.7388   -0.9552 C   0  0  0  0  0  0  0  0  0  0  0  0
    3.1392   -0.5677    1.2567 H   0  0  0  0  0  0  0  0  0  0  0  0
    3.4774    0.9329    0.3073 H   0  0  0  0  0  0  0  0  0  0  0  0
    2.0440    0.8703    1.4185 H   0  0  0  0  0  0  0  0  0  0  0  0
    2.3452   -0.8802   -1.0588 H   0  0  0  0  0  0  0  0  0  0  0  0
    0.3197   -0.6045    1.2799 H   0  0  0  0  0  0  0  0  0  0  0  0
    0.6723   -2.0366    0.1283 H   0  0  0  0  0  0  0  0  0  0  0  0
   -0.3184   -0.9301   -1.7429 H   0  0  0  0  0  0  0  0  0  0  0  0
   -2.9215   -1.3824   -0.3847 H   0  0  0  0  0  0  0  0  0  0  0  0
   -2.2244   -0.8678    1.1909 H   0  0  0  0  0  0  0  0  0  0  0  0
   -4.2588    0.0099    1.2762 H   0  0  0  0  0  0  0  0  0  0  0  0
    1.0618    1.0813   -1.9644 H   0  0  0  0  0  0  0  0  0  0  0  0
    0.6760    1.5752   -0.2392 H   0  0  0  0  0  0  0  0  0  0  0  0
  1  2  1  0
  2  3  1  0
  3  4  1  0
  4  5  1  0
  5  6  2  0
  5  7  1  0
  7  8  1  0
  4  9  1  0
  9  2  1  0
  1 10  1  0
  1 11  1  0
  1 12  1  0
  2 13  1  0
  3 14  1  0
  3 15  1  0
  4 16  1  0
  7 17  1  0
  7 18  1  0
  8 19  1  0
  9 20  1  0
  9 21  1  0
M  END
