
     RDKit          3D

 21 22  0  0  0  0  0  0  0  0999 V2000
    2.9350   -0.7961   -0.2182 C   0  0  0  0  0  0  0  0  0  0  0  0
    1.6651   -0.3831    0.5053 C   0  0  0  0  0  0  0  0  0  0  0  0
    1.5031    1.0953    0.6976 C   0  0  0  0  0  0  0  0  0  0  0  0
    0.5833    0.3152   -0.2377 C   0  0  0  0  0  0  0  0  0  0  0  0
   -0.8149    0.1718    0.2485 C   0  0  0  0  0  0  0  0  0  0  0  0
   -1.7953    0.9215   -0.5841 C   0  0  0  0  0  0  0  0  0  0  0  0
   -2.9447    0.2625   -0.4975 C   0  0  0  0  0  0  0  0  0  0  0  0
   -2.6708   -0.9074    0.3983 C   0  0  0  0  0  0  0  0  0  0  0  0
   -1.3061   -1.1428    0.1034 O   0  0  0  0  0  0  0  0  0  0  0  0
    2.8383   -1.8490   -0.6107 H   0  0  0  0  0  0  0  0  0  0  0  0
    3.1392   -0.0716   -1.0352 H   0  0  0  0  0  0  0  0  0  0  0  0
    3.7801   -0.7468    0.4910 H   0  0  0  0  0  0  0  0  0  0  0  0
    1.3256   -1.0726    1.3105 H   0  0  0  0  0  0  0  0  0  0  0  0
    1.1267    1.4042    1.6810 H   0  0  0  0  0  0  0  0  0  0  0  0
    2.2594    1.7682    0.2287 H   0  0  0  0  0  0  0  0  0  0  0  0
    0.7460    0.4962   -1.3260 H   0  0  0  0  0  0  0  0  0  0  0  0
   -0.8934    0.4658    1.3144 H   0  0  0  0  0  0  0  0  0  0  0  0
   -1.6218    1.8366   -1.1608 H   0  0  0  0  0  0  0  0  0  0  0  0
   -3.8606    0.5576   -0.9950 H   0  0  0  0  0  0  0  0  0  0  0  0
   -2.6945   -0.5584    1.4500 H   0  0  0  0  0  0  0  0  0  0  0  0
   -3.2996   -1.7670    0.1866 H   0  0  0  0  0  0  0  0  0  0  0  0
  1  2  1  0
  2  3  1  0
  3  4  1  0
  4  5  1  0
  5  6  1  0
  6  7  2  0
  7  8  1  0
  8  9  1  0
  4  2  1  0
  9  5  1  0
  1 10  1  0
  1 11  1  0
  1 12  1  0
  2 13  1  0
  3 14  1  0
  3 15  1  0
  4 16  1  0
  5 17  1  0
  6 18  1  0
  7 19  1  0
  8 20  1  0
  8 21  1  0
M  END
