
     RDKit          3D

 21 23  0  0  0  0  0  0  0  0999 V2000
    2.4392   -0.3336   -0.4772 C   0  0  0  0  0  0  0  0  0  0  0  0
    0.9823   -0.6020   -0.3261 C   0  0  0  0  0  0  0  0  0  0  0  0
    0.3266   -0.0386    0.9192 C   0  0  0  0  0  0  0  0  0  0  0  0
    0.5888    1.3129    0.2994 C   0  0  0  0  0  0  0  0  0  0  0  0
    0.0471    0.4705   -0.8432 C   0  0  0  0  0  0  0  0  0  0  0  0
   -0.9085   -0.0456    0.1301 C   0  0  0  0  0  0  0  0  0  0  0  0
   -2.1022    0.6719    0.5315 C   0  0  0  0  0  0  0  0  0  0  0  0
   -2.8203   -0.5427    0.3821 O   0  0  0  0  0  0  0  0  0  0  0  0
   -1.6865   -1.2518   -0.0874 C   0  0  0  0  0  0  0  0  0  0  0  0
    2.6786    0.4782   -1.1926 H   0  0  0  0  0  0  0  0  0  0  0  0
    2.9496   -0.1676    0.5135 H   0  0  0  0  0  0  0  0  0  0  0  0
    2.9170   -1.2568   -0.8977 H   0  0  0  0  0  0  0  0  0  0  0  0
    0.6646   -1.6316   -0.5741 H   0  0  0  0  0  0  0  0  0  0  0  0
    0.5206   -0.3126    1.8617 H   0  0  0  0  0  0  0  0  0  0  0  0
    1.6311    1.6212    0.2176 H   0  0  0  0  0  0  0  0  0  0  0  0
   -0.1087    2.1107    0.6193 H   0  0  0  0  0  0  0  0  0  0  0  0
   -0.0425    0.7676   -1.7939 H   0  0  0  0  0  0  0  0  0  0  0  0
   -2.5515    1.3839   -0.2228 H   0  0  0  0  0  0  0  0  0  0  0  0
   -2.1781    1.0649    1.5686 H   0  0  0  0  0  0  0  0  0  0  0  0
   -1.4559   -2.1481    0.5158 H   0  0  0  0  0  0  0  0  0  0  0  0
   -1.8913   -1.5508   -1.1439 H   0  0  0  0  0  0  0  0  0  0  0  0
  1  2  1  0
  2  3  1  0
  3  4  1  0
  4  5  1  0
  5  6  1  0
  6  7  1  0
  7  8  1  0
  8  9  1  0
  5  2  1  0
  9  6  1  0
  6  3  1  0
  1 10  1  0
  1 11  1  0
  1 12  1  0
  2 13  1  0
  3 14  1  0
  4 15  1  0
  4 16  1  0
  5 17  1  0
  7 18  1  0
  7 19  1  0
  9 20  1  0
  9 21  1  0
M  END
