
     RDKit          3D

 19 19  0  0  0  0  0  0  0  0999 V2000
   -1.5491   -1.4506   -0.3033 C   0  0  0  0  0  0  0  0  0  0  0  0
   -1.1382   -0.1878    0.3923 C   0  0  0  0  0  0  0  0  0  0  0  0
   -0.8457    0.9981   -0.4874 C   0  0  0  0  0  0  0  0  0  0  0  0
   -1.2970    2.2212    0.0186 O   0  0  0  0  0  0  0  0  0  0  0  0
    0.2764    0.3240    0.2068 C   0  0  0  0  0  0  0  0  0  0  0  0
    0.8802    1.0362    1.2382 O   0  0  0  0  0  0  0  0  0  0  0  0
    1.1977   -0.6068   -0.5529 C   0  0  0  0  0  0  0  0  0  0  0  0
    2.5366    0.0382   -0.6471 C   0  0  0  0  0  0  0  0  0  0  0  0
    3.4732   -0.5097   -1.2178 O   0  0  0  0  0  0  0  0  0  0  0  0
   -2.1583   -1.2110   -1.2160 H   0  0  0  0  0  0  0  0  0  0  0  0
   -2.1528   -2.1299    0.3121 H   0  0  0  0  0  0  0  0  0  0  0  0
   -0.6849   -2.0436   -0.6774 H   0  0  0  0  0  0  0  0  0  0  0  0
   -1.5632   -0.0121    1.3961 H   0  0  0  0  0  0  0  0  0  0  0  0
   -0.9371    0.9164   -1.5855 H   0  0  0  0  0  0  0  0  0  0  0  0
   -2.1119    2.0664    0.5631 H   0  0  0  0  0  0  0  0  0  0  0  0
    1.1989    1.8952    0.8180 H   0  0  0  0  0  0  0  0  0  0  0  0
    0.8042   -0.8677   -1.5526 H   0  0  0  0  0  0  0  0  0  0  0  0
    1.3338   -1.5019    0.1038 H   0  0  0  0  0  0  0  0  0  0  0  0
    2.7372    1.0252   -0.2114 H   0  0  0  0  0  0  0  0  0  0  0  0
  1  2  1  0
  2  3  1  0
  3  4  1  0
  3  5  1  0
  5  6  1  0
  5  7  1  0
  7  8  1  0
  8  9  2  0
  5  2  1  0
  1 10  1  0
  1 11  1  0
  1 12  1  0
  2 13  1  0
  3 14  1  0
  4 15  1  0
  6 16  1  0
  7 17  1  0
  7 18  1  0
  8 19  1  0
M  END
