
     RDKit          3D

 23 24  0  0  0  0  0  0  0  0999 V2000
    2.2158    0.5470    0.6988 C   0  0  0  0  0  0  0  0  0  0  0  0
    1.6604   -0.0864   -0.5355 C   0  0  0  0  0  0  0  0  0  0  0  0
    1.0564   -1.4608   -0.3761 C   0  0  0  0  0  0  0  0  0  0  0  0
    0.2475   -0.2182   -0.8317 C   0  0  0  0  0  0  0  0  0  0  0  0
   -0.1439   -0.2432   -2.1915 O   0  0  0  0  0  0  0  0  0  0  0  0
   -0.8620    0.1431    0.0943 C   0  0  0  0  0  0  0  0  0  0  0  0
   -0.9283    1.5847    0.5473 C   0  0  0  0  0  0  0  0  0  0  0  0
   -2.2268   -0.4256   -0.3273 C   0  0  0  0  0  0  0  0  0  0  0  0
   -1.5746   -0.8549    0.9201 C   0  0  0  0  0  0  0  0  0  0  0  0
    1.6684    0.2270    1.6226 H   0  0  0  0  0  0  0  0  0  0  0  0
    2.3326    1.6441    0.6322 H   0  0  0  0  0  0  0  0  0  0  0  0
    3.2643    0.1522    0.8468 H   0  0  0  0  0  0  0  0  0  0  0  0
    2.3536   -0.0232   -1.4183 H   0  0  0  0  0  0  0  0  0  0  0  0
    0.9086   -1.8021    0.6531 H   0  0  0  0  0  0  0  0  0  0  0  0
    1.2276   -2.2295   -1.1623 H   0  0  0  0  0  0  0  0  0  0  0  0
    0.3129    0.5241   -2.6156 H   0  0  0  0  0  0  0  0  0  0  0  0
   -1.1529    1.6048    1.6428 H   0  0  0  0  0  0  0  0  0  0  0  0
    0.0000    2.1428    0.3688 H   0  0  0  0  0  0  0  0  0  0  0  0
   -1.7816    2.0736    0.0531 H   0  0  0  0  0  0  0  0  0  0  0  0
   -3.0910    0.2597   -0.3450 H   0  0  0  0  0  0  0  0  0  0  0  0
   -2.2479   -1.1687   -1.1452 H   0  0  0  0  0  0  0  0  0  0  0  0
   -2.0279   -0.4854    1.8639 H   0  0  0  0  0  0  0  0  0  0  0  0
   -1.2112   -1.9051    1.0046 H   0  0  0  0  0  0  0  0  0  0  0  0
  1  2  1  0
  2  3  1  0
  3  4  1  0
  4  5  1  0
  4  6  1  0
  6  7  1  0
  6  8  1  0
  8  9  1  0
  4  2  1  0
  9  6  1  0
  1 10  1  0
  1 11  1  0
  1 12  1  0
  2 13  1  0
  3 14  1  0
  3 15  1  0
  5 16  1  0
  7 17  1  0
  7 18  1  0
  7 19  1  0
  8 20  1  0
  8 21  1  0
  9 22  1  0
  9 23  1  0
M  END
