
     RDKit          3D

 23 25  0  0  0  0  0  0  0  0999 V2000
    1.8483    1.2401   -0.1752 C   0  0  0  0  0  0  0  0  0  0  0  0
    1.5681   -0.2036    0.1079 C   0  0  0  0  0  0  0  0  0  0  0  0
    0.8833   -0.9761   -0.9703 C   0  0  0  0  0  0  0  0  0  0  0  0
    0.2635   -1.7846    0.1808 C   0  0  0  0  0  0  0  0  0  0  0  0
    0.2390   -0.4005    0.8531 C   0  0  0  0  0  0  0  0  0  0  0  0
   -0.7620    0.2812    0.0189 C   0  0  0  0  0  0  0  0  0  0  0  0
   -1.6473    1.3400    0.3475 C   0  0  0  0  0  0  0  0  0  0  0  0
   -2.2217   -0.0422    0.3518 C   0  0  0  0  0  0  0  0  0  0  0  0
   -0.2973   -0.1002   -1.3784 C   0  0  0  0  0  0  0  0  0  0  0  0
    2.2777    1.6854    0.7463 H   0  0  0  0  0  0  0  0  0  0  0  0
    2.5800    1.3786   -0.9746 H   0  0  0  0  0  0  0  0  0  0  0  0
    0.8983    1.7779   -0.3796 H   0  0  0  0  0  0  0  0  0  0  0  0
    2.3957   -0.7435    0.5851 H   0  0  0  0  0  0  0  0  0  0  0  0
    1.4189   -1.4977   -1.7104 H   0  0  0  0  0  0  0  0  0  0  0  0
   -0.7678   -2.0976   -0.0030 H   0  0  0  0  0  0  0  0  0  0  0  0
    0.9333   -2.4923    0.6593 H   0  0  0  0  0  0  0  0  0  0  0  0
    0.2517   -0.3663    1.9079 H   0  0  0  0  0  0  0  0  0  0  0  0
   -2.0356    2.0031   -0.4558 H   0  0  0  0  0  0  0  0  0  0  0  0
   -1.5347    1.8738    1.3132 H   0  0  0  0  0  0  0  0  0  0  0  0
   -2.4341   -0.5683    1.2942 H   0  0  0  0  0  0  0  0  0  0  0  0
   -2.8405   -0.3853   -0.4987 H   0  0  0  0  0  0  0  0  0  0  0  0
   -1.0457   -0.6993   -1.9017 H   0  0  0  0  0  0  0  0  0  0  0  0
    0.0288    0.7776   -1.9591 H   0  0  0  0  0  0  0  0  0  0  0  0
  1  2  1  0
  2  3  1  0
  3  4  1  0
  4  5  1  0
  5  6  1  0
  6  7  1  0
  7  8  1  0
  6  9  1  0
  5  2  1  0
  8  6  1  0
  9  3  1  0
  1 10  1  0
  1 11  1  0
  1 12  1  0
  2 13  1  0
  3 14  1  0
  4 15  1  0
  4 16  1  0
  5 17  1  0
  7 18  1  0
  7 19  1  0
  8 20  1  0
  8 21  1  0
  9 22  1  0
  9 23  1  0
M  END
