
     RDKit          3D

 19 19  0  0  0  0  0  0  0  0999 V2000
    2.3700    0.4845    0.1693 C   0  0  0  0  0  0  0  0  0  0  0  0
    1.2642   -0.1781   -0.6381 C   0  0  0  0  0  0  0  0  0  0  0  0
    0.0086    0.6670   -0.5852 C   0  0  0  0  0  0  0  0  0  0  0  0
   -0.4885   -0.2621    0.5149 C   0  0  0  0  0  0  0  0  0  0  0  0
   -1.9045   -0.5901    0.2786 C   0  0  0  0  0  0  0  0  0  0  0  0
   -2.3404   -1.7564    0.1021 O   0  0  0  0  0  0  0  0  0  0  0  0
   -2.8672    0.4955    0.2455 C   0  0  0  0  0  0  0  0  0  0  0  0
   -2.5015    1.6860    0.4143 O   0  0  0  0  0  0  0  0  0  0  0  0
    0.5200   -1.2689    0.0721 C   0  0  0  0  0  0  0  0  0  0  0  0
    1.9036    0.9637    1.0599 H   0  0  0  0  0  0  0  0  0  0  0  0
    2.7270    1.3443   -0.4690 H   0  0  0  0  0  0  0  0  0  0  0  0
    3.1787   -0.2116    0.4128 H   0  0  0  0  0  0  0  0  0  0  0  0
    1.5334   -0.3825   -1.6910 H   0  0  0  0  0  0  0  0  0  0  0  0
    0.1566    1.7083   -0.2301 H   0  0  0  0  0  0  0  0  0  0  0  0
   -0.5848    0.6175   -1.5194 H   0  0  0  0  0  0  0  0  0  0  0  0
   -0.2930    0.1559    1.5240 H   0  0  0  0  0  0  0  0  0  0  0  0
   -3.9143    0.3249    0.0778 H   0  0  0  0  0  0  0  0  0  0  0  0
    1.0785   -1.7611    0.9008 H   0  0  0  0  0  0  0  0  0  0  0  0
    0.1536   -2.0368   -0.6394 H   0  0  0  0  0  0  0  0  0  0  0  0
  1  2  1  0
  2  3  1  0
  3  4  1  0
  4  5  1  0
  5  6  2  0
  5  7  1  0
  7  8  2  0
  4  9  1  0
  9  2  1  0
  1 10  1  0
  1 11  1  0
  1 12  1  0
  2 13  1  0
  3 14  1  0
  3 15  1  0
  4 16  1  0
  7 17  1  0
  9 18  1  0
  9 19  1  0
M  END
