
     RDKit          3D

 21 21  0  0  0  0  0  0  0  0999 V2000
   -2.8308    0.7303    0.0866 C   0  0  0  0  0  0  0  0  0  0  0  0
   -1.5932   -0.1147   -0.0726 C   0  0  0  0  0  0  0  0  0  0  0  0
   -1.3762   -1.3325    0.7198 C   0  0  0  0  0  0  0  0  0  0  0  0
   -0.6880   -0.0829    1.1493 C   0  0  0  0  0  0  0  0  0  0  0  0
    0.7478    0.1296    0.8187 C   0  0  0  0  0  0  0  0  0  0  0  0
    1.4064    0.7991    1.6100 O   0  0  0  0  0  0  0  0  0  0  0  0
    1.3923   -0.4172   -0.3876 C   0  0  0  0  0  0  0  0  0  0  0  0
    2.8497   -0.0075   -0.3842 C   0  0  0  0  0  0  0  0  0  0  0  0
    2.8473    1.4076   -0.3868 O   0  0  0  0  0  0  0  0  0  0  0  0
   -3.6368    0.2383    0.6302 H   0  0  0  0  0  0  0  0  0  0  0  0
   -3.2325    1.0850   -0.8934 H   0  0  0  0  0  0  0  0  0  0  0  0
   -2.5174    1.6597    0.6258 H   0  0  0  0  0  0  0  0  0  0  0  0
   -1.1633   -0.0757   -1.0859 H   0  0  0  0  0  0  0  0  0  0  0  0
   -2.1127   -1.7712    1.3876 H   0  0  0  0  0  0  0  0  0  0  0  0
   -0.6789   -2.0976    0.2768 H   0  0  0  0  0  0  0  0  0  0  0  0
   -1.0511    0.3694    2.0711 H   0  0  0  0  0  0  0  0  0  0  0  0
    0.8581   -0.0243   -1.2743 H   0  0  0  0  0  0  0  0  0  0  0  0
    1.2841   -1.5337   -0.3624 H   0  0  0  0  0  0  0  0  0  0  0  0
    3.3748   -0.3764   -1.2649 H   0  0  0  0  0  0  0  0  0  0  0  0
    3.3488   -0.2895    0.5635 H   0  0  0  0  0  0  0  0  0  0  0  0
    2.7713    1.7042   -1.3372 H   0  0  0  0  0  0  0  0  0  0  0  0
  1  2  1  0
  2  3  1  0
  3  4  1  0
  4  5  1  0
  5  6  2  0
  5  7  1  0
  7  8  1  0
  8  9  1  0
  4  2  1  0
  1 10  1  0
  1 11  1  0
  1 12  1  0
  2 13  1  0
  3 14  1  0
  3 15  1  0
  4 16  1  0
  7 17  1  0
  7 18  1  0
  8 19  1  0
  8 20  1  0
  9 21  1  0
M  END
