
     RDKit          3D

 19 20  0  0  0  0  0  0  0  0999 V2000
   -2.1778   -1.0476   -0.3577 C   0  0  0  0  0  0  0  0  0  0  0  0
   -1.0013   -0.3747    0.2588 C   0  0  0  0  0  0  0  0  0  0  0  0
   -0.8137    1.1005   -0.1853 C   0  0  0  0  0  0  0  0  0  0  0  0
   -1.4021    2.0031    0.6979 O   0  0  0  0  0  0  0  0  0  0  0  0
    0.6337    0.8437    0.0747 C   0  0  0  0  0  0  0  0  0  0  0  0
    1.9254    0.8207    0.3514 C   0  0  0  0  0  0  0  0  0  0  0  0
    2.4670   -0.5750    0.1726 C   0  0  0  0  0  0  0  0  0  0  0  0
    1.2887   -1.3439    0.2240 O   0  0  0  0  0  0  0  0  0  0  0  0
    0.3267   -0.5659   -0.3739 C   0  0  0  0  0  0  0  0  0  0  0  0
   -2.6163   -0.4966   -1.2228 H   0  0  0  0  0  0  0  0  0  0  0  0
   -1.8746   -2.0456   -0.7386 H   0  0  0  0  0  0  0  0  0  0  0  0
   -2.9691   -1.2195    0.4231 H   0  0  0  0  0  0  0  0  0  0  0  0
   -0.9951   -0.3618    1.3800 H   0  0  0  0  0  0  0  0  0  0  0  0
   -0.9891    1.2633   -1.2466 H   0  0  0  0  0  0  0  0  0  0  0  0
   -0.6568    2.5436    1.0737 H   0  0  0  0  0  0  0  0  0  0  0  0
    2.4865    1.6935    0.6593 H   0  0  0  0  0  0  0  0  0  0  0  0
    3.0355   -0.6996   -0.7506 H   0  0  0  0  0  0  0  0  0  0  0  0
    3.0857   -0.9024    1.0283 H   0  0  0  0  0  0  0  0  0  0  0  0
    0.2467   -0.6358   -1.4683 H   0  0  0  0  0  0  0  0  0  0  0  0
  1  2  1  0
  2  3  1  0
  3  4  1  0
  3  5  1  0
  5  6  2  0
  6  7  1  0
  7  8  1  0
  8  9  1  0
  9  2  1  0
  9  5  1  0
  1 10  1  0
  1 11  1  0
  1 12  1  0
  2 13  1  0
  3 14  1  0
  4 15  1  0
  6 16  1  0
  7 17  1  0
  7 18  1  0
  9 19  1  0
M  END
