
     RDKit          3D

 23 23  0  0  0  0  0  0  0  0999 V2000
    2.4588    0.0725    0.1349 C   0  0  0  0  0  0  0  0  0  0  0  0
    0.9937   -0.0611    0.3122 C   0  0  0  0  0  0  0  0  0  0  0  0
    0.2900    1.2655    0.5364 C   0  0  0  0  0  0  0  0  0  0  0  0
   -1.1474    0.7608    0.6157 C   0  0  0  0  0  0  0  0  0  0  0  0
   -2.0617    1.7542    0.3639 O   0  0  0  0  0  0  0  0  0  0  0  0
   -1.2029   -0.3789   -0.3761 C   0  0  0  0  0  0  0  0  0  0  0  0
   -1.5751   -1.6867    0.3331 C   0  0  0  0  0  0  0  0  0  0  0  0
    0.2415   -0.5731   -0.8621 C   0  0  0  0  0  0  0  0  0  0  0  0
    0.3871    0.2210   -1.9767 O   0  0  0  0  0  0  0  0  0  0  0  0
    2.7977    0.5182   -0.7963 H   0  0  0  0  0  0  0  0  0  0  0  0
    2.8543    0.6633    1.0024 H   0  0  0  0  0  0  0  0  0  0  0  0
    2.9213   -0.9264    0.2224 H   0  0  0  0  0  0  0  0  0  0  0  0
    0.7949   -0.6781    1.2039 H   0  0  0  0  0  0  0  0  0  0  0  0
    0.6136    1.7910    1.4257 H   0  0  0  0  0  0  0  0  0  0  0  0
    0.3667    1.8539   -0.4030 H   0  0  0  0  0  0  0  0  0  0  0  0
   -1.2917    0.4228    1.6594 H   0  0  0  0  0  0  0  0  0  0  0  0
   -2.1525    2.0274   -0.5628 H   0  0  0  0  0  0  0  0  0  0  0  0
   -1.8936   -0.2062   -1.1988 H   0  0  0  0  0  0  0  0  0  0  0  0
   -1.1282   -2.4939   -0.2780 H   0  0  0  0  0  0  0  0  0  0  0  0
   -2.6709   -1.7882    0.3514 H   0  0  0  0  0  0  0  0  0  0  0  0
   -1.1939   -1.7035    1.3605 H   0  0  0  0  0  0  0  0  0  0  0  0
    0.4316   -1.6510   -1.0784 H   0  0  0  0  0  0  0  0  0  0  0  0
    1.1668    0.7967   -1.9898 H   0  0  0  0  0  0  0  0  0  0  0  0
  1  2  1  0
  2  3  1  0
  3  4  1  0
  4  5  1  0
  4  6  1  0
  6  7  1  0
  6  8  1  0
  8  9  1  0
  8  2  1  0
  1 10  1  0
  1 11  1  0
  1 12  1  0
  2 13  1  0
  3 14  1  0
  3 15  1  0
  4 16  1  0
  5 17  1  0
  6 18  1  0
  7 19  1  0
  7 20  1  0
  7 21  1  0
  8 22  1  0
  9 23  1  0
M  END
