
     RDKit          3D

 17 18  0  0  0  0  0  0  0  0999 V2000
    2.0074    0.1111   -0.0732 C   0  0  0  0  0  0  0  0  0  0  0  0
    0.6330    0.5672    0.3501 C   0  0  0  0  0  0  0  0  0  0  0  0
   -0.0805    1.3242   -0.7399 C   0  0  0  0  0  0  0  0  0  0  0  0
    0.1900    2.1570   -1.5662 O   0  0  0  0  0  0  0  0  0  0  0  0
   -1.3205    0.5639   -0.3360 C   0  0  0  0  0  0  0  0  0  0  0  0
   -2.0593    1.3067    0.5553 O   0  0  0  0  0  0  0  0  0  0  0  0
   -0.4091   -0.4748    0.2313 C   0  0  0  0  0  0  0  0  0  0  0  0
   -0.3412   -1.7949   -0.1112 C   0  0  0  0  0  0  0  0  0  0  0  0
   -0.7711   -1.3123    1.2332 O   0  0  0  0  0  0  0  0  0  0  0  0
    2.4840   -0.4208    0.7533 H   0  0  0  0  0  0  0  0  0  0  0  0
    2.6223    0.9633   -0.4464 H   0  0  0  0  0  0  0  0  0  0  0  0
    1.8572   -0.5696   -0.9471 H   0  0  0  0  0  0  0  0  0  0  0  0
    0.6490    1.1968    1.2520 H   0  0  0  0  0  0  0  0  0  0  0  0
   -1.8824    0.1416   -1.2032 H   0  0  0  0  0  0  0  0  0  0  0  0
   -2.9907    0.9956    0.6265 H   0  0  0  0  0  0  0  0  0  0  0  0
    0.5791   -2.4157   -0.0528 H   0  0  0  0  0  0  0  0  0  0  0  0
   -1.1672   -2.3391   -0.6347 H   0  0  0  0  0  0  0  0  0  0  0  0
  1  2  1  0
  2  3  1  0
  3  4  2  0
  3  5  1  0
  5  6  1  0
  5  7  1  0
  7  8  1  0
  8  9  1  0
  7  2  1  0
  9  7  1  0
  1 10  1  0
  1 11  1  0
  1 12  1  0
  2 13  1  0
  5 14  1  0
  6 15  1  0
  8 16  1  0
  8 17  1  0
M  END
