
     RDKit          3D

 19 19  0  0  0  0  0  0  0  0999 V2000
   -2.0498   -0.2884    0.5687 C   0  0  0  0  0  0  0  0  0  0  0  0
   -1.0623   -0.4574   -0.5717 C   0  0  0  0  0  0  0  0  0  0  0  0
    0.0700   -1.2815   -0.1018 C   0  0  0  0  0  0  0  0  0  0  0  0
    1.1148   -0.5133    0.1261 C   0  0  0  0  0  0  0  0  0  0  0  0
    2.3988   -0.9799    0.5966 C   0  0  0  0  0  0  0  0  0  0  0  0
    3.3358   -0.1679    0.7845 O   0  0  0  0  0  0  0  0  0  0  0  0
    0.7893    0.9037   -0.1734 C   0  0  0  0  0  0  0  0  0  0  0  0
    0.6294    1.6802    0.9488 O   0  0  0  0  0  0  0  0  0  0  0  0
   -0.4586    0.8228   -1.0256 C   0  0  0  0  0  0  0  0  0  0  0  0
   -2.1745    0.7692    0.8689 H   0  0  0  0  0  0  0  0  0  0  0  0
   -1.7513   -0.8665    1.4692 H   0  0  0  0  0  0  0  0  0  0  0  0
   -3.0193   -0.6842    0.2400 H   0  0  0  0  0  0  0  0  0  0  0  0
   -1.5612   -0.9349   -1.4626 H   0  0  0  0  0  0  0  0  0  0  0  0
    0.0214   -2.3777    0.0303 H   0  0  0  0  0  0  0  0  0  0  0  0
    2.5600   -2.0164    0.7876 H   0  0  0  0  0  0  0  0  0  0  0  0
    1.6144    1.3444   -0.7962 H   0  0  0  0  0  0  0  0  0  0  0  0
    0.8025    2.6320    0.6649 H   0  0  0  0  0  0  0  0  0  0  0  0
   -1.1185    1.7100   -0.8720 H   0  0  0  0  0  0  0  0  0  0  0  0
   -0.1410    0.7060   -2.0822 H   0  0  0  0  0  0  0  0  0  0  0  0
  1  2  1  0
  2  3  1  0
  3  4  2  0
  4  5  1  0
  5  6  2  0
  4  7  1  0
  7  8  1  0
  7  9  1  0
  9  2  1  0
  1 10  1  0
  1 11  1  0
  1 12  1  0
  2 13  1  0
  3 14  1  0
  5 15  1  0
  7 16  1  0
  8 17  1  0
  9 18  1  0
  9 19  1  0
M  END
