
     RDKit          3D

 25 26  0  0  0  0  0  0  0  0999 V2000
   -3.7959    0.1809   -0.7384 C   0  0  0  0  0  0  0  0  0  0  0  0
   -2.5384    0.5361    0.0333 C   0  0  0  0  0  0  0  0  0  0  0  0
   -2.1284   -0.3462    1.1484 C   0  0  0  0  0  0  0  0  0  0  0  0
   -1.3265   -0.3781   -0.1495 C   0  0  0  0  0  0  0  0  0  0  0  0
   -0.0227    0.3848   -0.1912 C   0  0  0  0  0  0  0  0  0  0  0  0
    1.1673   -0.5285   -0.3721 C   0  0  0  0  0  0  0  0  0  0  0  0
    2.4024    0.3097   -0.4015 C   0  0  0  0  0  0  0  0  0  0  0  0
    3.7491   -0.2801   -0.5660 C   0  0  0  0  0  0  0  0  0  0  0  0
    3.3346    0.1393    0.7937 C   0  0  0  0  0  0  0  0  0  0  0  0
   -4.1524    1.0597   -1.3361 H   0  0  0  0  0  0  0  0  0  0  0  0
   -3.6046   -0.6966   -1.3791 H   0  0  0  0  0  0  0  0  0  0  0  0
   -4.6025   -0.0461   -0.0144 H   0  0  0  0  0  0  0  0  0  0  0  0
   -2.3860    1.6166    0.1498 H   0  0  0  0  0  0  0  0  0  0  0  0
   -1.6384    0.1187    2.0098 H   0  0  0  0  0  0  0  0  0  0  0  0
   -2.8055   -1.2282    1.3299 H   0  0  0  0  0  0  0  0  0  0  0  0
   -1.4435   -1.2897   -0.7567 H   0  0  0  0  0  0  0  0  0  0  0  0
   -0.0806    1.1291   -1.0108 H   0  0  0  0  0  0  0  0  0  0  0  0
    0.0834    0.9165    0.7644 H   0  0  0  0  0  0  0  0  0  0  0  0
    1.2319   -1.2418    0.4709 H   0  0  0  0  0  0  0  0  0  0  0  0
    1.0564   -1.1608   -1.2869 H   0  0  0  0  0  0  0  0  0  0  0  0
    2.2473    1.3766   -0.7345 H   0  0  0  0  0  0  0  0  0  0  0  0
    4.5205    0.3836   -1.0539 H   0  0  0  0  0  0  0  0  0  0  0  0
    3.8639   -1.3351   -0.8177 H   0  0  0  0  0  0  0  0  0  0  0  0
    3.7305    1.0579    1.2618 H   0  0  0  0  0  0  0  0  0  0  0  0
    3.1382   -0.6786    1.5044 H   0  0  0  0  0  0  0  0  0  0  0  0
  1  2  1  0
  2  3  1  0
  3  4  1  0
  4  5  1  0
  5  6  1  0
  6  7  1  0
  7  8  1  0
  8  9  1  0
  4  2  1  0
  9  7  1  0
  1 10  1  0
  1 11  1  0
  1 12  1  0
  2 13  1  0
  3 14  1  0
  3 15  1  0
  4 16  1  0
  5 17  1  0
  5 18  1  0
  6 19  1  0
  6 20  1  0
  7 21  1  0
  8 22  1  0
  8 23  1  0
  9 24  1  0
  9 25  1  0
M  END
