
     RDKit          3D

 21 23  0  0  0  0  0  0  0  0999 V2000
   -1.8004    0.8968   -0.8758 C   0  0  0  0  0  0  0  0  0  0  0  0
   -1.2071    0.4689    0.4251 C   0  0  0  0  0  0  0  0  0  0  0  0
   -1.4751   -0.9641    0.7797 C   0  0  0  0  0  0  0  0  0  0  0  0
   -0.2996   -1.6561    0.6872 O   0  0  0  0  0  0  0  0  0  0  0  0
    0.7460   -0.7894    0.9885 C   0  0  0  0  0  0  0  0  0  0  0  0
    1.8123   -0.8661   -0.0467 C   0  0  0  0  0  0  0  0  0  0  0  0
    2.5025    0.2939   -0.6090 C   0  0  0  0  0  0  0  0  0  0  0  0
    1.0334    0.2773   -0.7786 C   0  0  0  0  0  0  0  0  0  0  0  0
    0.2713    0.5756    0.4969 C   0  0  0  0  0  0  0  0  0  0  0  0
   -2.0309    0.0601   -1.5647 H   0  0  0  0  0  0  0  0  0  0  0  0
   -1.1935    1.6942   -1.3841 H   0  0  0  0  0  0  0  0  0  0  0  0
   -2.7841    1.4018   -0.6544 H   0  0  0  0  0  0  0  0  0  0  0  0
   -1.6351    1.0878    1.2664 H   0  0  0  0  0  0  0  0  0  0  0  0
   -1.8846   -1.1010    1.7994 H   0  0  0  0  0  0  0  0  0  0  0  0
   -2.2501   -1.3702    0.0713 H   0  0  0  0  0  0  0  0  0  0  0  0
    1.0685   -0.8071    2.0407 H   0  0  0  0  0  0  0  0  0  0  0  0
    1.8868   -1.8237   -0.5938 H   0  0  0  0  0  0  0  0  0  0  0  0
    2.8797    1.1374    0.0400 H   0  0  0  0  0  0  0  0  0  0  0  0
    3.1338    0.1344   -1.4843 H   0  0  0  0  0  0  0  0  0  0  0  0
    0.5226   -0.0486   -1.6763 H   0  0  0  0  0  0  0  0  0  0  0  0
    0.7034    1.3979    1.0726 H   0  0  0  0  0  0  0  0  0  0  0  0
  1  2  1  0
  2  3  1  0
  3  4  1  0
  4  5  1  0
  5  6  1  0
  6  7  1  0
  7  8  1  0
  8  9  1  0
  9  2  1  0
  9  5  1  0
  8  6  1  0
  1 10  1  0
  1 11  1  0
  1 12  1  0
  2 13  1  0
  3 14  1  0
  3 15  1  0
  5 16  1  0
  6 17  1  0
  7 18  1  0
  7 19  1  0
  8 20  1  0
  9 21  1  0
M  END
