
     RDKit          3D

 19 21  0  0  0  0  0  0  0  0999 V2000
   -2.4468    0.2666    0.0884 C   0  0  0  0  0  0  0  0  0  0  0  0
   -1.1222   -0.3138    0.5294 C   0  0  0  0  0  0  0  0  0  0  0  0
   -0.6341   -1.2287   -0.5406 C   0  0  0  0  0  0  0  0  0  0  0  0
    0.1997   -2.2313   -0.5693 O   0  0  0  0  0  0  0  0  0  0  0  0
    0.8248   -1.2463    0.0180 C   0  0  0  0  0  0  0  0  0  0  0  0
    1.1181    0.1473   -0.3210 C   0  0  0  0  0  0  0  0  0  0  0  0
    2.5025    0.6384   -0.0080 C   0  0  0  0  0  0  0  0  0  0  0  0
    0.2834    1.0557   -0.8852 O   0  0  0  0  0  0  0  0  0  0  0  0
   -0.0694    0.8065    0.4032 C   0  0  0  0  0  0  0  0  0  0  0  0
   -2.3486    1.3426   -0.2166 H   0  0  0  0  0  0  0  0  0  0  0  0
   -3.2171    0.2325    0.8863 H   0  0  0  0  0  0  0  0  0  0  0  0
   -2.8276   -0.2488   -0.8343 H   0  0  0  0  0  0  0  0  0  0  0  0
   -1.1356   -0.7432    1.5270 H   0  0  0  0  0  0  0  0  0  0  0  0
   -0.7421   -0.7235   -1.5519 H   0  0  0  0  0  0  0  0  0  0  0  0
    0.9040   -1.4163    1.1404 H   0  0  0  0  0  0  0  0  0  0  0  0
    2.6860    1.6488   -0.4670 H   0  0  0  0  0  0  0  0  0  0  0  0
    2.7062    0.6153    1.0631 H   0  0  0  0  0  0  0  0  0  0  0  0
    3.2114   -0.0633   -0.4936 H   0  0  0  0  0  0  0  0  0  0  0  0
    0.1074    1.4614    1.2370 H   0  0  0  0  0  0  0  0  0  0  0  0
  1  2  1  0
  2  3  1  0
  3  4  1  0
  4  5  1  0
  5  6  1  0
  6  7  1  0
  6  8  1  0
  8  9  1  0
  9  2  1  0
  5  3  1  0
  9  6  1  0
  1 10  1  0
  1 11  1  0
  1 12  1  0
  2 13  1  0
  3 14  1  0
  5 15  1  0
  7 16  1  0
  7 17  1  0
  7 18  1  0
  9 19  1  0
M  END
