
     RDKit          3D

 19 21  0  0  0  0  0  0  0  0999 V2000
   -1.8923   -0.5676   -0.8216 C   0  0  0  0  0  0  0  0  0  0  0  0
   -0.7151   -0.4062    0.0913 C   0  0  0  0  0  0  0  0  0  0  0  0
   -0.3384    1.0127    0.3637 C   0  0  0  0  0  0  0  0  0  0  0  0
   -1.0132    1.6017    1.4012 O   0  0  0  0  0  0  0  0  0  0  0  0
    1.1638    0.9203    0.6138 C   0  0  0  0  0  0  0  0  0  0  0  0
    1.5269   -0.0673    1.5321 O   0  0  0  0  0  0  0  0  0  0  0  0
    1.6562   -1.0374    0.5659 C   0  0  0  0  0  0  0  0  0  0  0  0
    0.5417   -1.0543   -0.4774 C   0  0  0  0  0  0  0  0  0  0  0  0
    1.5643   -0.0246   -0.4806 C   0  0  0  0  0  0  0  0  0  0  0  0
   -1.7775   -0.0076   -1.7677 H   0  0  0  0  0  0  0  0  0  0  0  0
   -1.9699   -1.6421   -1.0851 H   0  0  0  0  0  0  0  0  0  0  0  0
   -2.7856   -0.2069   -0.2746 H   0  0  0  0  0  0  0  0  0  0  0  0
   -0.9309   -0.9106    1.0474 H   0  0  0  0  0  0  0  0  0  0  0  0
   -0.4359    1.5746   -0.6061 H   0  0  0  0  0  0  0  0  0  0  0  0
   -1.4287    2.4479    1.0385 H   0  0  0  0  0  0  0  0  0  0  0  0
    1.6961    1.8643    0.6708 H   0  0  0  0  0  0  0  0  0  0  0  0
    2.3856   -1.8303    0.6066 H   0  0  0  0  0  0  0  0  0  0  0  0
    0.4676   -1.8718   -1.1854 H   0  0  0  0  0  0  0  0  0  0  0  0
    2.2853    0.2051   -1.2328 H   0  0  0  0  0  0  0  0  0  0  0  0
  1  2  1  0
  2  3  1  0
  3  4  1  0
  3  5  1  0
  5  6  1  0
  6  7  1  0
  7  8  1  0
  8  9  1  0
  8  2  1  0
  9  5  1  0
  9  7  1  0
  1 10  1  0
  1 11  1  0
  1 12  1  0
  2 13  1  0
  3 14  1  0
  4 15  1  0
  5 16  1  0
  7 17  1  0
  8 18  1  0
  9 19  1  0
M  END
