
     RDKit          3D

 23 24  0  0  0  0  0  0  0  0999 V2000
   -1.7181   -1.2942    0.1570 C   0  0  0  0  0  0  0  0  0  0  0  0
   -1.3540    0.1549    0.1478 C   0  0  0  0  0  0  0  0  0  0  0  0
   -0.4443    0.6129   -0.9586 C   0  0  0  0  0  0  0  0  0  0  0  0
    0.6176   -0.3942   -1.3079 C   0  0  0  0  0  0  0  0  0  0  0  0
    1.5205   -0.7012   -0.1331 C   0  0  0  0  0  0  0  0  0  0  0  0
    0.8384   -0.4858    1.1763 C   0  0  0  0  0  0  0  0  0  0  0  0
   -0.2455    0.5520    1.1052 C   0  0  0  0  0  0  0  0  0  0  0  0
    0.0929    1.6290    0.0647 C   0  0  0  0  0  0  0  0  0  0  0  0
    1.4227    1.9059   -0.0335 O   0  0  0  0  0  0  0  0  0  0  0  0
   -2.4834   -1.4657   -0.6071 H   0  0  0  0  0  0  0  0  0  0  0  0
   -0.8839   -1.9880    0.0656 H   0  0  0  0  0  0  0  0  0  0  0  0
   -2.2133   -1.5006    1.1437 H   0  0  0  0  0  0  0  0  0  0  0  0
   -2.2278    0.7923    0.2556 H   0  0  0  0  0  0  0  0  0  0  0  0
   -0.9029    1.1115   -1.8077 H   0  0  0  0  0  0  0  0  0  0  0  0
    0.0917   -1.3465   -1.6077 H   0  0  0  0  0  0  0  0  0  0  0  0
    1.1952    0.0206   -2.1561 H   0  0  0  0  0  0  0  0  0  0  0  0
    2.5057   -0.1572   -0.2136 H   0  0  0  0  0  0  0  0  0  0  0  0
    1.8192   -1.7872   -0.2278 H   0  0  0  0  0  0  0  0  0  0  0  0
    1.5845   -0.1398    1.9098 H   0  0  0  0  0  0  0  0  0  0  0  0
    0.4398   -1.4597    1.5252 H   0  0  0  0  0  0  0  0  0  0  0  0
   -0.6118    0.9212    2.0544 H   0  0  0  0  0  0  0  0  0  0  0  0
   -0.6166    2.4482    0.1681 H   0  0  0  0  0  0  0  0  0  0  0  0
    1.5735    2.5716   -0.7202 H   0  0  0  0  0  0  0  0  0  0  0  0
  1  2  1  0
  2  3  1  0
  3  4  1  0
  4  5  1  0
  5  6  1  0
  6  7  1  0
  7  8  1  0
  8  9  1  0
  7  2  1  0
  8  3  1  0
  1 10  1  0
  1 11  1  0
  1 12  1  0
  2 13  1  0
  3 14  1  0
  4 15  1  0
  4 16  1  0
  5 17  1  0
  5 18  1  0
  6 19  1  0
  6 20  1  0
  7 21  1  0
  8 22  1  0
  9 23  1  0
M  END
