
     RDKit          3D

 15 15  0  0  0  0  0  0  0  0999 V2000
   -1.8180    0.4266    0.0619 C   0  0  0  0  0  0  0  0  0  0  0  0
   -0.4335    0.0850   -0.4278 C   0  0  0  0  0  0  0  0  0  0  0  0
    0.5592    1.1185   -0.1271 C   0  0  0  0  0  0  0  0  0  0  0  0
    1.7145    0.5352    0.1220 C   0  0  0  0  0  0  0  0  0  0  0  0
    1.5840   -0.9141    0.0099 C   0  0  0  0  0  0  0  0  0  0  0  0
    2.4688   -1.7612   -0.2247 O   0  0  0  0  0  0  0  0  0  0  0  0
    0.1317   -1.1416    0.2444 C   0  0  0  0  0  0  0  0  0  0  0  0
   -2.4166   -0.4631    0.3373 H   0  0  0  0  0  0  0  0  0  0  0  0
   -1.6919    1.1201    0.9187 H   0  0  0  0  0  0  0  0  0  0  0  0
   -2.3556    0.9320   -0.7661 H   0  0  0  0  0  0  0  0  0  0  0  0
   -0.4696   -0.0384   -1.5303 H   0  0  0  0  0  0  0  0  0  0  0  0
    0.3914    2.2033   -0.1068 H   0  0  0  0  0  0  0  0  0  0  0  0
    2.6493    1.0567    0.3778 H   0  0  0  0  0  0  0  0  0  0  0  0
   -0.2219   -2.0819   -0.2161 H   0  0  0  0  0  0  0  0  0  0  0  0
   -0.0918   -1.0771    1.3269 H   0  0  0  0  0  0  0  0  0  0  0  0
  1  2  1  0
  2  3  1  0
  3  4  2  0
  4  5  1  0
  5  6  2  0
  5  7  1  0
  7  2  1  0
  1  8  1  0
  1  9  1  0
  1 10  1  0
  2 11  1  0
  3 12  1  0
  4 13  1  0
  7 14  1  0
  7 15  1  0
M  END
