
     RDKit          3D

 19 19  0  0  0  0  0  0  0  0999 V2000
    2.0168    0.0599    0.6023 C   0  0  0  0  0  0  0  0  0  0  0  0
    1.1177    0.3221   -0.5754 C   0  0  0  0  0  0  0  0  0  0  0  0
    0.2457   -0.8589   -0.8681 C   0  0  0  0  0  0  0  0  0  0  0  0
   -0.6304   -1.2747    0.2581 C   0  0  0  0  0  0  0  0  0  0  0  0
   -1.8016   -0.4082    0.4687 C   0  0  0  0  0  0  0  0  0  0  0  0
   -1.9027    0.8969    0.2815 C   0  0  0  0  0  0  0  0  0  0  0  0
   -0.8913    1.8231   -0.1799 C   0  0  0  0  0  0  0  0  0  0  0  0
   -1.2128    3.0257   -0.3950 O   0  0  0  0  0  0  0  0  0  0  0  0
    0.4393    1.5246   -0.4203 O   0  0  0  0  0  0  0  0  0  0  0  0
    2.6495    0.9874    0.7340 H   0  0  0  0  0  0  0  0  0  0  0  0
    1.4585   -0.0819    1.5422 H   0  0  0  0  0  0  0  0  0  0  0  0
    2.7440   -0.7485    0.3899 H   0  0  0  0  0  0  0  0  0  0  0  0
    1.8004    0.4426   -1.4669 H   0  0  0  0  0  0  0  0  0  0  0  0
   -0.3329   -0.7039   -1.7895 H   0  0  0  0  0  0  0  0  0  0  0  0
    0.9415   -1.7204   -1.0833 H   0  0  0  0  0  0  0  0  0  0  0  0
   -1.0397   -2.2939    0.0032 H   0  0  0  0  0  0  0  0  0  0  0  0
   -0.0312   -1.4257    1.1732 H   0  0  0  0  0  0  0  0  0  0  0  0
   -2.7101   -0.8914    0.8249 H   0  0  0  0  0  0  0  0  0  0  0  0
   -2.8609    1.3252    0.5006 H   0  0  0  0  0  0  0  0  0  0  0  0
  1  2  1  0
  2  3  1  0
  3  4  1  0
  4  5  1  0
  5  6  2  0
  6  7  1  0
  7  8  2  0
  7  9  1  0
  9  2  1  0
  1 10  1  0
  1 11  1  0
  1 12  1  0
  2 13  1  0
  3 14  1  0
  3 15  1  0
  4 16  1  0
  4 17  1  0
  5 18  1  0
  6 19  1  0
M  END
