
     RDKit          3D

 21 21  0  0  0  0  0  0  0  0999 V2000
   -1.8664    0.9600   -0.7169 C   0  0  0  0  0  0  0  0  0  0  0  0
   -1.1539   -0.3361   -0.4283 C   0  0  0  0  0  0  0  0  0  0  0  0
   -1.3990   -0.7373    1.0292 C   0  0  0  0  0  0  0  0  0  0  0  0
   -0.2617    0.0068    1.4122 O   0  0  0  0  0  0  0  0  0  0  0  0
    0.2240   -0.2291    0.1068 C   0  0  0  0  0  0  0  0  0  0  0  0
    1.0010   -1.5114   -0.0194 C   0  0  0  0  0  0  0  0  0  0  0  0
    1.0129    0.9890   -0.3298 C   0  0  0  0  0  0  0  0  0  0  0  0
    2.3767    0.9887    0.2680 C   0  0  0  0  0  0  0  0  0  0  0  0
    2.7799    0.1031    1.0135 O   0  0  0  0  0  0  0  0  0  0  0  0
   -2.9724    0.8542   -0.6595 H   0  0  0  0  0  0  0  0  0  0  0  0
   -1.6031    1.3661   -1.7138 H   0  0  0  0  0  0  0  0  0  0  0  0
   -1.5845    1.6898    0.0771 H   0  0  0  0  0  0  0  0  0  0  0  0
   -1.4037   -1.1667   -1.0890 H   0  0  0  0  0  0  0  0  0  0  0  0
   -1.1609   -1.8169    1.2328 H   0  0  0  0  0  0  0  0  0  0  0  0
   -2.3414   -0.3900    1.4506 H   0  0  0  0  0  0  0  0  0  0  0  0
    0.3772   -2.3279   -0.4394 H   0  0  0  0  0  0  0  0  0  0  0  0
    1.8843   -1.3061   -0.6577 H   0  0  0  0  0  0  0  0  0  0  0  0
    1.3956   -1.7804    0.9939 H   0  0  0  0  0  0  0  0  0  0  0  0
    1.1702    0.9344   -1.4465 H   0  0  0  0  0  0  0  0  0  0  0  0
    0.4658    1.9091   -0.1295 H   0  0  0  0  0  0  0  0  0  0  0  0
    3.0595    1.8007    0.0456 H   0  0  0  0  0  0  0  0  0  0  0  0
  1  2  1  0
  2  3  1  0
  3  4  1  0
  4  5  1  0
  5  6  1  0
  5  7  1  0
  7  8  1  0
  8  9  2  0
  5  2  1  0
  1 10  1  0
  1 11  1  0
  1 12  1  0
  2 13  1  0
  3 14  1  0
  3 15  1  0
  6 16  1  0
  6 17  1  0
  6 18  1  0
  7 19  1  0
  7 20  1  0
  8 21  1  0
M  END
