
     RDKit          3D

 19 20  0  0  0  0  0  0  0  0999 V2000
   -2.3151   -0.4285   -0.0686 C   0  0  0  0  0  0  0  0  0  0  0  0
   -0.8851   -0.3240    0.4148 C   0  0  0  0  0  0  0  0  0  0  0  0
   -0.5907    1.1532    0.4989 C   0  0  0  0  0  0  0  0  0  0  0  0
    0.6250    1.5760    0.1520 C   0  0  0  0  0  0  0  0  0  0  0  0
    1.4618    0.7603   -0.7799 C   0  0  0  0  0  0  0  0  0  0  0  0
    2.2026   -0.2186    0.0552 C   0  0  0  0  0  0  0  0  0  0  0  0
    1.3618   -1.2071    0.3224 C   0  0  0  0  0  0  0  0  0  0  0  0
    0.1106   -0.9481   -0.4867 C   0  0  0  0  0  0  0  0  0  0  0  0
    0.5897   -0.0785   -1.4680 O   0  0  0  0  0  0  0  0  0  0  0  0
   -2.9528   -0.0911    0.7769 H   0  0  0  0  0  0  0  0  0  0  0  0
   -2.5751   -1.4457   -0.4072 H   0  0  0  0  0  0  0  0  0  0  0  0
   -2.4716    0.3286   -0.8760 H   0  0  0  0  0  0  0  0  0  0  0  0
   -0.8004   -0.7274    1.4295 H   0  0  0  0  0  0  0  0  0  0  0  0
   -1.3543    1.8622    0.8358 H   0  0  0  0  0  0  0  0  0  0  0  0
    0.9437    2.5121    0.5781 H   0  0  0  0  0  0  0  0  0  0  0  0
    2.0923    1.3611   -1.4306 H   0  0  0  0  0  0  0  0  0  0  0  0
    3.2259   -0.1059    0.3609 H   0  0  0  0  0  0  0  0  0  0  0  0
    1.5283   -2.0476    0.9923 H   0  0  0  0  0  0  0  0  0  0  0  0
   -0.1966   -1.9309   -0.8997 H   0  0  0  0  0  0  0  0  0  0  0  0
  1  2  1  0
  2  3  1  0
  3  4  2  0
  4  5  1  0
  5  6  1  0
  6  7  2  0
  7  8  1  0
  8  9  1  0
  8  2  1  0
  9  5  1  0
  1 10  1  0
  1 11  1  0
  1 12  1  0
  2 13  1  0
  3 14  1  0
  4 15  1  0
  5 16  1  0
  6 17  1  0
  7 18  1  0
  8 19  1  0
M  END
