
     RDKit          3D

 21 22  0  0  0  0  0  0  0  0999 V2000
    2.4953    0.0588   -0.5408 C   0  0  0  0  0  0  0  0  0  0  0  0
    1.4236   -0.2034    0.4976 C   0  0  0  0  0  0  0  0  0  0  0  0
    0.2333   -0.8901    0.0724 C   0  0  0  0  0  0  0  0  0  0  0  0
   -0.8772   -1.4352    0.8847 C   0  0  0  0  0  0  0  0  0  0  0  0
   -2.0356   -1.1690    0.1504 O   0  0  0  0  0  0  0  0  0  0  0  0
   -2.2379    0.1660   -0.0883 C   0  0  0  0  0  0  0  0  0  0  0  0
   -1.5395    0.7148   -1.1149 O   0  0  0  0  0  0  0  0  0  0  0  0
   -0.3210    1.2760   -0.7979 C   0  0  0  0  0  0  0  0  0  0  0  0
    0.2287    0.6176    0.4123 C   0  0  0  0  0  0  0  0  0  0  0  0
    1.9949    0.0559   -1.5295 H   0  0  0  0  0  0  0  0  0  0  0  0
    3.3221   -0.6803   -0.4905 H   0  0  0  0  0  0  0  0  0  0  0  0
    2.8538    1.0951   -0.3747 H   0  0  0  0  0  0  0  0  0  0  0  0
    1.8504   -0.4059    1.4940 H   0  0  0  0  0  0  0  0  0  0  0  0
    0.1704   -1.1924   -0.9931 H   0  0  0  0  0  0  0  0  0  0  0  0
   -0.7714   -2.5391    0.9480 H   0  0  0  0  0  0  0  0  0  0  0  0
   -0.9782   -1.0189    1.8983 H   0  0  0  0  0  0  0  0  0  0  0  0
   -3.3345    0.2582   -0.3599 H   0  0  0  0  0  0  0  0  0  0  0  0
   -2.1798    0.7585    0.8715 H   0  0  0  0  0  0  0  0  0  0  0  0
    0.3192    1.2037   -1.7010 H   0  0  0  0  0  0  0  0  0  0  0  0
   -0.4098    2.3744   -0.5886 H   0  0  0  0  0  0  0  0  0  0  0  0
   -0.2066    0.9554    1.3502 H   0  0  0  0  0  0  0  0  0  0  0  0
  1  2  1  0
  2  3  1  0
  3  4  1  0
  4  5  1  0
  5  6  1  0
  6  7  1  0
  7  8  1  0
  8  9  1  0
  9  2  1  0
  9  3  1  0
  1 10  1  0
  1 11  1  0
  1 12  1  0
  2 13  1  0
  3 14  1  0
  4 15  1  0
  4 16  1  0
  6 17  1  0
  6 18  1  0
  8 19  1  0
  8 20  1  0
  9 21  1  0
M  END
