
     RDKit          3D

 17 18  0  0  0  0  0  0  0  0999 V2000
   -2.1383   -0.5147    0.2188 C   0  0  0  0  0  0  0  0  0  0  0  0
   -0.9499    0.3212    0.5707 C   0  0  0  0  0  0  0  0  0  0  0  0
    0.2390   -0.4841    1.1034 C   0  0  0  0  0  0  0  0  0  0  0  0
    1.0537    0.0696   -0.0105 C   0  0  0  0  0  0  0  0  0  0  0  0
    2.3795    0.3735    0.0296 C   0  0  0  0  0  0  0  0  0  0  0  0
    1.8957   -0.7763   -0.7551 O   0  0  0  0  0  0  0  0  0  0  0  0
   -0.1065    0.7293   -0.6352 C   0  0  0  0  0  0  0  0  0  0  0  0
   -2.2978   -1.3364    0.9270 H   0  0  0  0  0  0  0  0  0  0  0  0
   -2.0167   -0.9248   -0.8216 H   0  0  0  0  0  0  0  0  0  0  0  0
   -3.0224    0.1801    0.1538 H   0  0  0  0  0  0  0  0  0  0  0  0
   -1.1457    1.1601    1.2634 H   0  0  0  0  0  0  0  0  0  0  0  0
    0.1122   -1.5954    0.9652 H   0  0  0  0  0  0  0  0  0  0  0  0
    0.5753   -0.1927    2.1090 H   0  0  0  0  0  0  0  0  0  0  0  0
    2.8996    1.0550   -0.6882 H   0  0  0  0  0  0  0  0  0  0  0  0
    3.0645   -0.0146    0.8105 H   0  0  0  0  0  0  0  0  0  0  0  0
   -0.0918    1.8006   -0.8165 H   0  0  0  0  0  0  0  0  0  0  0  0
   -0.4504    0.1497   -1.5376 H   0  0  0  0  0  0  0  0  0  0  0  0
  1  2  1  0
  2  3  1  0
  3  4  1  0
  4  5  1  0
  5  6  1  0
  4  7  1  0
  7  2  1  0
  6  4  1  0
  1  8  1  0
  1  9  1  0
  1 10  1  0
  2 11  1  0
  3 12  1  0
  3 13  1  0
  5 14  1  0
  5 15  1  0
  7 16  1  0
  7 17  1  0
M  END
