
     RDKit          3D

 19 19  0  0  0  0  0  0  0  0999 V2000
    1.8622   -0.1406    0.6063 C   0  0  0  0  0  0  0  0  0  0  0  0
    0.8300   -0.1625   -0.5273 C   0  0  0  0  0  0  0  0  0  0  0  0
   -0.1387   -1.2480   -0.2383 C   0  0  0  0  0  0  0  0  0  0  0  0
   -1.5701   -0.8321   -0.1253 C   0  0  0  0  0  0  0  0  0  0  0  0
   -1.6969    0.4233    0.6424 C   0  0  0  0  0  0  0  0  0  0  0  0
   -2.5618    0.6270    1.5325 O   0  0  0  0  0  0  0  0  0  0  0  0
   -0.7468    1.4845    0.3331 C   0  0  0  0  0  0  0  0  0  0  0  0
   -0.7276    2.6107    0.8872 O   0  0  0  0  0  0  0  0  0  0  0  0
    0.2632    1.1974   -0.7138 C   0  0  0  0  0  0  0  0  0  0  0  0
    2.1260   -1.2067    0.7761 H   0  0  0  0  0  0  0  0  0  0  0  0
    2.7525    0.4088    0.2973 H   0  0  0  0  0  0  0  0  0  0  0  0
    1.3816    0.3182    1.4935 H   0  0  0  0  0  0  0  0  0  0  0  0
    1.4285   -0.4077   -1.4462 H   0  0  0  0  0  0  0  0  0  0  0  0
   -0.0899   -2.0262   -1.0503 H   0  0  0  0  0  0  0  0  0  0  0  0
    0.1141   -1.8106    0.7079 H   0  0  0  0  0  0  0  0  0  0  0  0
   -2.1153   -1.6616    0.4082 H   0  0  0  0  0  0  0  0  0  0  0  0
   -1.9807   -0.7539   -1.1529 H   0  0  0  0  0  0  0  0  0  0  0  0
   -0.2257    1.2539   -1.7083 H   0  0  0  0  0  0  0  0  0  0  0  0
    1.0956    1.9261   -0.7221 H   0  0  0  0  0  0  0  0  0  0  0  0
  1  2  1  0
  2  3  1  0
  3  4  1  0
  4  5  1  0
  5  6  2  0
  5  7  1  0
  7  8  2  0
  7  9  1  0
  9  2  1  0
  1 10  1  0
  1 11  1  0
  1 12  1  0
  2 13  1  0
  3 14  1  0
  3 15  1  0
  4 16  1  0
  4 17  1  0
  9 18  1  0
  9 19  1  0
M  END
