
     RDKit          3D

 19 19  0  0  0  0  0  0  0  0999 V2000
    2.0664   -0.5297   -0.1677 C   0  0  0  0  0  0  0  0  0  0  0  0
    0.6212   -0.2636   -0.3382 C   0  0  0  0  0  0  0  0  0  0  0  0
    0.2829    1.2159   -0.4660 C   0  0  0  0  0  0  0  0  0  0  0  0
   -1.2203    1.3038   -0.1816 C   0  0  0  0  0  0  0  0  0  0  0  0
   -1.8879    0.1587   -0.5515 O   0  0  0  0  0  0  0  0  0  0  0  0
   -1.6241   -0.9402    0.2311 C   0  0  0  0  0  0  0  0  0  0  0  0
   -0.2251   -0.7686    0.8369 C   0  0  0  0  0  0  0  0  0  0  0  0
    2.4887   -0.9724   -1.1051 H   0  0  0  0  0  0  0  0  0  0  0  0
    2.1847   -1.2981    0.6409 H   0  0  0  0  0  0  0  0  0  0  0  0
    2.6724    0.3401    0.1369 H   0  0  0  0  0  0  0  0  0  0  0  0
    0.2544   -0.7319   -1.2874 H   0  0  0  0  0  0  0  0  0  0  0  0
    0.8296    1.8057    0.3071 H   0  0  0  0  0  0  0  0  0  0  0  0
    0.5433    1.6260   -1.4487 H   0  0  0  0  0  0  0  0  0  0  0  0
   -1.4155    1.6071    0.8687 H   0  0  0  0  0  0  0  0  0  0  0  0
   -1.5921    2.1298   -0.8159 H   0  0  0  0  0  0  0  0  0  0  0  0
   -1.5112   -1.8149   -0.4757 H   0  0  0  0  0  0  0  0  0  0  0  0
   -2.3771   -1.1776    0.9796 H   0  0  0  0  0  0  0  0  0  0  0  0
    0.1497   -1.7281    1.2264 H   0  0  0  0  0  0  0  0  0  0  0  0
   -0.2401    0.0379    1.6101 H   0  0  0  0  0  0  0  0  0  0  0  0
  1  2  1  0
  2  3  1  0
  3  4  1  0
  4  5  1  0
  5  6  1  0
  6  7  1  0
  7  2  1  0
  1  8  1  0
  1  9  1  0
  1 10  1  0
  2 11  1  0
  3 12  1  0
  3 13  1  0
  4 14  1  0
  4 15  1  0
  6 16  1  0
  6 17  1  0
  7 18  1  0
  7 19  1  0
M  END
