
     RDKit          3D

 23 23  0  0  0  0  0  0  0  0999 V2000
   -1.9625   -1.3435   -0.4299 C   0  0  0  0  0  0  0  0  0  0  0  0
   -0.8401   -0.3129   -0.5155 C   0  0  0  0  0  0  0  0  0  0  0  0
   -1.3460    1.0567   -0.1621 C   0  0  0  0  0  0  0  0  0  0  0  0
   -0.1889    2.0126   -0.1360 C   0  0  0  0  0  0  0  0  0  0  0  0
    1.0253    1.4365   -0.3618 O   0  0  0  0  0  0  0  0  0  0  0  0
    1.3274    0.3385    0.3913 C   0  0  0  0  0  0  0  0  0  0  0  0
    2.5464   -0.3151   -0.2760 C   0  0  0  0  0  0  0  0  0  0  0  0
    0.2518   -0.7062    0.4410 C   0  0  0  0  0  0  0  0  0  0  0  0
   -0.2774   -0.8357    1.7253 O   0  0  0  0  0  0  0  0  0  0  0  0
   -1.5783   -2.3185   -0.7609 H   0  0  0  0  0  0  0  0  0  0  0  0
   -2.7859   -0.9501   -1.0509 H   0  0  0  0  0  0  0  0  0  0  0  0
   -2.2342   -1.4436    0.6336 H   0  0  0  0  0  0  0  0  0  0  0  0
   -0.3954   -0.2676   -1.5244 H   0  0  0  0  0  0  0  0  0  0  0  0
   -2.1135    1.3233   -0.9339 H   0  0  0  0  0  0  0  0  0  0  0  0
   -1.9042    1.0561    0.8057 H   0  0  0  0  0  0  0  0  0  0  0  0
   -0.2539    2.6171    0.7883 H   0  0  0  0  0  0  0  0  0  0  0  0
   -0.3674    2.7487   -0.9753 H   0  0  0  0  0  0  0  0  0  0  0  0
    1.6616    0.5867    1.4203 H   0  0  0  0  0  0  0  0  0  0  0  0
    3.2711   -0.6795    0.4581 H   0  0  0  0  0  0  0  0  0  0  0  0
    3.0893    0.4246   -0.9160 H   0  0  0  0  0  0  0  0  0  0  0  0
    2.2304   -1.1657   -0.9272 H   0  0  0  0  0  0  0  0  0  0  0  0
    0.6126   -1.7168    0.1141 H   0  0  0  0  0  0  0  0  0  0  0  0
    0.2315   -1.5458    2.1925 H   0  0  0  0  0  0  0  0  0  0  0  0
  1  2  1  0
  2  3  1  0
  3  4  1  0
  4  5  1  0
  5  6  1  0
  6  7  1  0
  6  8  1  0
  8  9  1  0
  8  2  1  0
  1 10  1  0
  1 11  1  0
  1 12  1  0
  2 13  1  0
  3 14  1  0
  3 15  1  0
  4 16  1  0
  4 17  1  0
  6 18  1  0
  7 19  1  0
  7 20  1  0
  7 21  1  0
  8 22  1  0
  9 23  1  0
M  END
