
     RDKit          3D

 21 22  0  0  0  0  0  0  0  0999 V2000
   -2.8670    0.0638   -0.2071 C   0  0  0  0  0  0  0  0  0  0  0  0
   -1.5827   -0.6998   -0.2703 C   0  0  0  0  0  0  0  0  0  0  0  0
   -0.7970   -0.5254    1.0369 C   0  0  0  0  0  0  0  0  0  0  0  0
    0.2710    0.1410    0.1810 C   0  0  0  0  0  0  0  0  0  0  0  0
    1.7021    0.0256    0.5329 C   0  0  0  0  0  0  0  0  0  0  0  0
    2.6254    0.0208   -0.6673 C   0  0  0  0  0  0  0  0  0  0  0  0
    2.0611    0.9794    1.4742 O   0  0  0  0  0  0  0  0  0  0  0  0
   -0.1855    1.3526   -0.3727 O   0  0  0  0  0  0  0  0  0  0  0  0
   -0.4627    0.1111   -0.9332 C   0  0  0  0  0  0  0  0  0  0  0  0
   -3.1832    0.2689   -1.2569 H   0  0  0  0  0  0  0  0  0  0  0  0
   -2.6899    0.9839    0.3650 H   0  0  0  0  0  0  0  0  0  0  0  0
   -3.6176   -0.5564    0.3373 H   0  0  0  0  0  0  0  0  0  0  0  0
   -1.6143   -1.7230   -0.6422 H   0  0  0  0  0  0  0  0  0  0  0  0
   -0.5186   -1.5110    1.4337 H   0  0  0  0  0  0  0  0  0  0  0  0
   -1.2271    0.2015    1.7272 H   0  0  0  0  0  0  0  0  0  0  0  0
    1.8562   -0.9703    1.0280 H   0  0  0  0  0  0  0  0  0  0  0  0
    2.1117   -0.5563   -1.4650 H   0  0  0  0  0  0  0  0  0  0  0  0
    3.5887   -0.5086   -0.4273 H   0  0  0  0  0  0  0  0  0  0  0  0
    2.9063    1.0376   -0.9982 H   0  0  0  0  0  0  0  0  0  0  0  0
    1.9900    1.9043    1.1249 H   0  0  0  0  0  0  0  0  0  0  0  0
   -0.3670   -0.0395   -2.0008 H   0  0  0  0  0  0  0  0  0  0  0  0
  1  2  1  0
  2  3  1  0
  3  4  1  0
  4  5  1  0
  5  6  1  0
  5  7  1  0
  4  8  1  0
  8  9  1  0
  9  2  1  0
  9  4  1  0
  1 10  1  0
  1 11  1  0
  1 12  1  0
  2 13  1  0
  3 14  1  0
  3 15  1  0
  5 16  1  0
  6 17  1  0
  6 18  1  0
  6 19  1  0
  7 20  1  0
  9 21  1  0
M  END
