
     RDKit          3D

 17 18  0  0  0  0  0  0  0  0999 V2000
    2.2794   -0.8451   -0.3369 C   0  0  0  0  0  0  0  0  0  0  0  0
    1.1900    0.1350   -0.1075 C   0  0  0  0  0  0  0  0  0  0  0  0
    1.2566    1.5053    0.0239 C   0  0  0  0  0  0  0  0  0  0  0  0
    0.0521    1.9859    0.2164 O   0  0  0  0  0  0  0  0  0  0  0  0
   -0.8379    1.0405    0.2264 C   0  0  0  0  0  0  0  0  0  0  0  0
   -0.1696   -0.1438    0.0262 C   0  0  0  0  0  0  0  0  0  0  0  0
   -1.1945   -1.2056    0.0383 C   0  0  0  0  0  0  0  0  0  0  0  0
   -2.2042   -0.6458    0.8153 O   0  0  0  0  0  0  0  0  0  0  0  0
   -2.2978    0.6810    0.3642 C   0  0  0  0  0  0  0  0  0  0  0  0
    2.0942   -1.4023   -1.2603 H   0  0  0  0  0  0  0  0  0  0  0  0
    3.2291   -0.2757   -0.4244 H   0  0  0  0  0  0  0  0  0  0  0  0
    2.4131   -1.5333    0.5302 H   0  0  0  0  0  0  0  0  0  0  0  0
    2.1551    2.1015   -0.0226 H   0  0  0  0  0  0  0  0  0  0  0  0
   -1.6398   -1.3267   -0.9906 H   0  0  0  0  0  0  0  0  0  0  0  0
   -0.8176   -2.1430    0.4394 H   0  0  0  0  0  0  0  0  0  0  0  0
   -2.7254    0.7434   -0.6414 H   0  0  0  0  0  0  0  0  0  0  0  0
   -2.7828    1.3287    1.1034 H   0  0  0  0  0  0  0  0  0  0  0  0
  1  2  1  0
  2  3  2  0
  3  4  1  0
  4  5  1  0
  5  6  2  0
  6  7  1  0
  7  8  1  0
  8  9  1  0
  6  2  1  0
  9  5  1  0
  1 10  1  0
  1 11  1  0
  1 12  1  0
  3 13  1  0
  7 14  1  0
  7 15  1  0
  9 16  1  0
  9 17  1  0
M  END
