
     RDKit          3D

 21 22  0  0  0  0  0  0  0  0999 V2000
   -0.3669    1.6569    0.4709 C   0  0  0  0  0  0  0  0  0  0  0  0
   -0.6065    0.6804   -0.6174 C   0  0  0  0  0  0  0  0  0  0  0  0
   -1.7027   -0.3125   -0.3118 C   0  0  0  0  0  0  0  0  0  0  0  0
   -1.0826   -1.2180    0.7000 C   0  0  0  0  0  0  0  0  0  0  0  0
   -0.2799   -1.5813   -0.5017 C   0  0  0  0  0  0  0  0  0  0  0  0
   -1.4352   -1.3191   -1.2687 O   0  0  0  0  0  0  0  0  0  0  0  0
    0.5308   -0.3360   -0.7848 C   0  0  0  0  0  0  0  0  0  0  0  0
    1.6292   -0.1304    0.1910 C   0  0  0  0  0  0  0  0  0  0  0  0
    2.1551    1.1588    0.0047 O   0  0  0  0  0  0  0  0  0  0  0  0
    0.0622    1.2660    1.3924 H   0  0  0  0  0  0  0  0  0  0  0  0
    0.2435    2.4975    0.1323 H   0  0  0  0  0  0  0  0  0  0  0  0
   -1.3700    2.0939    0.7474 H   0  0  0  0  0  0  0  0  0  0  0  0
   -0.7967    1.2132   -1.5581 H   0  0  0  0  0  0  0  0  0  0  0  0
   -2.7050    0.0224   -0.2094 H   0  0  0  0  0  0  0  0  0  0  0  0
   -1.7420   -2.0209    1.0928 H   0  0  0  0  0  0  0  0  0  0  0  0
   -0.5792   -0.7209    1.5314 H   0  0  0  0  0  0  0  0  0  0  0  0
    0.1765   -2.5361   -0.5945 H   0  0  0  0  0  0  0  0  0  0  0  0
    0.9162   -0.3702   -1.7992 H   0  0  0  0  0  0  0  0  0  0  0  0
    2.4363   -0.8707   -0.0521 H   0  0  0  0  0  0  0  0  0  0  0  0
    1.3877   -0.2718    1.2396 H   0  0  0  0  0  0  0  0  0  0  0  0
    3.1293    1.0986    0.1952 H   0  0  0  0  0  0  0  0  0  0  0  0
  1  2  1  0
  2  3  1  0
  3  4  1  0
  4  5  1  0
  5  6  1  0
  5  7  1  0
  7  8  1  0
  8  9  1  0
  7  2  1  0
  6  3  1  0
  1 10  1  0
  1 11  1  0
  1 12  1  0
  2 13  1  0
  3 14  1  0
  4 15  1  0
  4 16  1  0
  5 17  1  0
  7 18  1  0
  8 19  1  0
  8 20  1  0
  9 21  1  0
M  END
