
     RDKit          3D

 17 18  0  0  0  0  0  0  0  0999 V2000
    1.8571    0.2141   -0.0706 C   0  0  0  0  0  0  0  0  0  0  0  0
    0.5290    0.2090    0.6105 C   0  0  0  0  0  0  0  0  0  0  0  0
   -0.1090   -1.1881    0.6423 C   0  0  0  0  0  0  0  0  0  0  0  0
   -1.3851   -0.9742    1.1409 O   0  0  0  0  0  0  0  0  0  0  0  0
   -1.8109    0.1348    0.3745 C   0  0  0  0  0  0  0  0  0  0  0  0
   -0.5819    0.3774   -0.4480 C   0  0  0  0  0  0  0  0  0  0  0  0
   -0.4942    1.3825   -1.2978 O   0  0  0  0  0  0  0  0  0  0  0  0
   -0.2265   -1.0027   -0.8258 C   0  0  0  0  0  0  0  0  0  0  0  0
   -0.1045   -1.6257   -1.8360 O   0  0  0  0  0  0  0  0  0  0  0  0
    2.6319   -0.2885    0.5503 H   0  0  0  0  0  0  0  0  0  0  0  0
    2.1696    1.2452   -0.3045 H   0  0  0  0  0  0  0  0  0  0  0  0
    1.7329   -0.3449   -1.0380 H   0  0  0  0  0  0  0  0  0  0  0  0
    0.3970    0.8017    1.5049 H   0  0  0  0  0  0  0  0  0  0  0  0
    0.4854   -1.9840    1.0225 H   0  0  0  0  0  0  0  0  0  0  0  0
   -2.6880   -0.1715   -0.2233 H   0  0  0  0  0  0  0  0  0  0  0  0
   -2.1070    0.9788    0.9937 H   0  0  0  0  0  0  0  0  0  0  0  0
   -0.2959    2.2363   -0.7956 H   0  0  0  0  0  0  0  0  0  0  0  0
  1  2  1  0
  2  3  1  0
  3  4  1  0
  4  5  1  0
  5  6  1  0
  6  7  1  0
  6  8  1  0
  8  9  2  0
  6  2  1  0
  8  3  1  0
  1 10  1  0
  1 11  1  0
  1 12  1  0
  2 13  1  0
  3 14  1  0
  5 15  1  0
  5 16  1  0
  7 17  1  0
M  END
