
     RDKit          3D

 19 20  0  0  0  0  0  0  0  0999 V2000
    2.6314   -0.3058   -0.3466 C   0  0  0  0  0  0  0  0  0  0  0  0
    1.2132   -0.4182    0.2146 C   0  0  0  0  0  0  0  0  0  0  0  0
    0.8214    0.8581    0.8627 C   0  0  0  0  0  0  0  0  0  0  0  0
   -0.4716    1.1626    0.8966 C   0  0  0  0  0  0  0  0  0  0  0  0
   -1.5020    0.2785    0.3167 C   0  0  0  0  0  0  0  0  0  0  0  0
   -2.5606    0.0132    1.1888 O   0  0  0  0  0  0  0  0  0  0  0  0
   -1.8296    0.2662   -1.1102 C   0  0  0  0  0  0  0  0  0  0  0  0
   -0.9435   -0.7996   -0.5208 C   0  0  0  0  0  0  0  0  0  0  0  0
    0.3847   -0.6882   -0.8533 O   0  0  0  0  0  0  0  0  0  0  0  0
    2.9302   -1.3280   -0.6583 H   0  0  0  0  0  0  0  0  0  0  0  0
    2.5392    0.3852   -1.2242 H   0  0  0  0  0  0  0  0  0  0  0  0
    3.3534    0.0353    0.3934 H   0  0  0  0  0  0  0  0  0  0  0  0
    1.1856   -1.2771    0.9408 H   0  0  0  0  0  0  0  0  0  0  0  0
    1.6024    1.4848    1.2788 H   0  0  0  0  0  0  0  0  0  0  0  0
   -0.7392    2.0989    1.3741 H   0  0  0  0  0  0  0  0  0  0  0  0
   -3.0565   -0.8173    0.9317 H   0  0  0  0  0  0  0  0  0  0  0  0
   -2.8288   -0.0937   -1.4190 H   0  0  0  0  0  0  0  0  0  0  0  0
   -1.3914    0.9932   -1.8355 H   0  0  0  0  0  0  0  0  0  0  0  0
   -1.3384   -1.8481   -0.4301 H   0  0  0  0  0  0  0  0  0  0  0  0
  1  2  1  0
  2  3  1  0
  3  4  2  0
  4  5  1  0
  5  6  1  0
  5  7  1  0
  7  8  1  0
  8  9  1  0
  9  2  1  0
  8  5  1  0
  1 10  1  0
  1 11  1  0
  1 12  1  0
  2 13  1  0
  3 14  1  0
  4 15  1  0
  6 16  1  0
  7 17  1  0
  7 18  1  0
  8 19  1  0
M  END
