
     RDKit          3D

 23 24  0  0  0  0  0  0  0  0999 V2000
    2.5296   -0.1657    0.0276 C   0  0  0  0  0  0  0  0  0  0  0  0
    1.1570   -0.3316   -0.5313 C   0  0  0  0  0  0  0  0  0  0  0  0
    0.4711    0.9503   -0.8639 C   0  0  0  0  0  0  0  0  0  0  0  0
   -0.6947    1.1091    0.0871 C   0  0  0  0  0  0  0  0  0  0  0  0
   -1.9330    0.4099   -0.3890 C   0  0  0  0  0  0  0  0  0  0  0  0
   -1.9113   -1.0667   -0.2282 C   0  0  0  0  0  0  0  0  0  0  0  0
   -0.7096   -1.6479   -0.0419 O   0  0  0  0  0  0  0  0  0  0  0  0
    0.2732   -0.9483    0.5633 C   0  0  0  0  0  0  0  0  0  0  0  0
   -0.1835    0.2998    1.2869 C   0  0  0  0  0  0  0  0  0  0  0  0
    3.1148    0.6397   -0.4141 H   0  0  0  0  0  0  0  0  0  0  0  0
    3.1180   -1.1120   -0.1398 H   0  0  0  0  0  0  0  0  0  0  0  0
    2.5377   -0.0265    1.1362 H   0  0  0  0  0  0  0  0  0  0  0  0
    1.1907   -1.0332   -1.3975 H   0  0  0  0  0  0  0  0  0  0  0  0
    1.1485    1.8382   -0.7214 H   0  0  0  0  0  0  0  0  0  0  0  0
    0.1725    0.9455   -1.9140 H   0  0  0  0  0  0  0  0  0  0  0  0
   -0.9078    2.1423    0.3570 H   0  0  0  0  0  0  0  0  0  0  0  0
   -2.2265    0.7425   -1.4232 H   0  0  0  0  0  0  0  0  0  0  0  0
   -2.7755    0.7919    0.2583 H   0  0  0  0  0  0  0  0  0  0  0  0
   -2.6092   -1.4332    0.5817 H   0  0  0  0  0  0  0  0  0  0  0  0
   -2.3655   -1.4943   -1.1722 H   0  0  0  0  0  0  0  0  0  0  0  0
    0.8614   -1.5675    1.2584 H   0  0  0  0  0  0  0  0  0  0  0  0
    0.7035    0.8368    1.6510 H   0  0  0  0  0  0  0  0  0  0  0  0
   -0.9615    0.1209    2.0291 H   0  0  0  0  0  0  0  0  0  0  0  0
  1  2  1  0
  2  3  1  0
  3  4  1  0
  4  5  1  0
  5  6  1  0
  6  7  1  0
  7  8  1  0
  8  9  1  0
  8  2  1  0
  9  4  1  0
  1 10  1  0
  1 11  1  0
  1 12  1  0
  2 13  1  0
  3 14  1  0
  3 15  1  0
  4 16  1  0
  5 17  1  0
  5 18  1  0
  6 19  1  0
  6 20  1  0
  8 21  1  0
  9 22  1  0
  9 23  1  0
M  END
