
     RDKit          3D

 19 20  0  0  0  0  0  0  0  0999 V2000
   -1.5396   -1.1162   -0.5098 C   0  0  0  0  0  0  0  0  0  0  0  0
   -0.7503   -0.4985    0.6510 C   0  0  0  0  0  0  0  0  0  0  0  0
   -1.4454    0.8288    0.9950 C   0  0  0  0  0  0  0  0  0  0  0  0
   -0.4972    1.4654    0.0064 C   0  0  0  0  0  0  0  0  0  0  0  0
   -0.5052    2.4648   -0.6797 O   0  0  0  0  0  0  0  0  0  0  0  0
    0.3933    0.3542    0.2594 C   0  0  0  0  0  0  0  0  0  0  0  0
    1.6456    0.4788    1.0101 C   0  0  0  0  0  0  0  0  0  0  0  0
    1.5675   -0.0434   -0.4533 C   0  0  0  0  0  0  0  0  0  0  0  0
    1.8727   -1.4116   -0.5710 O   0  0  0  0  0  0  0  0  0  0  0  0
   -2.5863   -1.3312   -0.2173 H   0  0  0  0  0  0  0  0  0  0  0  0
   -1.6156   -0.2930   -1.2758 H   0  0  0  0  0  0  0  0  0  0  0  0
   -1.0213   -1.9718   -0.9486 H   0  0  0  0  0  0  0  0  0  0  0  0
   -0.5921   -1.1639    1.5043 H   0  0  0  0  0  0  0  0  0  0  0  0
   -1.1691    1.1106    2.0155 H   0  0  0  0  0  0  0  0  0  0  0  0
   -2.4924    0.8828    0.7032 H   0  0  0  0  0  0  0  0  0  0  0  0
    2.0398    1.5305    1.1109 H   0  0  0  0  0  0  0  0  0  0  0  0
    1.8442   -0.2564    1.7893 H   0  0  0  0  0  0  0  0  0  0  0  0
    2.0768    0.5901   -1.1968 H   0  0  0  0  0  0  0  0  0  0  0  0
    2.7746   -1.6199   -0.2278 H   0  0  0  0  0  0  0  0  0  0  0  0
  1  2  1  0
  2  3  1  0
  3  4  1  0
  4  5  2  0
  4  6  1  0
  6  7  1  0
  7  8  1  0
  8  9  1  0
  6  2  1  0
  8  6  1  0
  1 10  1  0
  1 11  1  0
  1 12  1  0
  2 13  1  0
  3 14  1  0
  3 15  1  0
  7 16  1  0
  7 17  1  0
  8 18  1  0
  9 19  1  0
M  END
