
     RDKit          3D

 17 17  0  0  0  0  0  0  0  0999 V2000
    2.1955    0.3046   -0.1440 C   0  0  0  0  0  0  0  0  0  0  0  0
    0.7487    0.2914    0.1017 C   0  0  0  0  0  0  0  0  0  0  0  0
   -0.0442   -0.4929   -0.9504 C   0  0  0  0  0  0  0  0  0  0  0  0
   -1.4213   -0.3593   -0.2770 C   0  0  0  0  0  0  0  0  0  0  0  0
   -1.8553    0.9343   -0.5771 O   0  0  0  0  0  0  0  0  0  0  0  0
   -1.0279   -0.4643    1.1780 C   0  0  0  0  0  0  0  0  0  0  0  0
    0.3364   -0.3369    1.2563 O   0  0  0  0  0  0  0  0  0  0  0  0
    2.4233    1.1256   -0.8855 H   0  0  0  0  0  0  0  0  0  0  0  0
    2.7353    0.5751    0.7702 H   0  0  0  0  0  0  0  0  0  0  0  0
    2.6318   -0.6075   -0.5800 H   0  0  0  0  0  0  0  0  0  0  0  0
    0.3445    1.3387    0.0440 H   0  0  0  0  0  0  0  0  0  0  0  0
   -0.0074    0.0466   -1.9062 H   0  0  0  0  0  0  0  0  0  0  0  0
    0.2691   -1.5426   -0.9970 H   0  0  0  0  0  0  0  0  0  0  0  0
   -2.1154   -1.1250   -0.6088 H   0  0  0  0  0  0  0  0  0  0  0  0
   -2.3343    1.3638    0.1714 H   0  0  0  0  0  0  0  0  0  0  0  0
   -1.4682    0.3754    1.7895 H   0  0  0  0  0  0  0  0  0  0  0  0
   -1.4108   -1.4270    1.6151 H   0  0  0  0  0  0  0  0  0  0  0  0
  1  2  1  0
  2  3  1  0
  3  4  1  0
  4  5  1  0
  4  6  1  0
  6  7  1  0
  7  2  1  0
  1  8  1  0
  1  9  1  0
  1 10  1  0
  2 11  1  0
  3 12  1  0
  3 13  1  0
  4 14  1  0
  5 15  1  0
  6 16  1  0
  6 17  1  0
M  END
