
     RDKit          3D

 21 22  0  0  0  0  0  0  0  0999 V2000
   -0.5623    1.6603    1.3436 C   0  0  0  0  0  0  0  0  0  0  0  0
   -0.0667    1.1599    0.0270 C   0  0  0  0  0  0  0  0  0  0  0  0
    1.4303    0.9676   -0.0895 C   0  0  0  0  0  0  0  0  0  0  0  0
    1.1353   -0.4146   -0.6686 C   0  0  0  0  0  0  0  0  0  0  0  0
    0.5304   -1.3649    0.2845 C   0  0  0  0  0  0  0  0  0  0  0  0
    1.0877   -1.2918    1.5827 O   0  0  0  0  0  0  0  0  0  0  0  0
   -0.3309   -0.2830   -0.2122 C   0  0  0  0  0  0  0  0  0  0  0  0
   -1.3864   -0.6409   -1.2580 C   0  0  0  0  0  0  0  0  0  0  0  0
   -1.4914   -2.0278   -1.3392 O   0  0  0  0  0  0  0  0  0  0  0  0
    0.2297    2.0796    1.9910 H   0  0  0  0  0  0  0  0  0  0  0  0
   -1.1546    0.8702    1.8767 H   0  0  0  0  0  0  0  0  0  0  0  0
   -1.2888    2.4915    1.1375 H   0  0  0  0  0  0  0  0  0  0  0  0
   -0.4082    1.7650   -0.8589 H   0  0  0  0  0  0  0  0  0  0  0  0
    1.9599    0.9474    0.8824 H   0  0  0  0  0  0  0  0  0  0  0  0
    1.9356    1.5933   -0.8416 H   0  0  0  0  0  0  0  0  0  0  0  0
    1.2731   -0.6037   -1.7267 H   0  0  0  0  0  0  0  0  0  0  0  0
    0.2509   -2.3857    0.0169 H   0  0  0  0  0  0  0  0  0  0  0  0
    1.9940   -1.7202    1.4755 H   0  0  0  0  0  0  0  0  0  0  0  0
   -1.0466   -0.1909   -2.2115 H   0  0  0  0  0  0  0  0  0  0  0  0
   -2.3610   -0.2219   -0.9413 H   0  0  0  0  0  0  0  0  0  0  0  0
   -1.7299   -2.3895   -0.4703 H   0  0  0  0  0  0  0  0  0  0  0  0
  1  2  1  0
  2  3  1  0
  3  4  1  0
  4  5  1  0
  5  6  1  0
  5  7  1  0
  7  8  1  0
  8  9  1  0
  7  2  1  0
  7  4  1  0
  1 10  1  0
  1 11  1  0
  1 12  1  0
  2 13  1  0
  3 14  1  0
  3 15  1  0
  4 16  1  0
  5 17  1  0
  6 18  1  0
  8 19  1  0
  8 20  1  0
  9 21  1  0
M  END
