
     RDKit          3D

 21 22  0  0  0  0  0  0  0  0999 V2000
    2.4954    0.0090   -0.5063 C   0  0  0  0  0  0  0  0  0  0  0  0
    1.0109   -0.1025   -0.5844 C   0  0  0  0  0  0  0  0  0  0  0  0
    0.4088   -1.3756   -0.0302 C   0  0  0  0  0  0  0  0  0  0  0  0
   -0.6789   -0.4924    0.5462 C   0  0  0  0  0  0  0  0  0  0  0  0
   -2.0103   -0.4220   -0.1406 C   0  0  0  0  0  0  0  0  0  0  0  0
   -2.8530    0.4255    0.5310 O   0  0  0  0  0  0  0  0  0  0  0  0
   -0.2789    0.3863    1.6349 C   0  0  0  0  0  0  0  0  0  0  0  0
    0.1940    0.7645    0.2893 C   0  0  0  0  0  0  0  0  0  0  0  0
   -0.3994    1.8512   -0.2998 O   0  0  0  0  0  0  0  0  0  0  0  0
    2.9268   -0.4885   -1.4071 H   0  0  0  0  0  0  0  0  0  0  0  0
    2.9164   -0.4053    0.4057 H   0  0  0  0  0  0  0  0  0  0  0  0
    2.7754    1.0893   -0.6084 H   0  0  0  0  0  0  0  0  0  0  0  0
    0.6871   -0.0102   -1.6629 H   0  0  0  0  0  0  0  0  0  0  0  0
    1.0036   -1.8096    0.8089 H   0  0  0  0  0  0  0  0  0  0  0  0
    0.0006   -2.0794   -0.7544 H   0  0  0  0  0  0  0  0  0  0  0  0
   -1.8787   -0.0308   -1.1834 H   0  0  0  0  0  0  0  0  0  0  0  0
   -2.3976   -1.4472   -0.2495 H   0  0  0  0  0  0  0  0  0  0  0  0
   -3.0417    1.2589   -0.0009 H   0  0  0  0  0  0  0  0  0  0  0  0
    0.4459   -0.0268    2.3745 H   0  0  0  0  0  0  0  0  0  0  0  0
   -1.0479    1.0139    2.0989 H   0  0  0  0  0  0  0  0  0  0  0  0
   -0.2787    1.8917   -1.2617 H   0  0  0  0  0  0  0  0  0  0  0  0
  1  2  1  0
  2  3  1  0
  3  4  1  0
  4  5  1  0
  5  6  1  0
  4  7  1  0
  7  8  1  0
  8  9  1  0
  8  2  1  0
  8  4  1  0
  1 10  1  0
  1 11  1  0
  1 12  1  0
  2 13  1  0
  3 14  1  0
  3 15  1  0
  5 16  1  0
  5 17  1  0
  6 18  1  0
  7 19  1  0
  7 20  1  0
  9 21  1  0
M  END
