
     RDKit          3D

 21 23  0  0  0  0  0  0  0  0999 V2000
    2.3966    1.0918    0.0675 C   0  0  0  0  0  0  0  0  0  0  0  0
    1.1103    0.3624    0.3726 C   0  0  0  0  0  0  0  0  0  0  0  0
    0.9048   -0.9367   -0.2741 C   0  0  0  0  0  0  0  0  0  0  0  0
   -0.1475   -1.9087    0.1280 C   0  0  0  0  0  0  0  0  0  0  0  0
   -1.4333   -1.1419    0.2168 C   0  0  0  0  0  0  0  0  0  0  0  0
   -2.0066   -0.9270   -1.1405 O   0  0  0  0  0  0  0  0  0  0  0  0
   -1.2919    0.0540   -0.5036 C   0  0  0  0  0  0  0  0  0  0  0  0
   -1.9742    1.3173   -0.0274 C   0  0  0  0  0  0  0  0  0  0  0  0
    0.1857    0.2301   -0.8124 C   0  0  0  0  0  0  0  0  0  0  0  0
    2.2410    2.1808   -0.0930 H   0  0  0  0  0  0  0  0  0  0  0  0
    3.1235    0.8954    0.8917 H   0  0  0  0  0  0  0  0  0  0  0  0
    2.8661    0.6205   -0.8418 H   0  0  0  0  0  0  0  0  0  0  0  0
    0.6074    0.6738    1.3011 H   0  0  0  0  0  0  0  0  0  0  0  0
    1.7827   -1.3687   -0.8333 H   0  0  0  0  0  0  0  0  0  0  0  0
    0.0702   -2.4797    1.0456 H   0  0  0  0  0  0  0  0  0  0  0  0
   -0.2502   -2.6740   -0.6879 H   0  0  0  0  0  0  0  0  0  0  0  0
   -2.2415   -1.4806    0.8781 H   0  0  0  0  0  0  0  0  0  0  0  0
   -2.8083    0.9878    0.6395 H   0  0  0  0  0  0  0  0  0  0  0  0
   -2.3467    1.9040   -0.8890 H   0  0  0  0  0  0  0  0  0  0  0  0
   -1.2468    1.8865    0.5956 H   0  0  0  0  0  0  0  0  0  0  0  0
    0.4586    0.7131   -1.7755 H   0  0  0  0  0  0  0  0  0  0  0  0
  1  2  1  0
  2  3  1  0
  3  4  1  0
  4  5  1  0
  5  6  1  0
  6  7  1  0
  7  8  1  0
  7  9  1  0
  9  2  1  0
  9  3  1  0
  7  5  1  0
  1 10  1  0
  1 11  1  0
  1 12  1  0
  2 13  1  0
  3 14  1  0
  4 15  1  0
  4 16  1  0
  5 17  1  0
  8 18  1  0
  8 19  1  0
  8 20  1  0
  9 21  1  0
M  END
