
     RDKit          3D

 17 17  0  0  0  0  0  0  0  0999 V2000
   -1.9527    0.0444   -0.5276 C   0  0  0  0  0  0  0  0  0  0  0  0
   -1.2513    0.2608    0.7705 C   0  0  0  0  0  0  0  0  0  0  0  0
   -0.3507    1.4421    0.8464 C   0  0  0  0  0  0  0  0  0  0  0  0
    0.1650   -0.0221    0.9915 C   0  0  0  0  0  0  0  0  0  0  0  0
    0.6146   -0.3506    2.2672 O   0  0  0  0  0  0  0  0  0  0  0  0
    1.0285   -0.4972   -0.0986 C   0  0  0  0  0  0  0  0  0  0  0  0
    1.7403   -0.9051   -0.9832 C   0  0  0  0  0  0  0  0  0  0  0  0
    2.6171   -1.3823   -2.0408 C   0  0  0  0  0  0  0  0  0  0  0  0
    2.9720   -0.6334   -2.9863 O   0  0  0  0  0  0  0  0  0  0  0  0
   -2.4895    1.0054   -0.7744 H   0  0  0  0  0  0  0  0  0  0  0  0
   -2.7345   -0.7626   -0.4513 H   0  0  0  0  0  0  0  0  0  0  0  0
   -1.2026   -0.1837   -1.2978 H   0  0  0  0  0  0  0  0  0  0  0  0
   -1.9184    0.1254    1.6701 H   0  0  0  0  0  0  0  0  0  0  0  0
   -0.2885    2.0699    1.7402 H   0  0  0  0  0  0  0  0  0  0  0  0
   -0.0872    1.9544   -0.0984 H   0  0  0  0  0  0  0  0  0  0  0  0
    0.1907    0.2356    2.9504 H   0  0  0  0  0  0  0  0  0  0  0  0
    2.9473   -2.4009   -1.9780 H   0  0  0  0  0  0  0  0  0  0  0  0
  1  2  1  0
  2  3  1  0
  3  4  1  0
  4  5  1  0
  4  6  1  0
  6  7  3  0
  7  8  1  0
  8  9  2  0
  4  2  1  0
  1 10  1  0
  1 11  1  0
  1 12  1  0
  2 13  1  0
  3 14  1  0
  3 15  1  0
  5 16  1  0
  8 17  1  0
M  END
