
     RDKit          3D

 23 23  0  0  0  0  0  0  0  0999 V2000
   -1.9575   -1.0501   -0.2446 C   0  0  0  0  0  0  0  0  0  0  0  0
   -0.7341   -0.5080   -0.9043 C   0  0  0  0  0  0  0  0  0  0  0  0
   -0.2583    0.8393   -0.4623 C   0  0  0  0  0  0  0  0  0  0  0  0
   -1.2688    1.7559    0.1319 C   0  0  0  0  0  0  0  0  0  0  0  0
    0.6507    0.1591    0.5271 C   0  0  0  0  0  0  0  0  0  0  0  0
    2.0736    0.6414    0.5206 C   0  0  0  0  0  0  0  0  0  0  0  0
    2.6918    0.4612   -0.7142 O   0  0  0  0  0  0  0  0  0  0  0  0
    0.5155   -1.1229   -0.2720 C   0  0  0  0  0  0  0  0  0  0  0  0
    0.2487   -2.1961    0.5681 O   0  0  0  0  0  0  0  0  0  0  0  0
   -1.7462   -2.1319    0.0046 H   0  0  0  0  0  0  0  0  0  0  0  0
   -2.8314   -1.0903   -0.9346 H   0  0  0  0  0  0  0  0  0  0  0  0
   -2.2218   -0.5551    0.7091 H   0  0  0  0  0  0  0  0  0  0  0  0
   -0.7689   -0.6317   -1.9950 H   0  0  0  0  0  0  0  0  0  0  0  0
    0.3724    1.2927   -1.2789 H   0  0  0  0  0  0  0  0  0  0  0  0
   -2.1724    1.8205   -0.5031 H   0  0  0  0  0  0  0  0  0  0  0  0
   -0.7823    2.7533    0.2679 H   0  0  0  0  0  0  0  0  0  0  0  0
   -1.5068    1.3978    1.1560 H   0  0  0  0  0  0  0  0  0  0  0  0
    0.2598    0.0948    1.5576 H   0  0  0  0  0  0  0  0  0  0  0  0
    2.1744    1.7041    0.8393 H   0  0  0  0  0  0  0  0  0  0  0  0
    2.6236    0.0091    1.2749 H   0  0  0  0  0  0  0  0  0  0  0  0
    3.1197   -0.4400   -0.7276 H   0  0  0  0  0  0  0  0  0  0  0  0
    1.2861   -1.2851   -1.0433 H   0  0  0  0  0  0  0  0  0  0  0  0
    0.2322   -1.9180    1.5229 H   0  0  0  0  0  0  0  0  0  0  0  0
  1  2  1  0
  2  3  1  0
  3  4  1  0
  3  5  1  0
  5  6  1  0
  6  7  1  0
  5  8  1  0
  8  9  1  0
  8  2  1  0
  1 10  1  0
  1 11  1  0
  1 12  1  0
  2 13  1  0
  3 14  1  0
  4 15  1  0
  4 16  1  0
  4 17  1  0
  5 18  1  0
  6 19  1  0
  6 20  1  0
  7 21  1  0
  8 22  1  0
  9 23  1  0
M  END
