
     RDKit          3D

 19 21  0  0  0  0  0  0  0  0999 V2000
    1.7631   -0.1479   -0.8231 C   0  0  0  0  0  0  0  0  0  0  0  0
    1.2335    0.3366    0.4738 C   0  0  0  0  0  0  0  0  0  0  0  0
    0.7735   -0.9148    1.3068 C   0  0  0  0  0  0  0  0  0  0  0  0
   -0.4649   -0.8058    0.4784 C   0  0  0  0  0  0  0  0  0  0  0  0
   -1.5722   -1.0025   -0.2044 C   0  0  0  0  0  0  0  0  0  0  0  0
   -2.0591    0.2707   -0.7851 C   0  0  0  0  0  0  0  0  0  0  0  0
   -2.4214    1.2958    0.0348 O   0  0  0  0  0  0  0  0  0  0  0  0
   -1.0101    1.2257   -0.5156 C   0  0  0  0  0  0  0  0  0  0  0  0
   -0.1857    0.7034    0.5617 C   0  0  0  0  0  0  0  0  0  0  0  0
    1.6182   -1.2447   -0.9994 H   0  0  0  0  0  0  0  0  0  0  0  0
    1.3325    0.3559   -1.7180 H   0  0  0  0  0  0  0  0  0  0  0  0
    2.8815   -0.0154   -0.8042 H   0  0  0  0  0  0  0  0  0  0  0  0
    1.8870    0.9172    1.1275 H   0  0  0  0  0  0  0  0  0  0  0  0
    1.4168   -1.7798    1.1258 H   0  0  0  0  0  0  0  0  0  0  0  0
    0.6552   -0.6988    2.3632 H   0  0  0  0  0  0  0  0  0  0  0  0
   -2.0603   -1.9739   -0.3228 H   0  0  0  0  0  0  0  0  0  0  0  0
   -2.4686    0.2159   -1.8299 H   0  0  0  0  0  0  0  0  0  0  0  0
   -0.8426    2.1729   -1.0432 H   0  0  0  0  0  0  0  0  0  0  0  0
   -0.4764    1.0895    1.5736 H   0  0  0  0  0  0  0  0  0  0  0  0
  1  2  1  0
  2  3  1  0
  3  4  1  0
  4  5  2  0
  5  6  1  0
  6  7  1  0
  7  8  1  0
  8  9  1  0
  9  2  1  0
  9  4  1  0
  8  6  1  0
  1 10  1  0
  1 11  1  0
  1 12  1  0
  2 13  1  0
  3 14  1  0
  3 15  1  0
  5 16  1  0
  6 17  1  0
  8 18  1  0
  9 19  1  0
M  END
