
     RDKit          3D

 21 22  0  0  0  0  0  0  0  0999 V2000
   -2.3671   -0.2137    0.6220 C   0  0  0  0  0  0  0  0  0  0  0  0
   -1.0568   -0.6863    0.0788 C   0  0  0  0  0  0  0  0  0  0  0  0
    0.0787   -0.8044    1.0386 C   0  0  0  0  0  0  0  0  0  0  0  0
   -0.0093    0.5603    1.2319 O   0  0  0  0  0  0  0  0  0  0  0  0
   -0.1259    0.4632   -0.1732 C   0  0  0  0  0  0  0  0  0  0  0  0
   -0.2990    1.5138   -1.0341 C   0  0  0  0  0  0  0  0  0  0  0  0
    0.9949   -0.5147   -0.1116 C   0  0  0  0  0  0  0  0  0  0  0  0
    2.3021    0.1104    0.1915 C   0  0  0  0  0  0  0  0  0  0  0  0
    0.9761   -1.5452   -1.0293 O   0  0  0  0  0  0  0  0  0  0  0  0
   -3.0831   -1.0052    0.8473 H   0  0  0  0  0  0  0  0  0  0  0  0
   -2.1960    0.4258    1.5051 H   0  0  0  0  0  0  0  0  0  0  0  0
   -2.8323    0.4510   -0.1512 H   0  0  0  0  0  0  0  0  0  0  0  0
   -1.0707   -1.4969   -0.6463 H   0  0  0  0  0  0  0  0  0  0  0  0
    0.2102   -1.5135    1.7480 H   0  0  0  0  0  0  0  0  0  0  0  0
   -1.0470    1.3407   -1.8619 H   0  0  0  0  0  0  0  0  0  0  0  0
    0.6315    1.8361   -1.5887 H   0  0  0  0  0  0  0  0  0  0  0  0
   -0.6591    2.4729   -0.5561 H   0  0  0  0  0  0  0  0  0  0  0  0
    2.4824    0.2303    1.2678 H   0  0  0  0  0  0  0  0  0  0  0  0
    2.3439    1.1007   -0.3468 H   0  0  0  0  0  0  0  0  0  0  0  0
    3.1130   -0.4950   -0.2968 H   0  0  0  0  0  0  0  0  0  0  0  0
    1.6135   -2.2303   -0.7347 H   0  0  0  0  0  0  0  0  0  0  0  0
  1  2  1  0
  2  3  1  0
  3  4  1  0
  4  5  1  0
  5  6  1  0
  5  7  1  0
  7  8  1  0
  7  9  1  0
  5  2  1  0
  7  3  1  0
  1 10  1  0
  1 11  1  0
  1 12  1  0
  2 13  1  0
  3 14  1  0
  6 15  1  0
  6 16  1  0
  6 17  1  0
  8 18  1  0
  8 19  1  0
  8 20  1  0
  9 21  1  0
M  END
