
     RDKit          3D

 21 23  0  0  0  0  0  0  0  0999 V2000
    2.3176    0.2192    0.1118 C   0  0  0  0  0  0  0  0  0  0  0  0
    0.8708    0.1440   -0.3501 C   0  0  0  0  0  0  0  0  0  0  0  0
    0.1151    1.1971    0.4618 C   0  0  0  0  0  0  0  0  0  0  0  0
   -1.2088    1.5811   -0.1118 C   0  0  0  0  0  0  0  0  0  0  0  0
   -1.5922    0.1950    0.4595 C   0  0  0  0  0  0  0  0  0  0  0  0
   -0.6602    0.5579    1.4659 O   0  0  0  0  0  0  0  0  0  0  0  0
   -1.1672   -0.8125   -0.4895 C   0  0  0  0  0  0  0  0  0  0  0  0
   -0.6139   -2.1116   -0.4347 C   0  0  0  0  0  0  0  0  0  0  0  0
    0.2831   -1.1623    0.0391 C   0  0  0  0  0  0  0  0  0  0  0  0
    2.7222    1.2380   -0.0951 H   0  0  0  0  0  0  0  0  0  0  0  0
    2.2993    0.1266    1.2261 H   0  0  0  0  0  0  0  0  0  0  0  0
    2.9264   -0.5865   -0.3194 H   0  0  0  0  0  0  0  0  0  0  0  0
    0.8560    0.3572   -1.4214 H   0  0  0  0  0  0  0  0  0  0  0  0
    0.7451    2.0185    0.8425 H   0  0  0  0  0  0  0  0  0  0  0  0
   -1.6394    2.4151    0.4328 H   0  0  0  0  0  0  0  0  0  0  0  0
   -1.2881    1.5894   -1.2127 H   0  0  0  0  0  0  0  0  0  0  0  0
   -2.6133    0.1757    0.8812 H   0  0  0  0  0  0  0  0  0  0  0  0
   -1.2213   -0.4326   -1.5594 H   0  0  0  0  0  0  0  0  0  0  0  0
   -0.3731   -2.6830   -1.3647 H   0  0  0  0  0  0  0  0  0  0  0  0
   -1.1368   -2.8348    0.2598 H   0  0  0  0  0  0  0  0  0  0  0  0
    0.3787   -1.1915    1.1782 H   0  0  0  0  0  0  0  0  0  0  0  0
  1  2  1  0
  2  3  1  0
  3  4  1  0
  4  5  1  0
  5  6  1  0
  5  7  1  0
  7  8  1  0
  8  9  1  0
  9  2  1  0
  6  3  1  0
  9  7  1  0
  1 10  1  0
  1 11  1  0
  1 12  1  0
  2 13  1  0
  3 14  1  0
  4 15  1  0
  4 16  1  0
  5 17  1  0
  7 18  1  0
  8 19  1  0
  8 20  1  0
  9 21  1  0
M  END
