
     RDKit          3D

 21 22  0  0  0  0  0  0  0  0999 V2000
   -1.7518   -0.2187    0.5943 C   0  0  0  0  0  0  0  0  0  0  0  0
   -0.8888   -0.5080   -0.6243 C   0  0  0  0  0  0  0  0  0  0  0  0
   -0.4718    0.7884   -1.2824 C   0  0  0  0  0  0  0  0  0  0  0  0
   -0.0545    1.6913   -0.1698 C   0  0  0  0  0  0  0  0  0  0  0  0
    0.8816    1.3925    0.7221 C   0  0  0  0  0  0  0  0  0  0  0  0
    1.7081    0.2017    0.8695 C   0  0  0  0  0  0  0  0  0  0  0  0
    2.3333   -0.2936   -0.3889 O   0  0  0  0  0  0  0  0  0  0  0  0
    1.3409   -1.0467    0.4625 C   0  0  0  0  0  0  0  0  0  0  0  0
    0.2077   -1.4418   -0.3495 C   0  0  0  0  0  0  0  0  0  0  0  0
   -2.7560   -0.6852    0.5173 H   0  0  0  0  0  0  0  0  0  0  0  0
   -1.9257    0.8694    0.7243 H   0  0  0  0  0  0  0  0  0  0  0  0
   -1.2865   -0.6675    1.5086 H   0  0  0  0  0  0  0  0  0  0  0  0
   -1.5709   -0.9982   -1.3745 H   0  0  0  0  0  0  0  0  0  0  0  0
    0.3428    0.5905   -1.9943 H   0  0  0  0  0  0  0  0  0  0  0  0
   -1.3754    1.2361   -1.7496 H   0  0  0  0  0  0  0  0  0  0  0  0
   -0.5491    2.6536   -0.0859 H   0  0  0  0  0  0  0  0  0  0  0  0
    1.0062    2.2223    1.4414 H   0  0  0  0  0  0  0  0  0  0  0  0
    2.5550    0.3414    1.5817 H   0  0  0  0  0  0  0  0  0  0  0  0
    1.9284   -1.9379    0.8519 H   0  0  0  0  0  0  0  0  0  0  0  0
    0.5918   -1.8185   -1.3465 H   0  0  0  0  0  0  0  0  0  0  0  0
   -0.2652   -2.3711    0.0922 H   0  0  0  0  0  0  0  0  0  0  0  0
  1  2  1  0
  2  3  1  0
  3  4  1  0
  4  5  2  0
  5  6  1  0
  6  7  1  0
  7  8  1  0
  8  9  1  0
  9  2  1  0
  8  6  1  0
  1 10  1  0
  1 11  1  0
  1 12  1  0
  2 13  1  0
  3 14  1  0
  3 15  1  0
  4 16  1  0
  5 17  1  0
  6 18  1  0
  8 19  1  0
  9 20  1  0
  9 21  1  0
M  END
