
     RDKit          3D

 17 18  0  0  0  0  0  0  0  0999 V2000
    1.9744   -0.4823    0.3108 C   0  0  0  0  0  0  0  0  0  0  0  0
    0.5570   -0.1071    0.5129 C   0  0  0  0  0  0  0  0  0  0  0  0
    0.2486    1.3120    0.2182 C   0  0  0  0  0  0  0  0  0  0  0  0
    0.7514    2.3106    0.6527 O   0  0  0  0  0  0  0  0  0  0  0  0
   -0.8568    1.2601   -0.7671 C   0  0  0  0  0  0  0  0  0  0  0  0
   -2.0092    0.7650   -0.1584 O   0  0  0  0  0  0  0  0  0  0  0  0
   -1.7714   -0.5903    0.0818 C   0  0  0  0  0  0  0  0  0  0  0  0
   -0.3953   -0.7799   -0.4666 C   0  0  0  0  0  0  0  0  0  0  0  0
   -0.4165    0.1498   -1.5349 O   0  0  0  0  0  0  0  0  0  0  0  0
    2.6846    0.3367    0.5321 H   0  0  0  0  0  0  0  0  0  0  0  0
    2.2231   -1.2907    1.0596 H   0  0  0  0  0  0  0  0  0  0  0  0
    2.1337   -0.9352   -0.6926 H   0  0  0  0  0  0  0  0  0  0  0  0
    0.2361   -0.3229    1.5571 H   0  0  0  0  0  0  0  0  0  0  0  0
   -0.9978    2.1512   -1.3536 H   0  0  0  0  0  0  0  0  0  0  0  0
   -1.7123   -0.7640    1.1904 H   0  0  0  0  0  0  0  0  0  0  0  0
   -2.5331   -1.2406   -0.3852 H   0  0  0  0  0  0  0  0  0  0  0  0
   -0.1164   -1.7725   -0.7572 H   0  0  0  0  0  0  0  0  0  0  0  0
  1  2  1  0
  2  3  1  0
  3  4  2  0
  3  5  1  0
  5  6  1  0
  6  7  1  0
  7  8  1  0
  8  9  1  0
  8  2  1  0
  9  5  1  0
  1 10  1  0
  1 11  1  0
  1 12  1  0
  2 13  1  0
  5 14  1  0
  7 15  1  0
  7 16  1  0
  8 17  1  0
M  END
