
     RDKit          3D

 23 24  0  0  0  0  0  0  0  0999 V2000
    2.4621    0.2811    0.7579 C   0  0  0  0  0  0  0  0  0  0  0  0
    1.4957    0.2434   -0.4190 C   0  0  0  0  0  0  0  0  0  0  0  0
    1.0407   -1.1453   -0.6038 C   0  0  0  0  0  0  0  0  0  0  0  0
   -0.0222   -1.5497    0.0490 C   0  0  0  0  0  0  0  0  0  0  0  0
   -0.7616   -0.6709    0.9462 C   0  0  0  0  0  0  0  0  0  0  0  0
   -2.2712   -0.6697    0.7611 C   0  0  0  0  0  0  0  0  0  0  0  0
   -2.0710    0.6565    0.0296 C   0  0  0  0  0  0  0  0  0  0  0  0
   -0.6983    0.7911    0.6714 C   0  0  0  0  0  0  0  0  0  0  0  0
    0.3765    1.2238   -0.2587 C   0  0  0  0  0  0  0  0  0  0  0  0
    2.8185    1.3040    0.9744 H   0  0  0  0  0  0  0  0  0  0  0  0
    1.9803   -0.2073    1.6274 H   0  0  0  0  0  0  0  0  0  0  0  0
    3.3352   -0.3642    0.4853 H   0  0  0  0  0  0  0  0  0  0  0  0
    2.0929    0.5251   -1.3159 H   0  0  0  0  0  0  0  0  0  0  0  0
    1.5972   -1.8279   -1.2871 H   0  0  0  0  0  0  0  0  0  0  0  0
   -0.3927   -2.5841   -0.0647 H   0  0  0  0  0  0  0  0  0  0  0  0
   -0.5321   -0.9268    2.0179 H   0  0  0  0  0  0  0  0  0  0  0  0
   -2.6587   -1.4591    0.1140 H   0  0  0  0  0  0  0  0  0  0  0  0
   -2.8444   -0.5907    1.7038 H   0  0  0  0  0  0  0  0  0  0  0  0
   -2.8229    1.3848    0.3750 H   0  0  0  0  0  0  0  0  0  0  0  0
   -2.0843    0.5806   -1.0574 H   0  0  0  0  0  0  0  0  0  0  0  0
   -0.7773    1.3824    1.6057 H   0  0  0  0  0  0  0  0  0  0  0  0
    0.8127    2.1769    0.1062 H   0  0  0  0  0  0  0  0  0  0  0  0
   -0.0752    1.4462   -1.2472 H   0  0  0  0  0  0  0  0  0  0  0  0
  1  2  1  0
  2  3  1  0
  3  4  2  0
  4  5  1  0
  5  6  1  0
  6  7  1  0
  7  8  1  0
  8  9  1  0
  9  2  1  0
  8  5  1  0
  1 10  1  0
  1 11  1  0
  1 12  1  0
  2 13  1  0
  3 14  1  0
  4 15  1  0
  5 16  1  0
  6 17  1  0
  6 18  1  0
  7 19  1  0
  7 20  1  0
  8 21  1  0
  9 22  1  0
  9 23  1  0
M  END
