
     RDKit          3D

 23 24  0  0  0  0  0  0  0  0999 V2000
   -3.0769   -0.2482   -0.0393 C   0  0  0  0  0  0  0  0  0  0  0  0
   -1.6840    0.2653    0.0678 C   0  0  0  0  0  0  0  0  0  0  0  0
   -0.8482   -0.5175    1.0890 C   0  0  0  0  0  0  0  0  0  0  0  0
    0.5256   -0.1185    0.6717 C   0  0  0  0  0  0  0  0  0  0  0  0
    0.5264    0.1788   -0.6251 C   0  0  0  0  0  0  0  0  0  0  0  0
    1.8923    0.5806   -1.0623 C   0  0  0  0  0  0  0  0  0  0  0  0
    2.7720   -0.0624   -0.0115 C   0  0  0  0  0  0  0  0  0  0  0  0
    1.9005    0.0597    1.2191 C   0  0  0  0  0  0  0  0  0  0  0  0
   -0.8490   -0.0004   -1.1691 C   0  0  0  0  0  0  0  0  0  0  0  0
   -3.3019   -0.3787   -1.1380 H   0  0  0  0  0  0  0  0  0  0  0  0
   -3.2557   -1.1712    0.5262 H   0  0  0  0  0  0  0  0  0  0  0  0
   -3.7776    0.5709    0.2802 H   0  0  0  0  0  0  0  0  0  0  0  0
   -1.6385    1.3503    0.2699 H   0  0  0  0  0  0  0  0  0  0  0  0
   -1.0123   -1.5975    0.8587 H   0  0  0  0  0  0  0  0  0  0  0  0
   -1.0951   -0.2433    2.1120 H   0  0  0  0  0  0  0  0  0  0  0  0
    2.0394    1.6878   -0.9622 H   0  0  0  0  0  0  0  0  0  0  0  0
    2.1266    0.2163   -2.0844 H   0  0  0  0  0  0  0  0  0  0  0  0
    3.7100    0.5481    0.1388 H   0  0  0  0  0  0  0  0  0  0  0  0
    3.0019   -1.1049   -0.2764 H   0  0  0  0  0  0  0  0  0  0  0  0
    2.1478   -0.7000    1.9825 H   0  0  0  0  0  0  0  0  0  0  0  0
    1.9541    1.0949    1.5997 H   0  0  0  0  0  0  0  0  0  0  0  0
   -0.9747   -1.0832   -1.4541 H   0  0  0  0  0  0  0  0  0  0  0  0
   -1.0826    0.6730   -1.9934 H   0  0  0  0  0  0  0  0  0  0  0  0
  1  2  1  0
  2  3  1  0
  3  4  1  0
  4  5  2  0
  5  6  1  0
  6  7  1  0
  7  8  1  0
  5  9  1  0
  9  2  1  0
  8  4  1  0
  1 10  1  0
  1 11  1  0
  1 12  1  0
  2 13  1  0
  3 14  1  0
  3 15  1  0
  6 16  1  0
  6 17  1  0
  7 18  1  0
  7 19  1  0
  8 20  1  0
  8 21  1  0
  9 22  1  0
  9 23  1  0
M  END
