
     RDKit          3D

 25 26  0  0  0  0  0  0  0  0999 V2000
   -0.2172    2.5803   -0.4429 C   0  0  0  0  0  0  0  0  0  0  0  0
    0.0065    1.0801   -0.6367 C   0  0  0  0  0  0  0  0  0  0  0  0
   -1.3820    0.4160   -0.5078 C   0  0  0  0  0  0  0  0  0  0  0  0
   -1.1443   -0.7657    0.4553 C   0  0  0  0  0  0  0  0  0  0  0  0
   -2.0051   -1.9283    0.1537 C   0  0  0  0  0  0  0  0  0  0  0  0
    0.2933   -0.9743    0.1877 C   0  0  0  0  0  0  0  0  0  0  0  0
    1.4923   -0.5913    0.8084 C   0  0  0  0  0  0  0  0  0  0  0  0
    2.8153   -0.6810    0.0541 C   0  0  0  0  0  0  0  0  0  0  0  0
    0.6731    0.5198    0.5558 C   0  0  0  0  0  0  0  0  0  0  0  0
   -1.1890    2.7545    0.0856 H   0  0  0  0  0  0  0  0  0  0  0  0
   -0.3160    3.1032   -1.4205 H   0  0  0  0  0  0  0  0  0  0  0  0
    0.6380    3.0109    0.1338 H   0  0  0  0  0  0  0  0  0  0  0  0
    0.4648    0.8825   -1.5987 H   0  0  0  0  0  0  0  0  0  0  0  0
   -1.6461    0.0573   -1.5162 H   0  0  0  0  0  0  0  0  0  0  0  0
   -2.1216    1.1174   -0.0993 H   0  0  0  0  0  0  0  0  0  0  0  0
   -1.2760   -0.3302    1.4686 H   0  0  0  0  0  0  0  0  0  0  0  0
   -1.3324   -2.8241    0.0093 H   0  0  0  0  0  0  0  0  0  0  0  0
   -2.5992   -2.1681    1.0838 H   0  0  0  0  0  0  0  0  0  0  0  0
   -2.6418   -1.8510   -0.7269 H   0  0  0  0  0  0  0  0  0  0  0  0
    0.4062   -1.2339   -0.9127 H   0  0  0  0  0  0  0  0  0  0  0  0
    1.6606   -0.9354    1.8722 H   0  0  0  0  0  0  0  0  0  0  0  0
    3.0536   -1.7665   -0.0999 H   0  0  0  0  0  0  0  0  0  0  0  0
    3.6086   -0.1360    0.5794 H   0  0  0  0  0  0  0  0  0  0  0  0
    2.6152   -0.2734   -0.9576 H   0  0  0  0  0  0  0  0  0  0  0  0
    0.1434    0.9372    1.4715 H   0  0  0  0  0  0  0  0  0  0  0  0
  1  2  1  0
  2  3  1  0
  3  4  1  0
  4  5  1  0
  4  6  1  0
  6  7  1  0
  7  8  1  0
  7  9  1  0
  9  2  1  0
  9  6  1  0
  1 10  1  0
  1 11  1  0
  1 12  1  0
  2 13  1  0
  3 14  1  0
  3 15  1  0
  4 16  1  0
  5 17  1  0
  5 18  1  0
  5 19  1  0
  6 20  1  0
  7 21  1  0
  8 22  1  0
  8 23  1  0
  8 24  1  0
  9 25  1  0
M  END
