
     RDKit          3D

 23 23  0  0  0  0  0  0  0  0999 V2000
    2.4837   -0.3895    0.3356 C   0  0  0  0  0  0  0  0  0  0  0  0
    1.1784   -0.3562   -0.3912 C   0  0  0  0  0  0  0  0  0  0  0  0
    0.6102   -1.7188   -0.6324 C   0  0  0  0  0  0  0  0  0  0  0  0
   -0.7096   -1.6919   -0.5779 C   0  0  0  0  0  0  0  0  0  0  0  0
   -1.1292   -0.3042   -0.2960 C   0  0  0  0  0  0  0  0  0  0  0  0
   -2.4092   -0.2346    0.4983 C   0  0  0  0  0  0  0  0  0  0  0  0
    0.0518    0.2298    0.4771 C   0  0  0  0  0  0  0  0  0  0  0  0
    0.1299    1.7373    0.4607 C   0  0  0  0  0  0  0  0  0  0  0  0
   -0.0052    2.2149   -0.8237 O   0  0  0  0  0  0  0  0  0  0  0  0
    2.8073   -1.4269    0.5043 H   0  0  0  0  0  0  0  0  0  0  0  0
    3.2455    0.0855   -0.3211 H   0  0  0  0  0  0  0  0  0  0  0  0
    2.4177    0.1215    1.3100 H   0  0  0  0  0  0  0  0  0  0  0  0
    1.1952    0.2612   -1.3074 H   0  0  0  0  0  0  0  0  0  0  0  0
    1.2277   -2.5829   -0.8220 H   0  0  0  0  0  0  0  0  0  0  0  0
   -1.3892   -2.5431   -0.7157 H   0  0  0  0  0  0  0  0  0  0  0  0
   -1.2934    0.2591   -1.2371 H   0  0  0  0  0  0  0  0  0  0  0  0
   -2.4155   -0.8566    1.3945 H   0  0  0  0  0  0  0  0  0  0  0  0
   -2.5544    0.8449    0.7671 H   0  0  0  0  0  0  0  0  0  0  0  0
   -3.2436   -0.4899   -0.1797 H   0  0  0  0  0  0  0  0  0  0  0  0
    0.0312   -0.2025    1.4800 H   0  0  0  0  0  0  0  0  0  0  0  0
    1.1294    1.9984    0.9013 H   0  0  0  0  0  0  0  0  0  0  0  0
   -0.6163    2.1744    1.1489 H   0  0  0  0  0  0  0  0  0  0  0  0
   -0.7423    2.8702   -0.8770 H   0  0  0  0  0  0  0  0  0  0  0  0
  1  2  1  0
  2  3  1  0
  3  4  2  0
  4  5  1  0
  5  6  1  0
  5  7  1  0
  7  8  1  0
  8  9  1  0
  7  2  1  0
  1 10  1  0
  1 11  1  0
  1 12  1  0
  2 13  1  0
  3 14  1  0
  4 15  1  0
  5 16  1  0
  6 17  1  0
  6 18  1  0
  6 19  1  0
  7 20  1  0
  8 21  1  0
  8 22  1  0
  9 23  1  0
M  END
