
     RDKit          3D

 21 22  0  0  0  0  0  0  0  0999 V2000
    2.4974    0.2987   -0.2643 C   0  0  0  0  0  0  0  0  0  0  0  0
    1.2452    0.0729    0.4865 C   0  0  0  0  0  0  0  0  0  0  0  0
    0.8858   -1.3855    0.6742 C   0  0  0  0  0  0  0  0  0  0  0  0
   -0.4390   -1.2459    1.1547 O   0  0  0  0  0  0  0  0  0  0  0  0
   -1.0550   -0.3420    0.3288 C   0  0  0  0  0  0  0  0  0  0  0  0
   -2.1890   -0.8717   -0.4878 C   0  0  0  0  0  0  0  0  0  0  0  0
   -1.0526    1.1166    0.5824 C   0  0  0  0  0  0  0  0  0  0  0  0
   -2.0411    1.8791   -0.0402 O   0  0  0  0  0  0  0  0  0  0  0  0
   -0.0036    0.5361   -0.2766 C   0  0  0  0  0  0  0  0  0  0  0  0
    2.9286   -0.5786   -0.7572 H   0  0  0  0  0  0  0  0  0  0  0  0
    3.2808    0.6492    0.4711 H   0  0  0  0  0  0  0  0  0  0  0  0
    2.3506    1.1697   -0.9525 H   0  0  0  0  0  0  0  0  0  0  0  0
    1.2740    0.5337    1.5043 H   0  0  0  0  0  0  0  0  0  0  0  0
    1.5131   -1.9078    1.3875 H   0  0  0  0  0  0  0  0  0  0  0  0
    0.7812   -1.8876   -0.3117 H   0  0  0  0  0  0  0  0  0  0  0  0
   -2.6183   -0.0574   -1.1183 H   0  0  0  0  0  0  0  0  0  0  0  0
   -1.9732   -1.7882   -1.0410 H   0  0  0  0  0  0  0  0  0  0  0  0
   -3.0207   -1.1344    0.2300 H   0  0  0  0  0  0  0  0  0  0  0  0
   -0.7364    1.5432    1.5573 H   0  0  0  0  0  0  0  0  0  0  0  0
   -1.6794    2.7316   -0.3871 H   0  0  0  0  0  0  0  0  0  0  0  0
    0.0515    0.6684   -1.3557 H   0  0  0  0  0  0  0  0  0  0  0  0
  1  2  1  0
  2  3  1  0
  3  4  1  0
  4  5  1  0
  5  6  1  0
  5  7  1  0
  7  8  1  0
  7  9  1  0
  9  2  1  0
  9  5  1  0
  1 10  1  0
  1 11  1  0
  1 12  1  0
  2 13  1  0
  3 14  1  0
  3 15  1  0
  6 16  1  0
  6 17  1  0
  6 18  1  0
  7 19  1  0
  8 20  1  0
  9 21  1  0
M  END
