
     RDKit          3D

 19 21  0  0  0  0  0  0  0  0999 V2000
   -2.1063   -0.3487   -0.5691 C   0  0  0  0  0  0  0  0  0  0  0  0
   -0.7591   -0.6048    0.0528 C   0  0  0  0  0  0  0  0  0  0  0  0
   -0.3382    0.5073    0.9673 C   0  0  0  0  0  0  0  0  0  0  0  0
   -0.6662    1.7454    0.3686 O   0  0  0  0  0  0  0  0  0  0  0  0
    1.1717    0.4118    0.9138 C   0  0  0  0  0  0  0  0  0  0  0  0
    1.8638   -0.7154    0.2788 C   0  0  0  0  0  0  0  0  0  0  0  0
    1.2796   -1.6292   -0.5481 O   0  0  0  0  0  0  0  0  0  0  0  0
    0.3480   -0.6527   -0.9668 C   0  0  0  0  0  0  0  0  0  0  0  0
    1.3727    0.3532   -0.5447 C   0  0  0  0  0  0  0  0  0  0  0  0
   -1.9772   -0.0551   -1.6168 H   0  0  0  0  0  0  0  0  0  0  0  0
   -2.5887    0.4800   -0.0154 H   0  0  0  0  0  0  0  0  0  0  0  0
   -2.6977   -1.2852   -0.5361 H   0  0  0  0  0  0  0  0  0  0  0  0
   -0.8043   -1.5340    0.6776 H   0  0  0  0  0  0  0  0  0  0  0  0
   -0.7390    0.4302    1.9820 H   0  0  0  0  0  0  0  0  0  0  0  0
    0.0486    2.4108    0.6010 H   0  0  0  0  0  0  0  0  0  0  0  0
    1.7670    1.0542    1.5679 H   0  0  0  0  0  0  0  0  0  0  0  0
    2.8963   -0.9205    0.5659 H   0  0  0  0  0  0  0  0  0  0  0  0
    0.0675   -0.6929   -2.0109 H   0  0  0  0  0  0  0  0  0  0  0  0
    1.8616    1.0458   -1.1680 H   0  0  0  0  0  0  0  0  0  0  0  0
  1  2  1  0
  2  3  1  0
  3  4  1  0
  3  5  1  0
  5  6  1  0
  6  7  1  0
  7  8  1  0
  8  9  1  0
  8  2  1  0
  9  5  1  0
  9  6  1  0
  1 10  1  0
  1 11  1  0
  1 12  1  0
  2 13  1  0
  3 14  1  0
  4 15  1  0
  5 16  1  0
  6 17  1  0
  8 18  1  0
  9 19  1  0
M  END
