
     RDKit          3D

 19 19  0  0  0  0  0  0  0  0999 V2000
    2.2026   -0.1363    0.1454 C   0  0  0  0  0  0  0  0  0  0  0  0
    0.7667    0.1299   -0.2570 C   0  0  0  0  0  0  0  0  0  0  0  0
    0.3332    1.4848    0.1486 C   0  0  0  0  0  0  0  0  0  0  0  0
   -0.9692    1.7381    0.1453 C   0  0  0  0  0  0  0  0  0  0  0  0
   -1.8611    0.6625   -0.2563 C   0  0  0  0  0  0  0  0  0  0  0  0
   -2.8669    0.9460   -0.9944 O   0  0  0  0  0  0  0  0  0  0  0  0
   -1.5706   -0.6993    0.2014 C   0  0  0  0  0  0  0  0  0  0  0  0
   -0.1050   -0.9579    0.2837 C   0  0  0  0  0  0  0  0  0  0  0  0
    0.1623   -2.1685   -0.3998 O   0  0  0  0  0  0  0  0  0  0  0  0
    2.2531   -0.2637    1.2496 H   0  0  0  0  0  0  0  0  0  0  0  0
    2.5194   -1.0464   -0.4034 H   0  0  0  0  0  0  0  0  0  0  0  0
    2.8601    0.6806   -0.1654 H   0  0  0  0  0  0  0  0  0  0  0  0
    0.7322    0.0644   -1.3806 H   0  0  0  0  0  0  0  0  0  0  0  0
    1.0251    2.2652    0.4433 H   0  0  0  0  0  0  0  0  0  0  0  0
   -1.3797    2.7038    0.4243 H   0  0  0  0  0  0  0  0  0  0  0  0
   -2.0928   -1.4797   -0.4044 H   0  0  0  0  0  0  0  0  0  0  0  0
   -2.0466   -0.7921    1.2221 H   0  0  0  0  0  0  0  0  0  0  0  0
    0.1699   -1.1510    1.3439 H   0  0  0  0  0  0  0  0  0  0  0  0
   -0.1327   -1.9804   -1.3465 H   0  0  0  0  0  0  0  0  0  0  0  0
  1  2  1  0
  2  3  1  0
  3  4  2  0
  4  5  1  0
  5  6  2  0
  5  7  1  0
  7  8  1  0
  8  9  1  0
  8  2  1  0
  1 10  1  0
  1 11  1  0
  1 12  1  0
  2 13  1  0
  3 14  1  0
  4 15  1  0
  7 16  1  0
  7 17  1  0
  8 18  1  0
  9 19  1  0
M  END
