
     RDKit          3D

 20 21  0  0  0  0  0  0  0  0999 V2000
    2.4003   -0.0361    0.2391 C   0  0  0  0  0  0  0  0  0  0  0  0
    0.8959   -0.3199    0.2453 C   0  0  0  0  0  0  0  0  0  0  0  0
    0.5010   -0.7347   -1.1785 C   0  0  0  0  0  0  0  0  0  0  0  0
   -0.7555    0.0834   -0.9538 C   0  0  0  0  0  0  0  0  0  0  0  0
   -1.7664   -0.6213   -0.0917 C   0  0  0  0  0  0  0  0  0  0  0  0
   -2.0102    0.3125    1.0201 C   0  0  0  0  0  0  0  0  0  0  0  0
   -0.9952    1.1478    1.1074 C   0  0  0  0  0  0  0  0  0  0  0  0
    0.0320    0.8715    0.0735 C   0  0  0  0  0  0  0  0  0  0  0  0
    2.9551   -0.9277   -0.0626 H   0  0  0  0  0  0  0  0  0  0  0  0
    2.5382    0.7377   -0.5693 H   0  0  0  0  0  0  0  0  0  0  0  0
    2.6869    0.3722    1.2177 H   0  0  0  0  0  0  0  0  0  0  0  0
    0.5627   -0.9926    1.0307 H   0  0  0  0  0  0  0  0  0  0  0  0
    1.1210   -0.3006   -1.9598 H   0  0  0  0  0  0  0  0  0  0  0  0
    0.3422   -1.8277   -1.2596 H   0  0  0  0  0  0  0  0  0  0  0  0
   -1.1283    0.6390   -1.8121 H   0  0  0  0  0  0  0  0  0  0  0  0
   -2.6880   -0.8897   -0.6466 H   0  0  0  0  0  0  0  0  0  0  0  0
   -1.2810   -1.5237    0.3522 H   0  0  0  0  0  0  0  0  0  0  0  0
   -2.9222    0.2707    1.6494 H   0  0  0  0  0  0  0  0  0  0  0  0
   -0.9758    1.9361    1.8819 H   0  0  0  0  0  0  0  0  0  0  0  0
    0.4872    1.8032   -0.2832 H   0  0  0  0  0  0  0  0  0  0  0  0
  1  2  1  0
  2  3  1  0
  3  4  1  0
  4  5  1  0
  5  6  1  0
  6  7  2  0
  7  8  1  0
  8  2  1  0
  8  4  1  0
  1  9  1  0
  1 10  1  0
  1 11  1  0
  2 12  1  0
  3 13  1  0
  3 14  1  0
  4 15  1  0
  5 16  1  0
  5 17  1  0
  6 18  1  0
  7 19  1  0
  8 20  1  0
M  END
