
     RDKit          3D

 21 23  0  0  0  0  0  0  0  0999 V2000
    2.3550   -0.8839   -0.1632 C   0  0  0  0  0  0  0  0  0  0  0  0
    1.7495    0.4343   -0.5924 C   0  0  0  0  0  0  0  0  0  0  0  0
    0.9294    1.1541    0.3858 C   0  0  0  0  0  0  0  0  0  0  0  0
   -0.0482    0.2747    1.1773 C   0  0  0  0  0  0  0  0  0  0  0  0
   -0.7652    0.0365   -0.1082 C   0  0  0  0  0  0  0  0  0  0  0  0
   -1.5569   -1.1323   -0.4173 C   0  0  0  0  0  0  0  0  0  0  0  0
   -2.1732    0.2818   -0.3257 C   0  0  0  0  0  0  0  0  0  0  0  0
   -3.0950    0.4311    0.7292 O   0  0  0  0  0  0  0  0  0  0  0  0
    0.3384    0.5760   -0.9380 C   0  0  0  0  0  0  0  0  0  0  0  0
    1.6794   -1.7439   -0.3529 H   0  0  0  0  0  0  0  0  0  0  0  0
    3.3563   -1.0610   -0.6237 H   0  0  0  0  0  0  0  0  0  0  0  0
    2.5497   -0.8866    0.9444 H   0  0  0  0  0  0  0  0  0  0  0  0
    2.4632    1.0586   -1.1999 H   0  0  0  0  0  0  0  0  0  0  0  0
    0.8497    2.2364    0.4657 H   0  0  0  0  0  0  0  0  0  0  0  0
    0.4301   -0.6790    1.5307 H   0  0  0  0  0  0  0  0  0  0  0  0
   -0.5786    0.8162    1.9693 H   0  0  0  0  0  0  0  0  0  0  0  0
   -1.5636   -1.5907   -1.4450 H   0  0  0  0  0  0  0  0  0  0  0  0
   -1.8756   -1.8637    0.3672 H   0  0  0  0  0  0  0  0  0  0  0  0
   -2.5342    0.7420   -1.2583 H   0  0  0  0  0  0  0  0  0  0  0  0
   -2.5529    0.4736    1.5576 H   0  0  0  0  0  0  0  0  0  0  0  0
    0.0426    1.3257   -1.7027 H   0  0  0  0  0  0  0  0  0  0  0  0
  1  2  1  0
  2  3  1  0
  3  4  1  0
  4  5  1  0
  5  6  1  0
  6  7  1  0
  7  8  1  0
  5  9  1  0
  9  2  1  0
  9  3  1  0
  7  5  1  0
  1 10  1  0
  1 11  1  0
  1 12  1  0
  2 13  1  0
  3 14  1  0
  4 15  1  0
  4 16  1  0
  6 17  1  0
  6 18  1  0
  7 19  1  0
  8 20  1  0
  9 21  1  0
M  END
