
     RDKit          3D

 21 22  0  0  0  0  0  0  0  0999 V2000
   -2.5135   -0.2849    0.2185 C   0  0  0  0  0  0  0  0  0  0  0  0
   -1.1802   -0.1314   -0.5073 C   0  0  0  0  0  0  0  0  0  0  0  0
   -0.7341    1.2850   -0.2934 C   0  0  0  0  0  0  0  0  0  0  0  0
    0.7020    1.5223   -0.5529 C   0  0  0  0  0  0  0  0  0  0  0  0
    1.5368    0.5473   -0.3006 C   0  0  0  0  0  0  0  0  0  0  0  0
    2.8677   -0.0782   -0.2351 C   0  0  0  0  0  0  0  0  0  0  0  0
    2.1964   -1.2966   -0.5234 O   0  0  0  0  0  0  0  0  0  0  0  0
    1.1475   -0.7594    0.2221 C   0  0  0  0  0  0  0  0  0  0  0  0
   -0.2303   -1.1954   -0.0767 C   0  0  0  0  0  0  0  0  0  0  0  0
   -3.2781   -0.7651   -0.3876 H   0  0  0  0  0  0  0  0  0  0  0  0
   -2.9036    0.6744    0.5877 H   0  0  0  0  0  0  0  0  0  0  0  0
   -2.3478   -0.9135    1.1431 H   0  0  0  0  0  0  0  0  0  0  0  0
   -1.4203   -0.2367   -1.5955 H   0  0  0  0  0  0  0  0  0  0  0  0
   -1.3125    1.9496   -0.9686 H   0  0  0  0  0  0  0  0  0  0  0  0
   -0.9956    1.6265    0.7417 H   0  0  0  0  0  0  0  0  0  0  0  0
    1.0129    2.4756   -0.9350 H   0  0  0  0  0  0  0  0  0  0  0  0
    3.2525   -0.1118    0.8209 H   0  0  0  0  0  0  0  0  0  0  0  0
    3.6044    0.2124   -0.9880 H   0  0  0  0  0  0  0  0  0  0  0  0
    1.4319   -0.8365    1.3102 H   0  0  0  0  0  0  0  0  0  0  0  0
   -0.1910   -1.9847   -0.8655 H   0  0  0  0  0  0  0  0  0  0  0  0
   -0.6449   -1.6989    0.8229 H   0  0  0  0  0  0  0  0  0  0  0  0
  1  2  1  0
  2  3  1  0
  3  4  1  0
  4  5  2  0
  5  6  1  0
  6  7  1  0
  7  8  1  0
  8  9  1  0
  9  2  1  0
  8  5  1  0
  1 10  1  0
  1 11  1  0
  1 12  1  0
  2 13  1  0
  3 14  1  0
  3 15  1  0
  4 16  1  0
  6 17  1  0
  6 18  1  0
  8 19  1  0
  9 20  1  0
  9 21  1  0
M  END
