
     RDKit          3D

 23 24  0  0  0  0  0  0  0  0999 V2000
    2.2996    0.2819    0.8822 C   0  0  0  0  0  0  0  0  0  0  0  0
    1.2362   -0.3848    0.0716 C   0  0  0  0  0  0  0  0  0  0  0  0
   -0.0462   -0.6159    0.8865 C   0  0  0  0  0  0  0  0  0  0  0  0
   -1.1806   -0.1916    0.0156 C   0  0  0  0  0  0  0  0  0  0  0  0
   -2.4424   -0.9111    0.1777 C   0  0  0  0  0  0  0  0  0  0  0  0
   -0.5590   -0.3542   -1.3857 C   0  0  0  0  0  0  0  0  0  0  0  0
    0.6800    0.4857   -1.0220 C   0  0  0  0  0  0  0  0  0  0  0  0
   -0.0093    1.6484   -0.3422 C   0  0  0  0  0  0  0  0  0  0  0  0
   -1.2666    1.1960    0.0633 O   0  0  0  0  0  0  0  0  0  0  0  0
    3.0018   -0.5183    1.2292 H   0  0  0  0  0  0  0  0  0  0  0  0
    2.8824    1.0396    0.3291 H   0  0  0  0  0  0  0  0  0  0  0  0
    1.8708    0.7566    1.7931 H   0  0  0  0  0  0  0  0  0  0  0  0
    1.5250   -1.3840   -0.3157 H   0  0  0  0  0  0  0  0  0  0  0  0
   -0.1032   -1.6611    1.2382 H   0  0  0  0  0  0  0  0  0  0  0  0
    0.0506    0.0310    1.7863 H   0  0  0  0  0  0  0  0  0  0  0  0
   -2.3595   -1.9181   -0.3019 H   0  0  0  0  0  0  0  0  0  0  0  0
   -3.2579   -0.3636   -0.3211 H   0  0  0  0  0  0  0  0  0  0  0  0
   -2.6383   -1.0997    1.2495 H   0  0  0  0  0  0  0  0  0  0  0  0
   -0.3003   -1.3923   -1.5971 H   0  0  0  0  0  0  0  0  0  0  0  0
   -1.1713    0.1448   -2.1400 H   0  0  0  0  0  0  0  0  0  0  0  0
    1.3141    0.7146   -1.8391 H   0  0  0  0  0  0  0  0  0  0  0  0
    0.5540    1.9762    0.5532 H   0  0  0  0  0  0  0  0  0  0  0  0
   -0.0799    2.5200   -1.0108 H   0  0  0  0  0  0  0  0  0  0  0  0
  1  2  1  0
  2  3  1  0
  3  4  1  0
  4  5  1  0
  4  6  1  0
  6  7  1  0
  7  8  1  0
  8  9  1  0
  7  2  1  0
  9  4  1  0
  1 10  1  0
  1 11  1  0
  1 12  1  0
  2 13  1  0
  3 14  1  0
  3 15  1  0
  5 16  1  0
  5 17  1  0
  5 18  1  0
  6 19  1  0
  6 20  1  0
  7 21  1  0
  8 22  1  0
  8 23  1  0
M  END
