
     RDKit          3D

 21 23  0  0  0  0  0  0  0  0999 V2000
    1.7252    1.2338    0.6209 C   0  0  0  0  0  0  0  0  0  0  0  0
    1.4594   -0.1469    0.1090 C   0  0  0  0  0  0  0  0  0  0  0  0
    1.0952   -0.1877   -1.3825 C   0  0  0  0  0  0  0  0  0  0  0  0
    0.2045   -0.6428   -0.3514 C   0  0  0  0  0  0  0  0  0  0  0  0
   -0.3276   -2.0223   -0.1953 C   0  0  0  0  0  0  0  0  0  0  0  0
   -1.6124   -1.5079   -0.4868 O   0  0  0  0  0  0  0  0  0  0  0  0
   -1.1519   -0.2826   -0.0537 C   0  0  0  0  0  0  0  0  0  0  0  0
   -1.8562    0.9610   -0.2781 C   0  0  0  0  0  0  0  0  0  0  0  0
   -1.6775    0.3692    1.1425 C   0  0  0  0  0  0  0  0  0  0  0  0
    1.8806    1.2312    1.7243 H   0  0  0  0  0  0  0  0  0  0  0  0
    0.9696    1.9677    0.3511 H   0  0  0  0  0  0  0  0  0  0  0  0
    2.7157    1.5653    0.1970 H   0  0  0  0  0  0  0  0  0  0  0  0
    2.2575   -0.8844    0.3945 H   0  0  0  0  0  0  0  0  0  0  0  0
    1.6244   -0.9448   -2.0147 H   0  0  0  0  0  0  0  0  0  0  0  0
    0.8919    0.7716   -1.8936 H   0  0  0  0  0  0  0  0  0  0  0  0
   -0.3256   -2.3603    0.8490 H   0  0  0  0  0  0  0  0  0  0  0  0
    0.0045   -2.7363   -0.9549 H   0  0  0  0  0  0  0  0  0  0  0  0
   -1.3840    1.9318   -0.4548 H   0  0  0  0  0  0  0  0  0  0  0  0
   -2.8941    0.8815   -0.7105 H   0  0  0  0  0  0  0  0  0  0  0  0
   -2.6175   -0.0784    1.5677 H   0  0  0  0  0  0  0  0  0  0  0  0
   -0.9815    0.8813    1.8204 H   0  0  0  0  0  0  0  0  0  0  0  0
  1  2  1  0
  2  3  1  0
  3  4  1  0
  4  5  1  0
  5  6  1  0
  6  7  1  0
  7  8  1  0
  8  9  1  0
  4  2  1  0
  9  7  1  0
  7  4  1  0
  1 10  1  0
  1 11  1  0
  1 12  1  0
  2 13  1  0
  3 14  1  0
  3 15  1  0
  5 16  1  0
  5 17  1  0
  8 18  1  0
  8 19  1  0
  9 20  1  0
  9 21  1  0
M  END
