
     RDKit          3D

 17 17  0  0  0  0  0  0  0  0999 V2000
    1.6811    0.9793   -0.1875 C   0  0  0  0  0  0  0  0  0  0  0  0
    0.5288    0.0713   -0.5265 C   0  0  0  0  0  0  0  0  0  0  0  0
    0.6262   -1.0967    0.4798 C   0  0  0  0  0  0  0  0  0  0  0  0
   -0.8000   -1.5223    0.5395 C   0  0  0  0  0  0  0  0  0  0  0  0
   -1.6180   -0.5596    0.1581 C   0  0  0  0  0  0  0  0  0  0  0  0
   -0.8064    0.6213   -0.1976 C   0  0  0  0  0  0  0  0  0  0  0  0
   -1.4262    1.2608   -1.2748 O   0  0  0  0  0  0  0  0  0  0  0  0
    1.7010    1.9125   -0.7543 H   0  0  0  0  0  0  0  0  0  0  0  0
    2.6173    0.3626   -0.3245 H   0  0  0  0  0  0  0  0  0  0  0  0
    1.6267    1.1578    0.9188 H   0  0  0  0  0  0  0  0  0  0  0  0
    0.5876   -0.3741   -1.5252 H   0  0  0  0  0  0  0  0  0  0  0  0
    1.2821   -1.8638    0.0710 H   0  0  0  0  0  0  0  0  0  0  0  0
    0.9298   -0.7319    1.4675 H   0  0  0  0  0  0  0  0  0  0  0  0
   -1.1404   -2.5080    0.8584 H   0  0  0  0  0  0  0  0  0  0  0  0
   -2.7348   -0.6256    0.1117 H   0  0  0  0  0  0  0  0  0  0  0  0
   -0.7453    1.3411    0.6472 H   0  0  0  0  0  0  0  0  0  0  0  0
   -2.3095    1.5755   -0.9528 H   0  0  0  0  0  0  0  0  0  0  0  0
  1  2  1  0
  2  3  1  0
  3  4  1  0
  4  5  2  0
  5  6  1  0
  6  7  1  0
  6  2  1  0
  1  8  1  0
  1  9  1  0
  1 10  1  0
  2 11  1  0
  3 12  1  0
  3 13  1  0
  4 14  1  0
  5 15  1  0
  6 16  1  0
  7 17  1  0
M  END
