
     RDKit          3D

 21 23  0  0  0  0  0  0  0  0999 V2000
   -1.3082   -1.5684    0.0129 C   0  0  0  0  0  0  0  0  0  0  0  0
   -0.5493   -0.3954   -0.5235 C   0  0  0  0  0  0  0  0  0  0  0  0
   -1.4516    0.8142   -0.5839 C   0  0  0  0  0  0  0  0  0  0  0  0
   -0.7279    1.9494    0.0697 C   0  0  0  0  0  0  0  0  0  0  0  0
    0.5328    2.3254   -0.3457 O   0  0  0  0  0  0  0  0  0  0  0  0
    0.4932    1.4022    0.7066 C   0  0  0  0  0  0  0  0  0  0  0  0
    0.6553   -0.0224    0.2607 C   0  0  0  0  0  0  0  0  0  0  0  0
    1.6047   -0.9532    0.8357 C   0  0  0  0  0  0  0  0  0  0  0  0
    2.0139   -0.3055   -0.4564 C   0  0  0  0  0  0  0  0  0  0  0  0
   -0.6761   -2.1437    0.7162 H   0  0  0  0  0  0  0  0  0  0  0  0
   -2.2651   -1.2711    0.4939 H   0  0  0  0  0  0  0  0  0  0  0  0
   -1.5999   -2.2783   -0.8068 H   0  0  0  0  0  0  0  0  0  0  0  0
   -0.2728   -0.6313   -1.5886 H   0  0  0  0  0  0  0  0  0  0  0  0
   -2.3887    0.6353   -0.0109 H   0  0  0  0  0  0  0  0  0  0  0  0
   -1.7833    1.0457   -1.6258 H   0  0  0  0  0  0  0  0  0  0  0  0
   -1.3058    2.7612    0.5433 H   0  0  0  0  0  0  0  0  0  0  0  0
    0.7410    1.7182    1.7230 H   0  0  0  0  0  0  0  0  0  0  0  0
    1.4010   -2.0366    0.7535 H   0  0  0  0  0  0  0  0  0  0  0  0
    2.2042   -0.6757    1.7094 H   0  0  0  0  0  0  0  0  0  0  0  0
    2.7363    0.5125   -0.4852 H   0  0  0  0  0  0  0  0  0  0  0  0
    1.9465   -0.8825   -1.3982 H   0  0  0  0  0  0  0  0  0  0  0  0
  1  2  1  0
  2  3  1  0
  3  4  1  0
  4  5  1  0
  5  6  1  0
  6  7  1  0
  7  8  1  0
  8  9  1  0
  7  2  1  0
  6  4  1  0
  9  7  1  0
  1 10  1  0
  1 11  1  0
  1 12  1  0
  2 13  1  0
  3 14  1  0
  3 15  1  0
  4 16  1  0
  6 17  1  0
  8 18  1  0
  8 19  1  0
  9 20  1  0
  9 21  1  0
M  END
