
     RDKit          3D

 21 22  0  0  0  0  0  0  0  0999 V2000
    2.1318    0.0209    0.2897 C   0  0  0  0  0  0  0  0  0  0  0  0
    0.7936   -0.1993   -0.3940 C   0  0  0  0  0  0  0  0  0  0  0  0
    0.1602   -1.4068    0.2360 C   0  0  0  0  0  0  0  0  0  0  0  0
   -1.2991   -1.5340   -0.0867 C   0  0  0  0  0  0  0  0  0  0  0  0
   -1.6641   -0.5384   -0.9369 O   0  0  0  0  0  0  0  0  0  0  0  0
   -1.4956    0.7386   -0.4858 C   0  0  0  0  0  0  0  0  0  0  0  0
   -1.0291    1.1208    0.8399 C   0  0  0  0  0  0  0  0  0  0  0  0
   -0.0555    1.0374   -0.2916 C   0  0  0  0  0  0  0  0  0  0  0  0
    0.5175    2.1926   -0.7683 O   0  0  0  0  0  0  0  0  0  0  0  0
    2.1147    0.9772    0.8477 H   0  0  0  0  0  0  0  0  0  0  0  0
    2.9796   -0.0074   -0.4295 H   0  0  0  0  0  0  0  0  0  0  0  0
    2.3495   -0.7679    1.0464 H   0  0  0  0  0  0  0  0  0  0  0  0
    0.9641   -0.3878   -1.4807 H   0  0  0  0  0  0  0  0  0  0  0  0
    0.2431   -1.2913    1.3413 H   0  0  0  0  0  0  0  0  0  0  0  0
    0.7332   -2.2984   -0.0537 H   0  0  0  0  0  0  0  0  0  0  0  0
   -1.9567   -1.5238    0.8003 H   0  0  0  0  0  0  0  0  0  0  0  0
   -1.4469   -2.5063   -0.5895 H   0  0  0  0  0  0  0  0  0  0  0  0
   -2.0526    1.5073   -1.0766 H   0  0  0  0  0  0  0  0  0  0  0  0
   -1.3406    2.1252    1.2236 H   0  0  0  0  0  0  0  0  0  0  0  0
   -0.8401    0.4076    1.6595 H   0  0  0  0  0  0  0  0  0  0  0  0
    0.1929    2.3338   -1.6912 H   0  0  0  0  0  0  0  0  0  0  0  0
  1  2  1  0
  2  3  1  0
  3  4  1  0
  4  5  1  0
  5  6  1  0
  6  7  1  0
  7  8  1  0
  8  9  1  0
  8  2  1  0
  8  6  1  0
  1 10  1  0
  1 11  1  0
  1 12  1  0
  2 13  1  0
  3 14  1  0
  3 15  1  0
  4 16  1  0
  4 17  1  0
  6 18  1  0
  7 19  1  0
  7 20  1  0
  9 21  1  0
M  END
