
     RDKit          3D

 18 19  0  0  0  0  0  0  0  0999 V2000
    1.9648   -0.2822   -0.5330 C   0  0  0  0  0  0  0  0  0  0  0  0
    0.7701   -0.3651    0.3974 C   0  0  0  0  0  0  0  0  0  0  0  0
    0.4753    0.9234    1.0401 C   0  0  0  0  0  0  0  0  0  0  0  0
   -0.5274    1.5262    0.4423 C   0  0  0  0  0  0  0  0  0  0  0  0
   -1.0094    0.6872   -0.6755 C   0  0  0  0  0  0  0  0  0  0  0  0
   -2.2651    0.1717   -0.3583 O   0  0  0  0  0  0  0  0  0  0  0  0
   -1.7174   -0.9472    0.3098 C   0  0  0  0  0  0  0  0  0  0  0  0
   -0.4284   -0.6850   -0.4367 C   0  0  0  0  0  0  0  0  0  0  0  0
    2.5647   -1.2063   -0.3831 H   0  0  0  0  0  0  0  0  0  0  0  0
    1.6608   -0.2200   -1.6005 H   0  0  0  0  0  0  0  0  0  0  0  0
    2.5216    0.6399   -0.3112 H   0  0  0  0  0  0  0  0  0  0  0  0
    0.9319   -1.1549    1.1791 H   0  0  0  0  0  0  0  0  0  0  0  0
    1.0334    1.3286    1.9186 H   0  0  0  0  0  0  0  0  0  0  0  0
   -0.9631    2.4800    0.6914 H   0  0  0  0  0  0  0  0  0  0  0  0
   -0.8859    1.1005   -1.6745 H   0  0  0  0  0  0  0  0  0  0  0  0
   -1.6436   -0.8513    1.3936 H   0  0  0  0  0  0  0  0  0  0  0  0
   -2.2223   -1.8738   -0.0574 H   0  0  0  0  0  0  0  0  0  0  0  0
   -0.2599   -1.2716   -1.3421 H   0  0  0  0  0  0  0  0  0  0  0  0
  1  2  1  0
  2  3  1  0
  3  4  2  0
  4  5  1  0
  5  6  1  0
  6  7  1  0
  7  8  1  0
  8  2  1  0
  8  5  1  0
  1  9  1  0
  1 10  1  0
  1 11  1  0
  2 12  1  0
  3 13  1  0
  4 14  1  0
  5 15  1  0
  7 16  1  0
  7 17  1  0
  8 18  1  0
M  END
