
     RDKit          3D

 16 17  0  0  0  0  0  0  0  0999 V2000
    1.7036   -0.0518   -0.7359 C   0  0  0  0  0  0  0  0  0  0  0  0
    0.3642   -0.6365   -0.4139 C   0  0  0  0  0  0  0  0  0  0  0  0
   -0.8367    0.1143   -0.8904 C   0  0  0  0  0  0  0  0  0  0  0  0
   -1.5705   -0.5236    0.2644 C   0  0  0  0  0  0  0  0  0  0  0  0
   -0.2526   -0.0695    0.8454 C   0  0  0  0  0  0  0  0  0  0  0  0
    0.1531   -0.2007    2.0198 O   0  0  0  0  0  0  0  0  0  0  0  0
   -0.4568    1.1720    0.0696 C   0  0  0  0  0  0  0  0  0  0  0  0
   -0.3686    2.3804    0.1543 O   0  0  0  0  0  0  0  0  0  0  0  0
    2.4628   -0.4443   -0.0308 H   0  0  0  0  0  0  0  0  0  0  0  0
    1.6559    1.0496   -0.5516 H   0  0  0  0  0  0  0  0  0  0  0  0
    2.0259   -0.2975   -1.7559 H   0  0  0  0  0  0  0  0  0  0  0  0
    0.2866   -1.7286   -0.5322 H   0  0  0  0  0  0  0  0  0  0  0  0
   -1.1730    0.2267   -1.8258 H   0  0  0  0  0  0  0  0  0  0  0  0
   -2.4562    0.0497    0.5599 H   0  0  0  0  0  0  0  0  0  0  0  0
   -1.6701   -1.6106    0.2049 H   0  0  0  0  0  0  0  0  0  0  0  0
    0.1322    0.5704    2.6183 H   0  0  0  0  0  0  0  0  0  0  0  0
  1  2  1  0
  2  3  1  0
  3  4  1  0
  4  5  1  0
  5  6  1  0
  5  7  1  0
  7  8  2  0
  5  2  1  0
  7  3  1  0
  1  9  1  0
  1 10  1  0
  1 11  1  0
  2 12  1  0
  3 13  1  0
  4 14  1  0
  4 15  1  0
  6 16  1  0
M  END
