
     RDKit          3D

 25 26  0  0  0  0  0  0  0  0999 V2000
   -1.6855   -0.1082    1.4458 C   0  0  0  0  0  0  0  0  0  0  0  0
   -1.2771    0.7436    0.2470 C   0  0  0  0  0  0  0  0  0  0  0  0
   -2.0890    0.2732   -0.9734 C   0  0  0  0  0  0  0  0  0  0  0  0
   -1.0421   -0.8516   -1.0629 C   0  0  0  0  0  0  0  0  0  0  0  0
   -0.1208    0.1374   -0.4354 C   0  0  0  0  0  0  0  0  0  0  0  0
    0.8702    0.7895   -1.2508 C   0  0  0  0  0  0  0  0  0  0  0  0
    1.2138   -0.0118   -0.0138 C   0  0  0  0  0  0  0  0  0  0  0  0
    1.7376    0.8775    1.1211 C   0  0  0  0  0  0  0  0  0  0  0  0
    1.9287   -1.3140   -0.1286 C   0  0  0  0  0  0  0  0  0  0  0  0
   -2.4713   -0.8242    1.2144 H   0  0  0  0  0  0  0  0  0  0  0  0
   -1.9756    0.4996    2.3117 H   0  0  0  0  0  0  0  0  0  0  0  0
   -0.7982   -0.7175    1.7894 H   0  0  0  0  0  0  0  0  0  0  0  0
   -1.2971    1.8174    0.4175 H   0  0  0  0  0  0  0  0  0  0  0  0
   -1.9214    0.9713   -1.7918 H   0  0  0  0  0  0  0  0  0  0  0  0
   -3.0957   -0.0584   -0.7502 H   0  0  0  0  0  0  0  0  0  0  0  0
   -1.2623   -1.6804   -0.3412 H   0  0  0  0  0  0  0  0  0  0  0  0
   -0.7825   -1.1491   -2.0789 H   0  0  0  0  0  0  0  0  0  0  0  0
    1.0881    0.3304   -2.2577 H   0  0  0  0  0  0  0  0  0  0  0  0
    0.9516    1.8730   -1.2562 H   0  0  0  0  0  0  0  0  0  0  0  0
    1.9318    0.2895    2.0168 H   0  0  0  0  0  0  0  0  0  0  0  0
    2.7066    1.3308    0.7742 H   0  0  0  0  0  0  0  0  0  0  0  0
    1.0513    1.7335    1.2620 H   0  0  0  0  0  0  0  0  0  0  0  0
    3.0243   -1.1308   -0.0598 H   0  0  0  0  0  0  0  0  0  0  0  0
    1.6429   -1.9099   -0.9953 H   0  0  0  0  0  0  0  0  0  0  0  0
    1.6716   -1.9109    0.7963 H   0  0  0  0  0  0  0  0  0  0  0  0
  1  2  1  0
  2  3  1  0
  3  4  1  0
  4  5  1  0
  5  6  1  0
  6  7  1  0
  7  8  1  0
  7  9  1  0
  5  2  1  0
  7  5  1  0
  1 10  1  0
  1 11  1  0
  1 12  1  0
  2 13  1  0
  3 14  1  0
  3 15  1  0
  4 16  1  0
  4 17  1  0
  6 18  1  0
  6 19  1  0
  8 20  1  0
  8 21  1  0
  8 22  1  0
  9 23  1  0
  9 24  1  0
  9 25  1  0
M  END
