
     RDKit          3D

 23 25  0  0  0  0  0  0  0  0999 V2000
   -2.9007    0.3762    0.0898 C   0  0  0  0  0  0  0  0  0  0  0  0
   -1.7959    0.2795   -0.9045 C   0  0  0  0  0  0  0  0  0  0  0  0
   -0.6503   -0.6246   -0.7663 C   0  0  0  0  0  0  0  0  0  0  0  0
    0.1273   -0.7948    0.4865 C   0  0  0  0  0  0  0  0  0  0  0  0
    1.5704   -1.2329    0.2354 C   0  0  0  0  0  0  0  0  0  0  0  0
    2.2535    0.0453   -0.1537 C   0  0  0  0  0  0  0  0  0  0  0  0
    1.6256    1.0962    0.7400 C   0  0  0  0  0  0  0  0  0  0  0  0
    0.1770    0.6777    0.7505 C   0  0  0  0  0  0  0  0  0  0  0  0
   -0.4733    0.9186   -0.5705 C   0  0  0  0  0  0  0  0  0  0  0  0
   -3.1553   -0.5788    0.5898 H   0  0  0  0  0  0  0  0  0  0  0  0
   -3.8585    0.7311   -0.3743 H   0  0  0  0  0  0  0  0  0  0  0  0
   -2.6550    1.1670    0.8511 H   0  0  0  0  0  0  0  0  0  0  0  0
   -2.1148    0.4877   -1.9623 H   0  0  0  0  0  0  0  0  0  0  0  0
   -0.1730   -1.0406   -1.6830 H   0  0  0  0  0  0  0  0  0  0  0  0
   -0.3987   -1.4193    1.2288 H   0  0  0  0  0  0  0  0  0  0  0  0
    1.6271   -1.9134   -0.6563 H   0  0  0  0  0  0  0  0  0  0  0  0
    2.0112   -1.7508    1.0834 H   0  0  0  0  0  0  0  0  0  0  0  0
    3.3381    0.0282   -0.0463 H   0  0  0  0  0  0  0  0  0  0  0  0
    1.9124    0.2879   -1.1954 H   0  0  0  0  0  0  0  0  0  0  0  0
    2.0955    1.0364    1.7286 H   0  0  0  0  0  0  0  0  0  0  0  0
    1.7040    2.0745    0.2475 H   0  0  0  0  0  0  0  0  0  0  0  0
   -0.3793    0.9508    1.6531 H   0  0  0  0  0  0  0  0  0  0  0  0
    0.1129    1.4254   -1.3720 H   0  0  0  0  0  0  0  0  0  0  0  0
  1  2  1  0
  2  3  1  0
  3  4  1  0
  4  5  1  0
  5  6  1  0
  6  7  1  0
  7  8  1  0
  8  9  1  0
  9  2  1  0
  9  3  1  0
  8  4  1  0
  1 10  1  0
  1 11  1  0
  1 12  1  0
  2 13  1  0
  3 14  1  0
  4 15  1  0
  5 16  1  0
  5 17  1  0
  6 18  1  0
  6 19  1  0
  7 20  1  0
  7 21  1  0
  8 22  1  0
  9 23  1  0
M  END
