
     RDKit          3D

 18 18  0  0  0  0  0  0  0  0999 V2000
   -2.0089    0.0952   -0.7036 C   0  0  0  0  0  0  0  0  0  0  0  0
   -0.9259    0.0556    0.3266 C   0  0  0  0  0  0  0  0  0  0  0  0
   -0.1636   -1.2164    0.3865 C   0  0  0  0  0  0  0  0  0  0  0  0
    1.2819   -0.8846    0.0509 C   0  0  0  0  0  0  0  0  0  0  0  0
    1.2918    0.5284   -0.4646 C   0  0  0  0  0  0  0  0  0  0  0  0
    2.4576    1.1881   -0.0688 O   0  0  0  0  0  0  0  0  0  0  0  0
    0.0787    1.1530    0.0884 C   0  0  0  0  0  0  0  0  0  0  0  0
   -0.0816    2.3388    0.3117 O   0  0  0  0  0  0  0  0  0  0  0  0
   -1.6595    0.1264   -1.7329 H   0  0  0  0  0  0  0  0  0  0  0  0
   -2.7116   -0.7319   -0.4885 H   0  0  0  0  0  0  0  0  0  0  0  0
   -2.5819    1.0426   -0.5240 H   0  0  0  0  0  0  0  0  0  0  0  0
   -1.3946    0.2673    1.3228 H   0  0  0  0  0  0  0  0  0  0  0  0
   -0.1514   -1.6149    1.4381 H   0  0  0  0  0  0  0  0  0  0  0  0
   -0.5397   -2.0238   -0.2551 H   0  0  0  0  0  0  0  0  0  0  0  0
    1.6805   -1.5986   -0.6851 H   0  0  0  0  0  0  0  0  0  0  0  0
    1.9400   -0.9318    0.9452 H   0  0  0  0  0  0  0  0  0  0  0  0
    1.2019    0.5058   -1.5607 H   0  0  0  0  0  0  0  0  0  0  0  0
    2.2862    1.7008    0.7746 H   0  0  0  0  0  0  0  0  0  0  0  0
  1  2  1  0
  2  3  1  0
  3  4  1  0
  4  5  1  0
  5  6  1  0
  5  7  1  0
  7  8  2  0
  7  2  1  0
  1  9  1  0
  1 10  1  0
  1 11  1  0
  2 12  1  0
  3 13  1  0
  3 14  1  0
  4 15  1  0
  4 16  1  0
  5 17  1  0
  6 18  1  0
M  END
