
     RDKit          3D

 18 19  0  0  0  0  0  0  0  0999 V2000
   -1.1792   -1.3462   -0.7285 C   0  0  0  0  0  0  0  0  0  0  0  0
   -0.4279   -0.5707    0.3392 C   0  0  0  0  0  0  0  0  0  0  0  0
   -1.3417    0.4524    0.8645 C   0  0  0  0  0  0  0  0  0  0  0  0
   -0.8895    1.6560    0.5964 C   0  0  0  0  0  0  0  0  0  0  0  0
    0.3818    1.5614   -0.1405 C   0  0  0  0  0  0  0  0  0  0  0  0
    0.4404    0.9052   -1.3774 O   0  0  0  0  0  0  0  0  0  0  0  0
    0.7173    0.2002   -0.2180 C   0  0  0  0  0  0  0  0  0  0  0  0
    2.0737   -0.4133   -0.0117 C   0  0  0  0  0  0  0  0  0  0  0  0
   -1.6002   -0.6586   -1.5100 H   0  0  0  0  0  0  0  0  0  0  0  0
   -0.5620   -2.1428   -1.1408 H   0  0  0  0  0  0  0  0  0  0  0  0
   -2.0569   -1.8052   -0.2115 H   0  0  0  0  0  0  0  0  0  0  0  0
   -0.1167   -1.3152    1.1025 H   0  0  0  0  0  0  0  0  0  0  0  0
   -2.2620    0.1808    1.3998 H   0  0  0  0  0  0  0  0  0  0  0  0
   -1.4136    2.5969    0.8958 H   0  0  0  0  0  0  0  0  0  0  0  0
    1.0555    2.4412   -0.1153 H   0  0  0  0  0  0  0  0  0  0  0  0
    2.9013    0.2925   -0.2545 H   0  0  0  0  0  0  0  0  0  0  0  0
    2.1389   -0.6717    1.0830 H   0  0  0  0  0  0  0  0  0  0  0  0
    2.1410   -1.3627   -0.5732 H   0  0  0  0  0  0  0  0  0  0  0  0
  1  2  1  0
  2  3  1  0
  3  4  2  0
  4  5  1  0
  5  6  1  0
  6  7  1  0
  7  8  1  0
  7  2  1  0
  7  5  1  0
  1  9  1  0
  1 10  1  0
  1 11  1  0
  2 12  1  0
  3 13  1  0
  4 14  1  0
  5 15  1  0
  8 16  1  0
  8 17  1  0
  8 18  1  0
M  END
