
     RDKit          3D

 21 22  0  0  0  0  0  0  0  0999 V2000
   -2.2786    0.7027   -0.7174 C   0  0  0  0  0  0  0  0  0  0  0  0
   -1.3977   -0.2483    0.0510 C   0  0  0  0  0  0  0  0  0  0  0  0
   -0.3124   -0.7421   -0.9181 C   0  0  0  0  0  0  0  0  0  0  0  0
    0.5499   -1.5840   -0.2886 O   0  0  0  0  0  0  0  0  0  0  0  0
    1.6538   -1.0150    0.2775 C   0  0  0  0  0  0  0  0  0  0  0  0
    2.4311    0.0700   -0.3695 C   0  0  0  0  0  0  0  0  0  0  0  0
    1.5434    0.2920    0.8713 C   0  0  0  0  0  0  0  0  0  0  0  0
    0.4444    1.0547    0.6234 O   0  0  0  0  0  0  0  0  0  0  0  0
   -0.7068    0.5071    1.1822 C   0  0  0  0  0  0  0  0  0  0  0  0
   -3.1084    1.0478   -0.0700 H   0  0  0  0  0  0  0  0  0  0  0  0
   -1.6682    1.5769   -1.0201 H   0  0  0  0  0  0  0  0  0  0  0  0
   -2.6259    0.1836   -1.6264 H   0  0  0  0  0  0  0  0  0  0  0  0
   -1.9554   -1.1097    0.4437 H   0  0  0  0  0  0  0  0  0  0  0  0
    0.1281    0.1094   -1.4403 H   0  0  0  0  0  0  0  0  0  0  0  0
   -0.8816   -1.3344   -1.6917 H   0  0  0  0  0  0  0  0  0  0  0  0
    2.2948   -1.7656    0.8254 H   0  0  0  0  0  0  0  0  0  0  0  0
    3.5175    0.1651   -0.1658 H   0  0  0  0  0  0  0  0  0  0  0  0
    2.1236    0.5139   -1.3184 H   0  0  0  0  0  0  0  0  0  0  0  0
    2.0661    0.5175    1.8219 H   0  0  0  0  0  0  0  0  0  0  0  0
   -0.4409   -0.2344    1.9916 H   0  0  0  0  0  0  0  0  0  0  0  0
   -1.3766    1.2928    1.6044 H   0  0  0  0  0  0  0  0  0  0  0  0
  1  2  1  0
  2  3  1  0
  3  4  1  0
  4  5  1  0
  5  6  1  0
  6  7  1  0
  7  8  1  0
  8  9  1  0
  9  2  1  0
  7  5  1  0
  1 10  1  0
  1 11  1  0
  1 12  1  0
  2 13  1  0
  3 14  1  0
  3 15  1  0
  5 16  1  0
  6 17  1  0
  6 18  1  0
  7 19  1  0
  9 20  1  0
  9 21  1  0
M  END
