
     RDKit          3D

 21 21  0  0  0  0  0  0  0  0999 V2000
    2.5095   -0.5977    0.1151 C   0  0  0  0  0  0  0  0  0  0  0  0
    1.2493   -0.0913   -0.5525 C   0  0  0  0  0  0  0  0  0  0  0  0
    0.1011   -1.0664   -0.4180 C   0  0  0  0  0  0  0  0  0  0  0  0
   -1.1312   -0.2147   -0.3986 C   0  0  0  0  0  0  0  0  0  0  0  0
   -2.0702   -0.6409    0.7003 C   0  0  0  0  0  0  0  0  0  0  0  0
   -0.6966    1.2204   -0.2637 C   0  0  0  0  0  0  0  0  0  0  0  0
   -1.4632    1.9494    0.6136 O   0  0  0  0  0  0  0  0  0  0  0  0
    0.7217    1.1009    0.1549 C   0  0  0  0  0  0  0  0  0  0  0  0
    1.3032    1.8379    0.9177 O   0  0  0  0  0  0  0  0  0  0  0  0
    2.2043   -1.1491    1.0178 H   0  0  0  0  0  0  0  0  0  0  0  0
    3.0076   -1.2666   -0.6469 H   0  0  0  0  0  0  0  0  0  0  0  0
    3.1673    0.2806    0.3471 H   0  0  0  0  0  0  0  0  0  0  0  0
    1.4272    0.2055   -1.6111 H   0  0  0  0  0  0  0  0  0  0  0  0
    0.1845   -1.5490    0.5867 H   0  0  0  0  0  0  0  0  0  0  0  0
    0.1001   -1.8349   -1.2104 H   0  0  0  0  0  0  0  0  0  0  0  0
   -1.6680   -0.3930   -1.3667 H   0  0  0  0  0  0  0  0  0  0  0  0
   -3.1344   -0.6725    0.3539 H   0  0  0  0  0  0  0  0  0  0  0  0
   -1.9980   -0.0061    1.6002 H   0  0  0  0  0  0  0  0  0  0  0  0
   -1.8251   -1.7179    0.9304 H   0  0  0  0  0  0  0  0  0  0  0  0
   -0.6780    1.6915   -1.2849 H   0  0  0  0  0  0  0  0  0  0  0  0
   -1.3112    2.9138    0.4151 H   0  0  0  0  0  0  0  0  0  0  0  0
  1  2  1  0
  2  3  1  0
  3  4  1  0
  4  5  1  0
  4  6  1  0
  6  7  1  0
  6  8  1  0
  8  9  2  0
  8  2  1  0
  1 10  1  0
  1 11  1  0
  1 12  1  0
  2 13  1  0
  3 14  1  0
  3 15  1  0
  4 16  1  0
  5 17  1  0
  5 18  1  0
  5 19  1  0
  6 20  1  0
  7 21  1  0
M  END
