
     RDKit          3D

 23 24  0  0  0  0  0  0  0  0999 V2000
    2.2357   -1.0974    0.5209 C   0  0  0  0  0  0  0  0  0  0  0  0
    0.7853   -0.7296    0.4751 C   0  0  0  0  0  0  0  0  0  0  0  0
    0.2061   -0.6112   -0.9371 C   0  0  0  0  0  0  0  0  0  0  0  0
   -0.9530   -1.2332   -1.1398 O   0  0  0  0  0  0  0  0  0  0  0  0
   -2.0620   -0.9248   -0.4699 C   0  0  0  0  0  0  0  0  0  0  0  0
   -1.9748    0.0242    0.6617 C   0  0  0  0  0  0  0  0  0  0  0  0
   -1.0059    1.1246    0.3312 C   0  0  0  0  0  0  0  0  0  0  0  0
    0.3079    0.5484   -0.0759 C   0  0  0  0  0  0  0  0  0  0  0  0
    1.3438    1.6220   -0.4307 C   0  0  0  0  0  0  0  0  0  0  0  0
    2.2997   -2.1843    0.2185 H   0  0  0  0  0  0  0  0  0  0  0  0
    2.6632   -1.0423    1.5278 H   0  0  0  0  0  0  0  0  0  0  0  0
    2.8471   -0.5598   -0.2273 H   0  0  0  0  0  0  0  0  0  0  0  0
    0.1668   -1.2339    1.2412 H   0  0  0  0  0  0  0  0  0  0  0  0
    0.9419   -0.6598   -1.7939 H   0  0  0  0  0  0  0  0  0  0  0  0
   -2.5346   -1.8752   -0.0786 H   0  0  0  0  0  0  0  0  0  0  0  0
   -2.8364   -0.5333   -1.1946 H   0  0  0  0  0  0  0  0  0  0  0  0
   -1.7611   -0.4479    1.6502 H   0  0  0  0  0  0  0  0  0  0  0  0
   -2.9804    0.5135    0.7969 H   0  0  0  0  0  0  0  0  0  0  0  0
   -0.9188    1.8903    1.1103 H   0  0  0  0  0  0  0  0  0  0  0  0
   -1.4271    1.6519   -0.5721 H   0  0  0  0  0  0  0  0  0  0  0  0
    2.1863    1.2113   -0.9976 H   0  0  0  0  0  0  0  0  0  0  0  0
    0.8255    2.3673   -1.0977 H   0  0  0  0  0  0  0  0  0  0  0  0
    1.6449    2.1794    0.4813 H   0  0  0  0  0  0  0  0  0  0  0  0
  1  2  1  0
  2  3  1  0
  3  4  1  0
  4  5  1  0
  5  6  1  0
  6  7  1  0
  7  8  1  0
  8  9  1  0
  8  2  1  0
  8  3  1  0
  1 10  1  0
  1 11  1  0
  1 12  1  0
  2 13  1  0
  3 14  1  0
  5 15  1  0
  5 16  1  0
  6 17  1  0
  6 18  1  0
  7 19  1  0
  7 20  1  0
  9 21  1  0
  9 22  1  0
  9 23  1  0
M  END
