
     RDKit          3D

 18 19  0  0  0  0  0  0  0  0999 V2000
    2.1014    0.6108    0.1782 C   0  0  0  0  0  0  0  0  0  0  0  0
    0.6347    0.3540    0.4246 C   0  0  0  0  0  0  0  0  0  0  0  0
    0.2925   -1.0707    0.1357 C   0  0  0  0  0  0  0  0  0  0  0  0
   -1.2085   -1.2010    0.2672 C   0  0  0  0  0  0  0  0  0  0  0  0
   -1.5725    0.0917   -0.4903 C   0  0  0  0  0  0  0  0  0  0  0  0
   -2.1678    0.9305    0.4302 O   0  0  0  0  0  0  0  0  0  0  0  0
   -0.1557    0.5127   -0.8295 C   0  0  0  0  0  0  0  0  0  0  0  0
    0.4024   -0.7244   -1.2320 O   0  0  0  0  0  0  0  0  0  0  0  0
    2.6858    0.0625    0.9504 H   0  0  0  0  0  0  0  0  0  0  0  0
    2.3249    1.6736    0.2666 H   0  0  0  0  0  0  0  0  0  0  0  0
    2.3724    0.2639   -0.8360 H   0  0  0  0  0  0  0  0  0  0  0  0
    0.2309    0.7987    1.3363 H   0  0  0  0  0  0  0  0  0  0  0  0
    0.9144   -1.8610    0.4916 H   0  0  0  0  0  0  0  0  0  0  0  0
   -1.5025   -2.0885   -0.3264 H   0  0  0  0  0  0  0  0  0  0  0  0
   -1.5677   -1.1902    1.2919 H   0  0  0  0  0  0  0  0  0  0  0  0
   -2.1797   -0.1527   -1.3583 H   0  0  0  0  0  0  0  0  0  0  0  0
   -1.5983    1.6408    0.7688 H   0  0  0  0  0  0  0  0  0  0  0  0
   -0.0067    1.3493   -1.4692 H   0  0  0  0  0  0  0  0  0  0  0  0
  1  2  1  0
  2  3  1  0
  3  4  1  0
  4  5  1  0
  5  6  1  0
  5  7  1  0
  7  8  1  0
  7  2  1  0
  8  3  1  0
  1  9  1  0
  1 10  1  0
  1 11  1  0
  2 12  1  0
  3 13  1  0
  4 14  1  0
  4 15  1  0
  5 16  1  0
  6 17  1  0
  7 18  1  0
M  END
