
     RDKit          3D

 15 15  0  0  0  0  0  0  0  0999 V2000
   -1.4282   -0.0792    0.7862 C   0  0  0  0  0  0  0  0  0  0  0  0
   -0.4846   -0.1187   -0.3752 C   0  0  0  0  0  0  0  0  0  0  0  0
    0.1731    1.2031   -0.6557 C   0  0  0  0  0  0  0  0  0  0  0  0
    1.5436    1.0654   -0.3022 O   0  0  0  0  0  0  0  0  0  0  0  0
    1.7197   -0.1618    0.3581 C   0  0  0  0  0  0  0  0  0  0  0  0
    2.5937   -0.3821    1.2167 O   0  0  0  0  0  0  0  0  0  0  0  0
    0.6694   -1.0441   -0.2014 C   0  0  0  0  0  0  0  0  0  0  0  0
   -1.0329    0.3842    1.6902 H   0  0  0  0  0  0  0  0  0  0  0  0
   -1.8102   -1.0876    0.9706 H   0  0  0  0  0  0  0  0  0  0  0  0
   -2.3147    0.5327    0.4602 H   0  0  0  0  0  0  0  0  0  0  0  0
   -1.0767   -0.4426   -1.2694 H   0  0  0  0  0  0  0  0  0  0  0  0
   -0.2334    2.0249   -0.0682 H   0  0  0  0  0  0  0  0  0  0  0  0
    0.1755    1.4031   -1.7629 H   0  0  0  0  0  0  0  0  0  0  0  0
    0.4797   -1.9435    0.3727 H   0  0  0  0  0  0  0  0  0  0  0  0
    1.0260   -1.3536   -1.2199 H   0  0  0  0  0  0  0  0  0  0  0  0
  1  2  1  0
  2  3  1  0
  3  4  1  0
  4  5  1  0
  5  6  2  0
  5  7  1  0
  7  2  1  0
  1  8  1  0
  1  9  1  0
  1 10  1  0
  2 11  1  0
  3 12  1  0
  3 13  1  0
  7 14  1  0
  7 15  1  0
M  END
