
     RDKit          3D

 23 25  0  0  0  0  0  0  0  0999 V2000
    2.0901   -0.7865   -0.9054 C   0  0  0  0  0  0  0  0  0  0  0  0
    1.0492   -0.8032    0.2081 C   0  0  0  0  0  0  0  0  0  0  0  0
   -0.3379   -0.5985   -0.2266 C   0  0  0  0  0  0  0  0  0  0  0  0
   -1.4373   -1.4783    0.2823 C   0  0  0  0  0  0  0  0  0  0  0  0
   -0.5952    0.3762   -1.3406 C   0  0  0  0  0  0  0  0  0  0  0  0
   -1.4058    1.5676   -0.9823 C   0  0  0  0  0  0  0  0  0  0  0  0
    0.0263    1.4623   -0.4503 C   0  0  0  0  0  0  0  0  0  0  0  0
    0.3232    0.4194    0.5800 C   0  0  0  0  0  0  0  0  0  0  0  0
    0.0541    0.6524    2.0272 C   0  0  0  0  0  0  0  0  0  0  0  0
    3.0159   -1.3114   -0.5766 H   0  0  0  0  0  0  0  0  0  0  0  0
    2.3382    0.2715   -1.1181 H   0  0  0  0  0  0  0  0  0  0  0  0
    1.7150   -1.2714   -1.8219 H   0  0  0  0  0  0  0  0  0  0  0  0
    1.2639   -1.5297    1.0195 H   0  0  0  0  0  0  0  0  0  0  0  0
   -1.1116   -1.9262    1.2406 H   0  0  0  0  0  0  0  0  0  0  0  0
   -1.5387   -2.3263   -0.4480 H   0  0  0  0  0  0  0  0  0  0  0  0
   -2.4212   -0.9893    0.3270 H   0  0  0  0  0  0  0  0  0  0  0  0
   -0.1369    0.2466   -2.3286 H   0  0  0  0  0  0  0  0  0  0  0  0
   -2.2132    1.3665   -0.2357 H   0  0  0  0  0  0  0  0  0  0  0  0
   -1.5749    2.3772   -1.7035 H   0  0  0  0  0  0  0  0  0  0  0  0
    0.8025    2.1004   -0.8768 H   0  0  0  0  0  0  0  0  0  0  0  0
    1.0326    0.8493    2.5483 H   0  0  0  0  0  0  0  0  0  0  0  0
   -0.5583    1.5647    2.2284 H   0  0  0  0  0  0  0  0  0  0  0  0
   -0.3800   -0.2335    2.5529 H   0  0  0  0  0  0  0  0  0  0  0  0
  1  2  1  0
  2  3  1  0
  3  4  1  0
  3  5  1  0
  5  6  1  0
  6  7  1  0
  7  8  1  0
  8  9  1  0
  8  2  1  0
  8  3  1  0
  7  5  1  0
  1 10  1  0
  1 11  1  0
  1 12  1  0
  2 13  1  0
  4 14  1  0
  4 15  1  0
  4 16  1  0
  5 17  1  0
  6 18  1  0
  6 19  1  0
  7 20  1  0
  9 21  1  0
  9 22  1  0
  9 23  1  0
M  END
