
     RDKit          3D

 24 24  0  0  0  0  0  0  0  0999 V2000
    2.5165   -0.5301    0.3162 C   0  0  0  0  0  0  0  0  0  0  0  0
    1.1217   -0.1672   -0.1395 C   0  0  0  0  0  0  0  0  0  0  0  0
    0.9154    1.3068   -0.0508 C   0  0  0  0  0  0  0  0  0  0  0  0
   -0.4954    1.6394   -0.4651 C   0  0  0  0  0  0  0  0  0  0  0  0
   -1.5335    0.8659    0.2818 C   0  0  0  0  0  0  0  0  0  0  0  0
   -1.2903   -0.6057    0.3370 C   0  0  0  0  0  0  0  0  0  0  0  0
   -1.6727   -1.3373   -0.9173 C   0  0  0  0  0  0  0  0  0  0  0  0
    0.1291   -0.8689    0.7623 C   0  0  0  0  0  0  0  0  0  0  0  0
    2.5366   -0.3394    1.4231 H   0  0  0  0  0  0  0  0  0  0  0  0
    3.2573    0.0819   -0.2281 H   0  0  0  0  0  0  0  0  0  0  0  0
    2.6928   -1.6233    0.2118 H   0  0  0  0  0  0  0  0  0  0  0  0
    0.9082   -0.4897   -1.1673 H   0  0  0  0  0  0  0  0  0  0  0  0
    1.1547    1.7438    0.9314 H   0  0  0  0  0  0  0  0  0  0  0  0
    1.5853    1.8305   -0.7927 H   0  0  0  0  0  0  0  0  0  0  0  0
   -0.6460    2.7253   -0.1886 H   0  0  0  0  0  0  0  0  0  0  0  0
   -0.6242    1.6083   -1.5720 H   0  0  0  0  0  0  0  0  0  0  0  0
   -1.5119    1.2383    1.3486 H   0  0  0  0  0  0  0  0  0  0  0  0
   -2.5197    1.1442   -0.1058 H   0  0  0  0  0  0  0  0  0  0  0  0
   -1.9417   -1.0028    1.1711 H   0  0  0  0  0  0  0  0  0  0  0  0
   -2.2012   -0.7203   -1.6568 H   0  0  0  0  0  0  0  0  0  0  0  0
   -0.7225   -1.7303   -1.3660 H   0  0  0  0  0  0  0  0  0  0  0  0
   -2.2691   -2.2567   -0.6738 H   0  0  0  0  0  0  0  0  0  0  0  0
    0.3836   -1.9563    0.7135 H   0  0  0  0  0  0  0  0  0  0  0  0
    0.2272   -0.5561    1.8270 H   0  0  0  0  0  0  0  0  0  0  0  0
  1  2  1  0
  2  3  1  0
  3  4  1  0
  4  5  1  0
  5  6  1  0
  6  7  1  0
  6  8  1  0
  8  2  1  0
  1  9  1  0
  1 10  1  0
  1 11  1  0
  2 12  1  0
  3 13  1  0
  3 14  1  0
  4 15  1  0
  4 16  1  0
  5 17  1  0
  5 18  1  0
  6 19  1  0
  7 20  1  0
  7 21  1  0
  7 22  1  0
  8 23  1  0
  8 24  1  0
M  END
