
     RDKit          3D

 17 17  0  0  0  0  0  0  0  0999 V2000
   -1.5821   -0.0369    1.0460 C   0  0  0  0  0  0  0  0  0  0  0  0
   -0.8011   -0.2168   -0.2139 C   0  0  0  0  0  0  0  0  0  0  0  0
   -0.5336    1.0384   -0.9398 C   0  0  0  0  0  0  0  0  0  0  0  0
   -1.2524    2.0580   -0.8948 O   0  0  0  0  0  0  0  0  0  0  0  0
    0.6420    0.8482   -1.6542 O   0  0  0  0  0  0  0  0  0  0  0  0
    1.2319   -0.3972   -1.3270 C   0  0  0  0  0  0  0  0  0  0  0  0
    0.6384   -0.6485    0.0644 C   0  0  0  0  0  0  0  0  0  0  0  0
    1.2844    0.3135    0.9739 C   0  0  0  0  0  0  0  0  0  0  0  0
    2.3720    0.0468    1.4272 O   0  0  0  0  0  0  0  0  0  0  0  0
   -2.5496    0.4142    0.7951 H   0  0  0  0  0  0  0  0  0  0  0  0
   -1.7897   -1.0435    1.4567 H   0  0  0  0  0  0  0  0  0  0  0  0
   -1.0682    0.6187    1.7769 H   0  0  0  0  0  0  0  0  0  0  0  0
   -1.2922   -0.9542   -0.8519 H   0  0  0  0  0  0  0  0  0  0  0  0
    2.3239   -0.3655   -1.2903 H   0  0  0  0  0  0  0  0  0  0  0  0
    0.8390   -1.2245   -1.9762 H   0  0  0  0  0  0  0  0  0  0  0  0
    0.7197   -1.6903    0.3648 H   0  0  0  0  0  0  0  0  0  0  0  0
    0.8176    1.2397    1.2431 H   0  0  0  0  0  0  0  0  0  0  0  0
  1  2  1  0
  2  3  1  0
  3  4  2  0
  3  5  1  0
  5  6  1  0
  6  7  1  0
  7  8  1  0
  8  9  2  0
  7  2  1  0
  1 10  1  0
  1 11  1  0
  1 12  1  0
  2 13  1  0
  6 14  1  0
  6 15  1  0
  7 16  1  0
  8 17  1  0
M  END
