
     RDKit          3D

 21 22  0  0  0  0  0  0  0  0999 V2000
   -2.3584   -1.0197    0.0635 C   0  0  0  0  0  0  0  0  0  0  0  0
   -1.3569   -0.1137    0.6903 C   0  0  0  0  0  0  0  0  0  0  0  0
   -1.5118    1.2417    0.0567 C   0  0  0  0  0  0  0  0  0  0  0  0
   -0.4752    1.4768   -0.7380 C   0  0  0  0  0  0  0  0  0  0  0  0
    0.4712    0.3609   -0.7436 C   0  0  0  0  0  0  0  0  0  0  0  0
    1.6631    0.5713    0.1345 C   0  0  0  0  0  0  0  0  0  0  0  0
    2.7523   -0.4731   -0.0417 C   0  0  0  0  0  0  0  0  0  0  0  0
    0.9127    0.2630    1.2627 O   0  0  0  0  0  0  0  0  0  0  0  0
    0.0747   -0.5012    0.4186 C   0  0  0  0  0  0  0  0  0  0  0  0
   -2.1046   -1.2787   -0.9774 H   0  0  0  0  0  0  0  0  0  0  0  0
   -2.5682   -1.9438    0.6464 H   0  0  0  0  0  0  0  0  0  0  0  0
   -3.3425   -0.4657    0.0504 H   0  0  0  0  0  0  0  0  0  0  0  0
   -1.4853   -0.0678    1.7807 H   0  0  0  0  0  0  0  0  0  0  0  0
   -2.3509    1.8953    0.2433 H   0  0  0  0  0  0  0  0  0  0  0  0
   -0.3527    2.3865   -1.3091 H   0  0  0  0  0  0  0  0  0  0  0  0
    0.6545   -0.1498   -1.7019 H   0  0  0  0  0  0  0  0  0  0  0  0
    2.0057    1.6156    0.0855 H   0  0  0  0  0  0  0  0  0  0  0  0
    2.8429   -1.1357    0.8472 H   0  0  0  0  0  0  0  0  0  0  0  0
    2.4979   -1.1472   -0.8908 H   0  0  0  0  0  0  0  0  0  0  0  0
    3.7275    0.0457   -0.2430 H   0  0  0  0  0  0  0  0  0  0  0  0
    0.3040   -1.5605    0.3659 H   0  0  0  0  0  0  0  0  0  0  0  0
  1  2  1  0
  2  3  1  0
  3  4  2  0
  4  5  1  0
  5  6  1  0
  6  7  1  0
  6  8  1  0
  8  9  1  0
  9  2  1  0
  9  5  1  0
  1 10  1  0
  1 11  1  0
  1 12  1  0
  2 13  1  0
  3 14  1  0
  4 15  1  0
  5 16  1  0
  6 17  1  0
  7 18  1  0
  7 19  1  0
  7 20  1  0
  9 21  1  0
M  END
