
     RDKit          3D

 23 24  0  0  0  0  0  0  0  0999 V2000
    2.4935   -0.6296   -0.5492 C   0  0  0  0  0  0  0  0  0  0  0  0
    1.2060   -0.1216    0.1043 C   0  0  0  0  0  0  0  0  0  0  0  0
    0.8430    1.2204   -0.3797 C   0  0  0  0  0  0  0  0  0  0  0  0
   -0.3475    1.3354   -1.0356 O   0  0  0  0  0  0  0  0  0  0  0  0
   -1.4696    1.1386   -0.2932 C   0  0  0  0  0  0  0  0  0  0  0  0
   -1.2384    0.5505    1.0683 C   0  0  0  0  0  0  0  0  0  0  0  0
   -1.1873   -0.8159    0.4200 C   0  0  0  0  0  0  0  0  0  0  0  0
    0.1729   -1.1813   -0.0696 C   0  0  0  0  0  0  0  0  0  0  0  0
   -2.0497   -0.2252   -0.7030 C   0  0  0  0  0  0  0  0  0  0  0  0
    2.7994   -1.5988   -0.1549 H   0  0  0  0  0  0  0  0  0  0  0  0
    2.3097   -0.6290   -1.6388 H   0  0  0  0  0  0  0  0  0  0  0  0
    3.2574    0.1484   -0.3427 H   0  0  0  0  0  0  0  0  0  0  0  0
    1.4372   -0.0714    1.2088 H   0  0  0  0  0  0  0  0  0  0  0  0
    1.6480    1.5723   -1.0905 H   0  0  0  0  0  0  0  0  0  0  0  0
    0.8529    2.0054    0.4328 H   0  0  0  0  0  0  0  0  0  0  0  0
   -2.2301    1.9554   -0.2940 H   0  0  0  0  0  0  0  0  0  0  0  0
   -0.3499    0.8520    1.6099 H   0  0  0  0  0  0  0  0  0  0  0  0
   -2.1865    0.6218    1.6652 H   0  0  0  0  0  0  0  0  0  0  0  0
   -1.7678   -1.5952    0.9262 H   0  0  0  0  0  0  0  0  0  0  0  0
    0.1052   -1.5768   -1.1128 H   0  0  0  0  0  0  0  0  0  0  0  0
    0.5109   -2.0713    0.5399 H   0  0  0  0  0  0  0  0  0  0  0  0
   -1.6841   -0.5575   -1.7046 H   0  0  0  0  0  0  0  0  0  0  0  0
   -3.1253   -0.3265   -0.5545 H   0  0  0  0  0  0  0  0  0  0  0  0
  1  2  1  0
  2  3  1  0
  3  4  1  0
  4  5  1  0
  5  6  1  0
  6  7  1  0
  7  8  1  0
  7  9  1  0
  8  2  1  0
  9  5  1  0
  1 10  1  0
  1 11  1  0
  1 12  1  0
  2 13  1  0
  3 14  1  0
  3 15  1  0
  5 16  1  0
  6 17  1  0
  6 18  1  0
  7 19  1  0
  8 20  1  0
  8 21  1  0
  9 22  1  0
  9 23  1  0
M  END
