
     RDKit          3D

 23 25  0  0  0  0  0  0  0  0999 V2000
    2.3138   -0.1453    0.5619 C   0  0  0  0  0  0  0  0  0  0  0  0
    1.0631   -0.6401   -0.0447 C   0  0  0  0  0  0  0  0  0  0  0  0
    0.4788    0.3234   -1.0908 C   0  0  0  0  0  0  0  0  0  0  0  0
   -0.0009    1.4480   -0.2509 C   0  0  0  0  0  0  0  0  0  0  0  0
   -0.6675    0.7554    0.9094 C   0  0  0  0  0  0  0  0  0  0  0  0
   -2.0213    0.1379    0.5912 C   0  0  0  0  0  0  0  0  0  0  0  0
   -1.2439   -0.9509   -0.1228 C   0  0  0  0  0  0  0  0  0  0  0  0
   -0.7429   -0.5059   -1.4864 C   0  0  0  0  0  0  0  0  0  0  0  0
   -0.1308   -0.6494    0.8637 C   0  0  0  0  0  0  0  0  0  0  0  0
    2.4255   -0.5747    1.5934 H   0  0  0  0  0  0  0  0  0  0  0  0
    3.1776   -0.5964   -0.0111 H   0  0  0  0  0  0  0  0  0  0  0  0
    2.4130    0.9414    0.6224 H   0  0  0  0  0  0  0  0  0  0  0  0
    1.1788   -1.6118   -0.5681 H   0  0  0  0  0  0  0  0  0  0  0  0
    1.1461    0.5436   -1.8961 H   0  0  0  0  0  0  0  0  0  0  0  0
    0.7954    2.0886    0.1451 H   0  0  0  0  0  0  0  0  0  0  0  0
   -0.7574    2.0550   -0.8229 H   0  0  0  0  0  0  0  0  0  0  0  0
   -0.6479    1.2736    1.8610 H   0  0  0  0  0  0  0  0  0  0  0  0
   -2.6901    0.7352   -0.0134 H   0  0  0  0  0  0  0  0  0  0  0  0
   -2.4363   -0.2880    1.5386 H   0  0  0  0  0  0  0  0  0  0  0  0
   -1.6651   -1.9507   -0.0685 H   0  0  0  0  0  0  0  0  0  0  0  0
   -1.4430    0.1878   -1.9695 H   0  0  0  0  0  0  0  0  0  0  0  0
   -0.4465   -1.3571   -2.1093 H   0  0  0  0  0  0  0  0  0  0  0  0
   -0.0987   -1.2196    1.7679 H   0  0  0  0  0  0  0  0  0  0  0  0
  1  2  1  0
  2  3  1  0
  3  4  1  0
  4  5  1  0
  5  6  1  0
  6  7  1  0
  7  8  1  0
  7  9  1  0
  9  2  1  0
  8  3  1  0
  9  5  1  0
  1 10  1  0
  1 11  1  0
  1 12  1  0
  2 13  1  0
  3 14  1  0
  4 15  1  0
  4 16  1  0
  5 17  1  0
  6 18  1  0
  6 19  1  0
  7 20  1  0
  8 21  1  0
  8 22  1  0
  9 23  1  0
M  END
