
     RDKit          3D

 19 20  0  0  0  0  0  0  0  0999 V2000
   -2.1031    0.4762    0.4352 C   0  0  0  0  0  0  0  0  0  0  0  0
   -0.7642   -0.1447    0.6534 C   0  0  0  0  0  0  0  0  0  0  0  0
   -0.1620   -0.7685   -0.6032 C   0  0  0  0  0  0  0  0  0  0  0  0
    0.8464   -1.8390   -0.3088 C   0  0  0  0  0  0  0  0  0  0  0  0
    1.9348   -1.2812    0.2831 O   0  0  0  0  0  0  0  0  0  0  0  0
    1.8086    0.0707    0.3522 C   0  0  0  0  0  0  0  0  0  0  0  0
    0.4035    0.4487   -0.0410 C   0  0  0  0  0  0  0  0  0  0  0  0
    0.2567    1.7828   -0.6174 C   0  0  0  0  0  0  0  0  0  0  0  0
    0.7402    2.7400   -0.0452 O   0  0  0  0  0  0  0  0  0  0  0  0
   -2.4124    1.1011    1.3196 H   0  0  0  0  0  0  0  0  0  0  0  0
   -2.8748   -0.3058    0.2783 H   0  0  0  0  0  0  0  0  0  0  0  0
   -2.1399    1.1598   -0.4323 H   0  0  0  0  0  0  0  0  0  0  0  0
   -0.6144   -0.6353    1.6208 H   0  0  0  0  0  0  0  0  0  0  0  0
   -0.7733   -0.8415   -1.4988 H   0  0  0  0  0  0  0  0  0  0  0  0
    0.3762   -2.5447    0.4135 H   0  0  0  0  0  0  0  0  0  0  0  0
    1.1443   -2.4241   -1.2028 H   0  0  0  0  0  0  0  0  0  0  0  0
    2.0957    0.5190    1.3308 H   0  0  0  0  0  0  0  0  0  0  0  0
    2.5079    0.5308   -0.3955 H   0  0  0  0  0  0  0  0  0  0  0  0
   -0.2699    1.9557   -1.5419 H   0  0  0  0  0  0  0  0  0  0  0  0
  1  2  1  0
  2  3  1  0
  3  4  1  0
  4  5  1  0
  5  6  1  0
  6  7  1  0
  7  8  1  0
  8  9  2  0
  7  2  1  0
  7  3  1  0
  1 10  1  0
  1 11  1  0
  1 12  1  0
  2 13  1  0
  3 14  1  0
  4 15  1  0
  4 16  1  0
  6 17  1  0
  6 18  1  0
  8 19  1  0
M  END
