
     RDKit          3D

 16 17  0  0  0  0  0  0  0  0999 V2000
   -1.6954   -0.6432    0.1970 C   0  0  0  0  0  0  0  0  0  0  0  0
   -0.6981    0.3463   -0.2681 C   0  0  0  0  0  0  0  0  0  0  0  0
    0.2011    0.8610    0.8711 C   0  0  0  0  0  0  0  0  0  0  0  0
    1.5282    0.6146    0.1599 C   0  0  0  0  0  0  0  0  0  0  0  0
    1.2722    0.8798   -1.1945 O   0  0  0  0  0  0  0  0  0  0  0  0
    0.4063   -0.2407   -1.1205 C   0  0  0  0  0  0  0  0  0  0  0  0
    1.4021   -0.8106   -0.1988 C   0  0  0  0  0  0  0  0  0  0  0  0
    1.8942   -1.8358    0.1364 O   0  0  0  0  0  0  0  0  0  0  0  0
   -2.7188   -0.2442   -0.0526 H   0  0  0  0  0  0  0  0  0  0  0  0
   -1.6029   -1.5734   -0.4150 H   0  0  0  0  0  0  0  0  0  0  0  0
   -1.6269   -0.9093    1.2747 H   0  0  0  0  0  0  0  0  0  0  0  0
   -1.0954    1.2220   -0.7925 H   0  0  0  0  0  0  0  0  0  0  0  0
    0.1380    0.1728    1.7375 H   0  0  0  0  0  0  0  0  0  0  0  0
    0.0187    1.9047    1.0950 H   0  0  0  0  0  0  0  0  0  0  0  0
    2.4162    0.9866    0.5981 H   0  0  0  0  0  0  0  0  0  0  0  0
    0.1606   -0.7308   -2.0275 H   0  0  0  0  0  0  0  0  0  0  0  0
  1  2  1  0
  2  3  1  0
  3  4  1  0
  4  5  1  0
  5  6  1  0
  6  7  1  0
  7  8  2  0
  6  2  1  0
  7  4  1  0
  1  9  1  0
  1 10  1  0
  1 11  1  0
  2 12  1  0
  3 13  1  0
  3 14  1  0
  4 15  1  0
  6 16  1  0
M  END
