
     RDKit          3D

 25 26  0  0  0  0  0  0  0  0999 V2000
   -2.7839    0.9755   -0.2254 C   0  0  0  0  0  0  0  0  0  0  0  0
   -1.4943    0.4693   -0.8284 C   0  0  0  0  0  0  0  0  0  0  0  0
   -1.5630   -1.0392   -0.8373 C   0  0  0  0  0  0  0  0  0  0  0  0
   -0.3123   -1.5477   -0.1894 C   0  0  0  0  0  0  0  0  0  0  0  0
    0.5939   -0.3598    0.0299 C   0  0  0  0  0  0  0  0  0  0  0  0
   -0.2826    0.8559   -0.0470 C   0  0  0  0  0  0  0  0  0  0  0  0
    1.6405   -0.5218    1.0503 C   0  0  0  0  0  0  0  0  0  0  0  0
    1.9782   -0.3908   -0.4151 C   0  0  0  0  0  0  0  0  0  0  0  0
    2.7683    0.8254   -0.7875 C   0  0  0  0  0  0  0  0  0  0  0  0
   -3.0470    2.0014   -0.5916 H   0  0  0  0  0  0  0  0  0  0  0  0
   -3.5961    0.3113   -0.6265 H   0  0  0  0  0  0  0  0  0  0  0  0
   -2.8264    0.8800    0.8647 H   0  0  0  0  0  0  0  0  0  0  0  0
   -1.4628    0.8868   -1.8748 H   0  0  0  0  0  0  0  0  0  0  0  0
   -2.4363   -1.4276   -0.2612 H   0  0  0  0  0  0  0  0  0  0  0  0
   -1.6916   -1.3795   -1.8879 H   0  0  0  0  0  0  0  0  0  0  0  0
   -0.5399   -1.9451    0.8431 H   0  0  0  0  0  0  0  0  0  0  0  0
    0.1540   -2.3280   -0.8299 H   0  0  0  0  0  0  0  0  0  0  0  0
    0.3118    1.6446   -0.5924 H   0  0  0  0  0  0  0  0  0  0  0  0
   -0.4967    1.2854    0.9466 H   0  0  0  0  0  0  0  0  0  0  0  0
    1.9063    0.2937    1.7532 H   0  0  0  0  0  0  0  0  0  0  0  0
    1.7473   -1.5318    1.5389 H   0  0  0  0  0  0  0  0  0  0  0  0
    2.3304   -1.3199   -0.9373 H   0  0  0  0  0  0  0  0  0  0  0  0
    2.7345    1.0536   -1.8783 H   0  0  0  0  0  0  0  0  0  0  0  0
    3.8488    0.5890   -0.5772 H   0  0  0  0  0  0  0  0  0  0  0  0
    2.5190    1.7194   -0.2158 H   0  0  0  0  0  0  0  0  0  0  0  0
  1  2  1  0
  2  3  1  0
  3  4  1  0
  4  5  1  0
  5  6  1  0
  5  7  1  0
  7  8  1  0
  8  9  1  0
  6  2  1  0
  8  5  1  0
  1 10  1  0
  1 11  1  0
  1 12  1  0
  2 13  1  0
  3 14  1  0
  3 15  1  0
  4 16  1  0
  4 17  1  0
  6 18  1  0
  6 19  1  0
  7 20  1  0
  7 21  1  0
  8 22  1  0
  9 23  1  0
  9 24  1  0
  9 25  1  0
M  END
