
     RDKit          3D

 23 24  0  0  0  0  0  0  0  0999 V2000
   -2.5069   -0.1836   -0.5763 C   0  0  0  0  0  0  0  0  0  0  0  0
   -0.9804   -0.0273   -0.5750 C   0  0  0  0  0  0  0  0  0  0  0  0
   -0.6759    1.3407   -0.0840 C   0  0  0  0  0  0  0  0  0  0  0  0
    0.7253    1.6032    0.2934 C   0  0  0  0  0  0  0  0  0  0  0  0
    1.5720    0.4240    0.5930 C   0  0  0  0  0  0  0  0  0  0  0  0
    2.5061    0.1884   -0.4434 O   0  0  0  0  0  0  0  0  0  0  0  0
    0.8822   -0.8417    0.8891 C   0  0  0  0  0  0  0  0  0  0  0  0
    0.8066   -1.8321   -0.3204 C   0  0  0  0  0  0  0  0  0  0  0  0
   -0.4032   -1.1082    0.2880 C   0  0  0  0  0  0  0  0  0  0  0  0
   -2.8358   -0.2897    0.4984 H   0  0  0  0  0  0  0  0  0  0  0  0
   -2.7146   -1.1413   -1.0869 H   0  0  0  0  0  0  0  0  0  0  0  0
   -3.0047    0.6783   -1.0265 H   0  0  0  0  0  0  0  0  0  0  0  0
   -0.6814   -0.1149   -1.6459 H   0  0  0  0  0  0  0  0  0  0  0  0
   -0.9830    2.0628   -0.8928 H   0  0  0  0  0  0  0  0  0  0  0  0
   -1.3842    1.5772    0.7636 H   0  0  0  0  0  0  0  0  0  0  0  0
    1.2389    2.1832   -0.5309 H   0  0  0  0  0  0  0  0  0  0  0  0
    0.7133    2.3377    1.1536 H   0  0  0  0  0  0  0  0  0  0  0  0
    2.2185    0.6916    1.4818 H   0  0  0  0  0  0  0  0  0  0  0  0
    3.3894   -0.0483   -0.0959 H   0  0  0  0  0  0  0  0  0  0  0  0
    1.1124   -1.3703    1.8584 H   0  0  0  0  0  0  0  0  0  0  0  0
    0.9425   -2.8894   -0.1023 H   0  0  0  0  0  0  0  0  0  0  0  0
    1.1815   -1.4661   -1.2786 H   0  0  0  0  0  0  0  0  0  0  0  0
   -1.1186   -1.7745    0.8393 H   0  0  0  0  0  0  0  0  0  0  0  0
  1  2  1  0
  2  3  1  0
  3  4  1  0
  4  5  1  0
  5  6  1  0
  5  7  1  0
  7  8  1  0
  8  9  1  0
  9  2  1  0
  9  7  1  0
  1 10  1  0
  1 11  1  0
  1 12  1  0
  2 13  1  0
  3 14  1  0
  3 15  1  0
  4 16  1  0
  4 17  1  0
  5 18  1  0
  6 19  1  0
  7 20  1  0
  8 21  1  0
  8 22  1  0
  9 23  1  0
M  END
