
     RDKit          3D

 21 23  0  0  0  0  0  0  0  0999 V2000
    2.8073   -0.5201    0.6947 C   0  0  0  0  0  0  0  0  0  0  0  0
    1.3750   -0.0048    0.7690 C   0  0  0  0  0  0  0  0  0  0  0  0
    0.8781    0.5399   -0.5393 C   0  0  0  0  0  0  0  0  0  0  0  0
   -0.5253    1.0988   -0.6287 C   0  0  0  0  0  0  0  0  0  0  0  0
   -0.8327    1.4082   -1.9333 O   0  0  0  0  0  0  0  0  0  0  0  0
   -1.0358   -0.1783   -0.0762 C   0  0  0  0  0  0  0  0  0  0  0  0
   -2.2466   -0.8603   -0.4430 C   0  0  0  0  0  0  0  0  0  0  0  0
   -2.0897   -0.1498    0.9235 C   0  0  0  0  0  0  0  0  0  0  0  0
    0.3025   -0.7651    0.0905 C   0  0  0  0  0  0  0  0  0  0  0  0
    3.4451    0.4102    0.6415 H   0  0  0  0  0  0  0  0  0  0  0  0
    2.9576   -1.0450   -0.2903 H   0  0  0  0  0  0  0  0  0  0  0  0
    3.0745   -1.1536    1.5496 H   0  0  0  0  0  0  0  0  0  0  0  0
    1.1840    0.6444    1.6423 H   0  0  0  0  0  0  0  0  0  0  0  0
    1.4721    0.4362   -1.4459 H   0  0  0  0  0  0  0  0  0  0  0  0
   -0.6412    1.9359    0.1018 H   0  0  0  0  0  0  0  0  0  0  0  0
   -0.5916    2.3669   -2.0856 H   0  0  0  0  0  0  0  0  0  0  0  0
   -3.0135   -0.4255   -1.1363 H   0  0  0  0  0  0  0  0  0  0  0  0
   -2.2700   -1.9802   -0.3585 H   0  0  0  0  0  0  0  0  0  0  0  0
   -2.1116   -0.8013    1.8254 H   0  0  0  0  0  0  0  0  0  0  0  0
   -2.7458    0.7555    1.0699 H   0  0  0  0  0  0  0  0  0  0  0  0
    0.6075   -1.7121   -0.3710 H   0  0  0  0  0  0  0  0  0  0  0  0
  1  2  1  0
  2  3  1  0
  3  4  1  0
  4  5  1  0
  4  6  1  0
  6  7  1  0
  7  8  1  0
  6  9  1  0
  9  2  1  0
  9  3  1  0
  8  6  1  0
  1 10  1  0
  1 11  1  0
  1 12  1  0
  2 13  1  0
  3 14  1  0
  4 15  1  0
  5 16  1  0
  7 17  1  0
  7 18  1  0
  8 19  1  0
  8 20  1  0
  9 21  1  0
M  END
