
     RDKit          3D

 23 24  0  0  0  0  0  0  0  0999 V2000
   -3.1686    0.3973    0.3737 C   0  0  0  0  0  0  0  0  0  0  0  0
   -1.8696   -0.1293   -0.1448 C   0  0  0  0  0  0  0  0  0  0  0  0
   -0.9681    0.9699   -0.7429 C   0  0  0  0  0  0  0  0  0  0  0  0
   -0.5803    0.1671    0.4902 C   0  0  0  0  0  0  0  0  0  0  0  0
    0.5606   -0.7799    0.2804 C   0  0  0  0  0  0  0  0  0  0  0  0
    0.8870   -0.8892   -1.1665 C   0  0  0  0  0  0  0  0  0  0  0  0
    2.0854   -0.3365   -1.4086 C   0  0  0  0  0  0  0  0  0  0  0  0
    2.6717    0.1930   -0.1496 C   0  0  0  0  0  0  0  0  0  0  0  0
    1.8237   -0.3622    0.9650 C   0  0  0  0  0  0  0  0  0  0  0  0
   -3.1944    1.4853    0.5047 H   0  0  0  0  0  0  0  0  0  0  0  0
   -3.9607    0.1561   -0.3814 H   0  0  0  0  0  0  0  0  0  0  0  0
   -3.4985   -0.0976    1.3159 H   0  0  0  0  0  0  0  0  0  0  0  0
   -1.9508   -1.0751   -0.7061 H   0  0  0  0  0  0  0  0  0  0  0  0
   -1.2308    2.0139   -0.5547 H   0  0  0  0  0  0  0  0  0  0  0  0
   -0.5273    0.6992   -1.7160 H   0  0  0  0  0  0  0  0  0  0  0  0
   -0.5210    0.7291    1.4531 H   0  0  0  0  0  0  0  0  0  0  0  0
    0.2490   -1.7905    0.6614 H   0  0  0  0  0  0  0  0  0  0  0  0
    0.2818   -1.3379   -1.9450 H   0  0  0  0  0  0  0  0  0  0  0  0
    2.5914   -0.2647   -2.3697 H   0  0  0  0  0  0  0  0  0  0  0  0
    3.7252   -0.1808   -0.0899 H   0  0  0  0  0  0  0  0  0  0  0  0
    2.6781    1.2810   -0.1381 H   0  0  0  0  0  0  0  0  0  0  0  0
    1.6052    0.3873    1.7459 H   0  0  0  0  0  0  0  0  0  0  0  0
    2.3108   -1.2355    1.4453 H   0  0  0  0  0  0  0  0  0  0  0  0
  1  2  1  0
  2  3  1  0
  3  4  1  0
  4  5  1  0
  5  6  1  0
  6  7  2  0
  7  8  1  0
  8  9  1  0
  4  2  1  0
  9  5  1  0
  1 10  1  0
  1 11  1  0
  1 12  1  0
  2 13  1  0
  3 14  1  0
  3 15  1  0
  4 16  1  0
  5 17  1  0
  6 18  1  0
  7 19  1  0
  8 20  1  0
  8 21  1  0
  9 22  1  0
  9 23  1  0
M  END
