
     RDKit          3D

 25 25  0  0  0  0  0  0  0  0999 V2000
   -2.2159   -0.8953   -0.1694 C   0  0  0  0  0  0  0  0  0  0  0  0
   -0.9617   -0.6096    0.6287 C   0  0  0  0  0  0  0  0  0  0  0  0
    0.2342   -1.3739    0.1037 C   0  0  0  0  0  0  0  0  0  0  0  0
    1.0349   -0.0869    0.2421 C   0  0  0  0  0  0  0  0  0  0  0  0
    1.8809    0.1087   -0.9910 C   0  0  0  0  0  0  0  0  0  0  0  0
    1.7879   -0.0200    1.5434 C   0  0  0  0  0  0  0  0  0  0  0  0
   -0.2492    0.6610    0.2974 C   0  0  0  0  0  0  0  0  0  0  0  0
   -0.6932    1.3486   -0.9698 C   0  0  0  0  0  0  0  0  0  0  0  0
   -2.0455    1.6825   -0.8954 O   0  0  0  0  0  0  0  0  0  0  0  0
   -2.5335   -1.9314    0.1231 H   0  0  0  0  0  0  0  0  0  0  0  0
   -3.0270   -0.2020    0.0783 H   0  0  0  0  0  0  0  0  0  0  0  0
   -2.0158   -0.9384   -1.2504 H   0  0  0  0  0  0  0  0  0  0  0  0
   -1.0844   -0.8124    1.7024 H   0  0  0  0  0  0  0  0  0  0  0  0
    0.6397   -2.1467    0.7803 H   0  0  0  0  0  0  0  0  0  0  0  0
    0.1482   -1.7701   -0.9140 H   0  0  0  0  0  0  0  0  0  0  0  0
    1.5400   -0.5431   -1.8333 H   0  0  0  0  0  0  0  0  0  0  0  0
    1.9808    1.1656   -1.2816 H   0  0  0  0  0  0  0  0  0  0  0  0
    2.9039   -0.2534   -0.7346 H   0  0  0  0  0  0  0  0  0  0  0  0
    1.0554    0.0847    2.3646 H   0  0  0  0  0  0  0  0  0  0  0  0
    2.4854    0.8486    1.4795 H   0  0  0  0  0  0  0  0  0  0  0  0
    2.3913   -0.9393    1.6751 H   0  0  0  0  0  0  0  0  0  0  0  0
   -0.3328    1.3749    1.1491 H   0  0  0  0  0  0  0  0  0  0  0  0
   -0.1392    2.2717   -1.1537 H   0  0  0  0  0  0  0  0  0  0  0  0
   -0.5756    0.6766   -1.8523 H   0  0  0  0  0  0  0  0  0  0  0  0
   -2.2087    2.2998   -0.1221 H   0  0  0  0  0  0  0  0  0  0  0  0
  1  2  1  0
  2  3  1  0
  3  4  1  0
  4  5  1  0
  4  6  1  0
  4  7  1  0
  7  8  1  0
  8  9  1  0
  7  2  1  0
  1 10  1  0
  1 11  1  0
  1 12  1  0
  2 13  1  0
  3 14  1  0
  3 15  1  0
  5 16  1  0
  5 17  1  0
  5 18  1  0
  6 19  1  0
  6 20  1  0
  6 21  1  0
  7 22  1  0
  8 23  1  0
  8 24  1  0
  9 25  1  0
M  END
