
     RDKit          3D

 16 16  0  0  0  0  0  0  0  0999 V2000
    2.1913   -0.3696    0.1492 C   0  0  0  0  0  0  0  0  0  0  0  0
    0.6857   -0.4345   -0.1287 C   0  0  0  0  0  0  0  0  0  0  0  0
   -0.1370   -0.4677    1.1254 C   0  0  0  0  0  0  0  0  0  0  0  0
   -0.1139    0.7535    0.1594 C   0  0  0  0  0  0  0  0  0  0  0  0
   -1.3950    1.0564   -0.5180 C   0  0  0  0  0  0  0  0  0  0  0  0
   -1.7881    2.2453   -0.5944 O   0  0  0  0  0  0  0  0  0  0  0  0
   -2.2347    0.0333   -1.1087 C   0  0  0  0  0  0  0  0  0  0  0  0
   -1.8813   -1.1508   -1.0575 O   0  0  0  0  0  0  0  0  0  0  0  0
    2.7273    0.0913   -0.7108 H   0  0  0  0  0  0  0  0  0  0  0  0
    2.5926   -1.3639    0.3878 H   0  0  0  0  0  0  0  0  0  0  0  0
    2.3186    0.2768    1.0384 H   0  0  0  0  0  0  0  0  0  0  0  0
    0.4417   -1.1650   -0.9337 H   0  0  0  0  0  0  0  0  0  0  0  0
    0.3524   -0.2988    2.1082 H   0  0  0  0  0  0  0  0  0  0  0  0
   -1.0520   -1.0946    1.1098 H   0  0  0  0  0  0  0  0  0  0  0  0
    0.4643    1.6348    0.5749 H   0  0  0  0  0  0  0  0  0  0  0  0
   -3.1719    0.2536   -1.6014 H   0  0  0  0  0  0  0  0  0  0  0  0
  1  2  1  0
  2  3  1  0
  3  4  1  0
  4  5  1  0
  5  6  2  0
  5  7  1  0
  7  8  2  0
  4  2  1  0
  1  9  1  0
  1 10  1  0
  1 11  1  0
  2 12  1  0
  3 13  1  0
  3 14  1  0
  4 15  1  0
  7 16  1  0
M  END
