
     RDKit          3D

 19 19  0  0  0  0  0  0  0  0999 V2000
    2.1547   -0.7925   -0.0344 C   0  0  0  0  0  0  0  0  0  0  0  0
    0.7553   -0.1866   -0.1861 C   0  0  0  0  0  0  0  0  0  0  0  0
   -0.0959   -0.7471    0.8876 C   0  0  0  0  0  0  0  0  0  0  0  0
   -1.5055   -0.9238    0.3023 C   0  0  0  0  0  0  0  0  0  0  0  0
   -2.0433    0.4330    0.0803 C   0  0  0  0  0  0  0  0  0  0  0  0
   -3.2859    0.5446   -0.0781 O   0  0  0  0  0  0  0  0  0  0  0  0
   -1.3862    1.6707    0.0119 O   0  0  0  0  0  0  0  0  0  0  0  0
   -0.0418    1.9257    0.3694 C   0  0  0  0  0  0  0  0  0  0  0  0
    0.8722    1.1494   -0.2663 O   0  0  0  0  0  0  0  0  0  0  0  0
    2.8439   -0.1194   -0.5885 H   0  0  0  0  0  0  0  0  0  0  0  0
    2.3808   -0.7508    1.0452 H   0  0  0  0  0  0  0  0  0  0  0  0
    2.2094   -1.7974   -0.4647 H   0  0  0  0  0  0  0  0  0  0  0  0
    0.3901   -0.5796   -1.1809 H   0  0  0  0  0  0  0  0  0  0  0  0
    0.2088   -1.7369    1.2536 H   0  0  0  0  0  0  0  0  0  0  0  0
   -0.2058   -0.0478    1.7251 H   0  0  0  0  0  0  0  0  0  0  0  0
   -1.3561   -1.4348   -0.6703 H   0  0  0  0  0  0  0  0  0  0  0  0
   -2.1245   -1.5592    0.9378 H   0  0  0  0  0  0  0  0  0  0  0  0
    0.1463    2.9950    0.0515 H   0  0  0  0  0  0  0  0  0  0  0  0
    0.0837    1.9574    1.4864 H   0  0  0  0  0  0  0  0  0  0  0  0
  1  2  1  0
  2  3  1  0
  3  4  1  0
  4  5  1  0
  5  6  2  0
  5  7  1  0
  7  8  1  0
  8  9  1  0
  9  2  1  0
  1 10  1  0
  1 11  1  0
  1 12  1  0
  2 13  1  0
  3 14  1  0
  3 15  1  0
  4 16  1  0
  4 17  1  0
  8 18  1  0
  8 19  1  0
M  END
