
     RDKit          3D

 19 19  0  0  0  0  0  0  0  0999 V2000
    0.8902    1.8046    0.5960 C   0  0  0  0  0  0  0  0  0  0  0  0
    0.3217    0.4157    0.5747 C   0  0  0  0  0  0  0  0  0  0  0  0
    1.1975   -0.5553   -0.1317 C   0  0  0  0  0  0  0  0  0  0  0  0
    0.4795   -1.7617   -0.6802 C   0  0  0  0  0  0  0  0  0  0  0  0
   -0.7104   -2.0352    0.0690 O   0  0  0  0  0  0  0  0  0  0  0  0
   -1.5989   -0.9960    0.2520 C   0  0  0  0  0  0  0  0  0  0  0  0
   -2.7680   -1.2190    0.5631 O   0  0  0  0  0  0  0  0  0  0  0  0
   -1.1143    0.3885    0.0660 C   0  0  0  0  0  0  0  0  0  0  0  0
   -1.1792    0.7260   -1.2826 O   0  0  0  0  0  0  0  0  0  0  0  0
    1.7747    1.8027    1.2675 H   0  0  0  0  0  0  0  0  0  0  0  0
    0.1502    2.4806    1.0828 H   0  0  0  0  0  0  0  0  0  0  0  0
    1.1509    2.1924   -0.3980 H   0  0  0  0  0  0  0  0  0  0  0  0
    0.2510    0.0851    1.6520 H   0  0  0  0  0  0  0  0  0  0  0  0
    1.9633   -0.9431    0.5924 H   0  0  0  0  0  0  0  0  0  0  0  0
    1.7608   -0.0681   -0.9804 H   0  0  0  0  0  0  0  0  0  0  0  0
    1.0911   -2.6915   -0.6220 H   0  0  0  0  0  0  0  0  0  0  0  0
    0.1800   -1.5480   -1.7275 H   0  0  0  0  0  0  0  0  0  0  0  0
   -1.7007    1.1376    0.6179 H   0  0  0  0  0  0  0  0  0  0  0  0
   -2.1396    0.7846   -1.5110 H   0  0  0  0  0  0  0  0  0  0  0  0
  1  2  1  0
  2  3  1  0
  3  4  1  0
  4  5  1  0
  5  6  1  0
  6  7  2  0
  6  8  1  0
  8  9  1  0
  8  2  1  0
  1 10  1  0
  1 11  1  0
  1 12  1  0
  2 13  1  0
  3 14  1  0
  3 15  1  0
  4 16  1  0
  4 17  1  0
  8 18  1  0
  9 19  1  0
M  END
