
     RDKit          3D

 25 25  0  0  0  0  0  0  0  0999 V2000
    2.9244   -0.1324    1.1974 C   0  0  0  0  0  0  0  0  0  0  0  0
    1.9331   -0.4278    0.1036 C   0  0  0  0  0  0  0  0  0  0  0  0
    0.5738   -0.6923    0.6133 C   0  0  0  0  0  0  0  0  0  0  0  0
   -0.3394   -0.2405   -0.2477 C   0  0  0  0  0  0  0  0  0  0  0  0
   -1.8288   -0.2900   -0.1486 C   0  0  0  0  0  0  0  0  0  0  0  0
   -2.4249    1.0892   -0.1788 C   0  0  0  0  0  0  0  0  0  0  0  0
   -2.2657   -0.9644    1.1416 C   0  0  0  0  0  0  0  0  0  0  0  0
    0.3607    0.3677   -1.4129 C   0  0  0  0  0  0  0  0  0  0  0  0
    1.7003    0.7615   -0.7992 C   0  0  0  0  0  0  0  0  0  0  0  0
    3.9337   -0.1801    0.7380 H   0  0  0  0  0  0  0  0  0  0  0  0
    2.8163    0.8910    1.6091 H   0  0  0  0  0  0  0  0  0  0  0  0
    2.8459   -0.9166    1.9483 H   0  0  0  0  0  0  0  0  0  0  0  0
    2.3115   -1.3053   -0.4544 H   0  0  0  0  0  0  0  0  0  0  0  0
    0.2918   -1.1794    1.5456 H   0  0  0  0  0  0  0  0  0  0  0  0
   -2.2489   -0.8756   -0.9751 H   0  0  0  0  0  0  0  0  0  0  0  0
   -3.4773    0.9808   -0.5566 H   0  0  0  0  0  0  0  0  0  0  0  0
   -1.9006    1.7096   -0.9296 H   0  0  0  0  0  0  0  0  0  0  0  0
   -2.4147    1.5350    0.8398 H   0  0  0  0  0  0  0  0  0  0  0  0
   -3.3798   -0.8594    1.1759 H   0  0  0  0  0  0  0  0  0  0  0  0
   -2.0601   -2.0393    1.0760 H   0  0  0  0  0  0  0  0  0  0  0  0
   -1.8378   -0.4817    2.0339 H   0  0  0  0  0  0  0  0  0  0  0  0
    0.5839   -0.4641   -2.1131 H   0  0  0  0  0  0  0  0  0  0  0  0
   -0.1587    1.2041   -1.8621 H   0  0  0  0  0  0  0  0  0  0  0  0
    1.5926    1.6695   -0.1921 H   0  0  0  0  0  0  0  0  0  0  0  0
    2.4690    0.8407   -1.5933 H   0  0  0  0  0  0  0  0  0  0  0  0
  1  2  1  0
  2  3  1  0
  3  4  2  0
  4  5  1  0
  5  6  1  0
  5  7  1  0
  4  8  1  0
  8  9  1  0
  9  2  1  0
  1 10  1  0
  1 11  1  0
  1 12  1  0
  2 13  1  0
  3 14  1  0
  5 15  1  0
  6 16  1  0
  6 17  1  0
  6 18  1  0
  7 19  1  0
  7 20  1  0
  7 21  1  0
  8 22  1  0
  8 23  1  0
  9 24  1  0
  9 25  1  0
M  END
