
     RDKit          3D

 21 22  0  0  0  0  0  0  0  0999 V2000
    2.1955    0.5253   -0.3680 C   0  0  0  0  0  0  0  0  0  0  0  0
    1.1127   -0.2045    0.3940 C   0  0  0  0  0  0  0  0  0  0  0  0
    0.3845   -1.0889   -0.6302 C   0  0  0  0  0  0  0  0  0  0  0  0
   -1.0460   -0.6199   -0.5003 C   0  0  0  0  0  0  0  0  0  0  0  0
   -1.4694   -0.9303    0.9133 C   0  0  0  0  0  0  0  0  0  0  0  0
   -0.8029   -0.0421    1.7243 O   0  0  0  0  0  0  0  0  0  0  0  0
    0.0630    0.7114    0.9261 C   0  0  0  0  0  0  0  0  0  0  0  0
   -0.8127    0.8905   -0.3281 C   0  0  0  0  0  0  0  0  0  0  0  0
   -1.9423    1.5518    0.0623 O   0  0  0  0  0  0  0  0  0  0  0  0
    2.7709   -0.2399   -0.9485 H   0  0  0  0  0  0  0  0  0  0  0  0
    1.7805    1.2183   -1.1380 H   0  0  0  0  0  0  0  0  0  0  0  0
    2.8447    1.1340    0.2776 H   0  0  0  0  0  0  0  0  0  0  0  0
    1.5826   -0.7892    1.1819 H   0  0  0  0  0  0  0  0  0  0  0  0
    0.7188   -0.9004   -1.6505 H   0  0  0  0  0  0  0  0  0  0  0  0
    0.4106   -2.1504   -0.3190 H   0  0  0  0  0  0  0  0  0  0  0  0
   -1.7158   -0.8825   -1.2805 H   0  0  0  0  0  0  0  0  0  0  0  0
   -1.1039   -1.9595    1.1356 H   0  0  0  0  0  0  0  0  0  0  0  0
   -2.5623   -0.9437    1.0446 H   0  0  0  0  0  0  0  0  0  0  0  0
    0.3849    1.6357    1.3571 H   0  0  0  0  0  0  0  0  0  0  0  0
   -0.2580    1.3209   -1.1543 H   0  0  0  0  0  0  0  0  0  0  0  0
   -2.5357    1.7634   -0.6994 H   0  0  0  0  0  0  0  0  0  0  0  0
  1  2  1  0
  2  3  1  0
  3  4  1  0
  4  5  1  0
  5  6  1  0
  6  7  1  0
  7  8  1  0
  8  9  1  0
  7  2  1  0
  8  4  1  0
  1 10  1  0
  1 11  1  0
  1 12  1  0
  2 13  1  0
  3 14  1  0
  3 15  1  0
  4 16  1  0
  5 17  1  0
  5 18  1  0
  7 19  1  0
  8 20  1  0
  9 21  1  0
M  END
