
     RDKit          3D

 14 14  0  0  0  0  0  0  0  0999 V2000
   -1.4503    0.1557   -0.5880 C   0  0  0  0  0  0  0  0  0  0  0  0
   -0.5575    0.3058    0.6142 C   0  0  0  0  0  0  0  0  0  0  0  0
    0.1281   -0.9992    0.8094 C   0  0  0  0  0  0  0  0  0  0  0  0
   -0.1828   -1.9252    1.6219 O   0  0  0  0  0  0  0  0  0  0  0  0
    1.2371   -0.9863   -0.1356 C   0  0  0  0  0  0  0  0  0  0  0  0
    1.5400    0.2651   -0.4330 C   0  0  0  0  0  0  0  0  0  0  0  0
    0.6395    1.1676    0.3049 C   0  0  0  0  0  0  0  0  0  0  0  0
    0.7663    2.3550    0.6292 O   0  0  0  0  0  0  0  0  0  0  0  0
   -0.9128    0.4229   -1.5174 H   0  0  0  0  0  0  0  0  0  0  0  0
   -2.3867    0.7461   -0.4771 H   0  0  0  0  0  0  0  0  0  0  0  0
   -1.7899   -0.9074   -0.7028 H   0  0  0  0  0  0  0  0  0  0  0  0
   -1.0864    0.6540    1.5144 H   0  0  0  0  0  0  0  0  0  0  0  0
    1.7373   -1.8850   -0.5332 H   0  0  0  0  0  0  0  0  0  0  0  0
    2.3181    0.6308   -1.1069 H   0  0  0  0  0  0  0  0  0  0  0  0
  1  2  1  0
  2  3  1  0
  3  4  2  0
  3  5  1  0
  5  6  2  0
  6  7  1  0
  7  8  2  0
  7  2  1  0
  1  9  1  0
  1 10  1  0
  1 11  1  0
  2 12  1  0
  5 13  1  0
  6 14  1  0
M  END
