
     RDKit          3D

 21 22  0  0  0  0  0  0  0  0999 V2000
   -2.2004   -0.9241    0.1249 C   0  0  0  0  0  0  0  0  0  0  0  0
   -1.3677    0.2199   -0.4055 C   0  0  0  0  0  0  0  0  0  0  0  0
   -1.0650    1.2287    0.6115 C   0  0  0  0  0  0  0  0  0  0  0  0
    0.2149    1.2130    0.8929 C   0  0  0  0  0  0  0  0  0  0  0  0
    0.9113    0.2165    0.1187 C   0  0  0  0  0  0  0  0  0  0  0  0
    1.6322   -0.8743    0.8585 C   0  0  0  0  0  0  0  0  0  0  0  0
    1.7032    0.6646   -1.0781 C   0  0  0  0  0  0  0  0  0  0  0  0
    0.5042    0.7677   -1.7769 O   0  0  0  0  0  0  0  0  0  0  0  0
   -0.0470   -0.2197   -0.9380 C   0  0  0  0  0  0  0  0  0  0  0  0
   -2.4264   -1.6120   -0.7064 H   0  0  0  0  0  0  0  0  0  0  0  0
   -3.1416   -0.5138    0.5138 H   0  0  0  0  0  0  0  0  0  0  0  0
   -1.7062   -1.4880    0.9290 H   0  0  0  0  0  0  0  0  0  0  0  0
   -2.0065    0.7219   -1.1887 H   0  0  0  0  0  0  0  0  0  0  0  0
   -1.8570    1.8719    1.0320 H   0  0  0  0  0  0  0  0  0  0  0  0
    0.6416    1.9059    1.6421 H   0  0  0  0  0  0  0  0  0  0  0  0
    1.3098   -0.8859    1.9023 H   0  0  0  0  0  0  0  0  0  0  0  0
    2.7258   -0.5940    0.8567 H   0  0  0  0  0  0  0  0  0  0  0  0
    1.5837   -1.8577    0.3537 H   0  0  0  0  0  0  0  0  0  0  0  0
    2.2726    1.5985   -0.9506 H   0  0  0  0  0  0  0  0  0  0  0  0
    2.2818   -0.1912   -1.4823 H   0  0  0  0  0  0  0  0  0  0  0  0
    0.0368   -1.2476   -1.3094 H   0  0  0  0  0  0  0  0  0  0  0  0
  1  2  1  0
  2  3  1  0
  3  4  2  0
  4  5  1  0
  5  6  1  0
  5  7  1  0
  7  8  1  0
  8  9  1  0
  9  2  1  0
  9  5  1  0
  1 10  1  0
  1 11  1  0
  1 12  1  0
  2 13  1  0
  3 14  1  0
  4 15  1  0
  6 16  1  0
  6 17  1  0
  6 18  1  0
  7 19  1  0
  7 20  1  0
  9 21  1  0
M  END
