
     RDKit          3D

 21 22  0  0  0  0  0  0  0  0999 V2000
   -2.1271   -0.4115    0.1078 C   0  0  0  0  0  0  0  0  0  0  0  0
   -0.7435   -0.2700   -0.4474 C   0  0  0  0  0  0  0  0  0  0  0  0
    0.1962    0.6173    0.2914 C   0  0  0  0  0  0  0  0  0  0  0  0
    0.5360    1.9261   -0.3825 C   0  0  0  0  0  0  0  0  0  0  0  0
   -0.6758    2.6240   -0.5453 O   0  0  0  0  0  0  0  0  0  0  0  0
    1.2366   -0.4586    0.1636 C   0  0  0  0  0  0  0  0  0  0  0  0
    2.2560   -0.3602   -0.7388 O   0  0  0  0  0  0  0  0  0  0  0  0
    0.9558   -1.6813    0.9442 C   0  0  0  0  0  0  0  0  0  0  0  0
    0.1331   -1.4520   -0.2450 C   0  0  0  0  0  0  0  0  0  0  0  0
   -2.7985    0.3526   -0.3690 H   0  0  0  0  0  0  0  0  0  0  0  0
   -2.5238   -1.4112   -0.1677 H   0  0  0  0  0  0  0  0  0  0  0  0
   -2.0707   -0.2506    1.1993 H   0  0  0  0  0  0  0  0  0  0  0  0
   -0.8024    0.0251   -1.5335 H   0  0  0  0  0  0  0  0  0  0  0  0
   -0.1187    0.7352    1.3480 H   0  0  0  0  0  0  0  0  0  0  0  0
    1.1784    2.5240    0.2728 H   0  0  0  0  0  0  0  0  0  0  0  0
    0.9376    1.7629   -1.3906 H   0  0  0  0  0  0  0  0  0  0  0  0
   -1.0238    2.8968    0.3479 H   0  0  0  0  0  0  0  0  0  0  0  0
    2.8904   -1.1023   -0.5727 H   0  0  0  0  0  0  0  0  0  0  0  0
    1.7141   -2.4777    0.8790 H   0  0  0  0  0  0  0  0  0  0  0  0
    0.5404   -1.5064    1.9725 H   0  0  0  0  0  0  0  0  0  0  0  0
    0.3098   -2.0820   -1.1338 H   0  0  0  0  0  0  0  0  0  0  0  0
  1  2  1  0
  2  3  1  0
  3  4  1  0
  4  5  1  0
  3  6  1  0
  6  7  1  0
  6  8  1  0
  8  9  1  0
  9  2  1  0
  9  6  1  0
  1 10  1  0
  1 11  1  0
  1 12  1  0
  2 13  1  0
  3 14  1  0
  4 15  1  0
  4 16  1  0
  5 17  1  0
  7 18  1  0
  8 19  1  0
  8 20  1  0
  9 21  1  0
M  END
