
     RDKit          3D

 23 25  0  0  0  0  0  0  0  0999 V2000
   -2.4973    0.3513   -1.0995 C   0  0  0  0  0  0  0  0  0  0  0  0
   -1.0661    0.3340   -0.6713 C   0  0  0  0  0  0  0  0  0  0  0  0
   -0.4659   -1.0266   -0.4214 C   0  0  0  0  0  0  0  0  0  0  0  0
   -1.2219   -0.9830    0.9174 C   0  0  0  0  0  0  0  0  0  0  0  0
   -0.8597    0.5063    0.8167 C   0  0  0  0  0  0  0  0  0  0  0  0
    0.6140    0.4056    1.0483 C   0  0  0  0  0  0  0  0  0  0  0  0
    1.6141    0.5057   -0.0251 C   0  0  0  0  0  0  0  0  0  0  0  0
    3.0671    0.4913    0.4781 C   0  0  0  0  0  0  0  0  0  0  0  0
    0.9250   -0.7637    0.0438 C   0  0  0  0  0  0  0  0  0  0  0  0
   -3.2224    0.1392   -0.3230 H   0  0  0  0  0  0  0  0  0  0  0  0
   -2.7137    1.3986   -1.4612 H   0  0  0  0  0  0  0  0  0  0  0  0
   -2.6761   -0.3674   -1.9377 H   0  0  0  0  0  0  0  0  0  0  0  0
   -0.4580    0.9505   -1.3349 H   0  0  0  0  0  0  0  0  0  0  0  0
   -0.6882   -1.8303   -1.0783 H   0  0  0  0  0  0  0  0  0  0  0  0
   -2.2704   -1.2149    0.8693 H   0  0  0  0  0  0  0  0  0  0  0  0
   -0.6878   -1.4404    1.7551 H   0  0  0  0  0  0  0  0  0  0  0  0
   -1.4559    1.1942    1.3536 H   0  0  0  0  0  0  0  0  0  0  0  0
    0.8857    0.1383    2.0900 H   0  0  0  0  0  0  0  0  0  0  0  0
    1.4729    1.2838   -0.7936 H   0  0  0  0  0  0  0  0  0  0  0  0
    3.1257    0.0791    1.5063 H   0  0  0  0  0  0  0  0  0  0  0  0
    3.4169    1.5422    0.5497 H   0  0  0  0  0  0  0  0  0  0  0  0
    3.7211   -0.0507   -0.2341 H   0  0  0  0  0  0  0  0  0  0  0  0
    1.4409   -1.6432    0.4585 H   0  0  0  0  0  0  0  0  0  0  0  0
  1  2  1  0
  2  3  1  0
  3  4  1  0
  4  5  1  0
  5  6  1  0
  6  7  1  0
  7  8  1  0
  7  9  1  0
  5  2  1  0
  9  6  1  0
  9  3  1  0
  1 10  1  0
  1 11  1  0
  1 12  1  0
  2 13  1  0
  3 14  1  0
  4 15  1  0
  4 16  1  0
  5 17  1  0
  6 18  1  0
  7 19  1  0
  8 20  1  0
  8 21  1  0
  8 22  1  0
  9 23  1  0
M  END
