
     RDKit          3D

 23 24  0  0  0  0  0  0  0  0999 V2000
    2.6727   -0.2340   -0.1529 C   0  0  0  0  0  0  0  0  0  0  0  0
    1.3096    0.2727    0.1992 C   0  0  0  0  0  0  0  0  0  0  0  0
    0.9690    1.5453   -0.4754 C   0  0  0  0  0  0  0  0  0  0  0  0
   -0.3068    1.9598   -0.3325 C   0  0  0  0  0  0  0  0  0  0  0  0
   -1.1977    1.0838    0.4823 C   0  0  0  0  0  0  0  0  0  0  0  0
   -1.1138   -0.3565    0.0770 C   0  0  0  0  0  0  0  0  0  0  0  0
   -2.2441   -0.9501   -0.7228 C   0  0  0  0  0  0  0  0  0  0  0  0
   -0.4706   -1.3259    1.0386 C   0  0  0  0  0  0  0  0  0  0  0  0
    0.2888   -0.7731   -0.1634 C   0  0  0  0  0  0  0  0  0  0  0  0
    2.8472   -0.3367   -1.2316 H   0  0  0  0  0  0  0  0  0  0  0  0
    3.4653    0.3341    0.3699 H   0  0  0  0  0  0  0  0  0  0  0  0
    2.7425   -1.2806    0.2642 H   0  0  0  0  0  0  0  0  0  0  0  0
    1.3189    0.4955    1.3026 H   0  0  0  0  0  0  0  0  0  0  0  0
    1.6999    2.0980   -1.0420 H   0  0  0  0  0  0  0  0  0  0  0  0
   -0.6190    2.8756   -0.7972 H   0  0  0  0  0  0  0  0  0  0  0  0
   -0.9316    1.2375    1.5515 H   0  0  0  0  0  0  0  0  0  0  0  0
   -2.2655    1.4237    0.3542 H   0  0  0  0  0  0  0  0  0  0  0  0
   -2.8745   -0.1545   -1.2185 H   0  0  0  0  0  0  0  0  0  0  0  0
   -2.9362   -1.4418   -0.0004 H   0  0  0  0  0  0  0  0  0  0  0  0
   -1.9031   -1.7078   -1.4623 H   0  0  0  0  0  0  0  0  0  0  0  0
   -0.6907   -2.4060    0.9494 H   0  0  0  0  0  0  0  0  0  0  0  0
   -0.2274   -0.9505    2.0404 H   0  0  0  0  0  0  0  0  0  0  0  0
    0.4672   -1.4086   -1.0305 H   0  0  0  0  0  0  0  0  0  0  0  0
  1  2  1  0
  2  3  1  0
  3  4  2  0
  4  5  1  0
  5  6  1  0
  6  7  1  0
  6  8  1  0
  8  9  1  0
  9  2  1  0
  9  6  1  0
  1 10  1  0
  1 11  1  0
  1 12  1  0
  2 13  1  0
  3 14  1  0
  4 15  1  0
  5 16  1  0
  5 17  1  0
  7 18  1  0
  7 19  1  0
  7 20  1  0
  8 21  1  0
  8 22  1  0
  9 23  1  0
M  END
