
     RDKit          3D

 21 22  0  0  0  0  0  0  0  0999 V2000
    1.4180   -0.8800    0.9227 C   0  0  0  0  0  0  0  0  0  0  0  0
    1.1778   -0.2608   -0.3703 C   0  0  0  0  0  0  0  0  0  0  0  0
    1.4979    1.2223   -0.4538 C   0  0  0  0  0  0  0  0  0  0  0  0
    0.4058    1.8255   -0.0375 C   0  0  0  0  0  0  0  0  0  0  0  0
   -0.5845    0.8576    0.3133 C   0  0  0  0  0  0  0  0  0  0  0  0
   -1.4973   -0.0308   -0.2755 C   0  0  0  0  0  0  0  0  0  0  0  0
   -2.0117   -1.2702    0.4550 C   0  0  0  0  0  0  0  0  0  0  0  0
   -0.2294   -0.1246   -0.8545 C   0  0  0  0  0  0  0  0  0  0  0  0
   -0.1471    0.4921   -2.1423 O   0  0  0  0  0  0  0  0  0  0  0  0
    2.3157   -1.5354    0.8885 H   0  0  0  0  0  0  0  0  0  0  0  0
    0.5708   -1.5593    1.1657 H   0  0  0  0  0  0  0  0  0  0  0  0
    1.5469   -0.2266    1.7972 H   0  0  0  0  0  0  0  0  0  0  0  0
    1.7900   -0.7747   -1.1368 H   0  0  0  0  0  0  0  0  0  0  0  0
    2.3952    1.6947   -0.7733 H   0  0  0  0  0  0  0  0  0  0  0  0
    0.2770    2.9196    0.0297 H   0  0  0  0  0  0  0  0  0  0  0  0
   -0.3062    0.4955    1.3663 H   0  0  0  0  0  0  0  0  0  0  0  0
   -2.3537    0.4506   -0.8345 H   0  0  0  0  0  0  0  0  0  0  0  0
   -1.7594   -1.1388    1.5493 H   0  0  0  0  0  0  0  0  0  0  0  0
   -1.5500   -2.1877    0.0389 H   0  0  0  0  0  0  0  0  0  0  0  0
   -3.0988   -1.3899    0.4207 H   0  0  0  0  0  0  0  0  0  0  0  0
    0.1432    1.4209   -2.0689 H   0  0  0  0  0  0  0  0  0  0  0  0
  1  2  1  0
  2  3  1  0
  3  4  2  0
  4  5  1  0
  5  6  1  0
  6  7  1  0
  6  8  1  0
  8  9  1  0
  8  2  1  0
  8  5  1  0
  1 10  1  0
  1 11  1  0
  1 12  1  0
  2 13  1  0
  3 14  1  0
  4 15  1  0
  5 16  1  0
  6 17  1  0
  7 18  1  0
  7 19  1  0
  7 20  1  0
  9 21  1  0
M  END
