
     RDKit          3D

 22 22  0  0  0  0  0  0  0  0999 V2000
   -1.3974    1.6369   -0.5689 C   0  0  0  0  0  0  0  0  0  0  0  0
   -0.5125    0.4440   -0.7805 C   0  0  0  0  0  0  0  0  0  0  0  0
    0.6565    0.1445    0.0313 C   0  0  0  0  0  0  0  0  0  0  0  0
    1.2191    1.1938    0.9475 C   0  0  0  0  0  0  0  0  0  0  0  0
    1.7546   -0.7174   -0.6067 C   0  0  0  0  0  0  0  0  0  0  0  0
   -0.5807   -0.5655    0.3539 C   0  0  0  0  0  0  0  0  0  0  0  0
   -0.8839   -1.9559   -0.1090 C   0  0  0  0  0  0  0  0  0  0  0  0
   -1.2254   -0.1981    1.5286 O   0  0  0  0  0  0  0  0  0  0  0  0
   -2.4016    1.3651   -1.0106 H   0  0  0  0  0  0  0  0  0  0  0  0
   -1.0648    2.5304   -1.1332 H   0  0  0  0  0  0  0  0  0  0  0  0
   -1.5938    1.8779    0.4811 H   0  0  0  0  0  0  0  0  0  0  0  0
   -0.5063    0.0757   -1.8286 H   0  0  0  0  0  0  0  0  0  0  0  0
    1.9483    1.8149    0.3485 H   0  0  0  0  0  0  0  0  0  0  0  0
    1.8513    0.7021    1.7349 H   0  0  0  0  0  0  0  0  0  0  0  0
    0.4805    1.8767    1.3685 H   0  0  0  0  0  0  0  0  0  0  0  0
    1.4111   -1.2158   -1.5171 H   0  0  0  0  0  0  0  0  0  0  0  0
    2.6273   -0.0778   -0.9084 H   0  0  0  0  0  0  0  0  0  0  0  0
    2.1450   -1.4049    0.1678 H   0  0  0  0  0  0  0  0  0  0  0  0
   -1.1758   -2.6172    0.7166 H   0  0  0  0  0  0  0  0  0  0  0  0
   -1.8006   -1.8772   -0.7672 H   0  0  0  0  0  0  0  0  0  0  0  0
   -0.0979   -2.3673   -0.7685 H   0  0  0  0  0  0  0  0  0  0  0  0
   -0.8530   -0.6648    2.3201 H   0  0  0  0  0  0  0  0  0  0  0  0
  1  2  1  0
  2  3  1  0
  3  4  1  0
  3  5  1  0
  3  6  1  0
  6  7  1  0
  6  8  1  0
  6  2  1  0
  1  9  1  0
  1 10  1  0
  1 11  1  0
  2 12  1  0
  4 13  1  0
  4 14  1  0
  4 15  1  0
  5 16  1  0
  5 17  1  0
  5 18  1  0
  7 19  1  0
  7 20  1  0
  7 21  1  0
  8 22  1  0
M  END
