
     RDKit          3D

 23 25  0  0  0  0  0  0  0  0999 V2000
    2.2522   -0.4050   -0.4195 C   0  0  0  0  0  0  0  0  0  0  0  0
    0.7605   -0.4368   -0.5444 C   0  0  0  0  0  0  0  0  0  0  0  0
    0.0154   -1.1038    0.5884 C   0  0  0  0  0  0  0  0  0  0  0  0
   -1.3109   -1.6745    0.0776 C   0  0  0  0  0  0  0  0  0  0  0  0
   -2.1658   -0.4800   -0.2636 C   0  0  0  0  0  0  0  0  0  0  0  0
   -1.3854    0.7330    0.1425 C   0  0  0  0  0  0  0  0  0  0  0  0
   -0.3865    0.2390    1.0807 C   0  0  0  0  0  0  0  0  0  0  0  0
    0.0437    0.8376   -0.2049 C   0  0  0  0  0  0  0  0  0  0  0  0
    0.7768    2.1288   -0.1298 C   0  0  0  0  0  0  0  0  0  0  0  0
    2.5855   -1.2173    0.2671 H   0  0  0  0  0  0  0  0  0  0  0  0
    2.6595    0.5867   -0.1389 H   0  0  0  0  0  0  0  0  0  0  0  0
    2.7598   -0.6556   -1.3986 H   0  0  0  0  0  0  0  0  0  0  0  0
    0.4627   -0.8614   -1.5248 H   0  0  0  0  0  0  0  0  0  0  0  0
    0.5838   -1.7498    1.2449 H   0  0  0  0  0  0  0  0  0  0  0  0
   -1.0939   -2.2248   -0.8803 H   0  0  0  0  0  0  0  0  0  0  0  0
   -1.7729   -2.3229    0.8320 H   0  0  0  0  0  0  0  0  0  0  0  0
   -3.0823   -0.5064    0.3963 H   0  0  0  0  0  0  0  0  0  0  0  0
   -2.5114   -0.4648   -1.3059 H   0  0  0  0  0  0  0  0  0  0  0  0
   -1.9938    1.6000    0.4164 H   0  0  0  0  0  0  0  0  0  0  0  0
   -0.1528    0.6303    2.0523 H   0  0  0  0  0  0  0  0  0  0  0  0
    0.0864    2.9708   -0.2795 H   0  0  0  0  0  0  0  0  0  0  0  0
    1.2650    2.1962    0.8843 H   0  0  0  0  0  0  0  0  0  0  0  0
    1.6041    2.1809   -0.8924 H   0  0  0  0  0  0  0  0  0  0  0  0
  1  2  1  0
  2  3  1  0
  3  4  1  0
  4  5  1  0
  5  6  1  0
  6  7  1  0
  7  8  1  0
  8  9  1  0
  8  2  1  0
  7  3  1  0
  8  6  1  0
  1 10  1  0
  1 11  1  0
  1 12  1  0
  2 13  1  0
  3 14  1  0
  4 15  1  0
  4 16  1  0
  5 17  1  0
  5 18  1  0
  6 19  1  0
  7 20  1  0
  9 21  1  0
  9 22  1  0
  9 23  1  0
M  END
