
     RDKit          3D

 18 19  0  0  0  0  0  0  0  0999 V2000
   -1.5394    1.0767   -0.2414 C   0  0  0  0  0  0  0  0  0  0  0  0
   -0.5721    0.3108    0.6402 C   0  0  0  0  0  0  0  0  0  0  0  0
   -1.0359   -1.1298    0.7473 C   0  0  0  0  0  0  0  0  0  0  0  0
   -0.1107   -1.5403   -0.2260 O   0  0  0  0  0  0  0  0  0  0  0  0
    0.5089   -0.3339   -0.0948 C   0  0  0  0  0  0  0  0  0  0  0  0
    1.8729   -0.3950    0.4711 C   0  0  0  0  0  0  0  0  0  0  0  0
    2.3629   -0.0878   -0.8161 O   0  0  0  0  0  0  0  0  0  0  0  0
    1.0953    0.3110   -1.2869 C   0  0  0  0  0  0  0  0  0  0  0  0
   -1.0122    1.6798   -1.0175 H   0  0  0  0  0  0  0  0  0  0  0  0
   -2.2093    0.3888   -0.8189 H   0  0  0  0  0  0  0  0  0  0  0  0
   -2.1623    1.6900    0.4336 H   0  0  0  0  0  0  0  0  0  0  0  0
   -0.3675    0.7734    1.6260 H   0  0  0  0  0  0  0  0  0  0  0  0
   -0.9016   -1.5506    1.7418 H   0  0  0  0  0  0  0  0  0  0  0  0
   -2.0570   -1.3213    0.3530 H   0  0  0  0  0  0  0  0  0  0  0  0
    2.1635   -1.4426    0.7229 H   0  0  0  0  0  0  0  0  0  0  0  0
    2.1609    0.3124    1.2503 H   0  0  0  0  0  0  0  0  0  0  0  0
    1.0201    1.4170   -1.2551 H   0  0  0  0  0  0  0  0  0  0  0  0
    0.7833   -0.1585   -2.2297 H   0  0  0  0  0  0  0  0  0  0  0  0
  1  2  1  0
  2  3  1  0
  3  4  1  0
  4  5  1  0
  5  6  1  0
  6  7  1  0
  7  8  1  0
  5  2  1  0
  8  5  1  0
  1  9  1  0
  1 10  1  0
  1 11  1  0
  2 12  1  0
  3 13  1  0
  3 14  1  0
  6 15  1  0
  6 16  1  0
  8 17  1  0
  8 18  1  0
M  END
