
     RDKit          3D

 19 20  0  0  0  0  0  0  0  0999 V2000
    2.0364   -0.8000   -0.1657 C   0  0  0  0  0  0  0  0  0  0  0  0
    1.0240    0.3135   -0.4553 C   0  0  0  0  0  0  0  0  0  0  0  0
    0.4538    0.9187    0.8133 C   0  0  0  0  0  0  0  0  0  0  0  0
    0.2673    2.3053    0.8194 O   0  0  0  0  0  0  0  0  0  0  0  0
   -0.3349    0.0728   -0.0750 C   0  0  0  0  0  0  0  0  0  0  0  0
   -0.9667   -1.2036    0.2841 C   0  0  0  0  0  0  0  0  0  0  0  0
   -2.1976   -0.7375   -0.4500 C   0  0  0  0  0  0  0  0  0  0  0  0
   -3.2852   -1.1780   -0.7413 O   0  0  0  0  0  0  0  0  0  0  0  0
   -1.5601    0.5984   -0.7311 C   0  0  0  0  0  0  0  0  0  0  0  0
    1.9284   -1.1819    0.8734 H   0  0  0  0  0  0  0  0  0  0  0  0
    3.0649   -0.4125   -0.2539 H   0  0  0  0  0  0  0  0  0  0  0  0
    1.8697   -1.6757   -0.8274 H   0  0  0  0  0  0  0  0  0  0  0  0
    1.3042    0.9530   -1.2966 H   0  0  0  0  0  0  0  0  0  0  0  0
    0.7398    0.5110    1.7926 H   0  0  0  0  0  0  0  0  0  0  0  0
    0.9341    2.7547    0.2433 H   0  0  0  0  0  0  0  0  0  0  0  0
   -0.6005   -2.1291   -0.2141 H   0  0  0  0  0  0  0  0  0  0  0  0
   -1.1096   -1.3224    1.3760 H   0  0  0  0  0  0  0  0  0  0  0  0
   -2.0637    1.3481   -0.0704 H   0  0  0  0  0  0  0  0  0  0  0  0
   -1.5044    0.8651   -1.7847 H   0  0  0  0  0  0  0  0  0  0  0  0
  1  2  1  0
  2  3  1  0
  3  4  1  0
  3  5  1  0
  5  6  1  0
  6  7  1  0
  7  8  2  0
  7  9  1  0
  5  2  1  0
  9  5  1  0
  1 10  1  0
  1 11  1  0
  1 12  1  0
  2 13  1  0
  3 14  1  0
  4 15  1  0
  6 16  1  0
  6 17  1  0
  9 18  1  0
  9 19  1  0
M  END
