
     RDKit          3D

 21 22  0  0  0  0  0  0  0  0999 V2000
   -2.6780   -1.0829   -0.1111 C   0  0  0  0  0  0  0  0  0  0  0  0
   -1.3637   -0.5850    0.4735 C   0  0  0  0  0  0  0  0  0  0  0  0
   -1.2949    0.9248    0.5576 C   0  0  0  0  0  0  0  0  0  0  0  0
   -0.4361    0.0994   -0.4231 C   0  0  0  0  0  0  0  0  0  0  0  0
    1.0316    0.2265   -0.1631 C   0  0  0  0  0  0  0  0  0  0  0  0
    1.8873   -1.0127   -0.0251 C   0  0  0  0  0  0  0  0  0  0  0  0
    3.1315   -0.5938    0.4469 O   0  0  0  0  0  0  0  0  0  0  0  0
    1.5658    1.5650    0.2103 C   0  0  0  0  0  0  0  0  0  0  0  0
    1.6501    1.1497   -1.0996 O   0  0  0  0  0  0  0  0  0  0  0  0
   -2.7920   -2.1645   -0.0579 H   0  0  0  0  0  0  0  0  0  0  0  0
   -2.8100   -0.6739   -1.1538 H   0  0  0  0  0  0  0  0  0  0  0  0
   -3.4896   -0.5867    0.4807 H   0  0  0  0  0  0  0  0  0  0  0  0
   -0.9890   -1.1967    1.2989 H   0  0  0  0  0  0  0  0  0  0  0  0
   -0.8110    1.2826    1.4847 H   0  0  0  0  0  0  0  0  0  0  0  0
   -2.1047    1.5347    0.1159 H   0  0  0  0  0  0  0  0  0  0  0  0
   -0.7633    0.1987   -1.4975 H   0  0  0  0  0  0  0  0  0  0  0  0
    2.0534   -1.5008   -1.0045 H   0  0  0  0  0  0  0  0  0  0  0  0
    1.4595   -1.7435    0.6638 H   0  0  0  0  0  0  0  0  0  0  0  0
    3.4603    0.1489   -0.1533 H   0  0  0  0  0  0  0  0  0  0  0  0
    0.7968    2.3373    0.4534 H   0  0  0  0  0  0  0  0  0  0  0  0
    2.4960    1.6730    0.8031 H   0  0  0  0  0  0  0  0  0  0  0  0
  1  2  1  0
  2  3  1  0
  3  4  1  0
  4  5  1  0
  5  6  1  0
  6  7  1  0
  5  8  1  0
  8  9  1  0
  4  2  1  0
  9  5  1  0
  1 10  1  0
  1 11  1  0
  1 12  1  0
  2 13  1  0
  3 14  1  0
  3 15  1  0
  4 16  1  0
  6 17  1  0
  6 18  1  0
  7 19  1  0
  8 20  1  0
  8 21  1  0
M  END
