
     RDKit          3D

 21 23  0  0  0  0  0  0  0  0999 V2000
    2.3476    0.6507   -0.2007 C   0  0  0  0  0  0  0  0  0  0  0  0
    1.0541   -0.0045    0.1766 C   0  0  0  0  0  0  0  0  0  0  0  0
   -0.0707    0.9372    0.5418 C   0  0  0  0  0  0  0  0  0  0  0  0
   -1.1558    0.2219    1.3454 C   0  0  0  0  0  0  0  0  0  0  0  0
   -1.7941   -0.6082    0.2553 C   0  0  0  0  0  0  0  0  0  0  0  0
   -0.7866   -1.5273   -0.4132 C   0  0  0  0  0  0  0  0  0  0  0  0
    0.1998   -0.4866   -0.9588 C   0  0  0  0  0  0  0  0  0  0  0  0
   -0.6018    0.7810   -0.8632 C   0  0  0  0  0  0  0  0  0  0  0  0
   -1.9300    0.3772   -0.7535 O   0  0  0  0  0  0  0  0  0  0  0  0
    3.0973   -0.1503   -0.3486 H   0  0  0  0  0  0  0  0  0  0  0  0
    2.2326    1.1648   -1.1648 H   0  0  0  0  0  0  0  0  0  0  0  0
    2.6693    1.3612    0.5971 H   0  0  0  0  0  0  0  0  0  0  0  0
    1.2522   -0.8070    0.9452 H   0  0  0  0  0  0  0  0  0  0  0  0
    0.1947    1.9303    0.8717 H   0  0  0  0  0  0  0  0  0  0  0  0
   -0.7601   -0.3565    2.1748 H   0  0  0  0  0  0  0  0  0  0  0  0
   -1.9081    0.9912    1.6344 H   0  0  0  0  0  0  0  0  0  0  0  0
   -2.7242   -1.0796    0.5228 H   0  0  0  0  0  0  0  0  0  0  0  0
   -1.3121   -2.0550   -1.2136 H   0  0  0  0  0  0  0  0  0  0  0  0
   -0.2920   -2.1879    0.3139 H   0  0  0  0  0  0  0  0  0  0  0  0
    0.6717   -0.7273   -1.8963 H   0  0  0  0  0  0  0  0  0  0  0  0
   -0.3838    1.5745   -1.5663 H   0  0  0  0  0  0  0  0  0  0  0  0
  1  2  1  0
  2  3  1  0
  3  4  1  0
  4  5  1  0
  5  6  1  0
  6  7  1  0
  7  8  1  0
  8  9  1  0
  7  2  1  0
  8  3  1  0
  9  5  1  0
  1 10  1  0
  1 11  1  0
  1 12  1  0
  2 13  1  0
  3 14  1  0
  4 15  1  0
  4 16  1  0
  5 17  1  0
  6 18  1  0
  6 19  1  0
  7 20  1  0
  8 21  1  0
M  END
