
     RDKit          3D

 21 22  0  0  0  0  0  0  0  0999 V2000
    1.9819   -0.7450    0.3919 C   0  0  0  0  0  0  0  0  0  0  0  0
    0.7120    0.0695    0.4069 C   0  0  0  0  0  0  0  0  0  0  0  0
    0.5785    0.9787   -0.7808 C   0  0  0  0  0  0  0  0  0  0  0  0
    1.1651    2.2209   -0.5615 O   0  0  0  0  0  0  0  0  0  0  0  0
   -0.9198    1.1500   -0.8931 C   0  0  0  0  0  0  0  0  0  0  0  0
   -1.5604   -0.1014   -0.4119 C   0  0  0  0  0  0  0  0  0  0  0  0
   -1.6863   -0.4639    1.0042 C   0  0  0  0  0  0  0  0  0  0  0  0
   -0.4713   -0.8334    0.2770 C   0  0  0  0  0  0  0  0  0  0  0  0
   -0.2198   -2.1116   -0.1843 O   0  0  0  0  0  0  0  0  0  0  0  0
    2.7419   -0.3434    1.1080 H   0  0  0  0  0  0  0  0  0  0  0  0
    2.4653   -0.7263   -0.6081 H   0  0  0  0  0  0  0  0  0  0  0  0
    1.7725   -1.8239    0.5983 H   0  0  0  0  0  0  0  0  0  0  0  0
    0.7139    0.6900    1.3113 H   0  0  0  0  0  0  0  0  0  0  0  0
    1.0178    0.5462   -1.6949 H   0  0  0  0  0  0  0  0  0  0  0  0
    1.3470    2.3844    0.4091 H   0  0  0  0  0  0  0  0  0  0  0  0
   -1.1330    1.2558   -1.9931 H   0  0  0  0  0  0  0  0  0  0  0  0
   -1.2905    2.0591   -0.4010 H   0  0  0  0  0  0  0  0  0  0  0  0
   -2.2456   -0.6563   -1.1155 H   0  0  0  0  0  0  0  0  0  0  0  0
   -1.6023    0.3871    1.7429 H   0  0  0  0  0  0  0  0  0  0  0  0
   -2.4532   -1.1889    1.3049 H   0  0  0  0  0  0  0  0  0  0  0  0
   -0.9134   -2.7475    0.0898 H   0  0  0  0  0  0  0  0  0  0  0  0
  1  2  1  0
  2  3  1  0
  3  4  1  0
  3  5  1  0
  5  6  1  0
  6  7  1  0
  7  8  1  0
  8  9  1  0
  8  2  1  0
  8  6  1  0
  1 10  1  0
  1 11  1  0
  1 12  1  0
  2 13  1  0
  3 14  1  0
  4 15  1  0
  5 16  1  0
  5 17  1  0
  6 18  1  0
  7 19  1  0
  7 20  1  0
  9 21  1  0
M  END
