
     RDKit          3D

 23 24  0  0  0  0  0  0  0  0999 V2000
   -1.1560    1.1250   -1.4921 C   0  0  0  0  0  0  0  0  0  0  0  0
   -1.3394    0.0231   -0.5621 C   0  0  0  0  0  0  0  0  0  0  0  0
   -0.7310   -1.3056   -0.9977 C   0  0  0  0  0  0  0  0  0  0  0  0
   -0.4310   -0.6151    0.3680 C   0  0  0  0  0  0  0  0  0  0  0  0
   -1.1747   -1.3471    1.5234 C   0  0  0  0  0  0  0  0  0  0  0  0
    0.9754   -0.3429    0.6966 C   0  0  0  0  0  0  0  0  0  0  0  0
    1.4551    0.9654    1.2392 C   0  0  0  0  0  0  0  0  0  0  0  0
    1.9983    0.3358   -0.0860 C   0  0  0  0  0  0  0  0  0  0  0  0
    1.8590    1.0939   -1.2072 O   0  0  0  0  0  0  0  0  0  0  0  0
   -0.5802    0.9738   -2.4033 H   0  0  0  0  0  0  0  0  0  0  0  0
   -2.1314    1.5300   -1.8355 H   0  0  0  0  0  0  0  0  0  0  0  0
   -0.6984    1.9998   -0.9377 H   0  0  0  0  0  0  0  0  0  0  0  0
   -2.4495   -0.1211   -0.3631 H   0  0  0  0  0  0  0  0  0  0  0  0
   -1.3164   -2.2258   -0.9995 H   0  0  0  0  0  0  0  0  0  0  0  0
    0.0900   -1.2937   -1.7365 H   0  0  0  0  0  0  0  0  0  0  0  0
   -0.6341   -2.2839    1.7672 H   0  0  0  0  0  0  0  0  0  0  0  0
   -2.1893   -1.6064    1.2306 H   0  0  0  0  0  0  0  0  0  0  0  0
   -1.2281   -0.6719    2.4070 H   0  0  0  0  0  0  0  0  0  0  0  0
    1.4337   -1.1979    1.3114 H   0  0  0  0  0  0  0  0  0  0  0  0
    0.8627    1.8851    1.1281 H   0  0  0  0  0  0  0  0  0  0  0  0
    2.1856    1.0318    2.0718 H   0  0  0  0  0  0  0  0  0  0  0  0
    3.0851    0.0121   -0.0025 H   0  0  0  0  0  0  0  0  0  0  0  0
    2.1147    2.0353   -1.1204 H   0  0  0  0  0  0  0  0  0  0  0  0
  1  2  1  0
  2  3  1  0
  3  4  1  0
  4  5  1  0
  4  6  1  0
  6  7  1  0
  7  8  1  0
  8  9  1  0
  4  2  1  0
  8  6  1  0
  1 10  1  0
  1 11  1  0
  1 12  1  0
  2 13  1  0
  3 14  1  0
  3 15  1  0
  5 16  1  0
  5 17  1  0
  5 18  1  0
  6 19  1  0
  7 20  1  0
  7 21  1  0
  8 22  1  0
  9 23  1  0
M  END
