
     RDKit          3D

 19 20  0  0  0  0  0  0  0  0999 V2000
   -2.4831   -0.3642   -0.0870 C   0  0  0  0  0  0  0  0  0  0  0  0
   -1.1887    0.1566   -0.6476 C   0  0  0  0  0  0  0  0  0  0  0  0
   -0.3171    0.7082    0.4900 C   0  0  0  0  0  0  0  0  0  0  0  0
    0.7984   -0.0373   -0.1563 C   0  0  0  0  0  0  0  0  0  0  0  0
    1.7703    0.7613   -0.9291 C   0  0  0  0  0  0  0  0  0  0  0  0
    2.7694    0.3101   -0.0351 O   0  0  0  0  0  0  0  0  0  0  0  0
    1.8922   -0.5682    0.6470 C   0  0  0  0  0  0  0  0  0  0  0  0
   -0.1383   -0.9012   -0.8350 C   0  0  0  0  0  0  0  0  0  0  0  0
   -0.1531   -2.0054   -1.3560 O   0  0  0  0  0  0  0  0  0  0  0  0
   -3.1388    0.5095    0.0912 H   0  0  0  0  0  0  0  0  0  0  0  0
   -2.2845   -0.8189    0.8965 H   0  0  0  0  0  0  0  0  0  0  0  0
   -3.0262   -1.0274   -0.7875 H   0  0  0  0  0  0  0  0  0  0  0  0
   -1.2511    0.8039   -1.5277 H   0  0  0  0  0  0  0  0  0  0  0  0
   -0.2675    1.8108    0.3869 H   0  0  0  0  0  0  0  0  0  0  0  0
   -0.6260    0.3900    1.4887 H   0  0  0  0  0  0  0  0  0  0  0  0
    1.6228    1.8559   -0.7512 H   0  0  0  0  0  0  0  0  0  0  0  0
    1.9220    0.4676   -1.9706 H   0  0  0  0  0  0  0  0  0  0  0  0
    1.8978   -0.4408    1.7356 H   0  0  0  0  0  0  0  0  0  0  0  0
    2.2016   -1.6105    0.3625 H   0  0  0  0  0  0  0  0  0  0  0  0
  1  2  1  0
  2  3  1  0
  3  4  1  0
  4  5  1  0
  5  6  1  0
  6  7  1  0
  4  8  1  0
  8  9  2  0
  8  2  1  0
  7  4  1  0
  1 10  1  0
  1 11  1  0
  1 12  1  0
  2 13  1  0
  3 14  1  0
  3 15  1  0
  5 16  1  0
  5 17  1  0
  7 18  1  0
  7 19  1  0
M  END
