
     RDKit          3D

 14 15  0  0  0  0  0  0  0  0999 V2000
   -1.9148   -0.5716   -0.0054 C   0  0  0  0  0  0  0  0  0  0  0  0
   -0.8196    0.4543    0.3275 C   0  0  0  0  0  0  0  0  0  0  0  0
    0.1961    0.5510   -0.6323 C   0  0  0  0  0  0  0  0  0  0  0  0
    1.1841   -0.3060   -1.1147 O   0  0  0  0  0  0  0  0  0  0  0  0
    2.2875   -0.0021   -0.2790 C   0  0  0  0  0  0  0  0  0  0  0  0
    3.5230   -0.1967   -0.5311 O   0  0  0  0  0  0  0  0  0  0  0  0
    1.7115    0.5574    0.8795 O   0  0  0  0  0  0  0  0  0  0  0  0
    0.4130    0.0571    0.8609 C   0  0  0  0  0  0  0  0  0  0  0  0
   -2.6900   -0.6130    0.7500 H   0  0  0  0  0  0  0  0  0  0  0  0
   -1.3606   -1.5420   -0.1222 H   0  0  0  0  0  0  0  0  0  0  0  0
   -2.2597   -0.3051   -1.0243 H   0  0  0  0  0  0  0  0  0  0  0  0
   -1.3068    1.3727    0.7433 H   0  0  0  0  0  0  0  0  0  0  0  0
    0.5425    1.6149   -0.8341 H   0  0  0  0  0  0  0  0  0  0  0  0
    0.4936   -1.0708    0.9819 H   0  0  0  0  0  0  0  0  0  0  0  0
  1  2  1  0
  2  3  1  0
  3  4  1  0
  4  5  1  0
  5  6  2  0
  5  7  1  0
  7  8  1  0
  8  2  1  0
  8  3  1  0
  1  9  1  0
  1 10  1  0
  1 11  1  0
  2 12  1  0
  3 13  1  0
  8 14  1  0
M  END
