
     RDKit          3D

 16 16  0  0  0  0  0  0  0  0999 V2000
   -1.5742   -0.1928   -0.6821 C   0  0  0  0  0  0  0  0  0  0  0  0
   -0.6129    0.1616    0.4565 C   0  0  0  0  0  0  0  0  0  0  0  0
    0.2527    1.3348    0.0946 C   0  0  0  0  0  0  0  0  0  0  0  0
    1.6403    1.0267    0.2001 O   0  0  0  0  0  0  0  0  0  0  0  0
    2.0870   -0.1660   -0.3588 C   0  0  0  0  0  0  0  0  0  0  0  0
    3.1898   -0.3104   -0.9184 O   0  0  0  0  0  0  0  0  0  0  0  0
    1.1935   -1.2491   -0.2568 O   0  0  0  0  0  0  0  0  0  0  0  0
    0.1867   -1.0916    0.7390 C   0  0  0  0  0  0  0  0  0  0  0  0
   -1.0634   -0.8938   -1.3576 H   0  0  0  0  0  0  0  0  0  0  0  0
   -2.4917   -0.5990   -0.2446 H   0  0  0  0  0  0  0  0  0  0  0  0
   -1.8116    0.7394   -1.2167 H   0  0  0  0  0  0  0  0  0  0  0  0
   -1.2189    0.3785    1.3626 H   0  0  0  0  0  0  0  0  0  0  0  0
   -0.0152    1.6402   -0.9490 H   0  0  0  0  0  0  0  0  0  0  0  0
    0.0539    2.2326    0.7236 H   0  0  0  0  0  0  0  0  0  0  0  0
    0.6547   -1.0391    1.7328 H   0  0  0  0  0  0  0  0  0  0  0  0
   -0.4707   -1.9721    0.6749 H   0  0  0  0  0  0  0  0  0  0  0  0
  1  2  1  0
  2  3  1  0
  3  4  1  0
  4  5  1  0
  5  6  2  0
  5  7  1  0
  7  8  1  0
  8  2  1  0
  1  9  1  0
  1 10  1  0
  1 11  1  0
  2 12  1  0
  3 13  1  0
  3 14  1  0
  8 15  1  0
  8 16  1  0
M  END
