
     RDKit          3D

 23 23  0  0  0  0  0  0  0  0999 V2000
   -1.6759   -0.4606    0.7866 C   0  0  0  0  0  0  0  0  0  0  0  0
   -0.8632   -0.1709   -0.4398 C   0  0  0  0  0  0  0  0  0  0  0  0
   -0.9022    1.3129   -0.7384 C   0  0  0  0  0  0  0  0  0  0  0  0
    0.1027    2.0725    0.0210 C   0  0  0  0  0  0  0  0  0  0  0  0
    1.0634    1.5688    0.7674 C   0  0  0  0  0  0  0  0  0  0  0  0
    1.2147    0.1064    0.9077 C   0  0  0  0  0  0  0  0  0  0  0  0
    0.5894   -0.5455   -0.2884 C   0  0  0  0  0  0  0  0  0  0  0  0
    0.8076   -2.0352   -0.2270 C   0  0  0  0  0  0  0  0  0  0  0  0
    1.2317   -0.0719   -1.4349 O   0  0  0  0  0  0  0  0  0  0  0  0
   -2.7040   -0.0904    0.5967 H   0  0  0  0  0  0  0  0  0  0  0  0
   -1.7703   -1.5634    0.9349 H   0  0  0  0  0  0  0  0  0  0  0  0
   -1.2741   -0.0322    1.7084 H   0  0  0  0  0  0  0  0  0  0  0  0
   -1.2838   -0.7703   -1.2712 H   0  0  0  0  0  0  0  0  0  0  0  0
   -1.9360    1.6845   -0.5963 H   0  0  0  0  0  0  0  0  0  0  0  0
   -0.6977    1.4114   -1.8438 H   0  0  0  0  0  0  0  0  0  0  0  0
    0.0353    3.1649   -0.0486 H   0  0  0  0  0  0  0  0  0  0  0  0
    1.7500    2.2161    1.2841 H   0  0  0  0  0  0  0  0  0  0  0  0
    2.2990   -0.2005    0.9109 H   0  0  0  0  0  0  0  0  0  0  0  0
    0.7602   -0.2637    1.8521 H   0  0  0  0  0  0  0  0  0  0  0  0
    0.4069   -2.4830   -1.1457 H   0  0  0  0  0  0  0  0  0  0  0  0
    0.3314   -2.4121    0.6961 H   0  0  0  0  0  0  0  0  0  0  0  0
    1.9087   -2.1938   -0.2444 H   0  0  0  0  0  0  0  0  0  0  0  0
    0.6062   -0.2443   -2.1874 H   0  0  0  0  0  0  0  0  0  0  0  0
  1  2  1  0
  2  3  1  0
  3  4  1  0
  4  5  2  0
  5  6  1  0
  6  7  1  0
  7  8  1  0
  7  9  1  0
  7  2  1  0
  1 10  1  0
  1 11  1  0
  1 12  1  0
  2 13  1  0
  3 14  1  0
  3 15  1  0
  4 16  1  0
  5 17  1  0
  6 18  1  0
  6 19  1  0
  8 20  1  0
  8 21  1  0
  8 22  1  0
  9 23  1  0
M  END
