
     RDKit          3D

 21 23  0  0  0  0  0  0  0  0999 V2000
    2.7821   -0.1827    0.2817 C   0  0  0  0  0  0  0  0  0  0  0  0
    1.2824   -0.2499    0.5082 C   0  0  0  0  0  0  0  0  0  0  0  0
    0.4861   -0.2452   -0.7667 C   0  0  0  0  0  0  0  0  0  0  0  0
   -0.8689   -0.8611   -0.7983 C   0  0  0  0  0  0  0  0  0  0  0  0
   -1.2861   -1.0425   -2.1213 O   0  0  0  0  0  0  0  0  0  0  0  0
   -1.7590    0.1787   -0.1726 C   0  0  0  0  0  0  0  0  0  0  0  0
   -1.6982    0.2017    1.3408 C   0  0  0  0  0  0  0  0  0  0  0  0
   -0.9092    1.1529    0.5530 C   0  0  0  0  0  0  0  0  0  0  0  0
    0.4914    0.9232    0.1247 C   0  0  0  0  0  0  0  0  0  0  0  0
    3.1082   -1.1597   -0.1466 H   0  0  0  0  0  0  0  0  0  0  0  0
    3.3464    0.1170    1.1591 H   0  0  0  0  0  0  0  0  0  0  0  0
    2.9405    0.5568   -0.5536 H   0  0  0  0  0  0  0  0  0  0  0  0
    1.0095   -0.9296    1.3390 H   0  0  0  0  0  0  0  0  0  0  0  0
    1.0131   -0.1763   -1.7436 H   0  0  0  0  0  0  0  0  0  0  0  0
   -0.9445   -1.8344   -0.2718 H   0  0  0  0  0  0  0  0  0  0  0  0
   -2.2742   -0.9380   -2.1142 H   0  0  0  0  0  0  0  0  0  0  0  0
   -2.6693    0.5247   -0.6816 H   0  0  0  0  0  0  0  0  0  0  0  0
   -1.2254   -0.6502    1.8762 H   0  0  0  0  0  0  0  0  0  0  0  0
   -2.6189    0.5520    1.8122 H   0  0  0  0  0  0  0  0  0  0  0  0
   -1.2798    2.2183    0.5424 H   0  0  0  0  0  0  0  0  0  0  0  0
    1.0738    1.8442   -0.1669 H   0  0  0  0  0  0  0  0  0  0  0  0
  1  2  1  0
  2  3  1  0
  3  4  1  0
  4  5  1  0
  4  6  1  0
  6  7  1  0
  7  8  1  0
  8  9  1  0
  9  2  1  0
  9  3  1  0
  8  6  1  0
  1 10  1  0
  1 11  1  0
  1 12  1  0
  2 13  1  0
  3 14  1  0
  4 15  1  0
  5 16  1  0
  6 17  1  0
  7 18  1  0
  7 19  1  0
  8 20  1  0
  9 21  1  0
M  END
