
     RDKit          3D

 23 24  0  0  0  0  0  0  0  0999 V2000
    2.1149    0.0788   -0.4292 C   0  0  0  0  0  0  0  0  0  0  0  0
    1.0543   -0.0567    0.6117 C   0  0  0  0  0  0  0  0  0  0  0  0
    0.3962   -1.4231    0.7083 C   0  0  0  0  0  0  0  0  0  0  0  0
   -0.9599   -0.7894    0.3676 C   0  0  0  0  0  0  0  0  0  0  0  0
   -1.3960   -1.2755   -1.0113 C   0  0  0  0  0  0  0  0  0  0  0  0
   -0.2818    0.5204    0.3215 C   0  0  0  0  0  0  0  0  0  0  0  0
   -0.7764    1.6144    1.1996 C   0  0  0  0  0  0  0  0  0  0  0  0
   -0.8225    2.4358    0.0490 O   0  0  0  0  0  0  0  0  0  0  0  0
   -0.4599    1.3989   -0.8423 C   0  0  0  0  0  0  0  0  0  0  0  0
    2.6583    1.0212   -0.2500 H   0  0  0  0  0  0  0  0  0  0  0  0
    2.8684   -0.7382   -0.2772 H   0  0  0  0  0  0  0  0  0  0  0  0
    1.7499   -0.0428   -1.4627 H   0  0  0  0  0  0  0  0  0  0  0  0
    1.4335    0.2314    1.6061 H   0  0  0  0  0  0  0  0  0  0  0  0
    0.3439   -1.8564    1.7136 H   0  0  0  0  0  0  0  0  0  0  0  0
    0.7943   -2.0934   -0.0566 H   0  0  0  0  0  0  0  0  0  0  0  0
   -1.7355   -0.9408    1.1320 H   0  0  0  0  0  0  0  0  0  0  0  0
   -1.0828   -2.3509   -1.0538 H   0  0  0  0  0  0  0  0  0  0  0  0
   -2.4740   -1.1727   -1.1744 H   0  0  0  0  0  0  0  0  0  0  0  0
   -0.7881   -0.7620   -1.7979 H   0  0  0  0  0  0  0  0  0  0  0  0
   -1.7422    1.4563    1.6905 H   0  0  0  0  0  0  0  0  0  0  0  0
    0.0583    1.9620    1.8747 H   0  0  0  0  0  0  0  0  0  0  0  0
   -1.3730    1.1619   -1.4541 H   0  0  0  0  0  0  0  0  0  0  0  0
    0.4200    1.6208   -1.4650 H   0  0  0  0  0  0  0  0  0  0  0  0
  1  2  1  0
  2  3  1  0
  3  4  1  0
  4  5  1  0
  4  6  1  0
  6  7  1  0
  7  8  1  0
  8  9  1  0
  6  2  1  0
  9  6  1  0
  1 10  1  0
  1 11  1  0
  1 12  1  0
  2 13  1  0
  3 14  1  0
  3 15  1  0
  4 16  1  0
  5 17  1  0
  5 18  1  0
  5 19  1  0
  7 20  1  0
  7 21  1  0
  9 22  1  0
  9 23  1  0
M  END
