
     RDKit          3D

 23 24  0  0  0  0  0  0  0  0999 V2000
    2.3455   -0.3210    0.2012 C   0  0  0  0  0  0  0  0  0  0  0  0
    0.9368    0.0794   -0.1623 C   0  0  0  0  0  0  0  0  0  0  0  0
    0.4723    1.2832    0.6442 C   0  0  0  0  0  0  0  0  0  0  0  0
   -0.9164    1.6506    0.1628 C   0  0  0  0  0  0  0  0  0  0  0  0
   -1.6862    0.3786   -0.2248 C   0  0  0  0  0  0  0  0  0  0  0  0
   -1.2023   -0.6595    0.7922 C   0  0  0  0  0  0  0  0  0  0  0  0
    0.0360   -1.0997   -0.0004 C   0  0  0  0  0  0  0  0  0  0  0  0
   -0.6838   -1.2937   -1.3445 C   0  0  0  0  0  0  0  0  0  0  0  0
   -1.2994   -0.0648   -1.4673 O   0  0  0  0  0  0  0  0  0  0  0  0
    2.9978    0.5476    0.4185 H   0  0  0  0  0  0  0  0  0  0  0  0
    2.7987   -0.8011   -0.7160 H   0  0  0  0  0  0  0  0  0  0  0  0
    2.3645   -1.0997    0.9769 H   0  0  0  0  0  0  0  0  0  0  0  0
    0.9908    0.4488   -1.2288 H   0  0  0  0  0  0  0  0  0  0  0  0
    0.5468    1.1426    1.7183 H   0  0  0  0  0  0  0  0  0  0  0  0
    1.1971    2.1104    0.3845 H   0  0  0  0  0  0  0  0  0  0  0  0
   -0.8800    2.3653   -0.6710 H   0  0  0  0  0  0  0  0  0  0  0  0
   -1.4621    2.0508    1.0586 H   0  0  0  0  0  0  0  0  0  0  0  0
   -2.7672    0.5390   -0.1697 H   0  0  0  0  0  0  0  0  0  0  0  0
   -1.9575   -1.4494    0.8471 H   0  0  0  0  0  0  0  0  0  0  0  0
   -0.9588   -0.2329    1.7544 H   0  0  0  0  0  0  0  0  0  0  0  0
    0.4847   -2.0012    0.3743 H   0  0  0  0  0  0  0  0  0  0  0  0
    0.0971   -1.4896   -2.0797 H   0  0  0  0  0  0  0  0  0  0  0  0
   -1.4546   -2.0837   -1.2685 H   0  0  0  0  0  0  0  0  0  0  0  0
  1  2  1  0
  2  3  1  0
  3  4  1  0
  4  5  1  0
  5  6  1  0
  6  7  1  0
  7  8  1  0
  8  9  1  0
  7  2  1  0
  9  5  1  0
  1 10  1  0
  1 11  1  0
  1 12  1  0
  2 13  1  0
  3 14  1  0
  3 15  1  0
  4 16  1  0
  4 17  1  0
  5 18  1  0
  6 19  1  0
  6 20  1  0
  7 21  1  0
  8 22  1  0
  8 23  1  0
M  END
