
     RDKit          3D

 21 22  0  0  0  0  0  0  0  0999 V2000
   -2.5933   -0.0422   -0.5136 C   0  0  0  0  0  0  0  0  0  0  0  0
   -1.5498    0.3116    0.5093 C   0  0  0  0  0  0  0  0  0  0  0  0
   -0.3698   -0.5195    0.5873 C   0  0  0  0  0  0  0  0  0  0  0  0
    0.2088   -1.3457   -0.4991 C   0  0  0  0  0  0  0  0  0  0  0  0
    1.6138   -1.2659   -0.3509 O   0  0  0  0  0  0  0  0  0  0  0  0
    2.0547    0.0558   -0.3731 C   0  0  0  0  0  0  0  0  0  0  0  0
    1.7894    0.8165    0.8789 C   0  0  0  0  0  0  0  0  0  0  0  0
    0.6074    1.5673    0.8568 O   0  0  0  0  0  0  0  0  0  0  0  0
   -0.2948    0.9384    0.0697 C   0  0  0  0  0  0  0  0  0  0  0  0
   -3.6334    0.2136   -0.1738 H   0  0  0  0  0  0  0  0  0  0  0  0
   -2.5962   -1.1607   -0.6013 H   0  0  0  0  0  0  0  0  0  0  0  0
   -2.4499    0.4088   -1.4904 H   0  0  0  0  0  0  0  0  0  0  0  0
   -1.9775    0.6929    1.4544 H   0  0  0  0  0  0  0  0  0  0  0  0
    0.0469   -0.7317    1.5907 H   0  0  0  0  0  0  0  0  0  0  0  0
   -0.0546   -2.4002   -0.4227 H   0  0  0  0  0  0  0  0  0  0  0  0
   -0.0184   -0.9546   -1.5114 H   0  0  0  0  0  0  0  0  0  0  0  0
    1.7507    0.5939   -1.2988 H   0  0  0  0  0  0  0  0  0  0  0  0
    3.1802   -0.0258   -0.4674 H   0  0  0  0  0  0  0  0  0  0  0  0
    2.6097    1.5847    1.0003 H   0  0  0  0  0  0  0  0  0  0  0  0
    1.8740    0.1575    1.7436 H   0  0  0  0  0  0  0  0  0  0  0  0
   -0.1978    1.1052   -1.0101 H   0  0  0  0  0  0  0  0  0  0  0  0
  1  2  1  0
  2  3  1  0
  3  4  1  0
  4  5  1  0
  5  6  1  0
  6  7  1  0
  7  8  1  0
  8  9  1  0
  9  2  1  0
  9  3  1  0
  1 10  1  0
  1 11  1  0
  1 12  1  0
  2 13  1  0
  3 14  1  0
  4 15  1  0
  4 16  1  0
  6 17  1  0
  6 18  1  0
  7 19  1  0
  7 20  1  0
  9 21  1  0
M  END
