
     RDKit          3D

 17 19  0  0  0  0  0  0  0  0999 V2000
   -2.1239   -0.0659   -0.5426 C   0  0  0  0  0  0  0  0  0  0  0  0
   -0.7341   -0.4526   -0.1643 C   0  0  0  0  0  0  0  0  0  0  0  0
    0.3693    0.3011   -0.8598 C   0  0  0  0  0  0  0  0  0  0  0  0
   -0.1026    1.4716   -0.0691 C   0  0  0  0  0  0  0  0  0  0  0  0
   -0.3565    2.6421   -0.1714 O   0  0  0  0  0  0  0  0  0  0  0  0
   -0.0791    0.3588    0.9201 C   0  0  0  0  0  0  0  0  0  0  0  0
    1.2064   -0.0336    0.3075 C   0  0  0  0  0  0  0  0  0  0  0  0
    2.1487   -0.9432    0.5792 C   0  0  0  0  0  0  0  0  0  0  0  0
    2.4080    0.5254    0.5944 O   0  0  0  0  0  0  0  0  0  0  0  0
   -2.2345   -0.2589   -1.6475 H   0  0  0  0  0  0  0  0  0  0  0  0
   -2.8156   -0.8094   -0.0609 H   0  0  0  0  0  0  0  0  0  0  0  0
   -2.4151    0.9532   -0.2696 H   0  0  0  0  0  0  0  0  0  0  0  0
   -0.6057   -1.5316   -0.0544 H   0  0  0  0  0  0  0  0  0  0  0  0
    0.5797    0.2934   -1.8384 H   0  0  0  0  0  0  0  0  0  0  0  0
   -0.3505    0.4151    1.8818 H   0  0  0  0  0  0  0  0  0  0  0  0
    2.3262   -1.4026    1.5887 H   0  0  0  0  0  0  0  0  0  0  0  0
    2.7792   -1.4629   -0.1938 H   0  0  0  0  0  0  0  0  0  0  0  0
  1  2  1  0
  2  3  1  0
  3  4  1  0
  4  5  2  0
  4  6  1  0
  6  7  1  0
  7  8  1  0
  8  9  1  0
  6  2  1  0
  9  7  1  0
  7  3  1  0
  1 10  1  0
  1 11  1  0
  1 12  1  0
  2 13  1  0
  3 14  1  0
  6 15  1  0
  8 16  1  0
  8 17  1  0
M  END
