
     RDKit          3D

 21 21  0  0  0  0  0  0  0  0999 V2000
    2.8104    0.0112   -0.2589 C   0  0  0  0  0  0  0  0  0  0  0  0
    1.3371    0.0600   -0.6838 C   0  0  0  0  0  0  0  0  0  0  0  0
    0.5773   -0.9975   -0.0166 C   0  0  0  0  0  0  0  0  0  0  0  0
   -0.6790   -1.3590    0.1449 C   0  0  0  0  0  0  0  0  0  0  0  0
   -1.9840   -0.8386   -0.2956 C   0  0  0  0  0  0  0  0  0  0  0  0
   -2.2347    0.5715    0.2300 C   0  0  0  0  0  0  0  0  0  0  0  0
   -1.3243    1.4746   -0.2571 O   0  0  0  0  0  0  0  0  0  0  0  0
   -0.1185    1.4693    0.4454 C   0  0  0  0  0  0  0  0  0  0  0  0
    0.8982    1.3362   -0.4610 O   0  0  0  0  0  0  0  0  0  0  0  0
    3.4819    0.2738   -1.0957 H   0  0  0  0  0  0  0  0  0  0  0  0
    3.0006    0.6663    0.6085 H   0  0  0  0  0  0  0  0  0  0  0  0
    2.9911   -1.0396    0.0637 H   0  0  0  0  0  0  0  0  0  0  0  0
    1.3703   -0.0826   -1.8045 H   0  0  0  0  0  0  0  0  0  0  0  0
    1.2299   -1.6934    0.4994 H   0  0  0  0  0  0  0  0  0  0  0  0
   -0.7782   -2.2595    0.7496 H   0  0  0  0  0  0  0  0  0  0  0  0
   -2.1174   -0.8216   -1.3911 H   0  0  0  0  0  0  0  0  0  0  0  0
   -2.8193   -1.4595    0.1376 H   0  0  0  0  0  0  0  0  0  0  0  0
   -2.2636    0.5792    1.3371 H   0  0  0  0  0  0  0  0  0  0  0  0
   -3.2497    0.8552   -0.1224 H   0  0  0  0  0  0  0  0  0  0  0  0
   -0.1034    0.7513    1.2794 H   0  0  0  0  0  0  0  0  0  0  0  0
   -0.0245    2.5027    0.8912 H   0  0  0  0  0  0  0  0  0  0  0  0
  1  2  1  0
  2  3  1  0
  3  4  2  3
  4  5  1  0
  5  6  1  0
  6  7  1  0
  7  8  1  0
  8  9  1  0
  9  2  1  0
  1 10  1  0
  1 11  1  0
  1 12  1  0
  2 13  1  0
  3 14  1  0
  4 15  1  0
  5 16  1  0
  5 17  1  0
  6 18  1  0
  6 19  1  0
  8 20  1  0
  8 21  1  0
M  END
