
     RDKit          3D

 23 24  0  0  0  0  0  0  0  0999 V2000
   -2.5701    0.1344    0.0040 C   0  0  0  0  0  0  0  0  0  0  0  0
   -1.0970    0.0546   -0.2193 C   0  0  0  0  0  0  0  0  0  0  0  0
   -0.3497    1.1653    0.5211 C   0  0  0  0  0  0  0  0  0  0  0  0
    0.8953    1.4489   -0.2879 C   0  0  0  0  0  0  0  0  0  0  0  0
    2.0653    0.6221    0.0923 C   0  0  0  0  0  0  0  0  0  0  0  0
    1.8521   -0.1114    1.3061 O   0  0  0  0  0  0  0  0  0  0  0  0
    1.9718   -0.7793    0.1112 C   0  0  0  0  0  0  0  0  0  0  0  0
    0.7845   -1.4515   -0.5145 C   0  0  0  0  0  0  0  0  0  0  0  0
   -0.4911   -1.2510    0.2742 C   0  0  0  0  0  0  0  0  0  0  0  0
   -2.8875    1.1202    0.4552 H   0  0  0  0  0  0  0  0  0  0  0  0
   -2.8977   -0.7228    0.5910 H   0  0  0  0  0  0  0  0  0  0  0  0
   -3.1214    0.1032   -0.9795 H   0  0  0  0  0  0  0  0  0  0  0  0
   -0.8903    0.1060   -1.3079 H   0  0  0  0  0  0  0  0  0  0  0  0
   -0.1286    0.7920    1.5310 H   0  0  0  0  0  0  0  0  0  0  0  0
   -0.9666    2.0628    0.5232 H   0  0  0  0  0  0  0  0  0  0  0  0
    1.1565    2.5277   -0.0799 H   0  0  0  0  0  0  0  0  0  0  0  0
    0.6433    1.4128   -1.3692 H   0  0  0  0  0  0  0  0  0  0  0  0
    3.0652    1.1207   -0.0025 H   0  0  0  0  0  0  0  0  0  0  0  0
    2.9119   -1.3794    0.0208 H   0  0  0  0  0  0  0  0  0  0  0  0
    0.6066   -1.1357   -1.5651 H   0  0  0  0  0  0  0  0  0  0  0  0
    0.9416   -2.5608   -0.5665 H   0  0  0  0  0  0  0  0  0  0  0  0
   -1.1698   -2.1089    0.1045 H   0  0  0  0  0  0  0  0  0  0  0  0
   -0.3242   -1.1698    1.3577 H   0  0  0  0  0  0  0  0  0  0  0  0
  1  2  1  0
  2  3  1  0
  3  4  1  0
  4  5  1  0
  5  6  1  0
  6  7  1  0
  7  8  1  0
  8  9  1  0
  9  2  1  0
  7  5  1  0
  1 10  1  0
  1 11  1  0
  1 12  1  0
  2 13  1  0
  3 14  1  0
  3 15  1  0
  4 16  1  0
  4 17  1  0
  5 18  1  0
  7 19  1  0
  8 20  1  0
  8 21  1  0
  9 22  1  0
  9 23  1  0
M  END
