
     RDKit          3D

 21 21  0  0  0  0  0  0  0  0999 V2000
    0.0339    2.0736    0.0483 C   0  0  0  0  0  0  0  0  0  0  0  0
   -0.8795    0.8926    0.0637 C   0  0  0  0  0  0  0  0  0  0  0  0
   -1.0046    0.1496   -1.2358 C   0  0  0  0  0  0  0  0  0  0  0  0
   -0.8691   -1.1326   -0.4606 C   0  0  0  0  0  0  0  0  0  0  0  0
    0.1130   -2.0100   -0.9139 O   0  0  0  0  0  0  0  0  0  0  0  0
   -0.4849   -0.3309    0.7499 C   0  0  0  0  0  0  0  0  0  0  0  0
    0.9112   -0.5526    1.1853 C   0  0  0  0  0  0  0  0  0  0  0  0
    1.9536   -0.5535    0.1766 C   0  0  0  0  0  0  0  0  0  0  0  0
    3.1092   -0.7618    0.4931 O   0  0  0  0  0  0  0  0  0  0  0  0
    0.7816    1.9060   -0.7719 H   0  0  0  0  0  0  0  0  0  0  0  0
    0.4890    2.3221    1.0077 H   0  0  0  0  0  0  0  0  0  0  0  0
   -0.5479    2.9694   -0.2836 H   0  0  0  0  0  0  0  0  0  0  0  0
   -1.9052    1.2396    0.3917 H   0  0  0  0  0  0  0  0  0  0  0  0
   -1.9906    0.2904   -1.7329 H   0  0  0  0  0  0  0  0  0  0  0  0
   -0.2057    0.3807   -1.9704 H   0  0  0  0  0  0  0  0  0  0  0  0
   -1.8701   -1.6361   -0.4064 H   0  0  0  0  0  0  0  0  0  0  0  0
   -0.2174   -2.9320   -0.8124 H   0  0  0  0  0  0  0  0  0  0  0  0
   -1.2162   -0.6221    1.5764 H   0  0  0  0  0  0  0  0  0  0  0  0
    0.9222   -1.5272    1.7630 H   0  0  0  0  0  0  0  0  0  0  0  0
    1.1266    0.2094    1.9954 H   0  0  0  0  0  0  0  0  0  0  0  0
    1.7511   -0.3746   -0.8634 H   0  0  0  0  0  0  0  0  0  0  0  0
  1  2  1  0
  2  3  1  0
  3  4  1  0
  4  5  1  0
  4  6  1  0
  6  7  1  0
  7  8  1  0
  8  9  2  0
  6  2  1  0
  1 10  1  0
  1 11  1  0
  1 12  1  0
  2 13  1  0
  3 14  1  0
  3 15  1  0
  4 16  1  0
  5 17  1  0
  6 18  1  0
  7 19  1  0
  7 20  1  0
  8 21  1  0
M  END
