
     RDKit          3D

 19 20  0  0  0  0  0  0  0  0999 V2000
   -2.3646   -0.1365   -0.5496 C   0  0  0  0  0  0  0  0  0  0  0  0
   -1.4194    0.5755    0.4233 C   0  0  0  0  0  0  0  0  0  0  0  0
   -0.5488   -0.5401    1.0180 C   0  0  0  0  0  0  0  0  0  0  0  0
    0.5507   -0.6071    0.0049 C   0  0  0  0  0  0  0  0  0  0  0  0
    1.6472    0.4226    0.2059 C   0  0  0  0  0  0  0  0  0  0  0  0
    2.9566   -0.0206   -0.2836 C   0  0  0  0  0  0  0  0  0  0  0  0
    3.9468    0.2616    0.3657 O   0  0  0  0  0  0  0  0  0  0  0  0
    0.5094    0.6804   -0.7115 C   0  0  0  0  0  0  0  0  0  0  0  0
   -0.5471    1.4095   -0.2324 O   0  0  0  0  0  0  0  0  0  0  0  0
   -1.8074   -0.9669   -1.0539 H   0  0  0  0  0  0  0  0  0  0  0  0
   -2.8098    0.5569   -1.2665 H   0  0  0  0  0  0  0  0  0  0  0  0
   -3.1253   -0.6528    0.0981 H   0  0  0  0  0  0  0  0  0  0  0  0
   -1.9538    1.0331    1.2598 H   0  0  0  0  0  0  0  0  0  0  0  0
   -1.1311   -1.4772    1.1088 H   0  0  0  0  0  0  0  0  0  0  0  0
   -0.1645   -0.2299    2.0228 H   0  0  0  0  0  0  0  0  0  0  0  0
    0.7334   -1.5001   -0.5930 H   0  0  0  0  0  0  0  0  0  0  0  0
    1.6462    0.9909    1.1443 H   0  0  0  0  0  0  0  0  0  0  0  0
    3.1173   -0.5870   -1.1891 H   0  0  0  0  0  0  0  0  0  0  0  0
    0.7643    0.7878   -1.7720 H   0  0  0  0  0  0  0  0  0  0  0  0
  1  2  1  0
  2  3  1  0
  3  4  1  0
  4  5  1  0
  5  6  1  0
  6  7  2  0
  5  8  1  0
  8  9  1  0
  9  2  1  0
  8  4  1  0
  1 10  1  0
  1 11  1  0
  1 12  1  0
  2 13  1  0
  3 14  1  0
  3 15  1  0
  4 16  1  0
  5 17  1  0
  6 18  1  0
  8 19  1  0
M  END
