
     RDKit          3D

 21 22  0  0  0  0  0  0  0  0999 V2000
   -1.7163   -1.5095    0.6813 C   0  0  0  0  0  0  0  0  0  0  0  0
   -0.8195   -0.5306   -0.0311 C   0  0  0  0  0  0  0  0  0  0  0  0
   -1.5012    0.8054   -0.1065 C   0  0  0  0  0  0  0  0  0  0  0  0
   -0.7517    1.8154   -0.5395 C   0  0  0  0  0  0  0  0  0  0  0  0
    0.6560    1.4712   -0.8863 C   0  0  0  0  0  0  0  0  0  0  0  0
    1.2637    0.8118    0.3261 C   0  0  0  0  0  0  0  0  0  0  0  0
    1.7738   -0.5815    0.2005 C   0  0  0  0  0  0  0  0  0  0  0  0
    1.7322   -1.1255   -1.0993 O   0  0  0  0  0  0  0  0  0  0  0  0
    0.4519   -0.3079    0.7990 C   0  0  0  0  0  0  0  0  0  0  0  0
   -2.4270   -1.9077   -0.0967 H   0  0  0  0  0  0  0  0  0  0  0  0
   -1.1323   -2.3603    1.0767 H   0  0  0  0  0  0  0  0  0  0  0  0
   -2.2615   -0.9497    1.4665 H   0  0  0  0  0  0  0  0  0  0  0  0
   -0.5215   -0.8736   -1.0335 H   0  0  0  0  0  0  0  0  0  0  0  0
   -2.5190    0.9749    0.1607 H   0  0  0  0  0  0  0  0  0  0  0  0
   -1.1033    2.8353   -0.6473 H   0  0  0  0  0  0  0  0  0  0  0  0
    0.6409    0.7203   -1.7280 H   0  0  0  0  0  0  0  0  0  0  0  0
    1.2291    2.3449   -1.2440 H   0  0  0  0  0  0  0  0  0  0  0  0
    1.7838    1.5163    1.0151 H   0  0  0  0  0  0  0  0  0  0  0  0
    2.6108   -0.8605    0.8545 H   0  0  0  0  0  0  0  0  0  0  0  0
    2.3343   -1.9227   -1.0650 H   0  0  0  0  0  0  0  0  0  0  0  0
    0.2770   -0.3661    1.8966 H   0  0  0  0  0  0  0  0  0  0  0  0
  1  2  1  0
  2  3  1  0
  3  4  2  0
  4  5  1  0
  5  6  1  0
  6  7  1  0
  7  8  1  0
  7  9  1  0
  9  2  1  0
  9  6  1  0
  1 10  1  0
  1 11  1  0
  1 12  1  0
  2 13  1  0
  3 14  1  0
  4 15  1  0
  5 16  1  0
  5 17  1  0
  6 18  1  0
  7 19  1  0
  8 20  1  0
  9 21  1  0
M  END
