
     RDKit          3D

 19 21  0  0  0  0  0  0  0  0999 V2000
   -1.9439    0.8125    0.5476 C   0  0  0  0  0  0  0  0  0  0  0  0
   -1.2055   -0.1925   -0.2531 C   0  0  0  0  0  0  0  0  0  0  0  0
   -0.1742    0.3772   -1.2361 C   0  0  0  0  0  0  0  0  0  0  0  0
    0.4693    1.4493   -0.6917 O   0  0  0  0  0  0  0  0  0  0  0  0
    1.4436    1.0492    0.1740 C   0  0  0  0  0  0  0  0  0  0  0  0
    1.3123   -0.4739    0.3233 C   0  0  0  0  0  0  0  0  0  0  0  0
    2.2940   -1.1753    0.9426 O   0  0  0  0  0  0  0  0  0  0  0  0
   -0.0953   -0.9378    0.4057 C   0  0  0  0  0  0  0  0  0  0  0  0
    0.6683   -0.8172   -0.9271 C   0  0  0  0  0  0  0  0  0  0  0  0
   -1.4753    1.7917    0.6328 H   0  0  0  0  0  0  0  0  0  0  0  0
   -2.1226    0.4255    1.5921 H   0  0  0  0  0  0  0  0  0  0  0  0
   -2.9715    0.9737    0.1365 H   0  0  0  0  0  0  0  0  0  0  0  0
   -1.8858   -0.8676   -0.8132 H   0  0  0  0  0  0  0  0  0  0  0  0
   -0.5482    0.4648   -2.2627 H   0  0  0  0  0  0  0  0  0  0  0  0
    1.3704    1.4747    1.1936 H   0  0  0  0  0  0  0  0  0  0  0  0
    2.4431    1.3016   -0.2551 H   0  0  0  0  0  0  0  0  0  0  0  0
    1.9367   -2.0336    1.2568 H   0  0  0  0  0  0  0  0  0  0  0  0
   -0.3016   -1.9554    0.7852 H   0  0  0  0  0  0  0  0  0  0  0  0
    0.7863   -1.6670   -1.5514 H   0  0  0  0  0  0  0  0  0  0  0  0
  1  2  1  0
  2  3  1  0
  3  4  1  0
  4  5  1  0
  5  6  1  0
  6  7  1  0
  6  8  1  0
  8  9  1  0
  8  2  1  0
  9  3  1  0
  9  6  1  0
  1 10  1  0
  1 11  1  0
  1 12  1  0
  2 13  1  0
  3 14  1  0
  5 15  1  0
  5 16  1  0
  7 17  1  0
  8 18  1  0
  9 19  1  0
M  END
