
     RDKit          3D

 21 22  0  0  0  0  0  0  0  0999 V2000
    2.4234   -0.7603    0.2030 C   0  0  0  0  0  0  0  0  0  0  0  0
    0.9351   -0.5702    0.2059 C   0  0  0  0  0  0  0  0  0  0  0  0
    0.5109    0.3046    1.3440 C   0  0  0  0  0  0  0  0  0  0  0  0
   -0.6442    0.9590    1.2733 C   0  0  0  0  0  0  0  0  0  0  0  0
   -1.5367    0.8577    0.1052 C   0  0  0  0  0  0  0  0  0  0  0  0
   -2.2402   -0.4671   -0.0783 C   0  0  0  0  0  0  0  0  0  0  0  0
   -1.6726   -0.6473   -1.3335 O   0  0  0  0  0  0  0  0  0  0  0  0
   -0.8742    0.5051   -1.1711 C   0  0  0  0  0  0  0  0  0  0  0  0
    0.5609    0.1126   -1.0993 C   0  0  0  0  0  0  0  0  0  0  0  0
    2.8923    0.2341    0.3542 H   0  0  0  0  0  0  0  0  0  0  0  0
    2.6867   -1.4503    1.0454 H   0  0  0  0  0  0  0  0  0  0  0  0
    2.7116   -1.1569   -0.7824 H   0  0  0  0  0  0  0  0  0  0  0  0
    0.4559   -1.5500    0.2689 H   0  0  0  0  0  0  0  0  0  0  0  0
    1.1837    0.3618    2.1895 H   0  0  0  0  0  0  0  0  0  0  0  0
   -0.8816    1.5772    2.1446 H   0  0  0  0  0  0  0  0  0  0  0  0
   -2.2501    1.7072    0.0459 H   0  0  0  0  0  0  0  0  0  0  0  0
   -1.8930   -1.2277    0.6355 H   0  0  0  0  0  0  0  0  0  0  0  0
   -3.3434   -0.3577   -0.1491 H   0  0  0  0  0  0  0  0  0  0  0  0
   -1.0387    1.2338   -1.9879 H   0  0  0  0  0  0  0  0  0  0  0  0
    1.2604    0.9625   -1.3064 H   0  0  0  0  0  0  0  0  0  0  0  0
    0.7534   -0.6283   -1.9075 H   0  0  0  0  0  0  0  0  0  0  0  0
  1  2  1  0
  2  3  1  0
  3  4  2  0
  4  5  1  0
  5  6  1  0
  6  7  1  0
  7  8  1  0
  8  9  1  0
  9  2  1  0
  8  5  1  0
  1 10  1  0
  1 11  1  0
  1 12  1  0
  2 13  1  0
  3 14  1  0
  4 15  1  0
  5 16  1  0
  6 17  1  0
  6 18  1  0
  8 19  1  0
  9 20  1  0
  9 21  1  0
M  END
