
     RDKit          3D

 21 22  0  0  0  0  0  0  0  0999 V2000
    1.7723   -1.0765   -0.2380 C   0  0  0  0  0  0  0  0  0  0  0  0
    0.6043   -0.2348   -0.6839 C   0  0  0  0  0  0  0  0  0  0  0  0
   -0.6782   -0.5783   -0.0229 C   0  0  0  0  0  0  0  0  0  0  0  0
   -1.4039   -1.7439   -0.0935 C   0  0  0  0  0  0  0  0  0  0  0  0
   -0.1226   -0.0371    1.1574 O   0  0  0  0  0  0  0  0  0  0  0  0
    0.2399    0.9025    0.2096 C   0  0  0  0  0  0  0  0  0  0  0  0
    0.9635    2.0642    0.4212 C   0  0  0  0  0  0  0  0  0  0  0  0
   -1.1608    0.8098   -0.3163 C   0  0  0  0  0  0  0  0  0  0  0  0
   -2.1266    1.2617    0.5444 O   0  0  0  0  0  0  0  0  0  0  0  0
    1.7746   -2.0354   -0.7935 H   0  0  0  0  0  0  0  0  0  0  0  0
    1.7026   -1.3296    0.8301 H   0  0  0  0  0  0  0  0  0  0  0  0
    2.7382   -0.5869   -0.4076 H   0  0  0  0  0  0  0  0  0  0  0  0
    0.6198   -0.0684   -1.7580 H   0  0  0  0  0  0  0  0  0  0  0  0
   -0.8367   -2.6330   -0.4680 H   0  0  0  0  0  0  0  0  0  0  0  0
   -2.3235   -1.6766   -0.7437 H   0  0  0  0  0  0  0  0  0  0  0  0
   -1.8168   -2.0883    0.9014 H   0  0  0  0  0  0  0  0  0  0  0  0
    1.6052    2.0263    1.3460 H   0  0  0  0  0  0  0  0  0  0  0  0
    0.3012    2.9626    0.5994 H   0  0  0  0  0  0  0  0  0  0  0  0
    1.6094    2.3589   -0.4294 H   0  0  0  0  0  0  0  0  0  0  0  0
   -1.2747    1.0507   -1.3772 H   0  0  0  0  0  0  0  0  0  0  0  0
   -2.1872    0.6521    1.3224 H   0  0  0  0  0  0  0  0  0  0  0  0
  1  2  1  0
  2  3  1  0
  3  4  1  0
  3  5  1  0
  5  6  1  0
  6  7  1  0
  6  8  1  0
  8  9  1  0
  6  2  1  0
  8  3  1  0
  1 10  1  0
  1 11  1  0
  1 12  1  0
  2 13  1  0
  4 14  1  0
  4 15  1  0
  4 16  1  0
  7 17  1  0
  7 18  1  0
  7 19  1  0
  8 20  1  0
  9 21  1  0
M  END
