
     RDKit          3D

 23 24  0  0  0  0  0  0  0  0999 V2000
   -1.8622    1.2420    0.1458 C   0  0  0  0  0  0  0  0  0  0  0  0
   -1.1689   -0.0665    0.3771 C   0  0  0  0  0  0  0  0  0  0  0  0
   -1.7362   -1.0623   -0.5631 C   0  0  0  0  0  0  0  0  0  0  0  0
   -0.7768   -1.8045   -1.0744 C   0  0  0  0  0  0  0  0  0  0  0  0
    0.5516   -1.4150   -0.5551 C   0  0  0  0  0  0  0  0  0  0  0  0
    0.2649   -0.0974    0.1105 C   0  0  0  0  0  0  0  0  0  0  0  0
    1.2017    0.0902    1.3063 C   0  0  0  0  0  0  0  0  0  0  0  0
    2.1959    0.5772    0.2656 C   0  0  0  0  0  0  0  0  0  0  0  0
    0.9510    1.0912   -0.4645 C   0  0  0  0  0  0  0  0  0  0  0  0
   -1.3251    1.9299   -0.5165 H   0  0  0  0  0  0  0  0  0  0  0  0
   -2.0351    1.7383    1.1165 H   0  0  0  0  0  0  0  0  0  0  0  0
   -2.8896    1.0947   -0.2971 H   0  0  0  0  0  0  0  0  0  0  0  0
   -1.3669   -0.4160    1.4311 H   0  0  0  0  0  0  0  0  0  0  0  0
   -2.8211   -1.1745   -0.8089 H   0  0  0  0  0  0  0  0  0  0  0  0
   -0.9876   -2.6184   -1.8082 H   0  0  0  0  0  0  0  0  0  0  0  0
    0.9004   -2.1864    0.1680 H   0  0  0  0  0  0  0  0  0  0  0  0
    1.3156   -1.3394   -1.3550 H   0  0  0  0  0  0  0  0  0  0  0  0
    0.9104    0.9256    1.9684 H   0  0  0  0  0  0  0  0  0  0  0  0
    1.4827   -0.8544    1.7948 H   0  0  0  0  0  0  0  0  0  0  0  0
    2.8378    1.4137    0.5866 H   0  0  0  0  0  0  0  0  0  0  0  0
    2.6658   -0.2179   -0.3154 H   0  0  0  0  0  0  0  0  0  0  0  0
    1.0558    1.1339   -1.5591 H   0  0  0  0  0  0  0  0  0  0  0  0
    0.6358    2.0161    0.0466 H   0  0  0  0  0  0  0  0  0  0  0  0
  1  2  1  0
  2  3  1  0
  3  4  2  0
  4  5  1  0
  5  6  1  0
  6  7  1  0
  7  8  1  0
  8  9  1  0
  6  2  1  0
  9  6  1  0
  1 10  1  0
  1 11  1  0
  1 12  1  0
  2 13  1  0
  3 14  1  0
  4 15  1  0
  5 16  1  0
  5 17  1  0
  7 18  1  0
  7 19  1  0
  8 20  1  0
  8 21  1  0
  9 22  1  0
  9 23  1  0
M  END
