
     RDKit          3D

 21 21  0  0  0  0  0  0  0  0999 V2000
   -2.5717   -0.6017    0.1521 C   0  0  0  0  0  0  0  0  0  0  0  0
   -1.4665    0.3636   -0.2868 C   0  0  0  0  0  0  0  0  0  0  0  0
   -0.2667   -0.3912   -0.8204 C   0  0  0  0  0  0  0  0  0  0  0  0
    0.8605    0.0815    0.0331 C   0  0  0  0  0  0  0  0  0  0  0  0
    1.9457   -0.9207    0.2391 C   0  0  0  0  0  0  0  0  0  0  0  0
    1.4417    1.3800   -0.4631 C   0  0  0  0  0  0  0  0  0  0  0  0
    0.1476    0.3680    1.3285 C   0  0  0  0  0  0  0  0  0  0  0  0
    0.5419    0.0901    2.4784 O   0  0  0  0  0  0  0  0  0  0  0  0
   -1.0274    1.0035    0.9107 O   0  0  0  0  0  0  0  0  0  0  0  0
   -2.5030   -1.5382   -0.4313 H   0  0  0  0  0  0  0  0  0  0  0  0
   -3.5689   -0.1271    0.0813 H   0  0  0  0  0  0  0  0  0  0  0  0
   -2.4416   -0.8783    1.2244 H   0  0  0  0  0  0  0  0  0  0  0  0
   -1.8431    1.0671   -1.0332 H   0  0  0  0  0  0  0  0  0  0  0  0
   -0.1324   -0.2176   -1.8988 H   0  0  0  0  0  0  0  0  0  0  0  0
   -0.4265   -1.4736   -0.6062 H   0  0  0  0  0  0  0  0  0  0  0  0
    2.6759   -0.4838    0.9581 H   0  0  0  0  0  0  0  0  0  0  0  0
    2.4743   -1.0586   -0.7217 H   0  0  0  0  0  0  0  0  0  0  0  0
    1.5841   -1.8879    0.5976 H   0  0  0  0  0  0  0  0  0  0  0  0
    0.7596    2.2040   -0.1022 H   0  0  0  0  0  0  0  0  0  0  0  0
    1.3819    1.4271   -1.5712 H   0  0  0  0  0  0  0  0  0  0  0  0
    2.4345    1.5938   -0.0685 H   0  0  0  0  0  0  0  0  0  0  0  0
  1  2  1  0
  2  3  1  0
  3  4  1  0
  4  5  1  0
  4  6  1  0
  4  7  1  0
  7  8  2  0
  7  9  1  0
  9  2  1  0
  1 10  1  0
  1 11  1  0
  1 12  1  0
  2 13  1  0
  3 14  1  0
  3 15  1  0
  5 16  1  0
  5 17  1  0
  5 18  1  0
  6 19  1  0
  6 20  1  0
  6 21  1  0
M  END
