
     RDKit          3D

 19 21  0  0  0  0  0  0  0  0999 V2000
    2.3204   -0.4238    0.8402 C   0  0  0  0  0  0  0  0  0  0  0  0
    0.8616   -0.0221    0.7841 C   0  0  0  0  0  0  0  0  0  0  0  0
    0.0611   -0.7566   -0.2428 C   0  0  0  0  0  0  0  0  0  0  0  0
   -1.3695   -0.3699   -0.2836 C   0  0  0  0  0  0  0  0  0  0  0  0
   -2.4092   -0.6242    0.5634 C   0  0  0  0  0  0  0  0  0  0  0  0
   -2.3527   -1.1258   -0.8154 O   0  0  0  0  0  0  0  0  0  0  0  0
   -0.9824    0.9737   -0.7817 C   0  0  0  0  0  0  0  0  0  0  0  0
    0.4242    0.7443   -0.3711 C   0  0  0  0  0  0  0  0  0  0  0  0
    1.3903    1.0627   -1.3302 O   0  0  0  0  0  0  0  0  0  0  0  0
    2.4038   -1.4028    1.3607 H   0  0  0  0  0  0  0  0  0  0  0  0
    2.6624   -0.6088   -0.2046 H   0  0  0  0  0  0  0  0  0  0  0  0
    2.9415    0.3667    1.2898 H   0  0  0  0  0  0  0  0  0  0  0  0
    0.3847    0.0206    1.7848 H   0  0  0  0  0  0  0  0  0  0  0  0
    0.5297   -1.4006   -0.9951 H   0  0  0  0  0  0  0  0  0  0  0  0
   -2.4001   -1.4308    1.3307 H   0  0  0  0  0  0  0  0  0  0  0  0
   -3.2526    0.0915    0.7358 H   0  0  0  0  0  0  0  0  0  0  0  0
   -1.0940    1.0132   -1.9037 H   0  0  0  0  0  0  0  0  0  0  0  0
   -1.5101    1.8461   -0.3608 H   0  0  0  0  0  0  0  0  0  0  0  0
    1.3907    2.0467   -1.4005 H   0  0  0  0  0  0  0  0  0  0  0  0
  1  2  1  0
  2  3  1  0
  3  4  1  0
  4  5  1  0
  5  6  1  0
  4  7  1  0
  7  8  1  0
  8  9  1  0
  8  2  1  0
  8  3  1  0
  6  4  1  0
  1 10  1  0
  1 11  1  0
  1 12  1  0
  2 13  1  0
  3 14  1  0
  5 15  1  0
  5 16  1  0
  7 17  1  0
  7 18  1  0
  9 19  1  0
M  END
