
     RDKit          3D

 25 25  0  0  0  0  0  0  0  0999 V2000
   -2.3630    1.1380   -0.0391 C   0  0  0  0  0  0  0  0  0  0  0  0
   -1.2127    0.3126   -0.6304 C   0  0  0  0  0  0  0  0  0  0  0  0
   -0.2334    1.2454   -1.3470 C   0  0  0  0  0  0  0  0  0  0  0  0
    0.8668    1.3644   -0.5261 O   0  0  0  0  0  0  0  0  0  0  0  0
    1.0415    0.1131    0.1007 C   0  0  0  0  0  0  0  0  0  0  0  0
    1.7399   -0.7686   -0.8674 C   0  0  0  0  0  0  0  0  0  0  0  0
    1.8533    0.2181    1.3579 C   0  0  0  0  0  0  0  0  0  0  0  0
   -0.3481   -0.2658    0.4436 C   0  0  0  0  0  0  0  0  0  0  0  0
   -0.5696   -1.7201    0.6994 C   0  0  0  0  0  0  0  0  0  0  0  0
   -2.3087    2.1960   -0.3719 H   0  0  0  0  0  0  0  0  0  0  0  0
   -2.2632    1.1673    1.0790 H   0  0  0  0  0  0  0  0  0  0  0  0
   -3.3462    0.7110   -0.3347 H   0  0  0  0  0  0  0  0  0  0  0  0
   -1.6141   -0.4601   -1.2922 H   0  0  0  0  0  0  0  0  0  0  0  0
   -0.0156    0.8014   -2.3362 H   0  0  0  0  0  0  0  0  0  0  0  0
   -0.7354    2.2259   -1.4856 H   0  0  0  0  0  0  0  0  0  0  0  0
    1.6030   -1.8405   -0.7277 H   0  0  0  0  0  0  0  0  0  0  0  0
    2.8485   -0.5806   -0.7518 H   0  0  0  0  0  0  0  0  0  0  0  0
    1.5354   -0.4620   -1.9352 H   0  0  0  0  0  0  0  0  0  0  0  0
    1.1674    0.3001    2.2440 H   0  0  0  0  0  0  0  0  0  0  0  0
    2.6076    1.0033    1.3555 H   0  0  0  0  0  0  0  0  0  0  0  0
    2.3824   -0.7659    1.4801 H   0  0  0  0  0  0  0  0  0  0  0  0
   -0.6198    0.2733    1.3994 H   0  0  0  0  0  0  0  0  0  0  0  0
   -0.0981   -1.9487    1.7011 H   0  0  0  0  0  0  0  0  0  0  0  0
   -1.6634   -1.8648    0.8746 H   0  0  0  0  0  0  0  0  0  0  0  0
   -0.2543   -2.3929   -0.0901 H   0  0  0  0  0  0  0  0  0  0  0  0
  1  2  1  0
  2  3  1  0
  3  4  1  0
  4  5  1  0
  5  6  1  0
  5  7  1  0
  5  8  1  0
  8  9  1  0
  8  2  1  0
  1 10  1  0
  1 11  1  0
  1 12  1  0
  2 13  1  0
  3 14  1  0
  3 15  1  0
  6 16  1  0
  6 17  1  0
  6 18  1  0
  7 19  1  0
  7 20  1  0
  7 21  1  0
  8 22  1  0
  9 23  1  0
  9 24  1  0
  9 25  1  0
M  END
