
     RDKit          3D

 22 22  0  0  0  0  0  0  0  0999 V2000
   -1.7263   -0.4150   -0.3953 C   0  0  0  0  0  0  0  0  0  0  0  0
   -0.8039   -0.0717    0.7306 C   0  0  0  0  0  0  0  0  0  0  0  0
   -0.7794    1.4281    0.8786 C   0  0  0  0  0  0  0  0  0  0  0  0
    0.1582    2.0853   -0.0374 C   0  0  0  0  0  0  0  0  0  0  0  0
    1.2410    1.4478   -0.3990 C   0  0  0  0  0  0  0  0  0  0  0  0
    1.6260    0.0879    0.0371 C   0  0  0  0  0  0  0  0  0  0  0  0
    0.5364   -0.7072    0.6631 C   0  0  0  0  0  0  0  0  0  0  0  0
    0.4927   -2.0706   -0.0015 C   0  0  0  0  0  0  0  0  0  0  0  0
   -1.2734   -1.0570   -1.1709 H   0  0  0  0  0  0  0  0  0  0  0  0
   -2.0772    0.5064   -0.9469 H   0  0  0  0  0  0  0  0  0  0  0  0
   -2.6612   -0.9217   -0.0773 H   0  0  0  0  0  0  0  0  0  0  0  0
   -1.3287   -0.4242    1.6706 H   0  0  0  0  0  0  0  0  0  0  0  0
   -0.6052    1.7162    1.9477 H   0  0  0  0  0  0  0  0  0  0  0  0
   -1.8282    1.7919    0.6689 H   0  0  0  0  0  0  0  0  0  0  0  0
   -0.0373    3.0771   -0.4092 H   0  0  0  0  0  0  0  0  0  0  0  0
    1.9620    1.9343   -1.0911 H   0  0  0  0  0  0  0  0  0  0  0  0
    2.0319   -0.4257   -0.8758 H   0  0  0  0  0  0  0  0  0  0  0  0
    2.5267    0.2179    0.7003 H   0  0  0  0  0  0  0  0  0  0  0  0
    0.8685   -0.9267    1.7125 H   0  0  0  0  0  0  0  0  0  0  0  0
   -0.3120   -2.6881    0.4024 H   0  0  0  0  0  0  0  0  0  0  0  0
    0.5281   -2.0111   -1.1021 H   0  0  0  0  0  0  0  0  0  0  0  0
    1.4611   -2.5739    0.2926 H   0  0  0  0  0  0  0  0  0  0  0  0
  1  2  1  0
  2  3  1  0
  3  4  1  0
  4  5  2  0
  5  6  1  0
  6  7  1  0
  7  8  1  0
  7  2  1  0
  1  9  1  0
  1 10  1  0
  1 11  1  0
  2 12  1  0
  3 13  1  0
  3 14  1  0
  4 15  1  0
  5 16  1  0
  6 17  1  0
  6 18  1  0
  7 19  1  0
  8 20  1  0
  8 21  1  0
  8 22  1  0
M  END
