
     RDKit          3D

 17 17  0  0  0  0  0  0  0  0999 V2000
   -1.6596    0.8269   -0.7074 C   0  0  0  0  0  0  0  0  0  0  0  0
   -0.8101    0.3642    0.4380 C   0  0  0  0  0  0  0  0  0  0  0  0
   -1.2012   -0.9564    1.0273 C   0  0  0  0  0  0  0  0  0  0  0  0
   -2.2281   -1.5554    1.2412 O   0  0  0  0  0  0  0  0  0  0  0  0
    0.2768   -1.1899    1.2290 C   0  0  0  0  0  0  0  0  0  0  0  0
    0.4985   -0.3117    0.0141 C   0  0  0  0  0  0  0  0  0  0  0  0
    1.6189    0.5224    0.0610 O   0  0  0  0  0  0  0  0  0  0  0  0
    2.5152    0.6566   -0.9996 C   0  0  0  0  0  0  0  0  0  0  0  0
    2.3047   -0.0088   -2.0563 O   0  0  0  0  0  0  0  0  0  0  0  0
   -2.3725    1.5812   -0.3040 H   0  0  0  0  0  0  0  0  0  0  0  0
   -1.0754    1.3508   -1.4902 H   0  0  0  0  0  0  0  0  0  0  0  0
   -2.2515   -0.0139   -1.0965 H   0  0  0  0  0  0  0  0  0  0  0  0
   -0.5664    1.1282    1.2063 H   0  0  0  0  0  0  0  0  0  0  0  0
    0.5877   -0.6472    2.1439 H   0  0  0  0  0  0  0  0  0  0  0  0
    0.5859   -2.2275    1.1384 H   0  0  0  0  0  0  0  0  0  0  0  0
    0.4164   -0.8416   -0.9552 H   0  0  0  0  0  0  0  0  0  0  0  0
    3.3608    1.3220   -0.8902 H   0  0  0  0  0  0  0  0  0  0  0  0
  1  2  1  0
  2  3  1  0
  3  4  2  0
  3  5  1  0
  5  6  1  0
  6  7  1  0
  7  8  1  0
  8  9  2  0
  6  2  1  0
  1 10  1  0
  1 11  1  0
  1 12  1  0
  2 13  1  0
  5 14  1  0
  5 15  1  0
  6 16  1  0
  8 17  1  0
M  END
