
     RDKit          3D

 23 24  0  0  0  0  0  0  0  0999 V2000
   -1.7623   -1.0428   -0.8306 C   0  0  0  0  0  0  0  0  0  0  0  0
   -0.3626   -0.5954   -0.5126 C   0  0  0  0  0  0  0  0  0  0  0  0
   -0.2903    0.5378    0.5313 C   0  0  0  0  0  0  0  0  0  0  0  0
   -0.5459    1.8633   -0.0399 C   0  0  0  0  0  0  0  0  0  0  0  0
   -1.8513    1.8597   -0.6034 O   0  0  0  0  0  0  0  0  0  0  0  0
    1.0923    0.0152    0.6304 C   0  0  0  0  0  0  0  0  0  0  0  0
    1.9178    0.2527   -0.6103 C   0  0  0  0  0  0  0  0  0  0  0  0
    1.5272   -1.1949    1.2940 C   0  0  0  0  0  0  0  0  0  0  0  0
    0.2586   -1.3387    0.6391 C   0  0  0  0  0  0  0  0  0  0  0  0
   -2.2162   -0.3706   -1.5747 H   0  0  0  0  0  0  0  0  0  0  0  0
   -1.7265   -2.1015   -1.1353 H   0  0  0  0  0  0  0  0  0  0  0  0
   -2.3799   -0.9650    0.0971 H   0  0  0  0  0  0  0  0  0  0  0  0
    0.2034   -0.4538   -1.4164 H   0  0  0  0  0  0  0  0  0  0  0  0
   -0.9857    0.2511    1.3579 H   0  0  0  0  0  0  0  0  0  0  0  0
    0.0988    2.1789   -0.8633 H   0  0  0  0  0  0  0  0  0  0  0  0
   -0.6085    2.6175    0.7763 H   0  0  0  0  0  0  0  0  0  0  0  0
   -2.5257    1.8954    0.1179 H   0  0  0  0  0  0  0  0  0  0  0  0
    2.1986   -0.7157   -1.1195 H   0  0  0  0  0  0  0  0  0  0  0  0
    1.5968    1.0177   -1.2878 H   0  0  0  0  0  0  0  0  0  0  0  0
    2.9253    0.5980   -0.2155 H   0  0  0  0  0  0  0  0  0  0  0  0
    1.6623   -1.0758    2.4130 H   0  0  0  0  0  0  0  0  0  0  0  0
    2.3377   -1.8703    0.9214 H   0  0  0  0  0  0  0  0  0  0  0  0
   -0.5639   -1.3628    1.4310 H   0  0  0  0  0  0  0  0  0  0  0  0
  1  2  1  0
  2  3  1  0
  3  4  1  0
  4  5  1  0
  3  6  1  0
  6  7  1  0
  6  8  1  0
  8  9  1  0
  9  2  1  0
  9  6  1  0
  1 10  1  0
  1 11  1  0
  1 12  1  0
  2 13  1  0
  3 14  1  0
  4 15  1  0
  4 16  1  0
  5 17  1  0
  7 18  1  0
  7 19  1  0
  7 20  1  0
  8 21  1  0
  8 22  1  0
  9 23  1  0
M  END
