
     RDKit          3D

 21 21  0  0  0  0  0  0  0  0999 V2000
   -1.9935   -0.9039    0.5778 C   0  0  0  0  0  0  0  0  0  0  0  0
   -1.3957   -0.1152   -0.5926 C   0  0  0  0  0  0  0  0  0  0  0  0
   -1.3311    1.3198   -0.2631 C   0  0  0  0  0  0  0  0  0  0  0  0
   -0.2461    1.8595    0.2521 C   0  0  0  0  0  0  0  0  0  0  0  0
    0.9803    1.0763    0.5379 C   0  0  0  0  0  0  0  0  0  0  0  0
    1.2153   -0.0154   -0.4773 C   0  0  0  0  0  0  0  0  0  0  0  0
    2.1483   -1.0769    0.0303 C   0  0  0  0  0  0  0  0  0  0  0  0
   -0.0518   -0.6311   -0.9432 C   0  0  0  0  0  0  0  0  0  0  0  0
   -0.0122   -1.6185   -1.6561 O   0  0  0  0  0  0  0  0  0  0  0  0
   -2.4162   -0.1747    1.2829 H   0  0  0  0  0  0  0  0  0  0  0  0
   -1.1597   -1.4192    1.1297 H   0  0  0  0  0  0  0  0  0  0  0  0
   -2.7276   -1.6554    0.2175 H   0  0  0  0  0  0  0  0  0  0  0  0
   -2.0959   -0.2686   -1.4442 H   0  0  0  0  0  0  0  0  0  0  0  0
   -2.2119    1.9215   -0.4600 H   0  0  0  0  0  0  0  0  0  0  0  0
   -0.2869    2.9355    0.4663 H   0  0  0  0  0  0  0  0  0  0  0  0
    0.8942    0.6615    1.5763 H   0  0  0  0  0  0  0  0  0  0  0  0
    1.8245    1.7953    0.5767 H   0  0  0  0  0  0  0  0  0  0  0  0
    1.6937    0.4677   -1.3544 H   0  0  0  0  0  0  0  0  0  0  0  0
    1.5672   -2.0044    0.3076 H   0  0  0  0  0  0  0  0  0  0  0  0
    2.7028   -0.7559    0.9517 H   0  0  0  0  0  0  0  0  0  0  0  0
    2.9026   -1.3979   -0.7157 H   0  0  0  0  0  0  0  0  0  0  0  0
  1  2  1  0
  2  3  1  0
  3  4  2  0
  4  5  1  0
  5  6  1  0
  6  7  1  0
  6  8  1  0
  8  9  2  0
  8  2  1  0
  1 10  1  0
  1 11  1  0
  1 12  1  0
  2 13  1  0
  3 14  1  0
  4 15  1  0
  5 16  1  0
  5 17  1  0
  6 18  1  0
  7 19  1  0
  7 20  1  0
  7 21  1  0
M  END
