
     RDKit          3D

 25 26  0  0  0  0  0  0  0  0999 V2000
    3.0252    0.8083    0.0782 C   0  0  0  0  0  0  0  0  0  0  0  0
    1.5914    0.6480    0.4568 C   0  0  0  0  0  0  0  0  0  0  0  0
    0.4773    1.0285   -0.4321 C   0  0  0  0  0  0  0  0  0  0  0  0
   -0.9090    0.7673    0.0967 C   0  0  0  0  0  0  0  0  0  0  0  0
   -2.0470    1.2098   -0.7495 C   0  0  0  0  0  0  0  0  0  0  0  0
   -0.5992   -0.6825    0.1594 C   0  0  0  0  0  0  0  0  0  0  0  0
   -0.5490   -1.2046    1.5931 C   0  0  0  0  0  0  0  0  0  0  0  0
   -1.2632   -1.5872   -0.8250 C   0  0  0  0  0  0  0  0  0  0  0  0
    0.8300   -0.3902   -0.2875 C   0  0  0  0  0  0  0  0  0  0  0  0
    3.5224   -0.1926   -0.0843 H   0  0  0  0  0  0  0  0  0  0  0  0
    3.5639    1.2900    0.9026 H   0  0  0  0  0  0  0  0  0  0  0  0
    3.1210    1.3311   -0.8950 H   0  0  0  0  0  0  0  0  0  0  0  0
    1.3562    0.7186    1.5551 H   0  0  0  0  0  0  0  0  0  0  0  0
    0.6118    1.5296   -1.3975 H   0  0  0  0  0  0  0  0  0  0  0  0
   -0.9945    1.2361    1.1212 H   0  0  0  0  0  0  0  0  0  0  0  0
   -2.9286    0.5094   -0.6523 H   0  0  0  0  0  0  0  0  0  0  0  0
   -2.4618    2.1912   -0.3714 H   0  0  0  0  0  0  0  0  0  0  0  0
   -1.8103    1.3294   -1.8233 H   0  0  0  0  0  0  0  0  0  0  0  0
    0.4540   -1.6294    1.8358 H   0  0  0  0  0  0  0  0  0  0  0  0
   -0.6986   -0.3779    2.3310 H   0  0  0  0  0  0  0  0  0  0  0  0
   -1.3251   -1.9644    1.7645 H   0  0  0  0  0  0  0  0  0  0  0  0
   -2.0115   -1.1237   -1.4616 H   0  0  0  0  0  0  0  0  0  0  0  0
   -1.6837   -2.4529   -0.2447 H   0  0  0  0  0  0  0  0  0  0  0  0
   -0.5130   -2.0692   -1.5190 H   0  0  0  0  0  0  0  0  0  0  0  0
    1.2414   -0.9227   -1.1511 H   0  0  0  0  0  0  0  0  0  0  0  0
  1  2  1  0
  2  3  1  0
  3  4  1  0
  4  5  1  0
  4  6  1  0
  6  7  1  0
  6  8  1  0
  6  9  1  0
  9  2  1  0
  9  3  1  0
  1 10  1  0
  1 11  1  0
  1 12  1  0
  2 13  1  0
  3 14  1  0
  4 15  1  0
  5 16  1  0
  5 17  1  0
  5 18  1  0
  7 19  1  0
  7 20  1  0
  7 21  1  0
  8 22  1  0
  8 23  1  0
  8 24  1  0
  9 25  1  0
M  END
