
     RDKit          3D

 19 20  0  0  0  0  0  0  0  0999 V2000
    1.7700   -0.1465    0.4712 C   0  0  0  0  0  0  0  0  0  0  0  0
    0.7455    0.1879   -0.5548 C   0  0  0  0  0  0  0  0  0  0  0  0
    0.1645   -1.1136   -1.1440 C   0  0  0  0  0  0  0  0  0  0  0  0
   -1.2786   -0.8635   -0.7479 C   0  0  0  0  0  0  0  0  0  0  0  0
   -1.2208   -0.4581    0.6931 C   0  0  0  0  0  0  0  0  0  0  0  0
   -0.5453    0.7224    0.0203 C   0  0  0  0  0  0  0  0  0  0  0  0
   -0.5491    1.9890    0.6813 C   0  0  0  0  0  0  0  0  0  0  0  0
    0.2089    2.2056    1.6089 O   0  0  0  0  0  0  0  0  0  0  0  0
   -1.4288    0.5126   -1.0385 O   0  0  0  0  0  0  0  0  0  0  0  0
    1.3367   -0.4416    1.4263 H   0  0  0  0  0  0  0  0  0  0  0  0
    2.5189    0.6574    0.6184 H   0  0  0  0  0  0  0  0  0  0  0  0
    2.3638   -1.0210    0.0719 H   0  0  0  0  0  0  0  0  0  0  0  0
    1.1193    0.8469   -1.3436 H   0  0  0  0  0  0  0  0  0  0  0  0
    0.5641   -1.9799   -0.5967 H   0  0  0  0  0  0  0  0  0  0  0  0
    0.3092   -1.1576   -2.2243 H   0  0  0  0  0  0  0  0  0  0  0  0
   -2.0328   -1.5282   -1.0936 H   0  0  0  0  0  0  0  0  0  0  0  0
   -2.2208   -0.1481    1.0436 H   0  0  0  0  0  0  0  0  0  0  0  0
   -0.6082   -1.0530    1.3636 H   0  0  0  0  0  0  0  0  0  0  0  0
   -1.2166    2.7892    0.3847 H   0  0  0  0  0  0  0  0  0  0  0  0
  1  2  1  0
  2  3  1  0
  3  4  1  0
  4  5  1  0
  5  6  1  0
  6  7  1  0
  7  8  2  0
  6  9  1  0
  6  2  1  0
  9  4  1  0
  1 10  1  0
  1 11  1  0
  1 12  1  0
  2 13  1  0
  3 14  1  0
  3 15  1  0
  4 16  1  0
  5 17  1  0
  5 18  1  0
  7 19  1  0
M  END
