
     RDKit          3D

 21 22  0  0  0  0  0  0  0  0999 V2000
   -2.5894   -0.4965    0.7359 C   0  0  0  0  0  0  0  0  0  0  0  0
   -1.3989    0.2875    0.2060 C   0  0  0  0  0  0  0  0  0  0  0  0
   -0.2702   -0.7227    0.0361 C   0  0  0  0  0  0  0  0  0  0  0  0
    1.0679   -0.0455    0.1848 C   0  0  0  0  0  0  0  0  0  0  0  0
    2.1834   -0.7584   -0.5697 C   0  0  0  0  0  0  0  0  0  0  0  0
    2.1791   -0.6840    0.9303 C   0  0  0  0  0  0  0  0  0  0  0  0
    1.0377    1.3078   -0.0171 O   0  0  0  0  0  0  0  0  0  0  0  0
    0.0149    1.9793    0.5808 C   0  0  0  0  0  0  0  0  0  0  0  0
   -0.9529    1.1988    1.1628 O   0  0  0  0  0  0  0  0  0  0  0  0
   -2.2609   -1.4537    1.2069 H   0  0  0  0  0  0  0  0  0  0  0  0
   -3.2439   -0.7110   -0.1337 H   0  0  0  0  0  0  0  0  0  0  0  0
   -3.0834    0.1671    1.4794 H   0  0  0  0  0  0  0  0  0  0  0  0
   -1.6127    0.7879   -0.7517 H   0  0  0  0  0  0  0  0  0  0  0  0
   -0.3558   -1.1046   -0.9974 H   0  0  0  0  0  0  0  0  0  0  0  0
   -0.3934   -1.5396    0.7868 H   0  0  0  0  0  0  0  0  0  0  0  0
    2.8891   -0.1798   -1.1714 H   0  0  0  0  0  0  0  0  0  0  0  0
    1.9903   -1.7747   -0.9705 H   0  0  0  0  0  0  0  0  0  0  0  0
    1.9510   -1.5914    1.5271 H   0  0  0  0  0  0  0  0  0  0  0  0
    2.9394    0.0441    1.3293 H   0  0  0  0  0  0  0  0  0  0  0  0
    0.3920    2.6783    1.3802 H   0  0  0  0  0  0  0  0  0  0  0  0
   -0.4833    2.6111   -0.1990 H   0  0  0  0  0  0  0  0  0  0  0  0
  1  2  1  0
  2  3  1  0
  3  4  1  0
  4  5  1  0
  5  6  1  0
  4  7  1  0
  7  8  1  0
  8  9  1  0
  9  2  1  0
  6  4  1  0
  1 10  1  0
  1 11  1  0
  1 12  1  0
  2 13  1  0
  3 14  1  0
  3 15  1  0
  5 16  1  0
  5 17  1  0
  6 18  1  0
  6 19  1  0
  8 20  1  0
  8 21  1  0
M  END
