
     RDKit          3D

 25 25  0  0  0  0  0  0  0  0999 V2000
    3.0249   -1.0829    0.2375 C   0  0  0  0  0  0  0  0  0  0  0  0
    2.3240    0.0385    0.9605 C   0  0  0  0  0  0  0  0  0  0  0  0
    1.5139    0.8521   -0.0361 C   0  0  0  0  0  0  0  0  0  0  0  0
    0.3572   -0.1227    0.2394 C   0  0  0  0  0  0  0  0  0  0  0  0
   -0.8012    0.5719    0.1922 O   0  0  0  0  0  0  0  0  0  0  0  0
   -1.7600    0.1215   -0.6835 C   0  0  0  0  0  0  0  0  0  0  0  0
   -2.9514   -0.3145    0.1463 C   0  0  0  0  0  0  0  0  0  0  0  0
   -2.2286    1.1342   -1.6739 C   0  0  0  0  0  0  0  0  0  0  0  0
    0.9834   -0.3768    1.5819 C   0  0  0  0  0  0  0  0  0  0  0  0
    2.4096   -2.0074    0.2126 H   0  0  0  0  0  0  0  0  0  0  0  0
    3.9597   -1.3466    0.7779 H   0  0  0  0  0  0  0  0  0  0  0  0
    3.3199   -0.8166   -0.7985 H   0  0  0  0  0  0  0  0  0  0  0  0
    2.9545    0.6548    1.6136 H   0  0  0  0  0  0  0  0  0  0  0  0
    1.2982    1.8705    0.3791 H   0  0  0  0  0  0  0  0  0  0  0  0
    1.8621    0.8161   -1.0693 H   0  0  0  0  0  0  0  0  0  0  0  0
    0.4285   -0.9887   -0.4293 H   0  0  0  0  0  0  0  0  0  0  0  0
   -1.4393   -0.7882   -1.2556 H   0  0  0  0  0  0  0  0  0  0  0  0
   -2.7754   -1.2931    0.6397 H   0  0  0  0  0  0  0  0  0  0  0  0
   -3.8734   -0.3898   -0.4538 H   0  0  0  0  0  0  0  0  0  0  0  0
   -3.1720    0.4074    0.9648 H   0  0  0  0  0  0  0  0  0  0  0  0
   -3.2828    0.8706   -1.9465 H   0  0  0  0  0  0  0  0  0  0  0  0
   -2.2904    2.1524   -1.2286 H   0  0  0  0  0  0  0  0  0  0  0  0
   -1.6528    1.1343   -2.6204 H   0  0  0  0  0  0  0  0  0  0  0  0
    1.0735   -1.4375    1.8871 H   0  0  0  0  0  0  0  0  0  0  0  0
    0.7178    0.3406    2.3627 H   0  0  0  0  0  0  0  0  0  0  0  0
  1  2  1  0
  2  3  1  0
  3  4  1  0
  4  5  1  0
  5  6  1  0
  6  7  1  0
  6  8  1  0
  4  9  1  0
  9  2  1  0
  1 10  1  0
  1 11  1  0
  1 12  1  0
  2 13  1  0
  3 14  1  0
  3 15  1  0
  4 16  1  0
  6 17  1  0
  7 18  1  0
  7 19  1  0
  7 20  1  0
  8 21  1  0
  8 22  1  0
  8 23  1  0
  9 24  1  0
  9 25  1  0
M  END
