
     RDKit          3D

 23 24  0  0  0  0  0  0  0  0999 V2000
   -3.3247   -0.4054    0.5756 C   0  0  0  0  0  0  0  0  0  0  0  0
   -1.8634   -0.0486    0.5030 C   0  0  0  0  0  0  0  0  0  0  0  0
   -1.4244    0.9852   -0.5054 C   0  0  0  0  0  0  0  0  0  0  0  0
   -1.1274   -0.4207   -0.7594 C   0  0  0  0  0  0  0  0  0  0  0  0
    0.2089   -1.0623   -0.5828 C   0  0  0  0  0  0  0  0  0  0  0  0
    1.2050   -0.2311    0.1460 C   0  0  0  0  0  0  0  0  0  0  0  0
    1.4446    1.0218   -0.5717 O   0  0  0  0  0  0  0  0  0  0  0  0
    2.5462    0.0124   -0.3675 C   0  0  0  0  0  0  0  0  0  0  0  0
    3.5534    0.6477    0.5755 C   0  0  0  0  0  0  0  0  0  0  0  0
   -3.4588   -1.1127    1.4276 H   0  0  0  0  0  0  0  0  0  0  0  0
   -3.6392   -0.9635   -0.3298 H   0  0  0  0  0  0  0  0  0  0  0  0
   -3.9657    0.5131    0.7215 H   0  0  0  0  0  0  0  0  0  0  0  0
   -1.3231   -0.0638    1.4698 H   0  0  0  0  0  0  0  0  0  0  0  0
   -0.7244    1.7394   -0.1335 H   0  0  0  0  0  0  0  0  0  0  0  0
   -2.2394    1.4621   -1.1274 H   0  0  0  0  0  0  0  0  0  0  0  0
   -1.7554   -0.9369   -1.5408 H   0  0  0  0  0  0  0  0  0  0  0  0
    0.0681   -2.0658   -0.1389 H   0  0  0  0  0  0  0  0  0  0  0  0
    0.6327   -1.2587   -1.6075 H   0  0  0  0  0  0  0  0  0  0  0  0
    1.0355   -0.0403    1.2247 H   0  0  0  0  0  0  0  0  0  0  0  0
    2.8695   -0.2814   -1.3709 H   0  0  0  0  0  0  0  0  0  0  0  0
    2.9863    1.1697    1.3969 H   0  0  0  0  0  0  0  0  0  0  0  0
    4.2246   -0.0977    1.0042 H   0  0  0  0  0  0  0  0  0  0  0  0
    4.0711    1.4374   -0.0092 H   0  0  0  0  0  0  0  0  0  0  0  0
  1  2  1  0
  2  3  1  0
  3  4  1  0
  4  5  1  0
  5  6  1  0
  6  7  1  0
  7  8  1  0
  8  9  1  0
  4  2  1  0
  8  6  1  0
  1 10  1  0
  1 11  1  0
  1 12  1  0
  2 13  1  0
  3 14  1  0
  3 15  1  0
  4 16  1  0
  5 17  1  0
  5 18  1  0
  6 19  1  0
  8 20  1  0
  9 21  1  0
  9 22  1  0
  9 23  1  0
M  END
