
     RDKit          3D

 23 24  0  0  0  0  0  0  0  0999 V2000
    3.3249    0.5596    1.0941 C   0  0  0  0  0  0  0  0  0  0  0  0
    2.2199   -0.3792    0.6648 C   0  0  0  0  0  0  0  0  0  0  0  0
    2.2752   -0.7655   -0.7870 C   0  0  0  0  0  0  0  0  0  0  0  0
    1.1660    0.1300   -0.2257 C   0  0  0  0  0  0  0  0  0  0  0  0
   -0.0899   -0.4302   -0.3063 O   0  0  0  0  0  0  0  0  0  0  0  0
   -1.0385    0.5190   -0.6845 C   0  0  0  0  0  0  0  0  0  0  0  0
   -2.3857   -0.1673   -0.7513 C   0  0  0  0  0  0  0  0  0  0  0  0
   -2.8440   -0.7777    0.5399 C   0  0  0  0  0  0  0  0  0  0  0  0
   -3.5716    0.3670   -0.0841 C   0  0  0  0  0  0  0  0  0  0  0  0
    3.4725    0.5865    2.1856 H   0  0  0  0  0  0  0  0  0  0  0  0
    4.2409    0.2581    0.5431 H   0  0  0  0  0  0  0  0  0  0  0  0
    3.0620    1.5676    0.7420 H   0  0  0  0  0  0  0  0  0  0  0  0
    1.9898   -1.2188    1.3835 H   0  0  0  0  0  0  0  0  0  0  0  0
    2.0129   -1.8230   -1.0286 H   0  0  0  0  0  0  0  0  0  0  0  0
    2.9540   -0.2499   -1.4763 H   0  0  0  0  0  0  0  0  0  0  0  0
    1.2141    1.2118   -0.4676 H   0  0  0  0  0  0  0  0  0  0  0  0
   -0.7771    0.9864   -1.6655 H   0  0  0  0  0  0  0  0  0  0  0  0
   -1.0180    1.3092    0.0986 H   0  0  0  0  0  0  0  0  0  0  0  0
   -2.5319   -0.7777   -1.6753 H   0  0  0  0  0  0  0  0  0  0  0  0
   -2.2757   -0.5465    1.4812 H   0  0  0  0  0  0  0  0  0  0  0  0
   -3.2326   -1.8014    0.5082 H   0  0  0  0  0  0  0  0  0  0  0  0
   -3.5966    1.3136    0.4648 H   0  0  0  0  0  0  0  0  0  0  0  0
   -4.5707    0.1283   -0.5538 H   0  0  0  0  0  0  0  0  0  0  0  0
  1  2  1  0
  2  3  1  0
  3  4  1  0
  4  5  1  0
  5  6  1  0
  6  7  1  0
  7  8  1  0
  8  9  1  0
  4  2  1  0
  9  7  1  0
  1 10  1  0
  1 11  1  0
  1 12  1  0
  2 13  1  0
  3 14  1  0
  3 15  1  0
  4 16  1  0
  6 17  1  0
  6 18  1  0
  7 19  1  0
  8 20  1  0
  8 21  1  0
  9 22  1  0
  9 23  1  0
M  END
