
     RDKit          3D

 23 23  0  0  0  0  0  0  0  0999 V2000
    0.7350    1.7057    0.3592 C   0  0  0  0  0  0  0  0  0  0  0  0
    0.4974    0.6886   -0.7025 C   0  0  0  0  0  0  0  0  0  0  0  0
    1.4162   -0.4944   -0.4150 C   0  0  0  0  0  0  0  0  0  0  0  0
    2.5269   -0.0869    0.2900 O   0  0  0  0  0  0  0  0  0  0  0  0
    0.5427   -1.3265    0.5044 C   0  0  0  0  0  0  0  0  0  0  0  0
   -0.7703   -1.3291   -0.2486 C   0  0  0  0  0  0  0  0  0  0  0  0
   -1.7940   -1.5947    0.6720 O   0  0  0  0  0  0  0  0  0  0  0  0
   -0.8494    0.0983   -0.7546 C   0  0  0  0  0  0  0  0  0  0  0  0
   -1.9027    0.8062    0.0323 C   0  0  0  0  0  0  0  0  0  0  0  0
    1.5026    2.4411   -0.0239 H   0  0  0  0  0  0  0  0  0  0  0  0
   -0.1473    2.2968    0.6070 H   0  0  0  0  0  0  0  0  0  0  0  0
    1.2334    1.2507    1.2616 H   0  0  0  0  0  0  0  0  0  0  0  0
    0.8157    1.0927   -1.6955 H   0  0  0  0  0  0  0  0  0  0  0  0
    1.6273   -1.0296   -1.3451 H   0  0  0  0  0  0  0  0  0  0  0  0
    3.3363   -0.5956    0.0057 H   0  0  0  0  0  0  0  0  0  0  0  0
    0.4164   -0.7946    1.4602 H   0  0  0  0  0  0  0  0  0  0  0  0
    0.9478   -2.3500    0.6069 H   0  0  0  0  0  0  0  0  0  0  0  0
   -0.7635   -2.0561   -1.0834 H   0  0  0  0  0  0  0  0  0  0  0  0
   -1.4858   -1.5480    1.5986 H   0  0  0  0  0  0  0  0  0  0  0  0
   -1.1784    0.0491   -1.8296 H   0  0  0  0  0  0  0  0  0  0  0  0
   -1.9918    1.8745   -0.1550 H   0  0  0  0  0  0  0  0  0  0  0  0
   -1.8221    0.5486    1.1267 H   0  0  0  0  0  0  0  0  0  0  0  0
   -2.8927    0.3532   -0.2716 H   0  0  0  0  0  0  0  0  0  0  0  0
  1  2  1  0
  2  3  1  0
  3  4  1  0
  3  5  1  0
  5  6  1  0
  6  7  1  0
  6  8  1  0
  8  9  1  0
  8  2  1  0
  1 10  1  0
  1 11  1  0
  1 12  1  0
  2 13  1  0
  3 14  1  0
  4 15  1  0
  5 16  1  0
  5 17  1  0
  6 18  1  0
  7 19  1  0
  8 20  1  0
  9 21  1  0
  9 22  1  0
  9 23  1  0
M  END
