
     RDKit          3D

 18 19  0  0  0  0  0  0  0  0999 V2000
    2.1016   -0.2103    0.2013 C   0  0  0  0  0  0  0  0  0  0  0  0
    0.8384   -0.2624   -0.6087 C   0  0  0  0  0  0  0  0  0  0  0  0
    0.0782    1.0313   -0.7248 C   0  0  0  0  0  0  0  0  0  0  0  0
    0.3732    1.9102    0.3079 O   0  0  0  0  0  0  0  0  0  0  0  0
   -1.1938    0.2390   -0.4363 C   0  0  0  0  0  0  0  0  0  0  0  0
   -1.2701   -0.3160    0.9269 C   0  0  0  0  0  0  0  0  0  0  0  0
   -2.3442   -1.0856    1.3396 O   0  0  0  0  0  0  0  0  0  0  0  0
   -0.3153   -0.9687    0.0134 C   0  0  0  0  0  0  0  0  0  0  0  0
    2.5169   -1.2262    0.2580 H   0  0  0  0  0  0  0  0  0  0  0  0
    1.8893    0.1098    1.2408 H   0  0  0  0  0  0  0  0  0  0  0  0
    2.8224    0.4320   -0.3261 H   0  0  0  0  0  0  0  0  0  0  0  0
    1.0825   -0.6389   -1.6445 H   0  0  0  0  0  0  0  0  0  0  0  0
    0.0990    1.5375   -1.6919 H   0  0  0  0  0  0  0  0  0  0  0  0
   -0.4396    2.4260    0.4977 H   0  0  0  0  0  0  0  0  0  0  0  0
   -1.8818   -0.0016   -1.2422 H   0  0  0  0  0  0  0  0  0  0  0  0
   -0.9127    0.3821    1.7359 H   0  0  0  0  0  0  0  0  0  0  0  0
   -2.8562   -1.4040    0.5612 H   0  0  0  0  0  0  0  0  0  0  0  0
   -0.5876   -1.9542   -0.4084 H   0  0  0  0  0  0  0  0  0  0  0  0
  1  2  1  0
  2  3  1  0
  3  4  1  0
  3  5  1  0
  5  6  1  0
  6  7  1  0
  6  8  1  0
  8  2  1  0
  8  5  1  0
  1  9  1  0
  1 10  1  0
  1 11  1  0
  2 12  1  0
  3 13  1  0
  4 14  1  0
  5 15  1  0
  6 16  1  0
  7 17  1  0
  8 18  1  0
M  END
