
     RDKit          3D

 19 20  0  0  0  0  0  0  0  0999 V2000
    1.7738   -0.8098    0.0948 C   0  0  0  0  0  0  0  0  0  0  0  0
    0.7855    0.1884    0.5220 C   0  0  0  0  0  0  0  0  0  0  0  0
    0.1163    0.9283   -0.6494 C   0  0  0  0  0  0  0  0  0  0  0  0
   -0.9785    1.5978    0.1475 C   0  0  0  0  0  0  0  0  0  0  0  0
   -1.2980    0.8239    1.1720 C   0  0  0  0  0  0  0  0  0  0  0  0
   -0.5478   -0.4449    0.9871 C   0  0  0  0  0  0  0  0  0  0  0  0
   -0.9236   -1.1188   -0.2621 C   0  0  0  0  0  0  0  0  0  0  0  0
   -1.4506   -2.2007   -0.3437 O   0  0  0  0  0  0  0  0  0  0  0  0
   -0.5318   -0.2182   -1.3769 C   0  0  0  0  0  0  0  0  0  0  0  0
    2.0305   -0.6404   -0.9763 H   0  0  0  0  0  0  0  0  0  0  0  0
    1.4594   -1.8654    0.2288 H   0  0  0  0  0  0  0  0  0  0  0  0
    2.7394   -0.6321    0.6507 H   0  0  0  0  0  0  0  0  0  0  0  0
    1.0690    0.8848    1.3037 H   0  0  0  0  0  0  0  0  0  0  0  0
    0.7479    1.5753   -1.1952 H   0  0  0  0  0  0  0  0  0  0  0  0
   -1.3789    2.5570   -0.1443 H   0  0  0  0  0  0  0  0  0  0  0  0
   -1.9590    1.0452    1.9799 H   0  0  0  0  0  0  0  0  0  0  0  0
   -0.4388   -1.0537    1.8582 H   0  0  0  0  0  0  0  0  0  0  0  0
   -1.4200    0.0988   -1.9590 H   0  0  0  0  0  0  0  0  0  0  0  0
    0.2051   -0.7155   -2.0378 H   0  0  0  0  0  0  0  0  0  0  0  0
  1  2  1  0
  2  3  1  0
  3  4  1  0
  4  5  2  0
  5  6  1  0
  6  7  1  0
  7  8  2  0
  7  9  1  0
  6  2  1  0
  9  3  1  0
  1 10  1  0
  1 11  1  0
  1 12  1  0
  2 13  1  0
  3 14  1  0
  4 15  1  0
  5 16  1  0
  6 17  1  0
  9 18  1  0
  9 19  1  0
M  END
