
     RDKit          3D

 23 24  0  0  0  0  0  0  0  0999 V2000
   -2.5601    0.8406    0.1586 C   0  0  0  0  0  0  0  0  0  0  0  0
   -1.5027   -0.0859   -0.4372 C   0  0  0  0  0  0  0  0  0  0  0  0
   -1.4466   -1.3149    0.4505 C   0  0  0  0  0  0  0  0  0  0  0  0
   -0.1243   -1.6970    0.4990 O   0  0  0  0  0  0  0  0  0  0  0  0
    0.5399   -0.4836    0.6554 C   0  0  0  0  0  0  0  0  0  0  0  0
    1.7379   -0.4548   -0.2850 C   0  0  0  0  0  0  0  0  0  0  0  0
    2.8466    0.3501    0.3288 C   0  0  0  0  0  0  0  0  0  0  0  0
    0.8760    0.2629   -1.2871 C   0  0  0  0  0  0  0  0  0  0  0  0
   -0.1458    0.5157   -0.2263 C   0  0  0  0  0  0  0  0  0  0  0  0
   -2.7835    0.5541    1.2219 H   0  0  0  0  0  0  0  0  0  0  0  0
   -2.1711    1.8754    0.1980 H   0  0  0  0  0  0  0  0  0  0  0  0
   -3.5133    0.7425   -0.3848 H   0  0  0  0  0  0  0  0  0  0  0  0
   -1.7206   -0.3507   -1.4820 H   0  0  0  0  0  0  0  0  0  0  0  0
   -1.7343   -1.0073    1.4894 H   0  0  0  0  0  0  0  0  0  0  0  0
   -2.1434   -2.0998    0.1497 H   0  0  0  0  0  0  0  0  0  0  0  0
    0.7496   -0.1752    1.6854 H   0  0  0  0  0  0  0  0  0  0  0  0
    2.1006   -1.4570   -0.5817 H   0  0  0  0  0  0  0  0  0  0  0  0
    2.4147    1.3317    0.6499 H   0  0  0  0  0  0  0  0  0  0  0  0
    3.1883   -0.2085    1.2372 H   0  0  0  0  0  0  0  0  0  0  0  0
    3.6828    0.4606   -0.3779 H   0  0  0  0  0  0  0  0  0  0  0  0
    0.4992   -0.3470   -2.1173 H   0  0  0  0  0  0  0  0  0  0  0  0
    1.3847    1.1927   -1.6642 H   0  0  0  0  0  0  0  0  0  0  0  0
   -0.1746    1.5554    0.1198 H   0  0  0  0  0  0  0  0  0  0  0  0
  1  2  1  0
  2  3  1  0
  3  4  1  0
  4  5  1  0
  5  6  1  0
  6  7  1  0
  6  8  1  0
  8  9  1  0
  9  2  1  0
  9  5  1  0
  1 10  1  0
  1 11  1  0
  1 12  1  0
  2 13  1  0
  3 14  1  0
  3 15  1  0
  5 16  1  0
  6 17  1  0
  7 18  1  0
  7 19  1  0
  7 20  1  0
  8 21  1  0
  8 22  1  0
  9 23  1  0
M  END
