
     RDKit          3D

 22 22  0  0  0  0  0  0  0  0999 V2000
    2.2262   -0.9318    0.1836 C   0  0  0  0  0  0  0  0  0  0  0  0
    1.3892    0.2686    0.5337 C   0  0  0  0  0  0  0  0  0  0  0  0
    1.0552    1.0015   -0.7453 C   0  0  0  0  0  0  0  0  0  0  0  0
   -0.2676    0.3204   -1.1218 C   0  0  0  0  0  0  0  0  0  0  0  0
   -0.8155    0.0127    0.2378 C   0  0  0  0  0  0  0  0  0  0  0  0
   -1.8453    1.0959    0.5606 C   0  0  0  0  0  0  0  0  0  0  0  0
   -1.5507   -1.3050    0.2979 C   0  0  0  0  0  0  0  0  0  0  0  0
    0.2034   -0.0215    1.1386 O   0  0  0  0  0  0  0  0  0  0  0  0
    2.1775   -1.1696   -0.9102 H   0  0  0  0  0  0  0  0  0  0  0  0
    1.9476   -1.8466    0.7138 H   0  0  0  0  0  0  0  0  0  0  0  0
    3.3031   -0.6945    0.3887 H   0  0  0  0  0  0  0  0  0  0  0  0
    1.9597    0.9667    1.1858 H   0  0  0  0  0  0  0  0  0  0  0  0
    0.9013    2.0596   -0.4864 H   0  0  0  0  0  0  0  0  0  0  0  0
    1.8276    0.8071   -1.4869 H   0  0  0  0  0  0  0  0  0  0  0  0
   -0.8806    1.0009   -1.7211 H   0  0  0  0  0  0  0  0  0  0  0  0
    0.0191   -0.5771   -1.7009 H   0  0  0  0  0  0  0  0  0  0  0  0
   -2.7635    0.9124   -0.0449 H   0  0  0  0  0  0  0  0  0  0  0  0
   -2.1224    1.0207    1.6407 H   0  0  0  0  0  0  0  0  0  0  0  0
   -1.4926    2.1002    0.2939 H   0  0  0  0  0  0  0  0  0  0  0  0
   -2.5239   -1.2223    0.8485 H   0  0  0  0  0  0  0  0  0  0  0  0
   -0.9652   -2.0710    0.8766 H   0  0  0  0  0  0  0  0  0  0  0  0
   -1.7825   -1.7274   -0.6829 H   0  0  0  0  0  0  0  0  0  0  0  0
  1  2  1  0
  2  3  1  0
  3  4  1  0
  4  5  1  0
  5  6  1  0
  5  7  1  0
  5  8  1  0
  8  2  1  0
  1  9  1  0
  1 10  1  0
  1 11  1  0
  2 12  1  0
  3 13  1  0
  3 14  1  0
  4 15  1  0
  4 16  1  0
  6 17  1  0
  6 18  1  0
  6 19  1  0
  7 20  1  0
  7 21  1  0
  7 22  1  0
M  END
