
     RDKit          3D

 21 23  0  0  0  0  0  0  0  0999 V2000
    2.8070   -0.0016   -0.1876 C   0  0  0  0  0  0  0  0  0  0  0  0
    1.5462    0.2933   -0.9320 C   0  0  0  0  0  0  0  0  0  0  0  0
    0.5861    1.1894   -0.1370 C   0  0  0  0  0  0  0  0  0  0  0  0
   -0.3829    0.0760   -0.1444 C   0  0  0  0  0  0  0  0  0  0  0  0
    0.5009   -0.8320   -0.8905 C   0  0  0  0  0  0  0  0  0  0  0  0
   -1.7991    0.2851   -0.3654 C   0  0  0  0  0  0  0  0  0  0  0  0
   -2.8696   -0.6870    0.0002 C   0  0  0  0  0  0  0  0  0  0  0  0
   -2.0113   -1.4647    0.7721 O   0  0  0  0  0  0  0  0  0  0  0  0
   -1.2477   -0.2921    0.9675 C   0  0  0  0  0  0  0  0  0  0  0  0
    3.2996    0.9447    0.1187 H   0  0  0  0  0  0  0  0  0  0  0  0
    2.6182   -0.5748    0.7245 H   0  0  0  0  0  0  0  0  0  0  0  0
    3.5013   -0.5157   -0.8996 H   0  0  0  0  0  0  0  0  0  0  0  0
    1.7541    0.6723   -1.9363 H   0  0  0  0  0  0  0  0  0  0  0  0
    0.2332    2.0722   -0.6951 H   0  0  0  0  0  0  0  0  0  0  0  0
    0.9623    1.3910    0.8850 H   0  0  0  0  0  0  0  0  0  0  0  0
    0.9163   -1.6746   -0.2829 H   0  0  0  0  0  0  0  0  0  0  0  0
    0.2313   -1.1221   -1.9165 H   0  0  0  0  0  0  0  0  0  0  0  0
   -2.1435    1.3605   -0.3143 H   0  0  0  0  0  0  0  0  0  0  0  0
   -3.6467   -0.2425    0.6898 H   0  0  0  0  0  0  0  0  0  0  0  0
   -3.3961   -1.2005   -0.8128 H   0  0  0  0  0  0  0  0  0  0  0  0
   -1.4599    0.3231    1.8424 H   0  0  0  0  0  0  0  0  0  0  0  0
  1  2  1  0
  2  3  1  0
  3  4  1  0
  4  5  1  0
  4  6  1  0
  6  7  1  0
  7  8  1  0
  8  9  1  0
  5  2  1  0
  9  6  1  0
  9  4  1  0
  1 10  1  0
  1 11  1  0
  1 12  1  0
  2 13  1  0
  3 14  1  0
  3 15  1  0
  5 16  1  0
  5 17  1  0
  6 18  1  0
  7 19  1  0
  7 20  1  0
  9 21  1  0
M  END
