
     RDKit          3D

 19 20  0  0  0  0  0  0  0  0999 V2000
    2.3128    0.1263    0.6118 C   0  0  0  0  0  0  0  0  0  0  0  0
    1.1988    0.4259   -0.3204 C   0  0  0  0  0  0  0  0  0  0  0  0
    0.0107    1.0379    0.3258 C   0  0  0  0  0  0  0  0  0  0  0  0
   -0.0995    1.9826    1.0228 O   0  0  0  0  0  0  0  0  0  0  0  0
   -1.0499    0.1214   -0.1468 C   0  0  0  0  0  0  0  0  0  0  0  0
   -2.4413    0.4183    0.0929 C   0  0  0  0  0  0  0  0  0  0  0  0
   -0.4870   -1.2207    0.2800 C   0  0  0  0  0  0  0  0  0  0  0  0
    0.4767   -0.8111   -0.8250 C   0  0  0  0  0  0  0  0  0  0  0  0
   -0.6458   -0.2547   -1.4477 O   0  0  0  0  0  0  0  0  0  0  0  0
    2.8359   -0.8218    0.4219 H   0  0  0  0  0  0  0  0  0  0  0  0
    1.9841    0.1803    1.6873 H   0  0  0  0  0  0  0  0  0  0  0  0
    3.0699    0.9594    0.5140 H   0  0  0  0  0  0  0  0  0  0  0  0
    1.5410    1.0725   -1.1417 H   0  0  0  0  0  0  0  0  0  0  0  0
   -2.5465    1.2742    0.8236 H   0  0  0  0  0  0  0  0  0  0  0  0
   -2.9305    0.8136   -0.8440 H   0  0  0  0  0  0  0  0  0  0  0  0
   -3.0520   -0.4327    0.4462 H   0  0  0  0  0  0  0  0  0  0  0  0
   -0.0763   -1.2757    1.2805 H   0  0  0  0  0  0  0  0  0  0  0  0
   -1.1306   -2.0288   -0.0799 H   0  0  0  0  0  0  0  0  0  0  0  0
    1.0296   -1.5669   -1.3278 H   0  0  0  0  0  0  0  0  0  0  0  0
  1  2  1  0
  2  3  1  0
  3  4  2  0
  3  5  1  0
  5  6  1  0
  5  7  1  0
  7  8  1  0
  8  9  1  0
  8  2  1  0
  9  5  1  0
  1 10  1  0
  1 11  1  0
  1 12  1  0
  2 13  1  0
  6 14  1  0
  6 15  1  0
  6 16  1  0
  7 17  1  0
  7 18  1  0
  8 19  1  0
M  END
