
     RDKit          3D

 20 20  0  0  0  0  0  0  0  0999 V2000
   -0.4122    1.9927   -0.2264 C   0  0  0  0  0  0  0  0  0  0  0  0
   -0.5523    0.5371   -0.5185 C   0  0  0  0  0  0  0  0  0  0  0  0
   -1.3660   -0.1818    0.5437 C   0  0  0  0  0  0  0  0  0  0  0  0
   -1.1430   -1.5835    0.1430 C   0  0  0  0  0  0  0  0  0  0  0  0
   -1.9558   -2.4650    0.1621 O   0  0  0  0  0  0  0  0  0  0  0  0
    0.2653   -1.6774   -0.2803 C   0  0  0  0  0  0  0  0  0  0  0  0
    0.7109   -0.2346   -0.5545 C   0  0  0  0  0  0  0  0  0  0  0  0
    1.7128    0.1353    0.4925 C   0  0  0  0  0  0  0  0  0  0  0  0
   -0.5474    2.5780   -1.1680 H   0  0  0  0  0  0  0  0  0  0  0  0
    0.5110    2.2802    0.2771 H   0  0  0  0  0  0  0  0  0  0  0  0
   -1.2877    2.2827    0.4241 H   0  0  0  0  0  0  0  0  0  0  0  0
   -1.0908    0.4100   -1.4683 H   0  0  0  0  0  0  0  0  0  0  0  0
   -0.9150    0.0220    1.5429 H   0  0  0  0  0  0  0  0  0  0  0  0
   -2.4294    0.1216    0.4936 H   0  0  0  0  0  0  0  0  0  0  0  0
    0.4320   -2.3267   -1.1519 H   0  0  0  0  0  0  0  0  0  0  0  0
    0.8361   -2.1191    0.5642 H   0  0  0  0  0  0  0  0  0  0  0  0
    1.2102   -0.2479   -1.5523 H   0  0  0  0  0  0  0  0  0  0  0  0
    2.1826    1.1080    0.3445 H   0  0  0  0  0  0  0  0  0  0  0  0
    1.2929   -0.0066    1.5119 H   0  0  0  0  0  0  0  0  0  0  0  0
    2.5459   -0.6249    0.4208 H   0  0  0  0  0  0  0  0  0  0  0  0
  1  2  1  0
  2  3  1  0
  3  4  1  0
  4  5  2  0
  4  6  1  0
  6  7  1  0
  7  8  1  0
  7  2  1  0
  1  9  1  0
  1 10  1  0
  1 11  1  0
  2 12  1  0
  3 13  1  0
  3 14  1  0
  6 15  1  0
  6 16  1  0
  7 17  1  0
  8 18  1  0
  8 19  1  0
  8 20  1  0
M  END
