
     RDKit          3D

 25 25  0  0  0  0  0  0  0  0999 V2000
   -0.8418    1.9500    0.2039 C   0  0  0  0  0  0  0  0  0  0  0  0
   -0.1784    0.7211   -0.3838 C   0  0  0  0  0  0  0  0  0  0  0  0
    1.0814    0.4034    0.3764 C   0  0  0  0  0  0  0  0  0  0  0  0
    2.3246    0.3934   -0.4609 C   0  0  0  0  0  0  0  0  0  0  0  0
    3.4047    0.0874    0.3665 O   0  0  0  0  0  0  0  0  0  0  0  0
    0.5071   -0.9105    0.7645 C   0  0  0  0  0  0  0  0  0  0  0  0
   -0.7896   -0.5952    0.0691 C   0  0  0  0  0  0  0  0  0  0  0  0
   -1.1593   -1.5377   -1.0470 C   0  0  0  0  0  0  0  0  0  0  0  0
   -1.9774   -0.3736    0.9731 C   0  0  0  0  0  0  0  0  0  0  0  0
   -0.1049    2.7960    0.1464 H   0  0  0  0  0  0  0  0  0  0  0  0
   -1.7776    2.1561   -0.3171 H   0  0  0  0  0  0  0  0  0  0  0  0
   -0.9829    1.7256    1.2971 H   0  0  0  0  0  0  0  0  0  0  0  0
   -0.0915    0.7143   -1.4848 H   0  0  0  0  0  0  0  0  0  0  0  0
    1.2588    1.0535    1.2818 H   0  0  0  0  0  0  0  0  0  0  0  0
    2.2610   -0.2237   -1.3557 H   0  0  0  0  0  0  0  0  0  0  0  0
    2.4961    1.4610   -0.7870 H   0  0  0  0  0  0  0  0  0  0  0  0
    3.8722   -0.7048    0.0037 H   0  0  0  0  0  0  0  0  0  0  0  0
    1.0809   -1.7446    0.3232 H   0  0  0  0  0  0  0  0  0  0  0  0
    0.3971   -1.0686    1.8709 H   0  0  0  0  0  0  0  0  0  0  0  0
   -2.2530   -1.7865   -1.0523 H   0  0  0  0  0  0  0  0  0  0  0  0
   -0.6349   -2.5148   -0.9346 H   0  0  0  0  0  0  0  0  0  0  0  0
   -0.9431   -1.0395   -2.0104 H   0  0  0  0  0  0  0  0  0  0  0  0
   -2.6115    0.4048    0.4612 H   0  0  0  0  0  0  0  0  0  0  0  0
   -2.6315   -1.2909    0.9819 H   0  0  0  0  0  0  0  0  0  0  0  0
   -1.7067   -0.0762    1.9924 H   0  0  0  0  0  0  0  0  0  0  0  0
  1  2  1  0
  2  3  1  0
  3  4  1  0
  4  5  1  0
  3  6  1  0
  6  7  1  0
  7  8  1  0
  7  9  1  0
  7  2  1  0
  1 10  1  0
  1 11  1  0
  1 12  1  0
  2 13  1  0
  3 14  1  0
  4 15  1  0
  4 16  1  0
  5 17  1  0
  6 18  1  0
  6 19  1  0
  8 20  1  0
  8 21  1  0
  8 22  1  0
  9 23  1  0
  9 24  1  0
  9 25  1  0
M  END
