
     RDKit          3D

 25 25  0  0  0  0  0  0  0  0999 V2000
   -2.5883    1.0740    0.6732 C   0  0  0  0  0  0  0  0  0  0  0  0
   -1.9637   -0.0638   -0.1132 C   0  0  0  0  0  0  0  0  0  0  0  0
   -1.0544   -0.9580    0.6679 C   0  0  0  0  0  0  0  0  0  0  0  0
    0.1241   -0.5241   -0.1785 C   0  0  0  0  0  0  0  0  0  0  0  0
    0.6422   -1.6013   -1.0979 C   0  0  0  0  0  0  0  0  0  0  0  0
    1.1866    0.0748    0.6619 C   0  0  0  0  0  0  0  0  0  0  0  0
    2.4035    0.5432   -0.0553 C   0  0  0  0  0  0  0  0  0  0  0  0
    3.2778    1.0730    0.9210 O   0  0  0  0  0  0  0  0  0  0  0  0
   -0.7802    0.4111   -0.9272 C   0  0  0  0  0  0  0  0  0  0  0  0
   -3.1960    0.6955    1.5254 H   0  0  0  0  0  0  0  0  0  0  0  0
   -1.8215    1.7477    1.1003 H   0  0  0  0  0  0  0  0  0  0  0  0
   -3.1995    1.6519   -0.0606 H   0  0  0  0  0  0  0  0  0  0  0  0
   -2.7179   -0.6324   -0.6587 H   0  0  0  0  0  0  0  0  0  0  0  0
   -1.3079   -2.0380    0.5901 H   0  0  0  0  0  0  0  0  0  0  0  0
   -0.9716   -0.6808    1.7431 H   0  0  0  0  0  0  0  0  0  0  0  0
    1.0023   -2.5029   -0.5353 H   0  0  0  0  0  0  0  0  0  0  0  0
   -0.1593   -1.9505   -1.8075 H   0  0  0  0  0  0  0  0  0  0  0  0
    1.5042   -1.1897   -1.6581 H   0  0  0  0  0  0  0  0  0  0  0  0
    0.8080    0.9124    1.2826 H   0  0  0  0  0  0  0  0  0  0  0  0
    1.5240   -0.7164    1.3951 H   0  0  0  0  0  0  0  0  0  0  0  0
    2.2449    1.3253   -0.7903 H   0  0  0  0  0  0  0  0  0  0  0  0
    2.9630   -0.2858   -0.5556 H   0  0  0  0  0  0  0  0  0  0  0  0
    3.6002    1.9698    0.6758 H   0  0  0  0  0  0  0  0  0  0  0  0
   -0.5679    1.4892   -0.8014 H   0  0  0  0  0  0  0  0  0  0  0  0
   -0.9527    0.1757   -1.9969 H   0  0  0  0  0  0  0  0  0  0  0  0
  1  2  1  0
  2  3  1  0
  3  4  1  0
  4  5  1  0
  4  6  1  0
  6  7  1  0
  7  8  1  0
  4  9  1  0
  9  2  1  0
  1 10  1  0
  1 11  1  0
  1 12  1  0
  2 13  1  0
  3 14  1  0
  3 15  1  0
  5 16  1  0
  5 17  1  0
  5 18  1  0
  6 19  1  0
  6 20  1  0
  7 21  1  0
  7 22  1  0
  8 23  1  0
  9 24  1  0
  9 25  1  0
M  END
