
     RDKit          3D

 23 25  0  0  0  0  0  0  0  0999 V2000
    2.5397   -0.1784   -0.1410 C   0  0  0  0  0  0  0  0  0  0  0  0
    1.1001   -0.5622   -0.0049 C   0  0  0  0  0  0  0  0  0  0  0  0
    0.3567    0.2123    1.0983 C   0  0  0  0  0  0  0  0  0  0  0  0
    0.5375    1.3590    0.0910 C   0  0  0  0  0  0  0  0  0  0  0  0
    0.1710    0.2594   -0.9165 C   0  0  0  0  0  0  0  0  0  0  0  0
   -1.2443   -0.1759   -0.7892 C   0  0  0  0  0  0  0  0  0  0  0  0
   -1.4634   -1.2948    0.2084 C   0  0  0  0  0  0  0  0  0  0  0  0
   -1.0613   -0.2103    1.2214 C   0  0  0  0  0  0  0  0  0  0  0  0
   -2.0055    0.5829    0.3066 C   0  0  0  0  0  0  0  0  0  0  0  0
    2.9654    0.3193    0.7590 H   0  0  0  0  0  0  0  0  0  0  0  0
    3.1987   -1.0911   -0.2719 H   0  0  0  0  0  0  0  0  0  0  0  0
    2.7533    0.4092   -1.0830 H   0  0  0  0  0  0  0  0  0  0  0  0
    0.9822   -1.6223   -0.0187 H   0  0  0  0  0  0  0  0  0  0  0  0
    0.9304    0.3412    2.0225 H   0  0  0  0  0  0  0  0  0  0  0  0
    1.5906    1.6331    0.0461 H   0  0  0  0  0  0  0  0  0  0  0  0
   -0.0899    2.2072    0.1686 H   0  0  0  0  0  0  0  0  0  0  0  0
    0.5602    0.4399   -1.9171 H   0  0  0  0  0  0  0  0  0  0  0  0
   -1.8097   -0.3673   -1.6976 H   0  0  0  0  0  0  0  0  0  0  0  0
   -0.9347   -2.1976    0.1673 H   0  0  0  0  0  0  0  0  0  0  0  0
   -2.5620   -1.4718    0.3099 H   0  0  0  0  0  0  0  0  0  0  0  0
   -1.4771   -0.3505    2.2229 H   0  0  0  0  0  0  0  0  0  0  0  0
   -2.0109    1.6279    0.3249 H   0  0  0  0  0  0  0  0  0  0  0  0
   -3.0272    0.1311    0.4060 H   0  0  0  0  0  0  0  0  0  0  0  0
  1  2  1  0
  2  3  1  0
  3  4  1  0
  4  5  1  0
  5  6  1  0
  6  7  1  0
  7  8  1  0
  8  9  1  0
  5  2  1  0
  9  6  1  0
  8  3  1  0
  1 10  1  0
  1 11  1  0
  1 12  1  0
  2 13  1  0
  3 14  1  0
  4 15  1  0
  4 16  1  0
  5 17  1  0
  6 18  1  0
  7 19  1  0
  7 20  1  0
  8 21  1  0
  9 22  1  0
  9 23  1  0
M  END
