
     RDKit          3D

 21 22  0  0  0  0  0  0  0  0999 V2000
   -2.1079   -0.6731    0.4065 C   0  0  0  0  0  0  0  0  0  0  0  0
   -0.6383   -0.8581    0.3655 C   0  0  0  0  0  0  0  0  0  0  0  0
   -0.0885   -0.8698   -1.0763 C   0  0  0  0  0  0  0  0  0  0  0  0
    1.0190    0.1083   -0.9135 C   0  0  0  0  0  0  0  0  0  0  0  0
    1.5688   -0.1681    0.4924 C   0  0  0  0  0  0  0  0  0  0  0  0
    2.5385    0.6991    0.9159 O   0  0  0  0  0  0  0  0  0  0  0  0
    0.1601    0.2876    0.9038 C   0  0  0  0  0  0  0  0  0  0  0  0
    0.3006    1.2769   -0.2368 C   0  0  0  0  0  0  0  0  0  0  0  0
   -0.8601    1.5997   -0.8945 O   0  0  0  0  0  0  0  0  0  0  0  0
   -2.3785   -0.2065    1.4000 H   0  0  0  0  0  0  0  0  0  0  0  0
   -2.5756   -1.7006    0.4679 H   0  0  0  0  0  0  0  0  0  0  0  0
   -2.5426   -0.1081   -0.4211 H   0  0  0  0  0  0  0  0  0  0  0  0
   -0.2918   -1.7856    0.8281 H   0  0  0  0  0  0  0  0  0  0  0  0
   -0.8408   -0.4531   -1.7689 H   0  0  0  0  0  0  0  0  0  0  0  0
    0.2708   -1.8735   -1.3539 H   0  0  0  0  0  0  0  0  0  0  0  0
    1.7077    0.3192   -1.6841 H   0  0  0  0  0  0  0  0  0  0  0  0
    1.6738   -1.2230    0.7466 H   0  0  0  0  0  0  0  0  0  0  0  0
    3.3830    0.5870    0.4531 H   0  0  0  0  0  0  0  0  0  0  0  0
    0.0243    0.6412    1.8889 H   0  0  0  0  0  0  0  0  0  0  0  0
    1.0191    2.0669   -0.0329 H   0  0  0  0  0  0  0  0  0  0  0  0
   -1.3414    2.3339   -0.4865 H   0  0  0  0  0  0  0  0  0  0  0  0
  1  2  1  0
  2  3  1  0
  3  4  1  0
  4  5  1  0
  5  6  1  0
  5  7  1  0
  7  8  1  0
  8  9  1  0
  7  2  1  0
  8  4  1  0
  1 10  1  0
  1 11  1  0
  1 12  1  0
  2 13  1  0
  3 14  1  0
  3 15  1  0
  4 16  1  0
  5 17  1  0
  6 18  1  0
  7 19  1  0
  8 20  1  0
  9 21  1  0
M  END
