
     RDKit          3D

 19 20  0  0  0  0  0  0  0  0999 V2000
    1.5116   -1.4642    0.2175 C   0  0  0  0  0  0  0  0  0  0  0  0
    0.7027   -0.4557   -0.5239 C   0  0  0  0  0  0  0  0  0  0  0  0
    1.3412    0.9087   -0.4895 C   0  0  0  0  0  0  0  0  0  0  0  0
    0.3928    1.8318   -0.3995 C   0  0  0  0  0  0  0  0  0  0  0  0
   -0.9205    1.1802   -0.3678 C   0  0  0  0  0  0  0  0  0  0  0  0
   -1.8596    1.8689    0.3869 O   0  0  0  0  0  0  0  0  0  0  0  0
   -0.6486   -0.1981    0.1287 C   0  0  0  0  0  0  0  0  0  0  0  0
   -1.6016   -1.1757    0.3404 C   0  0  0  0  0  0  0  0  0  0  0  0
   -0.8390   -0.5465    1.4478 O   0  0  0  0  0  0  0  0  0  0  0  0
    2.4978   -1.5388   -0.2790 H   0  0  0  0  0  0  0  0  0  0  0  0
    1.0319   -2.4379    0.1450 H   0  0  0  0  0  0  0  0  0  0  0  0
    1.7242   -1.1541    1.2672 H   0  0  0  0  0  0  0  0  0  0  0  0
    0.5609   -0.7592   -1.5583 H   0  0  0  0  0  0  0  0  0  0  0  0
    2.4165    1.0714   -0.5338 H   0  0  0  0  0  0  0  0  0  0  0  0
    0.6304    2.9037   -0.3592 H   0  0  0  0  0  0  0  0  0  0  0  0
   -1.2937    1.1075   -1.4051 H   0  0  0  0  0  0  0  0  0  0  0  0
   -1.5300    2.0725    1.2920 H   0  0  0  0  0  0  0  0  0  0  0  0
   -1.4241   -2.2706    0.2723 H   0  0  0  0  0  0  0  0  0  0  0  0
   -2.6931   -0.9438    0.4185 H   0  0  0  0  0  0  0  0  0  0  0  0
  1  2  1  0
  2  3  1  0
  3  4  2  0
  4  5  1  0
  5  6  1  0
  5  7  1  0
  7  8  1  0
  8  9  1  0
  7  2  1  0
  9  7  1  0
  1 10  1  0
  1 11  1  0
  1 12  1  0
  2 13  1  0
  3 14  1  0
  4 15  1  0
  5 16  1  0
  6 17  1  0
  8 18  1  0
  8 19  1  0
M  END
