
     RDKit          3D

 20 21  0  0  0  0  0  0  0  0999 V2000
   -1.7765   -0.8778    0.3193 C   0  0  0  0  0  0  0  0  0  0  0  0
   -0.8835    0.3072    0.7139 C   0  0  0  0  0  0  0  0  0  0  0  0
   -1.1323    1.4197   -0.3081 C   0  0  0  0  0  0  0  0  0  0  0  0
    0.1526    0.9026   -0.9616 C   0  0  0  0  0  0  0  0  0  0  0  0
    1.3565    1.2891   -0.2179 C   0  0  0  0  0  0  0  0  0  0  0  0
    0.5262    0.1888    0.2780 C   0  0  0  0  0  0  0  0  0  0  0  0
    1.1095   -1.1835    0.2825 C   0  0  0  0  0  0  0  0  0  0  0  0
    2.4425   -1.1197   -0.1542 O   0  0  0  0  0  0  0  0  0  0  0  0
   -2.8166   -0.5066    0.1098 H   0  0  0  0  0  0  0  0  0  0  0  0
   -1.8294   -1.5917    1.1615 H   0  0  0  0  0  0  0  0  0  0  0  0
   -1.4034   -1.3945   -0.5716 H   0  0  0  0  0  0  0  0  0  0  0  0
   -1.0956    0.5740    1.7494 H   0  0  0  0  0  0  0  0  0  0  0  0
   -0.9845    2.3937    0.2207 H   0  0  0  0  0  0  0  0  0  0  0  0
   -2.0346    1.3158   -0.9036 H   0  0  0  0  0  0  0  0  0  0  0  0
    0.1247    0.4432   -1.9339 H   0  0  0  0  0  0  0  0  0  0  0  0
    2.3168    1.0092   -0.6909 H   0  0  0  0  0  0  0  0  0  0  0  0
    1.4007    2.2814    0.3120 H   0  0  0  0  0  0  0  0  0  0  0  0
    0.6019   -1.9107   -0.3536 H   0  0  0  0  0  0  0  0  0  0  0  0
    1.1404   -1.5267    1.3571 H   0  0  0  0  0  0  0  0  0  0  0  0
    2.7846   -2.0135   -0.4089 H   0  0  0  0  0  0  0  0  0  0  0  0
  1  2  1  0
  2  3  1  0
  3  4  1  0
  4  5  1  0
  5  6  1  0
  6  7  1  0
  7  8  1  0
  6  2  1  0
  6  4  1  0
  1  9  1  0
  1 10  1  0
  1 11  1  0
  2 12  1  0
  3 13  1  0
  3 14  1  0
  4 15  1  0
  5 16  1  0
  5 17  1  0
  7 18  1  0
  7 19  1  0
  8 20  1  0
M  END
