
     RDKit          3D

 16 16  0  0  0  0  0  0  0  0999 V2000
    1.7334    0.2128   -0.4539 C   0  0  0  0  0  0  0  0  0  0  0  0
    0.8006   -0.1499    0.6786 C   0  0  0  0  0  0  0  0  0  0  0  0
   -0.0862   -1.2759    0.2527 C   0  0  0  0  0  0  0  0  0  0  0  0
   -0.9011   -0.8309   -0.7845 O   0  0  0  0  0  0  0  0  0  0  0  0
   -1.7084    0.2220   -0.4222 C   0  0  0  0  0  0  0  0  0  0  0  0
   -1.0188    1.3194    0.2686 C   0  0  0  0  0  0  0  0  0  0  0  0
   -1.4368    2.4832    0.1670 O   0  0  0  0  0  0  0  0  0  0  0  0
    0.0876    1.0256    1.0210 O   0  0  0  0  0  0  0  0  0  0  0  0
    2.6830   -0.3371   -0.2789 H   0  0  0  0  0  0  0  0  0  0  0  0
    1.9762    1.2987   -0.4333 H   0  0  0  0  0  0  0  0  0  0  0  0
    1.3051   -0.1192   -1.4038 H   0  0  0  0  0  0  0  0  0  0  0  0
    1.3446   -0.4627    1.5903 H   0  0  0  0  0  0  0  0  0  0  0  0
    0.5702   -2.0636   -0.1873 H   0  0  0  0  0  0  0  0  0  0  0  0
   -0.6355   -1.7397    1.0793 H   0  0  0  0  0  0  0  0  0  0  0  0
   -2.5075   -0.1791    0.2432 H   0  0  0  0  0  0  0  0  0  0  0  0
   -2.2066    0.5964   -1.3369 H   0  0  0  0  0  0  0  0  0  0  0  0
  1  2  1  0
  2  3  1  0
  3  4  1  0
  4  5  1  0
  5  6  1  0
  6  7  2  0
  6  8  1  0
  8  2  1  0
  1  9  1  0
  1 10  1  0
  1 11  1  0
  2 12  1  0
  3 13  1  0
  3 14  1  0
  5 15  1  0
  5 16  1  0
M  END
