
     RDKit          3D

 25 26  0  0  0  0  0  0  0  0999 V2000
   -1.2185   -1.9503   -0.0209 C   0  0  0  0  0  0  0  0  0  0  0  0
   -1.0079   -0.4884   -0.0778 C   0  0  0  0  0  0  0  0  0  0  0  0
   -0.4807    0.0921    1.2452 C   0  0  0  0  0  0  0  0  0  0  0  0
    0.6940    0.8574    0.7159 C   0  0  0  0  0  0  0  0  0  0  0  0
    0.2002    1.4494   -0.6112 C   0  0  0  0  0  0  0  0  0  0  0  0
   -0.9470    2.3133   -0.5848 C   0  0  0  0  0  0  0  0  0  0  0  0
    0.0703   -0.0180   -0.9927 C   0  0  0  0  0  0  0  0  0  0  0  0
    1.3815   -0.0977   -0.2287 C   0  0  0  0  0  0  0  0  0  0  0  0
    1.8459   -1.3795    0.2684 C   0  0  0  0  0  0  0  0  0  0  0  0
   -1.2489   -2.3477   -1.0547 H   0  0  0  0  0  0  0  0  0  0  0  0
   -2.2517   -2.1293    0.3938 H   0  0  0  0  0  0  0  0  0  0  0  0
   -0.5405   -2.5062    0.6496 H   0  0  0  0  0  0  0  0  0  0  0  0
   -1.9752   -0.0247   -0.3591 H   0  0  0  0  0  0  0  0  0  0  0  0
   -1.2225    0.7529    1.7103 H   0  0  0  0  0  0  0  0  0  0  0  0
   -0.2319   -0.7019    1.9463 H   0  0  0  0  0  0  0  0  0  0  0  0
    1.2702    1.4801    1.3492 H   0  0  0  0  0  0  0  0  0  0  0  0
    1.0827    1.8676   -1.1357 H   0  0  0  0  0  0  0  0  0  0  0  0
   -0.7523    3.2440   -1.1663 H   0  0  0  0  0  0  0  0  0  0  0  0
   -1.1360    2.6807    0.4678 H   0  0  0  0  0  0  0  0  0  0  0  0
   -1.9163    1.9314   -0.9335 H   0  0  0  0  0  0  0  0  0  0  0  0
    0.0672   -0.2725   -2.0264 H   0  0  0  0  0  0  0  0  0  0  0  0
    2.1593    0.4768   -0.8089 H   0  0  0  0  0  0  0  0  0  0  0  0
    1.6150   -2.2753   -0.3793 H   0  0  0  0  0  0  0  0  0  0  0  0
    2.9782   -1.3696    0.2950 H   0  0  0  0  0  0  0  0  0  0  0  0
    1.5651   -1.5845    1.3387 H   0  0  0  0  0  0  0  0  0  0  0  0
  1  2  1  0
  2  3  1  0
  3  4  1  0
  4  5  1  0
  5  6  1  0
  5  7  1  0
  7  8  1  0
  8  9  1  0
  7  2  1  0
  8  4  1  0
  1 10  1  0
  1 11  1  0
  1 12  1  0
  2 13  1  0
  3 14  1  0
  3 15  1  0
  4 16  1  0
  5 17  1  0
  6 18  1  0
  6 19  1  0
  6 20  1  0
  7 21  1  0
  8 22  1  0
  9 23  1  0
  9 24  1  0
  9 25  1  0
M  END
