
     RDKit          3D

 16 17  0  0  0  0  0  0  0  0999 V2000
   -2.0459    0.0851    0.3692 C   0  0  0  0  0  0  0  0  0  0  0  0
   -0.5588    0.2545    0.4366 C   0  0  0  0  0  0  0  0  0  0  0  0
    0.2365   -0.9298    0.8644 C   0  0  0  0  0  0  0  0  0  0  0  0
   -0.2242   -1.5612   -0.2781 O   0  0  0  0  0  0  0  0  0  0  0  0
    0.1114   -0.3127   -0.7805 C   0  0  0  0  0  0  0  0  0  0  0  0
    1.3617   -0.4027    0.0196 C   0  0  0  0  0  0  0  0  0  0  0  0
    1.8694    0.9408    0.3880 C   0  0  0  0  0  0  0  0  0  0  0  0
    2.7327    1.0735    1.2642 O   0  0  0  0  0  0  0  0  0  0  0  0
   -2.4151   -0.7667    0.9580 H   0  0  0  0  0  0  0  0  0  0  0  0
   -2.5018    1.0517    0.7120 H   0  0  0  0  0  0  0  0  0  0  0  0
   -2.3481   -0.0190   -0.7089 H   0  0  0  0  0  0  0  0  0  0  0  0
   -0.1685    1.1835    0.8417 H   0  0  0  0  0  0  0  0  0  0  0  0
    0.3139   -1.3237    1.7880 H   0  0  0  0  0  0  0  0  0  0  0  0
    0.0012    0.0042   -1.7302 H   0  0  0  0  0  0  0  0  0  0  0  0
    2.1098   -1.1384   -0.2835 H   0  0  0  0  0  0  0  0  0  0  0  0
    1.5259    1.8609   -0.0736 H   0  0  0  0  0  0  0  0  0  0  0  0
  1  2  1  0
  2  3  1  0
  3  4  1  0
  4  5  1  0
  5  6  1  0
  6  7  1  0
  7  8  2  0
  5  2  1  0
  6  3  1  0
  1  9  1  0
  1 10  1  0
  1 11  1  0
  2 12  1  0
  3 13  1  0
  5 14  1  0
  6 15  1  0
  7 16  1  0
M  END
