
     RDKit          3D

 23 24  0  0  0  0  0  0  0  0999 V2000
    2.2350   -1.1550    0.6942 C   0  0  0  0  0  0  0  0  0  0  0  0
    1.2761   -0.4285   -0.1762 C   0  0  0  0  0  0  0  0  0  0  0  0
    1.2672    1.0885    0.1135 C   0  0  0  0  0  0  0  0  0  0  0  0
   -0.1667    1.5222   -0.2566 C   0  0  0  0  0  0  0  0  0  0  0  0
   -0.9569    1.6217    0.8741 O   0  0  0  0  0  0  0  0  0  0  0  0
   -0.5988    0.3536   -1.0445 C   0  0  0  0  0  0  0  0  0  0  0  0
   -1.3008   -0.8283   -0.7515 C   0  0  0  0  0  0  0  0  0  0  0  0
   -2.7036   -0.6181   -0.1583 C   0  0  0  0  0  0  0  0  0  0  0  0
   -0.1540   -0.6996    0.0542 C   0  0  0  0  0  0  0  0  0  0  0  0
    3.0890   -0.4528    0.9185 H   0  0  0  0  0  0  0  0  0  0  0  0
    2.6886   -1.9942    0.1273 H   0  0  0  0  0  0  0  0  0  0  0  0
    1.8293   -1.4999    1.6508 H   0  0  0  0  0  0  0  0  0  0  0  0
    1.5796   -0.5159   -1.2373 H   0  0  0  0  0  0  0  0  0  0  0  0
    2.0106    1.5827   -0.5209 H   0  0  0  0  0  0  0  0  0  0  0  0
    1.3645    1.2897    1.1841 H   0  0  0  0  0  0  0  0  0  0  0  0
   -0.1556    2.4214   -0.8839 H   0  0  0  0  0  0  0  0  0  0  0  0
   -0.4788    1.6684    1.7122 H   0  0  0  0  0  0  0  0  0  0  0  0
   -0.0048    0.3239   -2.0093 H   0  0  0  0  0  0  0  0  0  0  0  0
   -1.3416   -1.6617   -1.4887 H   0  0  0  0  0  0  0  0  0  0  0  0
   -3.2915   -1.5281   -0.1468 H   0  0  0  0  0  0  0  0  0  0  0  0
   -2.5613   -0.2973    0.9085 H   0  0  0  0  0  0  0  0  0  0  0  0
   -3.2347    0.2022   -0.6875 H   0  0  0  0  0  0  0  0  0  0  0  0
   -0.3909   -0.3948    1.1242 H   0  0  0  0  0  0  0  0  0  0  0  0
  1  2  1  0
  2  3  1  0
  3  4  1  0
  4  5  1  0
  4  6  1  0
  6  7  1  0
  7  8  1  0
  7  9  1  0
  9  2  1  0
  9  6  1  0
  1 10  1  0
  1 11  1  0
  1 12  1  0
  2 13  1  0
  3 14  1  0
  3 15  1  0
  4 16  1  0
  5 17  1  0
  6 18  1  0
  7 19  1  0
  8 20  1  0
  8 21  1  0
  8 22  1  0
  9 23  1  0
M  END
