
     RDKit          3D

 24 24  0  0  0  0  0  0  0  0999 V2000
    2.6121   -0.3118    0.3239 C   0  0  0  0  0  0  0  0  0  0  0  0
    1.2181    0.1302    0.6383 C   0  0  0  0  0  0  0  0  0  0  0  0
    0.8184    1.4221    0.0287 C   0  0  0  0  0  0  0  0  0  0  0  0
   -0.4136    1.1086   -0.8095 C   0  0  0  0  0  0  0  0  0  0  0  0
   -0.9634   -0.1466   -0.2063 C   0  0  0  0  0  0  0  0  0  0  0  0
   -1.8438   -0.8931   -1.2023 C   0  0  0  0  0  0  0  0  0  0  0  0
   -1.7195    0.0604    1.0638 C   0  0  0  0  0  0  0  0  0  0  0  0
    0.2748   -0.9410    0.1022 C   0  0  0  0  0  0  0  0  0  0  0  0
    3.1786    0.4064   -0.2844 H   0  0  0  0  0  0  0  0  0  0  0  0
    3.1972   -0.4957    1.2635 H   0  0  0  0  0  0  0  0  0  0  0  0
    2.6479   -1.2977   -0.2189 H   0  0  0  0  0  0  0  0  0  0  0  0
    1.1130    0.2109    1.7537 H   0  0  0  0  0  0  0  0  0  0  0  0
    0.4738    2.1638    0.7955 H   0  0  0  0  0  0  0  0  0  0  0  0
    1.6125    1.9101   -0.5471 H   0  0  0  0  0  0  0  0  0  0  0  0
   -1.0940    1.9550   -0.8260 H   0  0  0  0  0  0  0  0  0  0  0  0
   -0.0200    0.8375   -1.8230 H   0  0  0  0  0  0  0  0  0  0  0  0
   -2.9035   -0.8627   -0.9123 H   0  0  0  0  0  0  0  0  0  0  0  0
   -1.7383   -0.4026   -2.1819 H   0  0  0  0  0  0  0  0  0  0  0  0
   -1.4736   -1.9379   -1.2814 H   0  0  0  0  0  0  0  0  0  0  0  0
   -2.4357    0.8807    1.0455 H   0  0  0  0  0  0  0  0  0  0  0  0
   -1.0252    0.1194    1.9383 H   0  0  0  0  0  0  0  0  0  0  0  0
   -2.3114   -0.8856    1.2466 H   0  0  0  0  0  0  0  0  0  0  0  0
    0.6508   -1.3662   -0.8316 H   0  0  0  0  0  0  0  0  0  0  0  0
    0.1449   -1.6641    0.9247 H   0  0  0  0  0  0  0  0  0  0  0  0
  1  2  1  0
  2  3  1  0
  3  4  1  0
  4  5  1  0
  5  6  1  0
  5  7  1  0
  5  8  1  0
  8  2  1  0
  1  9  1  0
  1 10  1  0
  1 11  1  0
  2 12  1  0
  3 13  1  0
  3 14  1  0
  4 15  1  0
  4 16  1  0
  6 17  1  0
  6 18  1  0
  6 19  1  0
  7 20  1  0
  7 21  1  0
  7 22  1  0
  8 23  1  0
  8 24  1  0
M  END
