
     RDKit          3D

 25 25  0  0  0  0  0  0  0  0999 V2000
    2.5021   -0.6538    0.5077 C   0  0  0  0  0  0  0  0  0  0  0  0
    1.4861    0.1636   -0.2220 C   0  0  0  0  0  0  0  0  0  0  0  0
    0.5953   -0.6879   -1.1177 C   0  0  0  0  0  0  0  0  0  0  0  0
   -0.5308   -1.3141   -0.3707 C   0  0  0  0  0  0  0  0  0  0  0  0
   -1.8126   -0.5418   -0.4275 C   0  0  0  0  0  0  0  0  0  0  0  0
   -1.7794    0.8433    0.0414 C   0  0  0  0  0  0  0  0  0  0  0  0
   -2.2467    0.9472    1.3703 O   0  0  0  0  0  0  0  0  0  0  0  0
   -0.4799    1.5602   -0.0354 C   0  0  0  0  0  0  0  0  0  0  0  0
    0.5980    0.8814    0.7654 C   0  0  0  0  0  0  0  0  0  0  0  0
    3.5049   -0.3820    0.1065 H   0  0  0  0  0  0  0  0  0  0  0  0
    2.5178   -0.4088    1.5992 H   0  0  0  0  0  0  0  0  0  0  0  0
    2.2655   -1.7226    0.3619 H   0  0  0  0  0  0  0  0  0  0  0  0
    1.9321    0.9365   -0.8856 H   0  0  0  0  0  0  0  0  0  0  0  0
    0.2634   -0.1324   -2.0014 H   0  0  0  0  0  0  0  0  0  0  0  0
    1.2716   -1.5048   -1.5078 H   0  0  0  0  0  0  0  0  0  0  0  0
   -0.7513   -2.2959   -0.8915 H   0  0  0  0  0  0  0  0  0  0  0  0
   -0.2219   -1.6040    0.6488 H   0  0  0  0  0  0  0  0  0  0  0  0
   -2.1903   -0.6246   -1.4897 H   0  0  0  0  0  0  0  0  0  0  0  0
   -2.5652   -1.1142    0.1704 H   0  0  0  0  0  0  0  0  0  0  0  0
   -2.5252    1.4409   -0.5608 H   0  0  0  0  0  0  0  0  0  0  0  0
   -2.3912    0.0629    1.7695 H   0  0  0  0  0  0  0  0  0  0  0  0
   -0.6230    2.5729    0.4179 H   0  0  0  0  0  0  0  0  0  0  0  0
   -0.1702    1.7574   -1.0886 H   0  0  0  0  0  0  0  0  0  0  0  0
    1.2199    1.6049    1.3400 H   0  0  0  0  0  0  0  0  0  0  0  0
    0.1309    0.2160    1.4998 H   0  0  0  0  0  0  0  0  0  0  0  0
  1  2  1  0
  2  3  1  0
  3  4  1  0
  4  5  1  0
  5  6  1  0
  6  7  1  0
  6  8  1  0
  8  9  1  0
  9  2  1  0
  1 10  1  0
  1 11  1  0
  1 12  1  0
  2 13  1  0
  3 14  1  0
  3 15  1  0
  4 16  1  0
  4 17  1  0
  5 18  1  0
  5 19  1  0
  6 20  1  0
  7 21  1  0
  8 22  1  0
  8 23  1  0
  9 24  1  0
  9 25  1  0
M  END
