
     RDKit          3D

 21 22  0  0  0  0  0  0  0  0999 V2000
    2.1757   -0.7646   -0.0404 C   0  0  0  0  0  0  0  0  0  0  0  0
    0.8944   -0.2116    0.6003 C   0  0  0  0  0  0  0  0  0  0  0  0
    0.6597    1.2152    0.2515 C   0  0  0  0  0  0  0  0  0  0  0  0
   -0.6573    1.8113    0.0433 C   0  0  0  0  0  0  0  0  0  0  0  0
   -1.7061    1.6373    0.9659 O   0  0  0  0  0  0  0  0  0  0  0  0
   -0.3125    0.6837   -0.8454 C   0  0  0  0  0  0  0  0  0  0  0  0
   -0.2805   -0.6861   -0.2173 C   0  0  0  0  0  0  0  0  0  0  0  0
   -1.4395   -1.0419    0.6562 C   0  0  0  0  0  0  0  0  0  0  0  0
   -0.0053   -1.6484   -1.1649 O   0  0  0  0  0  0  0  0  0  0  0  0
    2.3158   -0.1570   -0.9781 H   0  0  0  0  0  0  0  0  0  0  0  0
    3.0349   -0.6834    0.6299 H   0  0  0  0  0  0  0  0  0  0  0  0
    1.9987   -1.8074   -0.4154 H   0  0  0  0  0  0  0  0  0  0  0  0
    0.8306   -0.4598    1.6959 H   0  0  0  0  0  0  0  0  0  0  0  0
    1.5499    1.7614   -0.1058 H   0  0  0  0  0  0  0  0  0  0  0  0
   -0.6812    2.8073   -0.4403 H   0  0  0  0  0  0  0  0  0  0  0  0
   -2.5348    1.8860    0.4419 H   0  0  0  0  0  0  0  0  0  0  0  0
    0.0679    0.8026   -1.8569 H   0  0  0  0  0  0  0  0  0  0  0  0
   -1.1934   -0.9132    1.7400 H   0  0  0  0  0  0  0  0  0  0  0  0
   -2.3777   -0.5294    0.3938 H   0  0  0  0  0  0  0  0  0  0  0  0
   -1.6485   -2.1392    0.5408 H   0  0  0  0  0  0  0  0  0  0  0  0
   -0.6907   -1.5628   -1.8949 H   0  0  0  0  0  0  0  0  0  0  0  0
  1  2  1  0
  2  3  1  0
  3  4  1  0
  4  5  1  0
  4  6  1  0
  6  7  1  0
  7  8  1  0
  7  9  1  0
  7  2  1  0
  6  3  1  0
  1 10  1  0
  1 11  1  0
  1 12  1  0
  2 13  1  0
  3 14  1  0
  4 15  1  0
  5 16  1  0
  6 17  1  0
  8 18  1  0
  8 19  1  0
  8 20  1  0
  9 21  1  0
M  END
