
     RDKit          3D

 21 22  0  0  0  0  0  0  0  0999 V2000
   -0.8154   -2.0188   -0.2157 C   0  0  0  0  0  0  0  0  0  0  0  0
   -0.6751   -0.5911   -0.6379 C   0  0  0  0  0  0  0  0  0  0  0  0
   -1.2920    0.5224    0.0976 C   0  0  0  0  0  0  0  0  0  0  0  0
   -1.7594    1.7785   -0.5952 C   0  0  0  0  0  0  0  0  0  0  0  0
    0.1455    0.2976    0.1767 C   0  0  0  0  0  0  0  0  0  0  0  0
    0.8442   -0.1106    1.3997 C   0  0  0  0  0  0  0  0  0  0  0  0
    2.1419   -0.0635    1.1307 C   0  0  0  0  0  0  0  0  0  0  0  0
    2.2549    0.3804   -0.2817 C   0  0  0  0  0  0  0  0  0  0  0  0
    1.0796    1.1028   -0.4708 O   0  0  0  0  0  0  0  0  0  0  0  0
    0.1806   -2.5481   -0.2019 H   0  0  0  0  0  0  0  0  0  0  0  0
   -1.4081   -2.5853   -0.9861 H   0  0  0  0  0  0  0  0  0  0  0  0
   -1.2542   -2.1597    0.7830 H   0  0  0  0  0  0  0  0  0  0  0  0
   -0.6591   -0.4650   -1.7607 H   0  0  0  0  0  0  0  0  0  0  0  0
   -1.9272    0.2422    0.9663 H   0  0  0  0  0  0  0  0  0  0  0  0
   -2.7808    1.7037   -0.9926 H   0  0  0  0  0  0  0  0  0  0  0  0
   -1.0172    2.1232   -1.3428 H   0  0  0  0  0  0  0  0  0  0  0  0
   -1.7777    2.5785    0.1983 H   0  0  0  0  0  0  0  0  0  0  0  0
    0.4023   -0.3952    2.3381 H   0  0  0  0  0  0  0  0  0  0  0  0
    2.9499   -0.3120    1.8407 H   0  0  0  0  0  0  0  0  0  0  0  0
    2.2063   -0.4784   -0.9941 H   0  0  0  0  0  0  0  0  0  0  0  0
    3.1608    0.9982   -0.4517 H   0  0  0  0  0  0  0  0  0  0  0  0
  1  2  1  0
  2  3  1  0
  3  4  1  0
  3  5  1  0
  5  6  1  0
  6  7  2  0
  7  8  1  0
  8  9  1  0
  5  2  1  0
  9  5  1  0
  1 10  1  0
  1 11  1  0
  1 12  1  0
  2 13  1  0
  3 14  1  0
  4 15  1  0
  4 16  1  0
  4 17  1  0
  6 18  1  0
  7 19  1  0
  8 20  1  0
  8 21  1  0
M  END
