
     RDKit          3D

 16 17  0  0  0  0  0  0  0  0999 V2000
    1.6170   -0.3436    0.6432 C   0  0  0  0  0  0  0  0  0  0  0  0
    0.8380    0.0357   -0.5794 C   0  0  0  0  0  0  0  0  0  0  0  0
    0.6865    1.4788   -0.8325 C   0  0  0  0  0  0  0  0  0  0  0  0
    1.3721    2.5082   -0.7019 O   0  0  0  0  0  0  0  0  0  0  0  0
   -0.5900    1.2267   -1.2992 O   0  0  0  0  0  0  0  0  0  0  0  0
   -0.6153    0.1130   -0.4654 C   0  0  0  0  0  0  0  0  0  0  0  0
   -1.5937   -0.9113   -0.3861 C   0  0  0  0  0  0  0  0  0  0  0  0
   -1.4131    0.0818    0.7504 C   0  0  0  0  0  0  0  0  0  0  0  0
    2.6365    0.0593    0.6253 H   0  0  0  0  0  0  0  0  0  0  0  0
    1.6794   -1.4612    0.6517 H   0  0  0  0  0  0  0  0  0  0  0  0
    1.1253   -0.0608    1.5871 H   0  0  0  0  0  0  0  0  0  0  0  0
    1.2180   -0.5397   -1.4591 H   0  0  0  0  0  0  0  0  0  0  0  0
   -1.2579   -1.9682   -0.1726 H   0  0  0  0  0  0  0  0  0  0  0  0
   -2.5758   -0.9001   -0.9024 H   0  0  0  0  0  0  0  0  0  0  0  0
   -2.1796    0.8988    0.8592 H   0  0  0  0  0  0  0  0  0  0  0  0
   -0.9475   -0.2173    1.6819 H   0  0  0  0  0  0  0  0  0  0  0  0
  1  2  1  0
  2  3  1  0
  3  4  2  0
  3  5  1  0
  5  6  1  0
  6  7  1  0
  7  8  1  0
  6  2  1  0
  8  6  1  0
  1  9  1  0
  1 10  1  0
  1 11  1  0
  2 12  1  0
  7 13  1  0
  7 14  1  0
  8 15  1  0
  8 16  1  0
M  END
