
     RDKit          3D

 19 20  0  0  0  0  0  0  0  0999 V2000
    2.4272    0.6248    0.0246 C   0  0  0  0  0  0  0  0  0  0  0  0
    1.0770    0.1748   -0.4563 C   0  0  0  0  0  0  0  0  0  0  0  0
    0.7997   -1.2635   -0.4044 C   0  0  0  0  0  0  0  0  0  0  0  0
    1.3542   -2.2530   -0.8668 O   0  0  0  0  0  0  0  0  0  0  0  0
   -0.4120   -1.1030    0.4202 C   0  0  0  0  0  0  0  0  0  0  0  0
    0.0373    0.3702    0.6357 C   0  0  0  0  0  0  0  0  0  0  0  0
   -1.3461    0.0096    0.2453 C   0  0  0  0  0  0  0  0  0  0  0  0
   -1.8654    0.4253   -1.1140 C   0  0  0  0  0  0  0  0  0  0  0  0
   -2.2939    0.1770    1.2642 O   0  0  0  0  0  0  0  0  0  0  0  0
    2.8351    1.3424   -0.7207 H   0  0  0  0  0  0  0  0  0  0  0  0
    2.3746    1.1690    0.9957 H   0  0  0  0  0  0  0  0  0  0  0  0
    3.1569   -0.1851    0.1231 H   0  0  0  0  0  0  0  0  0  0  0  0
    0.7219    0.7052   -1.3702 H   0  0  0  0  0  0  0  0  0  0  0  0
   -0.4921   -1.7293    1.3347 H   0  0  0  0  0  0  0  0  0  0  0  0
    0.3414    0.5912    1.6562 H   0  0  0  0  0  0  0  0  0  0  0  0
   -1.5807    1.4738   -1.3595 H   0  0  0  0  0  0  0  0  0  0  0  0
   -2.9821    0.4138   -1.1319 H   0  0  0  0  0  0  0  0  0  0  0  0
   -1.5358   -0.2384   -1.9275 H   0  0  0  0  0  0  0  0  0  0  0  0
   -2.6171   -0.7048    1.5664 H   0  0  0  0  0  0  0  0  0  0  0  0
  1  2  1  0
  2  3  1  0
  3  4  2  0
  3  5  1  0
  5  6  1  0
  6  7  1  0
  7  8  1  0
  7  9  1  0
  6  2  1  0
  7  5  1  0
  1 10  1  0
  1 11  1  0
  1 12  1  0
  2 13  1  0
  5 14  1  0
  6 15  1  0
  8 16  1  0
  8 17  1  0
  8 18  1  0
  9 19  1  0
M  END
