
     RDKit          3D

 19 20  0  0  0  0  0  0  0  0999 V2000
    2.2740   -0.1138   -0.0987 C   0  0  0  0  0  0  0  0  0  0  0  0
    0.8348    0.0501    0.3876 C   0  0  0  0  0  0  0  0  0  0  0  0
    0.2314    1.2369   -0.2852 C   0  0  0  0  0  0  0  0  0  0  0  0
   -1.2313    1.2556   -0.1272 C   0  0  0  0  0  0  0  0  0  0  0  0
   -1.8240    2.2955   -0.3271 O   0  0  0  0  0  0  0  0  0  0  0  0
   -2.0101    0.0683    0.2631 C   0  0  0  0  0  0  0  0  0  0  0  0
   -1.2705   -1.2149    0.0884 C   0  0  0  0  0  0  0  0  0  0  0  0
   -0.5507   -1.3870   -1.1198 O   0  0  0  0  0  0  0  0  0  0  0  0
    0.1241   -1.2391    0.0768 C   0  0  0  0  0  0  0  0  0  0  0  0
    2.3505    0.3709   -1.1114 H   0  0  0  0  0  0  0  0  0  0  0  0
    2.5187   -1.1801   -0.2679 H   0  0  0  0  0  0  0  0  0  0  0  0
    2.9551    0.3862    0.6079 H   0  0  0  0  0  0  0  0  0  0  0  0
    0.8022    0.1736    1.5036 H   0  0  0  0  0  0  0  0  0  0  0  0
    0.5068    1.2205   -1.3714 H   0  0  0  0  0  0  0  0  0  0  0  0
    0.7244    2.1466    0.1315 H   0  0  0  0  0  0  0  0  0  0  0  0
   -2.3244    0.1592    1.3084 H   0  0  0  0  0  0  0  0  0  0  0  0
   -2.9019    0.0272   -0.4297 H   0  0  0  0  0  0  0  0  0  0  0  0
   -1.8915   -2.1176    0.3064 H   0  0  0  0  0  0  0  0  0  0  0  0
    0.6824   -2.1381    0.4648 H   0  0  0  0  0  0  0  0  0  0  0  0
  1  2  1  0
  2  3  1  0
  3  4  1  0
  4  5  2  0
  4  6  1  0
  6  7  1  0
  7  8  1  0
  8  9  1  0
  9  2  1  0
  9  7  1  0
  1 10  1  0
  1 11  1  0
  1 12  1  0
  2 13  1  0
  3 14  1  0
  3 15  1  0
  6 16  1  0
  6 17  1  0
  7 18  1  0
  9 19  1  0
M  END
