
     RDKit          3D

 23 24  0  0  0  0  0  0  0  0999 V2000
    0.3527    2.2085   -0.2428 C   0  0  0  0  0  0  0  0  0  0  0  0
    0.2206    0.8361   -0.9009 C   0  0  0  0  0  0  0  0  0  0  0  0
   -0.8328   -0.0220   -0.3457 C   0  0  0  0  0  0  0  0  0  0  0  0
   -1.6693   -0.9341   -1.2062 C   0  0  0  0  0  0  0  0  0  0  0  0
   -1.4946    0.3325    0.9901 C   0  0  0  0  0  0  0  0  0  0  0  0
    0.5903   -0.3887   -0.2314 C   0  0  0  0  0  0  0  0  0  0  0  0
    1.2995   -0.5068    1.0589 C   0  0  0  0  0  0  0  0  0  0  0  0
    2.0312   -1.5688    0.3001 C   0  0  0  0  0  0  0  0  0  0  0  0
    1.1501   -1.4890   -0.7886 O   0  0  0  0  0  0  0  0  0  0  0  0
   -0.6851    2.6204   -0.1953 H   0  0  0  0  0  0  0  0  0  0  0  0
    0.7118    2.0887    0.7907 H   0  0  0  0  0  0  0  0  0  0  0  0
    0.9470    2.8939   -0.8602 H   0  0  0  0  0  0  0  0  0  0  0  0
    0.2919    0.8956   -2.0083 H   0  0  0  0  0  0  0  0  0  0  0  0
   -1.0245   -1.4726   -1.9474 H   0  0  0  0  0  0  0  0  0  0  0  0
   -2.5040   -0.4244   -1.7107 H   0  0  0  0  0  0  0  0  0  0  0  0
   -2.0449   -1.7467   -0.5245 H   0  0  0  0  0  0  0  0  0  0  0  0
   -2.4497    0.8375    0.8047 H   0  0  0  0  0  0  0  0  0  0  0  0
   -0.8026    0.9500    1.5839 H   0  0  0  0  0  0  0  0  0  0  0  0
   -1.6807   -0.6390    1.5031 H   0  0  0  0  0  0  0  0  0  0  0  0
    1.8827    0.3584    1.4048 H   0  0  0  0  0  0  0  0  0  0  0  0
    0.6339   -0.9796    1.8320 H   0  0  0  0  0  0  0  0  0  0  0  0
    3.0496   -1.2772   -0.0585 H   0  0  0  0  0  0  0  0  0  0  0  0
    2.0270   -2.5725    0.7520 H   0  0  0  0  0  0  0  0  0  0  0  0
  1  2  1  0
  2  3  1  0
  3  4  1  0
  3  5  1  0
  3  6  1  0
  6  7  1  0
  7  8  1  0
  8  9  1  0
  6  2  1  0
  9  6  1  0
  1 10  1  0
  1 11  1  0
  1 12  1  0
  2 13  1  0
  4 14  1  0
  4 15  1  0
  4 16  1  0
  5 17  1  0
  5 18  1  0
  5 19  1  0
  7 20  1  0
  7 21  1  0
  8 22  1  0
  8 23  1  0
M  END
