
     RDKit          3D

 23 23  0  0  0  0  0  0  0  0999 V2000
    2.2406   -0.0776    0.3415 C   0  0  0  0  0  0  0  0  0  0  0  0
    1.1047   -0.4266   -0.5256 C   0  0  0  0  0  0  0  0  0  0  0  0
    0.2051   -1.5377    0.0162 C   0  0  0  0  0  0  0  0  0  0  0  0
   -0.9796   -0.6857   -0.3762 C   0  0  0  0  0  0  0  0  0  0  0  0
   -1.9631   -0.5660    0.7483 C   0  0  0  0  0  0  0  0  0  0  0  0
   -1.5932   -1.1846   -1.5150 O   0  0  0  0  0  0  0  0  0  0  0  0
   -0.0674    0.4654   -0.6067 C   0  0  0  0  0  0  0  0  0  0  0  0
   -0.1481    1.5978    0.3826 C   0  0  0  0  0  0  0  0  0  0  0  0
    0.9566    2.4310    0.2315 O   0  0  0  0  0  0  0  0  0  0  0  0
    2.0505    0.5924    1.1738 H   0  0  0  0  0  0  0  0  0  0  0  0
    3.0732    0.3838   -0.2664 H   0  0  0  0  0  0  0  0  0  0  0  0
    2.6799   -1.0358    0.7474 H   0  0  0  0  0  0  0  0  0  0  0  0
    1.4558   -0.7370   -1.5479 H   0  0  0  0  0  0  0  0  0  0  0  0
    0.3154   -1.7008    1.1104 H   0  0  0  0  0  0  0  0  0  0  0  0
    0.2929   -2.5007   -0.5306 H   0  0  0  0  0  0  0  0  0  0  0  0
   -2.7212    0.1898    0.4959 H   0  0  0  0  0  0  0  0  0  0  0  0
   -1.4997   -0.3966    1.7367 H   0  0  0  0  0  0  0  0  0  0  0  0
   -2.4795   -1.5635    0.8319 H   0  0  0  0  0  0  0  0  0  0  0  0
   -2.3121   -0.6202   -1.8549 H   0  0  0  0  0  0  0  0  0  0  0  0
   -0.2379    0.8892   -1.6369 H   0  0  0  0  0  0  0  0  0  0  0  0
   -0.2228    1.2640    1.4304 H   0  0  0  0  0  0  0  0  0  0  0  0
   -1.0451    2.2214    0.1881 H   0  0  0  0  0  0  0  0  0  0  0  0
    0.8950    2.9981   -0.5742 H   0  0  0  0  0  0  0  0  0  0  0  0
  1  2  1  0
  2  3  1  0
  3  4  1  0
  4  5  1  0
  4  6  1  0
  4  7  1  0
  7  8  1  0
  8  9  1  0
  7  2  1  0
  1 10  1  0
  1 11  1  0
  1 12  1  0
  2 13  1  0
  3 14  1  0
  3 15  1  0
  5 16  1  0
  5 17  1  0
  5 18  1  0
  6 19  1  0
  7 20  1  0
  8 21  1  0
  8 22  1  0
  9 23  1  0
M  END
