
     RDKit          3D

 19 19  0  0  0  0  0  0  0  0999 V2000
   -2.4458   -0.3394   -0.3496 C   0  0  0  0  0  0  0  0  0  0  0  0
   -1.0839    0.1319    0.0304 C   0  0  0  0  0  0  0  0  0  0  0  0
   -0.0304   -0.8348   -0.5266 C   0  0  0  0  0  0  0  0  0  0  0  0
    1.2454   -0.4472    0.1386 C   0  0  0  0  0  0  0  0  0  0  0  0
    2.2428   -1.4271    0.4882 C   0  0  0  0  0  0  0  0  0  0  0  0
    3.3124   -1.1137    1.0444 O   0  0  0  0  0  0  0  0  0  0  0  0
    1.3935    0.8577    0.3832 C   0  0  0  0  0  0  0  0  0  0  0  0
    0.3924    1.8736    0.0367 C   0  0  0  0  0  0  0  0  0  0  0  0
   -0.7625    1.3732   -0.5053 O   0  0  0  0  0  0  0  0  0  0  0  0
   -3.2301   -0.0130    0.3638 H   0  0  0  0  0  0  0  0  0  0  0  0
   -2.4314   -1.4670   -0.3186 H   0  0  0  0  0  0  0  0  0  0  0  0
   -2.7102   -0.0660   -1.3989 H   0  0  0  0  0  0  0  0  0  0  0  0
   -0.9879    0.1924    1.1307 H   0  0  0  0  0  0  0  0  0  0  0  0
   -0.3509   -1.8499   -0.3036 H   0  0  0  0  0  0  0  0  0  0  0  0
    0.1181   -0.6363   -1.6119 H   0  0  0  0  0  0  0  0  0  0  0  0
    2.0617   -2.4606    0.2637 H   0  0  0  0  0  0  0  0  0  0  0  0
    2.2994    1.1747    0.8611 H   0  0  0  0  0  0  0  0  0  0  0  0
    0.0970    2.4536    0.9576 H   0  0  0  0  0  0  0  0  0  0  0  0
    0.8704    2.5979   -0.6838 H   0  0  0  0  0  0  0  0  0  0  0  0
  1  2  1  0
  2  3  1  0
  3  4  1  0
  4  5  1  0
  5  6  2  0
  4  7  2  0
  7  8  1  0
  8  9  1  0
  9  2  1  0
  1 10  1  0
  1 11  1  0
  1 12  1  0
  2 13  1  0
  3 14  1  0
  3 15  1  0
  5 16  1  0
  7 17  1  0
  8 18  1  0
  8 19  1  0
M  END
