
     RDKit          3D

 21 21  0  0  0  0  0  0  0  0999 V2000
   -0.8416   -1.8658    0.3799 C   0  0  0  0  0  0  0  0  0  0  0  0
   -0.3385   -0.6254   -0.2762 C   0  0  0  0  0  0  0  0  0  0  0  0
   -1.4907    0.3281   -0.6170 C   0  0  0  0  0  0  0  0  0  0  0  0
   -2.2854    0.4502    0.4894 O   0  0  0  0  0  0  0  0  0  0  0  0
   -0.6592    1.6168   -0.7168 C   0  0  0  0  0  0  0  0  0  0  0  0
   -0.0294    1.5321    0.5461 O   0  0  0  0  0  0  0  0  0  0  0  0
    0.5040    0.2456    0.5940 C   0  0  0  0  0  0  0  0  0  0  0  0
    1.9366    0.3350    0.1510 C   0  0  0  0  0  0  0  0  0  0  0  0
    2.5874   -0.8928    0.1543 O   0  0  0  0  0  0  0  0  0  0  0  0
    0.0038   -2.5177    0.6051 H   0  0  0  0  0  0  0  0  0  0  0  0
   -1.3402   -1.6205    1.3344 H   0  0  0  0  0  0  0  0  0  0  0  0
   -1.5264   -2.3827   -0.2972 H   0  0  0  0  0  0  0  0  0  0  0  0
    0.1708   -0.9189   -1.2239 H   0  0  0  0  0  0  0  0  0  0  0  0
   -1.9827    0.0786   -1.5434 H   0  0  0  0  0  0  0  0  0  0  0  0
   -2.0807    1.2718    1.0370 H   0  0  0  0  0  0  0  0  0  0  0  0
   -1.2751    2.5059   -0.7819 H   0  0  0  0  0  0  0  0  0  0  0  0
    0.0731    1.4659   -1.5100 H   0  0  0  0  0  0  0  0  0  0  0  0
    0.5196   -0.1489    1.6460 H   0  0  0  0  0  0  0  0  0  0  0  0
    2.4643    0.9703    0.9178 H   0  0  0  0  0  0  0  0  0  0  0  0
    2.0545    0.8762   -0.8104 H   0  0  0  0  0  0  0  0  0  0  0  0
    3.5359   -0.7038   -0.0783 H   0  0  0  0  0  0  0  0  0  0  0  0
  1  2  1  0
  2  3  1  0
  3  4  1  0
  3  5  1  0
  5  6  1  0
  6  7  1  0
  7  8  1  0
  8  9  1  0
  7  2  1  0
  1 10  1  0
  1 11  1  0
  1 12  1  0
  2 13  1  0
  3 14  1  0
  4 15  1  0
  5 16  1  0
  5 17  1  0
  7 18  1  0
  8 19  1  0
  8 20  1  0
  9 21  1  0
M  END
