
     RDKit          3D

 19 19  0  0  0  0  0  0  0  0999 V2000
    1.8948   -0.6776    0.4019 C   0  0  0  0  0  0  0  0  0  0  0  0
    0.8078   -0.1421   -0.4431 C   0  0  0  0  0  0  0  0  0  0  0  0
    0.8251    1.3406   -0.5809 C   0  0  0  0  0  0  0  0  0  0  0  0
    1.6235    2.2591   -0.6490 O   0  0  0  0  0  0  0  0  0  0  0  0
   -0.6619    1.2893   -0.6087 C   0  0  0  0  0  0  0  0  0  0  0  0
   -0.5685   -0.0632    0.1095 C   0  0  0  0  0  0  0  0  0  0  0  0
   -1.5503   -1.0211   -0.5416 C   0  0  0  0  0  0  0  0  0  0  0  0
   -0.7462    0.1228    1.5397 C   0  0  0  0  0  0  0  0  0  0  0  0
   -0.0979    0.9355    2.1507 O   0  0  0  0  0  0  0  0  0  0  0  0
    2.7678    0.0360    0.3261 H   0  0  0  0  0  0  0  0  0  0  0  0
    1.6277   -0.8650    1.4466 H   0  0  0  0  0  0  0  0  0  0  0  0
    2.3057   -1.6429   -0.0090 H   0  0  0  0  0  0  0  0  0  0  0  0
    0.7874   -0.6699   -1.4405 H   0  0  0  0  0  0  0  0  0  0  0  0
   -1.0320    1.1890   -1.6459 H   0  0  0  0  0  0  0  0  0  0  0  0
   -1.1820    2.0671   -0.0430 H   0  0  0  0  0  0  0  0  0  0  0  0
   -1.7955   -0.6953   -1.5735 H   0  0  0  0  0  0  0  0  0  0  0  0
   -1.0705   -2.0089   -0.5772 H   0  0  0  0  0  0  0  0  0  0  0  0
   -2.4709   -0.9862    0.0647 H   0  0  0  0  0  0  0  0  0  0  0  0
   -1.4640   -0.4673    2.0736 H   0  0  0  0  0  0  0  0  0  0  0  0
  1  2  1  0
  2  3  1  0
  3  4  2  0
  3  5  1  0
  5  6  1  0
  6  7  1  0
  6  8  1  0
  8  9  2  0
  6  2  1  0
  1 10  1  0
  1 11  1  0
  1 12  1  0
  2 13  1  0
  5 14  1  0
  5 15  1  0
  7 16  1  0
  7 17  1  0
  7 18  1  0
  8 19  1  0
M  END
