
     RDKit          3D

 23 24  0  0  0  0  0  0  0  0999 V2000
    2.7402    0.5556    0.3448 C   0  0  0  0  0  0  0  0  0  0  0  0
    1.5952   -0.3248    0.7485 C   0  0  0  0  0  0  0  0  0  0  0  0
    1.2407   -1.2797   -0.3726 C   0  0  0  0  0  0  0  0  0  0  0  0
    0.0123   -0.4716   -0.5640 C   0  0  0  0  0  0  0  0  0  0  0  0
   -1.2996   -1.1394   -0.1680 C   0  0  0  0  0  0  0  0  0  0  0  0
   -2.3589   -0.0752   -0.3316 C   0  0  0  0  0  0  0  0  0  0  0  0
   -1.8486    1.2904    0.0502 C   0  0  0  0  0  0  0  0  0  0  0  0
   -0.6399    1.2663    0.9143 C   0  0  0  0  0  0  0  0  0  0  0  0
    0.3121    0.3906    0.6181 C   0  0  0  0  0  0  0  0  0  0  0  0
    2.8025    1.4793    0.9555 H   0  0  0  0  0  0  0  0  0  0  0  0
    3.6780   -0.0609    0.4551 H   0  0  0  0  0  0  0  0  0  0  0  0
    2.5995    0.8935   -0.7074 H   0  0  0  0  0  0  0  0  0  0  0  0
    1.7642   -0.8574    1.7015 H   0  0  0  0  0  0  0  0  0  0  0  0
    1.9097   -1.1915   -1.2778 H   0  0  0  0  0  0  0  0  0  0  0  0
    1.0799   -2.3245   -0.0848 H   0  0  0  0  0  0  0  0  0  0  0  0
   -0.0447    0.0903   -1.5024 H   0  0  0  0  0  0  0  0  0  0  0  0
   -1.4946   -2.0213   -0.8082 H   0  0  0  0  0  0  0  0  0  0  0  0
   -1.2399   -1.4967    0.8760 H   0  0  0  0  0  0  0  0  0  0  0  0
   -2.5900   -0.0596   -1.4397 H   0  0  0  0  0  0  0  0  0  0  0  0
   -3.2841   -0.3490    0.2413 H   0  0  0  0  0  0  0  0  0  0  0  0
   -1.7008    1.9434   -0.8440 H   0  0  0  0  0  0  0  0  0  0  0  0
   -2.6982    1.7922    0.6004 H   0  0  0  0  0  0  0  0  0  0  0  0
   -0.5350    1.9500    1.7710 H   0  0  0  0  0  0  0  0  0  0  0  0
  1  2  1  0
  2  3  1  0
  3  4  1  0
  4  5  1  0
  5  6  1  0
  6  7  1  0
  7  8  1  0
  8  9  2  0
  9  2  1  0
  9  4  1  0
  1 10  1  0
  1 11  1  0
  1 12  1  0
  2 13  1  0
  3 14  1  0
  3 15  1  0
  4 16  1  0
  5 17  1  0
  5 18  1  0
  6 19  1  0
  6 20  1  0
  7 21  1  0
  7 22  1  0
  8 23  1  0
M  END
