
     RDKit          3D

 23 24  0  0  0  0  0  0  0  0999 V2000
    1.8223    0.7198    0.9381 C   0  0  0  0  0  0  0  0  0  0  0  0
    1.1161    0.0260   -0.1786 C   0  0  0  0  0  0  0  0  0  0  0  0
    1.1026   -1.4965    0.0764 C   0  0  0  0  0  0  0  0  0  0  0  0
   -0.3768   -1.7267   -0.1079 C   0  0  0  0  0  0  0  0  0  0  0  0
   -0.8129   -0.8027   -1.2219 C   0  0  0  0  0  0  0  0  0  0  0  0
   -0.3383    0.2853   -0.2694 C   0  0  0  0  0  0  0  0  0  0  0  0
   -0.8848    1.6129   -0.3981 C   0  0  0  0  0  0  0  0  0  0  0  0
   -2.2933    1.5275   -0.4603 O   0  0  0  0  0  0  0  0  0  0  0  0
   -0.9205   -0.6258    0.8214 C   0  0  0  0  0  0  0  0  0  0  0  0
    1.1908    0.7333    1.8437 H   0  0  0  0  0  0  0  0  0  0  0  0
    2.7960    0.2063    1.1265 H   0  0  0  0  0  0  0  0  0  0  0  0
    2.0939    1.7416    0.5800 H   0  0  0  0  0  0  0  0  0  0  0  0
    1.6629    0.2434   -1.1227 H   0  0  0  0  0  0  0  0  0  0  0  0
    1.3273   -1.6402    1.1422 H   0  0  0  0  0  0  0  0  0  0  0  0
    1.7354   -2.0330   -0.6209 H   0  0  0  0  0  0  0  0  0  0  0  0
   -0.7904   -2.6935   -0.0216 H   0  0  0  0  0  0  0  0  0  0  0  0
   -1.9216   -0.8053   -1.2805 H   0  0  0  0  0  0  0  0  0  0  0  0
   -0.2588   -0.8638   -2.1526 H   0  0  0  0  0  0  0  0  0  0  0  0
   -0.6734    2.2108    0.5096 H   0  0  0  0  0  0  0  0  0  0  0  0
   -0.5680    2.0955   -1.3171 H   0  0  0  0  0  0  0  0  0  0  0  0
   -2.6136    2.4735   -0.5036 H   0  0  0  0  0  0  0  0  0  0  0  0
   -0.3798   -0.5851    1.7677 H   0  0  0  0  0  0  0  0  0  0  0  0
   -2.0151   -0.6033    0.8498 H   0  0  0  0  0  0  0  0  0  0  0  0
  1  2  1  0
  2  3  1  0
  3  4  1  0
  4  5  1  0
  5  6  1  0
  6  7  1  0
  7  8  1  0
  6  9  1  0
  6  2  1  0
  9  4  1  0
  1 10  1  0
  1 11  1  0
  1 12  1  0
  2 13  1  0
  3 14  1  0
  3 15  1  0
  4 16  1  0
  5 17  1  0
  5 18  1  0
  7 19  1  0
  7 20  1  0
  8 21  1  0
  9 22  1  0
  9 23  1  0
M  END
