
     RDKit          3D

 19 20  0  0  0  0  0  0  0  0999 V2000
   -2.2347   -0.0736   -0.3485 C   0  0  0  0  0  0  0  0  0  0  0  0
   -0.9820    0.4695    0.2784 C   0  0  0  0  0  0  0  0  0  0  0  0
   -0.2983   -0.4633    1.2623 C   0  0  0  0  0  0  0  0  0  0  0  0
    0.3809   -1.1018    0.0424 C   0  0  0  0  0  0  0  0  0  0  0  0
    1.7651   -1.2647    0.2229 O   0  0  0  0  0  0  0  0  0  0  0  0
    2.4520   -0.1130   -0.1761 C   0  0  0  0  0  0  0  0  0  0  0  0
    3.6849   -0.0360   -0.4045 O   0  0  0  0  0  0  0  0  0  0  0  0
    1.4505    0.9766   -0.2731 C   0  0  0  0  0  0  0  0  0  0  0  0
    0.1953    0.2590   -0.6336 C   0  0  0  0  0  0  0  0  0  0  0  0
   -2.9039    0.7937   -0.6120 H   0  0  0  0  0  0  0  0  0  0  0  0
   -2.0384   -0.5780   -1.3348 H   0  0  0  0  0  0  0  0  0  0  0  0
   -2.7789   -0.7889    0.2656 H   0  0  0  0  0  0  0  0  0  0  0  0
   -1.0902    1.5163    0.6233 H   0  0  0  0  0  0  0  0  0  0  0  0
    0.4396    0.1038    1.8452 H   0  0  0  0  0  0  0  0  0  0  0  0
   -0.9365   -1.1744    1.7796 H   0  0  0  0  0  0  0  0  0  0  0  0
   -0.1698   -1.9241   -0.4074 H   0  0  0  0  0  0  0  0  0  0  0  0
    1.7450    1.6399   -1.1169 H   0  0  0  0  0  0  0  0  0  0  0  0
    1.3999    1.5372    0.6743 H   0  0  0  0  0  0  0  0  0  0  0  0
   -0.0806    0.2220   -1.6872 H   0  0  0  0  0  0  0  0  0  0  0  0
  1  2  1  0
  2  3  1  0
  3  4  1  0
  4  5  1  0
  5  6  1  0
  6  7  2  0
  6  8  1  0
  8  9  1  0
  9  2  1  0
  9  4  1  0
  1 10  1  0
  1 11  1  0
  1 12  1  0
  2 13  1  0
  3 14  1  0
  3 15  1  0
  4 16  1  0
  8 17  1  0
  8 18  1  0
  9 19  1  0
M  END
