
     RDKit          3D

 18 18  0  0  0  0  0  0  0  0999 V2000
    2.3046    0.4335   -0.1360 C   0  0  0  0  0  0  0  0  0  0  0  0
    1.1018   -0.4069    0.1040 C   0  0  0  0  0  0  0  0  0  0  0  0
    0.0649   -0.1556   -0.9995 C   0  0  0  0  0  0  0  0  0  0  0  0
   -0.9534   -0.2998    0.1184 C   0  0  0  0  0  0  0  0  0  0  0  0
   -2.1518    0.5787    0.0256 C   0  0  0  0  0  0  0  0  0  0  0  0
   -1.3103   -1.6481    0.2149 O   0  0  0  0  0  0  0  0  0  0  0  0
    0.1031    0.0969    1.0636 C   0  0  0  0  0  0  0  0  0  0  0  0
    0.1265    0.6153    2.1592 O   0  0  0  0  0  0  0  0  0  0  0  0
    2.7263    0.1382   -1.1406 H   0  0  0  0  0  0  0  0  0  0  0  0
    1.9921    1.4944   -0.2270 H   0  0  0  0  0  0  0  0  0  0  0  0
    3.1171    0.2699    0.5865 H   0  0  0  0  0  0  0  0  0  0  0  0
    1.3262   -1.4906    0.1807 H   0  0  0  0  0  0  0  0  0  0  0  0
    0.0857   -0.9590   -1.7375 H   0  0  0  0  0  0  0  0  0  0  0  0
    0.0659    0.8819   -1.3635 H   0  0  0  0  0  0  0  0  0  0  0  0
   -2.5046    0.9615    1.0222 H   0  0  0  0  0  0  0  0  0  0  0  0
   -3.0045   -0.0077   -0.3771 H   0  0  0  0  0  0  0  0  0  0  0  0
   -2.0090    1.4733   -0.6295 H   0  0  0  0  0  0  0  0  0  0  0  0
   -1.0807   -1.9759    1.1356 H   0  0  0  0  0  0  0  0  0  0  0  0
  1  2  1  0
  2  3  1  0
  3  4  1  0
  4  5  1  0
  4  6  1  0
  4  7  1  0
  7  8  2  0
  7  2  1  0
  1  9  1  0
  1 10  1  0
  1 11  1  0
  2 12  1  0
  3 13  1  0
  3 14  1  0
  5 15  1  0
  5 16  1  0
  5 17  1  0
  6 18  1  0
M  END
