
     RDKit          3D

 21 23  0  0  0  0  0  0  0  0999 V2000
    2.1846   -0.9530   -0.1091 C   0  0  0  0  0  0  0  0  0  0  0  0
    1.3647    0.2734   -0.4546 C   0  0  0  0  0  0  0  0  0  0  0  0
    1.1808    1.1732    0.6976 C   0  0  0  0  0  0  0  0  0  0  0  0
   -0.0455    1.6426    0.6981 C   0  0  0  0  0  0  0  0  0  0  0  0
   -0.8556    1.1297   -0.4426 C   0  0  0  0  0  0  0  0  0  0  0  0
   -1.9600    0.2415    0.0773 C   0  0  0  0  0  0  0  0  0  0  0  0
   -2.2470   -1.1000   -0.4189 C   0  0  0  0  0  0  0  0  0  0  0  0
   -0.8630   -0.8675    0.0925 C   0  0  0  0  0  0  0  0  0  0  0  0
   -0.0169   -0.0733   -0.8457 C   0  0  0  0  0  0  0  0  0  0  0  0
    1.6504   -1.8998   -0.4010 H   0  0  0  0  0  0  0  0  0  0  0  0
    2.4232   -0.9998    0.9602 H   0  0  0  0  0  0  0  0  0  0  0  0
    3.1380   -0.9122   -0.6833 H   0  0  0  0  0  0  0  0  0  0  0  0
    1.8451    0.8296   -1.2992 H   0  0  0  0  0  0  0  0  0  0  0  0
    1.9940    1.3813    1.4187 H   0  0  0  0  0  0  0  0  0  0  0  0
   -0.4224    2.3292    1.4502 H   0  0  0  0  0  0  0  0  0  0  0  0
   -1.1054    1.8328   -1.2282 H   0  0  0  0  0  0  0  0  0  0  0  0
   -2.3590    0.5458    1.0639 H   0  0  0  0  0  0  0  0  0  0  0  0
   -2.8685   -1.7410    0.2330 H   0  0  0  0  0  0  0  0  0  0  0  0
   -2.3192   -1.2749   -1.5291 H   0  0  0  0  0  0  0  0  0  0  0  0
   -0.5434   -1.1532    1.0863 H   0  0  0  0  0  0  0  0  0  0  0  0
   -0.1748   -0.4045   -1.8950 H   0  0  0  0  0  0  0  0  0  0  0  0
  1  2  1  0
  2  3  1  0
  3  4  2  0
  4  5  1  0
  5  6  1  0
  6  7  1  0
  7  8  1  0
  8  9  1  0
  9  2  1  0
  9  5  1  0
  8  6  1  0
  1 10  1  0
  1 11  1  0
  1 12  1  0
  2 13  1  0
  3 14  1  0
  4 15  1  0
  5 16  1  0
  6 17  1  0
  7 18  1  0
  7 19  1  0
  8 20  1  0
  9 21  1  0
M  END
