
     RDKit          3D

 21 22  0  0  0  0  0  0  0  0999 V2000
   -2.7505    1.1979   -0.4236 C   0  0  0  0  0  0  0  0  0  0  0  0
   -1.9356   -0.1019   -0.3581 C   0  0  0  0  0  0  0  0  0  0  0  0
   -0.8528   -0.1975    0.5279 C   0  0  0  0  0  0  0  0  0  0  0  0
    0.3182   -1.1044    0.6659 C   0  0  0  0  0  0  0  0  0  0  0  0
    1.2591   -0.4002   -0.3339 C   0  0  0  0  0  0  0  0  0  0  0  0
    2.4340    0.2152    0.3527 C   0  0  0  0  0  0  0  0  0  0  0  0
    3.1922    0.8596   -0.6250 O   0  0  0  0  0  0  0  0  0  0  0  0
    0.4528    0.5551   -0.9897 O   0  0  0  0  0  0  0  0  0  0  0  0
   -0.7224   -0.1362   -1.0514 C   0  0  0  0  0  0  0  0  0  0  0  0
   -2.1254    2.0841   -0.3223 H   0  0  0  0  0  0  0  0  0  0  0  0
   -3.3152    1.1632   -1.3904 H   0  0  0  0  0  0  0  0  0  0  0  0
   -3.5298    1.0986    0.3692 H   0  0  0  0  0  0  0  0  0  0  0  0
   -2.6498   -0.9715   -0.4155 H   0  0  0  0  0  0  0  0  0  0  0  0
   -0.5955    0.7708    1.0634 H   0  0  0  0  0  0  0  0  0  0  0  0
    0.0686   -2.1151    0.3324 H   0  0  0  0  0  0  0  0  0  0  0  0
    0.7324   -1.0960    1.6718 H   0  0  0  0  0  0  0  0  0  0  0  0
    1.5712   -1.1312   -1.0961 H   0  0  0  0  0  0  0  0  0  0  0  0
    2.1836    0.8999    1.1613 H   0  0  0  0  0  0  0  0  0  0  0  0
    3.0694   -0.6282    0.7191 H   0  0  0  0  0  0  0  0  0  0  0  0
    3.6862    0.1683   -1.1417 H   0  0  0  0  0  0  0  0  0  0  0  0
   -0.4908   -1.1306   -1.5528 H   0  0  0  0  0  0  0  0  0  0  0  0
  1  2  1  0
  2  3  1  0
  3  4  1  0
  4  5  1  0
  5  6  1  0
  6  7  1  0
  5  8  1  0
  8  9  1  0
  9  2  1  0
  9  3  1  0
  1 10  1  0
  1 11  1  0
  1 12  1  0
  2 13  1  0
  3 14  1  0
  4 15  1  0
  4 16  1  0
  5 17  1  0
  6 18  1  0
  6 19  1  0
  7 20  1  0
  9 21  1  0
M  END
