
     RDKit          3D

 17 18  0  0  0  0  0  0  0  0999 V2000
   -1.7599   -1.2095    0.5782 C   0  0  0  0  0  0  0  0  0  0  0  0
   -1.0678   -0.3396   -0.4431 C   0  0  0  0  0  0  0  0  0  0  0  0
   -1.3227    1.0850   -0.2643 C   0  0  0  0  0  0  0  0  0  0  0  0
   -0.2011    1.7467   -0.0480 C   0  0  0  0  0  0  0  0  0  0  0  0
    0.8925    0.7822   -0.0701 C   0  0  0  0  0  0  0  0  0  0  0  0
    2.2776    0.6226    0.0557 C   0  0  0  0  0  0  0  0  0  0  0  0
    2.5435   -0.7200   -0.1101 C   0  0  0  0  0  0  0  0  0  0  0  0
    1.4054   -1.3292   -0.3206 O   0  0  0  0  0  0  0  0  0  0  0  0
    0.3988   -0.4794   -0.3058 C   0  0  0  0  0  0  0  0  0  0  0  0
   -1.8890   -2.2234    0.1516 H   0  0  0  0  0  0  0  0  0  0  0  0
   -1.2202   -1.1863    1.5269 H   0  0  0  0  0  0  0  0  0  0  0  0
   -2.7996   -0.7956    0.7009 H   0  0  0  0  0  0  0  0  0  0  0  0
   -1.4190   -0.6388   -1.4599 H   0  0  0  0  0  0  0  0  0  0  0  0
   -2.2874    1.6042   -0.2928 H   0  0  0  0  0  0  0  0  0  0  0  0
   -0.0593    2.8139    0.1218 H   0  0  0  0  0  0  0  0  0  0  0  0
    2.9746    1.4435    0.2494 H   0  0  0  0  0  0  0  0  0  0  0  0
    3.5336   -1.1761   -0.0698 H   0  0  0  0  0  0  0  0  0  0  0  0
  1  2  1  0
  2  3  1  0
  3  4  2  0
  4  5  1  0
  5  6  1  0
  6  7  2  0
  7  8  1  0
  8  9  1  0
  9  2  1  0
  9  5  2  0
  1 10  1  0
  1 11  1  0
  1 12  1  0
  2 13  1  0
  3 14  1  0
  4 15  1  0
  6 16  1  0
  7 17  1  0
M  END
