
     RDKit          3D

 16 18  0  0  0  0  0  0  0  0999 V2000
    1.9309   -0.1528   -0.0608 C   0  0  0  0  0  0  0  0  0  0  0  0
    0.5490    0.1438    0.4951 C   0  0  0  0  0  0  0  0  0  0  0  0
   -0.2390   -1.1241    0.4717 C   0  0  0  0  0  0  0  0  0  0  0  0
   -1.2814   -1.5613    1.1078 O   0  0  0  0  0  0  0  0  0  0  0  0
   -1.5955   -0.3716    0.6704 C   0  0  0  0  0  0  0  0  0  0  0  0
   -1.5943    0.2839   -0.6425 C   0  0  0  0  0  0  0  0  0  0  0  0
   -0.6740    0.1340   -1.6286 O   0  0  0  0  0  0  0  0  0  0  0  0
   -0.1863    0.9102   -0.6140 C   0  0  0  0  0  0  0  0  0  0  0  0
    2.3263   -1.0366    0.4525 H   0  0  0  0  0  0  0  0  0  0  0  0
    2.6134    0.6841    0.0925 H   0  0  0  0  0  0  0  0  0  0  0  0
    1.8288   -0.3348   -1.1559 H   0  0  0  0  0  0  0  0  0  0  0  0
    0.5589    0.6784    1.4377 H   0  0  0  0  0  0  0  0  0  0  0  0
   -0.1146   -1.6023   -0.5531 H   0  0  0  0  0  0  0  0  0  0  0  0
   -1.5992    0.3978    1.5055 H   0  0  0  0  0  0  0  0  0  0  0  0
   -2.4424    0.9699   -0.8997 H   0  0  0  0  0  0  0  0  0  0  0  0
   -0.0805    1.9814   -0.6784 H   0  0  0  0  0  0  0  0  0  0  0  0
  1  2  1  0
  2  3  1  0
  3  4  1  0
  4  5  1  0
  5  6  1  0
  6  7  1  0
  7  8  1  0
  8  2  1  0
  5  3  1  0
  8  6  1  0
  1  9  1  0
  1 10  1  0
  1 11  1  0
  2 12  1  0
  3 13  1  0
  5 14  1  0
  6 15  1  0
  8 16  1  0
M  END
