
     RDKit          3D

 23 24  0  0  0  0  0  0  0  0999 V2000
   -2.0061   -1.2517   -0.0597 C   0  0  0  0  0  0  0  0  0  0  0  0
   -1.0997   -0.2278   -0.6516 C   0  0  0  0  0  0  0  0  0  0  0  0
    0.2449   -0.7356   -1.1367 C   0  0  0  0  0  0  0  0  0  0  0  0
    0.9214   -1.6839   -0.2236 C   0  0  0  0  0  0  0  0  0  0  0  0
    0.9065   -0.2439    0.0859 C   0  0  0  0  0  0  0  0  0  0  0  0
    2.2065    0.4733    0.0934 C   0  0  0  0  0  0  0  0  0  0  0  0
   -0.3385    0.4902    0.4594 C   0  0  0  0  0  0  0  0  0  0  0  0
   -0.2462    1.9582    0.1203 C   0  0  0  0  0  0  0  0  0  0  0  0
   -0.7491    0.1915    1.7366 O   0  0  0  0  0  0  0  0  0  0  0  0
   -1.7051   -2.2881   -0.2073 H   0  0  0  0  0  0  0  0  0  0  0  0
   -2.1457   -1.0989    1.0487 H   0  0  0  0  0  0  0  0  0  0  0  0
   -3.0490   -1.1375   -0.4758 H   0  0  0  0  0  0  0  0  0  0  0  0
   -1.6150    0.4421   -1.3638 H   0  0  0  0  0  0  0  0  0  0  0  0
    0.6549   -0.4082   -2.0888 H   0  0  0  0  0  0  0  0  0  0  0  0
    0.2455   -2.3192    0.3999 H   0  0  0  0  0  0  0  0  0  0  0  0
    1.8607   -2.1076   -0.5768 H   0  0  0  0  0  0  0  0  0  0  0  0
    2.2343    1.1068    1.0297 H   0  0  0  0  0  0  0  0  0  0  0  0
    2.3957    1.1333   -0.7531 H   0  0  0  0  0  0  0  0  0  0  0  0
    3.0328   -0.2772    0.2613 H   0  0  0  0  0  0  0  0  0  0  0  0
   -0.3728    2.5237    1.0565 H   0  0  0  0  0  0  0  0  0  0  0  0
    0.7243    2.2305   -0.3267 H   0  0  0  0  0  0  0  0  0  0  0  0
   -1.0222    2.2485   -0.6302 H   0  0  0  0  0  0  0  0  0  0  0  0
   -1.0783    0.9815    2.2023 H   0  0  0  0  0  0  0  0  0  0  0  0
  1  2  1  0
  2  3  1  0
  3  4  1  0
  4  5  1  0
  5  6  1  0
  5  7  1  0
  7  8  1  0
  7  9  1  0
  7  2  1  0
  5  3  1  0
  1 10  1  0
  1 11  1  0
  1 12  1  0
  2 13  1  0
  3 14  1  0
  4 15  1  0
  4 16  1  0
  6 17  1  0
  6 18  1  0
  6 19  1  0
  8 20  1  0
  8 21  1  0
  8 22  1  0
  9 23  1  0
M  END
