
     RDKit          3D

 21 22  0  0  0  0  0  0  0  0999 V2000
   -2.8563    0.5374   -0.3429 C   0  0  0  0  0  0  0  0  0  0  0  0
   -1.4444    0.0569   -0.5826 C   0  0  0  0  0  0  0  0  0  0  0  0
   -1.0417   -1.0711    0.3162 C   0  0  0  0  0  0  0  0  0  0  0  0
    0.4045   -0.7575    0.6112 C   0  0  0  0  0  0  0  0  0  0  0  0
    1.2065   -1.2693   -0.4169 O   0  0  0  0  0  0  0  0  0  0  0  0
    1.5237    0.0120   -0.8419 C   0  0  0  0  0  0  0  0  0  0  0  0
    2.9490    0.3385   -0.4994 C   0  0  0  0  0  0  0  0  0  0  0  0
    0.5833    0.6481    0.1477 C   0  0  0  0  0  0  0  0  0  0  0  0
   -0.5906    1.1063   -0.3737 O   0  0  0  0  0  0  0  0  0  0  0  0
   -3.0389    0.7953    0.7275 H   0  0  0  0  0  0  0  0  0  0  0  0
   -3.6201   -0.1188   -0.7692 H   0  0  0  0  0  0  0  0  0  0  0  0
   -2.9408    1.5238   -0.8868 H   0  0  0  0  0  0  0  0  0  0  0  0
   -1.3803   -0.2521   -1.6401 H   0  0  0  0  0  0  0  0  0  0  0  0
   -1.0885   -2.0706   -0.1947 H   0  0  0  0  0  0  0  0  0  0  0  0
   -1.6087   -1.1415    1.2471 H   0  0  0  0  0  0  0  0  0  0  0  0
    0.7511   -0.9859    1.6280 H   0  0  0  0  0  0  0  0  0  0  0  0
    1.2153    0.1753   -1.8837 H   0  0  0  0  0  0  0  0  0  0  0  0
    3.5764   -0.0130   -1.3527 H   0  0  0  0  0  0  0  0  0  0  0  0
    3.2753   -0.2645    0.3845 H   0  0  0  0  0  0  0  0  0  0  0  0
    3.0802    1.4297   -0.3045 H   0  0  0  0  0  0  0  0  0  0  0  0
    1.0448    1.3207    0.8944 H   0  0  0  0  0  0  0  0  0  0  0  0
  1  2  1  0
  2  3  1  0
  3  4  1  0
  4  5  1  0
  5  6  1  0
  6  7  1  0
  6  8  1  0
  8  9  1  0
  9  2  1  0
  8  4  1  0
  1 10  1  0
  1 11  1  0
  1 12  1  0
  2 13  1  0
  3 14  1  0
  3 15  1  0
  4 16  1  0
  6 17  1  0
  7 18  1  0
  7 19  1  0
  7 20  1  0
  8 21  1  0
M  END
