
     RDKit          3D

 23 25  0  0  0  0  0  0  0  0999 V2000
    2.6885   -0.7503    0.2580 C   0  0  0  0  0  0  0  0  0  0  0  0
    1.4943   -0.2100   -0.4914 C   0  0  0  0  0  0  0  0  0  0  0  0
    1.1116    1.1950   -0.0801 C   0  0  0  0  0  0  0  0  0  0  0  0
    0.2387   -0.0621    0.1279 C   0  0  0  0  0  0  0  0  0  0  0  0
   -0.2166   -0.2552    1.5058 C   0  0  0  0  0  0  0  0  0  0  0  0
   -1.4693    0.5306    1.0710 C   0  0  0  0  0  0  0  0  0  0  0  0
   -1.1160    0.0233   -0.3111 C   0  0  0  0  0  0  0  0  0  0  0  0
   -1.9379   -0.9675   -0.9889 C   0  0  0  0  0  0  0  0  0  0  0  0
   -1.7184    0.4772   -1.5262 C   0  0  0  0  0  0  0  0  0  0  0  0
    2.3995   -1.3728    1.1127 H   0  0  0  0  0  0  0  0  0  0  0  0
    3.3625   -1.3418   -0.3905 H   0  0  0  0  0  0  0  0  0  0  0  0
    3.3177    0.0824    0.6641 H   0  0  0  0  0  0  0  0  0  0  0  0
    1.5562   -0.3594   -1.5808 H   0  0  0  0  0  0  0  0  0  0  0  0
    1.5726    1.6482    0.8112 H   0  0  0  0  0  0  0  0  0  0  0  0
    0.7787    1.9193   -0.8372 H   0  0  0  0  0  0  0  0  0  0  0  0
   -0.5504   -1.3064    1.6971 H   0  0  0  0  0  0  0  0  0  0  0  0
    0.3270    0.2032    2.3299 H   0  0  0  0  0  0  0  0  0  0  0  0
   -1.2383    1.6090    1.1724 H   0  0  0  0  0  0  0  0  0  0  0  0
   -2.3967    0.1664    1.5029 H   0  0  0  0  0  0  0  0  0  0  0  0
   -1.4815   -1.7718   -1.5660 H   0  0  0  0  0  0  0  0  0  0  0  0
   -2.9592   -1.1460   -0.5405 H   0  0  0  0  0  0  0  0  0  0  0  0
   -2.6097    1.1358   -1.4721 H   0  0  0  0  0  0  0  0  0  0  0  0
   -1.1533    0.5527   -2.4683 H   0  0  0  0  0  0  0  0  0  0  0  0
  1  2  1  0
  2  3  1  0
  3  4  1  0
  4  5  1  0
  5  6  1  0
  6  7  1  0
  7  8  1  0
  8  9  1  0
  4  2  1  0
  9  7  1  0
  7  4  1  0
  1 10  1  0
  1 11  1  0
  1 12  1  0
  2 13  1  0
  3 14  1  0
  3 15  1  0
  5 16  1  0
  5 17  1  0
  6 18  1  0
  6 19  1  0
  8 20  1  0
  8 21  1  0
  9 22  1  0
  9 23  1  0
M  END
