
     RDKit          3D

 25 25  0  0  0  0  0  0  0  0999 V2000
    2.9691   -0.2305   -1.0119 C   0  0  0  0  0  0  0  0  0  0  0  0
    2.0202   -0.0628    0.1374 C   0  0  0  0  0  0  0  0  0  0  0  0
    0.8606    0.9076   -0.1394 C   0  0  0  0  0  0  0  0  0  0  0  0
    0.0357   -0.0076    0.7452 C   0  0  0  0  0  0  0  0  0  0  0  0
   -1.4106   -0.1148    0.3725 C   0  0  0  0  0  0  0  0  0  0  0  0
   -2.0888    1.2258    0.4324 C   0  0  0  0  0  0  0  0  0  0  0  0
   -1.6446   -0.7507   -0.9595 C   0  0  0  0  0  0  0  0  0  0  0  0
   -3.0438   -0.7748   -1.1578 O   0  0  0  0  0  0  0  0  0  0  0  0
    0.9232   -1.1358    0.1956 C   0  0  0  0  0  0  0  0  0  0  0  0
    3.6427    0.6273   -1.0311 H   0  0  0  0  0  0  0  0  0  0  0  0
    3.5584   -1.1611   -0.8121 H   0  0  0  0  0  0  0  0  0  0  0  0
    2.4605   -0.3830   -1.9648 H   0  0  0  0  0  0  0  0  0  0  0  0
    2.5133    0.0748    1.0982 H   0  0  0  0  0  0  0  0  0  0  0  0
    0.5956    0.8956   -1.2070 H   0  0  0  0  0  0  0  0  0  0  0  0
    1.0377    1.9188    0.2520 H   0  0  0  0  0  0  0  0  0  0  0  0
    0.2355    0.1850    1.7984 H   0  0  0  0  0  0  0  0  0  0  0  0
   -1.8841   -0.7875    1.1395 H   0  0  0  0  0  0  0  0  0  0  0  0
   -2.0740    1.6753   -0.5892 H   0  0  0  0  0  0  0  0  0  0  0  0
   -3.1031    1.1522    0.8462 H   0  0  0  0  0  0  0  0  0  0  0  0
   -1.5236    1.9259    1.0762 H   0  0  0  0  0  0  0  0  0  0  0  0
   -1.1394   -0.1817   -1.7428 H   0  0  0  0  0  0  0  0  0  0  0  0
   -1.3510   -1.8348   -0.9561 H   0  0  0  0  0  0  0  0  0  0  0  0
   -3.3350    0.1630   -1.1472 H   0  0  0  0  0  0  0  0  0  0  0  0
    1.1156   -1.9470    0.8966 H   0  0  0  0  0  0  0  0  0  0  0  0
    0.6299   -1.3791   -0.8257 H   0  0  0  0  0  0  0  0  0  0  0  0
  1  2  1  0
  2  3  1  0
  3  4  1  0
  4  5  1  0
  5  6  1  0
  5  7  1  0
  7  8  1  0
  4  9  1  0
  9  2  1  0
  1 10  1  0
  1 11  1  0
  1 12  1  0
  2 13  1  0
  3 14  1  0
  3 15  1  0
  4 16  1  0
  5 17  1  0
  6 18  1  0
  6 19  1  0
  6 20  1  0
  7 21  1  0
  7 22  1  0
  8 23  1  0
  9 24  1  0
  9 25  1  0
M  END
