
     RDKit          3D

 17 18  0  0  0  0  0  0  0  0999 V2000
   -1.8652    0.5101   -0.7640 C   0  0  0  0  0  0  0  0  0  0  0  0
   -0.9289   -0.4342   -0.1068 C   0  0  0  0  0  0  0  0  0  0  0  0
    0.0206    0.0974    0.9055 C   0  0  0  0  0  0  0  0  0  0  0  0
   -0.1559   -0.3569    2.2154 O   0  0  0  0  0  0  0  0  0  0  0  0
    1.1881   -0.5252    0.2033 C   0  0  0  0  0  0  0  0  0  0  0  0
    2.4230    0.2065   -0.0369 C   0  0  0  0  0  0  0  0  0  0  0  0
    3.2924   -0.2372   -0.7505 O   0  0  0  0  0  0  0  0  0  0  0  0
    1.0628   -1.7529   -0.4265 O   0  0  0  0  0  0  0  0  0  0  0  0
    0.2448   -0.7977   -0.9756 C   0  0  0  0  0  0  0  0  0  0  0  0
   -2.8031    0.5591   -0.1384 H   0  0  0  0  0  0  0  0  0  0  0  0
   -2.2024    0.0575   -1.7333 H   0  0  0  0  0  0  0  0  0  0  0  0
   -1.4753    1.5124   -0.9362 H   0  0  0  0  0  0  0  0  0  0  0  0
   -1.4852   -1.3143    0.3031 H   0  0  0  0  0  0  0  0  0  0  0  0
    0.1474    1.2129    0.9208 H   0  0  0  0  0  0  0  0  0  0  0  0
   -0.5285    0.3606    2.7856 H   0  0  0  0  0  0  0  0  0  0  0  0
    2.5887    1.1669    0.4205 H   0  0  0  0  0  0  0  0  0  0  0  0
    0.4767   -0.2649   -1.8861 H   0  0  0  0  0  0  0  0  0  0  0  0
  1  2  1  0
  2  3  1  0
  3  4  1  0
  3  5  1  0
  5  6  1  0
  6  7  2  0
  5  8  1  0
  8  9  1  0
  9  2  1  0
  9  5  1  0
  1 10  1  0
  1 11  1  0
  1 12  1  0
  2 13  1  0
  3 14  1  0
  4 15  1  0
  6 16  1  0
  9 17  1  0
M  END
