
     RDKit          3D

 21 22  0  0  0  0  0  0  0  0999 V2000
    2.1519   -0.0264   -0.5613 C   0  0  0  0  0  0  0  0  0  0  0  0
    0.7072   -0.3531   -0.7008 C   0  0  0  0  0  0  0  0  0  0  0  0
    0.2434   -0.9283    0.6507 C   0  0  0  0  0  0  0  0  0  0  0  0
    0.4531    0.3035    1.4955 C   0  0  0  0  0  0  0  0  0  0  0  0
    0.3016    1.3896    0.7390 C   0  0  0  0  0  0  0  0  0  0  0  0
   -0.1858    0.8935   -0.5764 C   0  0  0  0  0  0  0  0  0  0  0  0
   -1.5210    0.2470   -0.3247 C   0  0  0  0  0  0  0  0  0  0  0  0
   -2.3070    0.1176   -1.4332 O   0  0  0  0  0  0  0  0  0  0  0  0
   -1.2095   -1.0861    0.3507 C   0  0  0  0  0  0  0  0  0  0  0  0
    2.2446    0.7061    0.2917 H   0  0  0  0  0  0  0  0  0  0  0  0
    2.6538    0.3132   -1.4642 H   0  0  0  0  0  0  0  0  0  0  0  0
    2.6682   -0.9525   -0.1766 H   0  0  0  0  0  0  0  0  0  0  0  0
    0.4346   -0.9813   -1.5357 H   0  0  0  0  0  0  0  0  0  0  0  0
    0.7860   -1.7858    0.9678 H   0  0  0  0  0  0  0  0  0  0  0  0
    0.6907    0.3595    2.5516 H   0  0  0  0  0  0  0  0  0  0  0  0
    0.4701    2.4385    0.9481 H   0  0  0  0  0  0  0  0  0  0  0  0
   -0.1180    1.5665   -1.3937 H   0  0  0  0  0  0  0  0  0  0  0  0
   -2.0499    0.8518    0.4624 H   0  0  0  0  0  0  0  0  0  0  0  0
   -3.2614    0.0510   -1.1131 H   0  0  0  0  0  0  0  0  0  0  0  0
   -1.8018   -1.2542    1.2502 H   0  0  0  0  0  0  0  0  0  0  0  0
   -1.3509   -1.8700   -0.4279 H   0  0  0  0  0  0  0  0  0  0  0  0
  1  2  1  0
  2  3  1  0
  3  4  1  0
  4  5  2  0
  5  6  1  0
  6  7  1  0
  7  8  1  0
  7  9  1  0
  6  2  1  0
  9  3  1  0
  1 10  1  0
  1 11  1  0
  1 12  1  0
  2 13  1  0
  3 14  1  0
  4 15  1  0
  5 16  1  0
  6 17  1  0
  7 18  1  0
  8 19  1  0
  9 20  1  0
  9 21  1  0
M  END
