
     RDKit          3D

 23 24  0  0  0  0  0  0  0  0999 V2000
   -2.3335   -0.9004    0.3921 C   0  0  0  0  0  0  0  0  0  0  0  0
   -1.0906   -0.3343   -0.1803 C   0  0  0  0  0  0  0  0  0  0  0  0
    0.1247   -1.2501    0.0055 C   0  0  0  0  0  0  0  0  0  0  0  0
    1.2258   -0.3246   -0.4982 C   0  0  0  0  0  0  0  0  0  0  0  0
    2.5933   -0.8111   -0.1186 C   0  0  0  0  0  0  0  0  0  0  0  0
    0.8479    0.9790    0.1193 C   0  0  0  0  0  0  0  0  0  0  0  0
    0.5418    1.9515   -0.8299 O   0  0  0  0  0  0  0  0  0  0  0  0
   -0.7214    2.1873   -0.2649 C   0  0  0  0  0  0  0  0  0  0  0  0
   -0.6002    0.9153    0.5097 C   0  0  0  0  0  0  0  0  0  0  0  0
   -2.3560   -2.0119    0.2138 H   0  0  0  0  0  0  0  0  0  0  0  0
   -2.5592   -0.6271    1.4236 H   0  0  0  0  0  0  0  0  0  0  0  0
   -3.1973   -0.5158   -0.2258 H   0  0  0  0  0  0  0  0  0  0  0  0
   -1.1629   -0.0959   -1.2626 H   0  0  0  0  0  0  0  0  0  0  0  0
    0.0427   -2.1718   -0.5755 H   0  0  0  0  0  0  0  0  0  0  0  0
    0.2132   -1.4109    1.1044 H   0  0  0  0  0  0  0  0  0  0  0  0
    1.1625   -0.3329   -1.6039 H   0  0  0  0  0  0  0  0  0  0  0  0
    3.3326   -0.1541   -0.5740 H   0  0  0  0  0  0  0  0  0  0  0  0
    2.7423   -0.7950    0.9857 H   0  0  0  0  0  0  0  0  0  0  0  0
    2.7157   -1.8297   -0.5499 H   0  0  0  0  0  0  0  0  0  0  0  0
    1.5589    1.3009    0.8889 H   0  0  0  0  0  0  0  0  0  0  0  0
   -1.5596    2.1782   -0.9818 H   0  0  0  0  0  0  0  0  0  0  0  0
   -0.6969    3.0603    0.4358 H   0  0  0  0  0  0  0  0  0  0  0  0
   -0.8236    0.9931    1.5868 H   0  0  0  0  0  0  0  0  0  0  0  0
  1  2  1  0
  2  3  1  0
  3  4  1  0
  4  5  1  0
  4  6  1  0
  6  7  1  0
  7  8  1  0
  8  9  1  0
  9  2  1  0
  9  6  1  0
  1 10  1  0
  1 11  1  0
  1 12  1  0
  2 13  1  0
  3 14  1  0
  3 15  1  0
  4 16  1  0
  5 17  1  0
  5 18  1  0
  5 19  1  0
  6 20  1  0
  8 21  1  0
  8 22  1  0
  9 23  1  0
M  END
