
     RDKit          3D

 23 23  0  0  0  0  0  0  0  0999 V2000
    2.4390   -0.8377    0.6753 C   0  0  0  0  0  0  0  0  0  0  0  0
    1.1805    0.0024    0.7700 C   0  0  0  0  0  0  0  0  0  0  0  0
    1.1739    1.2632   -0.1039 C   0  0  0  0  0  0  0  0  0  0  0  0
    0.3094    0.1152   -0.4246 C   0  0  0  0  0  0  0  0  0  0  0  0
    0.7347   -0.6524   -1.5277 O   0  0  0  0  0  0  0  0  0  0  0  0
   -1.1843    0.1683   -0.3090 C   0  0  0  0  0  0  0  0  0  0  0  0
   -1.6844    0.9545    0.8503 C   0  0  0  0  0  0  0  0  0  0  0  0
   -1.7910   -1.2190   -0.2344 C   0  0  0  0  0  0  0  0  0  0  0  0
   -1.6661    0.7517   -1.4996 O   0  0  0  0  0  0  0  0  0  0  0  0
    2.2153   -1.8754    1.0462 H   0  0  0  0  0  0  0  0  0  0  0  0
    2.7376   -0.9234   -0.4093 H   0  0  0  0  0  0  0  0  0  0  0  0
    3.2973   -0.3828    1.1840 H   0  0  0  0  0  0  0  0  0  0  0  0
    0.7822    0.1267    1.7938 H   0  0  0  0  0  0  0  0  0  0  0  0
    0.7892    2.1959    0.3606 H   0  0  0  0  0  0  0  0  0  0  0  0
    2.1094    1.4559   -0.6887 H   0  0  0  0  0  0  0  0  0  0  0  0
    1.4940   -0.2288   -1.9933 H   0  0  0  0  0  0  0  0  0  0  0  0
   -2.7065    1.3478    0.5712 H   0  0  0  0  0  0  0  0  0  0  0  0
   -1.8710    0.3292    1.7577 H   0  0  0  0  0  0  0  0  0  0  0  0
   -1.0875    1.8554    1.0837 H   0  0  0  0  0  0  0  0  0  0  0  0
   -1.6228   -1.7438   -1.1836 H   0  0  0  0  0  0  0  0  0  0  0  0
   -1.4342   -1.7804    0.6503 H   0  0  0  0  0  0  0  0  0  0  0  0
   -2.8964   -1.0877   -0.1268 H   0  0  0  0  0  0  0  0  0  0  0  0
   -1.3183    0.1652   -2.2425 H   0  0  0  0  0  0  0  0  0  0  0  0
  1  2  1  0
  2  3  1  0
  3  4  1  0
  4  5  1  0
  4  6  1  0
  6  7  1  0
  6  8  1  0
  6  9  1  0
  4  2  1  0
  1 10  1  0
  1 11  1  0
  1 12  1  0
  2 13  1  0
  3 14  1  0
  3 15  1  0
  5 16  1  0
  7 17  1  0
  7 18  1  0
  7 19  1  0
  8 20  1  0
  8 21  1  0
  8 22  1  0
  9 23  1  0
M  END
