
     RDKit          3D

 21 21  0  0  0  0  0  0  0  0999 V2000
   -2.1397   -0.3746    0.3479 C   0  0  0  0  0  0  0  0  0  0  0  0
   -1.1831   -0.1905   -0.7991 C   0  0  0  0  0  0  0  0  0  0  0  0
   -0.6059    1.2100   -0.7347 C   0  0  0  0  0  0  0  0  0  0  0  0
    0.7109    1.2716   -1.1173 O   0  0  0  0  0  0  0  0  0  0  0  0
    1.4906    1.4821    0.0291 C   0  0  0  0  0  0  0  0  0  0  0  0
    2.1094    0.1939    0.4280 C   0  0  0  0  0  0  0  0  0  0  0  0
    1.6470   -1.0461    0.4504 C   0  0  0  0  0  0  0  0  0  0  0  0
    0.3389   -1.7100    0.0999 C   0  0  0  0  0  0  0  0  0  0  0  0
   -0.2717   -1.1695   -0.9698 O   0  0  0  0  0  0  0  0  0  0  0  0
   -2.8415   -1.2331    0.1732 H   0  0  0  0  0  0  0  0  0  0  0  0
   -1.6757   -0.3823    1.3308 H   0  0  0  0  0  0  0  0  0  0  0  0
   -2.8159    0.5323    0.3331 H   0  0  0  0  0  0  0  0  0  0  0  0
   -1.8406   -0.1970   -1.7217 H   0  0  0  0  0  0  0  0  0  0  0  0
   -0.7341    1.5958    0.3127 H   0  0  0  0  0  0  0  0  0  0  0  0
   -1.1776    1.9290   -1.3702 H   0  0  0  0  0  0  0  0  0  0  0  0
    0.8359    1.7894    0.8921 H   0  0  0  0  0  0  0  0  0  0  0  0
    2.2056    2.2920   -0.1154 H   0  0  0  0  0  0  0  0  0  0  0  0
    3.1310    0.2883    0.7634 H   0  0  0  0  0  0  0  0  0  0  0  0
    2.4086   -1.7241    0.8093 H   0  0  0  0  0  0  0  0  0  0  0  0
   -0.2301   -1.7895    1.0264 H   0  0  0  0  0  0  0  0  0  0  0  0
    0.6379   -2.7677   -0.1680 H   0  0  0  0  0  0  0  0  0  0  0  0
  1  2  1  0
  2  3  1  0
  3  4  1  0
  4  5  1  0
  5  6  1  0
  6  7  2  3
  7  8  1  0
  8  9  1  0
  9  2  1  0
  1 10  1  0
  1 11  1  0
  1 12  1  0
  2 13  1  0
  3 14  1  0
  3 15  1  0
  5 16  1  0
  5 17  1  0
  6 18  1  0
  7 19  1  0
  8 20  1  0
  8 21  1  0
M  END
