
     RDKit          3D

 25 25  0  0  0  0  0  0  0  0999 V2000
   -2.0098    1.3024   -0.5113 C   0  0  0  0  0  0  0  0  0  0  0  0
   -1.9390   -0.1789   -0.6015 C   0  0  0  0  0  0  0  0  0  0  0  0
   -2.2096   -0.8154    0.7907 C   0  0  0  0  0  0  0  0  0  0  0  0
   -0.9745   -1.0968   -0.0804 C   0  0  0  0  0  0  0  0  0  0  0  0
    0.3227   -0.8974    0.5656 C   0  0  0  0  0  0  0  0  0  0  0  0
    1.4252   -0.2312   -0.1637 C   0  0  0  0  0  0  0  0  0  0  0  0
    2.6128   -0.2192    0.8275 C   0  0  0  0  0  0  0  0  0  0  0  0
    1.2105    1.2216   -0.5018 C   0  0  0  0  0  0  0  0  0  0  0  0
    1.8661   -0.9545   -1.2750 O   0  0  0  0  0  0  0  0  0  0  0  0
   -1.5483    1.8358   -1.3339 H   0  0  0  0  0  0  0  0  0  0  0  0
   -1.6323    1.7029    0.4656 H   0  0  0  0  0  0  0  0  0  0  0  0
   -3.1188    1.5519   -0.4626 H   0  0  0  0  0  0  0  0  0  0  0  0
   -2.6211   -0.5518   -1.4335 H   0  0  0  0  0  0  0  0  0  0  0  0
   -2.0801   -0.1988    1.6820 H   0  0  0  0  0  0  0  0  0  0  0  0
   -3.0355   -1.5627    0.7841 H   0  0  0  0  0  0  0  0  0  0  0  0
   -1.0395   -2.1501   -0.5505 H   0  0  0  0  0  0  0  0  0  0  0  0
    0.7317   -1.9113    0.8727 H   0  0  0  0  0  0  0  0  0  0  0  0
    0.2278   -0.3891    1.5661 H   0  0  0  0  0  0  0  0  0  0  0  0
    2.2538   -0.0900    1.8611 H   0  0  0  0  0  0  0  0  0  0  0  0
    3.3026    0.6009    0.6025 H   0  0  0  0  0  0  0  0  0  0  0  0
    3.1714   -1.1692    0.7438 H   0  0  0  0  0  0  0  0  0  0  0  0
    0.7215    1.7264    0.3216 H   0  0  0  0  0  0  0  0  0  0  0  0
    2.2167    1.7496   -0.6016 H   0  0  0  0  0  0  0  0  0  0  0  0
    0.7428    1.3401   -1.4948 H   0  0  0  0  0  0  0  0  0  0  0  0
    1.4028   -0.6151   -2.0729 H   0  0  0  0  0  0  0  0  0  0  0  0
  1  2  1  0
  2  3  1  0
  3  4  1  0
  4  5  1  0
  5  6  1  0
  6  7  1  0
  6  8  1  0
  6  9  1  0
  4  2  1  0
  1 10  1  0
  1 11  1  0
  1 12  1  0
  2 13  1  0
  3 14  1  0
  3 15  1  0
  4 16  1  0
  5 17  1  0
  5 18  1  0
  7 19  1  0
  7 20  1  0
  7 21  1  0
  8 22  1  0
  8 23  1  0
  8 24  1  0
  9 25  1  0
M  END
