
     RDKit          3D

 23 24  0  0  0  0  0  0  0  0999 V2000
   -2.0794   -0.8994    0.7221 C   0  0  0  0  0  0  0  0  0  0  0  0
   -1.2132   -0.3015   -0.3227 C   0  0  0  0  0  0  0  0  0  0  0  0
   -1.5802    1.1604   -0.6179 C   0  0  0  0  0  0  0  0  0  0  0  0
   -0.0720    1.4080   -0.7565 C   0  0  0  0  0  0  0  0  0  0  0  0
    0.1425    0.1222   -0.0117 C   0  0  0  0  0  0  0  0  0  0  0  0
    1.3587   -0.6645   -0.0791 C   0  0  0  0  0  0  0  0  0  0  0  0
    2.5216   -0.0772   -0.8377 C   0  0  0  0  0  0  0  0  0  0  0  0
    0.8976   -0.0123    1.2020 C   0  0  0  0  0  0  0  0  0  0  0  0
    0.5444   -0.7838    2.2888 O   0  0  0  0  0  0  0  0  0  0  0  0
   -3.1352   -0.9230    0.3196 H   0  0  0  0  0  0  0  0  0  0  0  0
   -2.1146   -0.3255    1.6532 H   0  0  0  0  0  0  0  0  0  0  0  0
   -1.8063   -1.9673    0.8548 H   0  0  0  0  0  0  0  0  0  0  0  0
   -1.2686   -0.9186   -1.2658 H   0  0  0  0  0  0  0  0  0  0  0  0
   -2.1456    1.2386   -1.5461 H   0  0  0  0  0  0  0  0  0  0  0  0
   -2.0236    1.6395    0.2691 H   0  0  0  0  0  0  0  0  0  0  0  0
    0.3048    1.3492   -1.7848 H   0  0  0  0  0  0  0  0  0  0  0  0
    0.1885    2.3391   -0.2072 H   0  0  0  0  0  0  0  0  0  0  0  0
    1.3027   -1.7780   -0.1743 H   0  0  0  0  0  0  0  0  0  0  0  0
    2.7738    0.9491   -0.5399 H   0  0  0  0  0  0  0  0  0  0  0  0
    3.4178   -0.7172   -0.8382 H   0  0  0  0  0  0  0  0  0  0  0  0
    2.1937   -0.0153   -1.9120 H   0  0  0  0  0  0  0  0  0  0  0  0
    1.5615    0.8545    1.4944 H   0  0  0  0  0  0  0  0  0  0  0  0
    0.2310   -1.6769    2.0899 H   0  0  0  0  0  0  0  0  0  0  0  0
  1  2  1  0
  2  3  1  0
  3  4  1  0
  4  5  1  0
  5  6  1  0
  6  7  1  0
  6  8  1  0
  8  9  1  0
  5  2  1  0
  8  5  1  0
  1 10  1  0
  1 11  1  0
  1 12  1  0
  2 13  1  0
  3 14  1  0
  3 15  1  0
  4 16  1  0
  4 17  1  0
  6 18  1  0
  7 19  1  0
  7 20  1  0
  7 21  1  0
  8 22  1  0
  9 23  1  0
M  END
