
     RDKit          3D

 17 18  0  0  0  0  0  0  0  0999 V2000
   -1.7486   -0.3035    0.0931 C   0  0  0  0  0  0  0  0  0  0  0  0
   -0.4453    0.3929    0.3064 C   0  0  0  0  0  0  0  0  0  0  0  0
   -0.3019    1.6699   -0.4785 C   0  0  0  0  0  0  0  0  0  0  0  0
    0.7471    1.3675   -1.4057 O   0  0  0  0  0  0  0  0  0  0  0  0
    1.6160    0.4390   -0.7991 C   0  0  0  0  0  0  0  0  0  0  0  0
    2.8739    0.4066   -0.8528 O   0  0  0  0  0  0  0  0  0  0  0  0
    0.7129   -0.4882   -0.0852 C   0  0  0  0  0  0  0  0  0  0  0  0
    1.0905   -1.5930    0.6974 C   0  0  0  0  0  0  0  0  0  0  0  0
    0.5033   -1.7601   -0.5434 O   0  0  0  0  0  0  0  0  0  0  0  0
   -2.0661   -0.8376    1.0225 H   0  0  0  0  0  0  0  0  0  0  0  0
   -2.5378    0.4550   -0.1676 H   0  0  0  0  0  0  0  0  0  0  0  0
   -1.6337   -1.0340   -0.7101 H   0  0  0  0  0  0  0  0  0  0  0  0
   -0.3359    0.5733    1.4164 H   0  0  0  0  0  0  0  0  0  0  0  0
    0.1052    2.5074    0.1454 H   0  0  0  0  0  0  0  0  0  0  0  0
   -1.2086    1.9940   -0.9861 H   0  0  0  0  0  0  0  0  0  0  0  0
    0.4583   -1.9446    1.5365 H   0  0  0  0  0  0  0  0  0  0  0  0
    2.1706   -1.8445    0.8393 H   0  0  0  0  0  0  0  0  0  0  0  0
  1  2  1  0
  2  3  1  0
  3  4  1  0
  4  5  1  0
  5  6  2  0
  5  7  1  0
  7  8  1  0
  8  9  1  0
  7  2  1  0
  9  7  1  0
  1 10  1  0
  1 11  1  0
  1 12  1  0
  2 13  1  0
  3 14  1  0
  3 15  1  0
  8 16  1  0
  8 17  1  0
M  END
