
     RDKit          3D

 21 22  0  0  0  0  0  0  0  0999 V2000
    2.5676   -0.6302   -0.4527 C   0  0  0  0  0  0  0  0  0  0  0  0
    1.1390   -0.4738   -0.0263 C   0  0  0  0  0  0  0  0  0  0  0  0
    0.9192    0.8373    0.7374 C   0  0  0  0  0  0  0  0  0  0  0  0
   -0.6117    0.7851    0.8001 C   0  0  0  0  0  0  0  0  0  0  0  0
   -1.2484    1.9098    0.3515 O   0  0  0  0  0  0  0  0  0  0  0  0
   -1.6480    1.2510   -0.8297 C   0  0  0  0  0  0  0  0  0  0  0  0
   -0.9214    0.0024   -0.4486 C   0  0  0  0  0  0  0  0  0  0  0  0
   -1.7448   -1.2326   -0.2586 C   0  0  0  0  0  0  0  0  0  0  0  0
    0.2710   -0.2524   -1.0931 O   0  0  0  0  0  0  0  0  0  0  0  0
    2.6429   -1.4967   -1.1073 H   0  0  0  0  0  0  0  0  0  0  0  0
    3.1786   -0.7370    0.4567 H   0  0  0  0  0  0  0  0  0  0  0  0
    2.8805    0.3145   -0.9480 H   0  0  0  0  0  0  0  0  0  0  0  0
    0.7696   -1.2711    0.6294 H   0  0  0  0  0  0  0  0  0  0  0  0
    1.2438    1.6388    0.0783 H   0  0  0  0  0  0  0  0  0  0  0  0
    1.3709    0.8118    1.7263 H   0  0  0  0  0  0  0  0  0  0  0  0
   -0.9593    0.3436    1.7506 H   0  0  0  0  0  0  0  0  0  0  0  0
   -2.7489    1.1570   -0.8481 H   0  0  0  0  0  0  0  0  0  0  0  0
   -1.2701    1.7659   -1.7143 H   0  0  0  0  0  0  0  0  0  0  0  0
   -1.2753   -2.0877   -0.7887 H   0  0  0  0  0  0  0  0  0  0  0  0
   -2.7471   -1.0996   -0.7231 H   0  0  0  0  0  0  0  0  0  0  0  0
   -1.8081   -1.5362    0.8078 H   0  0  0  0  0  0  0  0  0  0  0  0
  1  2  1  0
  2  3  1  0
  3  4  1  0
  4  5  1  0
  5  6  1  0
  6  7  1  0
  7  8  1  0
  7  9  1  0
  9  2  1  0
  7  4  1  0
  1 10  1  0
  1 11  1  0
  1 12  1  0
  2 13  1  0
  3 14  1  0
  3 15  1  0
  4 16  1  0
  6 17  1  0
  6 18  1  0
  8 19  1  0
  8 20  1  0
  8 21  1  0
M  END
