
     RDKit          3D

 20 20  0  0  0  0  0  0  0  0999 V2000
   -0.7111    2.0421    0.0860 C   0  0  0  0  0  0  0  0  0  0  0  0
   -0.3185    0.6698    0.6103 C   0  0  0  0  0  0  0  0  0  0  0  0
   -0.7521   -0.4662   -0.2988 C   0  0  0  0  0  0  0  0  0  0  0  0
   -1.4256   -1.5923    0.4350 C   0  0  0  0  0  0  0  0  0  0  0  0
    0.6791   -0.1582   -0.0650 C   0  0  0  0  0  0  0  0  0  0  0  0
    1.4561    0.2987   -1.2858 C   0  0  0  0  0  0  0  0  0  0  0  0
    1.5116   -1.0648    0.8076 C   0  0  0  0  0  0  0  0  0  0  0  0
    2.5256   -1.6019    0.4069 O   0  0  0  0  0  0  0  0  0  0  0  0
   -1.2064    2.6368    0.8964 H   0  0  0  0  0  0  0  0  0  0  0  0
    0.1577    2.6401   -0.2335 H   0  0  0  0  0  0  0  0  0  0  0  0
   -1.4719    1.9423   -0.7222 H   0  0  0  0  0  0  0  0  0  0  0  0
   -0.4312    0.5693    1.7162 H   0  0  0  0  0  0  0  0  0  0  0  0
   -1.1722   -0.2490   -1.2813 H   0  0  0  0  0  0  0  0  0  0  0  0
   -2.2099   -2.0865   -0.2101 H   0  0  0  0  0  0  0  0  0  0  0  0
   -2.0248   -1.2018    1.2793 H   0  0  0  0  0  0  0  0  0  0  0  0
   -0.7358   -2.3277    0.8643 H   0  0  0  0  0  0  0  0  0  0  0  0
    2.5377    0.1613   -1.1739 H   0  0  0  0  0  0  0  0  0  0  0  0
    1.1037   -0.3083   -2.1372 H   0  0  0  0  0  0  0  0  0  0  0  0
    1.2687    1.3653   -1.5361 H   0  0  0  0  0  0  0  0  0  0  0  0
    1.2192   -1.2690    1.8418 H   0  0  0  0  0  0  0  0  0  0  0  0
  1  2  1  0
  2  3  1  0
  3  4  1  0
  3  5  1  0
  5  6  1  0
  5  7  1  0
  7  8  2  0
  5  2  1  0
  1  9  1  0
  1 10  1  0
  1 11  1  0
  2 12  1  0
  3 13  1  0
  4 14  1  0
  4 15  1  0
  4 16  1  0
  6 17  1  0
  6 18  1  0
  6 19  1  0
  7 20  1  0
M  END
