
     RDKit          3D

 20 20  0  0  0  0  0  0  0  0999 V2000
   -1.9190    0.8388    0.5232 C   0  0  0  0  0  0  0  0  0  0  0  0
   -0.7661   -0.1271    0.4497 C   0  0  0  0  0  0  0  0  0  0  0  0
   -0.4092   -0.6163   -0.9661 C   0  0  0  0  0  0  0  0  0  0  0  0
   -0.2317   -2.0749   -1.0747 C   0  0  0  0  0  0  0  0  0  0  0  0
   -0.6641   -2.6587   -2.0376 O   0  0  0  0  0  0  0  0  0  0  0  0
    0.5153    0.2165   -0.1580 C   0  0  0  0  0  0  0  0  0  0  0  0
    1.7329   -0.5152    0.4249 C   0  0  0  0  0  0  0  0  0  0  0  0
    0.8477    1.5654   -0.7052 C   0  0  0  0  0  0  0  0  0  0  0  0
   -2.5931    0.6546   -0.3595 H   0  0  0  0  0  0  0  0  0  0  0  0
   -1.6226    1.8940    0.4675 H   0  0  0  0  0  0  0  0  0  0  0  0
   -2.5652    0.6714    1.4216 H   0  0  0  0  0  0  0  0  0  0  0  0
   -0.7945   -0.8966    1.2582 H   0  0  0  0  0  0  0  0  0  0  0  0
   -0.9437   -0.1161   -1.7936 H   0  0  0  0  0  0  0  0  0  0  0  0
    0.2773   -2.6249   -0.3084 H   0  0  0  0  0  0  0  0  0  0  0  0
    2.1541   -1.2374   -0.2870 H   0  0  0  0  0  0  0  0  0  0  0  0
    1.4706   -0.9666    1.4089 H   0  0  0  0  0  0  0  0  0  0  0  0
    2.5564    0.2123    0.6506 H   0  0  0  0  0  0  0  0  0  0  0  0
    0.1544    2.3666   -0.4158 H   0  0  0  0  0  0  0  0  0  0  0  0
    0.9336    1.4963   -1.8300 H   0  0  0  0  0  0  0  0  0  0  0  0
    1.8670    1.9179   -0.3837 H   0  0  0  0  0  0  0  0  0  0  0  0
  1  2  1  0
  2  3  1  0
  3  4  1  0
  4  5  2  0
  3  6  1  0
  6  7  1  0
  6  8  1  0
  6  2  1  0
  1  9  1  0
  1 10  1  0
  1 11  1  0
  2 12  1  0
  3 13  1  0
  4 14  1  0
  7 15  1  0
  7 16  1  0
  7 17  1  0
  8 18  1  0
  8 19  1  0
  8 20  1  0
M  END
