
     RDKit          3D

 23 24  0  0  0  0  0  0  0  0999 V2000
    2.5235   -0.2705   -0.3046 C   0  0  0  0  0  0  0  0  0  0  0  0
    1.2730    0.1041    0.4476 C   0  0  0  0  0  0  0  0  0  0  0  0
    0.6929   -0.9970    1.2560 C   0  0  0  0  0  0  0  0  0  0  0  0
   -0.5911   -1.2339    0.8671 O   0  0  0  0  0  0  0  0  0  0  0  0
   -0.9780   -0.3531   -0.0878 C   0  0  0  0  0  0  0  0  0  0  0  0
   -1.6728   -0.9968   -1.2806 C   0  0  0  0  0  0  0  0  0  0  0  0
   -1.8373    0.8109    0.3976 C   0  0  0  0  0  0  0  0  0  0  0  0
   -0.6320    1.6976    0.2139 C   0  0  0  0  0  0  0  0  0  0  0  0
    0.1560    0.5586   -0.4238 C   0  0  0  0  0  0  0  0  0  0  0  0
    3.2649    0.5729   -0.3283 H   0  0  0  0  0  0  0  0  0  0  0  0
    3.0793   -1.1147    0.1830 H   0  0  0  0  0  0  0  0  0  0  0  0
    2.3470   -0.5570   -1.3490 H   0  0  0  0  0  0  0  0  0  0  0  0
    1.5647    0.9460    1.1373 H   0  0  0  0  0  0  0  0  0  0  0  0
    0.6890   -0.7483    2.3412 H   0  0  0  0  0  0  0  0  0  0  0  0
    1.2617   -1.9666    1.1532 H   0  0  0  0  0  0  0  0  0  0  0  0
   -2.1026   -0.1845   -1.9113 H   0  0  0  0  0  0  0  0  0  0  0  0
   -1.0223   -1.6859   -1.8308 H   0  0  0  0  0  0  0  0  0  0  0  0
   -2.5587   -1.5333   -0.8556 H   0  0  0  0  0  0  0  0  0  0  0  0
   -2.6463    1.1063   -0.2792 H   0  0  0  0  0  0  0  0  0  0  0  0
   -2.1502    0.6133    1.4294 H   0  0  0  0  0  0  0  0  0  0  0  0
   -0.2518    2.0202    1.1940 H   0  0  0  0  0  0  0  0  0  0  0  0
   -0.7569    2.5471   -0.4713 H   0  0  0  0  0  0  0  0  0  0  0  0
    0.3482    0.6647   -1.4979 H   0  0  0  0  0  0  0  0  0  0  0  0
  1  2  1  0
  2  3  1  0
  3  4  1  0
  4  5  1  0
  5  6  1  0
  5  7  1  0
  7  8  1  0
  8  9  1  0
  9  2  1  0
  9  5  1  0
  1 10  1  0
  1 11  1  0
  1 12  1  0
  2 13  1  0
  3 14  1  0
  3 15  1  0
  6 16  1  0
  6 17  1  0
  6 18  1  0
  7 19  1  0
  7 20  1  0
  8 21  1  0
  8 22  1  0
  9 23  1  0
M  END
