
     RDKit          3D

 23 24  0  0  0  0  0  0  0  0999 V2000
    2.4835    0.0451    0.0996 C   0  0  0  0  0  0  0  0  0  0  0  0
    1.0182    0.1655    0.4343 C   0  0  0  0  0  0  0  0  0  0  0  0
    0.5119    1.5729    0.3998 C   0  0  0  0  0  0  0  0  0  0  0  0
   -0.8479    1.5526    0.6617 O   0  0  0  0  0  0  0  0  0  0  0  0
   -1.5693    0.7328   -0.1746 C   0  0  0  0  0  0  0  0  0  0  0  0
   -1.9413   -0.5802    0.5326 C   0  0  0  0  0  0  0  0  0  0  0  0
   -0.7479   -1.4946    0.3299 C   0  0  0  0  0  0  0  0  0  0  0  0
    0.2401   -0.6953   -0.5232 C   0  0  0  0  0  0  0  0  0  0  0  0
   -0.7436    0.1728   -1.3185 C   0  0  0  0  0  0  0  0  0  0  0  0
    3.0688    0.7302    0.7451 H   0  0  0  0  0  0  0  0  0  0  0  0
    2.6999    0.1357   -0.9688 H   0  0  0  0  0  0  0  0  0  0  0  0
    2.7865   -0.9948    0.4151 H   0  0  0  0  0  0  0  0  0  0  0  0
    0.9181   -0.1890    1.5025 H   0  0  0  0  0  0  0  0  0  0  0  0
    0.7210    2.0873   -0.5541 H   0  0  0  0  0  0  0  0  0  0  0  0
    0.9954    2.1610    1.2118 H   0  0  0  0  0  0  0  0  0  0  0  0
   -2.5057    1.1588   -0.5494 H   0  0  0  0  0  0  0  0  0  0  0  0
   -2.7912   -1.0671   -0.0088 H   0  0  0  0  0  0  0  0  0  0  0  0
   -2.1716   -0.3976    1.5854 H   0  0  0  0  0  0  0  0  0  0  0  0
   -0.2812   -1.7667    1.3157 H   0  0  0  0  0  0  0  0  0  0  0  0
   -1.0107   -2.4455   -0.1501 H   0  0  0  0  0  0  0  0  0  0  0  0
    0.8444   -1.3210   -1.1715 H   0  0  0  0  0  0  0  0  0  0  0  0
   -1.4259   -0.4882   -1.8945 H   0  0  0  0  0  0  0  0  0  0  0  0
   -0.2514    0.9253   -1.9200 H   0  0  0  0  0  0  0  0  0  0  0  0
  1  2  1  0
  2  3  1  0
  3  4  1  0
  4  5  1  0
  5  6  1  0
  6  7  1  0
  7  8  1  0
  8  9  1  0
  8  2  1  0
  9  5  1  0
  1 10  1  0
  1 11  1  0
  1 12  1  0
  2 13  1  0
  3 14  1  0
  3 15  1  0
  5 16  1  0
  6 17  1  0
  6 18  1  0
  7 19  1  0
  7 20  1  0
  8 21  1  0
  9 22  1  0
  9 23  1  0
M  END
