
     RDKit          3D

 21 22  0  0  0  0  0  0  0  0999 V2000
    2.4825   -0.8373    0.3694 C   0  0  0  0  0  0  0  0  0  0  0  0
    1.6350    0.3747    0.0899 C   0  0  0  0  0  0  0  0  0  0  0  0
    1.3480    0.6160   -1.4031 C   0  0  0  0  0  0  0  0  0  0  0  0
    0.2525    0.2197   -0.4688 C   0  0  0  0  0  0  0  0  0  0  0  0
   -0.7253    1.2964   -0.1938 C   0  0  0  0  0  0  0  0  0  0  0  0
   -2.0133    1.0879   -0.0631 C   0  0  0  0  0  0  0  0  0  0  0  0
   -2.5259   -0.2902   -0.1950 C   0  0  0  0  0  0  0  0  0  0  0  0
   -1.3845   -1.1697    0.3411 C   0  0  0  0  0  0  0  0  0  0  0  0
   -0.3346   -1.0127   -0.5591 O   0  0  0  0  0  0  0  0  0  0  0  0
    3.0972   -1.1013   -0.5338 H   0  0  0  0  0  0  0  0  0  0  0  0
    1.8998   -1.7182    0.6555 H   0  0  0  0  0  0  0  0  0  0  0  0
    3.2346   -0.5959    1.1608 H   0  0  0  0  0  0  0  0  0  0  0  0
    1.8378    1.2767    0.7181 H   0  0  0  0  0  0  0  0  0  0  0  0
    1.4232    1.6708   -1.7398 H   0  0  0  0  0  0  0  0  0  0  0  0
    1.7760   -0.0991   -2.1184 H   0  0  0  0  0  0  0  0  0  0  0  0
   -0.2957    2.3153   -0.1005 H   0  0  0  0  0  0  0  0  0  0  0  0
   -2.7078    1.9179    0.1413 H   0  0  0  0  0  0  0  0  0  0  0  0
   -3.4630   -0.4654    0.3809 H   0  0  0  0  0  0  0  0  0  0  0  0
   -2.6546   -0.5834   -1.2685 H   0  0  0  0  0  0  0  0  0  0  0  0
   -1.7436   -2.1895    0.4173 H   0  0  0  0  0  0  0  0  0  0  0  0
   -1.1383   -0.7129    1.3437 H   0  0  0  0  0  0  0  0  0  0  0  0
  1  2  1  0
  2  3  1  0
  3  4  1  0
  4  5  1  0
  5  6  2  0
  6  7  1  0
  7  8  1  0
  8  9  1  0
  4  2  1  0
  9  4  1  0
  1 10  1  0
  1 11  1  0
  1 12  1  0
  2 13  1  0
  3 14  1  0
  3 15  1  0
  5 16  1  0
  6 17  1  0
  7 18  1  0
  7 19  1  0
  8 20  1  0
  8 21  1  0
M  END
