
     RDKit          3D

 20 21  0  0  0  0  0  0  0  0999 V2000
    2.3480    0.4954   -0.0097 C   0  0  0  0  0  0  0  0  0  0  0  0
    1.1033   -0.0955    0.6230 C   0  0  0  0  0  0  0  0  0  0  0  0
    0.8014   -1.4247   -0.0923 C   0  0  0  0  0  0  0  0  0  0  0  0
    0.0472   -0.5470   -1.1023 C   0  0  0  0  0  0  0  0  0  0  0  0
   -0.1829    0.3759    0.0344 C   0  0  0  0  0  0  0  0  0  0  0  0
   -0.5363    1.6707   -0.0888 O   0  0  0  0  0  0  0  0  0  0  0  0
   -1.3423    0.7463    0.6726 C   0  0  0  0  0  0  0  0  0  0  0  0
   -2.6842    0.3905    0.0409 C   0  0  0  0  0  0  0  0  0  0  0  0
    2.1712    1.5696   -0.2652 H   0  0  0  0  0  0  0  0  0  0  0  0
    3.1726    0.4103    0.7135 H   0  0  0  0  0  0  0  0  0  0  0  0
    2.6476   -0.0020   -0.9322 H   0  0  0  0  0  0  0  0  0  0  0  0
    1.1378   -0.2506    1.7036 H   0  0  0  0  0  0  0  0  0  0  0  0
    1.6727   -1.9383   -0.4893 H   0  0  0  0  0  0  0  0  0  0  0  0
    0.0606   -2.0093    0.4717 H   0  0  0  0  0  0  0  0  0  0  0  0
    0.7760   -0.1570   -1.8401 H   0  0  0  0  0  0  0  0  0  0  0  0
   -0.7967   -1.0196   -1.5891 H   0  0  0  0  0  0  0  0  0  0  0  0
   -1.3998    1.0627    1.7242 H   0  0  0  0  0  0  0  0  0  0  0  0
   -3.1568    1.2290   -0.4637 H   0  0  0  0  0  0  0  0  0  0  0  0
   -3.2995   -0.0580    0.8549 H   0  0  0  0  0  0  0  0  0  0  0  0
   -2.5399   -0.4482   -0.6974 H   0  0  0  0  0  0  0  0  0  0  0  0
  1  2  1  0
  2  3  1  0
  3  4  1  0
  4  5  1  0
  5  6  1  0
  6  7  1  0
  7  8  1  0
  5  2  1  0
  7  5  1  0
  1  9  1  0
  1 10  1  0
  1 11  1  0
  2 12  1  0
  3 13  1  0
  3 14  1  0
  4 15  1  0
  4 16  1  0
  7 17  1  0
  8 18  1  0
  8 19  1  0
  8 20  1  0
M  END
