
     RDKit          3D

 19 21  0  0  0  0  0  0  0  0999 V2000
    1.8052   -0.9959   -0.9727 C   0  0  0  0  0  0  0  0  0  0  0  0
    1.2228    0.3970   -0.6801 C   0  0  0  0  0  0  0  0  0  0  0  0
    1.1314    0.7627    0.6906 C   0  0  0  0  0  0  0  0  0  0  0  0
    0.1556    0.5063    1.6459 O   0  0  0  0  0  0  0  0  0  0  0  0
   -0.5333    1.5219    0.9223 C   0  0  0  0  0  0  0  0  0  0  0  0
   -0.1299    0.5844   -0.2335 C   0  0  0  0  0  0  0  0  0  0  0  0
   -0.8909   -0.7088   -0.0759 C   0  0  0  0  0  0  0  0  0  0  0  0
   -2.2457   -0.8238    0.3443 C   0  0  0  0  0  0  0  0  0  0  0  0
   -2.0295   -0.6495   -1.0340 O   0  0  0  0  0  0  0  0  0  0  0  0
    1.7862   -1.6320   -0.0692 H   0  0  0  0  0  0  0  0  0  0  0  0
    2.8838   -0.8808   -1.2436 H   0  0  0  0  0  0  0  0  0  0  0  0
    1.3077   -1.4529   -1.8436 H   0  0  0  0  0  0  0  0  0  0  0  0
    1.5538    1.1143   -1.4877 H   0  0  0  0  0  0  0  0  0  0  0  0
    1.4580    1.8357    0.8672 H   0  0  0  0  0  0  0  0  0  0  0  0
   -0.0593    2.5006    0.9143 H   0  0  0  0  0  0  0  0  0  0  0  0
   -1.5950    1.4910    1.1499 H   0  0  0  0  0  0  0  0  0  0  0  0
   -0.3430   -1.6401   -0.3250 H   0  0  0  0  0  0  0  0  0  0  0  0
   -2.6320   -1.8565    0.5551 H   0  0  0  0  0  0  0  0  0  0  0  0
   -2.8459   -0.0736    0.8756 H   0  0  0  0  0  0  0  0  0  0  0  0
  1  2  1  0
  2  3  1  0
  3  4  1  0
  4  5  1  0
  5  6  1  0
  6  7  1  0
  7  8  1  0
  8  9  1  0
  6  2  1  0
  9  7  1  0
  6  3  1  0
  1 10  1  0
  1 11  1  0
  1 12  1  0
  2 13  1  0
  3 14  1  0
  5 15  1  0
  5 16  1  0
  7 17  1  0
  8 18  1  0
  8 19  1  0
M  END
