
     RDKit          3D

 20 21  0  0  0  0  0  0  0  0999 V2000
    2.4808   -0.1793   -0.4643 C   0  0  0  0  0  0  0  0  0  0  0  0
    1.1172   -0.0228    0.1325 C   0  0  0  0  0  0  0  0  0  0  0  0
    0.2738   -1.2204   -0.1659 C   0  0  0  0  0  0  0  0  0  0  0  0
   -1.1878   -1.0037    0.2530 C   0  0  0  0  0  0  0  0  0  0  0  0
   -1.5251    0.2868   -0.3598 C   0  0  0  0  0  0  0  0  0  0  0  0
   -1.9829    1.5245    0.1438 C   0  0  0  0  0  0  0  0  0  0  0  0
   -0.6359    1.2715    0.4816 C   0  0  0  0  0  0  0  0  0  0  0  0
    0.5245    1.2093   -0.1991 O   0  0  0  0  0  0  0  0  0  0  0  0
    2.5021   -1.0765   -1.1288 H   0  0  0  0  0  0  0  0  0  0  0  0
    3.2377   -0.3265    0.3318 H   0  0  0  0  0  0  0  0  0  0  0  0
    2.7924    0.6831   -1.0915 H   0  0  0  0  0  0  0  0  0  0  0  0
    1.2143    0.0210    1.2597 H   0  0  0  0  0  0  0  0  0  0  0  0
    0.2307   -1.3341   -1.2827 H   0  0  0  0  0  0  0  0  0  0  0  0
    0.7166   -2.0850    0.3076 H   0  0  0  0  0  0  0  0  0  0  0  0
   -1.1670   -0.9417    1.3723 H   0  0  0  0  0  0  0  0  0  0  0  0
   -1.7775   -1.8685   -0.0624 H   0  0  0  0  0  0  0  0  0  0  0  0
   -1.3195    0.2589   -1.4718 H   0  0  0  0  0  0  0  0  0  0  0  0
   -2.7715    1.4813    0.9515 H   0  0  0  0  0  0  0  0  0  0  0  0
   -2.2678    2.3355   -0.5712 H   0  0  0  0  0  0  0  0  0  0  0  0
   -0.4548    0.9867    1.5635 H   0  0  0  0  0  0  0  0  0  0  0  0
  1  2  1  0
  2  3  1  0
  3  4  1  0
  4  5  1  0
  5  6  1  0
  6  7  1  0
  7  8  1  0
  8  2  1  0
  7  5  1  0
  1  9  1  0
  1 10  1  0
  1 11  1  0
  2 12  1  0
  3 13  1  0
  3 14  1  0
  4 15  1  0
  4 16  1  0
  5 17  1  0
  6 18  1  0
  6 19  1  0
  7 20  1  0
M  END
