
     RDKit          3D

 23 25  0  0  0  0  0  0  0  0999 V2000
   -2.1297    1.0375   -0.7221 C   0  0  0  0  0  0  0  0  0  0  0  0
   -1.1390   -0.0671   -0.8500 C   0  0  0  0  0  0  0  0  0  0  0  0
    0.2534    0.3121   -1.2659 C   0  0  0  0  0  0  0  0  0  0  0  0
    0.6640   -0.9826   -0.6071 C   0  0  0  0  0  0  0  0  0  0  0  0
    2.0052   -0.7786    0.0139 C   0  0  0  0  0  0  0  0  0  0  0  0
    1.8688    0.6981    0.4343 C   0  0  0  0  0  0  0  0  0  0  0  0
    0.4185    0.9097    0.0890 C   0  0  0  0  0  0  0  0  0  0  0  0
   -0.3023   -0.3734    0.3606 C   0  0  0  0  0  0  0  0  0  0  0  0
   -0.7227   -0.8722    1.5646 C   0  0  0  0  0  0  0  0  0  0  0  0
   -2.1123    1.7386   -1.5747 H   0  0  0  0  0  0  0  0  0  0  0  0
   -3.1564    0.5656   -0.7516 H   0  0  0  0  0  0  0  0  0  0  0  0
   -2.0953    1.5597    0.2650 H   0  0  0  0  0  0  0  0  0  0  0  0
   -1.4624   -0.9675   -1.4032 H   0  0  0  0  0  0  0  0  0  0  0  0
    0.5572    0.6573   -2.1513 H   0  0  0  0  0  0  0  0  0  0  0  0
    0.4245   -1.9054   -1.0891 H   0  0  0  0  0  0  0  0  0  0  0  0
    2.0804   -1.4268    0.9050 H   0  0  0  0  0  0  0  0  0  0  0  0
    2.8562   -0.9081   -0.6845 H   0  0  0  0  0  0  0  0  0  0  0  0
    2.0926    0.8021    1.4955 H   0  0  0  0  0  0  0  0  0  0  0  0
    2.4806    1.3358   -0.2275 H   0  0  0  0  0  0  0  0  0  0  0  0
   -0.0460    1.8435    0.3296 H   0  0  0  0  0  0  0  0  0  0  0  0
   -0.5893   -1.9907    1.6515 H   0  0  0  0  0  0  0  0  0  0  0  0
   -0.1346   -0.4725    2.4417 H   0  0  0  0  0  0  0  0  0  0  0  0
   -1.8113   -0.7152    1.7762 H   0  0  0  0  0  0  0  0  0  0  0  0
  1  2  1  0
  2  3  1  0
  3  4  1  0
  4  5  1  0
  5  6  1  0
  6  7  1  0
  7  8  1  0
  8  9  1  0
  8  2  1  0
  7  3  1  0
  8  4  1  0
  1 10  1  0
  1 11  1  0
  1 12  1  0
  2 13  1  0
  3 14  1  0
  4 15  1  0
  5 16  1  0
  5 17  1  0
  6 18  1  0
  6 19  1  0
  7 20  1  0
  9 21  1  0
  9 22  1  0
  9 23  1  0
M  END
