
     RDKit          3D

 21 22  0  0  0  0  0  0  0  0999 V2000
    2.2035    0.8957   -0.0427 C   0  0  0  0  0  0  0  0  0  0  0  0
    1.5949   -0.3093    0.6320 C   0  0  0  0  0  0  0  0  0  0  0  0
    1.4246   -1.3523   -0.4112 C   0  0  0  0  0  0  0  0  0  0  0  0
    0.1433   -1.3942   -0.7187 C   0  0  0  0  0  0  0  0  0  0  0  0
   -0.5266   -0.3967    0.1057 C   0  0  0  0  0  0  0  0  0  0  0  0
   -1.0031    0.8574   -0.5854 C   0  0  0  0  0  0  0  0  0  0  0  0
   -2.1841    0.8404    0.3862 C   0  0  0  0  0  0  0  0  0  0  0  0
   -1.9488   -0.6716    0.5051 C   0  0  0  0  0  0  0  0  0  0  0  0
    0.3415   -0.0674    1.1387 O   0  0  0  0  0  0  0  0  0  0  0  0
    1.9786    1.8408    0.4931 H   0  0  0  0  0  0  0  0  0  0  0  0
    1.8420    1.0186   -1.0897 H   0  0  0  0  0  0  0  0  0  0  0  0
    3.2963    0.7311   -0.0999 H   0  0  0  0  0  0  0  0  0  0  0  0
    2.2929   -0.6356    1.4376 H   0  0  0  0  0  0  0  0  0  0  0  0
    2.1822   -1.9742   -0.8542 H   0  0  0  0  0  0  0  0  0  0  0  0
   -0.2810   -2.0577   -1.4483 H   0  0  0  0  0  0  0  0  0  0  0  0
   -1.3226    0.7555   -1.6238 H   0  0  0  0  0  0  0  0  0  0  0  0
   -0.3939    1.7658   -0.3763 H   0  0  0  0  0  0  0  0  0  0  0  0
   -3.1056    1.1251   -0.1145 H   0  0  0  0  0  0  0  0  0  0  0  0
   -1.9430    1.3015    1.3505 H   0  0  0  0  0  0  0  0  0  0  0  0
   -2.4951   -1.2123   -0.2888 H   0  0  0  0  0  0  0  0  0  0  0  0
   -2.0959   -1.0607    1.5323 H   0  0  0  0  0  0  0  0  0  0  0  0
  1  2  1  0
  2  3  1  0
  3  4  2  0
  4  5  1  0
  5  6  1  0
  6  7  1  0
  7  8  1  0
  5  9  1  0
  9  2  1  0
  8  5  1  0
  1 10  1  0
  1 11  1  0
  1 12  1  0
  2 13  1  0
  3 14  1  0
  4 15  1  0
  6 16  1  0
  6 17  1  0
  7 18  1  0
  7 19  1  0
  8 20  1  0
  8 21  1  0
M  END
