
     RDKit          3D

 23 24  0  0  0  0  0  0  0  0999 V2000
    2.2656    0.3287    0.4387 C   0  0  0  0  0  0  0  0  0  0  0  0
    1.2109    0.1316   -0.5888 C   0  0  0  0  0  0  0  0  0  0  0  0
    0.6912   -1.3096   -0.6375 C   0  0  0  0  0  0  0  0  0  0  0  0
   -0.5415   -1.2696   -1.2462 O   0  0  0  0  0  0  0  0  0  0  0  0
   -1.6192   -1.3835   -0.4142 C   0  0  0  0  0  0  0  0  0  0  0  0
   -2.0347   -0.0347    0.2013 C   0  0  0  0  0  0  0  0  0  0  0  0
   -0.7703    0.5177    0.7576 C   0  0  0  0  0  0  0  0  0  0  0  0
   -0.2946    1.8715    0.6607 C   0  0  0  0  0  0  0  0  0  0  0  0
    0.0259    1.0271   -0.4641 C   0  0  0  0  0  0  0  0  0  0  0  0
    1.9495    0.7901    1.3707 H   0  0  0  0  0  0  0  0  0  0  0  0
    3.1305    0.9468    0.0559 H   0  0  0  0  0  0  0  0  0  0  0  0
    2.7115   -0.6558    0.6861 H   0  0  0  0  0  0  0  0  0  0  0  0
    1.6761    0.3038   -1.5832 H   0  0  0  0  0  0  0  0  0  0  0  0
    1.3684   -1.9059   -1.2854 H   0  0  0  0  0  0  0  0  0  0  0  0
    0.6969   -1.7821    0.3502 H   0  0  0  0  0  0  0  0  0  0  0  0
   -2.4774   -1.7956   -1.0007 H   0  0  0  0  0  0  0  0  0  0  0  0
   -1.3996   -2.0372    0.4649 H   0  0  0  0  0  0  0  0  0  0  0  0
   -2.4520    0.5610   -0.6363 H   0  0  0  0  0  0  0  0  0  0  0  0
   -2.8222   -0.2286    0.9335 H   0  0  0  0  0  0  0  0  0  0  0  0
   -0.2545   -0.1718    1.4577 H   0  0  0  0  0  0  0  0  0  0  0  0
   -1.0175    2.7099    0.4772 H   0  0  0  0  0  0  0  0  0  0  0  0
    0.4738    2.1976    1.4164 H   0  0  0  0  0  0  0  0  0  0  0  0
   -0.5167    1.1888   -1.4147 H   0  0  0  0  0  0  0  0  0  0  0  0
  1  2  1  0
  2  3  1  0
  3  4  1  0
  4  5  1  0
  5  6  1  0
  6  7  1  0
  7  8  1  0
  8  9  1  0
  9  2  1  0
  9  7  1  0
  1 10  1  0
  1 11  1  0
  1 12  1  0
  2 13  1  0
  3 14  1  0
  3 15  1  0
  5 16  1  0
  5 17  1  0
  6 18  1  0
  6 19  1  0
  7 20  1  0
  8 21  1  0
  8 22  1  0
  9 23  1  0
M  END
