
     RDKit          3D

 25 25  0  0  0  0  0  0  0  0999 V2000
   -0.0104    2.0969    0.4751 C   0  0  0  0  0  0  0  0  0  0  0  0
   -0.0015    0.5922    0.5200 C   0  0  0  0  0  0  0  0  0  0  0  0
    0.0588   -0.0769   -0.8391 C   0  0  0  0  0  0  0  0  0  0  0  0
    1.0625   -1.1832   -0.9595 C   0  0  0  0  0  0  0  0  0  0  0  0
    2.4664   -0.6939   -0.7055 C   0  0  0  0  0  0  0  0  0  0  0  0
    2.5731   -0.1737    0.5553 O   0  0  0  0  0  0  0  0  0  0  0  0
   -1.1608   -0.1729   -0.0084 C   0  0  0  0  0  0  0  0  0  0  0  0
   -1.5111   -1.5202    0.5687 C   0  0  0  0  0  0  0  0  0  0  0  0
   -2.3623    0.6640   -0.3809 C   0  0  0  0  0  0  0  0  0  0  0  0
    0.8348    2.4865   -0.1660 H   0  0  0  0  0  0  0  0  0  0  0  0
    0.1491    2.5617    1.4662 H   0  0  0  0  0  0  0  0  0  0  0  0
   -0.9317    2.4771   -0.0280 H   0  0  0  0  0  0  0  0  0  0  0  0
    0.4578    0.1453    1.4040 H   0  0  0  0  0  0  0  0  0  0  0  0
    0.0262    0.5907   -1.7444 H   0  0  0  0  0  0  0  0  0  0  0  0
    0.9811   -1.7197   -1.9398 H   0  0  0  0  0  0  0  0  0  0  0  0
    0.8545   -1.9346   -0.1396 H   0  0  0  0  0  0  0  0  0  0  0  0
    2.7245    0.0573   -1.4855 H   0  0  0  0  0  0  0  0  0  0  0  0
    3.1708   -1.5693   -0.7594 H   0  0  0  0  0  0  0  0  0  0  0  0
    3.3711    0.3675    0.7176 H   0  0  0  0  0  0  0  0  0  0  0  0
   -1.5223   -2.2404   -0.2921 H   0  0  0  0  0  0  0  0  0  0  0  0
   -0.7183   -1.8464    1.2695 H   0  0  0  0  0  0  0  0  0  0  0  0
   -2.5141   -1.5481    1.0274 H   0  0  0  0  0  0  0  0  0  0  0  0
   -2.5841    1.3148    0.5085 H   0  0  0  0  0  0  0  0  0  0  0  0
   -2.1552    1.2692   -1.2884 H   0  0  0  0  0  0  0  0  0  0  0  0
   -3.2589    0.0561   -0.5624 H   0  0  0  0  0  0  0  0  0  0  0  0
  1  2  1  0
  2  3  1  0
  3  4  1  0
  4  5  1  0
  5  6  1  0
  3  7  1  0
  7  8  1  0
  7  9  1  0
  7  2  1  0
  1 10  1  0
  1 11  1  0
  1 12  1  0
  2 13  1  0
  3 14  1  0
  4 15  1  0
  4 16  1  0
  5 17  1  0
  5 18  1  0
  6 19  1  0
  8 20  1  0
  8 21  1  0
  8 22  1  0
  9 23  1  0
  9 24  1  0
  9 25  1  0
M  END
