
     RDKit          3D

 19 19  0  0  0  0  0  0  0  0999 V2000
    2.2202   -0.5658    0.3459 C   0  0  0  0  0  0  0  0  0  0  0  0
    0.7788   -0.1949    0.4220 C   0  0  0  0  0  0  0  0  0  0  0  0
    0.4487    1.0799   -0.3307 C   0  0  0  0  0  0  0  0  0  0  0  0
   -0.9464    1.4917    0.1422 C   0  0  0  0  0  0  0  0  0  0  0  0
   -1.8790    0.4372   -0.3529 C   0  0  0  0  0  0  0  0  0  0  0  0
   -2.9622    0.7631   -0.7767 O   0  0  0  0  0  0  0  0  0  0  0  0
   -1.5319   -1.0013   -0.3472 C   0  0  0  0  0  0  0  0  0  0  0  0
   -0.1038   -1.2570   -0.1038 C   0  0  0  0  0  0  0  0  0  0  0  0
    0.3657   -2.3482   -0.3336 O   0  0  0  0  0  0  0  0  0  0  0  0
    2.4905   -1.1831   -0.5268 H   0  0  0  0  0  0  0  0  0  0  0  0
    2.8691    0.3314    0.4434 H   0  0  0  0  0  0  0  0  0  0  0  0
    2.4483   -1.1993    1.2477 H   0  0  0  0  0  0  0  0  0  0  0  0
    0.4923   -0.0460    1.5004 H   0  0  0  0  0  0  0  0  0  0  0  0
    1.1190    1.9078   -0.1017 H   0  0  0  0  0  0  0  0  0  0  0  0
    0.3604    0.8915   -1.4222 H   0  0  0  0  0  0  0  0  0  0  0  0
   -1.2401    2.4675   -0.2382 H   0  0  0  0  0  0  0  0  0  0  0  0
   -0.9263    1.4267    1.2446 H   0  0  0  0  0  0  0  0  0  0  0  0
   -1.9025   -1.4800   -1.2896 H   0  0  0  0  0  0  0  0  0  0  0  0
   -2.1009   -1.5212    0.4770 H   0  0  0  0  0  0  0  0  0  0  0  0
  1  2  1  0
  2  3  1  0
  3  4  1  0
  4  5  1  0
  5  6  2  0
  5  7  1  0
  7  8  1  0
  8  9  2  0
  8  2  1  0
  1 10  1  0
  1 11  1  0
  1 12  1  0
  2 13  1  0
  3 14  1  0
  3 15  1  0
  4 16  1  0
  4 17  1  0
  7 18  1  0
  7 19  1  0
M  END
