
     RDKit          3D

 18 19  0  0  0  0  0  0  0  0999 V2000
   -2.3019   -0.5872    0.0502 C   0  0  0  0  0  0  0  0  0  0  0  0
   -1.1762    0.4081    0.1432 C   0  0  0  0  0  0  0  0  0  0  0  0
   -0.3726    0.6926   -1.1175 C   0  0  0  0  0  0  0  0  0  0  0  0
    0.2055    0.1163    0.0997 C   0  0  0  0  0  0  0  0  0  0  0  0
    1.3101    0.7342    0.8744 C   0  0  0  0  0  0  0  0  0  0  0  0
    2.1812   -0.2868    0.1269 C   0  0  0  0  0  0  0  0  0  0  0  0
    0.9305   -1.1246    0.0401 C   0  0  0  0  0  0  0  0  0  0  0  0
    0.8120   -2.3339   -0.0401 O   0  0  0  0  0  0  0  0  0  0  0  0
   -2.0849   -1.4487   -0.5773 H   0  0  0  0  0  0  0  0  0  0  0  0
   -3.1645   -0.0503   -0.4404 H   0  0  0  0  0  0  0  0  0  0  0  0
   -2.6063   -0.8295    1.0866 H   0  0  0  0  0  0  0  0  0  0  0  0
   -1.5071    1.3602    0.6560 H   0  0  0  0  0  0  0  0  0  0  0  0
   -0.4725    0.0098   -1.9820 H   0  0  0  0  0  0  0  0  0  0  0  0
   -0.1144    1.7168   -1.3762 H   0  0  0  0  0  0  0  0  0  0  0  0
    1.5465    1.7775    0.6677 H   0  0  0  0  0  0  0  0  0  0  0  0
    1.3277    0.4710    1.9488 H   0  0  0  0  0  0  0  0  0  0  0  0
    2.4984    0.0895   -0.8703 H   0  0  0  0  0  0  0  0  0  0  0  0
    2.9885   -0.7151    0.7102 H   0  0  0  0  0  0  0  0  0  0  0  0
  1  2  1  0
  2  3  1  0
  3  4  1  0
  4  5  1  0
  5  6  1  0
  6  7  1  0
  7  8  2  0
  4  2  1  0
  7  4  1  0
  1  9  1  0
  1 10  1  0
  1 11  1  0
  2 12  1  0
  3 13  1  0
  3 14  1  0
  5 15  1  0
  5 16  1  0
  6 17  1  0
  6 18  1  0
M  END
