
     RDKit          3D

 25 26  0  0  0  0  0  0  0  0999 V2000
   -1.6720   -1.9041    0.0445 C   0  0  0  0  0  0  0  0  0  0  0  0
   -1.4703   -0.3914   -0.1712 C   0  0  0  0  0  0  0  0  0  0  0  0
   -0.8387    0.3749    0.7091 C   0  0  0  0  0  0  0  0  0  0  0  0
   -1.2544    1.8405    0.9432 C   0  0  0  0  0  0  0  0  0  0  0  0
   -0.0997   -0.0333   -0.4591 C   0  0  0  0  0  0  0  0  0  0  0  0
    0.1672   -0.6447   -1.7126 C   0  0  0  0  0  0  0  0  0  0  0  0
    1.1182    0.7229   -0.1301 C   0  0  0  0  0  0  0  0  0  0  0  0
    1.9113    0.6343    1.0943 C   0  0  0  0  0  0  0  0  0  0  0  0
    2.4280   -0.0472   -0.0998 C   0  0  0  0  0  0  0  0  0  0  0  0
   -1.3133   -2.1752    1.0808 H   0  0  0  0  0  0  0  0  0  0  0  0
   -2.7160   -2.1859   -0.0017 H   0  0  0  0  0  0  0  0  0  0  0  0
   -1.1158   -2.4685   -0.7312 H   0  0  0  0  0  0  0  0  0  0  0  0
   -2.3222    0.0083   -0.8071 H   0  0  0  0  0  0  0  0  0  0  0  0
   -0.5634   -0.0782    1.7168 H   0  0  0  0  0  0  0  0  0  0  0  0
   -0.6825    2.2971    1.7576 H   0  0  0  0  0  0  0  0  0  0  0  0
   -1.1795    2.4172   -0.0114 H   0  0  0  0  0  0  0  0  0  0  0  0
   -2.3338    1.8024    1.1995 H   0  0  0  0  0  0  0  0  0  0  0  0
    1.0597   -1.3450   -1.6035 H   0  0  0  0  0  0  0  0  0  0  0  0
   -0.5389   -1.2743   -2.2806 H   0  0  0  0  0  0  0  0  0  0  0  0
    0.5311    0.0730   -2.5162 H   0  0  0  0  0  0  0  0  0  0  0  0
    1.2218    1.6994   -0.6925 H   0  0  0  0  0  0  0  0  0  0  0  0
    1.4970    0.0079    1.9374 H   0  0  0  0  0  0  0  0  0  0  0  0
    2.4749    1.4960    1.4732 H   0  0  0  0  0  0  0  0  0  0  0  0
    2.3947   -1.1585   -0.0729 H   0  0  0  0  0  0  0  0  0  0  0  0
    3.2965    0.3322   -0.6668 H   0  0  0  0  0  0  0  0  0  0  0  0
  1  2  1  0
  2  3  1  0
  3  4  1  0
  3  5  1  0
  5  6  1  0
  5  7  1  0
  7  8  1  0
  8  9  1  0
  5  2  1  0
  9  7  1  0
  1 10  1  0
  1 11  1  0
  1 12  1  0
  2 13  1  0
  3 14  1  0
  4 15  1  0
  4 16  1  0
  4 17  1  0
  6 18  1  0
  6 19  1  0
  6 20  1  0
  7 21  1  0
  8 22  1  0
  8 23  1  0
  9 24  1  0
  9 25  1  0
M  END
