
     RDKit          3D

 23 23  0  0  0  0  0  0  0  0999 V2000
   -1.8556   -1.8370    0.1803 C   0  0  0  0  0  0  0  0  0  0  0  0
   -1.1872   -0.5760   -0.2548 C   0  0  0  0  0  0  0  0  0  0  0  0
    0.2673   -0.8134   -0.3517 C   0  0  0  0  0  0  0  0  0  0  0  0
    1.0827    0.2213   -0.3909 C   0  0  0  0  0  0  0  0  0  0  0  0
    2.5340   -0.0118   -0.4874 C   0  0  0  0  0  0  0  0  0  0  0  0
    2.8083   -1.3559   -0.5225 O   0  0  0  0  0  0  0  0  0  0  0  0
    0.5295    1.5875   -0.3388 C   0  0  0  0  0  0  0  0  0  0  0  0
   -0.6526    1.7470    0.5672 C   0  0  0  0  0  0  0  0  0  0  0  0
   -1.5301    0.5556    0.6781 C   0  0  0  0  0  0  0  0  0  0  0  0
   -1.9558   -1.9539    1.2596 H   0  0  0  0  0  0  0  0  0  0  0  0
   -1.2864   -2.7164   -0.2353 H   0  0  0  0  0  0  0  0  0  0  0  0
   -2.8775   -1.9319   -0.2604 H   0  0  0  0  0  0  0  0  0  0  0  0
   -1.5912   -0.2936   -1.2605 H   0  0  0  0  0  0  0  0  0  0  0  0
    0.6367   -1.8490   -0.3899 H   0  0  0  0  0  0  0  0  0  0  0  0
    3.0530    0.5266    0.3302 H   0  0  0  0  0  0  0  0  0  0  0  0
    2.9074    0.4140   -1.4648 H   0  0  0  0  0  0  0  0  0  0  0  0
    3.0809   -1.6721    0.3964 H   0  0  0  0  0  0  0  0  0  0  0  0
    0.2748    1.9009   -1.3821 H   0  0  0  0  0  0  0  0  0  0  0  0
    1.3710    2.2823   -0.0471 H   0  0  0  0  0  0  0  0  0  0  0  0
   -0.2420    2.0605    1.5708 H   0  0  0  0  0  0  0  0  0  0  0  0
   -1.2375    2.6407    0.2064 H   0  0  0  0  0  0  0  0  0  0  0  0
   -1.5446    0.2275    1.7451 H   0  0  0  0  0  0  0  0  0  0  0  0
   -2.5851    0.8472    0.4518 H   0  0  0  0  0  0  0  0  0  0  0  0
  1  2  1  0
  2  3  1  0
  3  4  2  0
  4  5  1  0
  5  6  1  0
  4  7  1  0
  7  8  1  0
  8  9  1  0
  9  2  1  0
  1 10  1  0
  1 11  1  0
  1 12  1  0
  2 13  1  0
  3 14  1  0
  5 15  1  0
  5 16  1  0
  6 17  1  0
  7 18  1  0
  7 19  1  0
  8 20  1  0
  8 21  1  0
  9 22  1  0
  9 23  1  0
M  END
