
     RDKit          3D

 23 24  0  0  0  0  0  0  0  0999 V2000
   -2.1170   -1.3973    0.5018 C   0  0  0  0  0  0  0  0  0  0  0  0
   -1.1542   -0.4837   -0.2709 C   0  0  0  0  0  0  0  0  0  0  0  0
   -1.3885    0.9125    0.1674 C   0  0  0  0  0  0  0  0  0  0  0  0
   -0.2666    1.8512    0.0399 C   0  0  0  0  0  0  0  0  0  0  0  0
    0.9858    1.3214   -0.5561 C   0  0  0  0  0  0  0  0  0  0  0  0
    1.0146    0.5339   -1.6659 O   0  0  0  0  0  0  0  0  0  0  0  0
    1.2804   -0.0696   -0.4538 C   0  0  0  0  0  0  0  0  0  0  0  0
    2.6975   -0.4850   -0.1121 C   0  0  0  0  0  0  0  0  0  0  0  0
    0.2273   -0.9981    0.0436 C   0  0  0  0  0  0  0  0  0  0  0  0
   -3.1159   -0.9542    0.5879 H   0  0  0  0  0  0  0  0  0  0  0  0
   -1.6552   -1.5188    1.5246 H   0  0  0  0  0  0  0  0  0  0  0  0
   -2.1205   -2.3794    0.0335 H   0  0  0  0  0  0  0  0  0  0  0  0
   -1.3568   -0.5625   -1.3610 H   0  0  0  0  0  0  0  0  0  0  0  0
   -2.2559    1.3137   -0.4354 H   0  0  0  0  0  0  0  0  0  0  0  0
   -1.7943    0.8899    1.2217 H   0  0  0  0  0  0  0  0  0  0  0  0
   -0.5513    2.7862   -0.5266 H   0  0  0  0  0  0  0  0  0  0  0  0
    0.0026    2.2419    1.0659 H   0  0  0  0  0  0  0  0  0  0  0  0
    1.8493    2.0440   -0.4893 H   0  0  0  0  0  0  0  0  0  0  0  0
    2.8864   -1.4543   -0.5972 H   0  0  0  0  0  0  0  0  0  0  0  0
    2.7029   -0.6971    0.9943 H   0  0  0  0  0  0  0  0  0  0  0  0
    3.4403    0.2893   -0.3102 H   0  0  0  0  0  0  0  0  0  0  0  0
    0.3202   -1.9817   -0.5049 H   0  0  0  0  0  0  0  0  0  0  0  0
    0.3690   -1.2024    1.1029 H   0  0  0  0  0  0  0  0  0  0  0  0
  1  2  1  0
  2  3  1  0
  3  4  1  0
  4  5  1  0
  5  6  1  0
  6  7  1  0
  7  8  1  0
  7  9  1  0
  9  2  1  0
  7  5  1  0
  1 10  1  0
  1 11  1  0
  1 12  1  0
  2 13  1  0
  3 14  1  0
  3 15  1  0
  4 16  1  0
  4 17  1  0
  5 18  1  0
  8 19  1  0
  8 20  1  0
  8 21  1  0
  9 22  1  0
  9 23  1  0
M  END
