
     RDKit          3D

 19 20  0  0  0  0  0  0  0  0999 V2000
   -1.7149    0.6259    0.4466 C   0  0  0  0  0  0  0  0  0  0  0  0
   -1.0119   -0.0011   -0.7355 C   0  0  0  0  0  0  0  0  0  0  0  0
   -0.6160   -1.4136   -0.3589 C   0  0  0  0  0  0  0  0  0  0  0  0
    0.6259   -1.1655    0.4783 C   0  0  0  0  0  0  0  0  0  0  0  0
    1.8105   -1.2205   -0.2635 O   0  0  0  0  0  0  0  0  0  0  0  0
    1.1892    0.0152    0.0932 C   0  0  0  0  0  0  0  0  0  0  0  0
    2.0603    0.9517    0.8145 C   0  0  0  0  0  0  0  0  0  0  0  0
    3.2185    0.6692    1.0744 O   0  0  0  0  0  0  0  0  0  0  0  0
    0.3282    0.6456   -1.0022 C   0  0  0  0  0  0  0  0  0  0  0  0
   -1.5870    0.0306    1.3766 H   0  0  0  0  0  0  0  0  0  0  0  0
   -1.3100    1.6379    0.6656 H   0  0  0  0  0  0  0  0  0  0  0  0
   -2.8296    0.6652    0.2757 H   0  0  0  0  0  0  0  0  0  0  0  0
   -1.6703    0.0211   -1.6273 H   0  0  0  0  0  0  0  0  0  0  0  0
   -0.3578   -1.9887   -1.2920 H   0  0  0  0  0  0  0  0  0  0  0  0
   -1.4130   -1.9222    0.2219 H   0  0  0  0  0  0  0  0  0  0  0  0
    0.6194   -1.5792    1.5123 H   0  0  0  0  0  0  0  0  0  0  0  0
    1.7037    1.9249    1.1402 H   0  0  0  0  0  0  0  0  0  0  0  0
    0.7002    0.3703   -1.9884 H   0  0  0  0  0  0  0  0  0  0  0  0
    0.2546    1.7330   -0.8313 H   0  0  0  0  0  0  0  0  0  0  0  0
  1  2  1  0
  2  3  1  0
  3  4  1  0
  4  5  1  0
  5  6  1  0
  6  7  1  0
  7  8  2  0
  6  9  1  0
  9  2  1  0
  6  4  1  0
  1 10  1  0
  1 11  1  0
  1 12  1  0
  2 13  1  0
  3 14  1  0
  3 15  1  0
  4 16  1  0
  7 17  1  0
  9 18  1  0
  9 19  1  0
M  END
