
     RDKit          3D

 21 22  0  0  0  0  0  0  0  0999 V2000
   -1.5565   -0.9992    0.7511 C   0  0  0  0  0  0  0  0  0  0  0  0
   -1.4857   -0.0999   -0.3879 C   0  0  0  0  0  0  0  0  0  0  0  0
   -1.7721    1.3633   -0.0393 C   0  0  0  0  0  0  0  0  0  0  0  0
   -0.6071    1.8770    0.3462 C   0  0  0  0  0  0  0  0  0  0  0  0
    0.3716    0.8270    0.2641 C   0  0  0  0  0  0  0  0  0  0  0  0
    1.1797    0.2359   -0.7157 C   0  0  0  0  0  0  0  0  0  0  0  0
    2.0449   -0.9751   -0.3340 C   0  0  0  0  0  0  0  0  0  0  0  0
    2.9445   -0.6436    0.6806 O   0  0  0  0  0  0  0  0  0  0  0  0
   -0.1773    0.1732   -1.0477 C   0  0  0  0  0  0  0  0  0  0  0  0
   -0.7875   -1.7394    0.9071 H   0  0  0  0  0  0  0  0  0  0  0  0
   -1.6219   -0.4012    1.7097 H   0  0  0  0  0  0  0  0  0  0  0  0
   -2.5357   -1.5677    0.7523 H   0  0  0  0  0  0  0  0  0  0  0  0
   -2.2665   -0.3623   -1.1262 H   0  0  0  0  0  0  0  0  0  0  0  0
   -2.7211    1.8789   -0.0928 H   0  0  0  0  0  0  0  0  0  0  0  0
   -0.3883    2.8950    0.6712 H   0  0  0  0  0  0  0  0  0  0  0  0
    0.2621    0.1852    1.2059 H   0  0  0  0  0  0  0  0  0  0  0  0
    1.8750    0.9535   -1.2591 H   0  0  0  0  0  0  0  0  0  0  0  0
    2.6700   -1.2779   -1.2061 H   0  0  0  0  0  0  0  0  0  0  0  0
    1.4426   -1.8168    0.0555 H   0  0  0  0  0  0  0  0  0  0  0  0
    3.5621   -1.4034    0.7624 H   0  0  0  0  0  0  0  0  0  0  0  0
   -0.4327    0.8977   -1.8973 H   0  0  0  0  0  0  0  0  0  0  0  0
  1  2  1  0
  2  3  1  0
  3  4  2  0
  4  5  1  0
  5  6  1  0
  6  7  1  0
  7  8  1  0
  6  9  1  0
  9  2  1  0
  9  5  1  0
  1 10  1  0
  1 11  1  0
  1 12  1  0
  2 13  1  0
  3 14  1  0
  4 15  1  0
  5 16  1  0
  6 17  1  0
  7 18  1  0
  7 19  1  0
  8 20  1  0
  9 21  1  0
M  END
