
     RDKit          3D

 22 22  0  0  0  0  0  0  0  0999 V2000
   -1.5252   -1.2004   -0.7181 C   0  0  0  0  0  0  0  0  0  0  0  0
   -0.7283    0.0539   -1.0138 C   0  0  0  0  0  0  0  0  0  0  0  0
    0.7270    0.1082   -0.8654 C   0  0  0  0  0  0  0  0  0  0  0  0
    1.5629   -1.0779   -0.5294 C   0  0  0  0  0  0  0  0  0  0  0  0
    1.1707   -1.5943    0.6881 O   0  0  0  0  0  0  0  0  0  0  0  0
   -0.1471    0.7339    0.1648 C   0  0  0  0  0  0  0  0  0  0  0  0
   -0.0787    2.2676    0.1875 C   0  0  0  0  0  0  0  0  0  0  0  0
   -0.3939    0.1505    1.5078 C   0  0  0  0  0  0  0  0  0  0  0  0
   -2.3875   -0.8591   -0.0725 H   0  0  0  0  0  0  0  0  0  0  0  0
   -1.9341   -1.6587   -1.6423 H   0  0  0  0  0  0  0  0  0  0  0  0
   -0.9572   -1.9732   -0.1980 H   0  0  0  0  0  0  0  0  0  0  0  0
   -1.2164    0.6677   -1.8204 H   0  0  0  0  0  0  0  0  0  0  0  0
    1.2483    0.7894   -1.6069 H   0  0  0  0  0  0  0  0  0  0  0  0
    2.6463   -0.7928   -0.4116 H   0  0  0  0  0  0  0  0  0  0  0  0
    1.5620   -1.8455   -1.3312 H   0  0  0  0  0  0  0  0  0  0  0  0
    1.9007   -1.7013    1.3399 H   0  0  0  0  0  0  0  0  0  0  0  0
   -0.3550    2.6967   -0.7922 H   0  0  0  0  0  0  0  0  0  0  0  0
   -0.6378    2.6669    1.0355 H   0  0  0  0  0  0  0  0  0  0  0  0
    1.0105    2.4920    0.3689 H   0  0  0  0  0  0  0  0  0  0  0  0
    0.5226    0.0928    2.1450 H   0  0  0  0  0  0  0  0  0  0  0  0
   -1.1303    0.8294    2.0391 H   0  0  0  0  0  0  0  0  0  0  0  0
   -0.8596   -0.8458    1.5253 H   0  0  0  0  0  0  0  0  0  0  0  0
  1  2  1  0
  2  3  1  0
  3  4  1  0
  4  5  1  0
  3  6  1  0
  6  7  1  0
  6  8  1  0
  6  2  1  0
  1  9  1  0
  1 10  1  0
  1 11  1  0
  2 12  1  0
  3 13  1  0
  4 14  1  0
  4 15  1  0
  5 16  1  0
  7 17  1  0
  7 18  1  0
  7 19  1  0
  8 20  1  0
  8 21  1  0
  8 22  1  0
M  END
