
     RDKit          3D

 21 23  0  0  0  0  0  0  0  0999 V2000
    2.1376   -0.9661    0.5102 C   0  0  0  0  0  0  0  0  0  0  0  0
    1.0112   -0.4037   -0.3300 C   0  0  0  0  0  0  0  0  0  0  0  0
    1.2590    1.0421   -0.5037 C   0  0  0  0  0  0  0  0  0  0  0  0
    0.1933    1.7311   -0.1898 C   0  0  0  0  0  0  0  0  0  0  0  0
   -0.8955    0.8580    0.2298 C   0  0  0  0  0  0  0  0  0  0  0  0
   -1.9860    0.4326   -0.6976 C   0  0  0  0  0  0  0  0  0  0  0  0
   -1.4334   -0.9795   -0.6774 C   0  0  0  0  0  0  0  0  0  0  0  0
   -0.3245   -0.5582    0.2754 C   0  0  0  0  0  0  0  0  0  0  0  0
   -0.7812    0.1087    1.5015 C   0  0  0  0  0  0  0  0  0  0  0  0
    1.9897   -0.8190    1.5889 H   0  0  0  0  0  0  0  0  0  0  0  0
    3.0661   -0.4445    0.2292 H   0  0  0  0  0  0  0  0  0  0  0  0
    2.2494   -2.0298    0.2364 H   0  0  0  0  0  0  0  0  0  0  0  0
    1.0399   -0.8927   -1.3231 H   0  0  0  0  0  0  0  0  0  0  0  0
    2.2411    1.4315   -0.8571 H   0  0  0  0  0  0  0  0  0  0  0  0
    0.1981    2.8429   -0.2607 H   0  0  0  0  0  0  0  0  0  0  0  0
   -3.0094    0.4233   -0.2328 H   0  0  0  0  0  0  0  0  0  0  0  0
   -1.9519    0.9389   -1.6617 H   0  0  0  0  0  0  0  0  0  0  0  0
   -2.1071   -1.7533   -0.3155 H   0  0  0  0  0  0  0  0  0  0  0  0
   -1.0770   -1.2397   -1.7066 H   0  0  0  0  0  0  0  0  0  0  0  0
   -0.0898    0.5267    2.2525 H   0  0  0  0  0  0  0  0  0  0  0  0
   -1.7296   -0.2493    1.9320 H   0  0  0  0  0  0  0  0  0  0  0  0
  1  2  1  0
  2  3  1  0
  3  4  2  0
  4  5  1  0
  5  6  1  0
  6  7  1  0
  7  8  1  0
  8  9  1  0
  8  2  1  0
  8  5  1  0
  9  5  1  0
  1 10  1  0
  1 11  1  0
  1 12  1  0
  2 13  1  0
  3 14  1  0
  4 15  1  0
  6 16  1  0
  6 17  1  0
  7 18  1  0
  7 19  1  0
  9 20  1  0
  9 21  1  0
M  END
