
     RDKit          3D

 25 26  0  0  0  0  0  0  0  0999 V2000
    2.3334    0.2848   -0.9621 C   0  0  0  0  0  0  0  0  0  0  0  0
    1.3753    0.2511    0.2136 C   0  0  0  0  0  0  0  0  0  0  0  0
    1.0554   -1.2053    0.5398 C   0  0  0  0  0  0  0  0  0  0  0  0
   -0.3572   -1.0486    1.1135 C   0  0  0  0  0  0  0  0  0  0  0  0
   -0.9916   -0.2393   -0.0020 C   0  0  0  0  0  0  0  0  0  0  0  0
   -1.4049   -0.9914   -1.2098 C   0  0  0  0  0  0  0  0  0  0  0  0
   -1.9030    0.8276    0.5081 C   0  0  0  0  0  0  0  0  0  0  0  0
   -0.6601    1.6627    0.8240 C   0  0  0  0  0  0  0  0  0  0  0  0
    0.0669    0.8368   -0.2207 C   0  0  0  0  0  0  0  0  0  0  0  0
    1.7913   -0.1491   -1.8220 H   0  0  0  0  0  0  0  0  0  0  0  0
    3.2873   -0.2216   -0.7329 H   0  0  0  0  0  0  0  0  0  0  0  0
    2.5751    1.3539   -1.1830 H   0  0  0  0  0  0  0  0  0  0  0  0
    1.8102    0.7564    1.0958 H   0  0  0  0  0  0  0  0  0  0  0  0
    0.9326   -1.7406   -0.4173 H   0  0  0  0  0  0  0  0  0  0  0  0
    1.7500   -1.6521    1.2422 H   0  0  0  0  0  0  0  0  0  0  0  0
   -0.8661   -1.9982    1.2464 H   0  0  0  0  0  0  0  0  0  0  0  0
   -0.3595   -0.4697    2.0480 H   0  0  0  0  0  0  0  0  0  0  0  0
   -2.1067   -0.3900   -1.8043 H   0  0  0  0  0  0  0  0  0  0  0  0
   -0.4825   -1.1982   -1.8278 H   0  0  0  0  0  0  0  0  0  0  0  0
   -1.8096   -1.9832   -0.9545 H   0  0  0  0  0  0  0  0  0  0  0  0
   -2.5348    1.2550   -0.2939 H   0  0  0  0  0  0  0  0  0  0  0  0
   -2.4198    0.5033    1.4233 H   0  0  0  0  0  0  0  0  0  0  0  0
   -0.2918    1.5823    1.8462 H   0  0  0  0  0  0  0  0  0  0  0  0
   -0.8517    2.7065    0.5572 H   0  0  0  0  0  0  0  0  0  0  0  0
    0.0616    1.2667   -1.2280 H   0  0  0  0  0  0  0  0  0  0  0  0
  1  2  1  0
  2  3  1  0
  3  4  1  0
  4  5  1  0
  5  6  1  0
  5  7  1  0
  7  8  1  0
  8  9  1  0
  9  2  1  0
  9  5  1  0
  1 10  1  0
  1 11  1  0
  1 12  1  0
  2 13  1  0
  3 14  1  0
  3 15  1  0
  4 16  1  0
  4 17  1  0
  6 18  1  0
  6 19  1  0
  6 20  1  0
  7 21  1  0
  7 22  1  0
  8 23  1  0
  8 24  1  0
  9 25  1  0
M  END
