
     RDKit          3D

 19 20  0  0  0  0  0  0  0  0999 V2000
   -1.8364   -0.9901   -0.1496 C   0  0  0  0  0  0  0  0  0  0  0  0
   -0.9609    0.1923   -0.3469 C   0  0  0  0  0  0  0  0  0  0  0  0
   -0.7771    1.0505    0.8642 C   0  0  0  0  0  0  0  0  0  0  0  0
    0.5187    1.4789    0.9179 O   0  0  0  0  0  0  0  0  0  0  0  0
    1.1935    1.0721   -0.1967 C   0  0  0  0  0  0  0  0  0  0  0  0
    2.2951    0.1378    0.1526 C   0  0  0  0  0  0  0  0  0  0  0  0
    3.4735    0.2794    0.3399 O   0  0  0  0  0  0  0  0  0  0  0  0
    1.2613   -0.9630    0.1479 C   0  0  0  0  0  0  0  0  0  0  0  0
    0.4414   -0.1217   -0.7611 C   0  0  0  0  0  0  0  0  0  0  0  0
   -2.4915   -0.9266    0.7488 H   0  0  0  0  0  0  0  0  0  0  0  0
   -1.2254   -1.9039   -0.1849 H   0  0  0  0  0  0  0  0  0  0  0  0
   -2.5546   -1.0653   -1.0183 H   0  0  0  0  0  0  0  0  0  0  0  0
   -1.3836    0.8585   -1.1553 H   0  0  0  0  0  0  0  0  0  0  0  0
   -1.0827    0.5258    1.8166 H   0  0  0  0  0  0  0  0  0  0  0  0
   -1.4351    1.9502    0.8212 H   0  0  0  0  0  0  0  0  0  0  0  0
    1.3918    1.7955   -0.9803 H   0  0  0  0  0  0  0  0  0  0  0  0
    0.8744   -1.2052    1.1354 H   0  0  0  0  0  0  0  0  0  0  0  0
    1.7500   -1.8659   -0.3237 H   0  0  0  0  0  0  0  0  0  0  0  0
    0.5479   -0.2994   -1.8278 H   0  0  0  0  0  0  0  0  0  0  0  0
  1  2  1  0
  2  3  1  0
  3  4  1  0
  4  5  1  0
  5  6  1  0
  6  7  2  0
  6  8  1  0
  8  9  1  0
  9  2  1  0
  9  5  1  0
  1 10  1  0
  1 11  1  0
  1 12  1  0
  2 13  1  0
  3 14  1  0
  3 15  1  0
  5 16  1  0
  8 17  1  0
  8 18  1  0
  9 19  1  0
M  END
