
     RDKit          3D

 19 20  0  0  0  0  0  0  0  0999 V2000
    1.7989   -0.6437   -0.2355 C   0  0  0  0  0  0  0  0  0  0  0  0
    0.7316   -0.0781    0.6470 C   0  0  0  0  0  0  0  0  0  0  0  0
    0.4122    1.3222    0.1272 C   0  0  0  0  0  0  0  0  0  0  0  0
   -1.0623    1.2024   -0.2512 C   0  0  0  0  0  0  0  0  0  0  0  0
   -1.1018    0.3632   -1.3563 O   0  0  0  0  0  0  0  0  0  0  0  0
   -0.9395   -0.9522   -0.9194 C   0  0  0  0  0  0  0  0  0  0  0  0
   -0.5736   -0.8175    0.5663 C   0  0  0  0  0  0  0  0  0  0  0  0
   -1.5097    0.3077    0.8551 C   0  0  0  0  0  0  0  0  0  0  0  0
   -2.3305    0.4395    1.6862 O   0  0  0  0  0  0  0  0  0  0  0  0
    1.6376   -0.3090   -1.2974 H   0  0  0  0  0  0  0  0  0  0  0  0
    1.9497   -1.7201   -0.1522 H   0  0  0  0  0  0  0  0  0  0  0  0
    2.7650   -0.1525    0.0721 H   0  0  0  0  0  0  0  0  0  0  0  0
    1.0887   -0.0713    1.6736 H   0  0  0  0  0  0  0  0  0  0  0  0
    0.9828    1.5902   -0.7568 H   0  0  0  0  0  0  0  0  0  0  0  0
    0.5648    2.0755    0.9217 H   0  0  0  0  0  0  0  0  0  0  0  0
   -1.5877    2.1288   -0.3408 H   0  0  0  0  0  0  0  0  0  0  0  0
   -0.1948   -1.5167   -1.4772 H   0  0  0  0  0  0  0  0  0  0  0  0
   -1.9430   -1.4713   -0.9073 H   0  0  0  0  0  0  0  0  0  0  0  0
   -0.6884   -1.6972    1.1447 H   0  0  0  0  0  0  0  0  0  0  0  0
  1  2  1  0
  2  3  1  0
  3  4  1  0
  4  5  1  0
  5  6  1  0
  6  7  1  0
  7  8  1  0
  8  9  2  0
  7  2  1  0
  8  4  1  0
  1 10  1  0
  1 11  1  0
  1 12  1  0
  2 13  1  0
  3 14  1  0
  3 15  1  0
  4 16  1  0
  6 17  1  0
  6 18  1  0
  7 19  1  0
M  END
