
     RDKit          3D

 23 24  0  0  0  0  0  0  0  0999 V2000
   -2.1359    0.1836   -0.4074 C   0  0  0  0  0  0  0  0  0  0  0  0
   -0.8506   -0.3977    0.0980 C   0  0  0  0  0  0  0  0  0  0  0  0
   -0.2689   -1.4389   -0.8442 C   0  0  0  0  0  0  0  0  0  0  0  0
    1.1013   -1.6471   -0.2379 C   0  0  0  0  0  0  0  0  0  0  0  0
    2.2617   -0.8469   -0.6887 C   0  0  0  0  0  0  0  0  0  0  0  0
    1.4539   -0.2881    0.4082 C   0  0  0  0  0  0  0  0  0  0  0  0
    0.2835    0.6095    0.1087 C   0  0  0  0  0  0  0  0  0  0  0  0
    0.0479    1.6364    1.1826 C   0  0  0  0  0  0  0  0  0  0  0  0
   -1.1549    2.2864    0.9174 O   0  0  0  0  0  0  0  0  0  0  0  0
   -1.9201    1.1232   -0.9602 H   0  0  0  0  0  0  0  0  0  0  0  0
   -2.7082   -0.4956   -1.0619 H   0  0  0  0  0  0  0  0  0  0  0  0
   -2.7672    0.4218    0.4732 H   0  0  0  0  0  0  0  0  0  0  0  0
   -0.9094   -0.8245    1.1081 H   0  0  0  0  0  0  0  0  0  0  0  0
   -0.1535   -1.0554   -1.8632 H   0  0  0  0  0  0  0  0  0  0  0  0
   -0.8559   -2.3809   -0.8102 H   0  0  0  0  0  0  0  0  0  0  0  0
    1.2762   -2.5469    0.3618 H   0  0  0  0  0  0  0  0  0  0  0  0
    2.2564   -0.3405   -1.6825 H   0  0  0  0  0  0  0  0  0  0  0  0
    3.2548   -1.2571   -0.4245 H   0  0  0  0  0  0  0  0  0  0  0  0
    1.7553   -0.3471    1.4654 H   0  0  0  0  0  0  0  0  0  0  0  0
    0.3099    1.0445   -0.9072 H   0  0  0  0  0  0  0  0  0  0  0  0
   -0.0884    1.0742    2.1411 H   0  0  0  0  0  0  0  0  0  0  0  0
    0.8351    2.3827    1.2640 H   0  0  0  0  0  0  0  0  0  0  0  0
   -1.0232    3.1045    0.3592 H   0  0  0  0  0  0  0  0  0  0  0  0
  1  2  1  0
  2  3  1  0
  3  4  1  0
  4  5  1  0
  5  6  1  0
  6  7  1  0
  7  8  1  0
  8  9  1  0
  7  2  1  0
  6  4  1  0
  1 10  1  0
  1 11  1  0
  1 12  1  0
  2 13  1  0
  3 14  1  0
  3 15  1  0
  4 16  1  0
  5 17  1  0
  5 18  1  0
  6 19  1  0
  7 20  1  0
  8 21  1  0
  8 22  1  0
  9 23  1  0
M  END
