
     RDKit          3D

 20 20  0  0  0  0  0  0  0  0999 V2000
    1.8908    0.0884    0.1495 C   0  0  0  0  0  0  0  0  0  0  0  0
    0.6289   -0.0706    0.9853 C   0  0  0  0  0  0  0  0  0  0  0  0
    0.2537   -1.5322    1.0106 C   0  0  0  0  0  0  0  0  0  0  0  0
   -0.6172   -1.7743    0.0347 C   0  0  0  0  0  0  0  0  0  0  0  0
   -0.9072   -0.5265   -0.7265 C   0  0  0  0  0  0  0  0  0  0  0  0
   -2.2292   -0.4005   -1.0821 O   0  0  0  0  0  0  0  0  0  0  0  0
   -0.5634    0.5262    0.3184 C   0  0  0  0  0  0  0  0  0  0  0  0
   -0.3580    1.8799   -0.2545 C   0  0  0  0  0  0  0  0  0  0  0  0
    2.5372    0.8600    0.5895 H   0  0  0  0  0  0  0  0  0  0  0  0
    2.4305   -0.8794    0.2133 H   0  0  0  0  0  0  0  0  0  0  0  0
    1.6565    0.2570   -0.9234 H   0  0  0  0  0  0  0  0  0  0  0  0
    0.7582    0.2843    2.0071 H   0  0  0  0  0  0  0  0  0  0  0  0
    0.6379   -2.2784    1.7213 H   0  0  0  0  0  0  0  0  0  0  0  0
   -1.0491   -2.7463   -0.1695 H   0  0  0  0  0  0  0  0  0  0  0  0
   -0.2221   -0.4373   -1.6122 H   0  0  0  0  0  0  0  0  0  0  0  0
   -2.3130   -0.4801   -2.0840 H   0  0  0  0  0  0  0  0  0  0  0  0
   -1.4013    0.5162    1.0498 H   0  0  0  0  0  0  0  0  0  0  0  0
    0.6625    2.1216   -0.5472 H   0  0  0  0  0  0  0  0  0  0  0  0
   -1.0196    1.9704   -1.1632 H   0  0  0  0  0  0  0  0  0  0  0  0
   -0.7761    2.6216    0.4832 H   0  0  0  0  0  0  0  0  0  0  0  0
  1  2  1  0
  2  3  1  0
  3  4  2  0
  4  5  1  0
  5  6  1  0
  5  7  1  0
  7  8  1  0
  7  2  1  0
  1  9  1  0
  1 10  1  0
  1 11  1  0
  2 12  1  0
  3 13  1  0
  4 14  1  0
  5 15  1  0
  6 16  1  0
  7 17  1  0
  8 18  1  0
  8 19  1  0
  8 20  1  0
M  END
