
     RDKit          3D

 20 21  0  0  0  0  0  0  0  0999 V2000
   -1.3510   -1.5790   -0.0886 C   0  0  0  0  0  0  0  0  0  0  0  0
   -0.4082   -0.5210   -0.6206 C   0  0  0  0  0  0  0  0  0  0  0  0
   -1.1127    0.8107   -0.5753 C   0  0  0  0  0  0  0  0  0  0  0  0
   -0.2696    1.7269    0.2821 C   0  0  0  0  0  0  0  0  0  0  0  0
    0.5991    0.8037    1.1436 C   0  0  0  0  0  0  0  0  0  0  0  0
    0.8094   -0.3553    0.2248 C   0  0  0  0  0  0  0  0  0  0  0  0
    2.1326   -0.5381   -0.3546 C   0  0  0  0  0  0  0  0  0  0  0  0
    1.5196   -1.4637    0.6005 O   0  0  0  0  0  0  0  0  0  0  0  0
   -1.8353   -2.0915   -0.9318 H   0  0  0  0  0  0  0  0  0  0  0  0
   -0.8138   -2.2732    0.5942 H   0  0  0  0  0  0  0  0  0  0  0  0
   -2.1774   -1.1374    0.5224 H   0  0  0  0  0  0  0  0  0  0  0  0
   -0.0984   -0.8127   -1.6346 H   0  0  0  0  0  0  0  0  0  0  0  0
   -2.1555    0.7367   -0.1981 H   0  0  0  0  0  0  0  0  0  0  0  0
   -1.2102    1.1897   -1.6267 H   0  0  0  0  0  0  0  0  0  0  0  0
    0.3879    2.2934   -0.4216 H   0  0  0  0  0  0  0  0  0  0  0  0
   -0.8737    2.3898    0.9301 H   0  0  0  0  0  0  0  0  0  0  0  0
    0.0836    0.5366    2.0843 H   0  0  0  0  0  0  0  0  0  0  0  0
    1.5346    1.3490    1.3749 H   0  0  0  0  0  0  0  0  0  0  0  0
    3.0587   -0.1493    0.0854 H   0  0  0  0  0  0  0  0  0  0  0  0
    2.1803   -0.9152   -1.3905 H   0  0  0  0  0  0  0  0  0  0  0  0
  1  2  1  0
  2  3  1  0
  3  4  1  0
  4  5  1  0
  5  6  1  0
  6  7  1  0
  7  8  1  0
  6  2  1  0
  8  6  1  0
  1  9  1  0
  1 10  1  0
  1 11  1  0
  2 12  1  0
  3 13  1  0
  3 14  1  0
  4 15  1  0
  4 16  1  0
  5 17  1  0
  5 18  1  0
  7 19  1  0
  7 20  1  0
M  END
