
     RDKit          3D

 21 23  0  0  0  0  0  0  0  0999 V2000
   -2.4172    0.5153    1.0006 C   0  0  0  0  0  0  0  0  0  0  0  0
   -1.6870    0.3005   -0.2794 C   0  0  0  0  0  0  0  0  0  0  0  0
   -1.3153   -1.1004   -0.7103 C   0  0  0  0  0  0  0  0  0  0  0  0
   -0.3025   -0.0996   -0.3930 C   0  0  0  0  0  0  0  0  0  0  0  0
    0.6056   -0.2545    0.8404 C   0  0  0  0  0  0  0  0  0  0  0  0
    1.7353    0.5823    0.3665 C   0  0  0  0  0  0  0  0  0  0  0  0
    2.8856    0.3515   -0.3956 C   0  0  0  0  0  0  0  0  0  0  0  0
    1.7366   -0.1279   -1.0504 C   0  0  0  0  0  0  0  0  0  0  0  0
    0.5438    0.4000   -1.4179 O   0  0  0  0  0  0  0  0  0  0  0  0
   -1.8940    0.2207    1.9051 H   0  0  0  0  0  0  0  0  0  0  0  0
   -2.6447    1.6022    1.0836 H   0  0  0  0  0  0  0  0  0  0  0  0
   -3.4104   -0.0034    0.9353 H   0  0  0  0  0  0  0  0  0  0  0  0
   -2.1037    0.9106   -1.1346 H   0  0  0  0  0  0  0  0  0  0  0  0
   -1.4405   -1.9439   -0.0222 H   0  0  0  0  0  0  0  0  0  0  0  0
   -1.4143   -1.3897   -1.7784 H   0  0  0  0  0  0  0  0  0  0  0  0
    0.9140   -1.3334    0.8778 H   0  0  0  0  0  0  0  0  0  0  0  0
    0.1361    0.1044    1.7487 H   0  0  0  0  0  0  0  0  0  0  0  0
    1.3646    1.6583    0.3554 H   0  0  0  0  0  0  0  0  0  0  0  0
    3.4193    1.2153   -0.8942 H   0  0  0  0  0  0  0  0  0  0  0  0
    3.6611   -0.3514   -0.0098 H   0  0  0  0  0  0  0  0  0  0  0  0
    1.6276   -1.2569   -1.0275 H   0  0  0  0  0  0  0  0  0  0  0  0
  1  2  1  0
  2  3  1  0
  3  4  1  0
  4  5  1  0
  5  6  1  0
  6  7  1  0
  7  8  1  0
  8  9  1  0
  4  2  1  0
  8  6  1  0
  9  4  1  0
  1 10  1  0
  1 11  1  0
  1 12  1  0
  2 13  1  0
  3 14  1  0
  3 15  1  0
  5 16  1  0
  5 17  1  0
  6 18  1  0
  7 19  1  0
  7 20  1  0
  8 21  1  0
M  END
