
     RDKit          3D

 25 26  0  0  0  0  0  0  0  0999 V2000
   -1.3600    1.7385   -0.1641 C   0  0  0  0  0  0  0  0  0  0  0  0
   -1.0215    0.3861    0.4369 C   0  0  0  0  0  0  0  0  0  0  0  0
   -1.8425   -0.6382   -0.3133 C   0  0  0  0  0  0  0  0  0  0  0  0
   -0.9813   -1.8391   -0.5288 C   0  0  0  0  0  0  0  0  0  0  0  0
    0.2978   -1.5584    0.1695 C   0  0  0  0  0  0  0  0  0  0  0  0
    0.3771   -0.0281    0.2550 C   0  0  0  0  0  0  0  0  0  0  0  0
    1.3951    0.3447    1.2718 C   0  0  0  0  0  0  0  0  0  0  0  0
    2.3543    0.6209    0.1090 C   0  0  0  0  0  0  0  0  0  0  0  0
    1.1661    0.5948   -0.8570 C   0  0  0  0  0  0  0  0  0  0  0  0
   -1.5633    1.6295   -1.2605 H   0  0  0  0  0  0  0  0  0  0  0  0
   -2.2820    2.1518    0.3123 H   0  0  0  0  0  0  0  0  0  0  0  0
   -0.5536    2.4778    0.0085 H   0  0  0  0  0  0  0  0  0  0  0  0
   -1.3553    0.3800    1.4889 H   0  0  0  0  0  0  0  0  0  0  0  0
   -2.7759   -0.9007    0.2245 H   0  0  0  0  0  0  0  0  0  0  0  0
   -2.1442   -0.2453   -1.3074 H   0  0  0  0  0  0  0  0  0  0  0  0
   -1.4996   -2.7386   -0.1439 H   0  0  0  0  0  0  0  0  0  0  0  0
   -0.7509   -2.0371   -1.6044 H   0  0  0  0  0  0  0  0  0  0  0  0
    0.2637   -1.9645    1.2156 H   0  0  0  0  0  0  0  0  0  0  0  0
    1.1986   -1.9557   -0.3010 H   0  0  0  0  0  0  0  0  0  0  0  0
    1.8380   -0.5007    1.8676 H   0  0  0  0  0  0  0  0  0  0  0  0
    1.2078    1.1911    1.9218 H   0  0  0  0  0  0  0  0  0  0  0  0
    2.8376    1.6007    0.2157 H   0  0  0  0  0  0  0  0  0  0  0  0
    3.0209   -0.2248   -0.1389 H   0  0  0  0  0  0  0  0  0  0  0  0
    0.8886    1.6051   -1.1681 H   0  0  0  0  0  0  0  0  0  0  0  0
    1.2844   -0.0899   -1.7095 H   0  0  0  0  0  0  0  0  0  0  0  0
  1  2  1  0
  2  3  1  0
  3  4  1  0
  4  5  1  0
  5  6  1  0
  6  7  1  0
  7  8  1  0
  8  9  1  0
  6  2  1  0
  9  6  1  0
  1 10  1  0
  1 11  1  0
  1 12  1  0
  2 13  1  0
  3 14  1  0
  3 15  1  0
  4 16  1  0
  4 17  1  0
  5 18  1  0
  5 19  1  0
  7 20  1  0
  7 21  1  0
  8 22  1  0
  8 23  1  0
  9 24  1  0
  9 25  1  0
M  END
