
     RDKit          3D

 16 16  0  0  0  0  0  0  0  0999 V2000
   -1.3983    0.7196    0.5302 C   0  0  0  0  0  0  0  0  0  0  0  0
   -0.6106    0.0793   -0.5867 C   0  0  0  0  0  0  0  0  0  0  0  0
   -0.1271   -1.3112   -0.1723 C   0  0  0  0  0  0  0  0  0  0  0  0
    1.0037   -0.9975    0.6969 C   0  0  0  0  0  0  0  0  0  0  0  0
    1.4750   -1.7195    1.6107 O   0  0  0  0  0  0  0  0  0  0  0  0
    1.5106    0.3181    0.3264 C   0  0  0  0  0  0  0  0  0  0  0  0
    2.4470    0.9664    0.8674 O   0  0  0  0  0  0  0  0  0  0  0  0
    0.7034    0.7772   -0.8397 C   0  0  0  0  0  0  0  0  0  0  0  0
   -0.7425    1.3504    1.1853 H   0  0  0  0  0  0  0  0  0  0  0  0
   -1.7499   -0.1159    1.1906 H   0  0  0  0  0  0  0  0  0  0  0  0
   -2.2447    1.3061    0.1357 H   0  0  0  0  0  0  0  0  0  0  0  0
   -1.1945   -0.0331   -1.5195 H   0  0  0  0  0  0  0  0  0  0  0  0
    0.2027   -1.8131   -1.1040 H   0  0  0  0  0  0  0  0  0  0  0  0
   -0.9731   -1.7968    0.3188 H   0  0  0  0  0  0  0  0  0  0  0  0
    1.1089    0.3916   -1.7795 H   0  0  0  0  0  0  0  0  0  0  0  0
    0.5894    1.8782   -0.8602 H   0  0  0  0  0  0  0  0  0  0  0  0
  1  2  1  0
  2  3  1  0
  3  4  1  0
  4  5  2  0
  4  6  1  0
  6  7  2  0
  6  8  1  0
  8  2  1  0
  1  9  1  0
  1 10  1  0
  1 11  1  0
  2 12  1  0
  3 13  1  0
  3 14  1  0
  8 15  1  0
  8 16  1  0
M  END
