
     RDKit          3D

 19 19  0  0  0  0  0  0  0  0999 V2000
   -1.9914   -1.8296   -0.1608 C   0  0  0  0  0  0  0  0  0  0  0  0
   -1.0939   -0.7121    0.2628 C   0  0  0  0  0  0  0  0  0  0  0  0
   -1.1993    0.6477   -0.2792 C   0  0  0  0  0  0  0  0  0  0  0  0
   -0.6939    1.7909    0.5759 C   0  0  0  0  0  0  0  0  0  0  0  0
   -0.1254   -0.2216   -0.8442 C   0  0  0  0  0  0  0  0  0  0  0  0
    1.2709   -0.0212   -0.4482 C   0  0  0  0  0  0  0  0  0  0  0  0
    2.4173    0.1429   -0.1013 C   0  0  0  0  0  0  0  0  0  0  0  0
    3.7738    0.3140    0.3146 C   0  0  0  0  0  0  0  0  0  0  0  0
    4.6783   -0.2479   -0.3433 O   0  0  0  0  0  0  0  0  0  0  0  0
   -2.7631   -1.4987   -0.8913 H   0  0  0  0  0  0  0  0  0  0  0  0
   -2.4208   -2.3061    0.7295 H   0  0  0  0  0  0  0  0  0  0  0  0
   -1.3419   -2.6034   -0.6631 H   0  0  0  0  0  0  0  0  0  0  0  0
   -0.5855   -0.8967    1.2465 H   0  0  0  0  0  0  0  0  0  0  0  0
   -2.0748    0.9100   -0.9147 H   0  0  0  0  0  0  0  0  0  0  0  0
   -1.5300    2.4566    0.8589 H   0  0  0  0  0  0  0  0  0  0  0  0
   -0.0416    2.4147   -0.1025 H   0  0  0  0  0  0  0  0  0  0  0  0
   -0.1013    1.4370    1.4395 H   0  0  0  0  0  0  0  0  0  0  0  0
   -0.2404   -0.6785   -1.8455 H   0  0  0  0  0  0  0  0  0  0  0  0
    4.0630    0.9020    1.1662 H   0  0  0  0  0  0  0  0  0  0  0  0
  1  2  1  0
  2  3  1  0
  3  4  1  0
  3  5  1  0
  5  6  1  0
  6  7  3  0
  7  8  1  0
  8  9  2  0
  5  2  1  0
  1 10  1  0
  1 11  1  0
  1 12  1  0
  2 13  1  0
  3 14  1  0
  4 15  1  0
  4 16  1  0
  4 17  1  0
  5 18  1  0
  8 19  1  0
M  END
