
     RDKit          3D

 19 19  0  0  0  0  0  0  0  0999 V2000
   -1.0294   -1.4456   -0.2871 C   0  0  0  0  0  0  0  0  0  0  0  0
   -0.5200   -0.1366   -0.8507 C   0  0  0  0  0  0  0  0  0  0  0  0
   -1.4785    0.9120   -0.4050 C   0  0  0  0  0  0  0  0  0  0  0  0
   -2.3612    1.4563   -1.0721 O   0  0  0  0  0  0  0  0  0  0  0  0
   -1.1023    1.1185    1.0011 C   0  0  0  0  0  0  0  0  0  0  0  0
    0.1697    0.7901    1.1591 C   0  0  0  0  0  0  0  0  0  0  0  0
    0.7156    0.3444   -0.1421 C   0  0  0  0  0  0  0  0  0  0  0  0
    1.7837   -0.6995   -0.0143 C   0  0  0  0  0  0  0  0  0  0  0  0
    1.2039    1.4587   -0.8102 O   0  0  0  0  0  0  0  0  0  0  0  0
   -0.6146   -1.6274    0.7415 H   0  0  0  0  0  0  0  0  0  0  0  0
   -0.8296   -2.2742   -0.9783 H   0  0  0  0  0  0  0  0  0  0  0  0
   -2.1468   -1.4090   -0.1219 H   0  0  0  0  0  0  0  0  0  0  0  0
   -0.4172   -0.1627   -1.9495 H   0  0  0  0  0  0  0  0  0  0  0  0
   -1.7398    1.4793    1.7906 H   0  0  0  0  0  0  0  0  0  0  0  0
    0.7132    0.8402    2.0826 H   0  0  0  0  0  0  0  0  0  0  0  0
    2.5168   -0.5079   -0.8279 H   0  0  0  0  0  0  0  0  0  0  0  0
    2.3386   -0.5679    0.9406 H   0  0  0  0  0  0  0  0  0  0  0  0
    1.3804   -1.7392   -0.1115 H   0  0  0  0  0  0  0  0  0  0  0  0
    1.4175    2.1706   -0.1448 H   0  0  0  0  0  0  0  0  0  0  0  0
  1  2  1  0
  2  3  1  0
  3  4  2  0
  3  5  1  0
  5  6  2  0
  6  7  1  0
  7  8  1  0
  7  9  1  0
  7  2  1  0
  1 10  1  0
  1 11  1  0
  1 12  1  0
  2 13  1  0
  5 14  1  0
  6 15  1  0
  8 16  1  0
  8 17  1  0
  8 18  1  0
  9 19  1  0
M  END
