
     RDKit          3D

 18 19  0  0  0  0  0  0  0  0999 V2000
    2.2013   -0.1042    0.1372 C   0  0  0  0  0  0  0  0  0  0  0  0
    0.7741   -0.2320   -0.4113 C   0  0  0  0  0  0  0  0  0  0  0  0
    0.2392    1.0865   -0.7593 C   0  0  0  0  0  0  0  0  0  0  0  0
   -1.0364    1.3864   -0.5805 C   0  0  0  0  0  0  0  0  0  0  0  0
   -2.0150    0.4187   -0.0184 C   0  0  0  0  0  0  0  0  0  0  0  0
   -2.1081   -0.7546   -0.7821 O   0  0  0  0  0  0  0  0  0  0  0  0
   -1.5052   -0.8264    0.4494 C   0  0  0  0  0  0  0  0  0  0  0  0
   -0.0215   -0.9857    0.5915 C   0  0  0  0  0  0  0  0  0  0  0  0
    2.3831   -0.9118    0.8826 H   0  0  0  0  0  0  0  0  0  0  0  0
    2.9533   -0.1823   -0.6525 H   0  0  0  0  0  0  0  0  0  0  0  0
    2.2426    0.8630    0.6815 H   0  0  0  0  0  0  0  0  0  0  0  0
    0.8913   -0.8121   -1.3660 H   0  0  0  0  0  0  0  0  0  0  0  0
    0.8873    1.8502   -1.1751 H   0  0  0  0  0  0  0  0  0  0  0  0
   -1.4033    2.3678   -0.8471 H   0  0  0  0  0  0  0  0  0  0  0  0
   -2.9196    0.8427    0.4301 H   0  0  0  0  0  0  0  0  0  0  0  0
   -2.0717   -1.3326    1.2837 H   0  0  0  0  0  0  0  0  0  0  0  0
    0.2735   -0.6067    1.6089 H   0  0  0  0  0  0  0  0  0  0  0  0
    0.2351   -2.0668    0.5275 H   0  0  0  0  0  0  0  0  0  0  0  0
  1  2  1  0
  2  3  1  0
  3  4  2  0
  4  5  1  0
  5  6  1  0
  6  7  1  0
  7  8  1  0
  8  2  1  0
  7  5  1  0
  1  9  1  0
  1 10  1  0
  1 11  1  0
  2 12  1  0
  3 13  1  0
  4 14  1  0
  5 15  1  0
  7 16  1  0
  8 17  1  0
  8 18  1  0
M  END
