
     RDKit          3D

 21 23  0  0  0  0  0  0  0  0999 V2000
    2.9331   -0.1185   -0.1214 C   0  0  0  0  0  0  0  0  0  0  0  0
    1.5446   -0.1071   -0.6571 C   0  0  0  0  0  0  0  0  0  0  0  0
    0.5423    0.5526    0.2460 C   0  0  0  0  0  0  0  0  0  0  0  0
   -0.7835    0.8296   -0.3883 C   0  0  0  0  0  0  0  0  0  0  0  0
   -1.8467    1.2204    0.5749 C   0  0  0  0  0  0  0  0  0  0  0  0
   -2.7438    0.1837    0.5907 O   0  0  0  0  0  0  0  0  0  0  0  0
   -2.0671   -0.9927    0.3364 C   0  0  0  0  0  0  0  0  0  0  0  0
   -0.9330   -0.6699   -0.6061 C   0  0  0  0  0  0  0  0  0  0  0  0
    0.4474   -0.8916   -0.0761 C   0  0  0  0  0  0  0  0  0  0  0  0
    3.1013    0.8740    0.3918 H   0  0  0  0  0  0  0  0  0  0  0  0
    3.1654   -0.9071    0.5879 H   0  0  0  0  0  0  0  0  0  0  0  0
    3.6671   -0.1234   -0.9597 H   0  0  0  0  0  0  0  0  0  0  0  0
    1.4443    0.1189   -1.7586 H   0  0  0  0  0  0  0  0  0  0  0  0
    0.7677    0.8078    1.2760 H   0  0  0  0  0  0  0  0  0  0  0  0
   -0.6682    1.4134   -1.3038 H   0  0  0  0  0  0  0  0  0  0  0  0
   -1.3719    1.4275    1.5597 H   0  0  0  0  0  0  0  0  0  0  0  0
   -2.2788    2.1873    0.2396 H   0  0  0  0  0  0  0  0  0  0  0  0
   -2.7773   -1.6590   -0.2172 H   0  0  0  0  0  0  0  0  0  0  0  0
   -1.7442   -1.4721    1.2652 H   0  0  0  0  0  0  0  0  0  0  0  0
   -1.0490   -0.9924   -1.6403 H   0  0  0  0  0  0  0  0  0  0  0  0
    0.6503   -1.6813    0.6603 H   0  0  0  0  0  0  0  0  0  0  0  0
  1  2  1  0
  2  3  1  0
  3  4  1  0
  4  5  1  0
  5  6  1  0
  6  7  1  0
  7  8  1  0
  8  9  1  0
  9  2  1  0
  9  3  1  0
  8  4  1  0
  1 10  1  0
  1 11  1  0
  1 12  1  0
  2 13  1  0
  3 14  1  0
  4 15  1  0
  5 16  1  0
  5 17  1  0
  7 18  1  0
  7 19  1  0
  8 20  1  0
  9 21  1  0
M  END
