
     RDKit          3D

 23 24  0  0  0  0  0  0  0  0999 V2000
   -2.1384   -0.8977    0.7947 C   0  0  0  0  0  0  0  0  0  0  0  0
   -1.4424   -0.3498   -0.4166 C   0  0  0  0  0  0  0  0  0  0  0  0
   -1.5946    1.1492   -0.6207 C   0  0  0  0  0  0  0  0  0  0  0  0
   -0.1244    1.1470   -1.0760 C   0  0  0  0  0  0  0  0  0  0  0  0
    0.0149   -0.1309   -0.3370 C   0  0  0  0  0  0  0  0  0  0  0  0
    0.9689   -1.1798   -0.5734 C   0  0  0  0  0  0  0  0  0  0  0  0
    0.8964   -0.3910    0.7642 C   0  0  0  0  0  0  0  0  0  0  0  0
    2.0743    0.5663    0.9589 C   0  0  0  0  0  0  0  0  0  0  0  0
    2.9063    0.5711   -0.1629 O   0  0  0  0  0  0  0  0  0  0  0  0
   -1.8143   -1.9475    0.9188 H   0  0  0  0  0  0  0  0  0  0  0  0
   -3.2294   -0.9432    0.5465 H   0  0  0  0  0  0  0  0  0  0  0  0
   -1.9265   -0.3692    1.7205 H   0  0  0  0  0  0  0  0  0  0  0  0
   -1.7979   -0.8762   -1.3241 H   0  0  0  0  0  0  0  0  0  0  0  0
   -2.2730    1.4479   -1.4194 H   0  0  0  0  0  0  0  0  0  0  0  0
   -1.7525    1.7330    0.3011 H   0  0  0  0  0  0  0  0  0  0  0  0
   -0.0353    0.9947   -2.1662 H   0  0  0  0  0  0  0  0  0  0  0  0
    0.3667    2.0404   -0.6690 H   0  0  0  0  0  0  0  0  0  0  0  0
    0.5957   -2.2402   -0.4675 H   0  0  0  0  0  0  0  0  0  0  0  0
    1.8374   -1.0023   -1.2124 H   0  0  0  0  0  0  0  0  0  0  0  0
    0.6467   -0.9626    1.6669 H   0  0  0  0  0  0  0  0  0  0  0  0
    2.6797    0.2961    1.8291 H   0  0  0  0  0  0  0  0  0  0  0  0
    1.7055    1.6190    1.0678 H   0  0  0  0  0  0  0  0  0  0  0  0
    3.4363   -0.2741   -0.1231 H   0  0  0  0  0  0  0  0  0  0  0  0
  1  2  1  0
  2  3  1  0
  3  4  1  0
  4  5  1  0
  5  6  1  0
  6  7  1  0
  7  8  1  0
  8  9  1  0
  5  2  1  0
  7  5  1  0
  1 10  1  0
  1 11  1  0
  1 12  1  0
  2 13  1  0
  3 14  1  0
  3 15  1  0
  4 16  1  0
  4 17  1  0
  6 18  1  0
  6 19  1  0
  7 20  1  0
  8 21  1  0
  8 22  1  0
  9 23  1  0
M  END
