
     RDKit          3D

 23 24  0  0  0  0  0  0  0  0999 V2000
    1.4404    1.2417    0.7143 C   0  0  0  0  0  0  0  0  0  0  0  0
    1.0197    0.2728   -0.3324 C   0  0  0  0  0  0  0  0  0  0  0  0
    1.7024   -1.0821   -0.1011 C   0  0  0  0  0  0  0  0  0  0  0  0
    0.3167   -1.6704    0.2060 C   0  0  0  0  0  0  0  0  0  0  0  0
    0.1454   -2.0272    1.5391 O   0  0  0  0  0  0  0  0  0  0  0  0
   -0.2632   -0.3963   -0.2455 C   0  0  0  0  0  0  0  0  0  0  0  0
   -1.1420   -0.3363   -1.4950 C   0  0  0  0  0  0  0  0  0  0  0  0
   -1.5942    0.0847   -0.1234 C   0  0  0  0  0  0  0  0  0  0  0  0
   -1.9920    1.5143    0.1307 C   0  0  0  0  0  0  0  0  0  0  0  0
    1.3116    2.2941    0.3582 H   0  0  0  0  0  0  0  0  0  0  0  0
    0.8531    1.1355    1.6354 H   0  0  0  0  0  0  0  0  0  0  0  0
    2.5454    1.1419    0.9013 H   0  0  0  0  0  0  0  0  0  0  0  0
    1.3021    0.6496   -1.3579 H   0  0  0  0  0  0  0  0  0  0  0  0
    2.1855   -1.5043   -0.9912 H   0  0  0  0  0  0  0  0  0  0  0  0
    2.3341   -1.1178    0.8066 H   0  0  0  0  0  0  0  0  0  0  0  0
    0.0541   -2.5373   -0.4499 H   0  0  0  0  0  0  0  0  0  0  0  0
    0.8797   -1.5795    2.0407 H   0  0  0  0  0  0  0  0  0  0  0  0
   -1.3875   -1.3718   -1.8587 H   0  0  0  0  0  0  0  0  0  0  0  0
   -0.8571    0.3855   -2.2546 H   0  0  0  0  0  0  0  0  0  0  0  0
   -2.3655   -0.6220    0.3068 H   0  0  0  0  0  0  0  0  0  0  0  0
   -3.0015    1.6522   -0.3553 H   0  0  0  0  0  0  0  0  0  0  0  0
   -2.1573    1.6159    1.2268 H   0  0  0  0  0  0  0  0  0  0  0  0
   -1.3299    2.2568   -0.3011 H   0  0  0  0  0  0  0  0  0  0  0  0
  1  2  1  0
  2  3  1  0
  3  4  1  0
  4  5  1  0
  4  6  1  0
  6  7  1  0
  7  8  1  0
  8  9  1  0
  6  2  1  0
  8  6  1  0
  1 10  1  0
  1 11  1  0
  1 12  1  0
  2 13  1  0
  3 14  1  0
  3 15  1  0
  4 16  1  0
  5 17  1  0
  7 18  1  0
  7 19  1  0
  8 20  1  0
  9 21  1  0
  9 22  1  0
  9 23  1  0
M  END
