
     RDKit          3D

 21 22  0  0  0  0  0  0  0  0999 V2000
    2.5847    0.2027   -0.8537 C   0  0  0  0  0  0  0  0  0  0  0  0
    1.8808   -0.7419    0.1006 C   0  0  0  0  0  0  0  0  0  0  0  0
    1.2127    0.0544    1.2034 C   0  0  0  0  0  0  0  0  0  0  0  0
    0.0312   -0.0161    0.2812 C   0  0  0  0  0  0  0  0  0  0  0  0
   -1.2724   -0.4290    0.8966 C   0  0  0  0  0  0  0  0  0  0  0  0
   -2.3130   -0.4280   -0.2236 C   0  0  0  0  0  0  0  0  0  0  0  0
   -2.5706    0.8550   -0.9449 C   0  0  0  0  0  0  0  0  0  0  0  0
   -3.4496    0.3408   -0.0223 O   0  0  0  0  0  0  0  0  0  0  0  0
    0.6178   -1.1472   -0.3332 O   0  0  0  0  0  0  0  0  0  0  0  0
    2.7861   -0.2516   -1.8299 H   0  0  0  0  0  0  0  0  0  0  0  0
    3.5106    0.5385   -0.3401 H   0  0  0  0  0  0  0  0  0  0  0  0
    1.9371    1.1195   -0.9332 H   0  0  0  0  0  0  0  0  0  0  0  0
    2.4821   -1.5954    0.4175 H   0  0  0  0  0  0  0  0  0  0  0  0
    1.1119   -0.4777    2.1655 H   0  0  0  0  0  0  0  0  0  0  0  0
    1.6042    1.0838    1.3425 H   0  0  0  0  0  0  0  0  0  0  0  0
   -0.0864    0.8422   -0.3895 H   0  0  0  0  0  0  0  0  0  0  0  0
   -1.6053    0.2974    1.6705 H   0  0  0  0  0  0  0  0  0  0  0  0
   -1.2439   -1.4261    1.3644 H   0  0  0  0  0  0  0  0  0  0  0  0
   -2.4145   -1.3681   -0.8230 H   0  0  0  0  0  0  0  0  0  0  0  0
   -2.8357    0.7918   -2.0322 H   0  0  0  0  0  0  0  0  0  0  0  0
   -1.9674    1.7550   -0.7165 H   0  0  0  0  0  0  0  0  0  0  0  0
  1  2  1  0
  2  3  1  0
  3  4  1  0
  4  5  1  0
  5  6  1  0
  6  7  1  0
  7  8  1  0
  4  9  1  0
  9  2  1  0
  8  6  1  0
  1 10  1  0
  1 11  1  0
  1 12  1  0
  2 13  1  0
  3 14  1  0
  3 15  1  0
  4 16  1  0
  5 17  1  0
  5 18  1  0
  6 19  1  0
  7 20  1  0
  7 21  1  0
M  END
