
     RDKit          3D

 23 23  0  0  0  0  0  0  0  0999 V2000
   -1.8120   -1.4357    0.7392 C   0  0  0  0  0  0  0  0  0  0  0  0
   -1.0748   -0.5803   -0.2373 C   0  0  0  0  0  0  0  0  0  0  0  0
   -1.6079    0.8087   -0.4547 C   0  0  0  0  0  0  0  0  0  0  0  0
   -2.8236    1.0364    0.1592 O   0  0  0  0  0  0  0  0  0  0  0  0
   -0.3934    1.3479    0.2484 C   0  0  0  0  0  0  0  0  0  0  0  0
    0.1881   -0.0170    0.3910 C   0  0  0  0  0  0  0  0  0  0  0  0
    1.3745   -0.3373   -0.4856 C   0  0  0  0  0  0  0  0  0  0  0  0
    2.6632    0.1892    0.0721 C   0  0  0  0  0  0  0  0  0  0  0  0
    3.6958   -0.1397   -0.7775 O   0  0  0  0  0  0  0  0  0  0  0  0
   -2.7744   -1.8109    0.2855 H   0  0  0  0  0  0  0  0  0  0  0  0
   -1.2136   -2.3293    0.9452 H   0  0  0  0  0  0  0  0  0  0  0  0
   -1.9952   -0.9143    1.6913 H   0  0  0  0  0  0  0  0  0  0  0  0
   -0.9315   -1.0867   -1.2022 H   0  0  0  0  0  0  0  0  0  0  0  0
   -1.6404    1.1330   -1.5151 H   0  0  0  0  0  0  0  0  0  0  0  0
   -3.2213    1.8866   -0.0910 H   0  0  0  0  0  0  0  0  0  0  0  0
    0.1995    2.0849   -0.3428 H   0  0  0  0  0  0  0  0  0  0  0  0
   -0.7014    1.8059    1.2167 H   0  0  0  0  0  0  0  0  0  0  0  0
    0.3676   -0.3077    1.4369 H   0  0  0  0  0  0  0  0  0  0  0  0
    1.4634   -1.4626   -0.4753 H   0  0  0  0  0  0  0  0  0  0  0  0
    1.2290    0.0407   -1.5127 H   0  0  0  0  0  0  0  0  0  0  0  0
    2.8818   -0.3213    1.0540 H   0  0  0  0  0  0  0  0  0  0  0  0
    2.6637    1.2653    0.2815 H   0  0  0  0  0  0  0  0  0  0  0  0
    3.4628   -0.8557   -1.4268 H   0  0  0  0  0  0  0  0  0  0  0  0
  1  2  1  0
  2  3  1  0
  3  4  1  0
  3  5  1  0
  5  6  1  0
  6  7  1  0
  7  8  1  0
  8  9  1  0
  6  2  1  0
  1 10  1  0
  1 11  1  0
  1 12  1  0
  2 13  1  0
  3 14  1  0
  4 15  1  0
  5 16  1  0
  5 17  1  0
  6 18  1  0
  7 19  1  0
  7 20  1  0
  8 21  1  0
  8 22  1  0
  9 23  1  0
M  END
