
     RDKit          3D

 21 22  0  0  0  0  0  0  0  0999 V2000
    1.7691   -1.0309   -0.1157 C   0  0  0  0  0  0  0  0  0  0  0  0
    0.6561   -0.1771   -0.6572 C   0  0  0  0  0  0  0  0  0  0  0  0
    1.0811    1.2758   -0.8258 C   0  0  0  0  0  0  0  0  0  0  0  0
   -0.1776    1.8842   -1.0102 O   0  0  0  0  0  0  0  0  0  0  0  0
   -0.9970    1.3432   -0.0231 C   0  0  0  0  0  0  0  0  0  0  0  0
   -1.8239    0.1492   -0.2916 C   0  0  0  0  0  0  0  0  0  0  0  0
   -1.9678   -0.3442   -1.6004 O   0  0  0  0  0  0  0  0  0  0  0  0
   -0.4919   -0.0214    0.2987 C   0  0  0  0  0  0  0  0  0  0  0  0
   -0.4021   -0.5149    1.7013 C   0  0  0  0  0  0  0  0  0  0  0  0
    2.1647   -0.6557    0.8411 H   0  0  0  0  0  0  0  0  0  0  0  0
    1.3910   -2.0586   -0.0428 H   0  0  0  0  0  0  0  0  0  0  0  0
    2.5768   -1.0370   -0.8742 H   0  0  0  0  0  0  0  0  0  0  0  0
    0.2953   -0.5862   -1.5974 H   0  0  0  0  0  0  0  0  0  0  0  0
    1.4971    1.6733    0.1044 H   0  0  0  0  0  0  0  0  0  0  0  0
    1.7137    1.3651   -1.7020 H   0  0  0  0  0  0  0  0  0  0  0  0
   -1.3569    2.0340    0.7384 H   0  0  0  0  0  0  0  0  0  0  0  0
   -2.7365    0.0075    0.3178 H   0  0  0  0  0  0  0  0  0  0  0  0
   -1.8869   -1.3444   -1.4977 H   0  0  0  0  0  0  0  0  0  0  0  0
   -1.1793    0.0252    2.3136 H   0  0  0  0  0  0  0  0  0  0  0  0
   -0.6880   -1.5952    1.7353 H   0  0  0  0  0  0  0  0  0  0  0  0
    0.5628   -0.3920    2.1873 H   0  0  0  0  0  0  0  0  0  0  0  0
  1  2  1  0
  2  3  1  0
  3  4  1  0
  4  5  1  0
  5  6  1  0
  6  7  1  0
  6  8  1  0
  8  9  1  0
  8  2  1  0
  8  5  1  0
  1 10  1  0
  1 11  1  0
  1 12  1  0
  2 13  1  0
  3 14  1  0
  3 15  1  0
  5 16  1  0
  6 17  1  0
  7 18  1  0
  9 19  1  0
  9 20  1  0
  9 21  1  0
M  END
