
     RDKit          3D

 25 26  0  0  0  0  0  0  0  0999 V2000
    2.7058   -0.5613    0.3020 C   0  0  0  0  0  0  0  0  0  0  0  0
    1.4448   -0.5048   -0.4841 C   0  0  0  0  0  0  0  0  0  0  0  0
    0.9347    0.9458   -0.5915 C   0  0  0  0  0  0  0  0  0  0  0  0
   -0.4558    0.7545   -0.0262 C   0  0  0  0  0  0  0  0  0  0  0  0
   -1.3560    1.8607    0.1044 C   0  0  0  0  0  0  0  0  0  0  0  0
   -0.1425   -0.1057    1.2063 C   0  0  0  0  0  0  0  0  0  0  0  0
    0.2608   -1.1293    0.1704 C   0  0  0  0  0  0  0  0  0  0  0  0
   -0.8857   -0.5363   -0.6671 C   0  0  0  0  0  0  0  0  0  0  0  0
   -2.2222   -1.0657   -0.2998 C   0  0  0  0  0  0  0  0  0  0  0  0
    3.0879   -1.5920    0.2812 H   0  0  0  0  0  0  0  0  0  0  0  0
    3.4364    0.1418   -0.1966 H   0  0  0  0  0  0  0  0  0  0  0  0
    2.5480   -0.2517    1.3330 H   0  0  0  0  0  0  0  0  0  0  0  0
    1.5371   -0.8965   -1.4998 H   0  0  0  0  0  0  0  0  0  0  0  0
    0.8632    1.2615   -1.6393 H   0  0  0  0  0  0  0  0  0  0  0  0
    1.5495    1.6239    0.0370 H   0  0  0  0  0  0  0  0  0  0  0  0
   -1.3385    2.3078    1.1341 H   0  0  0  0  0  0  0  0  0  0  0  0
   -2.4195    1.6782   -0.1574 H   0  0  0  0  0  0  0  0  0  0  0  0
   -1.0417    2.7174   -0.5627 H   0  0  0  0  0  0  0  0  0  0  0  0
   -1.0170   -0.3551    1.8204 H   0  0  0  0  0  0  0  0  0  0  0  0
    0.6511    0.3200    1.8165 H   0  0  0  0  0  0  0  0  0  0  0  0
    0.2217   -2.1590    0.3990 H   0  0  0  0  0  0  0  0  0  0  0  0
   -0.6588   -0.6541   -1.7334 H   0  0  0  0  0  0  0  0  0  0  0  0
   -2.9301   -0.8928   -1.1455 H   0  0  0  0  0  0  0  0  0  0  0  0
   -2.6406   -0.7166    0.6395 H   0  0  0  0  0  0  0  0  0  0  0  0
   -2.1325   -2.1905   -0.2404 H   0  0  0  0  0  0  0  0  0  0  0  0
  1  2  1  0
  2  3  1  0
  3  4  1  0
  4  5  1  0
  4  6  1  0
  6  7  1  0
  7  8  1  0
  8  9  1  0
  7  2  1  0
  8  4  1  0
  1 10  1  0
  1 11  1  0
  1 12  1  0
  2 13  1  0
  3 14  1  0
  3 15  1  0
  5 16  1  0
  5 17  1  0
  5 18  1  0
  6 19  1  0
  6 20  1  0
  7 21  1  0
  8 22  1  0
  9 23  1  0
  9 24  1  0
  9 25  1  0
M  END
