
     RDKit          3D

 25 26  0  0  0  0  0  0  0  0999 V2000
   -1.5878    0.2179    1.4086 C   0  0  0  0  0  0  0  0  0  0  0  0
   -1.3857    0.2928   -0.0627 C   0  0  0  0  0  0  0  0  0  0  0  0
   -1.7659   -0.9787   -0.8370 C   0  0  0  0  0  0  0  0  0  0  0  0
   -0.6510   -0.5431   -1.8029 C   0  0  0  0  0  0  0  0  0  0  0  0
    0.0311    0.0053   -0.5506 C   0  0  0  0  0  0  0  0  0  0  0  0
    0.7910   -1.0028    0.2326 C   0  0  0  0  0  0  0  0  0  0  0  0
    1.9239   -0.2787    0.9095 C   0  0  0  0  0  0  0  0  0  0  0  0
    1.7723    1.1649    0.5198 C   0  0  0  0  0  0  0  0  0  0  0  0
    0.9076    1.1763   -0.7445 C   0  0  0  0  0  0  0  0  0  0  0  0
   -2.3246   -0.5582    1.6843 H   0  0  0  0  0  0  0  0  0  0  0  0
   -0.6437   -0.0209    1.9475 H   0  0  0  0  0  0  0  0  0  0  0  0
   -1.9971    1.2008    1.7469 H   0  0  0  0  0  0  0  0  0  0  0  0
   -1.7802    1.1809   -0.5829 H   0  0  0  0  0  0  0  0  0  0  0  0
   -1.5157   -1.8876   -0.2606 H   0  0  0  0  0  0  0  0  0  0  0  0
   -2.7668   -0.9774   -1.2618 H   0  0  0  0  0  0  0  0  0  0  0  0
   -1.0591    0.2769   -2.4286 H   0  0  0  0  0  0  0  0  0  0  0  0
   -0.1358   -1.3539   -2.3066 H   0  0  0  0  0  0  0  0  0  0  0  0
    1.2523   -1.7216   -0.4848 H   0  0  0  0  0  0  0  0  0  0  0  0
    0.1692   -1.5866    0.9193 H   0  0  0  0  0  0  0  0  0  0  0  0
    1.8462   -0.3998    2.0091 H   0  0  0  0  0  0  0  0  0  0  0  0
    2.9247   -0.6790    0.6313 H   0  0  0  0  0  0  0  0  0  0  0  0
    1.2855    1.7009    1.3463 H   0  0  0  0  0  0  0  0  0  0  0  0
    2.7876    1.5822    0.3130 H   0  0  0  0  0  0  0  0  0  0  0  0
    1.6155    1.0892   -1.5893 H   0  0  0  0  0  0  0  0  0  0  0  0
    0.3067    2.1002   -0.7561 H   0  0  0  0  0  0  0  0  0  0  0  0
  1  2  1  0
  2  3  1  0
  3  4  1  0
  4  5  1  0
  5  6  1  0
  6  7  1  0
  7  8  1  0
  8  9  1  0
  5  2  1  0
  9  5  1  0
  1 10  1  0
  1 11  1  0
  1 12  1  0
  2 13  1  0
  3 14  1  0
  3 15  1  0
  4 16  1  0
  4 17  1  0
  6 18  1  0
  6 19  1  0
  7 20  1  0
  7 21  1  0
  8 22  1  0
  8 23  1  0
  9 24  1  0
  9 25  1  0
M  END
