
     RDKit          3D

 23 23  0  0  0  0  0  0  0  0999 V2000
   -2.3993   -1.0948   -0.0827 C   0  0  0  0  0  0  0  0  0  0  0  0
   -1.3041   -0.3147   -0.7528 C   0  0  0  0  0  0  0  0  0  0  0  0
   -0.7493    0.9187   -0.2029 C   0  0  0  0  0  0  0  0  0  0  0  0
   -1.3816    1.6132    0.9982 C   0  0  0  0  0  0  0  0  0  0  0  0
    0.0107   -0.3299    0.0294 C   0  0  0  0  0  0  0  0  0  0  0  0
    1.1942   -0.7133   -0.8000 C   0  0  0  0  0  0  0  0  0  0  0  0
    2.4358   -0.6974    0.0763 C   0  0  0  0  0  0  0  0  0  0  0  0
    2.6846    0.6526    0.6655 C   0  0  0  0  0  0  0  0  0  0  0  0
    2.0002    0.9954    1.6391 O   0  0  0  0  0  0  0  0  0  0  0  0
   -3.2833   -1.2020   -0.7379 H   0  0  0  0  0  0  0  0  0  0  0  0
   -1.9974   -2.1342    0.0781 H   0  0  0  0  0  0  0  0  0  0  0  0
   -2.6504   -0.7218    0.9321 H   0  0  0  0  0  0  0  0  0  0  0  0
   -1.2647   -0.4380   -1.8471 H   0  0  0  0  0  0  0  0  0  0  0  0
   -0.2896    1.6460   -0.9086 H   0  0  0  0  0  0  0  0  0  0  0  0
   -2.2625    2.1731    0.6288 H   0  0  0  0  0  0  0  0  0  0  0  0
   -0.6354    2.3684    1.3850 H   0  0  0  0  0  0  0  0  0  0  0  0
   -1.6361    0.9054    1.7997 H   0  0  0  0  0  0  0  0  0  0  0  0
   -0.0019   -0.7040    1.0705 H   0  0  0  0  0  0  0  0  0  0  0  0
    1.1206   -1.7303   -1.2236 H   0  0  0  0  0  0  0  0  0  0  0  0
    1.3705   -0.0095   -1.6405 H   0  0  0  0  0  0  0  0  0  0  0  0
    2.2780   -1.3770    0.9637 H   0  0  0  0  0  0  0  0  0  0  0  0
    3.3236   -1.1098   -0.4421 H   0  0  0  0  0  0  0  0  0  0  0  0
    3.4375    1.3040    0.2524 H   0  0  0  0  0  0  0  0  0  0  0  0
  1  2  1  0
  2  3  1  0
  3  4  1  0
  3  5  1  0
  5  6  1  0
  6  7  1  0
  7  8  1  0
  8  9  2  0
  5  2  1  0
  1 10  1  0
  1 11  1  0
  1 12  1  0
  2 13  1  0
  3 14  1  0
  4 15  1  0
  4 16  1  0
  4 17  1  0
  5 18  1  0
  6 19  1  0
  6 20  1  0
  7 21  1  0
  7 22  1  0
  8 23  1  0
M  END
