
     RDKit          3D

 23 24  0  0  0  0  0  0  0  0999 V2000
    1.7317   -0.7364   -0.9042 C   0  0  0  0  0  0  0  0  0  0  0  0
    0.9637   -0.9970    0.3596 C   0  0  0  0  0  0  0  0  0  0  0  0
    0.5421    0.1385    1.2378 C   0  0  0  0  0  0  0  0  0  0  0  0
    0.8052    1.5210    0.8890 C   0  0  0  0  0  0  0  0  0  0  0  0
    0.1870    2.1284   -0.0859 C   0  0  0  0  0  0  0  0  0  0  0  0
   -0.8162    1.4708   -0.9032 C   0  0  0  0  0  0  0  0  0  0  0  0
   -1.2094    0.0940   -0.5644 C   0  0  0  0  0  0  0  0  0  0  0  0
   -0.4664   -0.5929    0.5029 C   0  0  0  0  0  0  0  0  0  0  0  0
   -1.3040   -1.6509    1.2427 C   0  0  0  0  0  0  0  0  0  0  0  0
    2.6538   -0.1481   -0.7152 H   0  0  0  0  0  0  0  0  0  0  0  0
    2.0689   -1.7142   -1.3233 H   0  0  0  0  0  0  0  0  0  0  0  0
    1.1769   -0.2330   -1.6894 H   0  0  0  0  0  0  0  0  0  0  0  0
    1.3462   -1.8919    0.9197 H   0  0  0  0  0  0  0  0  0  0  0  0
    0.5532   -0.0400    2.3571 H   0  0  0  0  0  0  0  0  0  0  0  0
    1.5602    2.0780    1.4741 H   0  0  0  0  0  0  0  0  0  0  0  0
    0.4038    3.1860   -0.3350 H   0  0  0  0  0  0  0  0  0  0  0  0
   -0.4745    1.4752   -1.9835 H   0  0  0  0  0  0  0  0  0  0  0  0
   -1.6975    2.1847   -0.9468 H   0  0  0  0  0  0  0  0  0  0  0  0
   -1.2160   -0.5866   -1.4690 H   0  0  0  0  0  0  0  0  0  0  0  0
   -2.3014    0.1257   -0.2707 H   0  0  0  0  0  0  0  0  0  0  0  0
   -1.6977   -2.3118    0.4155 H   0  0  0  0  0  0  0  0  0  0  0  0
   -2.1406   -1.1974    1.7766 H   0  0  0  0  0  0  0  0  0  0  0  0
   -0.6690   -2.3022    1.8609 H   0  0  0  0  0  0  0  0  0  0  0  0
  1  2  1  0
  2  3  1  0
  3  4  1  0
  4  5  2  0
  5  6  1  0
  6  7  1  0
  7  8  1  0
  8  9  1  0
  8  2  1  0
  8  3  1  0
  1 10  1  0
  1 11  1  0
  1 12  1  0
  2 13  1  0
  3 14  1  0
  4 15  1  0
  5 16  1  0
  6 17  1  0
  6 18  1  0
  7 19  1  0
  7 20  1  0
  9 21  1  0
  9 22  1  0
  9 23  1  0
M  END
