
     RDKit          3D

 21 22  0  0  0  0  0  0  0  0999 V2000
    2.2238   -0.3995   -0.2563 C   0  0  0  0  0  0  0  0  0  0  0  0
    1.0712    0.1522    0.5028 C   0  0  0  0  0  0  0  0  0  0  0  0
    0.3317    1.2580   -0.1941 C   0  0  0  0  0  0  0  0  0  0  0  0
   -0.1840    0.2314   -1.1414 C   0  0  0  0  0  0  0  0  0  0  0  0
   -0.2836   -0.4435    0.2081 C   0  0  0  0  0  0  0  0  0  0  0  0
   -0.7084   -1.7154    0.4664 C   0  0  0  0  0  0  0  0  0  0  0  0
   -0.8347    0.8627    0.6919 C   0  0  0  0  0  0  0  0  0  0  0  0
   -2.1035    1.3039    0.1034 C   0  0  0  0  0  0  0  0  0  0  0  0
   -2.3902    2.4904    0.1318 O   0  0  0  0  0  0  0  0  0  0  0  0
    2.4304    0.1272   -1.2130 H   0  0  0  0  0  0  0  0  0  0  0  0
    2.1283   -1.4993   -0.4595 H   0  0  0  0  0  0  0  0  0  0  0  0
    3.1486   -0.2219    0.3689 H   0  0  0  0  0  0  0  0  0  0  0  0
    1.1925    0.3200    1.5771 H   0  0  0  0  0  0  0  0  0  0  0  0
    0.6446    2.1885   -0.3742 H   0  0  0  0  0  0  0  0  0  0  0  0
   -1.1622    0.4410   -1.6164 H   0  0  0  0  0  0  0  0  0  0  0  0
    0.5173   -0.2716   -1.8018 H   0  0  0  0  0  0  0  0  0  0  0  0
   -1.3025   -1.8548    1.3902 H   0  0  0  0  0  0  0  0  0  0  0  0
   -1.3432   -2.1789   -0.3463 H   0  0  0  0  0  0  0  0  0  0  0  0
    0.1431   -2.4545    0.5696 H   0  0  0  0  0  0  0  0  0  0  0  0
   -0.6873    1.0140    1.7621 H   0  0  0  0  0  0  0  0  0  0  0  0
   -2.8319    0.6500   -0.3691 H   0  0  0  0  0  0  0  0  0  0  0  0
  1  2  1  0
  2  3  1  0
  3  4  1  0
  4  5  1  0
  5  6  1  0
  5  7  1  0
  7  8  1  0
  8  9  2  0
  5  2  1  0
  7  3  1  0
  1 10  1  0
  1 11  1  0
  1 12  1  0
  2 13  1  0
  3 14  1  0
  4 15  1  0
  4 16  1  0
  6 17  1  0
  6 18  1  0
  6 19  1  0
  7 20  1  0
  8 21  1  0
M  END
