
     RDKit          3D

 21 21  0  0  0  0  0  0  0  0999 V2000
   -2.4745   -0.9572    0.2606 C   0  0  0  0  0  0  0  0  0  0  0  0
   -1.6078    0.0889   -0.4198 C   0  0  0  0  0  0  0  0  0  0  0  0
   -1.1898    1.2111    0.4554 C   0  0  0  0  0  0  0  0  0  0  0  0
   -0.1872    0.1201   -0.0355 C   0  0  0  0  0  0  0  0  0  0  0  0
    0.2278   -0.7653    0.9682 O   0  0  0  0  0  0  0  0  0  0  0  0
    0.9004    0.7246   -0.8462 C   0  0  0  0  0  0  0  0  0  0  0  0
    2.2208    0.5509   -0.1431 C   0  0  0  0  0  0  0  0  0  0  0  0
    2.6271   -0.8373    0.0208 C   0  0  0  0  0  0  0  0  0  0  0  0
    2.0533   -1.7962   -0.4351 O   0  0  0  0  0  0  0  0  0  0  0  0
   -2.2623   -1.0380    1.3510 H   0  0  0  0  0  0  0  0  0  0  0  0
   -3.5289   -0.5629    0.2002 H   0  0  0  0  0  0  0  0  0  0  0  0
   -2.4202   -1.9282   -0.2651 H   0  0  0  0  0  0  0  0  0  0  0  0
   -1.9100    0.2669   -1.4714 H   0  0  0  0  0  0  0  0  0  0  0  0
   -1.1620    2.1937   -0.0079 H   0  0  0  0  0  0  0  0  0  0  0  0
   -1.4209    1.2085    1.5349 H   0  0  0  0  0  0  0  0  0  0  0  0
   -0.3577   -1.5818    0.8684 H   0  0  0  0  0  0  0  0  0  0  0  0
    0.9940    0.2201   -1.8599 H   0  0  0  0  0  0  0  0  0  0  0  0
    0.7346    1.8270   -1.0158 H   0  0  0  0  0  0  0  0  0  0  0  0
    2.1963    1.0023    0.8901 H   0  0  0  0  0  0  0  0  0  0  0  0
    3.0350    1.1136   -0.6559 H   0  0  0  0  0  0  0  0  0  0  0  0
    3.5321   -1.0609    0.6064 H   0  0  0  0  0  0  0  0  0  0  0  0
  1  2  1  0
  2  3  1  0
  3  4  1  0
  4  5  1  0
  4  6  1  0
  6  7  1  0
  7  8  1  0
  8  9  2  0
  4  2  1  0
  1 10  1  0
  1 11  1  0
  1 12  1  0
  2 13  1  0
  3 14  1  0
  3 15  1  0
  5 16  1  0
  6 17  1  0
  6 18  1  0
  7 19  1  0
  7 20  1  0
  8 21  1  0
M  END
