
     RDKit          3D

 25 26  0  0  0  0  0  0  0  0999 V2000
    2.7980   -0.2523   -0.2553 C   0  0  0  0  0  0  0  0  0  0  0  0
    1.4151   -0.0849    0.2325 C   0  0  0  0  0  0  0  0  0  0  0  0
    0.5984   -1.3810    0.1960 C   0  0  0  0  0  0  0  0  0  0  0  0
   -0.7781   -0.8311    0.5514 C   0  0  0  0  0  0  0  0  0  0  0  0
   -1.8675   -1.1618   -0.4102 C   0  0  0  0  0  0  0  0  0  0  0  0
   -1.9592    0.2992   -0.8403 C   0  0  0  0  0  0  0  0  0  0  0  0
   -0.7946    0.5994    0.0335 C   0  0  0  0  0  0  0  0  0  0  0  0
   -0.9704    1.6421    1.0893 C   0  0  0  0  0  0  0  0  0  0  0  0
    0.5443    0.7662   -0.7019 C   0  0  0  0  0  0  0  0  0  0  0  0
    3.4956    0.1187    0.5532 H   0  0  0  0  0  0  0  0  0  0  0  0
    3.0557    0.3821   -1.1446 H   0  0  0  0  0  0  0  0  0  0  0  0
    3.0976   -1.3163   -0.4070 H   0  0  0  0  0  0  0  0  0  0  0  0
    1.3106    0.3064    1.2557 H   0  0  0  0  0  0  0  0  0  0  0  0
    0.6073   -1.7357   -0.8663 H   0  0  0  0  0  0  0  0  0  0  0  0
    0.9590   -2.1245    0.9037 H   0  0  0  0  0  0  0  0  0  0  0  0
   -0.9917   -0.9373    1.6226 H   0  0  0  0  0  0  0  0  0  0  0  0
   -1.5013   -1.8494   -1.1972 H   0  0  0  0  0  0  0  0  0  0  0  0
   -2.8141   -1.4968    0.0648 H   0  0  0  0  0  0  0  0  0  0  0  0
   -1.7068    0.4383   -1.9033 H   0  0  0  0  0  0  0  0  0  0  0  0
   -2.8987    0.7840   -0.4924 H   0  0  0  0  0  0  0  0  0  0  0  0
   -1.4489    2.5623    0.7050 H   0  0  0  0  0  0  0  0  0  0  0  0
   -1.4793    1.2612    2.0112 H   0  0  0  0  0  0  0  0  0  0  0  0
    0.0595    1.9383    1.4261 H   0  0  0  0  0  0  0  0  0  0  0  0
    0.8684    1.8014   -0.7466 H   0  0  0  0  0  0  0  0  0  0  0  0
    0.4012    0.2716   -1.6800 H   0  0  0  0  0  0  0  0  0  0  0  0
  1  2  1  0
  2  3  1  0
  3  4  1  0
  4  5  1  0
  5  6  1  0
  6  7  1  0
  7  8  1  0
  7  9  1  0
  9  2  1  0
  7  4  1  0
  1 10  1  0
  1 11  1  0
  1 12  1  0
  2 13  1  0
  3 14  1  0
  3 15  1  0
  4 16  1  0
  5 17  1  0
  5 18  1  0
  6 19  1  0
  6 20  1  0
  8 21  1  0
  8 22  1  0
  8 23  1  0
  9 24  1  0
  9 25  1  0
M  END
