
     RDKit          3D

 19 19  0  0  0  0  0  0  0  0999 V2000
    1.4905    0.2000   -1.3189 C   0  0  0  0  0  0  0  0  0  0  0  0
    0.7146    0.3985   -0.0633 C   0  0  0  0  0  0  0  0  0  0  0  0
    1.2852   -0.1764    1.1692 C   0  0  0  0  0  0  0  0  0  0  0  0
    2.3824   -0.3881    1.5940 O   0  0  0  0  0  0  0  0  0  0  0  0
   -0.1005   -0.3697    1.6352 C   0  0  0  0  0  0  0  0  0  0  0  0
   -0.4751   -0.4934    0.1537 C   0  0  0  0  0  0  0  0  0  0  0  0
   -0.3441   -1.8073   -0.2234 O   0  0  0  0  0  0  0  0  0  0  0  0
   -1.8175    0.1307   -0.1766 C   0  0  0  0  0  0  0  0  0  0  0  0
   -1.8541    1.4545    0.2413 O   0  0  0  0  0  0  0  0  0  0  0  0
    1.0578   -0.4909   -2.0403 H   0  0  0  0  0  0  0  0  0  0  0  0
    1.6398    1.1961   -1.8301 H   0  0  0  0  0  0  0  0  0  0  0  0
    2.5290   -0.1573   -1.0964 H   0  0  0  0  0  0  0  0  0  0  0  0
    0.4241    1.4555    0.1158 H   0  0  0  0  0  0  0  0  0  0  0  0
   -0.3014   -1.2814    2.2260 H   0  0  0  0  0  0  0  0  0  0  0  0
   -0.4841    0.5689    2.1108 H   0  0  0  0  0  0  0  0  0  0  0  0
   -0.0364   -1.9522   -1.1296 H   0  0  0  0  0  0  0  0  0  0  0  0
   -1.9651    0.0233   -1.2595 H   0  0  0  0  0  0  0  0  0  0  0  0
   -2.6162   -0.4042    0.3324 H   0  0  0  0  0  0  0  0  0  0  0  0
   -1.5290    2.0933   -0.4404 H   0  0  0  0  0  0  0  0  0  0  0  0
  1  2  1  0
  2  3  1  0
  3  4  2  0
  3  5  1  0
  5  6  1  0
  6  7  1  0
  6  8  1  0
  8  9  1  0
  6  2  1  0
  1 10  1  0
  1 11  1  0
  1 12  1  0
  2 13  1  0
  5 14  1  0
  5 15  1  0
  7 16  1  0
  8 17  1  0
  8 18  1  0
  9 19  1  0
M  END
