
     RDKit          3D

 21 22  0  0  0  0  0  0  0  0999 V2000
    1.8579   -1.0881    0.3401 C   0  0  0  0  0  0  0  0  0  0  0  0
    0.7762   -0.3927   -0.4761 C   0  0  0  0  0  0  0  0  0  0  0  0
    1.0179    1.0768   -0.4000 C   0  0  0  0  0  0  0  0  0  0  0  0
   -0.0576    1.8785   -0.2737 O   0  0  0  0  0  0  0  0  0  0  0  0
   -1.1676    1.3912    0.3309 C   0  0  0  0  0  0  0  0  0  0  0  0
   -0.9206    0.1554    1.1762 C   0  0  0  0  0  0  0  0  0  0  0  0
   -0.5782   -0.8070    0.0341 C   0  0  0  0  0  0  0  0  0  0  0  0
   -1.5998   -0.3606   -0.9944 C   0  0  0  0  0  0  0  0  0  0  0  0
   -2.0314    0.8924   -0.6379 O   0  0  0  0  0  0  0  0  0  0  0  0
    1.8560   -2.1742    0.2124 H   0  0  0  0  0  0  0  0  0  0  0  0
    1.8055   -0.7754    1.4062 H   0  0  0  0  0  0  0  0  0  0  0  0
    2.8413   -0.6913   -0.0322 H   0  0  0  0  0  0  0  0  0  0  0  0
    0.8690   -0.7952   -1.5072 H   0  0  0  0  0  0  0  0  0  0  0  0
    1.5467    1.3696   -1.3562 H   0  0  0  0  0  0  0  0  0  0  0  0
    1.7650    1.3391    0.4009 H   0  0  0  0  0  0  0  0  0  0  0  0
   -1.6696    2.1996    0.8966 H   0  0  0  0  0  0  0  0  0  0  0  0
   -0.1110    0.2637    1.8902 H   0  0  0  0  0  0  0  0  0  0  0  0
   -1.8847   -0.1745    1.5868 H   0  0  0  0  0  0  0  0  0  0  0  0
   -0.6495   -1.8453    0.3142 H   0  0  0  0  0  0  0  0  0  0  0  0
   -1.1933   -0.3972   -2.0183 H   0  0  0  0  0  0  0  0  0  0  0  0
   -2.4721   -1.0647   -0.8926 H   0  0  0  0  0  0  0  0  0  0  0  0
  1  2  1  0
  2  3  1  0
  3  4  1  0
  4  5  1  0
  5  6  1  0
  6  7  1  0
  7  8  1  0
  8  9  1  0
  7  2  1  0
  9  5  1  0
  1 10  1  0
  1 11  1  0
  1 12  1  0
  2 13  1  0
  3 14  1  0
  3 15  1  0
  5 16  1  0
  6 17  1  0
  6 18  1  0
  7 19  1  0
  8 20  1  0
  8 21  1  0
M  END
