
     RDKit          3D

 19 20  0  0  0  0  0  0  0  0999 V2000
    1.9575    0.4473   -0.5055 C   0  0  0  0  0  0  0  0  0  0  0  0
    0.8687   -0.3796    0.0389 C   0  0  0  0  0  0  0  0  0  0  0  0
   -0.1449    0.4052    0.8712 C   0  0  0  0  0  0  0  0  0  0  0  0
   -0.2280   -0.0387    2.1644 O   0  0  0  0  0  0  0  0  0  0  0  0
   -1.4763    0.1906    0.1145 C   0  0  0  0  0  0  0  0  0  0  0  0
   -2.0547   -1.0101    0.5032 O   0  0  0  0  0  0  0  0  0  0  0  0
   -0.8863    0.1418   -1.2594 C   0  0  0  0  0  0  0  0  0  0  0  0
   -0.5257   -0.8099   -2.0667 O   0  0  0  0  0  0  0  0  0  0  0  0
    0.0033   -1.0946   -0.9058 C   0  0  0  0  0  0  0  0  0  0  0  0
    2.5303    0.8752    0.3623 H   0  0  0  0  0  0  0  0  0  0  0  0
    1.6917    1.2845   -1.1399 H   0  0  0  0  0  0  0  0  0  0  0  0
    2.6560   -0.1973   -1.0559 H   0  0  0  0  0  0  0  0  0  0  0  0
    1.3347   -1.1176    0.7559 H   0  0  0  0  0  0  0  0  0  0  0  0
    0.1063    1.4675    0.7662 H   0  0  0  0  0  0  0  0  0  0  0  0
    0.1454    0.6759    2.7670 H   0  0  0  0  0  0  0  0  0  0  0  0
   -2.1471    1.0432    0.2469 H   0  0  0  0  0  0  0  0  0  0  0  0
   -2.9687   -1.0392    0.1768 H   0  0  0  0  0  0  0  0  0  0  0  0
   -0.3123    1.1051   -1.4351 H   0  0  0  0  0  0  0  0  0  0  0  0
   -0.5499   -1.9494   -0.3989 H   0  0  0  0  0  0  0  0  0  0  0  0
  1  2  1  0
  2  3  1  0
  3  4  1  0
  3  5  1  0
  5  6  1  0
  5  7  1  0
  7  8  1  0
  8  9  1  0
  9  2  1  0
  9  7  1  0
  1 10  1  0
  1 11  1  0
  1 12  1  0
  2 13  1  0
  3 14  1  0
  4 15  1  0
  5 16  1  0
  6 17  1  0
  7 18  1  0
  9 19  1  0
M  END
