
     RDKit          3D

 16 16  0  0  0  0  0  0  0  0999 V2000
   -1.7075   -0.0117   -0.4809 C   0  0  0  0  0  0  0  0  0  0  0  0
   -0.6104   -0.4982    0.4024 C   0  0  0  0  0  0  0  0  0  0  0  0
    0.4650   -1.2752   -0.2482 C   0  0  0  0  0  0  0  0  0  0  0  0
    0.5134   -2.3059   -0.8688 O   0  0  0  0  0  0  0  0  0  0  0  0
    1.4661   -0.2712    0.1722 C   0  0  0  0  0  0  0  0  0  0  0  0
    2.1471    0.3756   -0.8432 O   0  0  0  0  0  0  0  0  0  0  0  0
    0.3945    0.5571    0.8355 C   0  0  0  0  0  0  0  0  0  0  0  0
    0.2598    1.7801    0.1885 O   0  0  0  0  0  0  0  0  0  0  0  0
   -1.5411   -0.2716   -1.5546 H   0  0  0  0  0  0  0  0  0  0  0  0
   -1.8910    1.0939   -0.3979 H   0  0  0  0  0  0  0  0  0  0  0  0
   -2.6955   -0.4809   -0.2015 H   0  0  0  0  0  0  0  0  0  0  0  0
   -1.0410   -0.9932    1.3167 H   0  0  0  0  0  0  0  0  0  0  0  0
    2.2008   -0.6440    0.9318 H   0  0  0  0  0  0  0  0  0  0  0  0
    2.0242   -0.0094   -1.7294 H   0  0  0  0  0  0  0  0  0  0  0  0
    0.5141    0.6588    1.9104 H   0  0  0  0  0  0  0  0  0  0  0  0
   -0.4985    2.2959    0.5672 H   0  0  0  0  0  0  0  0  0  0  0  0
  1  2  1  0
  2  3  1  0
  3  4  2  0
  3  5  1  0
  5  6  1  0
  5  7  1  0
  7  8  1  0
  7  2  1  0
  1  9  1  0
  1 10  1  0
  1 11  1  0
  2 12  1  0
  5 13  1  0
  6 14  1  0
  7 15  1  0
  8 16  1  0
M  END
