
     RDKit          3D

 20 21  0  0  0  0  0  0  0  0999 V2000
    2.2202    0.0558    0.8811 C   0  0  0  0  0  0  0  0  0  0  0  0
    1.0828   -0.0935   -0.0706 C   0  0  0  0  0  0  0  0  0  0  0  0
    0.2484   -1.3359    0.0569 C   0  0  0  0  0  0  0  0  0  0  0  0
   -0.8892   -0.4848    0.6367 C   0  0  0  0  0  0  0  0  0  0  0  0
   -2.1654   -0.7401   -0.0842 C   0  0  0  0  0  0  0  0  0  0  0  0
   -0.1132    0.7129    0.3434 C   0  0  0  0  0  0  0  0  0  0  0  0
   -0.3797    1.9746   -0.0815 C   0  0  0  0  0  0  0  0  0  0  0  0
   -0.0186    1.7147    1.2711 O   0  0  0  0  0  0  0  0  0  0  0  0
    2.1681    1.0355    1.4331 H   0  0  0  0  0  0  0  0  0  0  0  0
    3.1649   -0.0092    0.2916 H   0  0  0  0  0  0  0  0  0  0  0  0
    2.2107   -0.8090    1.5729 H   0  0  0  0  0  0  0  0  0  0  0  0
    1.3346    0.1006   -1.1503 H   0  0  0  0  0  0  0  0  0  0  0  0
   -0.0251   -1.7987   -0.9124 H   0  0  0  0  0  0  0  0  0  0  0  0
    0.7026   -2.0307    0.7725 H   0  0  0  0  0  0  0  0  0  0  0  0
   -0.9876   -0.6974    1.7239 H   0  0  0  0  0  0  0  0  0  0  0  0
   -3.0236   -0.3734    0.5310 H   0  0  0  0  0  0  0  0  0  0  0  0
   -2.3092   -1.8588   -0.1185 H   0  0  0  0  0  0  0  0  0  0  0  0
   -2.1840   -0.3721   -1.1125 H   0  0  0  0  0  0  0  0  0  0  0  0
    0.3753    2.6031   -0.6078 H   0  0  0  0  0  0  0  0  0  0  0  0
   -1.4123    2.4065   -0.2313 H   0  0  0  0  0  0  0  0  0  0  0  0
  1  2  1  0
  2  3  1  0
  3  4  1  0
  4  5  1  0
  4  6  1  0
  6  7  1  0
  7  8  1  0
  6  2  1  0
  8  6  1  0
  1  9  1  0
  1 10  1  0
  1 11  1  0
  2 12  1  0
  3 13  1  0
  3 14  1  0
  4 15  1  0
  5 16  1  0
  5 17  1  0
  5 18  1  0
  7 19  1  0
  7 20  1  0
M  END
