
     RDKit          3D

 16 16  0  0  0  0  0  0  0  0999 V2000
   -2.1677    0.0588   -0.0674 C   0  0  0  0  0  0  0  0  0  0  0  0
   -0.7667   -0.1090    0.5280 C   0  0  0  0  0  0  0  0  0  0  0  0
   -0.0564   -1.2459   -0.1039 C   0  0  0  0  0  0  0  0  0  0  0  0
    1.1616   -0.8678   -0.4549 C   0  0  0  0  0  0  0  0  0  0  0  0
    1.4254    0.5545   -0.1093 C   0  0  0  0  0  0  0  0  0  0  0  0
    2.3127    0.5935    0.9831 O   0  0  0  0  0  0  0  0  0  0  0  0
    0.0937    1.0549    0.2445 C   0  0  0  0  0  0  0  0  0  0  0  0
   -0.2119    2.2284    0.2867 O   0  0  0  0  0  0  0  0  0  0  0  0
   -2.1500   -0.1756   -1.1358 H   0  0  0  0  0  0  0  0  0  0  0  0
   -2.4081    1.1370    0.0285 H   0  0  0  0  0  0  0  0  0  0  0  0
   -2.9255   -0.5063    0.5086 H   0  0  0  0  0  0  0  0  0  0  0  0
   -0.8886   -0.2920    1.6266 H   0  0  0  0  0  0  0  0  0  0  0  0
   -0.4301   -2.2657   -0.2805 H   0  0  0  0  0  0  0  0  0  0  0  0
    1.9030   -1.4943   -0.9381 H   0  0  0  0  0  0  0  0  0  0  0  0
    1.9236    1.0945   -0.9257 H   0  0  0  0  0  0  0  0  0  0  0  0
    3.1850    0.2350    0.6352 H   0  0  0  0  0  0  0  0  0  0  0  0
  1  2  1  0
  2  3  1  0
  3  4  2  0
  4  5  1  0
  5  6  1  0
  5  7  1  0
  7  8  2  0
  7  2  1  0
  1  9  1  0
  1 10  1  0
  1 11  1  0
  2 12  1  0
  3 13  1  0
  4 14  1  0
  5 15  1  0
  6 16  1  0
M  END
