
     RDKit          3D

 17 18  0  0  0  0  0  0  0  0999 V2000
   -1.4756   -1.1548   -0.6527 C   0  0  0  0  0  0  0  0  0  0  0  0
   -0.8235   -0.2910    0.3790 C   0  0  0  0  0  0  0  0  0  0  0  0
    0.5280    0.2584    0.0409 C   0  0  0  0  0  0  0  0  0  0  0  0
    1.6086   -0.2006    0.7917 O   0  0  0  0  0  0  0  0  0  0  0  0
    2.7501   -0.7307    0.1931 C   0  0  0  0  0  0  0  0  0  0  0  0
    2.7937   -0.7909   -1.0592 O   0  0  0  0  0  0  0  0  0  0  0  0
    0.0782    1.6467    0.3349 C   0  0  0  0  0  0  0  0  0  0  0  0
   -0.8274    1.9443    1.3125 O   0  0  0  0  0  0  0  0  0  0  0  0
   -1.3524    1.1266    0.3498 C   0  0  0  0  0  0  0  0  0  0  0  0
   -0.7293   -1.5436   -1.3939 H   0  0  0  0  0  0  0  0  0  0  0  0
   -2.0136   -2.0022   -0.1471 H   0  0  0  0  0  0  0  0  0  0  0  0
   -2.2884   -0.6003   -1.1994 H   0  0  0  0  0  0  0  0  0  0  0  0
   -0.9285   -0.6936    1.4212 H   0  0  0  0  0  0  0  0  0  0  0  0
    0.7034    0.1440   -1.0691 H   0  0  0  0  0  0  0  0  0  0  0  0
    3.5978   -1.0906    0.7903 H   0  0  0  0  0  0  0  0  0  0  0  0
    0.3332    2.4931   -0.3346 H   0  0  0  0  0  0  0  0  0  0  0  0
   -1.9540    1.4853   -0.4821 H   0  0  0  0  0  0  0  0  0  0  0  0
  1  2  1  0
  2  3  1  0
  3  4  1  0
  4  5  1  0
  5  6  2  0
  3  7  1  0
  7  8  1  0
  8  9  1  0
  9  2  1  0
  9  7  1  0
  1 10  1  0
  1 11  1  0
  1 12  1  0
  2 13  1  0
  3 14  1  0
  5 15  1  0
  7 16  1  0
  9 17  1  0
M  END
