
     RDKit          3D

 23 23  0  0  0  0  0  0  0  0999 V2000
    2.2125   -0.4430   -0.7046 C   0  0  0  0  0  0  0  0  0  0  0  0
    1.1486    0.0379    0.2315 C   0  0  0  0  0  0  0  0  0  0  0  0
    0.5505   -1.0427    1.0821 C   0  0  0  0  0  0  0  0  0  0  0  0
   -0.8290   -0.4505    1.3951 C   0  0  0  0  0  0  0  0  0  0  0  0
   -1.2684    0.2156    0.1215 C   0  0  0  0  0  0  0  0  0  0  0  0
   -2.0682   -0.7042   -0.7681 C   0  0  0  0  0  0  0  0  0  0  0  0
   -0.0021    0.6868   -0.5161 C   0  0  0  0  0  0  0  0  0  0  0  0
    0.1121    2.1673   -0.4102 C   0  0  0  0  0  0  0  0  0  0  0  0
    0.7837    2.6467    0.4890 O   0  0  0  0  0  0  0  0  0  0  0  0
    2.2754    0.3170   -1.5372 H   0  0  0  0  0  0  0  0  0  0  0  0
    1.9730   -1.4196   -1.1585 H   0  0  0  0  0  0  0  0  0  0  0  0
    3.2334   -0.4199   -0.2412 H   0  0  0  0  0  0  0  0  0  0  0  0
    1.6109    0.8137    0.9028 H   0  0  0  0  0  0  0  0  0  0  0  0
    1.1226   -1.1329    2.0390 H   0  0  0  0  0  0  0  0  0  0  0  0
    0.4394   -1.9993    0.5524 H   0  0  0  0  0  0  0  0  0  0  0  0
   -1.5087   -1.2110    1.7722 H   0  0  0  0  0  0  0  0  0  0  0  0
   -0.6784    0.3741    2.1468 H   0  0  0  0  0  0  0  0  0  0  0  0
   -1.9288    1.0723    0.3713 H   0  0  0  0  0  0  0  0  0  0  0  0
   -3.0919   -0.8100   -0.3927 H   0  0  0  0  0  0  0  0  0  0  0  0
   -2.1319   -0.2103   -1.7702 H   0  0  0  0  0  0  0  0  0  0  0  0
   -1.6090   -1.6804   -0.9284 H   0  0  0  0  0  0  0  0  0  0  0  0
    0.0249    0.3444   -1.5854 H   0  0  0  0  0  0  0  0  0  0  0  0
   -0.3706    2.8480   -1.0912 H   0  0  0  0  0  0  0  0  0  0  0  0
  1  2  1  0
  2  3  1  0
  3  4  1  0
  4  5  1  0
  5  6  1  0
  5  7  1  0
  7  8  1  0
  8  9  2  0
  7  2  1  0
  1 10  1  0
  1 11  1  0
  1 12  1  0
  2 13  1  0
  3 14  1  0
  3 15  1  0
  4 16  1  0
  4 17  1  0
  5 18  1  0
  6 19  1  0
  6 20  1  0
  6 21  1  0
  7 22  1  0
  8 23  1  0
M  END
