
     RDKit          3D

 18 18  0  0  0  0  0  0  0  0999 V2000
   -2.2207    0.3361   -0.0801 C   0  0  0  0  0  0  0  0  0  0  0  0
   -0.7666    0.2412    0.2865 C   0  0  0  0  0  0  0  0  0  0  0  0
   -0.1506   -1.0782   -0.1227 C   0  0  0  0  0  0  0  0  0  0  0  0
    1.2069   -1.1619    0.5469 C   0  0  0  0  0  0  0  0  0  0  0  0
    2.0375   -0.0607    0.0221 C   0  0  0  0  0  0  0  0  0  0  0  0
    1.4862    1.0903   -0.3944 C   0  0  0  0  0  0  0  0  0  0  0  0
    0.0486    1.3021   -0.3468 C   0  0  0  0  0  0  0  0  0  0  0  0
   -0.4523    2.3410   -0.8258 O   0  0  0  0  0  0  0  0  0  0  0  0
   -2.8753    0.1077    0.7842 H   0  0  0  0  0  0  0  0  0  0  0  0
   -2.4140   -0.3838   -0.8935 H   0  0  0  0  0  0  0  0  0  0  0  0
   -2.4136    1.3869   -0.3874 H   0  0  0  0  0  0  0  0  0  0  0  0
   -0.6799    0.3304    1.3991 H   0  0  0  0  0  0  0  0  0  0  0  0
   -0.7796   -1.9382    0.1570 H   0  0  0  0  0  0  0  0  0  0  0  0
    0.0315   -1.0521   -1.2298 H   0  0  0  0  0  0  0  0  0  0  0  0
    1.6467   -2.1389    0.2604 H   0  0  0  0  0  0  0  0  0  0  0  0
    1.0913   -1.0178    1.6235 H   0  0  0  0  0  0  0  0  0  0  0  0
    3.1019   -0.2061   -0.0177 H   0  0  0  0  0  0  0  0  0  0  0  0
    2.1021    1.9022   -0.7816 H   0  0  0  0  0  0  0  0  0  0  0  0
  1  2  1  0
  2  3  1  0
  3  4  1  0
  4  5  1  0
  5  6  2  0
  6  7  1  0
  7  8  2  0
  7  2  1  0
  1  9  1  0
  1 10  1  0
  1 11  1  0
  2 12  1  0
  3 13  1  0
  3 14  1  0
  4 15  1  0
  4 16  1  0
  5 17  1  0
  6 18  1  0
M  END
