
     RDKit          3D

 21 22  0  0  0  0  0  0  0  0999 V2000
    2.0750   -0.7194    0.5136 C   0  0  0  0  0  0  0  0  0  0  0  0
    1.0016   -0.5073   -0.4979 C   0  0  0  0  0  0  0  0  0  0  0  0
    0.1225    0.6509   -0.3494 C   0  0  0  0  0  0  0  0  0  0  0  0
    0.0031    1.4677    0.8835 C   0  0  0  0  0  0  0  0  0  0  0  0
   -0.8540    0.9104   -1.4690 C   0  0  0  0  0  0  0  0  0  0  0  0
   -1.4792   -0.4442   -1.1539 C   0  0  0  0  0  0  0  0  0  0  0  0
   -0.4103   -0.7940   -0.1849 C   0  0  0  0  0  0  0  0  0  0  0  0
   -0.8146   -1.2287    1.1561 C   0  0  0  0  0  0  0  0  0  0  0  0
   -2.0035   -1.3761    1.4215 O   0  0  0  0  0  0  0  0  0  0  0  0
    2.5037   -1.7612    0.4459 H   0  0  0  0  0  0  0  0  0  0  0  0
    2.9401   -0.0563    0.2192 H   0  0  0  0  0  0  0  0  0  0  0  0
    1.8098   -0.4402    1.5308 H   0  0  0  0  0  0  0  0  0  0  0  0
    1.3139   -0.7532   -1.5443 H   0  0  0  0  0  0  0  0  0  0  0  0
    0.5714    2.4073    0.7649 H   0  0  0  0  0  0  0  0  0  0  0  0
    0.3091    0.9197    1.8061 H   0  0  0  0  0  0  0  0  0  0  0  0
   -1.0806    1.7738    0.9791 H   0  0  0  0  0  0  0  0  0  0  0  0
   -0.3306    0.9375   -2.4419 H   0  0  0  0  0  0  0  0  0  0  0  0
   -1.5106    1.7721   -1.3503 H   0  0  0  0  0  0  0  0  0  0  0  0
   -2.4634   -0.2504   -0.6408 H   0  0  0  0  0  0  0  0  0  0  0  0
   -1.5875   -1.0708   -2.0492 H   0  0  0  0  0  0  0  0  0  0  0  0
   -0.1161   -1.4376    1.9608 H   0  0  0  0  0  0  0  0  0  0  0  0
  1  2  1  0
  2  3  1  0
  3  4  1  0
  3  5  1  0
  5  6  1  0
  6  7  1  0
  7  8  1  0
  8  9  2  0
  7  2  1  0
  7  3  1  0
  1 10  1  0
  1 11  1  0
  1 12  1  0
  2 13  1  0
  4 14  1  0
  4 15  1  0
  4 16  1  0
  5 17  1  0
  5 18  1  0
  6 19  1  0
  6 20  1  0
  8 21  1  0
M  END
