
     RDKit          3D

 23 23  0  0  0  0  0  0  0  0999 V2000
    2.6957    0.4397   -0.5733 C   0  0  0  0  0  0  0  0  0  0  0  0
    1.4235    0.0922    0.1121 C   0  0  0  0  0  0  0  0  0  0  0  0
    0.1942    0.2830   -0.7558 C   0  0  0  0  0  0  0  0  0  0  0  0
   -1.0019   -0.0817    0.0444 C   0  0  0  0  0  0  0  0  0  0  0  0
   -1.6769    1.2343    0.4698 C   0  0  0  0  0  0  0  0  0  0  0  0
   -2.0329   -0.7507   -0.8735 C   0  0  0  0  0  0  0  0  0  0  0  0
   -0.8146   -0.8213    1.1482 O   0  0  0  0  0  0  0  0  0  0  0  0
    0.3797   -1.3499    1.4383 C   0  0  0  0  0  0  0  0  0  0  0  0
    1.3616   -1.2694    0.4906 O   0  0  0  0  0  0  0  0  0  0  0  0
    3.4559    0.6710    0.2010 H   0  0  0  0  0  0  0  0  0  0  0  0
    3.0569   -0.3282   -1.2557 H   0  0  0  0  0  0  0  0  0  0  0  0
    2.5134    1.3859   -1.1567 H   0  0  0  0  0  0  0  0  0  0  0  0
    1.2682    0.7068    1.0170 H   0  0  0  0  0  0  0  0  0  0  0  0
    0.2053    1.3571   -1.0686 H   0  0  0  0  0  0  0  0  0  0  0  0
    0.3054   -0.3373   -1.6757 H   0  0  0  0  0  0  0  0  0  0  0  0
   -1.0182    1.7883    1.1530 H   0  0  0  0  0  0  0  0  0  0  0  0
   -2.6808    1.0347    0.8481 H   0  0  0  0  0  0  0  0  0  0  0  0
   -1.7740    1.8184   -0.4855 H   0  0  0  0  0  0  0  0  0  0  0  0
   -1.6581   -1.6764   -1.3047 H   0  0  0  0  0  0  0  0  0  0  0  0
   -2.9382   -0.8883   -0.2266 H   0  0  0  0  0  0  0  0  0  0  0  0
   -2.3446   -0.0121   -1.6543 H   0  0  0  0  0  0  0  0  0  0  0  0
    0.2910   -2.4366    1.7363 H   0  0  0  0  0  0  0  0  0  0  0  0
    0.7895   -0.8594    2.3716 H   0  0  0  0  0  0  0  0  0  0  0  0
  1  2  1  0
  2  3  1  0
  3  4  1  0
  4  5  1  0
  4  6  1  0
  4  7  1  0
  7  8  1  0
  8  9  1  0
  9  2  1  0
  1 10  1  0
  1 11  1  0
  1 12  1  0
  2 13  1  0
  3 14  1  0
  3 15  1  0
  5 16  1  0
  5 17  1  0
  5 18  1  0
  6 19  1  0
  6 20  1  0
  6 21  1  0
  8 22  1  0
  8 23  1  0
M  END
