
     RDKit          3D

 21 21  0  0  0  0  0  0  0  0999 V2000
   -0.5966    1.8294    0.1470 C   0  0  0  0  0  0  0  0  0  0  0  0
   -0.4116    0.4812   -0.4867 C   0  0  0  0  0  0  0  0  0  0  0  0
   -1.3415   -0.5005    0.1713 C   0  0  0  0  0  0  0  0  0  0  0  0
   -2.4926   -0.6519   -0.6174 O   0  0  0  0  0  0  0  0  0  0  0  0
   -0.5857   -1.7573    0.2399 C   0  0  0  0  0  0  0  0  0  0  0  0
    0.6790   -1.5209   -0.0368 C   0  0  0  0  0  0  0  0  0  0  0  0
    0.9505   -0.0940   -0.3265 C   0  0  0  0  0  0  0  0  0  0  0  0
    1.7693    0.5060    0.7623 C   0  0  0  0  0  0  0  0  0  0  0  0
    1.6616   -0.0496   -1.5410 O   0  0  0  0  0  0  0  0  0  0  0  0
   -1.5835    2.2245   -0.2216 H   0  0  0  0  0  0  0  0  0  0  0  0
   -0.7127    1.7389    1.2470 H   0  0  0  0  0  0  0  0  0  0  0  0
    0.1594    2.5717   -0.1410 H   0  0  0  0  0  0  0  0  0  0  0  0
   -0.6348    0.5604   -1.5777 H   0  0  0  0  0  0  0  0  0  0  0  0
   -1.6978   -0.1530    1.1723 H   0  0  0  0  0  0  0  0  0  0  0  0
   -3.0336   -1.3894   -0.2643 H   0  0  0  0  0  0  0  0  0  0  0  0
   -1.0122   -2.7484    0.4857 H   0  0  0  0  0  0  0  0  0  0  0  0
    1.4574   -2.2802   -0.0557 H   0  0  0  0  0  0  0  0  0  0  0  0
    2.7130    0.9691    0.3508 H   0  0  0  0  0  0  0  0  0  0  0  0
    2.1293   -0.2633    1.4895 H   0  0  0  0  0  0  0  0  0  0  0  0
    1.2755    1.2827    1.3511 H   0  0  0  0  0  0  0  0  0  0  0  0
    1.3075   -0.7554   -2.1479 H   0  0  0  0  0  0  0  0  0  0  0  0
  1  2  1  0
  2  3  1  0
  3  4  1  0
  3  5  1  0
  5  6  2  0
  6  7  1  0
  7  8  1  0
  7  9  1  0
  7  2  1  0
  1 10  1  0
  1 11  1  0
  1 12  1  0
  2 13  1  0
  3 14  1  0
  4 15  1  0
  5 16  1  0
  6 17  1  0
  8 18  1  0
  8 19  1  0
  8 20  1  0
  9 21  1  0
M  END
