
     RDKit          3D

 19 19  0  0  0  0  0  0  0  0999 V2000
   -2.1684    0.3516    0.5561 C   0  0  0  0  0  0  0  0  0  0  0  0
   -1.1200   -0.5678    0.0277 C   0  0  0  0  0  0  0  0  0  0  0  0
    0.1261   -0.6450    0.9222 C   0  0  0  0  0  0  0  0  0  0  0  0
    0.9381   -0.5877   -0.3239 C   0  0  0  0  0  0  0  0  0  0  0  0
    2.2428    0.1153   -0.2667 C   0  0  0  0  0  0  0  0  0  0  0  0
   -0.2012    0.1048   -1.0034 C   0  0  0  0  0  0  0  0  0  0  0  0
   -0.2929    1.4557   -0.8917 O   0  0  0  0  0  0  0  0  0  0  0  0
   -1.6431    1.2151    1.0365 H   0  0  0  0  0  0  0  0  0  0  0  0
   -2.7696   -0.1708    1.3053 H   0  0  0  0  0  0  0  0  0  0  0  0
   -2.8401    0.7207   -0.2372 H   0  0  0  0  0  0  0  0  0  0  0  0
   -1.4343   -1.5687   -0.2989 H   0  0  0  0  0  0  0  0  0  0  0  0
    0.1740    0.3254    1.4982 H   0  0  0  0  0  0  0  0  0  0  0  0
    0.1834   -1.5499    1.5370 H   0  0  0  0  0  0  0  0  0  0  0  0
    1.0695   -1.6136   -0.7581 H   0  0  0  0  0  0  0  0  0  0  0  0
    2.2086    1.1680   -0.0104 H   0  0  0  0  0  0  0  0  0  0  0  0
    2.8823   -0.3944    0.4858 H   0  0  0  0  0  0  0  0  0  0  0  0
    2.7254    0.0320   -1.2686 H   0  0  0  0  0  0  0  0  0  0  0  0
   -0.4077   -0.2921   -2.0115 H   0  0  0  0  0  0  0  0  0  0  0  0
    0.3272    1.9015   -0.2984 H   0  0  0  0  0  0  0  0  0  0  0  0
  1  2  1  0
  2  3  1  0
  3  4  1  0
  4  5  1  0
  4  6  1  0
  6  7  1  0
  6  2  1  0
  1  8  1  0
  1  9  1  0
  1 10  1  0
  2 11  1  0
  3 12  1  0
  3 13  1  0
  4 14  1  0
  5 15  1  0
  5 16  1  0
  5 17  1  0
  6 18  1  0
  7 19  1  0
M  END
