
     RDKit          3D

 19 19  0  0  0  0  0  0  0  0999 V2000
   -2.0504   -0.1244   -0.8611 C   0  0  0  0  0  0  0  0  0  0  0  0
   -0.9492    0.2636    0.0781 C   0  0  0  0  0  0  0  0  0  0  0  0
    0.1852    1.1192   -0.3669 C   0  0  0  0  0  0  0  0  0  0  0  0
    0.8099    1.9830    0.5085 O   0  0  0  0  0  0  0  0  0  0  0  0
    0.4076   -0.3393   -0.0693 C   0  0  0  0  0  0  0  0  0  0  0  0
    0.7451   -1.1608   -1.2520 C   0  0  0  0  0  0  0  0  0  0  0  0
    0.2260   -0.8679   -2.3159 O   0  0  0  0  0  0  0  0  0  0  0  0
    1.0810   -0.7511    1.2147 C   0  0  0  0  0  0  0  0  0  0  0  0
    1.2832    0.2671    2.0990 O   0  0  0  0  0  0  0  0  0  0  0  0
   -1.8361    0.1602   -1.9260 H   0  0  0  0  0  0  0  0  0  0  0  0
   -2.1441   -1.2493   -0.8321 H   0  0  0  0  0  0  0  0  0  0  0  0
   -3.0082    0.3002   -0.5214 H   0  0  0  0  0  0  0  0  0  0  0  0
   -1.3038    0.4833    1.1144 H   0  0  0  0  0  0  0  0  0  0  0  0
    0.1560    1.4637   -1.4070 H   0  0  0  0  0  0  0  0  0  0  0  0
    0.1769    2.5647    1.0049 H   0  0  0  0  0  0  0  0  0  0  0  0
    1.4239   -2.0071   -1.2365 H   0  0  0  0  0  0  0  0  0  0  0  0
    0.5334   -1.5846    1.7007 H   0  0  0  0  0  0  0  0  0  0  0  0
    2.0819   -1.1617    0.9304 H   0  0  0  0  0  0  0  0  0  0  0  0
    2.1818    0.6415    2.1375 H   0  0  0  0  0  0  0  0  0  0  0  0
  1  2  1  0
  2  3  1  0
  3  4  1  0
  3  5  1  0
  5  6  1  0
  6  7  2  0
  5  8  1  0
  8  9  1  0
  5  2  1  0
  1 10  1  0
  1 11  1  0
  1 12  1  0
  2 13  1  0
  3 14  1  0
  4 15  1  0
  6 16  1  0
  8 17  1  0
  8 18  1  0
  9 19  1  0
M  END
