
     RDKit          3D

 21 21  0  0  0  0  0  0  0  0999 V2000
    1.9838    0.9052    0.2807 C   0  0  0  0  0  0  0  0  0  0  0  0
    0.9170   -0.1234    0.5464 C   0  0  0  0  0  0  0  0  0  0  0  0
    0.7933   -1.1093   -0.5985 C   0  0  0  0  0  0  0  0  0  0  0  0
   -0.4570   -1.7982   -0.2246 C   0  0  0  0  0  0  0  0  0  0  0  0
   -0.6797   -2.9664   -0.3769 O   0  0  0  0  0  0  0  0  0  0  0  0
   -1.3416   -0.7735    0.3566 C   0  0  0  0  0  0  0  0  0  0  0  0
   -2.2952   -0.4377   -0.6206 O   0  0  0  0  0  0  0  0  0  0  0  0
   -0.4572    0.4432    0.6301 C   0  0  0  0  0  0  0  0  0  0  0  0
   -0.7592    1.5064   -0.3717 C   0  0  0  0  0  0  0  0  0  0  0  0
    2.9626    0.3550    0.3097 H   0  0  0  0  0  0  0  0  0  0  0  0
    1.9949    1.6239    1.0959 H   0  0  0  0  0  0  0  0  0  0  0  0
    1.8466    1.3538   -0.7224 H   0  0  0  0  0  0  0  0  0  0  0  0
    1.1484   -0.6914    1.4564 H   0  0  0  0  0  0  0  0  0  0  0  0
    1.6655   -1.7892   -0.6487 H   0  0  0  0  0  0  0  0  0  0  0  0
    0.6778   -0.5547   -1.5686 H   0  0  0  0  0  0  0  0  0  0  0  0
   -1.8306   -1.0891    1.3031 H   0  0  0  0  0  0  0  0  0  0  0  0
   -2.9529   -1.1770   -0.6217 H   0  0  0  0  0  0  0  0  0  0  0  0
   -0.6435    0.8501    1.6381 H   0  0  0  0  0  0  0  0  0  0  0  0
   -0.4893    2.5209    0.0431 H   0  0  0  0  0  0  0  0  0  0  0  0
   -1.8580    1.5676   -0.5699 H   0  0  0  0  0  0  0  0  0  0  0  0
   -0.2256    1.3841   -1.3364 H   0  0  0  0  0  0  0  0  0  0  0  0
  1  2  1  0
  2  3  1  0
  3  4  1  0
  4  5  2  0
  4  6  1  0
  6  7  1  0
  6  8  1  0
  8  9  1  0
  8  2  1  0
  1 10  1  0
  1 11  1  0
  1 12  1  0
  2 13  1  0
  3 14  1  0
  3 15  1  0
  6 16  1  0
  7 17  1  0
  8 18  1  0
  9 19  1  0
  9 20  1  0
  9 21  1  0
M  END
