
     RDKit          3D

 19 20  0  0  0  0  0  0  0  0999 V2000
    1.7638   -0.7178   -0.2410 C   0  0  0  0  0  0  0  0  0  0  0  0
    0.8446    0.2891    0.3581 C   0  0  0  0  0  0  0  0  0  0  0  0
   -0.2908   -0.3517    1.1544 C   0  0  0  0  0  0  0  0  0  0  0  0
   -0.9498   -1.1848    0.0712 C   0  0  0  0  0  0  0  0  0  0  0  0
   -0.7766   -0.3343   -1.1374 C   0  0  0  0  0  0  0  0  0  0  0  0
   -1.1395   -0.6388   -2.2452 O   0  0  0  0  0  0  0  0  0  0  0  0
   -0.1050    0.8838   -0.6999 C   0  0  0  0  0  0  0  0  0  0  0  0
   -1.0447    1.5810    0.2751 C   0  0  0  0  0  0  0  0  0  0  0  0
   -1.1256    0.7383    1.3833 O   0  0  0  0  0  0  0  0  0  0  0  0
    1.2449   -1.4758   -0.8605 H   0  0  0  0  0  0  0  0  0  0  0  0
    2.4495   -0.1800   -0.9280 H   0  0  0  0  0  0  0  0  0  0  0  0
    2.3785   -1.1471    0.5542 H   0  0  0  0  0  0  0  0  0  0  0  0
    1.3899    1.0466    0.9057 H   0  0  0  0  0  0  0  0  0  0  0  0
    0.0172   -0.8791    2.0282 H   0  0  0  0  0  0  0  0  0  0  0  0
   -2.0232   -1.2644    0.3556 H   0  0  0  0  0  0  0  0  0  0  0  0
   -0.4808   -2.1634   -0.0019 H   0  0  0  0  0  0  0  0  0  0  0  0
    0.3675    1.5048   -1.4159 H   0  0  0  0  0  0  0  0  0  0  0  0
   -0.5017    2.4930    0.6153 H   0  0  0  0  0  0  0  0  0  0  0  0
   -2.0181    1.8006   -0.1711 H   0  0  0  0  0  0  0  0  0  0  0  0
  1  2  1  0
  2  3  1  0
  3  4  1  0
  4  5  1  0
  5  6  2  0
  5  7  1  0
  7  8  1  0
  8  9  1  0
  7  2  1  0
  9  3  1  0
  1 10  1  0
  1 11  1  0
  1 12  1  0
  2 13  1  0
  3 14  1  0
  4 15  1  0
  4 16  1  0
  7 17  1  0
  8 18  1  0
  8 19  1  0
M  END
