
     RDKit          3D

 20 20  0  0  0  0  0  0  0  0999 V2000
    2.6218    0.2282    0.0011 C   0  0  0  0  0  0  0  0  0  0  0  0
    1.3344   -0.0687    0.7416 C   0  0  0  0  0  0  0  0  0  0  0  0
    0.6331   -1.2482    0.2213 C   0  0  0  0  0  0  0  0  0  0  0  0
   -0.6640   -1.1507   -0.0540 C   0  0  0  0  0  0  0  0  0  0  0  0
   -1.4444    0.0980    0.1389 C   0  0  0  0  0  0  0  0  0  0  0  0
   -2.8533   -0.1498    0.5820 C   0  0  0  0  0  0  0  0  0  0  0  0
   -0.7843    0.8212    1.1542 O   0  0  0  0  0  0  0  0  0  0  0  0
    0.4606    1.1663    0.6194 C   0  0  0  0  0  0  0  0  0  0  0  0
    3.4575   -0.4208    0.3115 H   0  0  0  0  0  0  0  0  0  0  0  0
    2.8976    1.2745    0.2477 H   0  0  0  0  0  0  0  0  0  0  0  0
    2.5046    0.1870   -1.0948 H   0  0  0  0  0  0  0  0  0  0  0  0
    1.6029   -0.1416    1.8175 H   0  0  0  0  0  0  0  0  0  0  0  0
    1.1681   -2.1791    0.0664 H   0  0  0  0  0  0  0  0  0  0  0  0
   -1.1833   -2.0231   -0.4390 H   0  0  0  0  0  0  0  0  0  0  0  0
   -1.4120    0.7422   -0.7711 H   0  0  0  0  0  0  0  0  0  0  0  0
   -3.3668   -0.9133   -0.0335 H   0  0  0  0  0  0  0  0  0  0  0  0
   -3.4297    0.7908    0.4476 H   0  0  0  0  0  0  0  0  0  0  0  0
   -2.8885   -0.3748    1.6682 H   0  0  0  0  0  0  0  0  0  0  0  0
    0.9616    1.9710    1.1947 H   0  0  0  0  0  0  0  0  0  0  0  0
    0.3840    1.3909   -0.4666 H   0  0  0  0  0  0  0  0  0  0  0  0
  1  2  1  0
  2  3  1  0
  3  4  2  0
  4  5  1  0
  5  6  1  0
  5  7  1  0
  7  8  1  0
  8  2  1  0
  1  9  1  0
  1 10  1  0
  1 11  1  0
  2 12  1  0
  3 13  1  0
  4 14  1  0
  5 15  1  0
  6 16  1  0
  6 17  1  0
  6 18  1  0
  8 19  1  0
  8 20  1  0
M  END
