
     RDKit          3D

 21 22  0  0  0  0  0  0  0  0999 V2000
    1.9804   -0.7502   -0.1828 C   0  0  0  0  0  0  0  0  0  0  0  0
    0.6285   -0.5650    0.4106 C   0  0  0  0  0  0  0  0  0  0  0  0
   -0.5050   -0.9282   -0.5120 C   0  0  0  0  0  0  0  0  0  0  0  0
   -1.7452   -1.0337    0.3511 C   0  0  0  0  0  0  0  0  0  0  0  0
   -1.8555    0.2417    0.9208 O   0  0  0  0  0  0  0  0  0  0  0  0
   -1.0219    1.0989    0.2511 C   0  0  0  0  0  0  0  0  0  0  0  0
   -0.7901    0.4519   -1.1310 C   0  0  0  0  0  0  0  0  0  0  0  0
    0.3900    0.8964    0.7906 C   0  0  0  0  0  0  0  0  0  0  0  0
    1.2346    1.6498   -0.0162 O   0  0  0  0  0  0  0  0  0  0  0  0
    2.4616   -1.6181    0.3588 H   0  0  0  0  0  0  0  0  0  0  0  0
    2.6035    0.1377    0.1294 H   0  0  0  0  0  0  0  0  0  0  0  0
    1.9928   -0.8778   -1.2653 H   0  0  0  0  0  0  0  0  0  0  0  0
    0.4681   -1.1454    1.3560 H   0  0  0  0  0  0  0  0  0  0  0  0
   -0.3396   -1.7059   -1.2141 H   0  0  0  0  0  0  0  0  0  0  0  0
   -2.6748   -1.1547   -0.2728 H   0  0  0  0  0  0  0  0  0  0  0  0
   -1.6632   -1.8312    1.1166 H   0  0  0  0  0  0  0  0  0  0  0  0
   -1.3276    2.1254    0.1846 H   0  0  0  0  0  0  0  0  0  0  0  0
    0.1038    0.8770   -1.5975 H   0  0  0  0  0  0  0  0  0  0  0  0
   -1.6919    0.4530   -1.7337 H   0  0  0  0  0  0  0  0  0  0  0  0
    0.4812    1.0849    1.8497 H   0  0  0  0  0  0  0  0  0  0  0  0
    1.2703    2.5938    0.2062 H   0  0  0  0  0  0  0  0  0  0  0  0
  1  2  1  0
  2  3  1  0
  3  4  1  0
  4  5  1  0
  5  6  1  0
  6  7  1  0
  6  8  1  0
  8  9  1  0
  8  2  1  0
  7  3  1  0
  1 10  1  0
  1 11  1  0
  1 12  1  0
  2 13  1  0
  3 14  1  0
  4 15  1  0
  4 16  1  0
  6 17  1  0
  7 18  1  0
  7 19  1  0
  8 20  1  0
  9 21  1  0
M  END
