
     RDKit          3D

 23 23  0  0  0  0  0  0  0  0999 V2000
    2.7047   -0.3288    0.3415 C   0  0  0  0  0  0  0  0  0  0  0  0
    1.3173    0.1879    0.3158 C   0  0  0  0  0  0  0  0  0  0  0  0
    0.3621   -0.7076   -0.4843 C   0  0  0  0  0  0  0  0  0  0  0  0
   -1.0066   -0.3719    0.1009 C   0  0  0  0  0  0  0  0  0  0  0  0
   -2.0933   -1.2040   -0.4775 C   0  0  0  0  0  0  0  0  0  0  0  0
   -0.9049   -0.6549    1.4774 O   0  0  0  0  0  0  0  0  0  0  0  0
   -1.2274    1.0961   -0.1302 C   0  0  0  0  0  0  0  0  0  0  0  0
   -0.0578    1.9542    0.1592 C   0  0  0  0  0  0  0  0  0  0  0  0
    1.1618    1.4450   -0.2147 O   0  0  0  0  0  0  0  0  0  0  0  0
    3.3930    0.4814    0.6237 H   0  0  0  0  0  0  0  0  0  0  0  0
    2.7706   -1.0808    1.1826 H   0  0  0  0  0  0  0  0  0  0  0  0
    2.9961   -0.8809   -0.5636 H   0  0  0  0  0  0  0  0  0  0  0  0
    0.9566    0.2442    1.3851 H   0  0  0  0  0  0  0  0  0  0  0  0
    0.6146   -1.7585   -0.4165 H   0  0  0  0  0  0  0  0  0  0  0  0
    0.3300   -0.3522   -1.5381 H   0  0  0  0  0  0  0  0  0  0  0  0
   -3.0615   -0.7925   -0.1700 H   0  0  0  0  0  0  0  0  0  0  0  0
   -2.0460   -1.3193   -1.5795 H   0  0  0  0  0  0  0  0  0  0  0  0
   -1.9943   -2.2399   -0.0457 H   0  0  0  0  0  0  0  0  0  0  0  0
   -0.3850   -1.5127    1.5434 H   0  0  0  0  0  0  0  0  0  0  0  0
   -1.5514    1.2377   -1.1735 H   0  0  0  0  0  0  0  0  0  0  0  0
   -2.0623    1.4000    0.5689 H   0  0  0  0  0  0  0  0  0  0  0  0
   -0.0260    2.2381    1.2429 H   0  0  0  0  0  0  0  0  0  0  0  0
   -0.1904    2.9195   -0.4123 H   0  0  0  0  0  0  0  0  0  0  0  0
  1  2  1  0
  2  3  1  0
  3  4  1  0
  4  5  1  0
  4  6  1  0
  4  7  1  0
  7  8  1  0
  8  9  1  0
  9  2  1  0
  1 10  1  0
  1 11  1  0
  1 12  1  0
  2 13  1  0
  3 14  1  0
  3 15  1  0
  5 16  1  0
  5 17  1  0
  5 18  1  0
  6 19  1  0
  7 20  1  0
  7 21  1  0
  8 22  1  0
  8 23  1  0
M  END
