
     RDKit          3D

 17 17  0  0  0  0  0  0  0  0999 V2000
    1.7667    0.0803    0.9265 C   0  0  0  0  0  0  0  0  0  0  0  0
    1.0665    0.1622   -0.4249 C   0  0  0  0  0  0  0  0  0  0  0  0
    0.3313   -1.1341   -0.5566 C   0  0  0  0  0  0  0  0  0  0  0  0
   -0.9388   -1.2840   -0.3172 C   0  0  0  0  0  0  0  0  0  0  0  0
   -1.8649   -0.2057    0.1228 C   0  0  0  0  0  0  0  0  0  0  0  0
   -1.2757    1.1072   -0.2070 C   0  0  0  0  0  0  0  0  0  0  0  0
   -2.0502    2.1164   -0.2465 O   0  0  0  0  0  0  0  0  0  0  0  0
    0.1362    1.3126   -0.4888 C   0  0  0  0  0  0  0  0  0  0  0  0
    0.5530    2.4589   -0.7827 O   0  0  0  0  0  0  0  0  0  0  0  0
    2.6313   -0.6261    0.7451 H   0  0  0  0  0  0  0  0  0  0  0  0
    2.1185    1.0545    1.2811 H   0  0  0  0  0  0  0  0  0  0  0  0
    1.0651   -0.4058    1.6371 H   0  0  0  0  0  0  0  0  0  0  0  0
    1.8003    0.2065   -1.2559 H   0  0  0  0  0  0  0  0  0  0  0  0
    0.9171   -1.9958   -0.8750 H   0  0  0  0  0  0  0  0  0  0  0  0
   -1.3782   -2.2776   -0.4449 H   0  0  0  0  0  0  0  0  0  0  0  0
   -2.0162   -0.2340    1.2282 H   0  0  0  0  0  0  0  0  0  0  0  0
   -2.8622   -0.3354   -0.3413 H   0  0  0  0  0  0  0  0  0  0  0  0
  1  2  1  0
  2  3  1  0
  3  4  2  0
  4  5  1  0
  5  6  1  0
  6  7  2  0
  6  8  1  0
  8  9  2  0
  8  2  1  0
  1 10  1  0
  1 11  1  0
  1 12  1  0
  2 13  1  0
  3 14  1  0
  4 15  1  0
  5 16  1  0
  5 17  1  0
M  END
