
     RDKit          3D

 21 23  0  0  0  0  0  0  0  0999 V2000
   -1.0642    1.5540    0.9430 C   0  0  0  0  0  0  0  0  0  0  0  0
   -0.8587    0.0738    0.8249 C   0  0  0  0  0  0  0  0  0  0  0  0
   -1.1917   -0.5326   -0.4858 C   0  0  0  0  0  0  0  0  0  0  0  0
   -1.0225   -2.0294   -0.5681 C   0  0  0  0  0  0  0  0  0  0  0  0
    0.4657   -1.8204   -0.3854 C   0  0  0  0  0  0  0  0  0  0  0  0
    0.2018   -0.3954   -0.0481 C   0  0  0  0  0  0  0  0  0  0  0  0
    1.1387    0.5968   -0.6896 C   0  0  0  0  0  0  0  0  0  0  0  0
    1.9393    1.4512    0.2525 C   0  0  0  0  0  0  0  0  0  0  0  0
    2.5199    0.4236   -0.4819 O   0  0  0  0  0  0  0  0  0  0  0  0
   -2.1203    1.7298    1.2785 H   0  0  0  0  0  0  0  0  0  0  0  0
   -0.9834    2.0768   -0.0479 H   0  0  0  0  0  0  0  0  0  0  0  0
   -0.3788    2.0516    1.6274 H   0  0  0  0  0  0  0  0  0  0  0  0
   -1.1068   -0.4935    1.7331 H   0  0  0  0  0  0  0  0  0  0  0  0
   -1.5091    0.0515   -1.3486 H   0  0  0  0  0  0  0  0  0  0  0  0
   -1.4460   -2.5314    0.3240 H   0  0  0  0  0  0  0  0  0  0  0  0
   -1.3227   -2.4912   -1.5292 H   0  0  0  0  0  0  0  0  0  0  0  0
    0.9409   -2.4496    0.3889 H   0  0  0  0  0  0  0  0  0  0  0  0
    0.9697   -1.9708   -1.3788 H   0  0  0  0  0  0  0  0  0  0  0  0
    0.9116    0.9815   -1.6972 H   0  0  0  0  0  0  0  0  0  0  0  0
    2.0559    2.4963   -0.0458 H   0  0  0  0  0  0  0  0  0  0  0  0
    1.8606    1.2274    1.3340 H   0  0  0  0  0  0  0  0  0  0  0  0
  1  2  1  0
  2  3  1  0
  3  4  1  0
  4  5  1  0
  5  6  1  0
  6  7  1  0
  7  8  1  0
  8  9  1  0
  6  2  1  0
  9  7  1  0
  6  3  1  0
  1 10  1  0
  1 11  1  0
  1 12  1  0
  2 13  1  0
  3 14  1  0
  4 15  1  0
  4 16  1  0
  5 17  1  0
  5 18  1  0
  7 19  1  0
  8 20  1  0
  8 21  1  0
M  END
