
     RDKit          3D

 25 26  0  0  0  0  0  0  0  0999 V2000
    2.4375    0.5256    0.2290 C   0  0  0  0  0  0  0  0  0  0  0  0
    1.3929   -0.5650    0.1973 C   0  0  0  0  0  0  0  0  0  0  0  0
    0.5151   -0.5367    1.4465 C   0  0  0  0  0  0  0  0  0  0  0  0
   -0.8303   -0.0004    1.0039 C   0  0  0  0  0  0  0  0  0  0  0  0
   -1.5667   -1.0588    0.2220 C   0  0  0  0  0  0  0  0  0  0  0  0
   -0.6235   -1.2501   -0.9719 C   0  0  0  0  0  0  0  0  0  0  0  0
    0.3992   -0.1705   -0.8901 C   0  0  0  0  0  0  0  0  0  0  0  0
   -0.3697    0.9198   -0.1311 C   0  0  0  0  0  0  0  0  0  0  0  0
   -1.5044    1.4705   -0.9167 C   0  0  0  0  0  0  0  0  0  0  0  0
    3.4494    0.1074    0.4298 H   0  0  0  0  0  0  0  0  0  0  0  0
    2.5214    0.9887   -0.7962 H   0  0  0  0  0  0  0  0  0  0  0  0
    2.1983    1.3127    0.9433 H   0  0  0  0  0  0  0  0  0  0  0  0
    1.8043   -1.5677    0.0404 H   0  0  0  0  0  0  0  0  0  0  0  0
    0.4087   -1.5532    1.8533 H   0  0  0  0  0  0  0  0  0  0  0  0
    0.9601    0.1647    2.1837 H   0  0  0  0  0  0  0  0  0  0  0  0
   -1.3983    0.4985    1.7651 H   0  0  0  0  0  0  0  0  0  0  0  0
   -1.7346   -1.9859    0.7715 H   0  0  0  0  0  0  0  0  0  0  0  0
   -2.5264   -0.6301   -0.1109 H   0  0  0  0  0  0  0  0  0  0  0  0
   -0.1606   -2.2684   -0.8230 H   0  0  0  0  0  0  0  0  0  0  0  0
   -1.1718   -1.3035   -1.9211 H   0  0  0  0  0  0  0  0  0  0  0  0
    0.8414    0.1638   -1.8032 H   0  0  0  0  0  0  0  0  0  0  0  0
    0.2911    1.6930    0.2651 H   0  0  0  0  0  0  0  0  0  0  0  0
   -2.2674    1.8891   -0.2022 H   0  0  0  0  0  0  0  0  0  0  0  0
   -1.1230    2.3773   -1.4637 H   0  0  0  0  0  0  0  0  0  0  0  0
   -1.9427    0.7794   -1.6414 H   0  0  0  0  0  0  0  0  0  0  0  0
  1  2  1  0
  2  3  1  0
  3  4  1  0
  4  5  1  0
  5  6  1  0
  6  7  1  0
  7  8  1  0
  8  9  1  0
  7  2  1  0
  8  4  1  0
  1 10  1  0
  1 11  1  0
  1 12  1  0
  2 13  1  0
  3 14  1  0
  3 15  1  0
  4 16  1  0
  5 17  1  0
  5 18  1  0
  6 19  1  0
  6 20  1  0
  7 21  1  0
  8 22  1  0
  9 23  1  0
  9 24  1  0
  9 25  1  0
M  END
