
     RDKit          3D

 17 17  0  0  0  0  0  0  0  0999 V2000
    1.4098    0.5978   -0.8224 C   0  0  0  0  0  0  0  0  0  0  0  0
    0.5788    0.4442    0.4107 C   0  0  0  0  0  0  0  0  0  0  0  0
    0.7903   -0.8751    1.1371 C   0  0  0  0  0  0  0  0  0  0  0  0
   -0.5771   -0.9026    1.3709 O   0  0  0  0  0  0  0  0  0  0  0  0
   -0.7944   -0.1628    0.2097 C   0  0  0  0  0  0  0  0  0  0  0  0
   -1.8555    0.8685    0.4706 C   0  0  0  0  0  0  0  0  0  0  0  0
   -2.2084    1.6385   -0.4233 O   0  0  0  0  0  0  0  0  0  0  0  0
   -0.9806   -0.9431   -1.0101 C   0  0  0  0  0  0  0  0  0  0  0  0
   -1.1765   -0.4035   -2.0771 O   0  0  0  0  0  0  0  0  0  0  0  0
    2.2421    1.3156   -0.5680 H   0  0  0  0  0  0  0  0  0  0  0  0
    0.8430    0.9816   -1.6760 H   0  0  0  0  0  0  0  0  0  0  0  0
    1.9461   -0.3611   -1.0675 H   0  0  0  0  0  0  0  0  0  0  0  0
    0.5387    1.3111    1.0981 H   0  0  0  0  0  0  0  0  0  0  0  0
    1.3680   -0.8079    2.0728 H   0  0  0  0  0  0  0  0  0  0  0  0
    1.1656   -1.6562    0.4260 H   0  0  0  0  0  0  0  0  0  0  0  0
   -2.3426    0.9744    1.4342 H   0  0  0  0  0  0  0  0  0  0  0  0
   -0.9473   -2.0193   -0.9857 H   0  0  0  0  0  0  0  0  0  0  0  0
  1  2  1  0
  2  3  1  0
  3  4  1  0
  4  5  1  0
  5  6  1  0
  6  7  2  0
  5  8  1  0
  8  9  2  0
  5  2  1  0
  1 10  1  0
  1 11  1  0
  1 12  1  0
  2 13  1  0
  3 14  1  0
  3 15  1  0
  6 16  1  0
  8 17  1  0
M  END
