
     RDKit          3D

 21 22  0  0  0  0  0  0  0  0999 V2000
    2.1419    0.5908    0.1040 C   0  0  0  0  0  0  0  0  0  0  0  0
    0.9419   -0.2214    0.4957 C   0  0  0  0  0  0  0  0  0  0  0  0
    0.4806   -1.0203   -0.6949 C   0  0  0  0  0  0  0  0  0  0  0  0
   -0.9675   -1.3802   -0.5293 C   0  0  0  0  0  0  0  0  0  0  0  0
   -1.6613   -0.4102    0.3784 C   0  0  0  0  0  0  0  0  0  0  0  0
   -1.0968   -0.3247    1.6384 O   0  0  0  0  0  0  0  0  0  0  0  0
   -0.1629    0.5858    1.1015 C   0  0  0  0  0  0  0  0  0  0  0  0
   -1.2146    1.0090    0.1257 C   0  0  0  0  0  0  0  0  0  0  0  0
   -0.8227    1.2373   -1.1668 O   0  0  0  0  0  0  0  0  0  0  0  0
    2.0752    1.6523    0.3736 H   0  0  0  0  0  0  0  0  0  0  0  0
    2.2990    0.5529   -1.0032 H   0  0  0  0  0  0  0  0  0  0  0  0
    3.0953    0.1993    0.5417 H   0  0  0  0  0  0  0  0  0  0  0  0
    1.2906   -0.9425    1.2912 H   0  0  0  0  0  0  0  0  0  0  0  0
    1.0757   -1.9670   -0.7379 H   0  0  0  0  0  0  0  0  0  0  0  0
    0.6911   -0.4824   -1.6526 H   0  0  0  0  0  0  0  0  0  0  0  0
   -1.0598   -2.3932   -0.0706 H   0  0  0  0  0  0  0  0  0  0  0  0
   -1.4550   -1.3279   -1.5156 H   0  0  0  0  0  0  0  0  0  0  0  0
   -2.7473   -0.5665    0.3545 H   0  0  0  0  0  0  0  0  0  0  0  0
    0.1915    1.3369    1.8156 H   0  0  0  0  0  0  0  0  0  0  0  0
   -1.8947    1.7479    0.5904 H   0  0  0  0  0  0  0  0  0  0  0  0
   -1.2002    2.1240   -1.4398 H   0  0  0  0  0  0  0  0  0  0  0  0
  1  2  1  0
  2  3  1  0
  3  4  1  0
  4  5  1  0
  5  6  1  0
  6  7  1  0
  7  8  1  0
  8  9  1  0
  7  2  1  0
  8  5  1  0
  1 10  1  0
  1 11  1  0
  1 12  1  0
  2 13  1  0
  3 14  1  0
  3 15  1  0
  4 16  1  0
  4 17  1  0
  5 18  1  0
  7 19  1  0
  8 20  1  0
  9 21  1  0
M  END
