
     RDKit          3D

 21 22  0  0  0  0  0  0  0  0999 V2000
    1.7260    0.8137   -0.7284 C   0  0  0  0  0  0  0  0  0  0  0  0
    1.1335   -0.3158    0.0196 C   0  0  0  0  0  0  0  0  0  0  0  0
    0.1202   -1.1655   -0.7262 C   0  0  0  0  0  0  0  0  0  0  0  0
   -0.8384   -0.3176   -1.4918 C   0  0  0  0  0  0  0  0  0  0  0  0
   -1.5608    0.5488   -0.7747 C   0  0  0  0  0  0  0  0  0  0  0  0
   -0.9458    0.9945    0.5183 C   0  0  0  0  0  0  0  0  0  0  0  0
    0.0446   -0.0179    1.0028 C   0  0  0  0  0  0  0  0  0  0  0  0
    0.4018    0.0630    2.3235 O   0  0  0  0  0  0  0  0  0  0  0  0
   -0.5329   -1.3984    0.6432 C   0  0  0  0  0  0  0  0  0  0  0  0
    1.1744    1.7551   -0.7072 H   0  0  0  0  0  0  0  0  0  0  0  0
    2.7339    1.0365   -0.2695 H   0  0  0  0  0  0  0  0  0  0  0  0
    1.9779    0.5605   -1.8007 H   0  0  0  0  0  0  0  0  0  0  0  0
    1.8851   -0.9937    0.4882 H   0  0  0  0  0  0  0  0  0  0  0  0
    0.4964   -2.0513   -1.2208 H   0  0  0  0  0  0  0  0  0  0  0  0
   -0.9646   -0.3773   -2.5677 H   0  0  0  0  0  0  0  0  0  0  0  0
   -2.5337    0.9154   -1.0962 H   0  0  0  0  0  0  0  0  0  0  0  0
   -0.5390    2.0019    0.3721 H   0  0  0  0  0  0  0  0  0  0  0  0
   -1.7410    1.0738    1.3008 H   0  0  0  0  0  0  0  0  0  0  0  0
   -0.3845    0.4268    2.8225 H   0  0  0  0  0  0  0  0  0  0  0  0
   -1.6232   -1.4014    0.6288 H   0  0  0  0  0  0  0  0  0  0  0  0
   -0.0299   -2.1511    1.2634 H   0  0  0  0  0  0  0  0  0  0  0  0
  1  2  1  0
  2  3  1  0
  3  4  1  0
  4  5  2  0
  5  6  1  0
  6  7  1  0
  7  8  1  0
  7  9  1  0
  7  2  1  0
  9  3  1  0
  1 10  1  0
  1 11  1  0
  1 12  1  0
  2 13  1  0
  3 14  1  0
  4 15  1  0
  5 16  1  0
  6 17  1  0
  6 18  1  0
  8 19  1  0
  9 20  1  0
  9 21  1  0
M  END
