
     RDKit          3D

 16 17  0  0  0  0  0  0  0  0999 V2000
    1.9915   -0.2585   -0.4569 C   0  0  0  0  0  0  0  0  0  0  0  0
    0.8915    0.6862    0.0449 C   0  0  0  0  0  0  0  0  0  0  0  0
   -0.4177    0.7473   -0.5486 C   0  0  0  0  0  0  0  0  0  0  0  0
   -1.7312    0.8699    0.0623 C   0  0  0  0  0  0  0  0  0  0  0  0
   -2.6143    1.6576    0.1724 O   0  0  0  0  0  0  0  0  0  0  0  0
   -1.4405   -0.5181    0.5071 C   0  0  0  0  0  0  0  0  0  0  0  0
   -1.3941   -1.4714   -0.4924 O   0  0  0  0  0  0  0  0  0  0  0  0
   -0.1134    0.1086    0.8734 C   0  0  0  0  0  0  0  0  0  0  0  0
    2.3503    0.0819   -1.4444 H   0  0  0  0  0  0  0  0  0  0  0  0
    1.6914   -1.2995   -0.4375 H   0  0  0  0  0  0  0  0  0  0  0  0
    2.8539   -0.1588    0.2648 H   0  0  0  0  0  0  0  0  0  0  0  0
    1.3689    1.7002    0.2161 H   0  0  0  0  0  0  0  0  0  0  0  0
   -0.4985   -0.0248   -1.3823 H   0  0  0  0  0  0  0  0  0  0  0  0
   -1.9959   -0.8944    1.3598 H   0  0  0  0  0  0  0  0  0  0  0  0
   -0.5935   -2.0334   -0.4837 H   0  0  0  0  0  0  0  0  0  0  0  0
   -0.3484    0.8072    1.7451 H   0  0  0  0  0  0  0  0  0  0  0  0
  1  2  1  0
  2  3  1  0
  3  4  1  0
  4  5  2  0
  4  6  1  0
  6  7  1  0
  6  8  1  0
  8  2  1  0
  8  3  1  0
  1  9  1  0
  1 10  1  0
  1 11  1  0
  2 12  1  0
  3 13  1  0
  6 14  1  0
  7 15  1  0
  8 16  1  0
M  END
