
     RDKit          3D

 21 22  0  0  0  0  0  0  0  0999 V2000
    1.8097    1.2802   -0.4838 C   0  0  0  0  0  0  0  0  0  0  0  0
    1.3080   -0.1177   -0.5646 C   0  0  0  0  0  0  0  0  0  0  0  0
    0.5578   -0.5763    0.6971 C   0  0  0  0  0  0  0  0  0  0  0  0
    0.0737   -1.8865    0.2104 C   0  0  0  0  0  0  0  0  0  0  0  0
   -0.5168   -1.4989   -1.0217 O   0  0  0  0  0  0  0  0  0  0  0  0
   -0.1106   -0.2059   -1.1505 C   0  0  0  0  0  0  0  0  0  0  0  0
   -0.5152    0.3816    0.2113 C   0  0  0  0  0  0  0  0  0  0  0  0
   -1.9128    0.0399    0.6289 C   0  0  0  0  0  0  0  0  0  0  0  0
   -2.7589    1.0150    0.1006 O   0  0  0  0  0  0  0  0  0  0  0  0
    1.1598    1.9963   -1.0029 H   0  0  0  0  0  0  0  0  0  0  0  0
    1.9723    1.5338    0.5809 H   0  0  0  0  0  0  0  0  0  0  0  0
    2.8098    1.3361   -1.0036 H   0  0  0  0  0  0  0  0  0  0  0  0
    1.9867   -0.8906   -0.9216 H   0  0  0  0  0  0  0  0  0  0  0  0
    1.0135   -0.4293    1.6296 H   0  0  0  0  0  0  0  0  0  0  0  0
    0.9655   -2.4986   -0.1038 H   0  0  0  0  0  0  0  0  0  0  0  0
   -0.6178   -2.4200    0.8477 H   0  0  0  0  0  0  0  0  0  0  0  0
   -0.3179    0.3739   -2.0106 H   0  0  0  0  0  0  0  0  0  0  0  0
   -0.2637    1.4352    0.3469 H   0  0  0  0  0  0  0  0  0  0  0  0
   -1.9598    0.1703    1.7417 H   0  0  0  0  0  0  0  0  0  0  0  0
   -2.2303   -0.9569    0.3283 H   0  0  0  0  0  0  0  0  0  0  0  0
   -2.4529    1.9184    0.3545 H   0  0  0  0  0  0  0  0  0  0  0  0
  1  2  1  0
  2  3  1  0
  3  4  1  0
  4  5  1  0
  5  6  1  0
  6  7  1  0
  7  8  1  0
  8  9  1  0
  6  2  1  0
  7  3  1  0
  1 10  1  0
  1 11  1  0
  1 12  1  0
  2 13  1  0
  3 14  1  0
  4 15  1  0
  4 16  1  0
  6 17  1  0
  7 18  1  0
  8 19  1  0
  8 20  1  0
  9 21  1  0
M  END
