
     RDKit          3D

 20 22  0  0  0  0  0  0  0  0999 V2000
   -2.2861   -0.8035   -0.2861 C   0  0  0  0  0  0  0  0  0  0  0  0
   -0.8761   -1.0090    0.1218 C   0  0  0  0  0  0  0  0  0  0  0  0
    0.2536   -0.6658   -0.7652 C   0  0  0  0  0  0  0  0  0  0  0  0
    1.6583   -0.7168   -0.3053 C   0  0  0  0  0  0  0  0  0  0  0  0
    2.4045    0.4860    0.1212 C   0  0  0  0  0  0  0  0  0  0  0  0
    1.2634   -0.0032    0.9763 C   0  0  0  0  0  0  0  0  0  0  0  0
   -0.0953    0.2169    0.4164 C   0  0  0  0  0  0  0  0  0  0  0  0
   -0.5798    1.5797    0.0463 C   0  0  0  0  0  0  0  0  0  0  0  0
   -2.9708   -1.6116    0.0994 H   0  0  0  0  0  0  0  0  0  0  0  0
   -2.6569    0.1314    0.2152 H   0  0  0  0  0  0  0  0  0  0  0  0
   -2.4625   -0.7249   -1.3625 H   0  0  0  0  0  0  0  0  0  0  0  0
   -0.7240   -1.8725    0.8260 H   0  0  0  0  0  0  0  0  0  0  0  0
   -0.0043   -0.3295   -1.7802 H   0  0  0  0  0  0  0  0  0  0  0  0
    2.1983   -1.6868   -0.2355 H   0  0  0  0  0  0  0  0  0  0  0  0
    2.2013    1.4509   -0.3784 H   0  0  0  0  0  0  0  0  0  0  0  0
    3.3825    0.3239    0.6189 H   0  0  0  0  0  0  0  0  0  0  0  0
    1.4419   -0.5911    1.8761 H   0  0  0  0  0  0  0  0  0  0  0  0
    0.2361    2.2263   -0.3786 H   0  0  0  0  0  0  0  0  0  0  0  0
   -1.3673    1.4913   -0.7440 H   0  0  0  0  0  0  0  0  0  0  0  0
   -1.0168    2.1083    0.9182 H   0  0  0  0  0  0  0  0  0  0  0  0
  1  2  1  0
  2  3  1  0
  3  4  1  0
  4  5  1  0
  5  6  1  0
  6  7  1  0
  7  8  1  0
  7  2  1  0
  7  3  1  0
  6  4  1  0
  1  9  1  0
  1 10  1  0
  1 11  1  0
  2 12  1  0
  3 13  1  0
  4 14  1  0
  5 15  1  0
  5 16  1  0
  6 17  1  0
  8 18  1  0
  8 19  1  0
  8 20  1  0
M  END
