
     RDKit          3D

 23 23  0  0  0  0  0  0  0  0999 V2000
   -1.9297   -1.4220   -0.3540 C   0  0  0  0  0  0  0  0  0  0  0  0
   -0.9099   -0.5924    0.4020 C   0  0  0  0  0  0  0  0  0  0  0  0
    0.4466   -1.2595    0.3862 C   0  0  0  0  0  0  0  0  0  0  0  0
    0.9670   -0.0555   -0.3758 C   0  0  0  0  0  0  0  0  0  0  0  0
    2.0469    0.6247    0.3954 C   0  0  0  0  0  0  0  0  0  0  0  0
    3.0816   -0.3210    0.5796 O   0  0  0  0  0  0  0  0  0  0  0  0
   -0.3737    0.5872   -0.4067 C   0  0  0  0  0  0  0  0  0  0  0  0
   -0.5612    1.8790    0.2954 C   0  0  0  0  0  0  0  0  0  0  0  0
   -0.9911    0.6222   -1.6695 O   0  0  0  0  0  0  0  0  0  0  0  0
   -2.2366   -2.2472    0.3023 H   0  0  0  0  0  0  0  0  0  0  0  0
   -1.4814   -1.8112   -1.3016 H   0  0  0  0  0  0  0  0  0  0  0  0
   -2.8341   -0.8056   -0.5759 H   0  0  0  0  0  0  0  0  0  0  0  0
   -1.3069   -0.3067    1.3733 H   0  0  0  0  0  0  0  0  0  0  0  0
    0.5246   -2.2059   -0.1429 H   0  0  0  0  0  0  0  0  0  0  0  0
    0.8457   -1.3551    1.4183 H   0  0  0  0  0  0  0  0  0  0  0  0
    1.3401   -0.3798   -1.3684 H   0  0  0  0  0  0  0  0  0  0  0  0
    1.6798    0.8553    1.4232 H   0  0  0  0  0  0  0  0  0  0  0  0
    2.4363    1.5396   -0.0794 H   0  0  0  0  0  0  0  0  0  0  0  0
    3.1765   -0.8846   -0.2479 H   0  0  0  0  0  0  0  0  0  0  0  0
   -0.8316    2.6933   -0.4298 H   0  0  0  0  0  0  0  0  0  0  0  0
    0.2891    2.2439    0.8670 H   0  0  0  0  0  0  0  0  0  0  0  0
   -1.4303    1.8119    0.9977 H   0  0  0  0  0  0  0  0  0  0  0  0
   -1.9478    0.7892   -1.4885 H   0  0  0  0  0  0  0  0  0  0  0  0
  1  2  1  0
  2  3  1  0
  3  4  1  0
  4  5  1  0
  5  6  1  0
  4  7  1  0
  7  8  1  0
  7  9  1  0
  7  2  1  0
  1 10  1  0
  1 11  1  0
  1 12  1  0
  2 13  1  0
  3 14  1  0
  3 15  1  0
  4 16  1  0
  5 17  1  0
  5 18  1  0
  6 19  1  0
  8 20  1  0
  8 21  1  0
  8 22  1  0
  9 23  1  0
M  END
