
     RDKit          3D

 27 27  0  0  0  0  0  0  0  0999 V2000
    3.2658   -0.3250   -0.2254 C   0  0  0  0  0  0  0  0  0  0  0  0
    2.0576    0.0461    0.5650 C   0  0  0  0  0  0  0  0  0  0  0  0
    0.9247   -0.9931    0.5301 C   0  0  0  0  0  0  0  0  0  0  0  0
    0.0013    0.1966    0.6095 C   0  0  0  0  0  0  0  0  0  0  0  0
   -1.3230    0.0783   -0.0361 C   0  0  0  0  0  0  0  0  0  0  0  0
   -1.2943   -0.1861   -1.5027 C   0  0  0  0  0  0  0  0  0  0  0  0
   -2.1229   -1.0086    0.6364 C   0  0  0  0  0  0  0  0  0  0  0  0
   -2.0488    1.4019    0.1884 C   0  0  0  0  0  0  0  0  0  0  0  0
    1.0592    0.9496   -0.1744 C   0  0  0  0  0  0  0  0  0  0  0  0
    3.5225   -1.4144   -0.1598 H   0  0  0  0  0  0  0  0  0  0  0  0
    4.1441    0.2004    0.2491 H   0  0  0  0  0  0  0  0  0  0  0  0
    3.2314    0.0382   -1.2632 H   0  0  0  0  0  0  0  0  0  0  0  0
    2.2122    0.4074    1.5892 H   0  0  0  0  0  0  0  0  0  0  0  0
    0.9038   -1.6730    1.3783 H   0  0  0  0  0  0  0  0  0  0  0  0
    0.8938   -1.4565   -0.4882 H   0  0  0  0  0  0  0  0  0  0  0  0
   -0.0879    0.5958    1.6418 H   0  0  0  0  0  0  0  0  0  0  0  0
   -0.7688    0.5821   -2.0953 H   0  0  0  0  0  0  0  0  0  0  0  0
   -0.9399   -1.2208   -1.7182 H   0  0  0  0  0  0  0  0  0  0  0  0
   -2.3639   -0.1547   -1.8625 H   0  0  0  0  0  0  0  0  0  0  0  0
   -2.4565   -1.7880   -0.0635 H   0  0  0  0  0  0  0  0  0  0  0  0
   -1.5143   -1.5210    1.4369 H   0  0  0  0  0  0  0  0  0  0  0  0
   -3.0276   -0.6007    1.1331 H   0  0  0  0  0  0  0  0  0  0  0  0
   -1.3878    2.1831   -0.2337 H   0  0  0  0  0  0  0  0  0  0  0  0
   -2.0554    1.5618    1.2893 H   0  0  0  0  0  0  0  0  0  0  0  0
   -3.0593    1.4024   -0.2585 H   0  0  0  0  0  0  0  0  0  0  0  0
    1.0797    0.6810   -1.2379 H   0  0  0  0  0  0  0  0  0  0  0  0
    1.1539    2.0172    0.0725 H   0  0  0  0  0  0  0  0  0  0  0  0
  1  2  1  0
  2  3  1  0
  3  4  1  0
  4  5  1  0
  5  6  1  0
  5  7  1  0
  5  8  1  0
  4  9  1  0
  9  2  1  0
  1 10  1  0
  1 11  1  0
  1 12  1  0
  2 13  1  0
  3 14  1  0
  3 15  1  0
  4 16  1  0
  6 17  1  0
  6 18  1  0
  6 19  1  0
  7 20  1  0
  7 21  1  0
  7 22  1  0
  8 23  1  0
  8 24  1  0
  8 25  1  0
  9 26  1  0
  9 27  1  0
M  END
