
     RDKit          3D

 23 24  0  0  0  0  0  0  0  0999 V2000
    2.1641    0.4220   -0.6308 C   0  0  0  0  0  0  0  0  0  0  0  0
    0.7273    0.0922   -0.7110 C   0  0  0  0  0  0  0  0  0  0  0  0
   -0.1845    1.2092   -0.2084 C   0  0  0  0  0  0  0  0  0  0  0  0
   -1.5404    0.8673   -0.7011 C   0  0  0  0  0  0  0  0  0  0  0  0
   -1.9026   -0.3874   -0.8145 C   0  0  0  0  0  0  0  0  0  0  0  0
   -1.0411   -1.5488   -0.4305 C   0  0  0  0  0  0  0  0  0  0  0  0
    0.2827   -1.0522    0.1520 C   0  0  0  0  0  0  0  0  0  0  0  0
   -0.0549   -0.4690    1.5092 C   0  0  0  0  0  0  0  0  0  0  0  0
   -0.0681    1.0087    1.2869 C   0  0  0  0  0  0  0  0  0  0  0  0
    2.7948   -0.4662   -0.5841 H   0  0  0  0  0  0  0  0  0  0  0  0
    2.4264    1.0356   -1.5442 H   0  0  0  0  0  0  0  0  0  0  0  0
    2.4404    1.0806    0.2281 H   0  0  0  0  0  0  0  0  0  0  0  0
    0.4394   -0.1442   -1.7602 H   0  0  0  0  0  0  0  0  0  0  0  0
    0.1622    2.2023   -0.4942 H   0  0  0  0  0  0  0  0  0  0  0  0
   -2.2248    1.6608   -0.9648 H   0  0  0  0  0  0  0  0  0  0  0  0
   -2.8816   -0.6345   -1.2079 H   0  0  0  0  0  0  0  0  0  0  0  0
   -0.8204   -2.1902   -1.2812 H   0  0  0  0  0  0  0  0  0  0  0  0
   -1.5329   -2.1093    0.3981 H   0  0  0  0  0  0  0  0  0  0  0  0
    1.0106   -1.8620    0.1902 H   0  0  0  0  0  0  0  0  0  0  0  0
    0.7124   -0.8123    2.2297 H   0  0  0  0  0  0  0  0  0  0  0  0
   -1.0362   -0.8650    1.8927 H   0  0  0  0  0  0  0  0  0  0  0  0
   -0.8083    1.5608    1.8643 H   0  0  0  0  0  0  0  0  0  0  0  0
    0.9356    1.4015    1.5816 H   0  0  0  0  0  0  0  0  0  0  0  0
  1  2  1  0
  2  3  1  0
  3  4  1  0
  4  5  2  0
  5  6  1  0
  6  7  1  0
  7  8  1  0
  8  9  1  0
  7  2  1  0
  9  3  1  0
  1 10  1  0
  1 11  1  0
  1 12  1  0
  2 13  1  0
  3 14  1  0
  4 15  1  0
  5 16  1  0
  6 17  1  0
  6 18  1  0
  7 19  1  0
  8 20  1  0
  8 21  1  0
  9 22  1  0
  9 23  1  0
M  END
