
     RDKit          3D

 17 17  0  0  0  0  0  0  0  0999 V2000
    2.0220    0.0985    0.1089 C   0  0  0  0  0  0  0  0  0  0  0  0
    0.6581   -0.3503   -0.3295 C   0  0  0  0  0  0  0  0  0  0  0  0
   -0.1663    0.9170   -0.6031 C   0  0  0  0  0  0  0  0  0  0  0  0
   -1.5532    0.3091   -0.5265 C   0  0  0  0  0  0  0  0  0  0  0  0
   -1.4461   -0.4263    0.8138 C   0  0  0  0  0  0  0  0  0  0  0  0
   -0.1041   -1.0536    0.7017 C   0  0  0  0  0  0  0  0  0  0  0  0
    0.2903   -1.9917    1.3570 O   0  0  0  0  0  0  0  0  0  0  0  0
    2.4720    0.6469   -0.7630 H   0  0  0  0  0  0  0  0  0  0  0  0
    2.6997   -0.7431    0.3125 H   0  0  0  0  0  0  0  0  0  0  0  0
    1.9866    0.8357    0.9312 H   0  0  0  0  0  0  0  0  0  0  0  0
    0.7510   -0.8935   -1.2886 H   0  0  0  0  0  0  0  0  0  0  0  0
    0.0039    1.6415    0.2271 H   0  0  0  0  0  0  0  0  0  0  0  0
    0.0810    1.3177   -1.5860 H   0  0  0  0  0  0  0  0  0  0  0  0
   -1.6031   -0.4751   -1.3075 H   0  0  0  0  0  0  0  0  0  0  0  0
   -2.3562    1.0320   -0.5433 H   0  0  0  0  0  0  0  0  0  0  0  0
   -1.4716    0.3009    1.6441 H   0  0  0  0  0  0  0  0  0  0  0  0
   -2.2639   -1.1658    0.8511 H   0  0  0  0  0  0  0  0  0  0  0  0
  1  2  1  0
  2  3  1  0
  3  4  1  0
  4  5  1  0
  5  6  1  0
  6  7  2  0
  6  2  1  0
  1  8  1  0
  1  9  1  0
  1 10  1  0
  2 11  1  0
  3 12  1  0
  3 13  1  0
  4 14  1  0
  4 15  1  0
  5 16  1  0
  5 17  1  0
M  END
