
     RDKit          3D

 17 19  0  0  0  0  0  0  0  0999 V2000
    1.9934   -0.7058   -0.1351 C   0  0  0  0  0  0  0  0  0  0  0  0
    0.8155    0.0954   -0.6540 C   0  0  0  0  0  0  0  0  0  0  0  0
    0.1439    0.9638    0.3247 C   0  0  0  0  0  0  0  0  0  0  0  0
   -1.1214    1.6943   -0.0302 C   0  0  0  0  0  0  0  0  0  0  0  0
   -2.3393    1.2021    0.4217 O   0  0  0  0  0  0  0  0  0  0  0  0
   -1.6931    0.5139   -0.5903 C   0  0  0  0  0  0  0  0  0  0  0  0
   -0.5028   -0.3099   -0.1523 C   0  0  0  0  0  0  0  0  0  0  0  0
   -0.6888   -1.4426    0.7717 C   0  0  0  0  0  0  0  0  0  0  0  0
   -0.9028   -1.3213    1.9675 O   0  0  0  0  0  0  0  0  0  0  0  0
    2.9510   -0.1693   -0.2234 H   0  0  0  0  0  0  0  0  0  0  0  0
    2.0272   -1.7276   -0.5977 H   0  0  0  0  0  0  0  0  0  0  0  0
    1.8289   -0.8896    0.9513 H   0  0  0  0  0  0  0  0  0  0  0  0
    0.8570    0.4218   -1.7129 H   0  0  0  0  0  0  0  0  0  0  0  0
    0.4842    1.0573    1.3730 H   0  0  0  0  0  0  0  0  0  0  0  0
   -1.0830    2.6988   -0.4849 H   0  0  0  0  0  0  0  0  0  0  0  0
   -2.1418    0.3708   -1.5714 H   0  0  0  0  0  0  0  0  0  0  0  0
   -0.6282   -2.4521    0.3422 H   0  0  0  0  0  0  0  0  0  0  0  0
  1  2  1  0
  2  3  1  0
  3  4  1  0
  4  5  1  0
  5  6  1  0
  6  7  1  0
  7  8  1  0
  8  9  2  0
  7  2  1  0
  7  3  1  0
  6  4  1  0
  1 10  1  0
  1 11  1  0
  1 12  1  0
  2 13  1  0
  3 14  1  0
  4 15  1  0
  6 16  1  0
  8 17  1  0
M  END
