
     RDKit          3D

 21 22  0  0  0  0  0  0  0  0999 V2000
    2.4424    0.3166    0.5333 C   0  0  0  0  0  0  0  0  0  0  0  0
    1.4009   -0.4345   -0.2447 C   0  0  0  0  0  0  0  0  0  0  0  0
    0.7921    0.3552   -1.4302 C   0  0  0  0  0  0  0  0  0  0  0  0
    0.0097   -0.0926   -0.3056 C   0  0  0  0  0  0  0  0  0  0  0  0
   -0.7682    0.7317    0.6290 C   0  0  0  0  0  0  0  0  0  0  0  0
   -0.8566    2.0878    0.4065 O   0  0  0  0  0  0  0  0  0  0  0  0
   -2.0381    0.0632    0.0792 C   0  0  0  0  0  0  0  0  0  0  0  0
   -1.1221   -1.0730   -0.3852 C   0  0  0  0  0  0  0  0  0  0  0  0
   -0.9518   -2.0836    0.5518 O   0  0  0  0  0  0  0  0  0  0  0  0
    2.6247   -0.2271    1.4724 H   0  0  0  0  0  0  0  0  0  0  0  0
    3.3705    0.3483   -0.0948 H   0  0  0  0  0  0  0  0  0  0  0  0
    2.1274    1.3532    0.7213 H   0  0  0  0  0  0  0  0  0  0  0  0
    1.6871   -1.4994   -0.4630 H   0  0  0  0  0  0  0  0  0  0  0  0
    1.1578    1.3863   -1.5728 H   0  0  0  0  0  0  0  0  0  0  0  0
    0.7142   -0.2426   -2.3806 H   0  0  0  0  0  0  0  0  0  0  0  0
   -0.6093    0.4263    1.6926 H   0  0  0  0  0  0  0  0  0  0  0  0
   -1.8120    2.3701    0.5461 H   0  0  0  0  0  0  0  0  0  0  0  0
   -2.7580   -0.2003    0.8485 H   0  0  0  0  0  0  0  0  0  0  0  0
   -2.4657    0.5852   -0.8000 H   0  0  0  0  0  0  0  0  0  0  0  0
   -1.2928   -1.3974   -1.4231 H   0  0  0  0  0  0  0  0  0  0  0  0
   -1.6521   -2.7731    0.4515 H   0  0  0  0  0  0  0  0  0  0  0  0
  1  2  1  0
  2  3  1  0
  3  4  1  0
  4  5  1  0
  5  6  1  0
  5  7  1  0
  7  8  1  0
  8  9  1  0
  4  2  1  0
  8  4  1  0
  1 10  1  0
  1 11  1  0
  1 12  1  0
  2 13  1  0
  3 14  1  0
  3 15  1  0
  5 16  1  0
  6 17  1  0
  7 18  1  0
  7 19  1  0
  8 20  1  0
  9 21  1  0
M  END
