
     RDKit          3D

 19 22  0  0  0  0  0  0  0  0999 V2000
    2.0751    0.6683   -0.0249 C   0  0  0  0  0  0  0  0  0  0  0  0
    0.7915    0.1816   -0.5905 C   0  0  0  0  0  0  0  0  0  0  0  0
    0.4641   -1.2512   -0.2145 C   0  0  0  0  0  0  0  0  0  0  0  0
   -0.4780   -1.2313    0.8863 C   0  0  0  0  0  0  0  0  0  0  0  0
   -0.9596   -1.3613   -0.5224 C   0  0  0  0  0  0  0  0  0  0  0  0
   -1.5307   -0.0019   -0.4508 C   0  0  0  0  0  0  0  0  0  0  0  0
   -1.0626    0.1356    0.9408 C   0  0  0  0  0  0  0  0  0  0  0  0
   -0.4242    0.9175   -0.1074 C   0  0  0  0  0  0  0  0  0  0  0  0
   -0.5506    2.2723   -0.2585 O   0  0  0  0  0  0  0  0  0  0  0  0
    2.5212    1.4225   -0.7390 H   0  0  0  0  0  0  0  0  0  0  0  0
    1.9118    1.1198    0.9674 H   0  0  0  0  0  0  0  0  0  0  0  0
    2.8336   -0.1596   -0.0022 H   0  0  0  0  0  0  0  0  0  0  0  0
    0.7799    0.1955   -1.7193 H   0  0  0  0  0  0  0  0  0  0  0  0
    1.2015   -2.0371   -0.3020 H   0  0  0  0  0  0  0  0  0  0  0  0
   -0.6259   -1.9847    1.6398 H   0  0  0  0  0  0  0  0  0  0  0  0
   -1.4962   -2.2516   -0.7916 H   0  0  0  0  0  0  0  0  0  0  0  0
   -2.4930    0.2939   -0.8218 H   0  0  0  0  0  0  0  0  0  0  0  0
   -1.7030    0.4923    1.7256 H   0  0  0  0  0  0  0  0  0  0  0  0
   -1.2549    2.5792    0.3850 H   0  0  0  0  0  0  0  0  0  0  0  0
  1  2  1  0
  2  3  1  0
  3  4  1  0
  4  5  1  0
  5  6  1  0
  6  7  1  0
  7  8  1  0
  8  9  1  0
  8  2  1  0
  5  3  1  0
  8  6  1  0
  7  4  1  0
  1 10  1  0
  1 11  1  0
  1 12  1  0
  2 13  1  0
  3 14  1  0
  4 15  1  0
  5 16  1  0
  6 17  1  0
  7 18  1  0
  9 19  1  0
M  END
