
     RDKit          3D

 21 22  0  0  0  0  0  0  0  0999 V2000
    1.7586    1.2281    0.3256 C   0  0  0  0  0  0  0  0  0  0  0  0
    0.9692    0.2854   -0.5301 C   0  0  0  0  0  0  0  0  0  0  0  0
    0.0382    1.0224   -1.4660 C   0  0  0  0  0  0  0  0  0  0  0  0
   -1.1721    1.0870   -0.9577 C   0  0  0  0  0  0  0  0  0  0  0  0
   -1.1687    0.4055    0.3576 C   0  0  0  0  0  0  0  0  0  0  0  0
   -2.3848   -0.2139    0.6337 O   0  0  0  0  0  0  0  0  0  0  0  0
   -0.0340   -0.5303    0.2312 C   0  0  0  0  0  0  0  0  0  0  0  0
   -0.2635   -1.9580   -0.2717 C   0  0  0  0  0  0  0  0  0  0  0  0
    0.2604   -1.6412    1.0965 C   0  0  0  0  0  0  0  0  0  0  0  0
    2.7885    0.8044    0.5111 H   0  0  0  0  0  0  0  0  0  0  0  0
    1.3273    1.3766    1.3365 H   0  0  0  0  0  0  0  0  0  0  0  0
    1.9379    2.1827   -0.2076 H   0  0  0  0  0  0  0  0  0  0  0  0
    1.6096   -0.3445   -1.1840 H   0  0  0  0  0  0  0  0  0  0  0  0
    0.3068    1.4519   -2.4355 H   0  0  0  0  0  0  0  0  0  0  0  0
   -2.0750    1.5449   -1.3706 H   0  0  0  0  0  0  0  0  0  0  0  0
   -0.9273    1.1809    1.1220 H   0  0  0  0  0  0  0  0  0  0  0  0
   -3.0067    0.4928    0.9337 H   0  0  0  0  0  0  0  0  0  0  0  0
   -1.3145   -2.2458   -0.4191 H   0  0  0  0  0  0  0  0  0  0  0  0
    0.5046   -2.3340   -0.9891 H   0  0  0  0  0  0  0  0  0  0  0  0
    1.2930   -1.9516    1.3420 H   0  0  0  0  0  0  0  0  0  0  0  0
   -0.4475   -1.8435    1.9413 H   0  0  0  0  0  0  0  0  0  0  0  0
  1  2  1  0
  2  3  1  0
  3  4  2  0
  4  5  1  0
  5  6  1  0
  5  7  1  0
  7  8  1  0
  8  9  1  0
  7  2  1  0
  9  7  1  0
  1 10  1  0
  1 11  1  0
  1 12  1  0
  2 13  1  0
  3 14  1  0
  4 15  1  0
  5 16  1  0
  6 17  1  0
  8 18  1  0
  8 19  1  0
  9 20  1  0
  9 21  1  0
M  END
