
     RDKit          3D

 23 23  0  0  0  0  0  0  0  0999 V2000
    0.5833   -1.6786    0.3403 C   0  0  0  0  0  0  0  0  0  0  0  0
    0.0040   -0.3638    0.7984 C   0  0  0  0  0  0  0  0  0  0  0  0
    0.7980    0.8075    0.2445 C   0  0  0  0  0  0  0  0  0  0  0  0
    2.2924    0.5844    0.2465 C   0  0  0  0  0  0  0  0  0  0  0  0
    2.8585    1.4560   -0.6644 O   0  0  0  0  0  0  0  0  0  0  0  0
    0.1704    0.5969   -0.9683 O   0  0  0  0  0  0  0  0  0  0  0  0
   -0.9593    0.1658   -0.2344 C   0  0  0  0  0  0  0  0  0  0  0  0
   -1.7148   -0.9602   -0.8726 C   0  0  0  0  0  0  0  0  0  0  0  0
   -1.8622    1.2647    0.2148 C   0  0  0  0  0  0  0  0  0  0  0  0
   -0.1542   -2.4965    0.3036 H   0  0  0  0  0  0  0  0  0  0  0  0
    1.4518   -1.9828    0.9473 H   0  0  0  0  0  0  0  0  0  0  0  0
    0.9192   -1.5245   -0.7220 H   0  0  0  0  0  0  0  0  0  0  0  0
   -0.2972   -0.2875    1.8399 H   0  0  0  0  0  0  0  0  0  0  0  0
    0.5446    1.7490    0.7404 H   0  0  0  0  0  0  0  0  0  0  0  0
    2.6615    0.9057    1.2592 H   0  0  0  0  0  0  0  0  0  0  0  0
    2.5859   -0.4585    0.1251 H   0  0  0  0  0  0  0  0  0  0  0  0
    2.3790    1.3020   -1.5401 H   0  0  0  0  0  0  0  0  0  0  0  0
   -1.1394   -1.4391   -1.6909 H   0  0  0  0  0  0  0  0  0  0  0  0
   -1.9905   -1.6842   -0.0706 H   0  0  0  0  0  0  0  0  0  0  0  0
   -2.6932   -0.5585   -1.2459 H   0  0  0  0  0  0  0  0  0  0  0  0
   -2.3703    0.9895    1.1820 H   0  0  0  0  0  0  0  0  0  0  0  0
   -1.3886    2.2449    0.3098 H   0  0  0  0  0  0  0  0  0  0  0  0
   -2.6788    1.3676   -0.5425 H   0  0  0  0  0  0  0  0  0  0  0  0
  1  2  1  0
  2  3  1  0
  3  4  1  0
  4  5  1  0
  3  6  1  0
  6  7  1  0
  7  8  1  0
  7  9  1  0
  7  2  1  0
  1 10  1  0
  1 11  1  0
  1 12  1  0
  2 13  1  0
  3 14  1  0
  4 15  1  0
  4 16  1  0
  5 17  1  0
  8 18  1  0
  8 19  1  0
  8 20  1  0
  9 21  1  0
  9 22  1  0
  9 23  1  0
M  END
