
     RDKit          3D

 19 21  0  0  0  0  0  0  0  0999 V2000
   -2.2242   -0.6965    0.2405 C   0  0  0  0  0  0  0  0  0  0  0  0
   -1.3874    0.4682   -0.0993 C   0  0  0  0  0  0  0  0  0  0  0  0
   -0.3799    0.8332    0.9962 C   0  0  0  0  0  0  0  0  0  0  0  0
    0.8740    0.4420    0.8586 C   0  0  0  0  0  0  0  0  0  0  0  0
    2.2087   -0.0535    0.5746 C   0  0  0  0  0  0  0  0  0  0  0  0
    1.7573   -0.1851   -0.9417 C   0  0  0  0  0  0  0  0  0  0  0  0
    0.5395    0.4591   -1.3997 C   0  0  0  0  0  0  0  0  0  0  0  0
   -0.8075    0.4630   -1.3679 O   0  0  0  0  0  0  0  0  0  0  0  0
    0.6429   -0.6161   -0.3233 C   0  0  0  0  0  0  0  0  0  0  0  0
   -1.8595   -1.1606    1.1818 H   0  0  0  0  0  0  0  0  0  0  0  0
   -2.2714   -1.5061   -0.5157 H   0  0  0  0  0  0  0  0  0  0  0  0
   -3.2941   -0.4169    0.4883 H   0  0  0  0  0  0  0  0  0  0  0  0
   -2.0742    1.3704   -0.1165 H   0  0  0  0  0  0  0  0  0  0  0  0
   -0.6766    1.4024    1.8610 H   0  0  0  0  0  0  0  0  0  0  0  0
    2.5010   -1.0076    1.0061 H   0  0  0  0  0  0  0  0  0  0  0  0
    3.0592    0.6513    0.6511 H   0  0  0  0  0  0  0  0  0  0  0  0
    2.5046   -0.5257   -1.6422 H   0  0  0  0  0  0  0  0  0  0  0  0
    0.7994    1.5355   -1.2864 H   0  0  0  0  0  0  0  0  0  0  0  0
    0.0881   -1.4570   -0.1656 H   0  0  0  0  0  0  0  0  0  0  0  0
  1  2  1  0
  2  3  1  0
  3  4  2  0
  4  5  1  0
  5  6  1  0
  6  7  1  0
  7  8  1  0
  7  9  1  0
  8  2  1  0
  9  4  1  0
  9  6  1  0
  1 10  1  0
  1 11  1  0
  1 12  1  0
  2 13  1  0
  3 14  1  0
  5 15  1  0
  5 16  1  0
  6 17  1  0
  7 18  1  0
  9 19  1  0
M  END
