
     RDKit          3D

 21 22  0  0  0  0  0  0  0  0999 V2000
    2.2362    0.0229    0.4985 C   0  0  0  0  0  0  0  0  0  0  0  0
    0.8992    0.3188   -0.1263 C   0  0  0  0  0  0  0  0  0  0  0  0
    0.6587   -0.3845   -1.4629 C   0  0  0  0  0  0  0  0  0  0  0  0
   -0.8030   -0.4601   -1.0013 C   0  0  0  0  0  0  0  0  0  0  0  0
   -1.4343    0.8614   -0.9951 C   0  0  0  0  0  0  0  0  0  0  0  0
   -1.7094    1.2635    0.2411 C   0  0  0  0  0  0  0  0  0  0  0  0
   -1.2692    0.2067    1.1949 C   0  0  0  0  0  0  0  0  0  0  0  0
   -0.2417   -0.5320    0.4093 C   0  0  0  0  0  0  0  0  0  0  0  0
    0.1117   -1.7818    0.8421 O   0  0  0  0  0  0  0  0  0  0  0  0
    2.9968    0.5949   -0.0746 H   0  0  0  0  0  0  0  0  0  0  0  0
    2.3936   -1.0711    0.4295 H   0  0  0  0  0  0  0  0  0  0  0  0
    2.1744    0.3580    1.5566 H   0  0  0  0  0  0  0  0  0  0  0  0
    0.6010    1.3730   -0.1787 H   0  0  0  0  0  0  0  0  0  0  0  0
    1.1130   -1.4021   -1.4872 H   0  0  0  0  0  0  0  0  0  0  0  0
    0.8048    0.2342   -2.3443 H   0  0  0  0  0  0  0  0  0  0  0  0
   -1.3575   -1.3125   -1.3505 H   0  0  0  0  0  0  0  0  0  0  0  0
   -1.6494    1.4372   -1.8842 H   0  0  0  0  0  0  0  0  0  0  0  0
   -2.1742    2.1937    0.5519 H   0  0  0  0  0  0  0  0  0  0  0  0
   -0.8688    0.6243    2.1396 H   0  0  0  0  0  0  0  0  0  0  0  0
   -2.1153   -0.4819    1.3872 H   0  0  0  0  0  0  0  0  0  0  0  0
   -0.3665   -2.0626    1.6544 H   0  0  0  0  0  0  0  0  0  0  0  0
  1  2  1  0
  2  3  1  0
  3  4  1  0
  4  5  1  0
  5  6  2  0
  6  7  1  0
  7  8  1  0
  8  9  1  0
  8  2  1  0
  8  4  1  0
  1 10  1  0
  1 11  1  0
  1 12  1  0
  2 13  1  0
  3 14  1  0
  3 15  1  0
  4 16  1  0
  5 17  1  0
  6 18  1  0
  7 19  1  0
  7 20  1  0
  9 21  1  0
M  END
