
     RDKit          3D

 18 18  0  0  0  0  0  0  0  0999 V2000
   -1.8191   -0.8650    0.0256 C   0  0  0  0  0  0  0  0  0  0  0  0
   -0.6946   -0.0333   -0.5083 C   0  0  0  0  0  0  0  0  0  0  0  0
   -0.8687    1.3997   -0.1485 C   0  0  0  0  0  0  0  0  0  0  0  0
   -1.8658    2.0999   -0.1098 O   0  0  0  0  0  0  0  0  0  0  0  0
    0.5992    1.4745    0.0925 C   0  0  0  0  0  0  0  0  0  0  0  0
    0.5715   -0.0372    0.2999 C   0  0  0  0  0  0  0  0  0  0  0  0
    1.6657   -0.7617   -0.4465 C   0  0  0  0  0  0  0  0  0  0  0  0
    0.4352   -0.3805    1.6303 O   0  0  0  0  0  0  0  0  0  0  0  0
   -2.4397   -0.2833    0.7474 H   0  0  0  0  0  0  0  0  0  0  0  0
   -2.5154   -1.1400   -0.8060 H   0  0  0  0  0  0  0  0  0  0  0  0
   -1.5088   -1.7888    0.5279 H   0  0  0  0  0  0  0  0  0  0  0  0
   -0.5274   -0.1457   -1.5766 H   0  0  0  0  0  0  0  0  0  0  0  0
    0.7897    2.0549    1.0306 H   0  0  0  0  0  0  0  0  0  0  0  0
    1.1909    1.8040   -0.7882 H   0  0  0  0  0  0  0  0  0  0  0  0
    1.2931   -1.7825   -0.7008 H   0  0  0  0  0  0  0  0  0  0  0  0
    2.6156   -0.7814    0.1191 H   0  0  0  0  0  0  0  0  0  0  0  0
    1.7890   -0.2341   -1.4214 H   0  0  0  0  0  0  0  0  0  0  0  0
    1.2898   -0.5997    2.0328 H   0  0  0  0  0  0  0  0  0  0  0  0
  1  2  1  0
  2  3  1  0
  3  4  2  0
  3  5  1  0
  5  6  1  0
  6  7  1  0
  6  8  1  0
  6  2  1  0
  1  9  1  0
  1 10  1  0
  1 11  1  0
  2 12  1  0
  5 13  1  0
  5 14  1  0
  7 15  1  0
  7 16  1  0
  7 17  1  0
  8 18  1  0
M  END
