
     RDKit          3D

 16 16  0  0  0  0  0  0  0  0999 V2000
   -2.2528   -0.4918    0.5303 C   0  0  0  0  0  0  0  0  0  0  0  0
   -1.0272    0.1406   -0.0443 C   0  0  0  0  0  0  0  0  0  0  0  0
    0.1622    0.0493    0.8270 C   0  0  0  0  0  0  0  0  0  0  0  0
    1.1990    0.1065    0.0128 C   0  0  0  0  0  0  0  0  0  0  0  0
    2.5927    0.0545    0.4130 C   0  0  0  0  0  0  0  0  0  0  0  0
    3.4687    0.1208   -0.4834 O   0  0  0  0  0  0  0  0  0  0  0  0
    0.6331    0.2235   -1.3818 C   0  0  0  0  0  0  0  0  0  0  0  0
   -0.5870   -0.4826   -1.2070 O   0  0  0  0  0  0  0  0  0  0  0  0
   -2.6304   -1.2295   -0.2085 H   0  0  0  0  0  0  0  0  0  0  0  0
   -3.0106    0.2969    0.7086 H   0  0  0  0  0  0  0  0  0  0  0  0
   -1.9964   -0.9401    1.4979 H   0  0  0  0  0  0  0  0  0  0  0  0
   -1.1656    1.2117   -0.2927 H   0  0  0  0  0  0  0  0  0  0  0  0
    0.1577   -0.0445    1.9085 H   0  0  0  0  0  0  0  0  0  0  0  0
    2.8560   -0.0383    1.4520 H   0  0  0  0  0  0  0  0  0  0  0  0
    1.2736   -0.2400   -2.1288 H   0  0  0  0  0  0  0  0  0  0  0  0
    0.3270    1.2631   -1.6036 H   0  0  0  0  0  0  0  0  0  0  0  0
  1  2  1  0
  2  3  1  0
  3  4  2  0
  4  5  1  0
  5  6  2  0
  4  7  1  0
  7  8  1  0
  8  2  1  0
  1  9  1  0
  1 10  1  0
  1 11  1  0
  2 12  1  0
  3 13  1  0
  5 14  1  0
  7 15  1  0
  7 16  1  0
M  END
