
     RDKit          3D

 19 20  0  0  0  0  0  0  0  0999 V2000
    2.5002   -0.3656    0.1498 C   0  0  0  0  0  0  0  0  0  0  0  0
    1.3014    0.4480   -0.2318 C   0  0  0  0  0  0  0  0  0  0  0  0
    0.4582   -0.2092   -1.3613 C   0  0  0  0  0  0  0  0  0  0  0  0
   -0.6628    0.5455   -0.7034 C   0  0  0  0  0  0  0  0  0  0  0  0
   -1.9687   -0.0662   -0.5383 C   0  0  0  0  0  0  0  0  0  0  0  0
   -2.7345   -0.5456   -1.3245 O   0  0  0  0  0  0  0  0  0  0  0  0
   -2.2240    0.0145    0.9593 C   0  0  0  0  0  0  0  0  0  0  0  0
   -0.8242   -0.0483    1.5299 C   0  0  0  0  0  0  0  0  0  0  0  0
    0.0763    0.2033    0.6020 C   0  0  0  0  0  0  0  0  0  0  0  0
    3.1459   -0.4633   -0.7289 H   0  0  0  0  0  0  0  0  0  0  0  0
    2.9643    0.1106    1.0220 H   0  0  0  0  0  0  0  0  0  0  0  0
    2.1271   -1.3624    0.5054 H   0  0  0  0  0  0  0  0  0  0  0  0
    1.4620    1.5048   -0.4413 H   0  0  0  0  0  0  0  0  0  0  0  0
    0.3987   -1.2863   -1.2352 H   0  0  0  0  0  0  0  0  0  0  0  0
    0.7358    0.1702   -2.3607 H   0  0  0  0  0  0  0  0  0  0  0  0
   -0.6528    1.6393   -0.8737 H   0  0  0  0  0  0  0  0  0  0  0  0
   -2.7553    0.9195    1.2394 H   0  0  0  0  0  0  0  0  0  0  0  0
   -2.7071   -0.9359    1.2281 H   0  0  0  0  0  0  0  0  0  0  0  0
   -0.6406   -0.2728    2.5632 H   0  0  0  0  0  0  0  0  0  0  0  0
  1  2  1  0
  2  3  1  0
  3  4  1  0
  4  5  1  0
  5  6  2  0
  5  7  1  0
  7  8  1  0
  8  9  2  0
  9  2  1  0
  9  4  1  0
  1 10  1  0
  1 11  1  0
  1 12  1  0
  2 13  1  0
  3 14  1  0
  3 15  1  0
  4 16  1  0
  7 17  1  0
  7 18  1  0
  8 19  1  0
M  END
