
     RDKit          3D

 19 20  0  0  0  0  0  0  0  0999 V2000
    2.4381    0.1359   -0.3943 C   0  0  0  0  0  0  0  0  0  0  0  0
    1.0863    0.3815    0.1858 C   0  0  0  0  0  0  0  0  0  0  0  0
    0.3545   -0.9610    0.3617 C   0  0  0  0  0  0  0  0  0  0  0  0
   -0.9838   -0.7823   -0.2045 C   0  0  0  0  0  0  0  0  0  0  0  0
   -2.2839   -0.6700    0.3372 C   0  0  0  0  0  0  0  0  0  0  0  0
   -1.5185    0.4884    0.5585 C   0  0  0  0  0  0  0  0  0  0  0  0
   -0.9877    1.5373   -0.2737 C   0  0  0  0  0  0  0  0  0  0  0  0
   -1.5197    2.5846   -0.6846 O   0  0  0  0  0  0  0  0  0  0  0  0
    0.3314    1.2826   -0.6445 O   0  0  0  0  0  0  0  0  0  0  0  0
    3.0927    1.0183   -0.2769 H   0  0  0  0  0  0  0  0  0  0  0  0
    2.3591   -0.1243   -1.4737 H   0  0  0  0  0  0  0  0  0  0  0  0
    2.8941   -0.7315    0.1252 H   0  0  0  0  0  0  0  0  0  0  0  0
    1.2353    0.8622    1.1883 H   0  0  0  0  0  0  0  0  0  0  0  0
    0.3166   -1.1963    1.4635 H   0  0  0  0  0  0  0  0  0  0  0  0
    0.9262   -1.7423   -0.1901 H   0  0  0  0  0  0  0  0  0  0  0  0
   -0.9130   -0.6965   -1.3304 H   0  0  0  0  0  0  0  0  0  0  0  0
   -3.1665   -0.6987   -0.3683 H   0  0  0  0  0  0  0  0  0  0  0  0
   -2.5470   -1.3142    1.2240 H   0  0  0  0  0  0  0  0  0  0  0  0
   -1.1142    0.6263    1.6118 H   0  0  0  0  0  0  0  0  0  0  0  0
  1  2  1  0
  2  3  1  0
  3  4  1  0
  4  5  1  0
  5  6  1  0
  6  7  1  0
  7  8  2  0
  7  9  1  0
  9  2  1  0
  6  4  1  0
  1 10  1  0
  1 11  1  0
  1 12  1  0
  2 13  1  0
  3 14  1  0
  3 15  1  0
  4 16  1  0
  5 17  1  0
  5 18  1  0
  6 19  1  0
M  END
