
     RDKit          3D

 21 22  0  0  0  0  0  0  0  0999 V2000
   -1.4704    0.5627    0.9927 C   0  0  0  0  0  0  0  0  0  0  0  0
   -0.9987    0.4069   -0.4176 C   0  0  0  0  0  0  0  0  0  0  0  0
   -0.2151    1.6130   -0.7841 C   0  0  0  0  0  0  0  0  0  0  0  0
    1.0716    1.6157   -0.4926 C   0  0  0  0  0  0  0  0  0  0  0  0
    1.6753    0.4590    0.1675 C   0  0  0  0  0  0  0  0  0  0  0  0
    1.1492   -0.8797   -0.2508 C   0  0  0  0  0  0  0  0  0  0  0  0
    0.8363   -1.6273    0.8749 O   0  0  0  0  0  0  0  0  0  0  0  0
   -0.3665   -1.9829    0.2676 C   0  0  0  0  0  0  0  0  0  0  0  0
   -0.2742   -0.8644   -0.6950 C   0  0  0  0  0  0  0  0  0  0  0  0
   -0.7272    0.2059    1.7473 H   0  0  0  0  0  0  0  0  0  0  0  0
   -1.6113    1.6594    1.1769 H   0  0  0  0  0  0  0  0  0  0  0  0
   -2.4697    0.1044    1.1572 H   0  0  0  0  0  0  0  0  0  0  0  0
   -1.9235    0.4022   -1.0662 H   0  0  0  0  0  0  0  0  0  0  0  0
   -0.6979    2.4533   -1.2733 H   0  0  0  0  0  0  0  0  0  0  0  0
    1.7182    2.4661   -0.7295 H   0  0  0  0  0  0  0  0  0  0  0  0
    1.5866    0.6355    1.2781 H   0  0  0  0  0  0  0  0  0  0  0  0
    2.7864    0.4341   -0.0350 H   0  0  0  0  0  0  0  0  0  0  0  0
    1.7853   -1.4740   -0.9372 H   0  0  0  0  0  0  0  0  0  0  0  0
   -1.2329   -1.9964    0.9552 H   0  0  0  0  0  0  0  0  0  0  0  0
   -0.2326   -2.9939   -0.1936 H   0  0  0  0  0  0  0  0  0  0  0  0
   -0.3890   -1.1995   -1.7425 H   0  0  0  0  0  0  0  0  0  0  0  0
  1  2  1  0
  2  3  1  0
  3  4  2  0
  4  5  1  0
  5  6  1  0
  6  7  1  0
  7  8  1  0
  8  9  1  0
  9  2  1  0
  9  6  1  0
  1 10  1  0
  1 11  1  0
  1 12  1  0
  2 13  1  0
  3 14  1  0
  4 15  1  0
  5 16  1  0
  5 17  1  0
  6 18  1  0
  8 19  1  0
  8 20  1  0
  9 21  1  0
M  END
