
     RDKit          3D

 23 24  0  0  0  0  0  0  0  0999 V2000
   -2.1247   -0.8477    0.1002 C   0  0  0  0  0  0  0  0  0  0  0  0
   -0.7386   -0.3904    0.4217 C   0  0  0  0  0  0  0  0  0  0  0  0
    0.2278   -1.3751   -0.1684 C   0  0  0  0  0  0  0  0  0  0  0  0
    1.5167   -0.8074   -0.6100 C   0  0  0  0  0  0  0  0  0  0  0  0
    2.5502   -0.6067    0.4689 C   0  0  0  0  0  0  0  0  0  0  0  0
    1.8401    0.5512   -0.2313 C   0  0  0  0  0  0  0  0  0  0  0  0
    0.8901    1.2701    0.4385 O   0  0  0  0  0  0  0  0  0  0  0  0
   -0.4119    0.9840   -0.0364 C   0  0  0  0  0  0  0  0  0  0  0  0
   -1.3048    2.0577    0.4580 C   0  0  0  0  0  0  0  0  0  0  0  0
   -2.1721   -1.0962   -0.9804 H   0  0  0  0  0  0  0  0  0  0  0  0
   -2.3056   -1.7837    0.7042 H   0  0  0  0  0  0  0  0  0  0  0  0
   -2.9169   -0.1388    0.3150 H   0  0  0  0  0  0  0  0  0  0  0  0
   -0.6388   -0.4297    1.5460 H   0  0  0  0  0  0  0  0  0  0  0  0
    0.4344   -2.1744    0.5881 H   0  0  0  0  0  0  0  0  0  0  0  0
   -0.2553   -1.8822   -1.0364 H   0  0  0  0  0  0  0  0  0  0  0  0
    1.9376   -1.1690   -1.5928 H   0  0  0  0  0  0  0  0  0  0  0  0
    2.2750   -0.6831    1.5310 H   0  0  0  0  0  0  0  0  0  0  0  0
    3.6182   -0.7833    0.2523 H   0  0  0  0  0  0  0  0  0  0  0  0
    2.5223    1.1431   -0.8754 H   0  0  0  0  0  0  0  0  0  0  0  0
   -0.3804    0.9641   -1.1629 H   0  0  0  0  0  0  0  0  0  0  0  0
   -2.3350    1.7863    0.6556 H   0  0  0  0  0  0  0  0  0  0  0  0
   -1.3336    2.8660   -0.3313 H   0  0  0  0  0  0  0  0  0  0  0  0
   -0.8948    2.5452    1.3778 H   0  0  0  0  0  0  0  0  0  0  0  0
  1  2  1  0
  2  3  1  0
  3  4  1  0
  4  5  1  0
  5  6  1  0
  6  7  1  0
  7  8  1  0
  8  9  1  0
  8  2  1  0
  6  4  1  0
  1 10  1  0
  1 11  1  0
  1 12  1  0
  2 13  1  0
  3 14  1  0
  3 15  1  0
  4 16  1  0
  5 17  1  0
  5 18  1  0
  6 19  1  0
  8 20  1  0
  9 21  1  0
  9 22  1  0
  9 23  1  0
M  END
