
     RDKit          3D

 21 22  0  0  0  0  0  0  0  0999 V2000
    2.3058   -0.0075    0.4539 C   0  0  0  0  0  0  0  0  0  0  0  0
    1.1060    0.3454   -0.4091 C   0  0  0  0  0  0  0  0  0  0  0  0
    0.6539   -0.8388   -1.1453 C   0  0  0  0  0  0  0  0  0  0  0  0
   -0.4611   -1.4919   -0.8251 C   0  0  0  0  0  0  0  0  0  0  0  0
   -1.3286   -1.0805    0.2904 C   0  0  0  0  0  0  0  0  0  0  0  0
   -2.2684    0.0682    0.1341 C   0  0  0  0  0  0  0  0  0  0  0  0
   -0.9750    0.1367    0.9844 C   0  0  0  0  0  0  0  0  0  0  0  0
    0.0681    1.0120    0.4163 C   0  0  0  0  0  0  0  0  0  0  0  0
   -0.5263    2.0842   -0.2886 O   0  0  0  0  0  0  0  0  0  0  0  0
    1.9410   -0.5499    1.3470 H   0  0  0  0  0  0  0  0  0  0  0  0
    2.9990   -0.6932   -0.0717 H   0  0  0  0  0  0  0  0  0  0  0  0
    2.7928    0.9618    0.7091 H   0  0  0  0  0  0  0  0  0  0  0  0
    1.4919    1.0954   -1.1585 H   0  0  0  0  0  0  0  0  0  0  0  0
    1.2546   -1.1883   -1.9787 H   0  0  0  0  0  0  0  0  0  0  0  0
   -0.7392   -2.3617   -1.4111 H   0  0  0  0  0  0  0  0  0  0  0  0
   -1.7499   -1.9224    0.9068 H   0  0  0  0  0  0  0  0  0  0  0  0
   -3.2323    0.0732    0.7059 H   0  0  0  0  0  0  0  0  0  0  0  0
   -2.3140    0.6585   -0.7794 H   0  0  0  0  0  0  0  0  0  0  0  0
   -1.1730    0.1841    2.0952 H   0  0  0  0  0  0  0  0  0  0  0  0
    0.6041    1.5207    1.2728 H   0  0  0  0  0  0  0  0  0  0  0  0
   -0.4495    1.9937   -1.2485 H   0  0  0  0  0  0  0  0  0  0  0  0
  1  2  1  0
  2  3  1  0
  3  4  2  0
  4  5  1  0
  5  6  1  0
  6  7  1  0
  7  8  1  0
  8  9  1  0
  8  2  1  0
  7  5  1  0
  1 10  1  0
  1 11  1  0
  1 12  1  0
  2 13  1  0
  3 14  1  0
  4 15  1  0
  5 16  1  0
  6 17  1  0
  6 18  1  0
  7 19  1  0
  8 20  1  0
  9 21  1  0
M  END
