
     RDKit          3D

 17 17  0  0  0  0  0  0  0  0999 V2000
    1.7965   -0.0498    0.5159 C   0  0  0  0  0  0  0  0  0  0  0  0
    0.6958   -0.0946   -0.5527 C   0  0  0  0  0  0  0  0  0  0  0  0
   -0.0464    1.2237   -0.5927 C   0  0  0  0  0  0  0  0  0  0  0  0
   -1.1735    1.2794    0.3398 C   0  0  0  0  0  0  0  0  0  0  0  0
   -1.6060    2.4074    0.6830 O   0  0  0  0  0  0  0  0  0  0  0  0
   -1.7663    0.1544    0.8454 O   0  0  0  0  0  0  0  0  0  0  0  0
   -1.5352   -1.1485    0.3303 C   0  0  0  0  0  0  0  0  0  0  0  0
   -0.2060   -1.2349   -0.3354 C   0  0  0  0  0  0  0  0  0  0  0  0
    0.1279   -2.3454   -0.7154 O   0  0  0  0  0  0  0  0  0  0  0  0
    1.4859    0.5138    1.4001 H   0  0  0  0  0  0  0  0  0  0  0  0
    2.0646   -1.0994    0.8019 H   0  0  0  0  0  0  0  0  0  0  0  0
    2.7321    0.3819    0.0909 H   0  0  0  0  0  0  0  0  0  0  0  0
    1.2356   -0.1667   -1.5218 H   0  0  0  0  0  0  0  0  0  0  0  0
   -0.4821    1.2902   -1.6333 H   0  0  0  0  0  0  0  0  0  0  0  0
    0.6111    2.0816   -0.4006 H   0  0  0  0  0  0  0  0  0  0  0  0
   -2.3497   -1.3273   -0.4223 H   0  0  0  0  0  0  0  0  0  0  0  0
   -1.5842   -1.8657    1.1668 H   0  0  0  0  0  0  0  0  0  0  0  0
  1  2  1  0
  2  3  1  0
  3  4  1  0
  4  5  2  0
  4  6  1  0
  6  7  1  0
  7  8  1  0
  8  9  2  0
  8  2  1  0
  1 10  1  0
  1 11  1  0
  1 12  1  0
  2 13  1  0
  3 14  1  0
  3 15  1  0
  7 16  1  0
  7 17  1  0
M  END
