
     RDKit          3D

 19 20  0  0  0  0  0  0  0  0999 V2000
    2.0069   -0.5488   -0.1987 C   0  0  0  0  0  0  0  0  0  0  0  0
    0.7683    0.0106    0.4337 C   0  0  0  0  0  0  0  0  0  0  0  0
   -0.4542   -0.8698    0.1277 C   0  0  0  0  0  0  0  0  0  0  0  0
   -1.5293   -0.4515    1.0696 C   0  0  0  0  0  0  0  0  0  0  0  0
   -1.8927    0.8965    0.8835 O   0  0  0  0  0  0  0  0  0  0  0  0
   -1.0177    1.6815    0.1652 C   0  0  0  0  0  0  0  0  0  0  0  0
   -1.1808    2.9044    0.0940 O   0  0  0  0  0  0  0  0  0  0  0  0
    0.1088    1.0263   -0.5101 C   0  0  0  0  0  0  0  0  0  0  0  0
   -0.4815   -0.2024   -1.2202 C   0  0  0  0  0  0  0  0  0  0  0  0
    1.8200   -1.5639   -0.6005 H   0  0  0  0  0  0  0  0  0  0  0  0
    2.3943    0.1273   -1.0001 H   0  0  0  0  0  0  0  0  0  0  0  0
    2.7765   -0.6590    0.5979 H   0  0  0  0  0  0  0  0  0  0  0  0
    0.8365    0.3447    1.4699 H   0  0  0  0  0  0  0  0  0  0  0  0
   -0.1767   -1.9248    0.1467 H   0  0  0  0  0  0  0  0  0  0  0  0
   -2.4049   -1.1309    1.0810 H   0  0  0  0  0  0  0  0  0  0  0  0
   -1.0950   -0.5270    2.1106 H   0  0  0  0  0  0  0  0  0  0  0  0
    0.7840    1.6251   -1.0994 H   0  0  0  0  0  0  0  0  0  0  0  0
   -1.4841   -0.0331   -1.6481 H   0  0  0  0  0  0  0  0  0  0  0  0
    0.2215   -0.7053   -1.9027 H   0  0  0  0  0  0  0  0  0  0  0  0
  1  2  1  0
  2  3  1  0
  3  4  1  0
  4  5  1  0
  5  6  1  0
  6  7  2  0
  6  8  1  0
  8  9  1  0
  8  2  1  0
  9  3  1  0
  1 10  1  0
  1 11  1  0
  1 12  1  0
  2 13  1  0
  3 14  1  0
  4 15  1  0
  4 16  1  0
  8 17  1  0
  9 18  1  0
  9 19  1  0
M  END
