
     RDKit          3D

 21 22  0  0  0  0  0  0  0  0999 V2000
   -0.8757    1.8667   -0.5194 C   0  0  0  0  0  0  0  0  0  0  0  0
   -0.6792    0.6592    0.3149 C   0  0  0  0  0  0  0  0  0  0  0  0
   -1.3856   -0.5995   -0.2102 C   0  0  0  0  0  0  0  0  0  0  0  0
   -2.5336   -0.8531    0.4980 O   0  0  0  0  0  0  0  0  0  0  0  0
   -0.1482   -1.3721    0.2715 C   0  0  0  0  0  0  0  0  0  0  0  0
    0.2356   -2.3745   -0.5696 O   0  0  0  0  0  0  0  0  0  0  0  0
    0.5918   -0.0827    0.2239 C   0  0  0  0  0  0  0  0  0  0  0  0
    1.8079    0.2125    0.9533 C   0  0  0  0  0  0  0  0  0  0  0  0
    1.7418    0.2120   -0.5744 C   0  0  0  0  0  0  0  0  0  0  0  0
   -0.9604    2.7838    0.1312 H   0  0  0  0  0  0  0  0  0  0  0  0
   -0.1406    2.0299   -1.3107 H   0  0  0  0  0  0  0  0  0  0  0  0
   -1.8862    1.7750   -1.0161 H   0  0  0  0  0  0  0  0  0  0  0  0
   -0.9491    0.8477    1.3931 H   0  0  0  0  0  0  0  0  0  0  0  0
   -1.4724   -0.5669   -1.3155 H   0  0  0  0  0  0  0  0  0  0  0  0
   -2.6072   -1.7824    0.7938 H   0  0  0  0  0  0  0  0  0  0  0  0
   -0.2730   -1.7091    1.3269 H   0  0  0  0  0  0  0  0  0  0  0  0
    1.0286   -2.2172   -1.1039 H   0  0  0  0  0  0  0  0  0  0  0  0
    1.9562    1.2309    1.4162 H   0  0  0  0  0  0  0  0  0  0  0  0
    2.3240   -0.6076    1.4665 H   0  0  0  0  0  0  0  0  0  0  0  0
    1.9184    1.1739   -1.1054 H   0  0  0  0  0  0  0  0  0  0  0  0
    2.3071   -0.6267   -1.0641 H   0  0  0  0  0  0  0  0  0  0  0  0
  1  2  1  0
  2  3  1  0
  3  4  1  0
  3  5  1  0
  5  6  1  0
  5  7  1  0
  7  8  1  0
  8  9  1  0
  7  2  1  0
  9  7  1  0
  1 10  1  0
  1 11  1  0
  1 12  1  0
  2 13  1  0
  3 14  1  0
  4 15  1  0
  5 16  1  0
  6 17  1  0
  8 18  1  0
  8 19  1  0
  9 20  1  0
  9 21  1  0
M  END
