
     RDKit          3D

 21 23  0  0  0  0  0  0  0  0999 V2000
   -2.1637    0.2338    0.3778 C   0  0  0  0  0  0  0  0  0  0  0  0
   -0.7065    0.4374    0.7698 C   0  0  0  0  0  0  0  0  0  0  0  0
   -0.0372    1.1658   -0.3796 C   0  0  0  0  0  0  0  0  0  0  0  0
   -0.0364    0.1035   -1.4688 C   0  0  0  0  0  0  0  0  0  0  0  0
    0.3166   -1.1252   -0.6921 C   0  0  0  0  0  0  0  0  0  0  0  0
    1.3441   -0.9373    0.3187 C   0  0  0  0  0  0  0  0  0  0  0  0
    1.9964    0.3884    0.4048 C   0  0  0  0  0  0  0  0  0  0  0  0
    1.2996    1.4367   -0.1141 O   0  0  0  0  0  0  0  0  0  0  0  0
   -0.0518   -0.9145    0.7333 C   0  0  0  0  0  0  0  0  0  0  0  0
   -2.6830   -0.1931    1.2597 H   0  0  0  0  0  0  0  0  0  0  0  0
   -2.1559   -0.5672   -0.4115 H   0  0  0  0  0  0  0  0  0  0  0  0
   -2.6276    1.1518    0.0081 H   0  0  0  0  0  0  0  0  0  0  0  0
   -0.5901    0.9577    1.7259 H   0  0  0  0  0  0  0  0  0  0  0  0
   -0.5679    2.0724   -0.6566 H   0  0  0  0  0  0  0  0  0  0  0  0
   -0.9612    0.0543   -2.0319 H   0  0  0  0  0  0  0  0  0  0  0  0
    0.7942    0.3753   -2.1818 H   0  0  0  0  0  0  0  0  0  0  0  0
    0.0960   -2.1206   -1.0949 H   0  0  0  0  0  0  0  0  0  0  0  0
    1.9673   -1.7947    0.6209 H   0  0  0  0  0  0  0  0  0  0  0  0
    3.0166    0.3914   -0.0522 H   0  0  0  0  0  0  0  0  0  0  0  0
    2.1825    0.6150    1.4953 H   0  0  0  0  0  0  0  0  0  0  0  0
   -0.4320   -1.7308    1.3692 H   0  0  0  0  0  0  0  0  0  0  0  0
  1  2  1  0
  2  3  1  0
  3  4  1  0
  4  5  1  0
  5  6  1  0
  6  7  1  0
  7  8  1  0
  6  9  1  0
  9  2  1  0
  8  3  1  0
  9  5  1  0
  1 10  1  0
  1 11  1  0
  1 12  1  0
  2 13  1  0
  3 14  1  0
  4 15  1  0
  4 16  1  0
  5 17  1  0
  6 18  1  0
  7 19  1  0
  7 20  1  0
  9 21  1  0
M  END
