
     RDKit          3D

 21 22  0  0  0  0  0  0  0  0999 V2000
   -2.4280    0.6652    0.4786 C   0  0  0  0  0  0  0  0  0  0  0  0
   -1.6886   -0.1749   -0.5005 C   0  0  0  0  0  0  0  0  0  0  0  0
   -0.6557    0.5591   -1.2711 C   0  0  0  0  0  0  0  0  0  0  0  0
    0.5392    0.4252   -0.7483 C   0  0  0  0  0  0  0  0  0  0  0  0
    2.0051    0.7522   -0.8168 C   0  0  0  0  0  0  0  0  0  0  0  0
    2.6024   -0.4283   -0.1164 C   0  0  0  0  0  0  0  0  0  0  0  0
    1.6163   -1.1291    0.5489 O   0  0  0  0  0  0  0  0  0  0  0  0
    0.4440   -0.4061    0.4728 C   0  0  0  0  0  0  0  0  0  0  0  0
   -0.7934   -1.2146    0.2210 C   0  0  0  0  0  0  0  0  0  0  0  0
   -1.9536    0.5336    1.4938 H   0  0  0  0  0  0  0  0  0  0  0  0
   -2.4867    1.7106    0.1721 H   0  0  0  0  0  0  0  0  0  0  0  0
   -3.4797    0.2720    0.5566 H   0  0  0  0  0  0  0  0  0  0  0  0
   -2.3701   -0.6625   -1.1992 H   0  0  0  0  0  0  0  0  0  0  0  0
   -0.8065    1.1667   -2.1869 H   0  0  0  0  0  0  0  0  0  0  0  0
    2.3721    0.7830   -1.8485 H   0  0  0  0  0  0  0  0  0  0  0  0
    2.1548    1.7118   -0.3284 H   0  0  0  0  0  0  0  0  0  0  0  0
    3.0882   -1.1571   -0.8207 H   0  0  0  0  0  0  0  0  0  0  0  0
    3.3902   -0.0983    0.5901 H   0  0  0  0  0  0  0  0  0  0  0  0
    0.3023    0.2415    1.3887 H   0  0  0  0  0  0  0  0  0  0  0  0
   -0.5579   -1.9856   -0.5149 H   0  0  0  0  0  0  0  0  0  0  0  0
   -1.2945   -1.5642    1.1209 H   0  0  0  0  0  0  0  0  0  0  0  0
  1  2  1  0
  2  3  1  0
  3  4  2  0
  4  5  1  0
  5  6  1  0
  6  7  1  0
  7  8  1  0
  8  9  1  0
  9  2  1  0
  8  4  1  0
  1 10  1  0
  1 11  1  0
  1 12  1  0
  2 13  1  0
  3 14  1  0
  5 15  1  0
  5 16  1  0
  6 17  1  0
  6 18  1  0
  8 19  1  0
  9 20  1  0
  9 21  1  0
M  END
