
     RDKit          3D

 23 24  0  0  0  0  0  0  0  0999 V2000
    2.0682   -0.1879    0.8683 C   0  0  0  0  0  0  0  0  0  0  0  0
    0.5966    0.1676    0.8622 C   0  0  0  0  0  0  0  0  0  0  0  0
    0.3853    1.4259    0.0123 C   0  0  0  0  0  0  0  0  0  0  0  0
    1.4502    1.6957   -0.8234 O   0  0  0  0  0  0  0  0  0  0  0  0
   -0.7729    0.6779   -0.6537 C   0  0  0  0  0  0  0  0  0  0  0  0
   -2.0501    1.0226    0.1050 C   0  0  0  0  0  0  0  0  0  0  0  0
   -0.1841   -0.5812   -0.1347 C   0  0  0  0  0  0  0  0  0  0  0  0
   -0.9404   -1.8041    0.1243 C   0  0  0  0  0  0  0  0  0  0  0  0
    0.2176   -1.7246   -0.8982 C   0  0  0  0  0  0  0  0  0  0  0  0
    2.2502   -1.2585    1.0855 H   0  0  0  0  0  0  0  0  0  0  0  0
    2.6151    0.4841    1.5624 H   0  0  0  0  0  0  0  0  0  0  0  0
    2.4167   -0.0441   -0.1941 H   0  0  0  0  0  0  0  0  0  0  0  0
    0.1447    0.3243    1.8655 H   0  0  0  0  0  0  0  0  0  0  0  0
    0.0744    2.3072    0.6052 H   0  0  0  0  0  0  0  0  0  0  0  0
    1.2162    1.6410   -1.7734 H   0  0  0  0  0  0  0  0  0  0  0  0
   -0.8320    0.7964   -1.7421 H   0  0  0  0  0  0  0  0  0  0  0  0
   -1.9995    2.1277    0.2829 H   0  0  0  0  0  0  0  0  0  0  0  0
   -2.0084    0.5419    1.1111 H   0  0  0  0  0  0  0  0  0  0  0  0
   -2.9567    0.7405   -0.4604 H   0  0  0  0  0  0  0  0  0  0  0  0
   -1.9759   -1.8295   -0.3045 H   0  0  0  0  0  0  0  0  0  0  0  0
   -0.7561   -2.3506    1.0604 H   0  0  0  0  0  0  0  0  0  0  0  0
   -0.0662   -1.8621   -1.9744 H   0  0  0  0  0  0  0  0  0  0  0  0
    1.1071   -2.3101   -0.5864 H   0  0  0  0  0  0  0  0  0  0  0  0
  1  2  1  0
  2  3  1  0
  3  4  1  0
  3  5  1  0
  5  6  1  0
  5  7  1  0
  7  8  1  0
  8  9  1  0
  7  2  1  0
  9  7  1  0
  1 10  1  0
  1 11  1  0
  1 12  1  0
  2 13  1  0
  3 14  1  0
  4 15  1  0
  5 16  1  0
  6 17  1  0
  6 18  1  0
  6 19  1  0
  8 20  1  0
  8 21  1  0
  9 22  1  0
  9 23  1  0
M  END
