
     RDKit          3D

 21 22  0  0  0  0  0  0  0  0999 V2000
    2.2531   -0.5198    0.2800 C   0  0  0  0  0  0  0  0  0  0  0  0
    1.2126    0.4701   -0.1502 C   0  0  0  0  0  0  0  0  0  0  0  0
    0.2115    0.8617    0.9124 C   0  0  0  0  0  0  0  0  0  0  0  0
   -0.8502    0.8107   -0.1509 C   0  0  0  0  0  0  0  0  0  0  0  0
   -1.1949    2.0009   -0.7394 O   0  0  0  0  0  0  0  0  0  0  0  0
   -2.0280   -0.0942    0.1485 C   0  0  0  0  0  0  0  0  0  0  0  0
   -1.4731   -1.4611   -0.0232 C   0  0  0  0  0  0  0  0  0  0  0  0
   -0.3033   -1.4688   -0.6364 C   0  0  0  0  0  0  0  0  0  0  0  0
    0.0610   -0.0839   -0.9488 C   0  0  0  0  0  0  0  0  0  0  0  0
    2.8954   -0.7310   -0.5948 H   0  0  0  0  0  0  0  0  0  0  0  0
    1.8298   -1.4385    0.7226 H   0  0  0  0  0  0  0  0  0  0  0  0
    2.8779   -0.0024    1.0659 H   0  0  0  0  0  0  0  0  0  0  0  0
    1.6738    1.3493   -0.6168 H   0  0  0  0  0  0  0  0  0  0  0  0
    0.3962    1.8985    1.2904 H   0  0  0  0  0  0  0  0  0  0  0  0
    0.1360    0.1041    1.7089 H   0  0  0  0  0  0  0  0  0  0  0  0
   -0.8497    2.8053   -0.2959 H   0  0  0  0  0  0  0  0  0  0  0  0
   -2.8028    0.0531   -0.6051 H   0  0  0  0  0  0  0  0  0  0  0  0
   -2.4082    0.0543    1.1918 H   0  0  0  0  0  0  0  0  0  0  0  0
   -1.9858   -2.3513    0.3236 H   0  0  0  0  0  0  0  0  0  0  0  0
    0.2692   -2.3903   -0.8553 H   0  0  0  0  0  0  0  0  0  0  0  0
    0.0795    0.1332   -2.0272 H   0  0  0  0  0  0  0  0  0  0  0  0
  1  2  1  0
  2  3  1  0
  3  4  1  0
  4  5  1  0
  4  6  1  0
  6  7  1  0
  7  8  2  0
  8  9  1  0
  9  2  1  0
  9  4  1  0
  1 10  1  0
  1 11  1  0
  1 12  1  0
  2 13  1  0
  3 14  1  0
  3 15  1  0
  5 16  1  0
  6 17  1  0
  6 18  1  0
  7 19  1  0
  8 20  1  0
  9 21  1  0
M  END
