
     RDKit          3D

 19 20  0  0  0  0  0  0  0  0999 V2000
   -1.1684    1.6474    0.1974 C   0  0  0  0  0  0  0  0  0  0  0  0
   -0.9398    0.3542   -0.5558 C   0  0  0  0  0  0  0  0  0  0  0  0
   -1.2712   -0.7798    0.3902 C   0  0  0  0  0  0  0  0  0  0  0  0
   -0.2497   -1.7925    0.0504 C   0  0  0  0  0  0  0  0  0  0  0  0
   -0.4241   -2.9931    0.0980 O   0  0  0  0  0  0  0  0  0  0  0  0
    0.9810   -1.1109   -0.3446 C   0  0  0  0  0  0  0  0  0  0  0  0
    1.4241    0.1329    0.3308 C   0  0  0  0  0  0  0  0  0  0  0  0
    2.7103    0.5752    0.1523 O   0  0  0  0  0  0  0  0  0  0  0  0
    0.5275    0.2056   -0.8474 C   0  0  0  0  0  0  0  0  0  0  0  0
   -0.1877    2.0640    0.5437 H   0  0  0  0  0  0  0  0  0  0  0  0
   -1.7637    1.4808    1.1325 H   0  0  0  0  0  0  0  0  0  0  0  0
   -1.7099    2.3457   -0.4465 H   0  0  0  0  0  0  0  0  0  0  0  0
   -1.5633    0.3297   -1.4787 H   0  0  0  0  0  0  0  0  0  0  0  0
   -1.1474   -0.4369    1.4561 H   0  0  0  0  0  0  0  0  0  0  0  0
   -2.3008   -1.1343    0.2967 H   0  0  0  0  0  0  0  0  0  0  0  0
    1.7888   -1.6644   -0.8799 H   0  0  0  0  0  0  0  0  0  0  0  0
    0.9909    0.3822    1.3353 H   0  0  0  0  0  0  0  0  0  0  0  0
    3.3946   -0.1037    0.4179 H   0  0  0  0  0  0  0  0  0  0  0  0
    0.9088    0.4980   -1.8484 H   0  0  0  0  0  0  0  0  0  0  0  0
  1  2  1  0
  2  3  1  0
  3  4  1  0
  4  5  2  0
  4  6  1  0
  6  7  1  0
  7  8  1  0
  7  9  1  0
  9  2  1  0
  9  6  1  0
  1 10  1  0
  1 11  1  0
  1 12  1  0
  2 13  1  0
  3 14  1  0
  3 15  1  0
  6 16  1  0
  7 17  1  0
  8 18  1  0
  9 19  1  0
M  END
