
     RDKit          3D

 23 24  0  0  0  0  0  0  0  0999 V2000
    2.4453    1.0534   -0.7439 C   0  0  0  0  0  0  0  0  0  0  0  0
    1.3108    0.4775    0.0493 C   0  0  0  0  0  0  0  0  0  0  0  0
    1.2027   -1.0116   -0.1044 C   0  0  0  0  0  0  0  0  0  0  0  0
   -0.1698   -1.5064    0.2407 C   0  0  0  0  0  0  0  0  0  0  0  0
   -0.7569   -0.5492    1.2908 C   0  0  0  0  0  0  0  0  0  0  0  0
   -1.0016    0.3857    0.1361 C   0  0  0  0  0  0  0  0  0  0  0  0
   -2.2608    1.1671    0.1517 C   0  0  0  0  0  0  0  0  0  0  0  0
   -1.1916   -0.8904   -0.7006 C   0  0  0  0  0  0  0  0  0  0  0  0
    0.1097    1.0627   -0.2847 O   0  0  0  0  0  0  0  0  0  0  0  0
    2.1364    1.6703   -1.5980 H   0  0  0  0  0  0  0  0  0  0  0  0
    3.1011    1.7110   -0.1122 H   0  0  0  0  0  0  0  0  0  0  0  0
    3.1321    0.2399   -1.1008 H   0  0  0  0  0  0  0  0  0  0  0  0
    1.5006    0.7058    1.1231 H   0  0  0  0  0  0  0  0  0  0  0  0
    1.4634   -1.3767   -1.1104 H   0  0  0  0  0  0  0  0  0  0  0  0
    1.9359   -1.4673    0.5976 H   0  0  0  0  0  0  0  0  0  0  0  0
   -0.2876   -2.5611    0.4616 H   0  0  0  0  0  0  0  0  0  0  0  0
   -0.0551   -0.2277    2.0562 H   0  0  0  0  0  0  0  0  0  0  0  0
   -1.7424   -0.9386    1.6547 H   0  0  0  0  0  0  0  0  0  0  0  0
   -2.2622    2.0386    0.8103 H   0  0  0  0  0  0  0  0  0  0  0  0
   -2.4254    1.5623   -0.8932 H   0  0  0  0  0  0  0  0  0  0  0  0
   -3.1115    0.4757    0.3284 H   0  0  0  0  0  0  0  0  0  0  0  0
   -2.2030   -1.2980   -0.5297 H   0  0  0  0  0  0  0  0  0  0  0  0
   -0.8702   -0.7228   -1.7227 H   0  0  0  0  0  0  0  0  0  0  0  0
  1  2  1  0
  2  3  1  0
  3  4  1  0
  4  5  1  0
  5  6  1  0
  6  7  1  0
  6  8  1  0
  6  9  1  0
  9  2  1  0
  8  4  1  0
  1 10  1  0
  1 11  1  0
  1 12  1  0
  2 13  1  0
  3 14  1  0
  3 15  1  0
  4 16  1  0
  5 17  1  0
  5 18  1  0
  7 19  1  0
  7 20  1  0
  7 21  1  0
  8 22  1  0
  8 23  1  0
M  END
