
     RDKit          3D

 21 22  0  0  0  0  0  0  0  0999 V2000
    1.4756   -1.2452   -0.0769 C   0  0  0  0  0  0  0  0  0  0  0  0
    0.6110   -0.1825   -0.6327 C   0  0  0  0  0  0  0  0  0  0  0  0
    0.9779    1.2184   -0.1029 C   0  0  0  0  0  0  0  0  0  0  0  0
   -0.2318    1.9521   -0.6138 C   0  0  0  0  0  0  0  0  0  0  0  0
   -1.2827    1.0243   -0.6301 O   0  0  0  0  0  0  0  0  0  0  0  0
   -0.7775   -0.1297   -0.0007 C   0  0  0  0  0  0  0  0  0  0  0  0
   -1.5804   -1.3283   -0.1416 C   0  0  0  0  0  0  0  0  0  0  0  0
   -0.3858    0.2828    1.3909 C   0  0  0  0  0  0  0  0  0  0  0  0
    0.7999    1.0139    1.2606 O   0  0  0  0  0  0  0  0  0  0  0  0
    1.6416   -2.0120   -0.8885 H   0  0  0  0  0  0  0  0  0  0  0  0
    1.0796   -1.7184    0.8417 H   0  0  0  0  0  0  0  0  0  0  0  0
    2.4870   -0.8168    0.1115 H   0  0  0  0  0  0  0  0  0  0  0  0
    0.5628   -0.1155   -1.7162 H   0  0  0  0  0  0  0  0  0  0  0  0
    1.9301    1.5656   -0.4122 H   0  0  0  0  0  0  0  0  0  0  0  0
   -0.4870    2.8427   -0.0111 H   0  0  0  0  0  0  0  0  0  0  0  0
   -0.0144    2.2395   -1.6759 H   0  0  0  0  0  0  0  0  0  0  0  0
   -2.3425   -1.3768    0.6618 H   0  0  0  0  0  0  0  0  0  0  0  0
   -0.9481   -2.2336   -0.1452 H   0  0  0  0  0  0  0  0  0  0  0  0
   -2.1399   -1.3177   -1.0977 H   0  0  0  0  0  0  0  0  0  0  0  0
   -0.1993   -0.6013    2.0565 H   0  0  0  0  0  0  0  0  0  0  0  0
   -1.1761    0.9384    1.8224 H   0  0  0  0  0  0  0  0  0  0  0  0
  1  2  1  0
  2  3  1  0
  3  4  1  0
  4  5  1  0
  5  6  1  0
  6  7  1  0
  6  8  1  0
  8  9  1  0
  6  2  1  0
  9  3  1  0
  1 10  1  0
  1 11  1  0
  1 12  1  0
  2 13  1  0
  3 14  1  0
  4 15  1  0
  4 16  1  0
  7 17  1  0
  7 18  1  0
  7 19  1  0
  8 20  1  0
  8 21  1  0
M  END
