
     RDKit          3D

 19 20  0  0  0  0  0  0  0  0999 V2000
   -2.2151   -0.1196   -0.1274 C   0  0  0  0  0  0  0  0  0  0  0  0
   -0.9660    0.5217    0.3881 C   0  0  0  0  0  0  0  0  0  0  0  0
   -0.0476    1.1193   -0.6482 C   0  0  0  0  0  0  0  0  0  0  0  0
    1.0576    0.2350   -0.1763 C   0  0  0  0  0  0  0  0  0  0  0  0
    1.8871   -0.5348   -1.1085 C   0  0  0  0  0  0  0  0  0  0  0  0
    3.0426   -0.1786   -1.3034 O   0  0  0  0  0  0  0  0  0  0  0  0
    1.3883    0.2414    1.2653 C   0  0  0  0  0  0  0  0  0  0  0  0
    0.1407   -0.4044    0.7950 C   0  0  0  0  0  0  0  0  0  0  0  0
   -0.0554   -1.7587    0.8580 O   0  0  0  0  0  0  0  0  0  0  0  0
   -3.1156    0.4522    0.2366 H   0  0  0  0  0  0  0  0  0  0  0  0
   -2.3579   -1.1482    0.3126 H   0  0  0  0  0  0  0  0  0  0  0  0
   -2.2930   -0.1202   -1.2255 H   0  0  0  0  0  0  0  0  0  0  0  0
   -1.1826    1.2500    1.1954 H   0  0  0  0  0  0  0  0  0  0  0  0
   -0.3621    1.0106   -1.6975 H   0  0  0  0  0  0  0  0  0  0  0  0
    0.2180    2.1946   -0.4406 H   0  0  0  0  0  0  0  0  0  0  0  0
    1.5417   -1.4080   -1.6424 H   0  0  0  0  0  0  0  0  0  0  0  0
    2.2488   -0.3946    1.5590 H   0  0  0  0  0  0  0  0  0  0  0  0
    1.3201    1.2376    1.7606 H   0  0  0  0  0  0  0  0  0  0  0  0
   -0.2495   -2.1952   -0.0009 H   0  0  0  0  0  0  0  0  0  0  0  0
  1  2  1  0
  2  3  1  0
  3  4  1  0
  4  5  1  0
  5  6  2  0
  4  7  1  0
  7  8  1  0
  8  9  1  0
  8  2  1  0
  8  4  1  0
  1 10  1  0
  1 11  1  0
  1 12  1  0
  2 13  1  0
  3 14  1  0
  3 15  1  0
  5 16  1  0
  7 17  1  0
  7 18  1  0
  9 19  1  0
M  END
