
     RDKit          3D

 19 21  0  0  0  0  0  0  0  0999 V2000
    2.2356   -0.1835   -0.5060 C   0  0  0  0  0  0  0  0  0  0  0  0
    0.9385   -0.2716    0.2127 C   0  0  0  0  0  0  0  0  0  0  0  0
    0.2773    1.0278    0.4979 C   0  0  0  0  0  0  0  0  0  0  0  0
   -1.1991    0.9040    0.5640 C   0  0  0  0  0  0  0  0  0  0  0  0
   -1.8002    0.3065   -0.6266 C   0  0  0  0  0  0  0  0  0  0  0  0
   -0.8648   -0.3473   -1.3856 O   0  0  0  0  0  0  0  0  0  0  0  0
   -0.0914   -1.1323   -0.5316 C   0  0  0  0  0  0  0  0  0  0  0  0
   -1.0082   -1.5081    0.4312 O   0  0  0  0  0  0  0  0  0  0  0  0
   -1.7635   -0.4263    0.7459 C   0  0  0  0  0  0  0  0  0  0  0  0
    2.2199   -0.6503   -1.5215 H   0  0  0  0  0  0  0  0  0  0  0  0
    2.5296    0.8900   -0.5919 H   0  0  0  0  0  0  0  0  0  0  0  0
    3.0520   -0.7347    0.0449 H   0  0  0  0  0  0  0  0  0  0  0  0
    1.1190   -0.7794    1.2048 H   0  0  0  0  0  0  0  0  0  0  0  0
    0.5316    1.7255   -0.3526 H   0  0  0  0  0  0  0  0  0  0  0  0
    0.6920    1.4700    1.4382 H   0  0  0  0  0  0  0  0  0  0  0  0
   -1.7088    1.7289    1.1140 H   0  0  0  0  0  0  0  0  0  0  0  0
   -2.8062    0.5254   -0.9963 H   0  0  0  0  0  0  0  0  0  0  0  0
    0.3648   -1.9967   -1.0138 H   0  0  0  0  0  0  0  0  0  0  0  0
   -2.7183   -0.5479    1.2522 H   0  0  0  0  0  0  0  0  0  0  0  0
  1  2  1  0
  2  3  1  0
  3  4  1  0
  4  5  1  0
  5  6  1  0
  6  7  1  0
  7  8  1  0
  8  9  1  0
  7  2  1  0
  9  4  1  0
  9  5  1  0
  1 10  1  0
  1 11  1  0
  1 12  1  0
  2 13  1  0
  3 14  1  0
  3 15  1  0
  4 16  1  0
  5 17  1  0
  7 18  1  0
  9 19  1  0
M  END
