
     RDKit          3D

 23 24  0  0  0  0  0  0  0  0999 V2000
    2.1132   -0.9241   -0.4574 C   0  0  0  0  0  0  0  0  0  0  0  0
    1.5786    0.1264    0.4730 C   0  0  0  0  0  0  0  0  0  0  0  0
    0.7092   -0.4846    1.4722 C   0  0  0  0  0  0  0  0  0  0  0  0
   -0.5889   -0.5639    1.2859 C   0  0  0  0  0  0  0  0  0  0  0  0
   -1.2064   -0.0410    0.0672 C   0  0  0  0  0  0  0  0  0  0  0  0
   -1.9699   -1.0646   -0.7424 C   0  0  0  0  0  0  0  0  0  0  0  0
   -1.6617    1.3667    0.1185 C   0  0  0  0  0  0  0  0  0  0  0  0
   -0.4644    0.9718   -0.6975 C   0  0  0  0  0  0  0  0  0  0  0  0
    0.9245    1.2804   -0.2560 C   0  0  0  0  0  0  0  0  0  0  0  0
    3.0789   -0.5538   -0.9118 H   0  0  0  0  0  0  0  0  0  0  0  0
    2.3432   -1.8228    0.1752 H   0  0  0  0  0  0  0  0  0  0  0  0
    1.4130   -1.2294   -1.2377 H   0  0  0  0  0  0  0  0  0  0  0  0
    2.4590    0.5699    1.0161 H   0  0  0  0  0  0  0  0  0  0  0  0
    1.1252   -0.8860    2.3913 H   0  0  0  0  0  0  0  0  0  0  0  0
   -1.2119   -1.0356    2.0729 H   0  0  0  0  0  0  0  0  0  0  0  0
   -3.0390   -1.0801   -0.4571 H   0  0  0  0  0  0  0  0  0  0  0  0
   -1.5111   -2.0580   -0.5702 H   0  0  0  0  0  0  0  0  0  0  0  0
   -1.8936   -0.8519   -1.8281 H   0  0  0  0  0  0  0  0  0  0  0  0
   -1.4293    1.9631    1.0377 H   0  0  0  0  0  0  0  0  0  0  0  0
   -2.6165    1.6080   -0.3425 H   0  0  0  0  0  0  0  0  0  0  0  0
   -0.6894    1.0390   -1.8071 H   0  0  0  0  0  0  0  0  0  0  0  0
    1.5490    1.4683   -1.1572 H   0  0  0  0  0  0  0  0  0  0  0  0
    0.9883    2.2021    0.3549 H   0  0  0  0  0  0  0  0  0  0  0  0
  1  2  1  0
  2  3  1  0
  3  4  2  0
  4  5  1  0
  5  6  1  0
  5  7  1  0
  7  8  1  0
  8  9  1  0
  9  2  1  0
  8  5  1  0
  1 10  1  0
  1 11  1  0
  1 12  1  0
  2 13  1  0
  3 14  1  0
  4 15  1  0
  6 16  1  0
  6 17  1  0
  6 18  1  0
  7 19  1  0
  7 20  1  0
  8 21  1  0
  9 22  1  0
  9 23  1  0
M  END
