
     RDKit          3D

 21 22  0  0  0  0  0  0  0  0999 V2000
   -1.6542   -1.1700   -0.0194 C   0  0  0  0  0  0  0  0  0  0  0  0
   -1.0938    0.0034    0.7470 C   0  0  0  0  0  0  0  0  0  0  0  0
   -1.3082    1.2991    0.0463 C   0  0  0  0  0  0  0  0  0  0  0  0
   -0.1531    1.6857   -0.8332 C   0  0  0  0  0  0  0  0  0  0  0  0
    0.9430    0.9823   -0.9282 C   0  0  0  0  0  0  0  0  0  0  0  0
    1.1671   -0.2647   -0.1851 C   0  0  0  0  0  0  0  0  0  0  0  0
    2.4812   -0.9358   -0.2648 C   0  0  0  0  0  0  0  0  0  0  0  0
    1.3532   -1.4596   -0.8692 O   0  0  0  0  0  0  0  0  0  0  0  0
    0.3355   -0.3001    1.0734 C   0  0  0  0  0  0  0  0  0  0  0  0
   -2.7514   -1.2074    0.1164 H   0  0  0  0  0  0  0  0  0  0  0  0
   -1.2127   -2.0917    0.3987 H   0  0  0  0  0  0  0  0  0  0  0  0
   -1.4331   -1.0916   -1.1113 H   0  0  0  0  0  0  0  0  0  0  0  0
   -1.6626    0.0528    1.7182 H   0  0  0  0  0  0  0  0  0  0  0  0
   -1.5039    2.1576    0.6972 H   0  0  0  0  0  0  0  0  0  0  0  0
   -2.2102    1.1690   -0.6207 H   0  0  0  0  0  0  0  0  0  0  0  0
   -0.2624    2.5877   -1.3988 H   0  0  0  0  0  0  0  0  0  0  0  0
    1.7331    1.3284   -1.5863 H   0  0  0  0  0  0  0  0  0  0  0  0
    2.8779   -1.3905    0.6574 H   0  0  0  0  0  0  0  0  0  0  0  0
    3.2104   -0.4925   -0.9981 H   0  0  0  0  0  0  0  0  0  0  0  0
    0.7657    0.4245    1.8050 H   0  0  0  0  0  0  0  0  0  0  0  0
    0.3785   -1.2866    1.5554 H   0  0  0  0  0  0  0  0  0  0  0  0
  1  2  1  0
  2  3  1  0
  3  4  1  0
  4  5  2  0
  5  6  1  0
  6  7  1  0
  7  8  1  0
  6  9  1  0
  9  2  1  0
  8  6  1  0
  1 10  1  0
  1 11  1  0
  1 12  1  0
  2 13  1  0
  3 14  1  0
  3 15  1  0
  4 16  1  0
  5 17  1  0
  7 18  1  0
  7 19  1  0
  9 20  1  0
  9 21  1  0
M  END
