
     RDKit          3D

 23 23  0  0  0  0  0  0  0  0999 V2000
   -2.1090   -0.4207   -0.9066 C   0  0  0  0  0  0  0  0  0  0  0  0
   -1.4639    0.3139    0.2763 C   0  0  0  0  0  0  0  0  0  0  0  0
   -0.7931    1.4983   -0.2661 C   0  0  0  0  0  0  0  0  0  0  0  0
    0.4999    1.6666   -0.3854 C   0  0  0  0  0  0  0  0  0  0  0  0
    1.3911    0.5734    0.0617 C   0  0  0  0  0  0  0  0  0  0  0  0
    1.7993   -0.3279   -1.0832 C   0  0  0  0  0  0  0  0  0  0  0  0
    0.8225   -0.2249    1.1967 C   0  0  0  0  0  0  0  0  0  0  0  0
    1.6149   -1.3645    1.3495 O   0  0  0  0  0  0  0  0  0  0  0  0
   -0.5987   -0.6243    1.0254 C   0  0  0  0  0  0  0  0  0  0  0  0
   -1.4935   -0.3382   -1.8174 H   0  0  0  0  0  0  0  0  0  0  0  0
   -2.1874   -1.5068   -0.6627 H   0  0  0  0  0  0  0  0  0  0  0  0
   -3.1542   -0.0599   -1.0742 H   0  0  0  0  0  0  0  0  0  0  0  0
   -2.3339    0.6807    0.8902 H   0  0  0  0  0  0  0  0  0  0  0  0
   -1.4328    2.3251   -0.6057 H   0  0  0  0  0  0  0  0  0  0  0  0
    0.8917    2.6065   -0.8107 H   0  0  0  0  0  0  0  0  0  0  0  0
    2.3300    1.0745    0.4410 H   0  0  0  0  0  0  0  0  0  0  0  0
    1.5582    0.1151   -2.0711 H   0  0  0  0  0  0  0  0  0  0  0  0
    2.9171   -0.4814   -1.0977 H   0  0  0  0  0  0  0  0  0  0  0  0
    1.3666   -1.3564   -0.9687 H   0  0  0  0  0  0  0  0  0  0  0  0
    0.9303    0.3553    2.1384 H   0  0  0  0  0  0  0  0  0  0  0  0
    1.1028   -2.0791    1.8019 H   0  0  0  0  0  0  0  0  0  0  0  0
   -1.0529   -0.7824    2.0263 H   0  0  0  0  0  0  0  0  0  0  0  0
   -0.6054   -1.6430    0.5422 H   0  0  0  0  0  0  0  0  0  0  0  0
  1  2  1  0
  2  3  1  0
  3  4  2  0
  4  5  1  0
  5  6  1  0
  5  7  1  0
  7  8  1  0
  7  9  1  0
  9  2  1  0
  1 10  1  0
  1 11  1  0
  1 12  1  0
  2 13  1  0
  3 14  1  0
  4 15  1  0
  5 16  1  0
  6 17  1  0
  6 18  1  0
  6 19  1  0
  7 20  1  0
  8 21  1  0
  9 22  1  0
  9 23  1  0
M  END
