
     RDKit          3D

 21 22  0  0  0  0  0  0  0  0999 V2000
    1.9490   -0.5356    0.5473 C   0  0  0  0  0  0  0  0  0  0  0  0
    0.9071   -0.3892   -0.5075 C   0  0  0  0  0  0  0  0  0  0  0  0
   -0.0244   -1.5557   -0.5004 C   0  0  0  0  0  0  0  0  0  0  0  0
    0.2194   -2.7107   -0.2609 O   0  0  0  0  0  0  0  0  0  0  0  0
   -1.2961   -0.9659   -0.8512 C   0  0  0  0  0  0  0  0  0  0  0  0
   -2.3953   -0.4284   -0.1654 C   0  0  0  0  0  0  0  0  0  0  0  0
   -1.1938    0.1103    0.3091 C   0  0  0  0  0  0  0  0  0  0  0  0
   -0.0199    0.7887   -0.3133 C   0  0  0  0  0  0  0  0  0  0  0  0
    0.4919    1.8527    0.5675 C   0  0  0  0  0  0  0  0  0  0  0  0
    1.5419   -0.7443    1.5373 H   0  0  0  0  0  0  0  0  0  0  0  0
    2.6135    0.3468    0.5399 H   0  0  0  0  0  0  0  0  0  0  0  0
    2.5815   -1.4025    0.2602 H   0  0  0  0  0  0  0  0  0  0  0  0
    1.3830   -0.3695   -1.5105 H   0  0  0  0  0  0  0  0  0  0  0  0
   -1.1690   -0.5501   -1.9048 H   0  0  0  0  0  0  0  0  0  0  0  0
   -2.9965   -1.1201    0.4934 H   0  0  0  0  0  0  0  0  0  0  0  0
   -3.1194    0.2549   -0.6867 H   0  0  0  0  0  0  0  0  0  0  0  0
   -0.8462   -0.2966    1.3109 H   0  0  0  0  0  0  0  0  0  0  0  0
   -0.3209    1.1531   -1.3110 H   0  0  0  0  0  0  0  0  0  0  0  0
    0.1987    1.6654    1.6421 H   0  0  0  0  0  0  0  0  0  0  0  0
   -0.0566    2.8085    0.3125 H   0  0  0  0  0  0  0  0  0  0  0  0
    1.5521    2.0882    0.4916 H   0  0  0  0  0  0  0  0  0  0  0  0
  1  2  1  0
  2  3  1  0
  3  4  2  0
  3  5  1  0
  5  6  1  0
  6  7  1  0
  7  8  1  0
  8  9  1  0
  8  2  1  0
  7  5  1  0
  1 10  1  0
  1 11  1  0
  1 12  1  0
  2 13  1  0
  5 14  1  0
  6 15  1  0
  6 16  1  0
  7 17  1  0
  8 18  1  0
  9 19  1  0
  9 20  1  0
  9 21  1  0
M  END
