
     RDKit          3D

 21 22  0  0  0  0  0  0  0  0999 V2000
   -2.3401    0.5939    0.7491 C   0  0  0  0  0  0  0  0  0  0  0  0
   -1.1374    0.2856   -0.0878 C   0  0  0  0  0  0  0  0  0  0  0  0
   -1.3782   -1.0221   -0.8548 C   0  0  0  0  0  0  0  0  0  0  0  0
    0.0057   -1.2627   -0.6876 O   0  0  0  0  0  0  0  0  0  0  0  0
   -0.1038   -0.6121    0.5284 C   0  0  0  0  0  0  0  0  0  0  0  0
    1.0949    0.0081    1.1130 C   0  0  0  0  0  0  0  0  0  0  0  0
    1.9478    0.8092    0.2040 C   0  0  0  0  0  0  0  0  0  0  0  0
    2.5508    0.1011   -0.9882 C   0  0  0  0  0  0  0  0  0  0  0  0
    1.5623    1.0465   -1.1102 O   0  0  0  0  0  0  0  0  0  0  0  0
   -2.2654    1.5478    1.2942 H   0  0  0  0  0  0  0  0  0  0  0  0
   -3.2284    0.6658    0.0564 H   0  0  0  0  0  0  0  0  0  0  0  0
   -2.5206   -0.2792    1.4171 H   0  0  0  0  0  0  0  0  0  0  0  0
   -0.7952    1.0442   -0.7864 H   0  0  0  0  0  0  0  0  0  0  0  0
   -1.9475   -1.7409   -0.2263 H   0  0  0  0  0  0  0  0  0  0  0  0
   -1.7025   -0.8991   -1.8860 H   0  0  0  0  0  0  0  0  0  0  0  0
   -0.5968   -1.2933    1.2609 H   0  0  0  0  0  0  0  0  0  0  0  0
    0.7541    0.6850    1.9507 H   0  0  0  0  0  0  0  0  0  0  0  0
    1.6880   -0.7839    1.6259 H   0  0  0  0  0  0  0  0  0  0  0  0
    2.6181    1.5755    0.6631 H   0  0  0  0  0  0  0  0  0  0  0  0
    2.2466   -0.9314   -1.2324 H   0  0  0  0  0  0  0  0  0  0  0  0
    3.5476    0.4619   -1.3642 H   0  0  0  0  0  0  0  0  0  0  0  0
  1  2  1  0
  2  3  1  0
  3  4  1  0
  4  5  1  0
  5  6  1  0
  6  7  1  0
  7  8  1  0
  8  9  1  0
  5  2  1  0
  9  7  1  0
  1 10  1  0
  1 11  1  0
  1 12  1  0
  2 13  1  0
  3 14  1  0
  3 15  1  0
  5 16  1  0
  6 17  1  0
  6 18  1  0
  7 19  1  0
  8 20  1  0
  8 21  1  0
M  END
