
     RDKit          3D

 25 25  0  0  0  0  0  0  0  0999 V2000
   -1.8487    0.8769   -1.3479 C   0  0  0  0  0  0  0  0  0  0  0  0
   -1.9228    0.0339   -0.1145 C   0  0  0  0  0  0  0  0  0  0  0  0
   -1.2684   -1.3511   -0.2417 C   0  0  0  0  0  0  0  0  0  0  0  0
   -0.7649   -0.3080    0.7088 C   0  0  0  0  0  0  0  0  0  0  0  0
   -1.1014   -0.6491    2.1752 C   0  0  0  0  0  0  0  0  0  0  0  0
    0.5902    0.2783    0.5712 C   0  0  0  0  0  0  0  0  0  0  0  0
    1.2597    0.0786   -0.7473 C   0  0  0  0  0  0  0  0  0  0  0  0
    2.6337    0.7652   -0.6469 C   0  0  0  0  0  0  0  0  0  0  0  0
    3.2990    0.1291    0.3903 O   0  0  0  0  0  0  0  0  0  0  0  0
   -2.8712    1.2557   -1.6305 H   0  0  0  0  0  0  0  0  0  0  0  0
   -1.5199    0.3051   -2.2562 H   0  0  0  0  0  0  0  0  0  0  0  0
   -1.2501    1.8141   -1.2091 H   0  0  0  0  0  0  0  0  0  0  0  0
   -2.9527   -0.0178    0.3506 H   0  0  0  0  0  0  0  0  0  0  0  0
   -1.8382   -2.2283    0.1278 H   0  0  0  0  0  0  0  0  0  0  0  0
   -0.7207   -1.5644   -1.1808 H   0  0  0  0  0  0  0  0  0  0  0  0
   -2.0993   -1.1007    2.2572 H   0  0  0  0  0  0  0  0  0  0  0  0
   -0.9832    0.2559    2.8028 H   0  0  0  0  0  0  0  0  0  0  0  0
   -0.3268   -1.3936    2.4734 H   0  0  0  0  0  0  0  0  0  0  0  0
    1.2620   -0.1562    1.3437 H   0  0  0  0  0  0  0  0  0  0  0  0
    0.5906    1.3817    0.7800 H   0  0  0  0  0  0  0  0  0  0  0  0
    1.4968   -0.9803   -0.9690 H   0  0  0  0  0  0  0  0  0  0  0  0
    0.7672    0.5852   -1.6021 H   0  0  0  0  0  0  0  0  0  0  0  0
    2.4884    1.8425   -0.4374 H   0  0  0  0  0  0  0  0  0  0  0  0
    3.1589    0.6976   -1.6169 H   0  0  0  0  0  0  0  0  0  0  0  0
    3.9217   -0.5505    0.0193 H   0  0  0  0  0  0  0  0  0  0  0  0
  1  2  1  0
  2  3  1  0
  3  4  1  0
  4  5  1  0
  4  6  1  0
  6  7  1  0
  7  8  1  0
  8  9  1  0
  4  2  1  0
  1 10  1  0
  1 11  1  0
  1 12  1  0
  2 13  1  0
  3 14  1  0
  3 15  1  0
  5 16  1  0
  5 17  1  0
  5 18  1  0
  6 19  1  0
  6 20  1  0
  7 21  1  0
  7 22  1  0
  8 23  1  0
  8 24  1  0
  9 25  1  0
M  END
