
     RDKit          3D

 19 19  0  0  0  0  0  0  0  0999 V2000
    2.5069    0.2138   -0.0376 C   0  0  0  0  0  0  0  0  0  0  0  0
    1.1130    0.1893   -0.6735 C   0  0  0  0  0  0  0  0  0  0  0  0
    0.3788   -1.0419   -0.2757 C   0  0  0  0  0  0  0  0  0  0  0  0
   -0.9897   -0.7136    0.3075 C   0  0  0  0  0  0  0  0  0  0  0  0
   -1.6389    0.2547   -0.6927 C   0  0  0  0  0  0  0  0  0  0  0  0
   -2.9838    0.3812   -0.3837 O   0  0  0  0  0  0  0  0  0  0  0  0
   -0.9013    1.5348   -0.5049 C   0  0  0  0  0  0  0  0  0  0  0  0
   -1.4290    2.6603   -0.5745 O   0  0  0  0  0  0  0  0  0  0  0  0
    0.4732    1.3891   -0.2352 O   0  0  0  0  0  0  0  0  0  0  0  0
    2.4226    0.7229    0.9577 H   0  0  0  0  0  0  0  0  0  0  0  0
    2.9091   -0.8016    0.0294 H   0  0  0  0  0  0  0  0  0  0  0  0
    3.1429    0.8080   -0.7331 H   0  0  0  0  0  0  0  0  0  0  0  0
    1.2303    0.1974   -1.7898 H   0  0  0  0  0  0  0  0  0  0  0  0
    0.8977   -1.6643    0.4754 H   0  0  0  0  0  0  0  0  0  0  0  0
    0.1655   -1.6919   -1.1713 H   0  0  0  0  0  0  0  0  0  0  0  0
   -0.8378   -0.1828    1.2851 H   0  0  0  0  0  0  0  0  0  0  0  0
   -1.5991   -1.6000    0.4531 H   0  0  0  0  0  0  0  0  0  0  0  0
   -1.4942   -0.1178   -1.7170 H   0  0  0  0  0  0  0  0  0  0  0  0
   -3.3661   -0.5377   -0.4126 H   0  0  0  0  0  0  0  0  0  0  0  0
  1  2  1  0
  2  3  1  0
  3  4  1  0
  4  5  1  0
  5  6  1  0
  5  7  1  0
  7  8  2  0
  7  9  1  0
  9  2  1  0
  1 10  1  0
  1 11  1  0
  1 12  1  0
  2 13  1  0
  3 14  1  0
  3 15  1  0
  4 16  1  0
  4 17  1  0
  5 18  1  0
  6 19  1  0
M  END
