
     RDKit          3D

 21 22  0  0  0  0  0  0  0  0999 V2000
    2.3598    0.2574   -0.1200 C   0  0  0  0  0  0  0  0  0  0  0  0
    0.9655   -0.2617   -0.4077 C   0  0  0  0  0  0  0  0  0  0  0  0
    0.1238   -0.4175    0.8622 C   0  0  0  0  0  0  0  0  0  0  0  0
   -1.0653   -1.2445    0.5199 C   0  0  0  0  0  0  0  0  0  0  0  0
   -1.9480   -0.6422   -0.5567 C   0  0  0  0  0  0  0  0  0  0  0  0
   -1.2543    0.4912   -1.2164 C   0  0  0  0  0  0  0  0  0  0  0  0
   -1.7766    1.0389   -2.1511 O   0  0  0  0  0  0  0  0  0  0  0  0
    0.0400    0.9243   -0.7296 C   0  0  0  0  0  0  0  0  0  0  0  0
   -0.0887    1.0736    0.7897 C   0  0  0  0  0  0  0  0  0  0  0  0
    3.0921   -0.1004   -0.8763 H   0  0  0  0  0  0  0  0  0  0  0  0
    2.6903   -0.0205    0.9180 H   0  0  0  0  0  0  0  0  0  0  0  0
    2.4070    1.3714   -0.1473 H   0  0  0  0  0  0  0  0  0  0  0  0
    0.9045   -1.0912   -1.1097 H   0  0  0  0  0  0  0  0  0  0  0  0
    0.6638   -0.7896    1.7296 H   0  0  0  0  0  0  0  0  0  0  0  0
   -0.6789   -2.2105    0.0783 H   0  0  0  0  0  0  0  0  0  0  0  0
   -1.6729   -1.4700    1.4196 H   0  0  0  0  0  0  0  0  0  0  0  0
   -2.8794   -0.2847   -0.0716 H   0  0  0  0  0  0  0  0  0  0  0  0
   -2.2215   -1.3625   -1.3367 H   0  0  0  0  0  0  0  0  0  0  0  0
    0.5865    1.7054   -1.2367 H   0  0  0  0  0  0  0  0  0  0  0  0
   -1.0590    1.4394    1.1306 H   0  0  0  0  0  0  0  0  0  0  0  0
    0.8115    1.5937    1.1507 H   0  0  0  0  0  0  0  0  0  0  0  0
  1  2  1  0
  2  3  1  0
  3  4  1  0
  4  5  1  0
  5  6  1  0
  6  7  2  0
  6  8  1  0
  8  9  1  0
  8  2  1  0
  9  3  1  0
  1 10  1  0
  1 11  1  0
  1 12  1  0
  2 13  1  0
  3 14  1  0
  4 15  1  0
  4 16  1  0
  5 17  1  0
  5 18  1  0
  8 19  1  0
  9 20  1  0
  9 21  1  0
M  END
