
     RDKit          3D

 25 25  0  0  0  0  0  0  0  0999 V2000
    3.3889    0.3754   -0.1511 C   0  0  0  0  0  0  0  0  0  0  0  0
    2.2476   -0.4616    0.3724 C   0  0  0  0  0  0  0  0  0  0  0  0
    1.0329    0.3375    0.8122 C   0  0  0  0  0  0  0  0  0  0  0  0
    0.2041   -0.7964    0.2413 C   0  0  0  0  0  0  0  0  0  0  0  0
   -1.0427   -0.3608   -0.4859 C   0  0  0  0  0  0  0  0  0  0  0  0
   -1.9015    0.3968    0.5140 C   0  0  0  0  0  0  0  0  0  0  0  0
   -3.1769    0.8632   -0.1624 C   0  0  0  0  0  0  0  0  0  0  0  0
   -3.9304   -0.1891   -0.6590 O   0  0  0  0  0  0  0  0  0  0  0  0
    1.3560   -1.0196   -0.7221 C   0  0  0  0  0  0  0  0  0  0  0  0
    3.9375    0.7855    0.7182 H   0  0  0  0  0  0  0  0  0  0  0  0
    2.9827    1.1575   -0.8099 H   0  0  0  0  0  0  0  0  0  0  0  0
    4.0860   -0.3026   -0.6828 H   0  0  0  0  0  0  0  0  0  0  0  0
    2.5303   -1.1894    1.1593 H   0  0  0  0  0  0  0  0  0  0  0  0
    0.9367    0.4705    1.9056 H   0  0  0  0  0  0  0  0  0  0  0  0
    0.9015    1.2750    0.2302 H   0  0  0  0  0  0  0  0  0  0  0  0
    0.0882   -1.6156    0.9533 H   0  0  0  0  0  0  0  0  0  0  0  0
   -1.6053   -1.2852   -0.7401 H   0  0  0  0  0  0  0  0  0  0  0  0
   -0.8040    0.2319   -1.3677 H   0  0  0  0  0  0  0  0  0  0  0  0
   -1.3875    1.3121    0.8751 H   0  0  0  0  0  0  0  0  0  0  0  0
   -2.1707   -0.2211    1.3743 H   0  0  0  0  0  0  0  0  0  0  0  0
   -3.7983    1.3971    0.5784 H   0  0  0  0  0  0  0  0  0  0  0  0
   -2.9125    1.5295   -1.0080 H   0  0  0  0  0  0  0  0  0  0  0  0
   -3.8069   -0.3165   -1.6405 H   0  0  0  0  0  0  0  0  0  0  0  0
    1.5459   -2.0729   -0.9849 H   0  0  0  0  0  0  0  0  0  0  0  0
    1.2982   -0.3013   -1.5522 H   0  0  0  0  0  0  0  0  0  0  0  0
  1  2  1  0
  2  3  1  0
  3  4  1  0
  4  5  1  0
  5  6  1  0
  6  7  1  0
  7  8  1  0
  4  9  1  0
  9  2  1  0
  1 10  1  0
  1 11  1  0
  1 12  1  0
  2 13  1  0
  3 14  1  0
  3 15  1  0
  4 16  1  0
  5 17  1  0
  5 18  1  0
  6 19  1  0
  6 20  1  0
  7 21  1  0
  7 22  1  0
  8 23  1  0
  9 24  1  0
  9 25  1  0
M  END
