
     RDKit          3D

 17 18  0  0  0  0  0  0  0  0999 V2000
    2.1290    0.5660   -0.3186 C   0  0  0  0  0  0  0  0  0  0  0  0
    1.1298   -0.5443   -0.2817 C   0  0  0  0  0  0  0  0  0  0  0  0
    0.1871   -0.3190    0.8589 C   0  0  0  0  0  0  0  0  0  0  0  0
   -1.1667   -0.2709    0.2365 C   0  0  0  0  0  0  0  0  0  0  0  0
   -2.1108    0.8132    0.3991 C   0  0  0  0  0  0  0  0  0  0  0  0
   -2.3031   -0.5088    0.9525 O   0  0  0  0  0  0  0  0  0  0  0  0
   -0.9635   -0.8252   -1.1134 C   0  0  0  0  0  0  0  0  0  0  0  0
   -1.7732   -1.4880   -1.8416 O   0  0  0  0  0  0  0  0  0  0  0  0
    0.3335   -0.4818   -1.4741 O   0  0  0  0  0  0  0  0  0  0  0  0
    2.9154    0.3287    0.4417 H   0  0  0  0  0  0  0  0  0  0  0  0
    2.5387    0.7229   -1.3212 H   0  0  0  0  0  0  0  0  0  0  0  0
    1.6051    1.5008    0.0177 H   0  0  0  0  0  0  0  0  0  0  0  0
    1.5995   -1.5625   -0.2541 H   0  0  0  0  0  0  0  0  0  0  0  0
    0.4438    0.5983    1.4401 H   0  0  0  0  0  0  0  0  0  0  0  0
    0.2902   -1.1730    1.5738 H   0  0  0  0  0  0  0  0  0  0  0  0
   -2.8257    1.0084   -0.4418 H   0  0  0  0  0  0  0  0  0  0  0  0
   -2.0293    1.6350    1.1261 H   0  0  0  0  0  0  0  0  0  0  0  0
  1  2  1  0
  2  3  1  0
  3  4  1  0
  4  5  1  0
  5  6  1  0
  4  7  1  0
  7  8  2  0
  7  9  1  0
  9  2  1  0
  6  4  1  0
  1 10  1  0
  1 11  1  0
  1 12  1  0
  2 13  1  0
  3 14  1  0
  3 15  1  0
  5 16  1  0
  5 17  1  0
M  END
