
     RDKit          3D

 23 23  0  0  0  0  0  0  0  0999 V2000
    2.1289    0.1395    0.6031 C   0  0  0  0  0  0  0  0  0  0  0  0
    1.0658   -0.0912   -0.4263 C   0  0  0  0  0  0  0  0  0  0  0  0
    0.8642   -1.5347   -0.6848 C   0  0  0  0  0  0  0  0  0  0  0  0
   -0.4188   -1.7846   -0.8861 C   0  0  0  0  0  0  0  0  0  0  0  0
   -1.1857   -0.5262   -0.7802 C   0  0  0  0  0  0  0  0  0  0  0  0
   -2.4014   -0.6914   -0.1238 O   0  0  0  0  0  0  0  0  0  0  0  0
   -0.2960    0.3928    0.0190 C   0  0  0  0  0  0  0  0  0  0  0  0
   -0.5135    1.8403   -0.3098 C   0  0  0  0  0  0  0  0  0  0  0  0
   -0.5537    0.1673    1.4702 C   0  0  0  0  0  0  0  0  0  0  0  0
    3.0523   -0.3586    0.2479 H   0  0  0  0  0  0  0  0  0  0  0  0
    1.8898   -0.2895    1.5908 H   0  0  0  0  0  0  0  0  0  0  0  0
    2.2927    1.2430    0.6912 H   0  0  0  0  0  0  0  0  0  0  0  0
    1.3598    0.4593   -1.3441 H   0  0  0  0  0  0  0  0  0  0  0  0
    1.6539   -2.2747   -0.7053 H   0  0  0  0  0  0  0  0  0  0  0  0
   -0.8717   -2.7818   -1.1033 H   0  0  0  0  0  0  0  0  0  0  0  0
   -1.3194   -0.0380   -1.7759 H   0  0  0  0  0  0  0  0  0  0  0  0
   -3.0778   -0.9760   -0.7882 H   0  0  0  0  0  0  0  0  0  0  0  0
   -1.0357    1.9856   -1.2817 H   0  0  0  0  0  0  0  0  0  0  0  0
   -1.1165    2.3492    0.4609 H   0  0  0  0  0  0  0  0  0  0  0  0
    0.4408    2.4146   -0.3935 H   0  0  0  0  0  0  0  0  0  0  0  0
   -0.3561   -0.8830    1.7554 H   0  0  0  0  0  0  0  0  0  0  0  0
   -1.6266    0.3566    1.6631 H   0  0  0  0  0  0  0  0  0  0  0  0
    0.0248    0.8814    2.1013 H   0  0  0  0  0  0  0  0  0  0  0  0
  1  2  1  0
  2  3  1  0
  3  4  2  0
  4  5  1  0
  5  6  1  0
  5  7  1  0
  7  8  1  0
  7  9  1  0
  7  2  1  0
  1 10  1  0
  1 11  1  0
  1 12  1  0
  2 13  1  0
  3 14  1  0
  4 15  1  0
  5 16  1  0
  6 17  1  0
  8 18  1  0
  8 19  1  0
  8 20  1  0
  9 21  1  0
  9 22  1  0
  9 23  1  0
M  END
