
     RDKit          3D

 19 20  0  0  0  0  0  0  0  0999 V2000
    2.0565   -1.0368   -0.0652 C   0  0  0  0  0  0  0  0  0  0  0  0
    1.3014    0.2719   -0.0737 C   0  0  0  0  0  0  0  0  0  0  0  0
    0.3759    0.5924   -1.1688 C   0  0  0  0  0  0  0  0  0  0  0  0
   -0.3660   -0.5156   -1.6314 O   0  0  0  0  0  0  0  0  0  0  0  0
   -1.2098   -0.2838   -0.5818 C   0  0  0  0  0  0  0  0  0  0  0  0
   -1.8778   -1.4549    0.0208 C   0  0  0  0  0  0  0  0  0  0  0  0
   -2.6424   -1.3179    0.9597 O   0  0  0  0  0  0  0  0  0  0  0  0
   -0.1285    0.3616    0.2032 C   0  0  0  0  0  0  0  0  0  0  0  0
   -0.5877    1.4944    1.0840 C   0  0  0  0  0  0  0  0  0  0  0  0
    2.5951   -1.1611   -1.0136 H   0  0  0  0  0  0  0  0  0  0  0  0
    1.3314   -1.8498    0.1519 H   0  0  0  0  0  0  0  0  0  0  0  0
    2.7799   -1.0284    0.7745 H   0  0  0  0  0  0  0  0  0  0  0  0
    1.9448    1.1312    0.2576 H   0  0  0  0  0  0  0  0  0  0  0  0
    0.3250    1.5387   -1.6871 H   0  0  0  0  0  0  0  0  0  0  0  0
   -1.9859    0.4714   -0.8862 H   0  0  0  0  0  0  0  0  0  0  0  0
   -1.6706   -2.4297   -0.3917 H   0  0  0  0  0  0  0  0  0  0  0  0
   -1.5429    1.1468    1.5719 H   0  0  0  0  0  0  0  0  0  0  0  0
    0.1148    1.6535    1.9399 H   0  0  0  0  0  0  0  0  0  0  0  0
   -0.8133    2.4160    0.5359 H   0  0  0  0  0  0  0  0  0  0  0  0
  1  2  1  0
  2  3  1  0
  3  4  1  0
  4  5  1  0
  5  6  1  0
  6  7  2  0
  5  8  1  0
  8  9  1  0
  8  2  1  0
  8  3  1  0
  1 10  1  0
  1 11  1  0
  1 12  1  0
  2 13  1  0
  3 14  1  0
  5 15  1  0
  6 16  1  0
  9 17  1  0
  9 18  1  0
  9 19  1  0
M  END
