
     RDKit          3D

 21 23  0  0  0  0  0  0  0  0999 V2000
    2.3059    0.0745   -0.2780 C   0  0  0  0  0  0  0  0  0  0  0  0
    0.9878    0.0766    0.4452 C   0  0  0  0  0  0  0  0  0  0  0  0
    0.2955   -1.2341    0.1171 C   0  0  0  0  0  0  0  0  0  0  0  0
   -1.0922   -1.1981    0.6997 C   0  0  0  0  0  0  0  0  0  0  0  0
   -1.7067   -0.0517   -0.0866 C   0  0  0  0  0  0  0  0  0  0  0  0
   -1.2571    1.2621    0.4989 C   0  0  0  0  0  0  0  0  0  0  0  0
    0.0559    1.0617   -0.2260 C   0  0  0  0  0  0  0  0  0  0  0  0
   -0.6918    0.1549   -1.1847 C   0  0  0  0  0  0  0  0  0  0  0  0
    0.0157   -1.0357   -1.2512 O   0  0  0  0  0  0  0  0  0  0  0  0
    3.1240   -0.1071    0.4674 H   0  0  0  0  0  0  0  0  0  0  0  0
    2.4926    0.9741   -0.8751 H   0  0  0  0  0  0  0  0  0  0  0  0
    2.3976   -0.7914   -0.9968 H   0  0  0  0  0  0  0  0  0  0  0  0
    1.1209    0.2450    1.5112 H   0  0  0  0  0  0  0  0  0  0  0  0
    0.8705   -2.1153    0.3263 H   0  0  0  0  0  0  0  0  0  0  0  0
   -1.6243   -2.1349    0.5479 H   0  0  0  0  0  0  0  0  0  0  0  0
   -0.9629   -0.9261    1.7765 H   0  0  0  0  0  0  0  0  0  0  0  0
   -2.7438   -0.1521   -0.3714 H   0  0  0  0  0  0  0  0  0  0  0  0
   -1.8166    2.0959    0.0388 H   0  0  0  0  0  0  0  0  0  0  0  0
   -1.2277    1.2438    1.5843 H   0  0  0  0  0  0  0  0  0  0  0  0
    0.4906    1.9620   -0.6351 H   0  0  0  0  0  0  0  0  0  0  0  0
   -1.0338    0.5957   -2.1082 H   0  0  0  0  0  0  0  0  0  0  0  0
  1  2  1  0
  2  3  1  0
  3  4  1  0
  4  5  1  0
  5  6  1  0
  6  7  1  0
  7  8  1  0
  8  9  1  0
  7  2  1  0
  9  3  1  0
  8  5  1  0
  1 10  1  0
  1 11  1  0
  1 12  1  0
  2 13  1  0
  3 14  1  0
  4 15  1  0
  4 16  1  0
  5 17  1  0
  6 18  1  0
  6 19  1  0
  7 20  1  0
  8 21  1  0
M  END
