
     RDKit          3D

 21 22  0  0  0  0  0  0  0  0999 V2000
    2.7366    0.5430   -0.4071 C   0  0  0  0  0  0  0  0  0  0  0  0
    1.4739   -0.0677    0.0799 C   0  0  0  0  0  0  0  0  0  0  0  0
    0.3653    0.9524    0.2985 C   0  0  0  0  0  0  0  0  0  0  0  0
   -0.7896   -0.0230    0.5651 C   0  0  0  0  0  0  0  0  0  0  0  0
   -1.9471    0.1026   -0.3611 C   0  0  0  0  0  0  0  0  0  0  0  0
   -1.9456    1.1722   -1.2223 O   0  0  0  0  0  0  0  0  0  0  0  0
   -1.5544   -1.2365   -0.9857 C   0  0  0  0  0  0  0  0  0  0  0  0
   -0.3174   -1.2566   -0.1487 C   0  0  0  0  0  0  0  0  0  0  0  0
    0.8711   -0.9390   -0.7928 O   0  0  0  0  0  0  0  0  0  0  0  0
    2.7250    0.8778   -1.4551 H   0  0  0  0  0  0  0  0  0  0  0  0
    2.9834    1.3985    0.2878 H   0  0  0  0  0  0  0  0  0  0  0  0
    3.5549   -0.1956   -0.2826 H   0  0  0  0  0  0  0  0  0  0  0  0
    1.6517   -0.5746    1.0302 H   0  0  0  0  0  0  0  0  0  0  0  0
    0.1008    1.4770   -0.6331 H   0  0  0  0  0  0  0  0  0  0  0  0
    0.5523    1.6178    1.1353 H   0  0  0  0  0  0  0  0  0  0  0  0
   -0.9981   -0.1806    1.6252 H   0  0  0  0  0  0  0  0  0  0  0  0
   -2.9094   -0.0038    0.2205 H   0  0  0  0  0  0  0  0  0  0  0  0
   -2.6905    1.7885   -0.9569 H   0  0  0  0  0  0  0  0  0  0  0  0
   -2.2386   -2.0696   -0.6656 H   0  0  0  0  0  0  0  0  0  0  0  0
   -1.4334   -1.2253   -2.0732 H   0  0  0  0  0  0  0  0  0  0  0  0
   -0.1907   -2.1575    0.4830 H   0  0  0  0  0  0  0  0  0  0  0  0
  1  2  1  0
  2  3  1  0
  3  4  1  0
  4  5  1  0
  5  6  1  0
  5  7  1  0
  7  8  1  0
  8  9  1  0
  9  2  1  0
  8  4  1  0
  1 10  1  0
  1 11  1  0
  1 12  1  0
  2 13  1  0
  3 14  1  0
  3 15  1  0
  4 16  1  0
  5 17  1  0
  6 18  1  0
  7 19  1  0
  7 20  1  0
  8 21  1  0
M  END
