
     RDKit          3D

 19 21  0  0  0  0  0  0  0  0999 V2000
    2.2408    0.0316    0.6532 C   0  0  0  0  0  0  0  0  0  0  0  0
    1.3202    0.0351   -0.5450 C   0  0  0  0  0  0  0  0  0  0  0  0
    0.4666    1.2965   -0.5300 C   0  0  0  0  0  0  0  0  0  0  0  0
   -0.7409    0.9875   -0.1845 C   0  0  0  0  0  0  0  0  0  0  0  0
   -2.1349    0.8725    0.1713 C   0  0  0  0  0  0  0  0  0  0  0  0
   -2.4248   -0.4376   -0.0567 C   0  0  0  0  0  0  0  0  0  0  0  0
   -1.1686   -1.1008   -0.5651 C   0  0  0  0  0  0  0  0  0  0  0  0
   -0.4291   -0.3935    0.5664 C   0  0  0  0  0  0  0  0  0  0  0  0
    0.2449   -1.0866   -0.3503 C   0  0  0  0  0  0  0  0  0  0  0  0
    3.1798    0.5425    0.3983 H   0  0  0  0  0  0  0  0  0  0  0  0
    2.4341   -1.0244    0.9280 H   0  0  0  0  0  0  0  0  0  0  0  0
    1.7071    0.5444    1.4758 H   0  0  0  0  0  0  0  0  0  0  0  0
    1.8265   -0.0910   -1.5000 H   0  0  0  0  0  0  0  0  0  0  0  0
    0.7037    2.3187   -0.7453 H   0  0  0  0  0  0  0  0  0  0  0  0
   -2.6963    1.7250    0.4856 H   0  0  0  0  0  0  0  0  0  0  0  0
   -3.3803   -0.8374    0.1190 H   0  0  0  0  0  0  0  0  0  0  0  0
   -1.2280   -0.7977   -1.6302 H   0  0  0  0  0  0  0  0  0  0  0  0
   -0.6587   -0.5086    1.5617 H   0  0  0  0  0  0  0  0  0  0  0  0
    0.7380   -2.0763   -0.2523 H   0  0  0  0  0  0  0  0  0  0  0  0
  1  2  1  0
  2  3  1  0
  3  4  2  0
  4  5  1  0
  5  6  2  0
  6  7  1  0
  7  8  1  0
  8  9  1  0
  9  2  1  0
  8  4  1  0
  9  7  1  0
  1 10  1  0
  1 11  1  0
  1 12  1  0
  2 13  1  0
  3 14  1  0
  5 15  1  0
  6 16  1  0
  7 17  1  0
  8 18  1  0
  9 19  1  0
M  END
