
     RDKit          3D

 17 18  0  0  0  0  0  0  0  0999 V2000
   -1.9381   -0.4030    0.1116 C   0  0  0  0  0  0  0  0  0  0  0  0
   -0.6131    0.0654    0.6551 C   0  0  0  0  0  0  0  0  0  0  0  0
   -0.2031    1.3807    0.1000 C   0  0  0  0  0  0  0  0  0  0  0  0
    0.7112    1.2451   -0.8303 C   0  0  0  0  0  0  0  0  0  0  0  0
    1.0666   -0.1791   -1.0544 C   0  0  0  0  0  0  0  0  0  0  0  0
    2.3406   -0.4930   -0.5233 O   0  0  0  0  0  0  0  0  0  0  0  0
    1.8041   -0.6185    0.7454 C   0  0  0  0  0  0  0  0  0  0  0  0
    2.2615   -0.5576    1.9089 O   0  0  0  0  0  0  0  0  0  0  0  0
    0.4758   -0.8525    0.1538 C   0  0  0  0  0  0  0  0  0  0  0  0
   -2.7472   -0.2427    0.8805 H   0  0  0  0  0  0  0  0  0  0  0  0
   -2.2300    0.2013   -0.7926 H   0  0  0  0  0  0  0  0  0  0  0  0
   -1.9330   -1.4661   -0.1986 H   0  0  0  0  0  0  0  0  0  0  0  0
   -0.5827    0.0607    1.7656 H   0  0  0  0  0  0  0  0  0  0  0  0
   -0.6173    2.3158    0.4339 H   0  0  0  0  0  0  0  0  0  0  0  0
    1.1681    2.0584   -1.3835 H   0  0  0  0  0  0  0  0  0  0  0  0
    0.8196   -0.6046   -2.0250 H   0  0  0  0  0  0  0  0  0  0  0  0
    0.2169   -1.9103    0.0529 H   0  0  0  0  0  0  0  0  0  0  0  0
  1  2  1  0
  2  3  1  0
  3  4  2  0
  4  5  1  0
  5  6  1  0
  6  7  1  0
  7  8  2  0
  7  9  1  0
  9  2  1  0
  9  5  1  0
  1 10  1  0
  1 11  1  0
  1 12  1  0
  2 13  1  0
  3 14  1  0
  4 15  1  0
  5 16  1  0
  9 17  1  0
M  END
