
     RDKit          3D

 19 19  0  0  0  0  0  0  0  0999 V2000
    2.2168   -0.2826    0.5130 C   0  0  0  0  0  0  0  0  0  0  0  0
    1.0488    0.0094   -0.4372 C   0  0  0  0  0  0  0  0  0  0  0  0
    0.1910   -1.1768   -0.4956 C   0  0  0  0  0  0  0  0  0  0  0  0
   -1.1224   -0.9736   -0.8321 O   0  0  0  0  0  0  0  0  0  0  0  0
   -1.8541   -0.4152    0.2305 C   0  0  0  0  0  0  0  0  0  0  0  0
   -2.0241    1.0443   -0.1271 C   0  0  0  0  0  0  0  0  0  0  0  0
   -0.8385    1.7036    0.2576 O   0  0  0  0  0  0  0  0  0  0  0  0
    0.4368    1.2604    0.0068 C   0  0  0  0  0  0  0  0  0  0  0  0
    1.3127    2.1714    0.2135 O   0  0  0  0  0  0  0  0  0  0  0  0
    1.9032   -0.9312    1.3469 H   0  0  0  0  0  0  0  0  0  0  0  0
    2.6348    0.6829    0.8905 H   0  0  0  0  0  0  0  0  0  0  0  0
    3.0360   -0.7895   -0.0340 H   0  0  0  0  0  0  0  0  0  0  0  0
    1.5391    0.2239   -1.4290 H   0  0  0  0  0  0  0  0  0  0  0  0
    0.2248   -1.7860    0.4537 H   0  0  0  0  0  0  0  0  0  0  0  0
    0.6083   -1.8825   -1.2735 H   0  0  0  0  0  0  0  0  0  0  0  0
   -1.3454   -0.5327    1.1932 H   0  0  0  0  0  0  0  0  0  0  0  0
   -2.8721   -0.8846    0.2902 H   0  0  0  0  0  0  0  0  0  0  0  0
   -2.8759    1.4436    0.4471 H   0  0  0  0  0  0  0  0  0  0  0  0
   -2.2199    1.1153   -1.2145 H   0  0  0  0  0  0  0  0  0  0  0  0
  1  2  1  0
  2  3  1  0
  3  4  1  0
  4  5  1  0
  5  6  1  0
  6  7  1  0
  7  8  1  0
  8  9  2  0
  8  2  1  0
  1 10  1  0
  1 11  1  0
  1 12  1  0
  2 13  1  0
  3 14  1  0
  3 15  1  0
  5 16  1  0
  5 17  1  0
  6 18  1  0
  6 19  1  0
M  END
