
     RDKit          3D

 21 22  0  0  0  0  0  0  0  0999 V2000
   -2.7137   -0.2191    0.2513 C   0  0  0  0  0  0  0  0  0  0  0  0
   -1.2719    0.1826    0.2160 C   0  0  0  0  0  0  0  0  0  0  0  0
   -0.9325    1.1303   -0.8513 C   0  0  0  0  0  0  0  0  0  0  0  0
    0.3370    0.9288   -1.2108 C   0  0  0  0  0  0  0  0  0  0  0  0
    0.9108   -0.1612   -0.4046 C   0  0  0  0  0  0  0  0  0  0  0  0
    1.5655    0.2078    0.8792 C   0  0  0  0  0  0  0  0  0  0  0  0
    2.7584   -0.3367    0.1671 C   0  0  0  0  0  0  0  0  0  0  0  0
    1.9687   -0.8448   -0.8888 O   0  0  0  0  0  0  0  0  0  0  0  0
   -0.3536   -0.9807   -0.1159 C   0  0  0  0  0  0  0  0  0  0  0  0
   -3.3186    0.6539    0.4833 H   0  0  0  0  0  0  0  0  0  0  0  0
   -2.9701   -0.7293   -0.6857 H   0  0  0  0  0  0  0  0  0  0  0  0
   -2.8342   -0.9411    1.0889 H   0  0  0  0  0  0  0  0  0  0  0  0
   -0.9374    0.5859    1.2004 H   0  0  0  0  0  0  0  0  0  0  0  0
   -1.6238    1.8609   -1.2576 H   0  0  0  0  0  0  0  0  0  0  0  0
    0.8573    1.4861   -1.9787 H   0  0  0  0  0  0  0  0  0  0  0  0
    1.5532    1.2791    1.0945 H   0  0  0  0  0  0  0  0  0  0  0  0
    1.2298   -0.4033    1.7640 H   0  0  0  0  0  0  0  0  0  0  0  0
    3.2766   -1.1049    0.7611 H   0  0  0  0  0  0  0  0  0  0  0  0
    3.4308    0.4973   -0.1437 H   0  0  0  0  0  0  0  0  0  0  0  0
   -0.7089   -1.4114   -1.0678 H   0  0  0  0  0  0  0  0  0  0  0  0
   -0.2233   -1.6801    0.6991 H   0  0  0  0  0  0  0  0  0  0  0  0
  1  2  1  0
  2  3  1  0
  3  4  2  0
  4  5  1  0
  5  6  1  0
  6  7  1  0
  7  8  1  0
  5  9  1  0
  9  2  1  0
  8  5  1  0
  1 10  1  0
  1 11  1  0
  1 12  1  0
  2 13  1  0
  3 14  1  0
  4 15  1  0
  6 16  1  0
  6 17  1  0
  7 18  1  0
  7 19  1  0
  9 20  1  0
  9 21  1  0
M  END
