
     RDKit          3D

 25 25  0  0  0  0  0  0  0  0999 V2000
   -2.4560   -0.8871    0.5729 C   0  0  0  0  0  0  0  0  0  0  0  0
   -1.1402   -0.1435    0.5546 C   0  0  0  0  0  0  0  0  0  0  0  0
   -1.2400    1.0499   -0.4026 C   0  0  0  0  0  0  0  0  0  0  0  0
    0.1062    1.7708   -0.2538 C   0  0  0  0  0  0  0  0  0  0  0  0
    1.1339    0.8836   -0.9058 C   0  0  0  0  0  0  0  0  0  0  0  0
    1.2428   -0.4215   -0.1952 C   0  0  0  0  0  0  0  0  0  0  0  0
    2.0209   -0.2900    1.0686 C   0  0  0  0  0  0  0  0  0  0  0  0
    1.9886   -1.2661   -1.0528 O   0  0  0  0  0  0  0  0  0  0  0  0
   -0.1017   -1.0669   -0.0305 C   0  0  0  0  0  0  0  0  0  0  0  0
   -3.1235   -0.5463    1.3904 H   0  0  0  0  0  0  0  0  0  0  0  0
   -2.2375   -1.9692    0.7613 H   0  0  0  0  0  0  0  0  0  0  0  0
   -2.9880   -0.8354   -0.4034 H   0  0  0  0  0  0  0  0  0  0  0  0
   -0.8897    0.2474    1.5414 H   0  0  0  0  0  0  0  0  0  0  0  0
   -1.3511    0.6957   -1.4418 H   0  0  0  0  0  0  0  0  0  0  0  0
   -2.0813    1.6779   -0.0997 H   0  0  0  0  0  0  0  0  0  0  0  0
    0.3634    1.8108    0.8335 H   0  0  0  0  0  0  0  0  0  0  0  0
    0.0141    2.7465   -0.7260 H   0  0  0  0  0  0  0  0  0  0  0  0
    2.1339    1.3942   -0.9063 H   0  0  0  0  0  0  0  0  0  0  0  0
    0.8107    0.6671   -1.9537 H   0  0  0  0  0  0  0  0  0  0  0  0
    1.7340    0.5713    1.6978 H   0  0  0  0  0  0  0  0  0  0  0  0
    3.0934   -0.0888    0.7728 H   0  0  0  0  0  0  0  0  0  0  0  0
    2.0612   -1.2449    1.6313 H   0  0  0  0  0  0  0  0  0  0  0  0
    1.4373   -1.4364   -1.8631 H   0  0  0  0  0  0  0  0  0  0  0  0
   -0.4639   -1.2971   -1.0776 H   0  0  0  0  0  0  0  0  0  0  0  0
   -0.0675   -2.0219    0.4877 H   0  0  0  0  0  0  0  0  0  0  0  0
  1  2  1  0
  2  3  1  0
  3  4  1  0
  4  5  1  0
  5  6  1  0
  6  7  1  0
  6  8  1  0
  6  9  1  0
  9  2  1  0
  1 10  1  0
  1 11  1  0
  1 12  1  0
  2 13  1  0
  3 14  1  0
  3 15  1  0
  4 16  1  0
  4 17  1  0
  5 18  1  0
  5 19  1  0
  7 20  1  0
  7 21  1  0
  7 22  1  0
  8 23  1  0
  9 24  1  0
  9 25  1  0
M  END
