
     RDKit          3D

 25 26  0  0  0  0  0  0  0  0999 V2000
   -2.7538    0.7065    0.4616 C   0  0  0  0  0  0  0  0  0  0  0  0
   -1.5938    0.0397   -0.2298 C   0  0  0  0  0  0  0  0  0  0  0  0
   -1.1031   -1.1367    0.5763 C   0  0  0  0  0  0  0  0  0  0  0  0
    0.0109   -1.7730   -0.1907 C   0  0  0  0  0  0  0  0  0  0  0  0
    1.1454   -0.8390   -0.4819 C   0  0  0  0  0  0  0  0  0  0  0  0
    1.6093    0.1932    0.4431 C   0  0  0  0  0  0  0  0  0  0  0  0
    3.0443    0.6395    0.3947 C   0  0  0  0  0  0  0  0  0  0  0  0
    0.8078    0.5276   -0.8176 C   0  0  0  0  0  0  0  0  0  0  0  0
   -0.5444    1.0346   -0.5578 C   0  0  0  0  0  0  0  0  0  0  0  0
   -3.0641    1.5645   -0.1883 H   0  0  0  0  0  0  0  0  0  0  0  0
   -3.5912    0.0148    0.6393 H   0  0  0  0  0  0  0  0  0  0  0  0
   -2.3620    1.1641    1.3935 H   0  0  0  0  0  0  0  0  0  0  0  0
   -1.9819   -0.3759   -1.2004 H   0  0  0  0  0  0  0  0  0  0  0  0
   -0.8225   -0.8795    1.6003 H   0  0  0  0  0  0  0  0  0  0  0  0
   -1.9527   -1.8795    0.5878 H   0  0  0  0  0  0  0  0  0  0  0  0
    0.3800   -2.7147    0.2456 H   0  0  0  0  0  0  0  0  0  0  0  0
   -0.4174   -2.0616   -1.1972 H   0  0  0  0  0  0  0  0  0  0  0  0
    1.9583   -1.3387   -1.0814 H   0  0  0  0  0  0  0  0  0  0  0  0
    1.1305    0.3391    1.4269 H   0  0  0  0  0  0  0  0  0  0  0  0
    3.0760    1.7626    0.3640 H   0  0  0  0  0  0  0  0  0  0  0  0
    3.4786    0.3248   -0.5913 H   0  0  0  0  0  0  0  0  0  0  0  0
    3.6303    0.2610    1.2477 H   0  0  0  0  0  0  0  0  0  0  0  0
    1.3638    1.0012   -1.6700 H   0  0  0  0  0  0  0  0  0  0  0  0
   -0.9103    1.6257   -1.4486 H   0  0  0  0  0  0  0  0  0  0  0  0
   -0.5380    1.7997    0.2743 H   0  0  0  0  0  0  0  0  0  0  0  0
  1  2  1  0
  2  3  1  0
  3  4  1  0
  4  5  1  0
  5  6  1  0
  6  7  1  0
  6  8  1  0
  8  9  1  0
  9  2  1  0
  8  5  1  0
  1 10  1  0
  1 11  1  0
  1 12  1  0
  2 13  1  0
  3 14  1  0
  3 15  1  0
  4 16  1  0
  4 17  1  0
  5 18  1  0
  6 19  1  0
  7 20  1  0
  7 21  1  0
  7 22  1  0
  8 23  1  0
  9 24  1  0
  9 25  1  0
M  END
