
     RDKit          3D

 21 21  0  0  0  0  0  0  0  0999 V2000
    1.1806   -1.5401    0.4336 C   0  0  0  0  0  0  0  0  0  0  0  0
    0.7068   -0.1339    0.5279 C   0  0  0  0  0  0  0  0  0  0  0  0
    1.6218    0.7769   -0.2132 C   0  0  0  0  0  0  0  0  0  0  0  0
    2.8353    0.7485   -0.2981 O   0  0  0  0  0  0  0  0  0  0  0  0
    0.7227    1.7732   -0.8587 C   0  0  0  0  0  0  0  0  0  0  0  0
   -0.3972    1.0106   -1.1797 O   0  0  0  0  0  0  0  0  0  0  0  0
   -0.6093    0.1215   -0.1495 C   0  0  0  0  0  0  0  0  0  0  0  0
   -1.5427    0.7386    0.8700 C   0  0  0  0  0  0  0  0  0  0  0  0
   -1.2581   -1.1151   -0.6927 C   0  0  0  0  0  0  0  0  0  0  0  0
    0.6326   -2.2292    1.0685 H   0  0  0  0  0  0  0  0  0  0  0  0
    1.1438   -1.8628   -0.6197 H   0  0  0  0  0  0  0  0  0  0  0  0
    2.2640   -1.5516    0.7290 H   0  0  0  0  0  0  0  0  0  0  0  0
    0.7112    0.2312    1.5908 H   0  0  0  0  0  0  0  0  0  0  0  0
    1.1537    2.2007   -1.7766 H   0  0  0  0  0  0  0  0  0  0  0  0
    0.4551    2.5800   -0.1472 H   0  0  0  0  0  0  0  0  0  0  0  0
   -1.3985    0.1943    1.8296 H   0  0  0  0  0  0  0  0  0  0  0  0
   -1.2465    1.7798    1.0046 H   0  0  0  0  0  0  0  0  0  0  0  0
   -2.5728    0.6094    0.4799 H   0  0  0  0  0  0  0  0  0  0  0  0
   -0.8654   -2.0532   -0.3064 H   0  0  0  0  0  0  0  0  0  0  0  0
   -1.1767   -1.1736   -1.8151 H   0  0  0  0  0  0  0  0  0  0  0  0
   -2.3603   -1.1050   -0.4771 H   0  0  0  0  0  0  0  0  0  0  0  0
  1  2  1  0
  2  3  1  0
  3  4  2  0
  3  5  1  0
  5  6  1  0
  6  7  1  0
  7  8  1  0
  7  9  1  0
  7  2  1  0
  1 10  1  0
  1 11  1  0
  1 12  1  0
  2 13  1  0
  5 14  1  0
  5 15  1  0
  8 16  1  0
  8 17  1  0
  8 18  1  0
  9 19  1  0
  9 20  1  0
  9 21  1  0
M  END
