
     RDKit          3D

 21 23  0  0  0  0  0  0  0  0999 V2000
    2.5073   -0.5625   -0.7388 C   0  0  0  0  0  0  0  0  0  0  0  0
    1.4352    0.3891   -0.4704 C   0  0  0  0  0  0  0  0  0  0  0  0
    0.4685    0.1201    0.6484 C   0  0  0  0  0  0  0  0  0  0  0  0
   -0.1207   -0.9353   -0.2126 C   0  0  0  0  0  0  0  0  0  0  0  0
   -1.5346   -1.2605    0.0811 C   0  0  0  0  0  0  0  0  0  0  0  0
   -2.4174   -0.2774    0.2120 C   0  0  0  0  0  0  0  0  0  0  0  0
   -1.7906    1.0831    0.3325 C   0  0  0  0  0  0  0  0  0  0  0  0
   -0.3894    1.1184   -0.0982 C   0  0  0  0  0  0  0  0  0  0  0  0
    0.1068    0.2015   -1.1583 C   0  0  0  0  0  0  0  0  0  0  0  0
    3.4826   -0.0979   -0.4320 H   0  0  0  0  0  0  0  0  0  0  0  0
    2.6144   -0.6993   -1.8548 H   0  0  0  0  0  0  0  0  0  0  0  0
    2.4643   -1.5391   -0.2729 H   0  0  0  0  0  0  0  0  0  0  0  0
    1.7701    1.4433   -0.4956 H   0  0  0  0  0  0  0  0  0  0  0  0
    0.6583    0.1181    1.6311 H   0  0  0  0  0  0  0  0  0  0  0  0
    0.4520   -1.8549   -0.3797 H   0  0  0  0  0  0  0  0  0  0  0  0
   -1.9027   -2.2732    0.1982 H   0  0  0  0  0  0  0  0  0  0  0  0
   -3.4870   -0.4204    0.2322 H   0  0  0  0  0  0  0  0  0  0  0  0
   -2.4430    1.7770   -0.1869 H   0  0  0  0  0  0  0  0  0  0  0  0
   -1.8250    1.3082    1.4398 H   0  0  0  0  0  0  0  0  0  0  0  0
    0.0133    2.1338   -0.1674 H   0  0  0  0  0  0  0  0  0  0  0  0
   -0.0623    0.2279   -2.1449 H   0  0  0  0  0  0  0  0  0  0  0  0
  1  2  1  0
  2  3  1  0
  3  4  1  0
  4  5  1  0
  5  6  2  0
  6  7  1  0
  7  8  1  0
  8  9  1  0
  9  2  1  0
  8  3  1  0
  9  4  1  0
  1 10  1  0
  1 11  1  0
  1 12  1  0
  2 13  1  0
  3 14  1  0
  4 15  1  0
  5 16  1  0
  6 17  1  0
  7 18  1  0
  7 19  1  0
  8 20  1  0
  9 21  1  0
M  END
