
     RDKit          3D

 21 22  0  0  0  0  0  0  0  0999 V2000
   -2.4350   -0.2317    0.2652 C   0  0  0  0  0  0  0  0  0  0  0  0
   -1.1645    0.1930   -0.4051 C   0  0  0  0  0  0  0  0  0  0  0  0
   -0.5819    1.3954    0.2958 C   0  0  0  0  0  0  0  0  0  0  0  0
    0.6952    1.3744    0.6000 C   0  0  0  0  0  0  0  0  0  0  0  0
    1.4685    0.1590    0.2344 C   0  0  0  0  0  0  0  0  0  0  0  0
    2.8067    0.1719    0.5170 O   0  0  0  0  0  0  0  0  0  0  0  0
    0.7149   -1.0636    0.7184 C   0  0  0  0  0  0  0  0  0  0  0  0
   -0.1531   -0.9034   -0.5122 C   0  0  0  0  0  0  0  0  0  0  0  0
    1.0963   -0.3274   -1.1679 C   0  0  0  0  0  0  0  0  0  0  0  0
   -2.2859   -0.1408    1.3794 H   0  0  0  0  0  0  0  0  0  0  0  0
   -3.2449    0.4248   -0.0786 H   0  0  0  0  0  0  0  0  0  0  0  0
   -2.5894   -1.3000    0.0736 H   0  0  0  0  0  0  0  0  0  0  0  0
   -1.4175    0.5256   -1.4343 H   0  0  0  0  0  0  0  0  0  0  0  0
   -1.2298    2.2224    0.5202 H   0  0  0  0  0  0  0  0  0  0  0  0
    1.2171    2.1728    1.0931 H   0  0  0  0  0  0  0  0  0  0  0  0
    3.3232    0.7458   -0.0662 H   0  0  0  0  0  0  0  0  0  0  0  0
    1.3534   -1.9567    0.5954 H   0  0  0  0  0  0  0  0  0  0  0  0
    0.2152   -0.9860    1.6741 H   0  0  0  0  0  0  0  0  0  0  0  0
   -0.5505   -1.8121   -0.9518 H   0  0  0  0  0  0  0  0  0  0  0  0
    1.8421   -1.1137   -1.4501 H   0  0  0  0  0  0  0  0  0  0  0  0
    0.9198    0.4505   -1.9006 H   0  0  0  0  0  0  0  0  0  0  0  0
  1  2  1  0
  2  3  1  0
  3  4  2  0
  4  5  1  0
  5  6  1  0
  5  7  1  0
  7  8  1  0
  8  9  1  0
  8  2  1  0
  9  5  1  0
  1 10  1  0
  1 11  1  0
  1 12  1  0
  2 13  1  0
  3 14  1  0
  4 15  1  0
  6 16  1  0
  7 17  1  0
  7 18  1  0
  8 19  1  0
  9 20  1  0
  9 21  1  0
M  END
