
     RDKit          3D

 19 20  0  0  0  0  0  0  0  0999 V2000
   -2.4217    0.4944    0.6626 C   0  0  0  0  0  0  0  0  0  0  0  0
   -1.6439   -0.2713   -0.3819 C   0  0  0  0  0  0  0  0  0  0  0  0
   -0.6621    0.6758   -0.9774 C   0  0  0  0  0  0  0  0  0  0  0  0
    0.4849    0.4634   -0.4404 C   0  0  0  0  0  0  0  0  0  0  0  0
    1.9019    0.7994   -0.3368 C   0  0  0  0  0  0  0  0  0  0  0  0
    2.4752   -0.5991   -0.2393 C   0  0  0  0  0  0  0  0  0  0  0  0
    1.5580   -1.4123    0.2670 C   0  0  0  0  0  0  0  0  0  0  0  0
    0.3259   -0.6320    0.5415 C   0  0  0  0  0  0  0  0  0  0  0  0
   -0.8501   -1.2839    0.2189 O   0  0  0  0  0  0  0  0  0  0  0  0
   -2.7818   -0.2063    1.4402 H   0  0  0  0  0  0  0  0  0  0  0  0
   -1.7475    1.2726    1.0877 H   0  0  0  0  0  0  0  0  0  0  0  0
   -3.2877    0.9592    0.1243 H   0  0  0  0  0  0  0  0  0  0  0  0
   -2.2924   -0.7354   -1.1513 H   0  0  0  0  0  0  0  0  0  0  0  0
   -0.9209    1.4016   -1.7323 H   0  0  0  0  0  0  0  0  0  0  0  0
    2.3201    1.3391   -1.1995 H   0  0  0  0  0  0  0  0  0  0  0  0
    2.0879    1.2912    0.6234 H   0  0  0  0  0  0  0  0  0  0  0  0
    3.4670   -0.8612   -0.5390 H   0  0  0  0  0  0  0  0  0  0  0  0
    1.6609   -2.4718    0.4595 H   0  0  0  0  0  0  0  0  0  0  0  0
    0.3264   -0.2233    1.5726 H   0  0  0  0  0  0  0  0  0  0  0  0
  1  2  1  0
  2  3  1  0
  3  4  2  0
  4  5  1  0
  5  6  1  0
  6  7  2  0
  7  8  1  0
  8  9  1  0
  9  2  1  0
  8  4  1  0
  1 10  1  0
  1 11  1  0
  1 12  1  0
  2 13  1  0
  3 14  1  0
  5 15  1  0
  5 16  1  0
  6 17  1  0
  7 18  1  0
  8 19  1  0
M  END
