
     RDKit          3D

 17 18  0  0  0  0  0  0  0  0999 V2000
    1.9148    0.2823   -0.7108 C   0  0  0  0  0  0  0  0  0  0  0  0
    0.7155    0.2192    0.1871 C   0  0  0  0  0  0  0  0  0  0  0  0
   -0.4952    0.8905   -0.4696 C   0  0  0  0  0  0  0  0  0  0  0  0
   -1.6053    0.4070    0.4674 C   0  0  0  0  0  0  0  0  0  0  0  0
   -1.2875   -1.0459    0.7110 C   0  0  0  0  0  0  0  0  0  0  0  0
   -0.3435   -1.4132    1.6420 O   0  0  0  0  0  0  0  0  0  0  0  0
    0.1927   -1.1759    0.3949 C   0  0  0  0  0  0  0  0  0  0  0  0
    2.6527   -0.4940   -0.4768 H   0  0  0  0  0  0  0  0  0  0  0  0
    2.4032    1.2804   -0.5529 H   0  0  0  0  0  0  0  0  0  0  0  0
    1.6145    0.2868   -1.7898 H   0  0  0  0  0  0  0  0  0  0  0  0
    0.9386    0.7263    1.1602 H   0  0  0  0  0  0  0  0  0  0  0  0
   -0.5924    0.3991   -1.4649 H   0  0  0  0  0  0  0  0  0  0  0  0
   -0.4110    1.9720   -0.5042 H   0  0  0  0  0  0  0  0  0  0  0  0
   -2.5985    0.4584   -0.0258 H   0  0  0  0  0  0  0  0  0  0  0  0
   -1.5317    1.0225    1.3770 H   0  0  0  0  0  0  0  0  0  0  0  0
   -1.9839   -1.8339    0.3623 H   0  0  0  0  0  0  0  0  0  0  0  0
    0.4169   -1.9815   -0.3075 H   0  0  0  0  0  0  0  0  0  0  0  0
  1  2  1  0
  2  3  1  0
  3  4  1  0
  4  5  1  0
  5  6  1  0
  6  7  1  0
  7  2  1  0
  7  5  1  0
  1  8  1  0
  1  9  1  0
  1 10  1  0
  2 11  1  0
  3 12  1  0
  3 13  1  0
  4 14  1  0
  4 15  1  0
  5 16  1  0
  7 17  1  0
M  END
