
     RDKit          3D

 17 18  0  0  0  0  0  0  0  0999 V2000
    3.0629    0.2694   -0.1919 C   0  0  0  0  0  0  0  0  0  0  0  0
    1.5663    0.1885   -0.1094 C   0  0  0  0  0  0  0  0  0  0  0  0
    0.8726   -0.9615    0.1919 C   0  0  0  0  0  0  0  0  0  0  0  0
   -0.4778   -0.6684    0.1798 C   0  0  0  0  0  0  0  0  0  0  0  0
   -0.5539    0.6616   -0.1314 C   0  0  0  0  0  0  0  0  0  0  0  0
    0.6900    1.1249   -0.2936 O   0  0  0  0  0  0  0  0  0  0  0  0
   -1.9716    1.0464   -0.1623 C   0  0  0  0  0  0  0  0  0  0  0  0
   -2.7074   -0.1818    0.1593 C   0  0  0  0  0  0  0  0  0  0  0  0
   -1.8362   -1.1472    0.3506 C   0  0  0  0  0  0  0  0  0  0  0  0
    3.5220   -0.3100    0.6562 H   0  0  0  0  0  0  0  0  0  0  0  0
    3.4436   -0.1697   -1.1317 H   0  0  0  0  0  0  0  0  0  0  0  0
    3.4163    1.3034   -0.0958 H   0  0  0  0  0  0  0  0  0  0  0  0
    1.2605   -1.9539    0.4101 H   0  0  0  0  0  0  0  0  0  0  0  0
   -2.1963    1.3640   -1.2046 H   0  0  0  0  0  0  0  0  0  0  0  0
   -2.1980    1.8813    0.5414 H   0  0  0  0  0  0  0  0  0  0  0  0
   -3.8094   -0.2659    0.2259 H   0  0  0  0  0  0  0  0  0  0  0  0
   -2.0835   -2.1812    0.6055 H   0  0  0  0  0  0  0  0  0  0  0  0
  1  2  1  0
  2  3  2  0
  3  4  1  0
  4  5  2  0
  5  6  1  0
  5  7  1  0
  7  8  1  0
  8  9  2  0
  6  2  1  0
  9  4  1  0
  1 10  1  0
  1 11  1  0
  1 12  1  0
  3 13  1  0
  7 14  1  0
  7 15  1  0
  8 16  1  0
  9 17  1  0
M  END
