
     RDKit          3D

 23 24  0  0  0  0  0  0  0  0999 V2000
   -2.9453   -0.4164    0.3579 C   0  0  0  0  0  0  0  0  0  0  0  0
   -1.6390   -0.1033   -0.2860 C   0  0  0  0  0  0  0  0  0  0  0  0
   -0.6061   -1.2380   -0.2238 C   0  0  0  0  0  0  0  0  0  0  0  0
    0.4275   -0.1951    0.0305 C   0  0  0  0  0  0  0  0  0  0  0  0
    1.5352   -0.5251    0.9189 C   0  0  0  0  0  0  0  0  0  0  0  0
    2.6013    0.2082    0.6129 C   0  0  0  0  0  0  0  0  0  0  0  0
    2.2764    1.1174   -0.5453 C   0  0  0  0  0  0  0  0  0  0  0  0
    1.1268    0.3631   -1.1926 C   0  0  0  0  0  0  0  0  0  0  0  0
   -0.6595    0.6897    0.5901 C   0  0  0  0  0  0  0  0  0  0  0  0
   -2.9842   -1.5049    0.5605 H   0  0  0  0  0  0  0  0  0  0  0  0
   -3.8052   -0.1236   -0.3054 H   0  0  0  0  0  0  0  0  0  0  0  0
   -2.9943    0.1014    1.3405 H   0  0  0  0  0  0  0  0  0  0  0  0
   -1.6802    0.3551   -1.2867 H   0  0  0  0  0  0  0  0  0  0  0  0
   -0.5501   -1.7819   -1.1786 H   0  0  0  0  0  0  0  0  0  0  0  0
   -0.7890   -1.8664    0.6792 H   0  0  0  0  0  0  0  0  0  0  0  0
    1.5271   -1.2548    1.7213 H   0  0  0  0  0  0  0  0  0  0  0  0
    3.5610    0.1556    1.1248 H   0  0  0  0  0  0  0  0  0  0  0  0
    1.9222    2.0801   -0.1205 H   0  0  0  0  0  0  0  0  0  0  0  0
    3.1270    1.2168   -1.2289 H   0  0  0  0  0  0  0  0  0  0  0  0
    1.5383   -0.4904   -1.7455 H   0  0  0  0  0  0  0  0  0  0  0  0
    0.4445    1.0038   -1.7469 H   0  0  0  0  0  0  0  0  0  0  0  0
   -0.8870    0.4831    1.6423 H   0  0  0  0  0  0  0  0  0  0  0  0
   -0.5474    1.7256    0.2812 H   0  0  0  0  0  0  0  0  0  0  0  0
  1  2  1  0
  2  3  1  0
  3  4  1  0
  4  5  1  0
  5  6  2  0
  6  7  1  0
  7  8  1  0
  4  9  1  0
  9  2  1  0
  8  4  1  0
  1 10  1  0
  1 11  1  0
  1 12  1  0
  2 13  1  0
  3 14  1  0
  3 15  1  0
  5 16  1  0
  6 17  1  0
  7 18  1  0
  7 19  1  0
  8 20  1  0
  8 21  1  0
  9 22  1  0
  9 23  1  0
M  END
