
     RDKit          3D

 20 20  0  0  0  0  0  0  0  0999 V2000
    2.5464    0.2792    0.0338 C   0  0  0  0  0  0  0  0  0  0  0  0
    1.3331   -0.3331   -0.6137 C   0  0  0  0  0  0  0  0  0  0  0  0
    0.3598   -0.8338    0.4285 C   0  0  0  0  0  0  0  0  0  0  0  0
   -0.7475   -0.3644   -0.5324 C   0  0  0  0  0  0  0  0  0  0  0  0
   -1.9052    0.2842    0.1884 C   0  0  0  0  0  0  0  0  0  0  0  0
   -2.4992   -0.6886    1.1228 C   0  0  0  0  0  0  0  0  0  0  0  0
   -3.4818   -1.3138    0.8103 O   0  0  0  0  0  0  0  0  0  0  0  0
    0.2729    0.6296   -1.0688 C   0  0  0  0  0  0  0  0  0  0  0  0
    3.2506   -0.5534    0.2580 H   0  0  0  0  0  0  0  0  0  0  0  0
    3.0766    1.0065   -0.5984 H   0  0  0  0  0  0  0  0  0  0  0  0
    2.2173    0.7407    0.9900 H   0  0  0  0  0  0  0  0  0  0  0  0
    1.5321   -1.1328   -1.3442 H   0  0  0  0  0  0  0  0  0  0  0  0
    0.3709   -1.9351    0.5662 H   0  0  0  0  0  0  0  0  0  0  0  0
    0.3793   -0.2105    1.3384 H   0  0  0  0  0  0  0  0  0  0  0  0
   -0.9847   -1.1799   -1.2355 H   0  0  0  0  0  0  0  0  0  0  0  0
   -2.6215    0.6532   -0.5684 H   0  0  0  0  0  0  0  0  0  0  0  0
   -1.5026    1.1479    0.7473 H   0  0  0  0  0  0  0  0  0  0  0  0
   -2.0614   -0.8528    2.0935 H   0  0  0  0  0  0  0  0  0  0  0  0
    0.2153    0.8282   -2.1428 H   0  0  0  0  0  0  0  0  0  0  0  0
    0.2498    1.5665   -0.4730 H   0  0  0  0  0  0  0  0  0  0  0  0
  1  2  1  0
  2  3  1  0
  3  4  1  0
  4  5  1  0
  5  6  1  0
  6  7  2  0
  4  8  1  0
  8  2  1  0
  1  9  1  0
  1 10  1  0
  1 11  1  0
  2 12  1  0
  3 13  1  0
  3 14  1  0
  4 15  1  0
  5 16  1  0
  5 17  1  0
  6 18  1  0
  8 19  1  0
  8 20  1  0
M  END
