
     RDKit          3D

 21 22  0  0  0  0  0  0  0  0999 V2000
   -2.6008    0.5134    0.1148 C   0  0  0  0  0  0  0  0  0  0  0  0
   -1.3902   -0.2442    0.5431 C   0  0  0  0  0  0  0  0  0  0  0  0
   -1.0462   -1.4610   -0.2287 C   0  0  0  0  0  0  0  0  0  0  0  0
   -0.1481   -0.2502   -0.3362 C   0  0  0  0  0  0  0  0  0  0  0  0
   -0.2404    0.5491   -1.4773 O   0  0  0  0  0  0  0  0  0  0  0  0
    1.1365   -0.2361    0.4326 C   0  0  0  0  0  0  0  0  0  0  0  0
    2.4021   -0.2407   -0.3478 C   0  0  0  0  0  0  0  0  0  0  0  0
    2.8989    0.7432    0.5144 O   0  0  0  0  0  0  0  0  0  0  0  0
    1.5942    1.1769    0.6995 C   0  0  0  0  0  0  0  0  0  0  0  0
   -3.4998   -0.0890    0.3837 H   0  0  0  0  0  0  0  0  0  0  0  0
   -2.5796    0.7562   -0.9778 H   0  0  0  0  0  0  0  0  0  0  0  0
   -2.5935    1.5071    0.6293 H   0  0  0  0  0  0  0  0  0  0  0  0
   -1.2608   -0.3189    1.6470 H   0  0  0  0  0  0  0  0  0  0  0  0
   -0.6807   -2.3440    0.3263 H   0  0  0  0  0  0  0  0  0  0  0  0
   -1.6083   -1.7488   -1.1494 H   0  0  0  0  0  0  0  0  0  0  0  0
    0.4521    0.2454   -2.1139 H   0  0  0  0  0  0  0  0  0  0  0  0
    1.1352   -0.9052    1.2890 H   0  0  0  0  0  0  0  0  0  0  0  0
    2.3777    0.1540   -1.3693 H   0  0  0  0  0  0  0  0  0  0  0  0
    3.0127   -1.1751   -0.2171 H   0  0  0  0  0  0  0  0  0  0  0  0
    1.3780    1.5191    1.7418 H   0  0  0  0  0  0  0  0  0  0  0  0
    1.2609    1.8485   -0.1041 H   0  0  0  0  0  0  0  0  0  0  0  0
  1  2  1  0
  2  3  1  0
  3  4  1  0
  4  5  1  0
  4  6  1  0
  6  7  1  0
  7  8  1  0
  8  9  1  0
  4  2  1  0
  9  6  1  0
  1 10  1  0
  1 11  1  0
  1 12  1  0
  2 13  1  0
  3 14  1  0
  3 15  1  0
  5 16  1  0
  6 17  1  0
  7 18  1  0
  7 19  1  0
  9 20  1  0
  9 21  1  0
M  END
