
     RDKit          3D

 23 24  0  0  0  0  0  0  0  0999 V2000
    2.6947    0.1720    0.2129 C   0  0  0  0  0  0  0  0  0  0  0  0
    1.2678   -0.3640    0.2379 C   0  0  0  0  0  0  0  0  0  0  0  0
    0.7116   -0.1367   -1.1559 C   0  0  0  0  0  0  0  0  0  0  0  0
   -0.6987   -0.5546   -1.3147 C   0  0  0  0  0  0  0  0  0  0  0  0
   -1.5614   -0.4546   -0.1238 C   0  0  0  0  0  0  0  0  0  0  0  0
   -2.5919   -1.4235   -0.0606 O   0  0  0  0  0  0  0  0  0  0  0  0
   -1.9945    0.8763    0.4090 C   0  0  0  0  0  0  0  0  0  0  0  0
   -0.9903   -0.0419    1.1335 C   0  0  0  0  0  0  0  0  0  0  0  0
    0.3889    0.4860    1.1558 C   0  0  0  0  0  0  0  0  0  0  0  0
    3.3959   -0.4907    0.7607 H   0  0  0  0  0  0  0  0  0  0  0  0
    3.0917    0.1993   -0.8432 H   0  0  0  0  0  0  0  0  0  0  0  0
    2.7557    1.1904    0.6098 H   0  0  0  0  0  0  0  0  0  0  0  0
    1.2568   -1.4131    0.5442 H   0  0  0  0  0  0  0  0  0  0  0  0
    0.9139    0.9301   -1.3987 H   0  0  0  0  0  0  0  0  0  0  0  0
    1.3753   -0.7228   -1.8521 H   0  0  0  0  0  0  0  0  0  0  0  0
   -0.7032   -1.6142   -1.6929 H   0  0  0  0  0  0  0  0  0  0  0  0
   -1.1343    0.0359   -2.1738 H   0  0  0  0  0  0  0  0  0  0  0  0
   -3.4262   -0.9918   -0.3766 H   0  0  0  0  0  0  0  0  0  0  0  0
   -2.9855    0.9751    0.9269 H   0  0  0  0  0  0  0  0  0  0  0  0
   -1.6369    1.8140   -0.0132 H   0  0  0  0  0  0  0  0  0  0  0  0
   -1.3608   -0.5329    2.0784 H   0  0  0  0  0  0  0  0  0  0  0  0
    0.7637    0.5236    2.1798 H   0  0  0  0  0  0  0  0  0  0  0  0
    0.4678    1.5382    0.7564 H   0  0  0  0  0  0  0  0  0  0  0  0
  1  2  1  0
  2  3  1  0
  3  4  1  0
  4  5  1  0
  5  6  1  0
  5  7  1  0
  7  8  1  0
  8  9  1  0
  9  2  1  0
  8  5  1  0
  1 10  1  0
  1 11  1  0
  1 12  1  0
  2 13  1  0
  3 14  1  0
  3 15  1  0
  4 16  1  0
  4 17  1  0
  6 18  1  0
  7 19  1  0
  7 20  1  0
  8 21  1  0
  9 22  1  0
  9 23  1  0
M  END
