
     RDKit          3D

 19 20  0  0  0  0  0  0  0  0999 V2000
    1.7888   -0.7111    0.1350 C   0  0  0  0  0  0  0  0  0  0  0  0
    0.6543    0.0399    0.8457 C   0  0  0  0  0  0  0  0  0  0  0  0
    0.6295    1.4052    0.2026 C   0  0  0  0  0  0  0  0  0  0  0  0
    1.0494    2.4571    0.6620 O   0  0  0  0  0  0  0  0  0  0  0  0
   -0.0281    1.1590   -1.1220 C   0  0  0  0  0  0  0  0  0  0  0  0
   -0.9005   -0.0459   -0.9113 C   0  0  0  0  0  0  0  0  0  0  0  0
   -1.8775    0.1185    0.2298 C   0  0  0  0  0  0  0  0  0  0  0  0
   -0.6201   -0.6046    0.4352 C   0  0  0  0  0  0  0  0  0  0  0  0
   -0.6525   -1.9882    0.5757 O   0  0  0  0  0  0  0  0  0  0  0  0
    2.6833   -0.0716    0.1135 H   0  0  0  0  0  0  0  0  0  0  0  0
    1.9413   -1.7069    0.5662 H   0  0  0  0  0  0  0  0  0  0  0  0
    1.4461   -0.8392   -0.9190 H   0  0  0  0  0  0  0  0  0  0  0  0
    0.8264    0.1276    1.9153 H   0  0  0  0  0  0  0  0  0  0  0  0
   -0.7248    2.0337   -1.2647 H   0  0  0  0  0  0  0  0  0  0  0  0
    0.6931    1.0551   -1.9322 H   0  0  0  0  0  0  0  0  0  0  0  0
   -1.0784   -0.7654   -1.7078 H   0  0  0  0  0  0  0  0  0  0  0  0
   -2.0806    1.1307    0.6145 H   0  0  0  0  0  0  0  0  0  0  0  0
   -2.7878   -0.4957    0.1171 H   0  0  0  0  0  0  0  0  0  0  0  0
   -0.9617   -2.2981    1.4443 H   0  0  0  0  0  0  0  0  0  0  0  0
  1  2  1  0
  2  3  1  0
  3  4  2  0
  3  5  1  0
  5  6  1  0
  6  7  1  0
  7  8  1  0
  8  9  1  0
  8  2  1  0
  8  6  1  0
  1 10  1  0
  1 11  1  0
  1 12  1  0
  2 13  1  0
  5 14  1  0
  5 15  1  0
  6 16  1  0
  7 17  1  0
  7 18  1  0
  9 19  1  0
M  END
