
     RDKit          3D

 18 18  0  0  0  0  0  0  0  0999 V2000
   -2.4201   -0.1184   -0.2249 C   0  0  0  0  0  0  0  0  0  0  0  0
   -0.9757   -0.1331    0.1461 C   0  0  0  0  0  0  0  0  0  0  0  0
   -0.3206    1.1956   -0.0901 C   0  0  0  0  0  0  0  0  0  0  0  0
    0.9839    1.4156   -0.1461 C   0  0  0  0  0  0  0  0  0  0  0  0
    2.0867    0.4261    0.0072 C   0  0  0  0  0  0  0  0  0  0  0  0
    1.6295   -0.5911    0.8023 O   0  0  0  0  0  0  0  0  0  0  0  0
    0.8678   -1.5369    0.1794 C   0  0  0  0  0  0  0  0  0  0  0  0
   -0.2239   -1.0777   -0.5113 O   0  0  0  0  0  0  0  0  0  0  0  0
   -2.5848   -0.1161   -1.3269 H   0  0  0  0  0  0  0  0  0  0  0  0
   -2.9092   -0.9970    0.2664 H   0  0  0  0  0  0  0  0  0  0  0  0
   -2.8797    0.7819    0.2485 H   0  0  0  0  0  0  0  0  0  0  0  0
   -0.9220   -0.3877    1.2441 H   0  0  0  0  0  0  0  0  0  0  0  0
   -0.9370    2.0598   -0.2289 H   0  0  0  0  0  0  0  0  0  0  0  0
    1.2603    2.4603   -0.3284 H   0  0  0  0  0  0  0  0  0  0  0  0
    2.9693    0.9114    0.4662 H   0  0  0  0  0  0  0  0  0  0  0  0
    2.3899    0.0911   -0.9993 H   0  0  0  0  0  0  0  0  0  0  0  0
    0.4858   -2.2324    0.9731 H   0  0  0  0  0  0  0  0  0  0  0  0
    1.4999   -2.1512   -0.4772 H   0  0  0  0  0  0  0  0  0  0  0  0
  1  2  1  0
  2  3  1  0
  3  4  2  0
  4  5  1  0
  5  6  1  0
  6  7  1  0
  7  8  1  0
  8  2  1  0
  1  9  1  0
  1 10  1  0
  1 11  1  0
  2 12  1  0
  3 13  1  0
  4 14  1  0
  5 15  1  0
  5 16  1  0
  7 17  1  0
  7 18  1  0
M  END
