
     RDKit          3D

 25 26  0  0  0  0  0  0  0  0999 V2000
    2.6310   -0.1482   -0.4152 C   0  0  0  0  0  0  0  0  0  0  0  0
    1.7061    0.1956    0.6931 C   0  0  0  0  0  0  0  0  0  0  0  0
    0.8990    1.4395    0.3506 C   0  0  0  0  0  0  0  0  0  0  0  0
   -0.3453    0.6484    0.7298 C   0  0  0  0  0  0  0  0  0  0  0  0
   -1.2311    0.3507   -0.4392 C   0  0  0  0  0  0  0  0  0  0  0  0
   -2.6538    0.8539   -0.2185 C   0  0  0  0  0  0  0  0  0  0  0  0
   -1.3045   -1.1433   -0.5555 C   0  0  0  0  0  0  0  0  0  0  0  0
    0.0243   -1.6291    0.0399 C   0  0  0  0  0  0  0  0  0  0  0  0
    0.5139   -0.5972    0.9545 C   0  0  0  0  0  0  0  0  0  0  0  0
    2.2082   -0.6889   -1.2534 H   0  0  0  0  0  0  0  0  0  0  0  0
    3.5525   -0.6551   -0.0085 H   0  0  0  0  0  0  0  0  0  0  0  0
    3.0270    0.8246   -0.8348 H   0  0  0  0  0  0  0  0  0  0  0  0
    2.3126    0.4255    1.6203 H   0  0  0  0  0  0  0  0  0  0  0  0
    0.9543    1.7155   -0.7188 H   0  0  0  0  0  0  0  0  0  0  0  0
    1.0842    2.3153    0.9728 H   0  0  0  0  0  0  0  0  0  0  0  0
   -0.8401    1.0382    1.6250 H   0  0  0  0  0  0  0  0  0  0  0  0
   -0.8313    0.7700   -1.3819 H   0  0  0  0  0  0  0  0  0  0  0  0
   -3.2963    0.2658   -0.9201 H   0  0  0  0  0  0  0  0  0  0  0  0
   -2.7429    1.9283   -0.3859 H   0  0  0  0  0  0  0  0  0  0  0  0
   -2.9354    0.5303    0.8041 H   0  0  0  0  0  0  0  0  0  0  0  0
   -2.1689   -1.5436    0.0088 H   0  0  0  0  0  0  0  0  0  0  0  0
   -1.4145   -1.4843   -1.6038 H   0  0  0  0  0  0  0  0  0  0  0  0
   -0.2513   -2.5659    0.6098 H   0  0  0  0  0  0  0  0  0  0  0  0
    0.6814   -1.9507   -0.7655 H   0  0  0  0  0  0  0  0  0  0  0  0
    0.4208   -0.8951    2.0405 H   0  0  0  0  0  0  0  0  0  0  0  0
  1  2  1  0
  2  3  1  0
  3  4  1  0
  4  5  1  0
  5  6  1  0
  5  7  1  0
  7  8  1  0
  8  9  1  0
  9  2  1  0
  9  4  1  0
  1 10  1  0
  1 11  1  0
  1 12  1  0
  2 13  1  0
  3 14  1  0
  3 15  1  0
  4 16  1  0
  5 17  1  0
  6 18  1  0
  6 19  1  0
  6 20  1  0
  7 21  1  0
  7 22  1  0
  8 23  1  0
  8 24  1  0
  9 25  1  0
M  END
