
     RDKit          3D

 21 22  0  0  0  0  0  0  0  0999 V2000
    1.6204   -1.1595   -0.1608 C   0  0  0  0  0  0  0  0  0  0  0  0
    1.0567    0.0875    0.3070 C   0  0  0  0  0  0  0  0  0  0  0  0
    0.1604    0.8366   -0.6402 C   0  0  0  0  0  0  0  0  0  0  0  0
   -1.1140    0.0753   -0.9322 C   0  0  0  0  0  0  0  0  0  0  0  0
   -1.4651   -0.9466    0.0773 C   0  0  0  0  0  0  0  0  0  0  0  0
   -0.9441   -0.8039    1.3172 O   0  0  0  0  0  0  0  0  0  0  0  0
    0.1160    0.0300    1.4786 C   0  0  0  0  0  0  0  0  0  0  0  0
   -0.2995    1.5047    1.4527 C   0  0  0  0  0  0  0  0  0  0  0  0
   -0.2214    1.9306    0.1538 O   0  0  0  0  0  0  0  0  0  0  0  0
    1.0680   -1.7438   -0.9043 H   0  0  0  0  0  0  0  0  0  0  0  0
    1.8787   -1.7998    0.7332 H   0  0  0  0  0  0  0  0  0  0  0  0
    2.6270   -0.9498   -0.6296 H   0  0  0  0  0  0  0  0  0  0  0  0
    1.8799    0.7882    0.5933 H   0  0  0  0  0  0  0  0  0  0  0  0
    0.6544    1.1351   -1.5673 H   0  0  0  0  0  0  0  0  0  0  0  0
   -1.0479   -0.3751   -1.9649 H   0  0  0  0  0  0  0  0  0  0  0  0
   -1.9491    0.8207   -1.0182 H   0  0  0  0  0  0  0  0  0  0  0  0
   -2.5927   -0.9709    0.1875 H   0  0  0  0  0  0  0  0  0  0  0  0
   -1.2626   -1.9625   -0.3787 H   0  0  0  0  0  0  0  0  0  0  0  0
    0.6149   -0.1859    2.4264 H   0  0  0  0  0  0  0  0  0  0  0  0
    0.5066    2.0363    2.0253 H   0  0  0  0  0  0  0  0  0  0  0  0
   -1.2865    1.6527    1.9247 H   0  0  0  0  0  0  0  0  0  0  0  0
  1  2  1  0
  2  3  1  0
  3  4  1  0
  4  5  1  0
  5  6  1  0
  6  7  1  0
  7  8  1  0
  8  9  1  0
  7  2  1  0
  9  3  1  0
  1 10  1  0
  1 11  1  0
  1 12  1  0
  2 13  1  0
  3 14  1  0
  4 15  1  0
  4 16  1  0
  5 17  1  0
  5 18  1  0
  7 19  1  0
  8 20  1  0
  8 21  1  0
M  END
