
     RDKit          3D

 18 18  0  0  0  0  0  0  0  0999 V2000
   -1.5752    1.1356   -0.0455 C   0  0  0  0  0  0  0  0  0  0  0  0
   -0.7707    0.0814   -0.7410 C   0  0  0  0  0  0  0  0  0  0  0  0
   -0.6753   -1.1669    0.1378 C   0  0  0  0  0  0  0  0  0  0  0  0
    0.8411   -1.1640    0.0052 C   0  0  0  0  0  0  0  0  0  0  0  0
    1.5104   -1.1181    1.2156 O   0  0  0  0  0  0  0  0  0  0  0  0
    0.7147    0.1991   -0.6632 C   0  0  0  0  0  0  0  0  0  0  0  0
    1.2391    1.2677    0.2301 C   0  0  0  0  0  0  0  0  0  0  0  0
    1.0217    1.2118    1.4314 O   0  0  0  0  0  0  0  0  0  0  0  0
   -1.3274    2.1617   -0.3520 H   0  0  0  0  0  0  0  0  0  0  0  0
   -1.5199    1.0693    1.0614 H   0  0  0  0  0  0  0  0  0  0  0  0
   -2.6494    0.9575   -0.3216 H   0  0  0  0  0  0  0  0  0  0  0  0
   -1.1403   -0.1071   -1.7608 H   0  0  0  0  0  0  0  0  0  0  0  0
   -0.9806   -0.9821    1.1947 H   0  0  0  0  0  0  0  0  0  0  0  0
   -1.1085   -2.0461   -0.3488 H   0  0  0  0  0  0  0  0  0  0  0  0
    1.2386   -1.9571   -0.6497 H   0  0  0  0  0  0  0  0  0  0  0  0
    2.1305   -1.8438    1.3757 H   0  0  0  0  0  0  0  0  0  0  0  0
    1.2358    0.1898   -1.6371 H   0  0  0  0  0  0  0  0  0  0  0  0
    1.8155    2.1113   -0.1320 H   0  0  0  0  0  0  0  0  0  0  0  0
  1  2  1  0
  2  3  1  0
  3  4  1  0
  4  5  1  0
  4  6  1  0
  6  7  1  0
  7  8  2  0
  6  2  1  0
  1  9  1  0
  1 10  1  0
  1 11  1  0
  2 12  1  0
  3 13  1  0
  3 14  1  0
  4 15  1  0
  5 16  1  0
  6 17  1  0
  7 18  1  0
M  END
