
     RDKit          3D

 21 21  0  0  0  0  0  0  0  0999 V2000
   -1.2708   -0.6481    0.9000 C   0  0  0  0  0  0  0  0  0  0  0  0
   -1.3258    0.4920   -0.0989 C   0  0  0  0  0  0  0  0  0  0  0  0
   -1.5994   -0.0798   -1.4745 C   0  0  0  0  0  0  0  0  0  0  0  0
   -0.0977   -0.2199   -1.6099 C   0  0  0  0  0  0  0  0  0  0  0  0
    0.0145    0.9316   -0.6346 C   0  0  0  0  0  0  0  0  0  0  0  0
    1.1670    0.8479    0.3222 C   0  0  0  0  0  0  0  0  0  0  0  0
    1.3972   -0.4596    0.7848 O   0  0  0  0  0  0  0  0  0  0  0  0
    2.4100   -0.7768    1.6768 C   0  0  0  0  0  0  0  0  0  0  0  0
    3.1387    0.1730    2.0707 O   0  0  0  0  0  0  0  0  0  0  0  0
   -0.8547   -1.5694    0.4556 H   0  0  0  0  0  0  0  0  0  0  0  0
   -0.6893   -0.3606    1.8227 H   0  0  0  0  0  0  0  0  0  0  0  0
   -2.2870   -0.9163    1.2561 H   0  0  0  0  0  0  0  0  0  0  0  0
   -1.9907    1.3253    0.1964 H   0  0  0  0  0  0  0  0  0  0  0  0
   -2.1581   -1.0352   -1.4761 H   0  0  0  0  0  0  0  0  0  0  0  0
   -2.0103    0.7028   -2.1345 H   0  0  0  0  0  0  0  0  0  0  0  0
    0.2679    0.0124   -2.6345 H   0  0  0  0  0  0  0  0  0  0  0  0
    0.2388   -1.1956   -1.2150 H   0  0  0  0  0  0  0  0  0  0  0  0
   -0.0854    1.8773   -1.1825 H   0  0  0  0  0  0  0  0  0  0  0  0
    1.0675    1.5085    1.1922 H   0  0  0  0  0  0  0  0  0  0  0  0
    2.0769    1.1638   -0.2288 H   0  0  0  0  0  0  0  0  0  0  0  0
    2.5907   -1.7734    2.0337 H   0  0  0  0  0  0  0  0  0  0  0  0
  1  2  1  0
  2  3  1  0
  3  4  1  0
  4  5  1  0
  5  6  1  0
  6  7  1  0
  7  8  1  0
  8  9  2  0
  5  2  1  0
  1 10  1  0
  1 11  1  0
  1 12  1  0
  2 13  1  0
  3 14  1  0
  3 15  1  0
  4 16  1  0
  4 17  1  0
  5 18  1  0
  6 19  1  0
  6 20  1  0
  8 21  1  0
M  END
