
     RDKit          3D

 23 25  0  0  0  0  0  0  0  0999 V2000
    2.6935    0.1193    0.6327 C   0  0  0  0  0  0  0  0  0  0  0  0
    1.6862   -0.6914   -0.1340 C   0  0  0  0  0  0  0  0  0  0  0  0
    1.1727    0.0335   -1.3610 C   0  0  0  0  0  0  0  0  0  0  0  0
    0.3320   -0.3068   -0.1172 C   0  0  0  0  0  0  0  0  0  0  0  0
   -0.8696   -1.1698   -0.4789 C   0  0  0  0  0  0  0  0  0  0  0  0
   -1.8738   -0.0811   -0.5424 C   0  0  0  0  0  0  0  0  0  0  0  0
   -2.8511    0.4199    0.3217 C   0  0  0  0  0  0  0  0  0  0  0  0
   -1.6054    0.3586    0.9557 C   0  0  0  0  0  0  0  0  0  0  0  0
   -0.2470    0.8878    0.6599 C   0  0  0  0  0  0  0  0  0  0  0  0
    2.2771    1.0491    1.0659 H   0  0  0  0  0  0  0  0  0  0  0  0
    3.1993   -0.4798    1.4279 H   0  0  0  0  0  0  0  0  0  0  0  0
    3.4536    0.4702   -0.1261 H   0  0  0  0  0  0  0  0  0  0  0  0
    1.9658   -1.7577   -0.2352 H   0  0  0  0  0  0  0  0  0  0  0  0
    1.0828   -0.5893   -2.2453 H   0  0  0  0  0  0  0  0  0  0  0  0
    1.3699    1.1073   -1.4892 H   0  0  0  0  0  0  0  0  0  0  0  0
   -1.1388   -1.8535    0.3527 H   0  0  0  0  0  0  0  0  0  0  0  0
   -0.7518   -1.6693   -1.4463 H   0  0  0  0  0  0  0  0  0  0  0  0
   -1.5137    0.6585   -1.3290 H   0  0  0  0  0  0  0  0  0  0  0  0
   -3.6819   -0.2701    0.6497 H   0  0  0  0  0  0  0  0  0  0  0  0
   -3.3083    1.4336    0.1368 H   0  0  0  0  0  0  0  0  0  0  0  0
   -1.4840   -0.4918    1.6975 H   0  0  0  0  0  0  0  0  0  0  0  0
    0.3078    1.0587    1.5985 H   0  0  0  0  0  0  0  0  0  0  0  0
   -0.2153    1.7642    0.0057 H   0  0  0  0  0  0  0  0  0  0  0  0
  1  2  1  0
  2  3  1  0
  3  4  1  0
  4  5  1  0
  5  6  1  0
  6  7  1  0
  7  8  1  0
  8  9  1  0
  4  2  1  0
  8  6  1  0
  9  4  1  0
  1 10  1  0
  1 11  1  0
  1 12  1  0
  2 13  1  0
  3 14  1  0
  3 15  1  0
  5 16  1  0
  5 17  1  0
  6 18  1  0
  7 19  1  0
  7 20  1  0
  8 21  1  0
  9 22  1  0
  9 23  1  0
M  END
