
     RDKit          3D

 23 24  0  0  0  0  0  0  0  0999 V2000
    2.8801    0.5359    0.3595 C   0  0  0  0  0  0  0  0  0  0  0  0
    1.4119    0.4411    0.0594 C   0  0  0  0  0  0  0  0  0  0  0  0
    1.0669   -0.9122   -0.5686 C   0  0  0  0  0  0  0  0  0  0  0  0
   -0.4035   -1.0553   -0.7388 C   0  0  0  0  0  0  0  0  0  0  0  0
   -1.2279   -0.0610   -0.0008 C   0  0  0  0  0  0  0  0  0  0  0  0
   -2.3870    0.6365   -0.6932 C   0  0  0  0  0  0  0  0  0  0  0  0
   -1.5334   -0.4407    1.4451 C   0  0  0  0  0  0  0  0  0  0  0  0
   -0.5955    0.6520    1.0940 C   0  0  0  0  0  0  0  0  0  0  0  0
    0.7428    0.4416    1.2981 O   0  0  0  0  0  0  0  0  0  0  0  0
    3.3318   -0.4573    0.5469 H   0  0  0  0  0  0  0  0  0  0  0  0
    3.4460    1.1295   -0.3910 H   0  0  0  0  0  0  0  0  0  0  0  0
    3.0141    1.1024    1.3274 H   0  0  0  0  0  0  0  0  0  0  0  0
    1.0951    1.2503   -0.5974 H   0  0  0  0  0  0  0  0  0  0  0  0
    1.6212   -1.0260   -1.5067 H   0  0  0  0  0  0  0  0  0  0  0  0
    1.4736   -1.6710    0.1582 H   0  0  0  0  0  0  0  0  0  0  0  0
   -0.6863   -2.0764   -0.3464 H   0  0  0  0  0  0  0  0  0  0  0  0
   -0.6688   -1.1043   -1.8297 H   0  0  0  0  0  0  0  0  0  0  0  0
   -2.3840    1.7247   -0.4071 H   0  0  0  0  0  0  0  0  0  0  0  0
   -3.3328    0.2122   -0.3182 H   0  0  0  0  0  0  0  0  0  0  0  0
   -2.3078    0.6160   -1.7872 H   0  0  0  0  0  0  0  0  0  0  0  0
   -1.1002   -1.3983    1.8354 H   0  0  0  0  0  0  0  0  0  0  0  0
   -2.5402   -0.2493    1.8464 H   0  0  0  0  0  0  0  0  0  0  0  0
   -0.9162    1.7096    1.3215 H   0  0  0  0  0  0  0  0  0  0  0  0
  1  2  1  0
  2  3  1  0
  3  4  1  0
  4  5  1  0
  5  6  1  0
  5  7  1  0
  7  8  1  0
  8  9  1  0
  9  2  1  0
  8  5  1  0
  1 10  1  0
  1 11  1  0
  1 12  1  0
  2 13  1  0
  3 14  1  0
  3 15  1  0
  4 16  1  0
  4 17  1  0
  6 18  1  0
  6 19  1  0
  6 20  1  0
  7 21  1  0
  7 22  1  0
  8 23  1  0
M  END
