
     RDKit          3D

 21 22  0  0  0  0  0  0  0  0999 V2000
   -2.1653   -1.0120    0.3867 C   0  0  0  0  0  0  0  0  0  0  0  0
   -1.3119   -0.1243   -0.4452 C   0  0  0  0  0  0  0  0  0  0  0  0
    0.0509    0.1465    0.1340 C   0  0  0  0  0  0  0  0  0  0  0  0
    1.1341   -0.5623   -0.6187 C   0  0  0  0  0  0  0  0  0  0  0  0
    2.4992   -0.3073   -0.0599 C   0  0  0  0  0  0  0  0  0  0  0  0
    2.6265   -0.7170    1.2602 O   0  0  0  0  0  0  0  0  0  0  0  0
   -0.1374    1.5911   -0.1185 C   0  0  0  0  0  0  0  0  0  0  0  0
   -0.7819    2.0985   -1.2101 O   0  0  0  0  0  0  0  0  0  0  0  0
   -1.5807    1.3497   -0.3804 C   0  0  0  0  0  0  0  0  0  0  0  0
   -3.1219   -1.1987   -0.1597 H   0  0  0  0  0  0  0  0  0  0  0  0
   -1.6385   -1.9843    0.5468 H   0  0  0  0  0  0  0  0  0  0  0  0
   -2.3269   -0.5875    1.3929 H   0  0  0  0  0  0  0  0  0  0  0  0
   -1.2979   -0.4485   -1.5205 H   0  0  0  0  0  0  0  0  0  0  0  0
    0.0724   -0.0888    1.2297 H   0  0  0  0  0  0  0  0  0  0  0  0
    1.1342   -0.2189   -1.6732 H   0  0  0  0  0  0  0  0  0  0  0  0
    0.9322   -1.6521   -0.6042 H   0  0  0  0  0  0  0  0  0  0  0  0
    3.2182   -0.9407   -0.6486 H   0  0  0  0  0  0  0  0  0  0  0  0
    2.7920    0.7361   -0.2335 H   0  0  0  0  0  0  0  0  0  0  0  0
    2.0636   -0.1903    1.8812 H   0  0  0  0  0  0  0  0  0  0  0  0
    0.2096    2.3379    0.6157 H   0  0  0  0  0  0  0  0  0  0  0  0
   -2.3703    1.7731    0.2255 H   0  0  0  0  0  0  0  0  0  0  0  0
  1  2  1  0
  2  3  1  0
  3  4  1  0
  4  5  1  0
  5  6  1  0
  3  7  1  0
  7  8  1  0
  8  9  1  0
  9  2  1  0
  9  7  1  0
  1 10  1  0
  1 11  1  0
  1 12  1  0
  2 13  1  0
  3 14  1  0
  4 15  1  0
  4 16  1  0
  5 17  1  0
  5 18  1  0
  6 19  1  0
  7 20  1  0
  9 21  1  0
M  END
