
     RDKit          3D

 17 18  0  0  0  0  0  0  0  0999 V2000
    1.9838   -0.0174    0.4917 C   0  0  0  0  0  0  0  0  0  0  0  0
    0.7726   -0.2205   -0.3704 C   0  0  0  0  0  0  0  0  0  0  0  0
    0.1582   -1.5490   -0.3576 C   0  0  0  0  0  0  0  0  0  0  0  0
    0.5044   -2.6942   -0.3461 O   0  0  0  0  0  0  0  0  0  0  0  0
   -1.1521   -0.8704   -0.3652 C   0  0  0  0  0  0  0  0  0  0  0  0
   -1.5154   -0.2111    0.9023 C   0  0  0  0  0  0  0  0  0  0  0  0
   -0.4840    0.4482    0.1105 C   0  0  0  0  0  0  0  0  0  0  0  0
   -0.8219    1.6918   -0.5847 C   0  0  0  0  0  0  0  0  0  0  0  0
   -0.9831    2.7032    0.0927 O   0  0  0  0  0  0  0  0  0  0  0  0
    1.9609   -0.5710    1.4351 H   0  0  0  0  0  0  0  0  0  0  0  0
    2.0576    1.0776    0.7114 H   0  0  0  0  0  0  0  0  0  0  0  0
    2.8923   -0.2672   -0.1115 H   0  0  0  0  0  0  0  0  0  0  0  0
    1.0244    0.0687   -1.4260 H   0  0  0  0  0  0  0  0  0  0  0  0
   -1.7091   -0.7242   -1.2988 H   0  0  0  0  0  0  0  0  0  0  0  0
   -1.2656   -0.8138    1.8248 H   0  0  0  0  0  0  0  0  0  0  0  0
   -2.5000    0.2468    0.9575 H   0  0  0  0  0  0  0  0  0  0  0  0
   -0.9230    1.7025   -1.6654 H   0  0  0  0  0  0  0  0  0  0  0  0
  1  2  1  0
  2  3  1  0
  3  4  2  0
  3  5  1  0
  5  6  1  0
  6  7  1  0
  7  8  1  0
  8  9  2  0
  7  2  1  0
  7  5  1  0
  1 10  1  0
  1 11  1  0
  1 12  1  0
  2 13  1  0
  5 14  1  0
  6 15  1  0
  6 16  1  0
  8 17  1  0
M  END
