
     RDKit          3D

 25 26  0  0  0  0  0  0  0  0999 V2000
    2.3671   -1.2413    0.6932 C   0  0  0  0  0  0  0  0  0  0  0  0
    1.1405   -0.8179   -0.0876 C   0  0  0  0  0  0  0  0  0  0  0  0
    0.0157   -0.3352    0.7661 C   0  0  0  0  0  0  0  0  0  0  0  0
   -1.2855   -0.0434    0.0803 C   0  0  0  0  0  0  0  0  0  0  0  0
   -2.3439    0.5637    0.9613 C   0  0  0  0  0  0  0  0  0  0  0  0
   -1.8104   -1.2546   -0.6237 C   0  0  0  0  0  0  0  0  0  0  0  0
   -0.5401    0.9494   -0.8002 C   0  0  0  0  0  0  0  0  0  0  0  0
    0.7690    0.6043   -0.2094 C   0  0  0  0  0  0  0  0  0  0  0  0
    1.7038    1.6083    0.3483 C   0  0  0  0  0  0  0  0  0  0  0  0
    2.9910   -1.9789    0.1241 H   0  0  0  0  0  0  0  0  0  0  0  0
    1.9728   -1.8383    1.5674 H   0  0  0  0  0  0  0  0  0  0  0  0
    2.9712   -0.3883    1.0444 H   0  0  0  0  0  0  0  0  0  0  0  0
    0.9471   -1.4472   -0.9689 H   0  0  0  0  0  0  0  0  0  0  0  0
    0.1963   -0.0739    1.8059 H   0  0  0  0  0  0  0  0  0  0  0  0
   -3.3623    0.1704    0.7580 H   0  0  0  0  0  0  0  0  0  0  0  0
   -2.0886    0.4435    2.0541 H   0  0  0  0  0  0  0  0  0  0  0  0
   -2.3089    1.6678    0.7924 H   0  0  0  0  0  0  0  0  0  0  0  0
   -2.1176   -1.9865    0.1486 H   0  0  0  0  0  0  0  0  0  0  0  0
   -1.0484   -1.7680   -1.2473 H   0  0  0  0  0  0  0  0  0  0  0  0
   -2.6678   -1.0503   -1.2956 H   0  0  0  0  0  0  0  0  0  0  0  0
   -0.6669    0.7008   -1.8741 H   0  0  0  0  0  0  0  0  0  0  0  0
   -0.8166    2.0077   -0.6411 H   0  0  0  0  0  0  0  0  0  0  0  0
    1.7489    1.5052    1.4494 H   0  0  0  0  0  0  0  0  0  0  0  0
    1.4924    2.6599    0.0405 H   0  0  0  0  0  0  0  0  0  0  0  0
    2.7412    1.3428   -0.0104 H   0  0  0  0  0  0  0  0  0  0  0  0
  1  2  1  0
  2  3  1  0
  3  4  1  0
  4  5  1  0
  4  6  1  0
  4  7  1  0
  7  8  1  0
  8  9  1  0
  8  2  1  0
  8  3  1  0
  1 10  1  0
  1 11  1  0
  1 12  1  0
  2 13  1  0
  3 14  1  0
  5 15  1  0
  5 16  1  0
  5 17  1  0
  6 18  1  0
  6 19  1  0
  6 20  1  0
  7 21  1  0
  7 22  1  0
  9 23  1  0
  9 24  1  0
  9 25  1  0
M  END
