
     RDKit          3D

 18 18  0  0  0  0  0  0  0  0999 V2000
   -2.1858   -0.4519    0.0249 C   0  0  0  0  0  0  0  0  0  0  0  0
   -0.8780    0.0356   -0.5448 C   0  0  0  0  0  0  0  0  0  0  0  0
   -0.2598    1.1758    0.2418 C   0  0  0  0  0  0  0  0  0  0  0  0
    0.2918    2.1687   -0.5691 O   0  0  0  0  0  0  0  0  0  0  0  0
    0.3661   -0.1882    0.2053 C   0  0  0  0  0  0  0  0  0  0  0  0
    0.2654   -1.0253    1.3161 O   0  0  0  0  0  0  0  0  0  0  0  0
    1.7094   -0.2418   -0.4743 C   0  0  0  0  0  0  0  0  0  0  0  0
    2.0384   -1.4904   -0.9388 O   0  0  0  0  0  0  0  0  0  0  0  0
   -2.8295    0.4582    0.1518 H   0  0  0  0  0  0  0  0  0  0  0  0
   -2.0666   -0.8718    1.0583 H   0  0  0  0  0  0  0  0  0  0  0  0
   -2.7155   -1.1561   -0.6326 H   0  0  0  0  0  0  0  0  0  0  0  0
   -0.8339    0.0594   -1.6520 H   0  0  0  0  0  0  0  0  0  0  0  0
   -0.7627    1.5166    1.1782 H   0  0  0  0  0  0  0  0  0  0  0  0
    0.4378    3.0194   -0.1016 H   0  0  0  0  0  0  0  0  0  0  0  0
    0.1597   -1.9510    0.9473 H   0  0  0  0  0  0  0  0  0  0  0  0
    1.7949    0.5532   -1.2679 H   0  0  0  0  0  0  0  0  0  0  0  0
    2.4660    0.0487    0.2928 H   0  0  0  0  0  0  0  0  0  0  0  0
    3.0022   -1.6592   -0.8019 H   0  0  0  0  0  0  0  0  0  0  0  0
  1  2  1  0
  2  3  1  0
  3  4  1  0
  3  5  1  0
  5  6  1  0
  5  7  1  0
  7  8  1  0
  5  2  1  0
  1  9  1  0
  1 10  1  0
  1 11  1  0
  2 12  1  0
  3 13  1  0
  4 14  1  0
  6 15  1  0
  7 16  1  0
  7 17  1  0
  8 18  1  0
M  END
