
     RDKit          3D

 23 24  0  0  0  0  0  0  0  0999 V2000
    2.5454    0.4231   -0.2579 C   0  0  0  0  0  0  0  0  0  0  0  0
    1.3891   -0.4044    0.1797 C   0  0  0  0  0  0  0  0  0  0  0  0
    0.3450   -0.5375   -0.9396 C   0  0  0  0  0  0  0  0  0  0  0  0
   -0.6934   -0.4661    0.1357 C   0  0  0  0  0  0  0  0  0  0  0  0
   -1.0414   -1.7763    0.7457 C   0  0  0  0  0  0  0  0  0  0  0  0
   -1.8320    0.4682   -0.0730 C   0  0  0  0  0  0  0  0  0  0  0  0
   -1.2362    1.8157    0.2209 C   0  0  0  0  0  0  0  0  0  0  0  0
    0.1207    1.6268    0.4548 O   0  0  0  0  0  0  0  0  0  0  0  0
    0.2974    0.3573    0.9449 C   0  0  0  0  0  0  0  0  0  0  0  0
    2.2478    1.4755   -0.3886 H   0  0  0  0  0  0  0  0  0  0  0  0
    2.9206   -0.0166   -1.2264 H   0  0  0  0  0  0  0  0  0  0  0  0
    3.3813    0.3532    0.4662 H   0  0  0  0  0  0  0  0  0  0  0  0
    1.6467   -1.3774    0.6358 H   0  0  0  0  0  0  0  0  0  0  0  0
    0.4957   -1.5178   -1.4236 H   0  0  0  0  0  0  0  0  0  0  0  0
    0.3884    0.3191   -1.6440 H   0  0  0  0  0  0  0  0  0  0  0  0
   -0.8475   -2.6123    0.0595 H   0  0  0  0  0  0  0  0  0  0  0  0
   -0.4108   -1.9129    1.6532 H   0  0  0  0  0  0  0  0  0  0  0  0
   -2.0890   -1.8409    1.0849 H   0  0  0  0  0  0  0  0  0  0  0  0
   -2.3054    0.3990   -1.0686 H   0  0  0  0  0  0  0  0  0  0  0  0
   -2.6005    0.2423    0.7125 H   0  0  0  0  0  0  0  0  0  0  0  0
   -1.6492    2.2794    1.1518 H   0  0  0  0  0  0  0  0  0  0  0  0
   -1.3613    2.4999   -0.6562 H   0  0  0  0  0  0  0  0  0  0  0  0
    0.2887    0.2027    2.0179 H   0  0  0  0  0  0  0  0  0  0  0  0
  1  2  1  0
  2  3  1  0
  3  4  1  0
  4  5  1  0
  4  6  1  0
  6  7  1  0
  7  8  1  0
  8  9  1  0
  9  2  1  0
  9  4  1  0
  1 10  1  0
  1 11  1  0
  1 12  1  0
  2 13  1  0
  3 14  1  0
  3 15  1  0
  5 16  1  0
  5 17  1  0
  5 18  1  0
  6 19  1  0
  6 20  1  0
  7 21  1  0
  7 22  1  0
  9 23  1  0
M  END
