
     RDKit          3D

 19 20  0  0  0  0  0  0  0  0999 V2000
   -1.5778   -1.1436   -0.7707 C   0  0  0  0  0  0  0  0  0  0  0  0
   -1.0984   -0.4417    0.4523 C   0  0  0  0  0  0  0  0  0  0  0  0
    0.1910   -1.0448    0.9453 C   0  0  0  0  0  0  0  0  0  0  0  0
    1.1889   -0.3700    0.4283 C   0  0  0  0  0  0  0  0  0  0  0  0
    2.5047    0.2235   -0.0188 C   0  0  0  0  0  0  0  0  0  0  0  0
    1.7793    1.4244   -0.2408 O   0  0  0  0  0  0  0  0  0  0  0  0
    0.6579    0.6930   -0.5274 C   0  0  0  0  0  0  0  0  0  0  0  0
   -0.6381    0.9989    0.1250 C   0  0  0  0  0  0  0  0  0  0  0  0
   -0.4761    1.6816    1.3290 O   0  0  0  0  0  0  0  0  0  0  0  0
   -1.2769   -2.2219   -0.6802 H   0  0  0  0  0  0  0  0  0  0  0  0
   -2.6950   -1.0618   -0.8556 H   0  0  0  0  0  0  0  0  0  0  0  0
   -1.1548   -0.7467   -1.7156 H   0  0  0  0  0  0  0  0  0  0  0  0
   -1.8212   -0.4277    1.2678 H   0  0  0  0  0  0  0  0  0  0  0  0
    0.2800   -1.8897    1.6115 H   0  0  0  0  0  0  0  0  0  0  0  0
    2.8156   -0.2683   -0.9601 H   0  0  0  0  0  0  0  0  0  0  0  0
    3.2440    0.3166    0.7755 H   0  0  0  0  0  0  0  0  0  0  0  0
    0.5758    0.3231   -1.5654 H   0  0  0  0  0  0  0  0  0  0  0  0
   -1.3829    1.4982   -0.5331 H   0  0  0  0  0  0  0  0  0  0  0  0
   -1.1161    2.4567    1.3781 H   0  0  0  0  0  0  0  0  0  0  0  0
  1  2  1  0
  2  3  1  0
  3  4  2  0
  4  5  1  0
  5  6  1  0
  6  7  1  0
  7  8  1  0
  8  9  1  0
  8  2  1  0
  7  4  1  0
  1 10  1  0
  1 11  1  0
  1 12  1  0
  2 13  1  0
  3 14  1  0
  5 15  1  0
  5 16  1  0
  7 17  1  0
  8 18  1  0
  9 19  1  0
M  END
