
     RDKit          3D

 21 23  0  0  0  0  0  0  0  0999 V2000
   -2.0660   -0.8054   -0.3849 C   0  0  0  0  0  0  0  0  0  0  0  0
   -1.2972    0.2784    0.3680 C   0  0  0  0  0  0  0  0  0  0  0  0
   -0.8299    1.2999   -0.5717 C   0  0  0  0  0  0  0  0  0  0  0  0
    0.4396    1.5561   -0.8411 C   0  0  0  0  0  0  0  0  0  0  0  0
    1.5102    0.7773   -0.1665 C   0  0  0  0  0  0  0  0  0  0  0  0
    1.5842   -0.6583   -0.6882 C   0  0  0  0  0  0  0  0  0  0  0  0
    0.8548   -1.1585    0.5092 C   0  0  0  0  0  0  0  0  0  0  0  0
   -0.2308   -0.3854    1.1534 C   0  0  0  0  0  0  0  0  0  0  0  0
    1.0891    0.2373    1.1552 C   0  0  0  0  0  0  0  0  0  0  0  0
   -2.8260   -1.2077    0.3251 H   0  0  0  0  0  0  0  0  0  0  0  0
   -1.3993   -1.6121   -0.7240 H   0  0  0  0  0  0  0  0  0  0  0  0
   -2.6063   -0.2964   -1.1904 H   0  0  0  0  0  0  0  0  0  0  0  0
   -2.0079    0.7646    1.0786 H   0  0  0  0  0  0  0  0  0  0  0  0
   -1.5694    1.8973   -1.0916 H   0  0  0  0  0  0  0  0  0  0  0  0
    0.6912    2.3475   -1.5658 H   0  0  0  0  0  0  0  0  0  0  0  0
    2.4516    1.3299   -0.1984 H   0  0  0  0  0  0  0  0  0  0  0  0
    2.6648   -0.9643   -0.6641 H   0  0  0  0  0  0  0  0  0  0  0  0
    1.0878   -0.7920   -1.6706 H   0  0  0  0  0  0  0  0  0  0  0  0
    1.2735   -2.0253    1.0159 H   0  0  0  0  0  0  0  0  0  0  0  0
   -0.5761   -0.8011    2.1371 H   0  0  0  0  0  0  0  0  0  0  0  0
    1.7620    0.2180    2.0148 H   0  0  0  0  0  0  0  0  0  0  0  0
  1  2  1  0
  2  3  1  0
  3  4  2  0
  4  5  1  0
  5  6  1  0
  6  7  1  0
  7  8  1  0
  8  9  1  0
  8  2  1  0
  9  5  1  0
  9  7  1  0
  1 10  1  0
  1 11  1  0
  1 12  1  0
  2 13  1  0
  3 14  1  0
  4 15  1  0
  5 16  1  0
  6 17  1  0
  6 18  1  0
  7 19  1  0
  8 20  1  0
  9 21  1  0
M  END
