
     RDKit          3D

 20 20  0  0  0  0  0  0  0  0999 V2000
   -1.5992   -1.3396   -0.1324 C   0  0  0  0  0  0  0  0  0  0  0  0
   -0.9140   -0.0692   -0.3931 C   0  0  0  0  0  0  0  0  0  0  0  0
   -1.0133    0.9684    0.6976 C   0  0  0  0  0  0  0  0  0  0  0  0
    0.0357    1.9168    0.2305 C   0  0  0  0  0  0  0  0  0  0  0  0
    0.9298    1.2959   -0.5233 C   0  0  0  0  0  0  0  0  0  0  0  0
    0.5550   -0.1418   -0.6287 C   0  0  0  0  0  0  0  0  0  0  0  0
    1.2954   -0.8685    0.4701 C   0  0  0  0  0  0  0  0  0  0  0  0
    2.6610   -0.8548    0.1076 O   0  0  0  0  0  0  0  0  0  0  0  0
   -1.9565   -1.7702   -1.1157 H   0  0  0  0  0  0  0  0  0  0  0  0
   -2.5507   -1.1491    0.4352 H   0  0  0  0  0  0  0  0  0  0  0  0
   -1.0195   -2.1354    0.3435 H   0  0  0  0  0  0  0  0  0  0  0  0
   -1.3673    0.4017   -1.3082 H   0  0  0  0  0  0  0  0  0  0  0  0
   -2.0162    1.4224    0.7177 H   0  0  0  0  0  0  0  0  0  0  0  0
   -0.7956    0.5650    1.7008 H   0  0  0  0  0  0  0  0  0  0  0  0
    0.0765    2.9635    0.4636 H   0  0  0  0  0  0  0  0  0  0  0  0
    1.8175    1.7239   -1.0124 H   0  0  0  0  0  0  0  0  0  0  0  0
    0.7872   -0.5645   -1.6164 H   0  0  0  0  0  0  0  0  0  0  0  0
    1.2320   -0.3718    1.4358 H   0  0  0  0  0  0  0  0  0  0  0  0
    0.9931   -1.9162    0.5894 H   0  0  0  0  0  0  0  0  0  0  0  0
    2.8490   -0.0764   -0.4615 H   0  0  0  0  0  0  0  0  0  0  0  0
  1  2  1  0
  2  3  1  0
  3  4  1  0
  4  5  2  0
  5  6  1  0
  6  7  1  0
  7  8  1  0
  6  2  1  0
  1  9  1  0
  1 10  1  0
  1 11  1  0
  2 12  1  0
  3 13  1  0
  3 14  1  0
  4 15  1  0
  5 16  1  0
  6 17  1  0
  7 18  1  0
  7 19  1  0
  8 20  1  0
M  END
