
     RDKit          3D

 21 21  0  0  0  0  0  0  0  0999 V2000
    0.4572   -0.0542   -2.0281 C   0  0  0  0  0  0  0  0  0  0  0  0
    0.3727    1.1981   -1.1673 C   0  0  0  0  0  0  0  0  0  0  0  0
    1.6578    1.5049   -0.3815 C   0  0  0  0  0  0  0  0  0  0  0  0
    0.4173    1.0394    0.3577 C   0  0  0  0  0  0  0  0  0  0  0  0
   -0.3981    2.2231    0.9996 C   0  0  0  0  0  0  0  0  0  0  0  0
    0.0908   -0.2122    0.7111 C   0  0  0  0  0  0  0  0  0  0  0  0
   -0.2641   -1.4928    1.0737 C   0  0  0  0  0  0  0  0  0  0  0  0
   -0.5782   -2.6861    1.4046 C   0  0  0  0  0  0  0  0  0  0  0  0
   -1.4277   -3.1080    0.2256 O   0  0  0  0  0  0  0  0  0  0  0  0
    1.3812   -0.0632   -2.5769 H   0  0  0  0  0  0  0  0  0  0  0  0
    0.3161   -0.9505   -1.3707 H   0  0  0  0  0  0  0  0  0  0  0  0
   -0.4709   -0.1195   -2.7382 H   0  0  0  0  0  0  0  0  0  0  0  0
   -0.1603    2.0412   -1.6592 H   0  0  0  0  0  0  0  0  0  0  0  0
    1.9454    2.5874   -0.3815 H   0  0  0  0  0  0  0  0  0  0  0  0
    2.5089    0.8508   -0.6825 H   0  0  0  0  0  0  0  0  0  0  0  0
   -0.6645    1.8915    2.0669 H   0  0  0  0  0  0  0  0  0  0  0  0
    0.1601    3.1214    1.0228 H   0  0  0  0  0  0  0  0  0  0  0  0
   -1.3175    2.1533    0.4350 H   0  0  0  0  0  0  0  0  0  0  0  0
   -1.6104   -2.6616    2.2591 H   0  0  0  0  0  0  0  0  0  0  0  0
   -0.2023   -3.5945    1.7872 H   0  0  0  0  0  0  0  0  0  0  0  0
   -2.2133   -3.6686    0.6426 H   0  0  0  0  0  0  0  0  0  0  0  0
  1  2  1  0
  2  3  1  0
  3  4  1  0
  4  5  1  0
  4  6  1  0
  6  7  3  0
  7  8  1  0
  8  9  1  0
  4  2  1  0
  1 10  1  0
  1 11  1  0
  1 12  1  0
  2 13  1  0
  3 14  1  0
  3 15  1  0
  5 16  1  0
  5 17  1  0
  5 18  1  0
  8 19  1  0
  8 20  1  0
  9 21  1  0
M  END
