
     RDKit          3D

 20 21  0  0  0  0  0  0  0  0999 V2000
   -2.4886    0.7964   -0.1941 C   0  0  0  0  0  0  0  0  0  0  0  0
   -1.0631    0.6064   -0.5815 C   0  0  0  0  0  0  0  0  0  0  0  0
   -0.6531   -0.8696   -0.7918 C   0  0  0  0  0  0  0  0  0  0  0  0
   -1.5927   -1.8320   -0.4203 O   0  0  0  0  0  0  0  0  0  0  0  0
   -0.0734   -0.0626    0.2900 C   0  0  0  0  0  0  0  0  0  0  0  0
    1.3494    0.4172    0.2667 C   0  0  0  0  0  0  0  0  0  0  0  0
    2.0703    0.3489   -1.0727 C   0  0  0  0  0  0  0  0  0  0  0  0
    2.4727   -0.5367    0.0723 C   0  0  0  0  0  0  0  0  0  0  0  0
   -2.6095    1.2955    0.8030 H   0  0  0  0  0  0  0  0  0  0  0  0
   -3.0743   -0.1545   -0.1531 H   0  0  0  0  0  0  0  0  0  0  0  0
   -2.9844    1.4198   -0.9757 H   0  0  0  0  0  0  0  0  0  0  0  0
   -0.6371    1.3397   -1.3112 H   0  0  0  0  0  0  0  0  0  0  0  0
   -0.1797   -1.0651   -1.7598 H   0  0  0  0  0  0  0  0  0  0  0  0
   -1.6514   -1.8907    0.5814 H   0  0  0  0  0  0  0  0  0  0  0  0
   -0.4232   -0.2905    1.3370 H   0  0  0  0  0  0  0  0  0  0  0  0
    1.5813    1.3099    0.9183 H   0  0  0  0  0  0  0  0  0  0  0  0
    1.5669   -0.0819   -1.9561 H   0  0  0  0  0  0  0  0  0  0  0  0
    2.7074    1.2235   -1.3278 H   0  0  0  0  0  0  0  0  0  0  0  0
    3.4061   -0.3487    0.6019 H   0  0  0  0  0  0  0  0  0  0  0  0
    2.2763   -1.6249   -0.0967 H   0  0  0  0  0  0  0  0  0  0  0  0
  1  2  1  0
  2  3  1  0
  3  4  1  0
  3  5  1  0
  5  6  1  0
  6  7  1  0
  7  8  1  0
  5  2  1  0
  8  6  1  0
  1  9  1  0
  1 10  1  0
  1 11  1  0
  2 12  1  0
  3 13  1  0
  4 14  1  0
  5 15  1  0
  6 16  1  0
  7 17  1  0
  7 18  1  0
  8 19  1  0
  8 20  1  0
M  END
