
     RDKit          3D

 21 21  0  0  0  0  0  0  0  0999 V2000
    2.4850   -0.0823   -0.4598 C   0  0  0  0  0  0  0  0  0  0  0  0
    1.3886    0.2658    0.5424 C   0  0  0  0  0  0  0  0  0  0  0  0
    0.2707   -0.7212    0.5357 C   0  0  0  0  0  0  0  0  0  0  0  0
   -0.8409    0.0142   -0.1420 C   0  0  0  0  0  0  0  0  0  0  0  0
   -0.9463   -0.3179   -1.4958 O   0  0  0  0  0  0  0  0  0  0  0  0
   -2.1818   -0.1834    0.4881 C   0  0  0  0  0  0  0  0  0  0  0  0
   -2.6686   -1.4657    0.4109 O   0  0  0  0  0  0  0  0  0  0  0  0
   -0.4396    1.4579    0.0451 C   0  0  0  0  0  0  0  0  0  0  0  0
    0.9100    1.5016    0.2280 O   0  0  0  0  0  0  0  0  0  0  0  0
    2.8271    0.8452   -1.0064 H   0  0  0  0  0  0  0  0  0  0  0  0
    3.3952   -0.4704    0.0421 H   0  0  0  0  0  0  0  0  0  0  0  0
    2.1427   -0.7744   -1.2316 H   0  0  0  0  0  0  0  0  0  0  0  0
    1.8914    0.2959    1.5448 H   0  0  0  0  0  0  0  0  0  0  0  0
    0.5890   -1.5972   -0.0648 H   0  0  0  0  0  0  0  0  0  0  0  0
    0.0175   -1.0620    1.5670 H   0  0  0  0  0  0  0  0  0  0  0  0
   -0.0799   -0.1204   -1.9266 H   0  0  0  0  0  0  0  0  0  0  0  0
   -2.8983    0.4891   -0.0316 H   0  0  0  0  0  0  0  0  0  0  0  0
   -2.1300    0.1878    1.5360 H   0  0  0  0  0  0  0  0  0  0  0  0
   -2.0140   -2.1770    0.5131 H   0  0  0  0  0  0  0  0  0  0  0  0
   -0.9520    1.9085    0.9271 H   0  0  0  0  0  0  0  0  0  0  0  0
   -0.7660    2.0059   -0.8595 H   0  0  0  0  0  0  0  0  0  0  0  0
  1  2  1  0
  2  3  1  0
  3  4  1  0
  4  5  1  0
  4  6  1  0
  6  7  1  0
  4  8  1  0
  8  9  1  0
  9  2  1  0
  1 10  1  0
  1 11  1  0
  1 12  1  0
  2 13  1  0
  3 14  1  0
  3 15  1  0
  5 16  1  0
  6 17  1  0
  6 18  1  0
  7 19  1  0
  8 20  1  0
  8 21  1  0
M  END
