
     RDKit          3D

 20 21  0  0  0  0  0  0  0  0999 V2000
    2.5325    0.3489   -0.1544 C   0  0  0  0  0  0  0  0  0  0  0  0
    1.0421    0.3716   -0.1821 C   0  0  0  0  0  0  0  0  0  0  0  0
    0.4765   -1.0149   -0.4142 C   0  0  0  0  0  0  0  0  0  0  0  0
   -1.0043   -0.8881   -0.5578 C   0  0  0  0  0  0  0  0  0  0  0  0
   -1.9352   -0.9744    0.5714 C   0  0  0  0  0  0  0  0  0  0  0  0
   -1.6151    0.3453   -0.1155 C   0  0  0  0  0  0  0  0  0  0  0  0
   -0.8003    1.2815    0.6944 C   0  0  0  0  0  0  0  0  0  0  0  0
    0.4688    0.8277    1.0064 O   0  0  0  0  0  0  0  0  0  0  0  0
    2.8597   -0.5813    0.3558 H   0  0  0  0  0  0  0  0  0  0  0  0
    2.8749    0.3667   -1.2315 H   0  0  0  0  0  0  0  0  0  0  0  0
    2.8869    1.2697    0.3347 H   0  0  0  0  0  0  0  0  0  0  0  0
    0.7033    1.0565   -0.9888 H   0  0  0  0  0  0  0  0  0  0  0  0
    0.8042   -1.6663    0.4126 H   0  0  0  0  0  0  0  0  0  0  0  0
    0.9747   -1.4009   -1.3342 H   0  0  0  0  0  0  0  0  0  0  0  0
   -1.3899   -1.3191   -1.5289 H   0  0  0  0  0  0  0  0  0  0  0  0
   -1.5277   -1.1432    1.6026 H   0  0  0  0  0  0  0  0  0  0  0  0
   -2.9365   -1.3983    0.4262 H   0  0  0  0  0  0  0  0  0  0  0  0
   -2.4086    0.8260   -0.7318 H   0  0  0  0  0  0  0  0  0  0  0  0
   -0.6741    2.2596    0.1592 H   0  0  0  0  0  0  0  0  0  0  0  0
   -1.3319    1.4331    1.6758 H   0  0  0  0  0  0  0  0  0  0  0  0
  1  2  1  0
  2  3  1  0
  3  4  1  0
  4  5  1  0
  5  6  1  0
  6  7  1  0
  7  8  1  0
  8  2  1  0
  6  4  1  0
  1  9  1  0
  1 10  1  0
  1 11  1  0
  2 12  1  0
  3 13  1  0
  3 14  1  0
  4 15  1  0
  5 16  1  0
  5 17  1  0
  6 18  1  0
  7 19  1  0
  7 20  1  0
M  END
