
     RDKit          3D

 21 22  0  0  0  0  0  0  0  0999 V2000
   -2.3982   -0.3186   -0.0131 C   0  0  0  0  0  0  0  0  0  0  0  0
   -1.0102   -0.0337   -0.5560 C   0  0  0  0  0  0  0  0  0  0  0  0
   -0.0699   -1.1506   -0.2008 C   0  0  0  0  0  0  0  0  0  0  0  0
    1.2322   -0.4298    0.0182 C   0  0  0  0  0  0  0  0  0  0  0  0
    2.4546   -1.1108    0.0053 C   0  0  0  0  0  0  0  0  0  0  0  0
    2.1193   -0.2356   -1.0094 O   0  0  0  0  0  0  0  0  0  0  0  0
    0.8398    0.7705    0.7921 C   0  0  0  0  0  0  0  0  0  0  0  0
   -0.4423    1.2268    0.0971 C   0  0  0  0  0  0  0  0  0  0  0  0
   -0.0874    2.1174   -0.9127 O   0  0  0  0  0  0  0  0  0  0  0  0
   -3.1324   -0.3901   -0.8444 H   0  0  0  0  0  0  0  0  0  0  0  0
   -2.3554   -1.2332    0.6067 H   0  0  0  0  0  0  0  0  0  0  0  0
   -2.7388    0.5531    0.6041 H   0  0  0  0  0  0  0  0  0  0  0  0
   -1.0202    0.0705   -1.6699 H   0  0  0  0  0  0  0  0  0  0  0  0
   -0.3890   -1.5369    0.8112 H   0  0  0  0  0  0  0  0  0  0  0  0
   -0.0198   -1.9564   -0.9313 H   0  0  0  0  0  0  0  0  0  0  0  0
    2.5007   -2.1695   -0.3281 H   0  0  0  0  0  0  0  0  0  0  0  0
    3.2692   -0.8459    0.7189 H   0  0  0  0  0  0  0  0  0  0  0  0
    1.5956    1.5644    0.6954 H   0  0  0  0  0  0  0  0  0  0  0  0
    0.5958    0.5238    1.8455 H   0  0  0  0  0  0  0  0  0  0  0  0
   -1.1819    1.6219    0.7958 H   0  0  0  0  0  0  0  0  0  0  0  0
    0.2383    2.9626   -0.5247 H   0  0  0  0  0  0  0  0  0  0  0  0
  1  2  1  0
  2  3  1  0
  3  4  1  0
  4  5  1  0
  5  6  1  0
  4  7  1  0
  7  8  1  0
  8  9  1  0
  8  2  1  0
  6  4  1  0
  1 10  1  0
  1 11  1  0
  1 12  1  0
  2 13  1  0
  3 14  1  0
  3 15  1  0
  5 16  1  0
  5 17  1  0
  7 18  1  0
  7 19  1  0
  8 20  1  0
  9 21  1  0
M  END
