
     RDKit          3D

 18 19  0  0  0  0  0  0  0  0999 V2000
   -1.9229   -0.7849   -1.0033 C   0  0  0  0  0  0  0  0  0  0  0  0
   -1.3227   -0.3596    0.3515 C   0  0  0  0  0  0  0  0  0  0  0  0
   -0.5543    0.8226    0.3192 C   0  0  0  0  0  0  0  0  0  0  0  0
    0.8904    1.0138   -0.0884 C   0  0  0  0  0  0  0  0  0  0  0  0
    1.3345    0.2830   -1.1471 O   0  0  0  0  0  0  0  0  0  0  0  0
    1.0633    0.3597    1.3013 C   0  0  0  0  0  0  0  0  0  0  0  0
    2.2832   -0.2133    1.5157 O   0  0  0  0  0  0  0  0  0  0  0  0
    0.0338   -0.5956    0.7208 C   0  0  0  0  0  0  0  0  0  0  0  0
   -1.0906   -0.7407   -1.7560 H   0  0  0  0  0  0  0  0  0  0  0  0
   -2.6367    0.0242   -1.2634 H   0  0  0  0  0  0  0  0  0  0  0  0
   -2.3723   -1.7795   -0.9436 H   0  0  0  0  0  0  0  0  0  0  0  0
   -2.0958   -0.5408    1.1566 H   0  0  0  0  0  0  0  0  0  0  0  0
   -0.7172    1.5024    1.2195 H   0  0  0  0  0  0  0  0  0  0  0  0
    1.2015    2.0648   -0.1252 H   0  0  0  0  0  0  0  0  0  0  0  0
    2.2921    0.1258   -1.1390 H   0  0  0  0  0  0  0  0  0  0  0  0
    0.7115    1.0237    2.0864 H   0  0  0  0  0  0  0  0  0  0  0  0
    2.3255   -1.0690    0.9923 H   0  0  0  0  0  0  0  0  0  0  0  0
    0.5766   -1.1366   -0.1168 H   0  0  0  0  0  0  0  0  0  0  0  0
  1  2  1  0
  2  3  1  0
  3  4  1  0
  4  5  1  0
  4  6  1  0
  6  7  1  0
  6  8  1  0
  8  2  1  0
  8  3  1  0
  1  9  1  0
  1 10  1  0
  1 11  1  0
  2 12  1  0
  3 13  1  0
  4 14  1  0
  5 15  1  0
  6 16  1  0
  7 17  1  0
  8 18  1  0
M  END
