
     RDKit          3D

 23 23  0  0  0  0  0  0  0  0999 V2000
   -1.4570    2.0226   -0.4900 C   0  0  0  0  0  0  0  0  0  0  0  0
   -0.5533    0.9509    0.1286 C   0  0  0  0  0  0  0  0  0  0  0  0
   -1.4410   -0.0956    0.7076 C   0  0  0  0  0  0  0  0  0  0  0  0
   -1.1996   -1.4764    0.1657 C   0  0  0  0  0  0  0  0  0  0  0  0
    0.2069   -1.9478    0.3577 C   0  0  0  0  0  0  0  0  0  0  0  0
    1.0303   -0.8716    0.7504 O   0  0  0  0  0  0  0  0  0  0  0  0
    1.3552   -0.2242   -0.4569 C   0  0  0  0  0  0  0  0  0  0  0  0
    2.6129    0.5477   -0.2179 C   0  0  0  0  0  0  0  0  0  0  0  0
    0.2866    0.5149   -0.8667 O   0  0  0  0  0  0  0  0  0  0  0  0
   -2.3302    2.2395    0.1446 H   0  0  0  0  0  0  0  0  0  0  0  0
   -1.8580    1.6222   -1.4559 H   0  0  0  0  0  0  0  0  0  0  0  0
   -0.8205    2.9002   -0.6833 H   0  0  0  0  0  0  0  0  0  0  0  0
   -0.0052    1.4732    0.9540 H   0  0  0  0  0  0  0  0  0  0  0  0
   -2.5351    0.1187    0.5447 H   0  0  0  0  0  0  0  0  0  0  0  0
   -1.3133   -0.1474    1.8177 H   0  0  0  0  0  0  0  0  0  0  0  0
   -1.8618   -2.1698    0.7382 H   0  0  0  0  0  0  0  0  0  0  0  0
   -1.5098   -1.4598   -0.9076 H   0  0  0  0  0  0  0  0  0  0  0  0
    0.3023   -2.7793    1.0585 H   0  0  0  0  0  0  0  0  0  0  0  0
    0.5643   -2.3197   -0.6424 H   0  0  0  0  0  0  0  0  0  0  0  0
    1.5761   -0.9799   -1.2520 H   0  0  0  0  0  0  0  0  0  0  0  0
    3.0918    0.9169   -1.1562 H   0  0  0  0  0  0  0  0  0  0  0  0
    3.3586   -0.1756    0.2188 H   0  0  0  0  0  0  0  0  0  0  0  0
    2.4997    1.3403    0.5423 H   0  0  0  0  0  0  0  0  0  0  0  0
  1  2  1  0
  2  3  1  0
  3  4  1  0
  4  5  1  0
  5  6  1  0
  6  7  1  0
  7  8  1  0
  7  9  1  0
  9  2  1  0
  1 10  1  0
  1 11  1  0
  1 12  1  0
  2 13  1  0
  3 14  1  0
  3 15  1  0
  4 16  1  0
  4 17  1  0
  5 18  1  0
  5 19  1  0
  7 20  1  0
  8 21  1  0
  8 22  1  0
  8 23  1  0
M  END
