
     RDKit          3D

 23 24  0  0  0  0  0  0  0  0999 V2000
    0.4485    1.9280   -0.2998 C   0  0  0  0  0  0  0  0  0  0  0  0
    0.1146    0.7592    0.5776 C   0  0  0  0  0  0  0  0  0  0  0  0
    1.1392   -0.3835    0.5022 C   0  0  0  0  0  0  0  0  0  0  0  0
    1.7406   -0.5723   -0.8674 C   0  0  0  0  0  0  0  0  0  0  0  0
    2.0288   -0.4302    1.5433 O   0  0  0  0  0  0  0  0  0  0  0  0
   -0.0609   -1.3333    0.6332 C   0  0  0  0  0  0  0  0  0  0  0  0
   -0.8981   -0.1887    0.1554 C   0  0  0  0  0  0  0  0  0  0  0  0
   -2.3198   -0.1811    0.3542 C   0  0  0  0  0  0  0  0  0  0  0  0
   -1.7061   -0.1842   -1.0369 C   0  0  0  0  0  0  0  0  0  0  0  0
   -0.3390    2.1514   -1.0553 H   0  0  0  0  0  0  0  0  0  0  0  0
    0.6306    2.8712    0.2832 H   0  0  0  0  0  0  0  0  0  0  0  0
    1.3861    1.7803   -0.8914 H   0  0  0  0  0  0  0  0  0  0  0  0
    0.0184    1.1142    1.6395 H   0  0  0  0  0  0  0  0  0  0  0  0
    2.1754   -1.6096   -0.8749 H   0  0  0  0  0  0  0  0  0  0  0  0
    0.9101   -0.5462   -1.6137 H   0  0  0  0  0  0  0  0  0  0  0  0
    2.5551    0.1196   -1.0843 H   0  0  0  0  0  0  0  0  0  0  0  0
    1.6240   -0.6382    2.4027 H   0  0  0  0  0  0  0  0  0  0  0  0
   -0.1552   -1.6331    1.6784 H   0  0  0  0  0  0  0  0  0  0  0  0
   -0.0363   -2.1826   -0.0683 H   0  0  0  0  0  0  0  0  0  0  0  0
   -2.9313    0.6734    0.6775 H   0  0  0  0  0  0  0  0  0  0  0  0
   -2.7973   -1.1638    0.6389 H   0  0  0  0  0  0  0  0  0  0  0  0
   -1.7451   -1.1035   -1.6447 H   0  0  0  0  0  0  0  0  0  0  0  0
   -1.7824    0.7532   -1.6493 H   0  0  0  0  0  0  0  0  0  0  0  0
  1  2  1  0
  2  3  1  0
  3  4  1  0
  3  5  1  0
  3  6  1  0
  6  7  1  0
  7  8  1  0
  8  9  1  0
  7  2  1  0
  9  7  1  0
  1 10  1  0
  1 11  1  0
  1 12  1  0
  2 13  1  0
  4 14  1  0
  4 15  1  0
  4 16  1  0
  5 17  1  0
  6 18  1  0
  6 19  1  0
  8 20  1  0
  8 21  1  0
  9 22  1  0
  9 23  1  0
M  END
