
     RDKit          3D

 21 22  0  0  0  0  0  0  0  0999 V2000
    2.7676   -0.1076    0.3650 C   0  0  0  0  0  0  0  0  0  0  0  0
    1.2891   -0.0929    0.5428 C   0  0  0  0  0  0  0  0  0  0  0  0
    0.5604    0.8792   -0.3898 C   0  0  0  0  0  0  0  0  0  0  0  0
   -0.3387    1.6766    0.2421 O   0  0  0  0  0  0  0  0  0  0  0  0
   -1.6170    1.2356    0.3298 C   0  0  0  0  0  0  0  0  0  0  0  0
   -1.7525   -0.1842    0.8167 C   0  0  0  0  0  0  0  0  0  0  0  0
   -0.9881   -1.0821   -0.1050 C   0  0  0  0  0  0  0  0  0  0  0  0
   -1.7859   -1.2502   -1.2610 O   0  0  0  0  0  0  0  0  0  0  0  0
    0.3414   -0.5332   -0.4888 C   0  0  0  0  0  0  0  0  0  0  0  0
    3.1381    0.9286    0.6205 H   0  0  0  0  0  0  0  0  0  0  0  0
    3.0034   -0.2484   -0.7238 H   0  0  0  0  0  0  0  0  0  0  0  0
    3.2851   -0.8264    1.0075 H   0  0  0  0  0  0  0  0  0  0  0  0
    0.9459   -0.1705    1.5917 H   0  0  0  0  0  0  0  0  0  0  0  0
    1.1548    1.3837   -1.1834 H   0  0  0  0  0  0  0  0  0  0  0  0
   -2.1451    1.3816   -0.6120 H   0  0  0  0  0  0  0  0  0  0  0  0
   -2.1503    1.8755    1.0928 H   0  0  0  0  0  0  0  0  0  0  0  0
   -2.8395   -0.4401    0.7836 H   0  0  0  0  0  0  0  0  0  0  0  0
   -1.4324   -0.2830    1.8656 H   0  0  0  0  0  0  0  0  0  0  0  0
   -0.9173   -2.1235    0.3285 H   0  0  0  0  0  0  0  0  0  0  0  0
   -1.3269   -0.9481   -2.0653 H   0  0  0  0  0  0  0  0  0  0  0  0
    0.8082   -1.0706   -1.3640 H   0  0  0  0  0  0  0  0  0  0  0  0
  1  2  1  0
  2  3  1  0
  3  4  1  0
  4  5  1  0
  5  6  1  0
  6  7  1  0
  7  8  1  0
  7  9  1  0
  9  2  1  0
  9  3  1  0
  1 10  1  0
  1 11  1  0
  1 12  1  0
  2 13  1  0
  3 14  1  0
  5 15  1  0
  5 16  1  0
  6 17  1  0
  6 18  1  0
  7 19  1  0
  8 20  1  0
  9 21  1  0
M  END
