
     RDKit          3D

 25 26  0  0  0  0  0  0  0  0999 V2000
    2.4474   -0.4653    0.4032 C   0  0  0  0  0  0  0  0  0  0  0  0
    1.1738    0.0445   -0.1779 C   0  0  0  0  0  0  0  0  0  0  0  0
    0.4120   -1.0264   -0.9592 C   0  0  0  0  0  0  0  0  0  0  0  0
   -1.0502   -0.5653   -0.9539 C   0  0  0  0  0  0  0  0  0  0  0  0
   -1.5645   -0.9456    0.4308 C   0  0  0  0  0  0  0  0  0  0  0  0
   -0.7252   -0.2208    1.4466 C   0  0  0  0  0  0  0  0  0  0  0  0
    0.2720    0.7297    0.7966 C   0  0  0  0  0  0  0  0  0  0  0  0
   -0.5836    1.7165   -0.0109 C   0  0  0  0  0  0  0  0  0  0  0  0
   -1.1124    0.9160   -1.1952 C   0  0  0  0  0  0  0  0  0  0  0  0
    2.6025   -1.5358    0.1403 H   0  0  0  0  0  0  0  0  0  0  0  0
    2.4940   -0.3518    1.5164 H   0  0  0  0  0  0  0  0  0  0  0  0
    3.3504    0.1046    0.0340 H   0  0  0  0  0  0  0  0  0  0  0  0
    1.4531    0.8146   -0.9560 H   0  0  0  0  0  0  0  0  0  0  0  0
    0.4670   -2.0092   -0.4662 H   0  0  0  0  0  0  0  0  0  0  0  0
    0.7385   -1.1119   -1.9923 H   0  0  0  0  0  0  0  0  0  0  0  0
   -1.6285   -1.0573   -1.7547 H   0  0  0  0  0  0  0  0  0  0  0  0
   -2.6369   -0.8022    0.5376 H   0  0  0  0  0  0  0  0  0  0  0  0
   -1.3420   -2.0479    0.5303 H   0  0  0  0  0  0  0  0  0  0  0  0
   -0.2688   -0.8690    2.2002 H   0  0  0  0  0  0  0  0  0  0  0  0
   -1.4355    0.4515    2.0135 H   0  0  0  0  0  0  0  0  0  0  0  0
    0.8231    1.2342    1.5981 H   0  0  0  0  0  0  0  0  0  0  0  0
   -1.4319    2.0626    0.6238 H   0  0  0  0  0  0  0  0  0  0  0  0
    0.0669    2.5574   -0.3391 H   0  0  0  0  0  0  0  0  0  0  0  0
   -0.3925    1.1377   -2.0368 H   0  0  0  0  0  0  0  0  0  0  0  0
   -2.1287    1.2394   -1.4294 H   0  0  0  0  0  0  0  0  0  0  0  0
  1  2  1  0
  2  3  1  0
  3  4  1  0
  4  5  1  0
  5  6  1  0
  6  7  1  0
  7  8  1  0
  8  9  1  0
  7  2  1  0
  9  4  1  0
  1 10  1  0
  1 11  1  0
  1 12  1  0
  2 13  1  0
  3 14  1  0
  3 15  1  0
  4 16  1  0
  5 17  1  0
  5 18  1  0
  6 19  1  0
  6 20  1  0
  7 21  1  0
  8 22  1  0
  8 23  1  0
  9 24  1  0
  9 25  1  0
M  END
