
     RDKit          3D

 23 24  0  0  0  0  0  0  0  0999 V2000
   -1.9552   -1.1024   -0.7918 C   0  0  0  0  0  0  0  0  0  0  0  0
   -1.6186    0.2739   -0.3350 C   0  0  0  0  0  0  0  0  0  0  0  0
   -1.6009    0.5225    1.1501 C   0  0  0  0  0  0  0  0  0  0  0  0
   -0.5038    1.5573    0.8479 C   0  0  0  0  0  0  0  0  0  0  0  0
   -0.1842    0.6771   -0.3712 C   0  0  0  0  0  0  0  0  0  0  0  0
    0.8278   -0.3417    0.0341 C   0  0  0  0  0  0  0  0  0  0  0  0
    2.2323    0.2632   -0.0708 C   0  0  0  0  0  0  0  0  0  0  0  0
    2.5105   -1.1835   -0.4044 C   0  0  0  0  0  0  0  0  0  0  0  0
    1.2166   -1.2480   -0.9419 O   0  0  0  0  0  0  0  0  0  0  0  0
   -1.6522   -1.1892   -1.8632 H   0  0  0  0  0  0  0  0  0  0  0  0
   -3.0765   -1.1823   -0.8091 H   0  0  0  0  0  0  0  0  0  0  0  0
   -1.4944   -1.9094   -0.2127 H   0  0  0  0  0  0  0  0  0  0  0  0
   -2.2508    1.0281   -0.8364 H   0  0  0  0  0  0  0  0  0  0  0  0
   -2.4594    1.0474    1.5708 H   0  0  0  0  0  0  0  0  0  0  0  0
   -1.2015   -0.2686    1.7820 H   0  0  0  0  0  0  0  0  0  0  0  0
   -0.9435    2.5110    0.5010 H   0  0  0  0  0  0  0  0  0  0  0  0
    0.2910    1.6075    1.5923 H   0  0  0  0  0  0  0  0  0  0  0  0
    0.1540    1.2546   -1.2494 H   0  0  0  0  0  0  0  0  0  0  0  0
    0.7182   -0.8006    1.0272 H   0  0  0  0  0  0  0  0  0  0  0  0
    2.6567    0.5666    0.9079 H   0  0  0  0  0  0  0  0  0  0  0  0
    2.3602    0.9702   -0.9008 H   0  0  0  0  0  0  0  0  0  0  0  0
    2.6513   -1.7870    0.5114 H   0  0  0  0  0  0  0  0  0  0  0  0
    3.3226   -1.2665   -1.1380 H   0  0  0  0  0  0  0  0  0  0  0  0
  1  2  1  0
  2  3  1  0
  3  4  1  0
  4  5  1  0
  5  6  1  0
  6  7  1  0
  7  8  1  0
  8  9  1  0
  5  2  1  0
  9  6  1  0
  1 10  1  0
  1 11  1  0
  1 12  1  0
  2 13  1  0
  3 14  1  0
  3 15  1  0
  4 16  1  0
  4 17  1  0
  5 18  1  0
  6 19  1  0
  7 20  1  0
  7 21  1  0
  8 22  1  0
  8 23  1  0
M  END
