
     RDKit          3D

 18 19  0  0  0  0  0  0  0  0999 V2000
   -2.0603   -0.5733   -0.1723 C   0  0  0  0  0  0  0  0  0  0  0  0
   -0.8347    0.2698   -0.2725 C   0  0  0  0  0  0  0  0  0  0  0  0
   -0.3915    0.9559    1.0021 C   0  0  0  0  0  0  0  0  0  0  0  0
    1.0215    0.7092    0.4782 C   0  0  0  0  0  0  0  0  0  0  0  0
    1.4453   -0.6901    0.6012 C   0  0  0  0  0  0  0  0  0  0  0  0
    2.7531   -0.9609    0.2390 O   0  0  0  0  0  0  0  0  0  0  0  0
    0.4692   -0.3953   -0.4556 C   0  0  0  0  0  0  0  0  0  0  0  0
    0.9506   -0.4447   -1.7507 O   0  0  0  0  0  0  0  0  0  0  0  0
   -2.5671   -0.4252    0.8163 H   0  0  0  0  0  0  0  0  0  0  0  0
   -1.9096   -1.6426   -0.3052 H   0  0  0  0  0  0  0  0  0  0  0  0
   -2.8447   -0.2723   -0.9279 H   0  0  0  0  0  0  0  0  0  0  0  0
   -0.9810    1.0690   -1.0552 H   0  0  0  0  0  0  0  0  0  0  0  0
   -0.6660    2.0023    1.1122 H   0  0  0  0  0  0  0  0  0  0  0  0
   -0.5607    0.3624    1.9348 H   0  0  0  0  0  0  0  0  0  0  0  0
    1.5467    1.4826   -0.0674 H   0  0  0  0  0  0  0  0  0  0  0  0
    1.1483   -1.1971    1.5620 H   0  0  0  0  0  0  0  0  0  0  0  0
    3.1277   -0.2480   -0.3445 H   0  0  0  0  0  0  0  0  0  0  0  0
    0.3531   -0.0017   -2.3942 H   0  0  0  0  0  0  0  0  0  0  0  0
  1  2  1  0
  2  3  1  0
  3  4  1  0
  4  5  1  0
  5  6  1  0
  5  7  1  0
  7  8  1  0
  7  2  1  0
  7  4  1  0
  1  9  1  0
  1 10  1  0
  1 11  1  0
  2 12  1  0
  3 13  1  0
  3 14  1  0
  4 15  1  0
  5 16  1  0
  6 17  1  0
  8 18  1  0
M  END
