
     RDKit          3D

 19 21  0  0  0  0  0  0  0  0999 V2000
    1.6959    1.0659    0.4638 C   0  0  0  0  0  0  0  0  0  0  0  0
    0.2939    0.8038    0.0346 C   0  0  0  0  0  0  0  0  0  0  0  0
   -0.5636    0.0462    1.0589 C   0  0  0  0  0  0  0  0  0  0  0  0
    0.1833   -1.1912    0.5605 C   0  0  0  0  0  0  0  0  0  0  0  0
    0.0937   -0.4893   -0.7685 C   0  0  0  0  0  0  0  0  0  0  0  0
    0.9567   -0.7688   -1.7370 O   0  0  0  0  0  0  0  0  0  0  0  0
   -1.3847   -0.4655   -1.0363 C   0  0  0  0  0  0  0  0  0  0  0  0
   -2.0503    0.7144   -0.8311 O   0  0  0  0  0  0  0  0  0  0  0  0
   -1.8743    0.0015    0.3489 C   0  0  0  0  0  0  0  0  0  0  0  0
    2.0830    1.9719   -0.0737 H   0  0  0  0  0  0  0  0  0  0  0  0
    1.7515    1.3217    1.5500 H   0  0  0  0  0  0  0  0  0  0  0  0
    2.4036    0.2464    0.2201 H   0  0  0  0  0  0  0  0  0  0  0  0
   -0.2589    1.6233   -0.4322 H   0  0  0  0  0  0  0  0  0  0  0  0
   -0.4810    0.3156    2.0738 H   0  0  0  0  0  0  0  0  0  0  0  0
   -0.4081   -2.1125    0.5656 H   0  0  0  0  0  0  0  0  0  0  0  0
    1.2054   -1.2419    0.9705 H   0  0  0  0  0  0  0  0  0  0  0  0
    1.0108   -0.0056   -2.3761 H   0  0  0  0  0  0  0  0  0  0  0  0
   -1.9070   -1.3649   -1.3765 H   0  0  0  0  0  0  0  0  0  0  0  0
   -2.7498   -0.4710    0.7848 H   0  0  0  0  0  0  0  0  0  0  0  0
  1  2  1  0
  2  3  1  0
  3  4  1  0
  4  5  1  0
  5  6  1  0
  5  7  1  0
  7  8  1  0
  8  9  1  0
  5  2  1  0
  9  7  1  0
  9  3  1  0
  1 10  1  0
  1 11  1  0
  1 12  1  0
  2 13  1  0
  3 14  1  0
  4 15  1  0
  4 16  1  0
  6 17  1  0
  7 18  1  0
  9 19  1  0
M  END
