
     RDKit          3D

 17 18  0  0  0  0  0  0  0  0999 V2000
   -1.1416    1.4303   -0.0205 C   0  0  0  0  0  0  0  0  0  0  0  0
   -1.1134   -0.0539    0.2220 C   0  0  0  0  0  0  0  0  0  0  0  0
   -0.0161   -0.7232    0.9233 C   0  0  0  0  0  0  0  0  0  0  0  0
    1.2926   -0.1116    1.1648 C   0  0  0  0  0  0  0  0  0  0  0  0
    1.8646   -0.0226    2.2961 O   0  0  0  0  0  0  0  0  0  0  0  0
    1.7936    0.3613   -0.1165 C   0  0  0  0  0  0  0  0  0  0  0  0
    1.0284   -0.0201   -1.1189 C   0  0  0  0  0  0  0  0  0  0  0  0
   -0.0800   -0.8033   -0.5697 C   0  0  0  0  0  0  0  0  0  0  0  0
   -0.4242   -1.9925   -1.1850 O   0  0  0  0  0  0  0  0  0  0  0  0
   -0.1985    1.7801   -0.4548 H   0  0  0  0  0  0  0  0  0  0  0  0
   -1.3714    2.0024    0.9247 H   0  0  0  0  0  0  0  0  0  0  0  0
   -1.9655    1.6300   -0.7602 H   0  0  0  0  0  0  0  0  0  0  0  0
   -2.0991   -0.5240    0.2646 H   0  0  0  0  0  0  0  0  0  0  0  0
   -0.2489   -1.6376    1.5286 H   0  0  0  0  0  0  0  0  0  0  0  0
    2.6875    0.9550   -0.2301 H   0  0  0  0  0  0  0  0  0  0  0  0
    1.1363    0.1729   -2.1852 H   0  0  0  0  0  0  0  0  0  0  0  0
   -1.1442   -2.4431   -0.6831 H   0  0  0  0  0  0  0  0  0  0  0  0
  1  2  1  0
  2  3  1  0
  3  4  1  0
  4  5  2  0
  4  6  1  0
  6  7  2  0
  7  8  1  0
  8  9  1  0
  8  2  1  0
  8  3  1  0
  1 10  1  0
  1 11  1  0
  1 12  1  0
  2 13  1  0
  3 14  1  0
  6 15  1  0
  7 16  1  0
  9 17  1  0
M  END
