
     RDKit          3D

 23 25  0  0  0  0  0  0  0  0999 V2000
    2.8709   -0.0725   -0.5681 C   0  0  0  0  0  0  0  0  0  0  0  0
    1.4613    0.4132   -0.5041 C   0  0  0  0  0  0  0  0  0  0  0  0
    0.8363    0.0730    0.8322 C   0  0  0  0  0  0  0  0  0  0  0  0
   -0.3242   -0.5325    0.0642 C   0  0  0  0  0  0  0  0  0  0  0  0
   -1.7061   -0.0437    0.2671 C   0  0  0  0  0  0  0  0  0  0  0  0
   -1.9603    1.4215   -0.0403 C   0  0  0  0  0  0  0  0  0  0  0  0
   -2.6254    0.3063   -0.8311 C   0  0  0  0  0  0  0  0  0  0  0  0
    0.0082   -1.7368   -0.7300 C   0  0  0  0  0  0  0  0  0  0  0  0
    0.4222   -0.3932   -1.1952 C   0  0  0  0  0  0  0  0  0  0  0  0
    3.0454   -0.8594   -1.3264 H   0  0  0  0  0  0  0  0  0  0  0  0
    3.5244    0.7991   -0.8579 H   0  0  0  0  0  0  0  0  0  0  0  0
    3.2713   -0.4205    0.4046 H   0  0  0  0  0  0  0  0  0  0  0  0
    1.3204    1.5022   -0.7127 H   0  0  0  0  0  0  0  0  0  0  0  0
    0.6035    0.9407    1.4496 H   0  0  0  0  0  0  0  0  0  0  0  0
    1.3807   -0.7606    1.3513 H   0  0  0  0  0  0  0  0  0  0  0  0
   -2.1682   -0.3690    1.2434 H   0  0  0  0  0  0  0  0  0  0  0  0
   -2.6374    1.9972    0.6271 H   0  0  0  0  0  0  0  0  0  0  0  0
   -1.2117    2.0018   -0.5900 H   0  0  0  0  0  0  0  0  0  0  0  0
   -3.7075    0.1421   -0.6413 H   0  0  0  0  0  0  0  0  0  0  0  0
   -2.3551    0.1773   -1.8916 H   0  0  0  0  0  0  0  0  0  0  0  0
    0.8115   -2.4011   -0.3404 H   0  0  0  0  0  0  0  0  0  0  0  0
   -0.8303   -2.1929   -1.2900 H   0  0  0  0  0  0  0  0  0  0  0  0
   -0.0300    0.0079   -2.1262 H   0  0  0  0  0  0  0  0  0  0  0  0
  1  2  1  0
  2  3  1  0
  3  4  1  0
  4  5  1  0
  5  6  1  0
  6  7  1  0
  4  8  1  0
  8  9  1  0
  9  2  1  0
  9  4  1  0
  7  5  1  0
  1 10  1  0
  1 11  1  0
  1 12  1  0
  2 13  1  0
  3 14  1  0
  3 15  1  0
  5 16  1  0
  6 17  1  0
  6 18  1  0
  7 19  1  0
  7 20  1  0
  8 21  1  0
  8 22  1  0
  9 23  1  0
M  END
