
     RDKit          3D

 20 21  0  0  0  0  0  0  0  0999 V2000
   -1.9988    0.9997    0.1485 C   0  0  0  0  0  0  0  0  0  0  0  0
   -1.2056   -0.1527   -0.3954 C   0  0  0  0  0  0  0  0  0  0  0  0
   -0.5315   -1.0290    0.6316 C   0  0  0  0  0  0  0  0  0  0  0  0
    0.6702   -1.0366   -0.2865 C   0  0  0  0  0  0  0  0  0  0  0  0
    0.9584   -2.1477   -1.0356 O   0  0  0  0  0  0  0  0  0  0  0  0
    1.3845    0.2463   -0.4351 C   0  0  0  0  0  0  0  0  0  0  0  0
    1.6079    1.0725    0.8102 C   0  0  0  0  0  0  0  0  0  0  0  0
    0.0707    0.1653   -1.0865 C   0  0  0  0  0  0  0  0  0  0  0  0
   -2.7297    0.5617    0.8889 H   0  0  0  0  0  0  0  0  0  0  0  0
   -1.4146    1.7464    0.6807 H   0  0  0  0  0  0  0  0  0  0  0  0
   -2.6224    1.3939   -0.6718 H   0  0  0  0  0  0  0  0  0  0  0  0
   -1.9007   -0.8088   -0.9991 H   0  0  0  0  0  0  0  0  0  0  0  0
   -0.4215   -0.5055    1.5802 H   0  0  0  0  0  0  0  0  0  0  0  0
   -1.0017   -2.0198    0.7972 H   0  0  0  0  0  0  0  0  0  0  0  0
    1.7687   -2.6401   -0.7456 H   0  0  0  0  0  0  0  0  0  0  0  0
    2.2596    0.2273   -1.1192 H   0  0  0  0  0  0  0  0  0  0  0  0
    1.3367    0.5159    1.7422 H   0  0  0  0  0  0  0  0  0  0  0  0
    1.0599    2.0523    0.7640 H   0  0  0  0  0  0  0  0  0  0  0  0
    2.6779    1.3425    0.9311 H   0  0  0  0  0  0  0  0  0  0  0  0
    0.0318    0.0164   -2.1998 H   0  0  0  0  0  0  0  0  0  0  0  0
  1  2  1  0
  2  3  1  0
  3  4  1  0
  4  5  1  0
  4  6  1  0
  6  7  1  0
  6  8  1  0
  8  2  1  0
  8  4  1  0
  1  9  1  0
  1 10  1  0
  1 11  1  0
  2 12  1  0
  3 13  1  0
  3 14  1  0
  5 15  1  0
  6 16  1  0
  7 17  1  0
  7 18  1  0
  7 19  1  0
  8 20  1  0
M  END
