
     RDKit          3D

 20 20  0  0  0  0  0  0  0  0999 V2000
    2.2508   -0.0890    0.4199 C   0  0  0  0  0  0  0  0  0  0  0  0
    1.0496    0.4032   -0.3277 C   0  0  0  0  0  0  0  0  0  0  0  0
   -0.0392    0.8727    0.6369 C   0  0  0  0  0  0  0  0  0  0  0  0
   -0.6167    2.0762    0.2504 O   0  0  0  0  0  0  0  0  0  0  0  0
   -0.8669   -0.3488    0.3289 C   0  0  0  0  0  0  0  0  0  0  0  0
   -2.2816   -0.1056   -0.0841 C   0  0  0  0  0  0  0  0  0  0  0  0
    0.0932   -0.6324   -0.8212 C   0  0  0  0  0  0  0  0  0  0  0  0
    0.5349   -1.9401   -0.8124 O   0  0  0  0  0  0  0  0  0  0  0  0
    1.9585   -0.6652    1.3204 H   0  0  0  0  0  0  0  0  0  0  0  0
    2.7931    0.8157    0.7963 H   0  0  0  0  0  0  0  0  0  0  0  0
    2.9627   -0.6436   -0.1974 H   0  0  0  0  0  0  0  0  0  0  0  0
    1.3243    1.1566   -1.0990 H   0  0  0  0  0  0  0  0  0  0  0  0
    0.2827    0.8920    1.6790 H   0  0  0  0  0  0  0  0  0  0  0  0
   -0.0676    2.4611   -0.4649 H   0  0  0  0  0  0  0  0  0  0  0  0
   -0.8051   -1.1377    1.1100 H   0  0  0  0  0  0  0  0  0  0  0  0
   -2.5931   -0.9356   -0.7789 H   0  0  0  0  0  0  0  0  0  0  0  0
   -2.4482    0.8570   -0.5889 H   0  0  0  0  0  0  0  0  0  0  0  0
   -2.9351   -0.2180    0.8050 H   0  0  0  0  0  0  0  0  0  0  0  0
   -0.3889   -0.3355   -1.7711 H   0  0  0  0  0  0  0  0  0  0  0  0
   -0.2075   -2.4830   -0.4012 H   0  0  0  0  0  0  0  0  0  0  0  0
  1  2  1  0
  2  3  1  0
  3  4  1  0
  3  5  1  0
  5  6  1  0
  5  7  1  0
  7  8  1  0
  7  2  1  0
  1  9  1  0
  1 10  1  0
  1 11  1  0
  2 12  1  0
  3 13  1  0
  4 14  1  0
  5 15  1  0
  6 16  1  0
  6 17  1  0
  6 18  1  0
  7 19  1  0
  8 20  1  0
M  END
