
     RDKit          3D

 25 26  0  0  0  0  0  0  0  0999 V2000
    2.7315   -0.7642    0.3571 C   0  0  0  0  0  0  0  0  0  0  0  0
    1.8080   -0.0876   -0.6247 C   0  0  0  0  0  0  0  0  0  0  0  0
    1.4533    1.3665   -0.3119 C   0  0  0  0  0  0  0  0  0  0  0  0
    0.4190    0.2691   -0.2511 C   0  0  0  0  0  0  0  0  0  0  0  0
   -0.5890    0.2525   -1.3515 C   0  0  0  0  0  0  0  0  0  0  0  0
   -1.7909   -0.6201   -1.0206 C   0  0  0  0  0  0  0  0  0  0  0  0
   -2.4381    0.0017    0.2078 C   0  0  0  0  0  0  0  0  0  0  0  0
   -1.5004    0.1139    1.3646 C   0  0  0  0  0  0  0  0  0  0  0  0
   -0.0855   -0.2113    1.0670 C   0  0  0  0  0  0  0  0  0  0  0  0
    3.5365   -1.3310   -0.1727 H   0  0  0  0  0  0  0  0  0  0  0  0
    3.2327   -0.0145    1.0050 H   0  0  0  0  0  0  0  0  0  0  0  0
    2.1954   -1.5257    0.9772 H   0  0  0  0  0  0  0  0  0  0  0  0
    2.0235   -0.3001   -1.7007 H   0  0  0  0  0  0  0  0  0  0  0  0
    1.7493    1.7551    0.6967 H   0  0  0  0  0  0  0  0  0  0  0  0
    1.4716    2.0653   -1.1688 H   0  0  0  0  0  0  0  0  0  0  0  0
   -0.9809    1.3035   -1.4516 H   0  0  0  0  0  0  0  0  0  0  0  0
   -0.2069   -0.1013   -2.3222 H   0  0  0  0  0  0  0  0  0  0  0  0
   -2.5312   -0.4789   -1.8494 H   0  0  0  0  0  0  0  0  0  0  0  0
   -1.4954   -1.6611   -0.8708 H   0  0  0  0  0  0  0  0  0  0  0  0
   -3.3860   -0.5333    0.4462 H   0  0  0  0  0  0  0  0  0  0  0  0
   -2.7548    1.0279   -0.1110 H   0  0  0  0  0  0  0  0  0  0  0  0
   -1.6240    1.1147    1.8542 H   0  0  0  0  0  0  0  0  0  0  0  0
   -1.8636   -0.6164    2.1463 H   0  0  0  0  0  0  0  0  0  0  0  0
    0.0776   -1.3129    1.2261 H   0  0  0  0  0  0  0  0  0  0  0  0
    0.5484    0.2881    1.8590 H   0  0  0  0  0  0  0  0  0  0  0  0
  1  2  1  0
  2  3  1  0
  3  4  1  0
  4  5  1  0
  5  6  1  0
  6  7  1  0
  7  8  1  0
  8  9  1  0
  4  2  1  0
  9  4  1  0
  1 10  1  0
  1 11  1  0
  1 12  1  0
  2 13  1  0
  3 14  1  0
  3 15  1  0
  5 16  1  0
  5 17  1  0
  6 18  1  0
  6 19  1  0
  7 20  1  0
  7 21  1  0
  8 22  1  0
  8 23  1  0
  9 24  1  0
  9 25  1  0
M  END
