
     RDKit          3D

 23 24  0  0  0  0  0  0  0  0999 V2000
   -2.7435    0.1177   -0.0593 C   0  0  0  0  0  0  0  0  0  0  0  0
   -1.2677   -0.3045   -0.0602 C   0  0  0  0  0  0  0  0  0  0  0  0
   -0.6210    0.3209   -1.2466 C   0  0  0  0  0  0  0  0  0  0  0  0
    0.8398    0.4758   -1.1898 C   0  0  0  0  0  0  0  0  0  0  0  0
    1.5236    0.3435    0.0949 C   0  0  0  0  0  0  0  0  0  0  0  0
    0.7620   -0.0833    1.2711 C   0  0  0  0  0  0  0  0  0  0  0  0
   -0.6943    0.1947    1.2381 C   0  0  0  0  0  0  0  0  0  0  0  0
    2.9692   -0.1635    0.0434 C   0  0  0  0  0  0  0  0  0  0  0  0
    2.6584    1.2402    0.3163 O   0  0  0  0  0  0  0  0  0  0  0  0
   -3.1244    0.2858   -1.0708 H   0  0  0  0  0  0  0  0  0  0  0  0
   -3.3822   -0.5986    0.4505 H   0  0  0  0  0  0  0  0  0  0  0  0
   -2.8199    1.0903    0.4989 H   0  0  0  0  0  0  0  0  0  0  0  0
   -1.2676   -1.4060   -0.1340 H   0  0  0  0  0  0  0  0  0  0  0  0
   -0.9441   -0.2889   -2.1436 H   0  0  0  0  0  0  0  0  0  0  0  0
   -1.1341    1.3143   -1.4142 H   0  0  0  0  0  0  0  0  0  0  0  0
    1.2990   -0.2551   -1.9204 H   0  0  0  0  0  0  0  0  0  0  0  0
    1.1032    1.4819   -1.6349 H   0  0  0  0  0  0  0  0  0  0  0  0
    1.1829    0.4110    2.1905 H   0  0  0  0  0  0  0  0  0  0  0  0
    0.9113   -1.1789    1.4382 H   0  0  0  0  0  0  0  0  0  0  0  0
   -1.2219   -0.3044    2.0569 H   0  0  0  0  0  0  0  0  0  0  0  0
   -0.8310    1.3101    1.2394 H   0  0  0  0  0  0  0  0  0  0  0  0
    3.3978   -0.6002    0.9704 H   0  0  0  0  0  0  0  0  0  0  0  0
    3.4046   -0.3590   -0.9347 H   0  0  0  0  0  0  0  0  0  0  0  0
  1  2  1  0
  2  3  1  0
  3  4  1  0
  4  5  1  0
  5  6  1  0
  6  7  1  0
  5  8  1  0
  8  9  1  0
  7  2  1  0
  9  5  1  0
  1 10  1  0
  1 11  1  0
  1 12  1  0
  2 13  1  0
  3 14  1  0
  3 15  1  0
  4 16  1  0
  4 17  1  0
  6 18  1  0
  6 19  1  0
  7 20  1  0
  7 21  1  0
  8 22  1  0
  8 23  1  0
M  END
