
     RDKit          3D

 21 23  0  0  0  0  0  0  0  0999 V2000
   -2.5633   -0.7355    0.2224 C   0  0  0  0  0  0  0  0  0  0  0  0
   -1.4783   -0.2085   -0.6468 C   0  0  0  0  0  0  0  0  0  0  0  0
   -1.1567    1.3048   -0.4805 C   0  0  0  0  0  0  0  0  0  0  0  0
   -0.1891    0.2611   -0.1916 C   0  0  0  0  0  0  0  0  0  0  0  0
    0.2597    0.0665    1.1399 O   0  0  0  0  0  0  0  0  0  0  0  0
    1.6093   -0.0992    0.9778 C   0  0  0  0  0  0  0  0  0  0  0  0
    2.0432    0.8800   -0.1248 C   0  0  0  0  0  0  0  0  0  0  0  0
    1.0667    0.0212   -0.9406 C   0  0  0  0  0  0  0  0  0  0  0  0
    1.6531   -1.1515   -0.1434 C   0  0  0  0  0  0  0  0  0  0  0  0
   -2.3996   -1.7722    0.5556 H   0  0  0  0  0  0  0  0  0  0  0  0
   -3.5244   -0.6575   -0.3545 H   0  0  0  0  0  0  0  0  0  0  0  0
   -2.6925   -0.0733    1.1092 H   0  0  0  0  0  0  0  0  0  0  0  0
   -1.5407   -0.5430   -1.7227 H   0  0  0  0  0  0  0  0  0  0  0  0
   -1.1813    1.9134   -1.3842 H   0  0  0  0  0  0  0  0  0  0  0  0
   -1.6348    1.7973    0.4150 H   0  0  0  0  0  0  0  0  0  0  0  0
    2.2633   -0.2339    1.7981 H   0  0  0  0  0  0  0  0  0  0  0  0
    1.6995    1.9068    0.0294 H   0  0  0  0  0  0  0  0  0  0  0  0
    3.0570    0.7047   -0.4654 H   0  0  0  0  0  0  0  0  0  0  0  0
    1.1399    0.0169   -1.9827 H   0  0  0  0  0  0  0  0  0  0  0  0
    0.9191   -1.9350    0.1120 H   0  0  0  0  0  0  0  0  0  0  0  0
    2.6498   -1.4630   -0.4421 H   0  0  0  0  0  0  0  0  0  0  0  0
  1  2  1  0
  2  3  1  0
  3  4  1  0
  4  5  1  0
  5  6  1  0
  6  7  1  0
  7  8  1  0
  8  9  1  0
  4  2  1  0
  9  6  1  0
  8  4  1  0
  1 10  1  0
  1 11  1  0
  1 12  1  0
  2 13  1  0
  3 14  1  0
  3 15  1  0
  6 16  1  0
  7 17  1  0
  7 18  1  0
  8 19  1  0
  9 20  1  0
  9 21  1  0
M  END
