
     RDKit          3D

 21 22  0  0  0  0  0  0  0  0999 V2000
   -1.9996   -1.1013   -0.2682 C   0  0  0  0  0  0  0  0  0  0  0  0
   -1.3096    0.0092    0.5253 C   0  0  0  0  0  0  0  0  0  0  0  0
    0.1095   -0.2974    0.8409 C   0  0  0  0  0  0  0  0  0  0  0  0
    0.8661   -0.9228   -0.2965 C   0  0  0  0  0  0  0  0  0  0  0  0
    2.2293   -1.3947    0.0029 C   0  0  0  0  0  0  0  0  0  0  0  0
    2.3455   -2.4823    0.5435 O   0  0  0  0  0  0  0  0  0  0  0  0
    0.7422    0.3596   -1.0452 C   0  0  0  0  0  0  0  0  0  0  0  0
   -0.3030    0.8686   -0.1132 C   0  0  0  0  0  0  0  0  0  0  0  0
   -0.1226    2.2666    0.4381 C   0  0  0  0  0  0  0  0  0  0  0  0
   -1.7530   -1.0398   -1.3422 H   0  0  0  0  0  0  0  0  0  0  0  0
   -1.6039   -2.0781    0.1360 H   0  0  0  0  0  0  0  0  0  0  0  0
   -3.0887   -1.1220   -0.0663 H   0  0  0  0  0  0  0  0  0  0  0  0
   -1.9426    0.4650    1.2864 H   0  0  0  0  0  0  0  0  0  0  0  0
    0.5947   -0.0191    1.7695 H   0  0  0  0  0  0  0  0  0  0  0  0
    0.2958   -1.7310   -0.8376 H   0  0  0  0  0  0  0  0  0  0  0  0
    3.1418   -0.8575   -0.2163 H   0  0  0  0  0  0  0  0  0  0  0  0
    0.4700    0.2952   -2.1062 H   0  0  0  0  0  0  0  0  0  0  0  0
    1.6967    0.9441   -0.9557 H   0  0  0  0  0  0  0  0  0  0  0  0
    0.8131    2.3875    1.0069 H   0  0  0  0  0  0  0  0  0  0  0  0
   -0.2017    2.9603   -0.4129 H   0  0  0  0  0  0  0  0  0  0  0  0
   -0.9800    2.4896    1.1107 H   0  0  0  0  0  0  0  0  0  0  0  0
  1  2  1  0
  2  3  1  0
  3  4  1  0
  4  5  1  0
  5  6  2  0
  4  7  1  0
  7  8  1  0
  8  9  1  0
  8  2  1  0
  8  3  1  0
  1 10  1  0
  1 11  1  0
  1 12  1  0
  2 13  1  0
  3 14  1  0
  4 15  1  0
  5 16  1  0
  7 17  1  0
  7 18  1  0
  9 19  1  0
  9 20  1  0
  9 21  1  0
M  END
