
     RDKit          3D

 22 22  0  0  0  0  0  0  0  0999 V2000
    2.4384    0.0242   -0.3617 C   0  0  0  0  0  0  0  0  0  0  0  0
    0.9087   -0.0135   -0.5088 C   0  0  0  0  0  0  0  0  0  0  0  0
    0.4261   -0.9988    0.5003 C   0  0  0  0  0  0  0  0  0  0  0  0
   -1.0096   -1.3233    0.4663 C   0  0  0  0  0  0  0  0  0  0  0  0
   -1.8801   -0.4155   -0.3186 C   0  0  0  0  0  0  0  0  0  0  0  0
   -1.7262    1.0250    0.1414 C   0  0  0  0  0  0  0  0  0  0  0  0
   -0.8410    1.6354   -0.7362 O   0  0  0  0  0  0  0  0  0  0  0  0
    0.4392    1.3896   -0.2694 C   0  0  0  0  0  0  0  0  0  0  0  0
    2.8946   -0.9459   -0.5533 H   0  0  0  0  0  0  0  0  0  0  0  0
    2.5973    0.2298    0.7387 H   0  0  0  0  0  0  0  0  0  0  0  0
    2.8797    0.8756   -0.8872 H   0  0  0  0  0  0  0  0  0  0  0  0
    0.6584   -0.2848   -1.5433 H   0  0  0  0  0  0  0  0  0  0  0  0
    1.0072   -1.9480    0.3347 H   0  0  0  0  0  0  0  0  0  0  0  0
    0.7876   -0.6386    1.5084 H   0  0  0  0  0  0  0  0  0  0  0  0
   -1.2156   -2.3757    0.1166 H   0  0  0  0  0  0  0  0  0  0  0  0
   -1.3934   -1.3212    1.5295 H   0  0  0  0  0  0  0  0  0  0  0  0
   -1.7843   -0.5155   -1.4133 H   0  0  0  0  0  0  0  0  0  0  0  0
   -2.9509   -0.6799   -0.0705 H   0  0  0  0  0  0  0  0  0  0  0  0
   -1.2505    1.0018    1.1583 H   0  0  0  0  0  0  0  0  0  0  0  0
   -2.6799    1.5453    0.2481 H   0  0  0  0  0  0  0  0  0  0  0  0
    0.5740    1.6739    0.7886 H   0  0  0  0  0  0  0  0  0  0  0  0
    1.1204    2.0602   -0.8687 H   0  0  0  0  0  0  0  0  0  0  0  0
  1  2  1  0
  2  3  1  0
  3  4  1  0
  4  5  1  0
  5  6  1  0
  6  7  1  0
  7  8  1  0
  8  2  1  0
  1  9  1  0
  1 10  1  0
  1 11  1  0
  2 12  1  0
  3 13  1  0
  3 14  1  0
  4 15  1  0
  4 16  1  0
  5 17  1  0
  5 18  1  0
  6 19  1  0
  6 20  1  0
  8 21  1  0
  8 22  1  0
M  END
