
     RDKit          3D

 20 21  0  0  0  0  0  0  0  0999 V2000
    2.0932    1.0858    0.5190 C   0  0  0  0  0  0  0  0  0  0  0  0
    1.0510    0.0022    0.6408 C   0  0  0  0  0  0  0  0  0  0  0  0
    1.3852   -1.0494   -0.4395 C   0  0  0  0  0  0  0  0  0  0  0  0
    0.1891   -1.1764   -1.1976 O   0  0  0  0  0  0  0  0  0  0  0  0
   -0.7209   -1.0566   -0.1886 C   0  0  0  0  0  0  0  0  0  0  0  0
   -1.5854   -0.0519    0.2643 C   0  0  0  0  0  0  0  0  0  0  0  0
   -2.6703    0.3879   -0.7301 C   0  0  0  0  0  0  0  0  0  0  0  0
   -0.2742    0.4287    0.1328 C   0  0  0  0  0  0  0  0  0  0  0  0
    2.7418    0.9536   -0.3864 H   0  0  0  0  0  0  0  0  0  0  0  0
    2.7515    1.1090    1.4278 H   0  0  0  0  0  0  0  0  0  0  0  0
    1.6149    2.0757    0.3980 H   0  0  0  0  0  0  0  0  0  0  0  0
    1.0357   -0.4569    1.6420 H   0  0  0  0  0  0  0  0  0  0  0  0
    1.5088   -2.0159    0.0835 H   0  0  0  0  0  0  0  0  0  0  0  0
    2.2272   -0.7513   -1.0514 H   0  0  0  0  0  0  0  0  0  0  0  0
   -0.4466   -1.8299    0.5971 H   0  0  0  0  0  0  0  0  0  0  0  0
   -2.0218   -0.0874    1.2898 H   0  0  0  0  0  0  0  0  0  0  0  0
   -3.1838   -0.5351   -1.0718 H   0  0  0  0  0  0  0  0  0  0  0  0
   -2.1745    0.8427   -1.6132 H   0  0  0  0  0  0  0  0  0  0  0  0
   -3.4137    1.0440   -0.2607 H   0  0  0  0  0  0  0  0  0  0  0  0
   -0.1070    1.0814   -0.7809 H   0  0  0  0  0  0  0  0  0  0  0  0
  1  2  1  0
  2  3  1  0
  3  4  1  0
  4  5  1  0
  5  6  1  0
  6  7  1  0
  6  8  1  0
  8  2  1  0
  8  5  1  0
  1  9  1  0
  1 10  1  0
  1 11  1  0
  2 12  1  0
  3 13  1  0
  3 14  1  0
  5 15  1  0
  6 16  1  0
  7 17  1  0
  7 18  1  0
  7 19  1  0
  8 20  1  0
M  END
