
     RDKit          3D

 23 24  0  0  0  0  0  0  0  0999 V2000
    2.8692    0.4316   -0.1326 C   0  0  0  0  0  0  0  0  0  0  0  0
    1.6714   -0.2245   -0.8442 C   0  0  0  0  0  0  0  0  0  0  0  0
    0.6454   -0.9250   -0.1356 C   0  0  0  0  0  0  0  0  0  0  0  0
   -0.8552   -0.8879   -0.3162 C   0  0  0  0  0  0  0  0  0  0  0  0
   -1.5744   -1.8045    0.6133 C   0  0  0  0  0  0  0  0  0  0  0  0
   -0.6264    0.5351    0.2437 C   0  0  0  0  0  0  0  0  0  0  0  0
   -1.7458    1.4925   -0.0911 C   0  0  0  0  0  0  0  0  0  0  0  0
   -0.2481    0.6015    1.5505 O   0  0  0  0  0  0  0  0  0  0  0  0
    0.4517    0.4998   -0.8116 C   0  0  0  0  0  0  0  0  0  0  0  0
    3.1078    1.3617   -0.6832 H   0  0  0  0  0  0  0  0  0  0  0  0
    2.6751    0.5762    0.9348 H   0  0  0  0  0  0  0  0  0  0  0  0
    3.7749   -0.2147   -0.2208 H   0  0  0  0  0  0  0  0  0  0  0  0
    2.0576   -0.7367   -1.7768 H   0  0  0  0  0  0  0  0  0  0  0  0
    0.8232   -0.8778    0.9865 H   0  0  0  0  0  0  0  0  0  0  0  0
   -1.2274   -0.8381   -1.3360 H   0  0  0  0  0  0  0  0  0  0  0  0
   -1.1623   -1.7017    1.6370 H   0  0  0  0  0  0  0  0  0  0  0  0
   -2.6630   -1.6946    0.5717 H   0  0  0  0  0  0  0  0  0  0  0  0
   -1.3420   -2.8555    0.2876 H   0  0  0  0  0  0  0  0  0  0  0  0
   -1.2923    2.4777   -0.4064 H   0  0  0  0  0  0  0  0  0  0  0  0
   -2.3904    1.7151    0.7595 H   0  0  0  0  0  0  0  0  0  0  0  0
   -2.3456    1.1635   -0.9652 H   0  0  0  0  0  0  0  0  0  0  0  0
   -0.5011    1.4555    1.9416 H   0  0  0  0  0  0  0  0  0  0  0  0
   -0.1026    0.4508   -1.8066 H   0  0  0  0  0  0  0  0  0  0  0  0
  1  2  1  0
  2  3  1  0
  3  4  1  0
  4  5  1  0
  4  6  1  0
  6  7  1  0
  6  8  1  0
  6  9  1  0
  9  2  1  0
  9  3  1  0
  1 10  1  0
  1 11  1  0
  1 12  1  0
  2 13  1  0
  3 14  1  0
  4 15  1  0
  5 16  1  0
  5 17  1  0
  5 18  1  0
  7 19  1  0
  7 20  1  0
  7 21  1  0
  8 22  1  0
  9 23  1  0
M  END
