
     RDKit          3D

 21 22  0  0  0  0  0  0  0  0999 V2000
    1.5738    1.2250    0.1213 C   0  0  0  0  0  0  0  0  0  0  0  0
    1.2407   -0.1658    0.5947 C   0  0  0  0  0  0  0  0  0  0  0  0
    1.2930   -1.1771   -0.5605 C   0  0  0  0  0  0  0  0  0  0  0  0
   -0.1950   -0.8513   -0.7566 C   0  0  0  0  0  0  0  0  0  0  0  0
   -0.2020   -0.4978    0.7357 C   0  0  0  0  0  0  0  0  0  0  0  0
   -0.3702   -1.6217    1.5470 O   0  0  0  0  0  0  0  0  0  0  0  0
   -1.1385    0.5855    1.1282 C   0  0  0  0  0  0  0  0  0  0  0  0
   -2.2311    0.9950    0.1616 C   0  0  0  0  0  0  0  0  0  0  0  0
   -1.1308    1.7857    0.4454 O   0  0  0  0  0  0  0  0  0  0  0  0
    2.6093    1.2391   -0.3187 H   0  0  0  0  0  0  0  0  0  0  0  0
    1.6211    1.8992    1.0016 H   0  0  0  0  0  0  0  0  0  0  0  0
    0.9107    1.5917   -0.6751 H   0  0  0  0  0  0  0  0  0  0  0  0
    1.8771   -0.4484    1.4458 H   0  0  0  0  0  0  0  0  0  0  0  0
    1.4093   -2.1794   -0.1403 H   0  0  0  0  0  0  0  0  0  0  0  0
    1.9358   -0.8874   -1.3933 H   0  0  0  0  0  0  0  0  0  0  0  0
   -0.3733    0.0586   -1.3333 H   0  0  0  0  0  0  0  0  0  0  0  0
   -0.7384   -1.7565   -1.0203 H   0  0  0  0  0  0  0  0  0  0  0  0
   -1.1225   -2.1930    1.2538 H   0  0  0  0  0  0  0  0  0  0  0  0
   -1.4837    0.5698    2.1827 H   0  0  0  0  0  0  0  0  0  0  0  0
   -2.2997    0.4220   -0.7689 H   0  0  0  0  0  0  0  0  0  0  0  0
   -3.1856    1.4070    0.5745 H   0  0  0  0  0  0  0  0  0  0  0  0
  1  2  1  0
  2  3  1  0
  3  4  1  0
  4  5  1  0
  5  6  1  0
  5  7  1  0
  7  8  1  0
  8  9  1  0
  5  2  1  0
  9  7  1  0
  1 10  1  0
  1 11  1  0
  1 12  1  0
  2 13  1  0
  3 14  1  0
  3 15  1  0
  4 16  1  0
  4 17  1  0
  6 18  1  0
  7 19  1  0
  8 20  1  0
  8 21  1  0
M  END
