
     RDKit          3D

 19 20  0  0  0  0  0  0  0  0999 V2000
    2.2286    0.4616   -0.5155 C   0  0  0  0  0  0  0  0  0  0  0  0
    1.1354   -0.3478    0.1240 C   0  0  0  0  0  0  0  0  0  0  0  0
    0.0959    0.5138    0.8033 C   0  0  0  0  0  0  0  0  0  0  0  0
   -1.0770    0.5945   -0.0955 C   0  0  0  0  0  0  0  0  0  0  0  0
   -2.2842   -0.2002    0.2232 C   0  0  0  0  0  0  0  0  0  0  0  0
   -1.9636   -1.2058   -0.7063 O   0  0  0  0  0  0  0  0  0  0  0  0
   -0.8777   -0.4500   -1.1458 C   0  0  0  0  0  0  0  0  0  0  0  0
    0.3836   -1.1717   -0.8283 C   0  0  0  0  0  0  0  0  0  0  0  0
    0.6892   -2.2418   -1.2961 O   0  0  0  0  0  0  0  0  0  0  0  0
    3.2068   -0.0599   -0.3314 H   0  0  0  0  0  0  0  0  0  0  0  0
    2.0699    0.6330   -1.5969 H   0  0  0  0  0  0  0  0  0  0  0  0
    2.3207    1.4440   -0.0091 H   0  0  0  0  0  0  0  0  0  0  0  0
    1.5659   -1.0059    0.8917 H   0  0  0  0  0  0  0  0  0  0  0  0
   -0.1140    0.2071    1.8352 H   0  0  0  0  0  0  0  0  0  0  0  0
    0.5487    1.5421    0.8721 H   0  0  0  0  0  0  0  0  0  0  0  0
   -1.3188    1.6255   -0.4759 H   0  0  0  0  0  0  0  0  0  0  0  0
   -3.2489    0.2698   -0.1200 H   0  0  0  0  0  0  0  0  0  0  0  0
   -2.4149   -0.5553    1.2577 H   0  0  0  0  0  0  0  0  0  0  0  0
   -0.9455   -0.0529   -2.1666 H   0  0  0  0  0  0  0  0  0  0  0  0
  1  2  1  0
  2  3  1  0
  3  4  1  0
  4  5  1  0
  5  6  1  0
  6  7  1  0
  7  8  1  0
  8  9  2  0
  8  2  1  0
  7  4  1  0
  1 10  1  0
  1 11  1  0
  1 12  1  0
  2 13  1  0
  3 14  1  0
  3 15  1  0
  4 16  1  0
  5 17  1  0
  5 18  1  0
  7 19  1  0
M  END
