
     RDKit          3D

 23 24  0  0  0  0  0  0  0  0999 V2000
    2.6059    0.0812    0.1863 C   0  0  0  0  0  0  0  0  0  0  0  0
    1.0763    0.1895    0.3410 C   0  0  0  0  0  0  0  0  0  0  0  0
    0.5755   -1.2159    0.2338 C   0  0  0  0  0  0  0  0  0  0  0  0
   -0.9194   -1.3476    0.2505 C   0  0  0  0  0  0  0  0  0  0  0  0
   -1.5723   -0.2555   -0.5067 C   0  0  0  0  0  0  0  0  0  0  0  0
   -2.6835    0.5582   -0.0501 C   0  0  0  0  0  0  0  0  0  0  0  0
   -1.3673    1.0288    0.3290 C   0  0  0  0  0  0  0  0  0  0  0  0
   -0.5469    1.8295   -0.4030 O   0  0  0  0  0  0  0  0  0  0  0  0
    0.6085    1.1155   -0.7188 C   0  0  0  0  0  0  0  0  0  0  0  0
    3.0104   -0.5528    0.9700 H   0  0  0  0  0  0  0  0  0  0  0  0
    2.7888   -0.4435   -0.7902 H   0  0  0  0  0  0  0  0  0  0  0  0
    3.0753    1.0678    0.1314 H   0  0  0  0  0  0  0  0  0  0  0  0
    0.9469    0.6230    1.3739 H   0  0  0  0  0  0  0  0  0  0  0  0
    1.0069   -1.6795   -0.6642 H   0  0  0  0  0  0  0  0  0  0  0  0
    0.9638   -1.7752    1.1126 H   0  0  0  0  0  0  0  0  0  0  0  0
   -1.1630   -2.3175   -0.2634 H   0  0  0  0  0  0  0  0  0  0  0  0
   -1.3388   -1.3981    1.2617 H   0  0  0  0  0  0  0  0  0  0  0  0
   -1.3097   -0.2164   -1.5822 H   0  0  0  0  0  0  0  0  0  0  0  0
   -3.2890    1.0826   -0.8443 H   0  0  0  0  0  0  0  0  0  0  0  0
   -3.3649    0.2136    0.7718 H   0  0  0  0  0  0  0  0  0  0  0  0
   -1.0688    0.9132    1.3905 H   0  0  0  0  0  0  0  0  0  0  0  0
    0.5581    0.5926   -1.6781 H   0  0  0  0  0  0  0  0  0  0  0  0
    1.4073    1.9064   -0.8516 H   0  0  0  0  0  0  0  0  0  0  0  0
  1  2  1  0
  2  3  1  0
  3  4  1  0
  4  5  1  0
  5  6  1  0
  6  7  1  0
  7  8  1  0
  8  9  1  0
  9  2  1  0
  7  5  1  0
  1 10  1  0
  1 11  1  0
  1 12  1  0
  2 13  1  0
  3 14  1  0
  3 15  1  0
  4 16  1  0
  4 17  1  0
  5 18  1  0
  6 19  1  0
  6 20  1  0
  7 21  1  0
  9 22  1  0
  9 23  1  0
M  END
