
     RDKit          3D

 19 20  0  0  0  0  0  0  0  0999 V2000
    2.0073   -0.5459   -0.1131 C   0  0  0  0  0  0  0  0  0  0  0  0
    0.5859   -0.3362   -0.5677 C   0  0  0  0  0  0  0  0  0  0  0  0
   -0.2584   -1.5141   -0.2086 C   0  0  0  0  0  0  0  0  0  0  0  0
    0.0943   -2.6691   -0.0588 O   0  0  0  0  0  0  0  0  0  0  0  0
   -1.6542   -1.0352   -0.0565 C   0  0  0  0  0  0  0  0  0  0  0  0
   -1.5584    0.4794   -0.0787 C   0  0  0  0  0  0  0  0  0  0  0  0
   -0.1127    0.7864    0.1007 C   0  0  0  0  0  0  0  0  0  0  0  0
    0.3844    1.7010    0.9786 C   0  0  0  0  0  0  0  0  0  0  0  0
    0.2029    2.1182   -0.4406 O   0  0  0  0  0  0  0  0  0  0  0  0
    1.9793   -1.2947    0.7051 H   0  0  0  0  0  0  0  0  0  0  0  0
    2.5296   -1.0682   -0.9670 H   0  0  0  0  0  0  0  0  0  0  0  0
    2.5239    0.3877    0.1555 H   0  0  0  0  0  0  0  0  0  0  0  0
    0.5561   -0.1463   -1.6725 H   0  0  0  0  0  0  0  0  0  0  0  0
   -2.2357   -1.4214   -0.9422 H   0  0  0  0  0  0  0  0  0  0  0  0
   -2.1474   -1.4110    0.8553 H   0  0  0  0  0  0  0  0  0  0  0  0
   -1.8943    0.8036   -1.0950 H   0  0  0  0  0  0  0  0  0  0  0  0
   -2.2322    0.9558    0.6376 H   0  0  0  0  0  0  0  0  0  0  0  0
   -0.2516    2.3758    1.5838 H   0  0  0  0  0  0  0  0  0  0  0  0
    1.4810    1.8342    1.1842 H   0  0  0  0  0  0  0  0  0  0  0  0
  1  2  1  0
  2  3  1  0
  3  4  2  0
  3  5  1  0
  5  6  1  0
  6  7  1  0
  7  8  1  0
  8  9  1  0
  7  2  1  0
  9  7  1  0
  1 10  1  0
  1 11  1  0
  1 12  1  0
  2 13  1  0
  5 14  1  0
  5 15  1  0
  6 16  1  0
  6 17  1  0
  8 18  1  0
  8 19  1  0
M  END
