
     RDKit          3D

 21 21  0  0  0  0  0  0  0  0999 V2000
   -1.2325    1.8214   -0.1473 C   0  0  0  0  0  0  0  0  0  0  0  0
   -0.2554    0.7865   -0.5673 C   0  0  0  0  0  0  0  0  0  0  0  0
    0.9228    0.6400    0.3746 C   0  0  0  0  0  0  0  0  0  0  0  0
    1.8693   -0.3464   -0.3171 C   0  0  0  0  0  0  0  0  0  0  0  0
    1.1239   -1.6427   -0.4516 C   0  0  0  0  0  0  0  0  0  0  0  0
   -0.0555   -1.5318   -1.1684 O   0  0  0  0  0  0  0  0  0  0  0  0
   -0.9146   -0.5837   -0.6913 C   0  0  0  0  0  0  0  0  0  0  0  0
   -1.5387   -0.9862    0.6176 C   0  0  0  0  0  0  0  0  0  0  0  0
   -2.3310   -0.2515    1.1807 O   0  0  0  0  0  0  0  0  0  0  0  0
   -1.0705    2.1133    0.9307 H   0  0  0  0  0  0  0  0  0  0  0  0
   -1.0184    2.7517   -0.7519 H   0  0  0  0  0  0  0  0  0  0  0  0
   -2.2910    1.5607   -0.2951 H   0  0  0  0  0  0  0  0  0  0  0  0
    0.1728    1.0019   -1.5715 H   0  0  0  0  0  0  0  0  0  0  0  0
    1.3953    1.6343    0.4746 H   0  0  0  0  0  0  0  0  0  0  0  0
    0.6164    0.2656    1.3777 H   0  0  0  0  0  0  0  0  0  0  0  0
    2.1325    0.1170   -1.2804 H   0  0  0  0  0  0  0  0  0  0  0  0
    2.7635   -0.5388    0.3003 H   0  0  0  0  0  0  0  0  0  0  0  0
    1.7838   -2.3518   -1.0046 H   0  0  0  0  0  0  0  0  0  0  0  0
    0.9808   -2.0612    0.5589 H   0  0  0  0  0  0  0  0  0  0  0  0
   -1.7436   -0.4682   -1.4201 H   0  0  0  0  0  0  0  0  0  0  0  0
   -1.3101   -1.9301    1.1005 H   0  0  0  0  0  0  0  0  0  0  0  0
  1  2  1  0
  2  3  1  0
  3  4  1  0
  4  5  1  0
  5  6  1  0
  6  7  1  0
  7  8  1  0
  8  9  2  0
  7  2  1  0
  1 10  1  0
  1 11  1  0
  1 12  1  0
  2 13  1  0
  3 14  1  0
  3 15  1  0
  4 16  1  0
  4 17  1  0
  5 18  1  0
  5 19  1  0
  7 20  1  0
  8 21  1  0
M  END
