
     RDKit          3D

 21 22  0  0  0  0  0  0  0  0999 V2000
   -2.5001    0.5402   -0.3363 C   0  0  0  0  0  0  0  0  0  0  0  0
   -1.5744   -0.3227    0.4774 C   0  0  0  0  0  0  0  0  0  0  0  0
   -0.9835   -1.5617   -0.0536 C   0  0  0  0  0  0  0  0  0  0  0  0
   -0.1010   -0.3432    0.1716 C   0  0  0  0  0  0  0  0  0  0  0  0
    0.3373    0.4752   -0.9816 C   0  0  0  0  0  0  0  0  0  0  0  0
    1.6903    0.6124   -1.1350 O   0  0  0  0  0  0  0  0  0  0  0  0
    2.3186    0.9043    0.0961 C   0  0  0  0  0  0  0  0  0  0  0  0
    2.0722   -0.3466    0.9477 C   0  0  0  0  0  0  0  0  0  0  0  0
    0.7222   -0.3333    1.2621 O   0  0  0  0  0  0  0  0  0  0  0  0
   -3.4583   -0.0100   -0.4323 H   0  0  0  0  0  0  0  0  0  0  0  0
   -2.0911    0.8321   -1.3123 H   0  0  0  0  0  0  0  0  0  0  0  0
   -2.6834    1.4680    0.2740 H   0  0  0  0  0  0  0  0  0  0  0  0
   -1.9004   -0.3871    1.5582 H   0  0  0  0  0  0  0  0  0  0  0  0
   -1.0365   -1.8640   -1.1057 H   0  0  0  0  0  0  0  0  0  0  0  0
   -0.8116   -2.4357    0.6310 H   0  0  0  0  0  0  0  0  0  0  0  0
   -0.0603    0.0106   -1.9241 H   0  0  0  0  0  0  0  0  0  0  0  0
   -0.1389    1.4841   -0.9429 H   0  0  0  0  0  0  0  0  0  0  0  0
    1.8033    1.7393    0.6211 H   0  0  0  0  0  0  0  0  0  0  0  0
    3.3850    1.0721   -0.0542 H   0  0  0  0  0  0  0  0  0  0  0  0
    2.6542   -0.2791    1.8769 H   0  0  0  0  0  0  0  0  0  0  0  0
    2.3563   -1.2549    0.3617 H   0  0  0  0  0  0  0  0  0  0  0  0
  1  2  1  0
  2  3  1  0
  3  4  1  0
  4  5  1  0
  5  6  1  0
  6  7  1  0
  7  8  1  0
  8  9  1  0
  4  2  1  0
  9  4  1  0
  1 10  1  0
  1 11  1  0
  1 12  1  0
  2 13  1  0
  3 14  1  0
  3 15  1  0
  5 16  1  0
  5 17  1  0
  7 18  1  0
  7 19  1  0
  8 20  1  0
  8 21  1  0
M  END
