
     RDKit          3D

 21 22  0  0  0  0  0  0  0  0999 V2000
   -1.7817   -1.5061   -0.6894 C   0  0  0  0  0  0  0  0  0  0  0  0
   -0.9992   -0.4912    0.0889 C   0  0  0  0  0  0  0  0  0  0  0  0
   -1.4837    0.9289   -0.1702 C   0  0  0  0  0  0  0  0  0  0  0  0
   -0.3321    1.7706    0.3351 C   0  0  0  0  0  0  0  0  0  0  0  0
    0.8246    0.8673    0.3985 C   0  0  0  0  0  0  0  0  0  0  0  0
    2.0454    0.6440    0.8309 C   0  0  0  0  0  0  0  0  0  0  0  0
    2.4469   -0.6967    0.3378 C   0  0  0  0  0  0  0  0  0  0  0  0
    1.2406   -1.3687    0.1886 O   0  0  0  0  0  0  0  0  0  0  0  0
    0.4370   -0.3758   -0.3754 C   0  0  0  0  0  0  0  0  0  0  0  0
   -1.5336   -2.5082   -0.2579 H   0  0  0  0  0  0  0  0  0  0  0  0
   -2.8672   -1.3106   -0.5510 H   0  0  0  0  0  0  0  0  0  0  0  0
   -1.4758   -1.4954   -1.7538 H   0  0  0  0  0  0  0  0  0  0  0  0
   -0.9910   -0.7034    1.1735 H   0  0  0  0  0  0  0  0  0  0  0  0
   -1.5251    1.0302   -1.2823 H   0  0  0  0  0  0  0  0  0  0  0  0
   -2.4311    1.1486    0.3229 H   0  0  0  0  0  0  0  0  0  0  0  0
   -0.6490    2.1319    1.3566 H   0  0  0  0  0  0  0  0  0  0  0  0
   -0.2184    2.6229   -0.3429 H   0  0  0  0  0  0  0  0  0  0  0  0
    2.6608    1.3322    1.4502 H   0  0  0  0  0  0  0  0  0  0  0  0
    2.9495   -0.5568   -0.6608 H   0  0  0  0  0  0  0  0  0  0  0  0
    3.1286   -1.2108    1.0497 H   0  0  0  0  0  0  0  0  0  0  0  0
    0.5545   -0.2532   -1.4491 H   0  0  0  0  0  0  0  0  0  0  0  0
  1  2  1  0
  2  3  1  0
  3  4  1  0
  4  5  1  0
  5  6  2  0
  6  7  1  0
  7  8  1  0
  8  9  1  0
  9  2  1  0
  9  5  1  0
  1 10  1  0
  1 11  1  0
  1 12  1  0
  2 13  1  0
  3 14  1  0
  3 15  1  0
  4 16  1  0
  4 17  1  0
  6 18  1  0
  7 19  1  0
  7 20  1  0
  9 21  1  0
M  END
