
     RDKit          3D

 23 24  0  0  0  0  0  0  0  0999 V2000
   -1.0967    2.0635    0.4842 C   0  0  0  0  0  0  0  0  0  0  0  0
   -0.2507    0.8229    0.5729 C   0  0  0  0  0  0  0  0  0  0  0  0
    0.5879    0.3931   -0.6229 C   0  0  0  0  0  0  0  0  0  0  0  0
    2.0015    0.1131   -0.2768 C   0  0  0  0  0  0  0  0  0  0  0  0
    2.5268   -0.8442    0.6568 C   0  0  0  0  0  0  0  0  0  0  0  0
    2.4602   -1.2176   -0.6846 O   0  0  0  0  0  0  0  0  0  0  0  0
   -0.5882   -0.3779   -0.2605 C   0  0  0  0  0  0  0  0  0  0  0  0
   -1.7824   -0.2503   -1.2285 C   0  0  0  0  0  0  0  0  0  0  0  0
   -0.5757   -1.6806    0.4795 C   0  0  0  0  0  0  0  0  0  0  0  0
   -1.4772    2.2886   -0.5085 H   0  0  0  0  0  0  0  0  0  0  0  0
   -1.9447    1.9273    1.1900 H   0  0  0  0  0  0  0  0  0  0  0  0
   -0.4503    2.9353    0.7887 H   0  0  0  0  0  0  0  0  0  0  0  0
    0.1492    0.6486    1.5937 H   0  0  0  0  0  0  0  0  0  0  0  0
    0.4532    1.1184   -1.4890 H   0  0  0  0  0  0  0  0  0  0  0  0
    2.7486    0.8423   -0.7336 H   0  0  0  0  0  0  0  0  0  0  0  0
    3.5682   -0.6205    1.0610 H   0  0  0  0  0  0  0  0  0  0  0  0
    1.8514   -1.3873    1.3321 H   0  0  0  0  0  0  0  0  0  0  0  0
   -1.7281   -1.0489   -1.9992 H   0  0  0  0  0  0  0  0  0  0  0  0
   -1.7694    0.7056   -1.7606 H   0  0  0  0  0  0  0  0  0  0  0  0
   -2.7088   -0.3074   -0.6380 H   0  0  0  0  0  0  0  0  0  0  0  0
    0.1160   -2.4316    0.0989 H   0  0  0  0  0  0  0  0  0  0  0  0
   -0.4896   -1.5451    1.5796 H   0  0  0  0  0  0  0  0  0  0  0  0
   -1.6012   -2.1478    0.3648 H   0  0  0  0  0  0  0  0  0  0  0  0
  1  2  1  0
  2  3  1  0
  3  4  1  0
  4  5  1  0
  5  6  1  0
  3  7  1  0
  7  8  1  0
  7  9  1  0
  7  2  1  0
  6  4  1  0
  1 10  1  0
  1 11  1  0
  1 12  1  0
  2 13  1  0
  3 14  1  0
  4 15  1  0
  5 16  1  0
  5 17  1  0
  8 18  1  0
  8 19  1  0
  8 20  1  0
  9 21  1  0
  9 22  1  0
  9 23  1  0
M  END
