
     RDKit          3D

 23 23  0  0  0  0  0  0  0  0999 V2000
   -2.0991   -1.2553    0.2772 C   0  0  0  0  0  0  0  0  0  0  0  0
   -0.8926   -0.7731   -0.3607 C   0  0  0  0  0  0  0  0  0  0  0  0
    0.4000   -0.9636    0.4478 C   0  0  0  0  0  0  0  0  0  0  0  0
    1.2835   -0.1541   -0.4845 C   0  0  0  0  0  0  0  0  0  0  0  0
    2.6442    0.1078    0.0926 C   0  0  0  0  0  0  0  0  0  0  0  0
    2.5692    0.7641    1.2971 O   0  0  0  0  0  0  0  0  0  0  0  0
    0.5696    0.9978   -0.7117 O   0  0  0  0  0  0  0  0  0  0  0  0
   -0.7858    0.6740   -0.6826 C   0  0  0  0  0  0  0  0  0  0  0  0
   -1.4538    1.5933    0.2904 C   0  0  0  0  0  0  0  0  0  0  0  0
   -2.8132   -0.5077    0.6691 H   0  0  0  0  0  0  0  0  0  0  0  0
   -1.9180   -1.9678    1.1359 H   0  0  0  0  0  0  0  0  0  0  0  0
   -2.7076   -1.8730   -0.4491 H   0  0  0  0  0  0  0  0  0  0  0  0
   -0.6992   -1.3367   -1.3195 H   0  0  0  0  0  0  0  0  0  0  0  0
    0.3360   -0.4733    1.4333 H   0  0  0  0  0  0  0  0  0  0  0  0
    0.6930   -2.0212    0.4833 H   0  0  0  0  0  0  0  0  0  0  0  0
    1.3422   -0.7142   -1.4293 H   0  0  0  0  0  0  0  0  0  0  0  0
    3.1772   -0.8624    0.1470 H   0  0  0  0  0  0  0  0  0  0  0  0
    3.1872    0.7456   -0.6365 H   0  0  0  0  0  0  0  0  0  0  0  0
    3.1959    1.5391    1.3185 H   0  0  0  0  0  0  0  0  0  0  0  0
   -1.1601    0.8331   -1.7232 H   0  0  0  0  0  0  0  0  0  0  0  0
   -1.7463    1.1359    1.2365 H   0  0  0  0  0  0  0  0  0  0  0  0
   -0.7897    2.4690    0.5530 H   0  0  0  0  0  0  0  0  0  0  0  0
   -2.3325    2.0428   -0.2190 H   0  0  0  0  0  0  0  0  0  0  0  0
  1  2  1  0
  2  3  1  0
  3  4  1  0
  4  5  1  0
  5  6  1  0
  4  7  1  0
  7  8  1  0
  8  9  1  0
  8  2  1  0
  1 10  1  0
  1 11  1  0
  1 12  1  0
  2 13  1  0
  3 14  1  0
  3 15  1  0
  4 16  1  0
  5 17  1  0
  5 18  1  0
  6 19  1  0
  8 20  1  0
  9 21  1  0
  9 22  1  0
  9 23  1  0
M  END
