
     RDKit          3D

 19 21  0  0  0  0  0  0  0  0999 V2000
    1.9753   -0.3989    0.6805 C   0  0  0  0  0  0  0  0  0  0  0  0
    0.8421    0.3751    0.1335 C   0  0  0  0  0  0  0  0  0  0  0  0
   -0.4635    0.1353    0.9068 C   0  0  0  0  0  0  0  0  0  0  0  0
   -1.2684    1.1713    0.0939 C   0  0  0  0  0  0  0  0  0  0  0  0
   -1.0981    0.3417   -1.2012 C   0  0  0  0  0  0  0  0  0  0  0  0
   -1.8731   -0.7573   -0.7391 O   0  0  0  0  0  0  0  0  0  0  0  0
   -0.9501   -1.1295    0.2804 C   0  0  0  0  0  0  0  0  0  0  0  0
    0.0690   -1.5309   -0.6290 O   0  0  0  0  0  0  0  0  0  0  0  0
    0.2754   -0.2314   -1.1631 C   0  0  0  0  0  0  0  0  0  0  0  0
    1.9133   -1.4639    0.3874 H   0  0  0  0  0  0  0  0  0  0  0  0
    2.9183    0.0220    0.2919 H   0  0  0  0  0  0  0  0  0  0  0  0
    1.9717   -0.2709    1.7912 H   0  0  0  0  0  0  0  0  0  0  0  0
    1.0268    1.4241   -0.0610 H   0  0  0  0  0  0  0  0  0  0  0  0
   -0.4420    0.2585    1.9311 H   0  0  0  0  0  0  0  0  0  0  0  0
   -2.3027    1.2003    0.4207 H   0  0  0  0  0  0  0  0  0  0  0  0
   -0.7466    2.1214    0.0348 H   0  0  0  0  0  0  0  0  0  0  0  0
   -1.4465    0.8077   -2.0742 H   0  0  0  0  0  0  0  0  0  0  0  0
   -1.2954   -1.9038    0.9186 H   0  0  0  0  0  0  0  0  0  0  0  0
    0.8946   -0.1709   -2.0031 H   0  0  0  0  0  0  0  0  0  0  0  0
  1  2  1  0
  2  3  1  0
  3  4  1  0
  4  5  1  0
  5  6  1  0
  6  7  1  0
  7  8  1  0
  8  9  1  0
  9  2  1  0
  7  3  1  0
  9  5  1  0
  1 10  1  0
  1 11  1  0
  1 12  1  0
  2 13  1  0
  3 14  1  0
  4 15  1  0
  4 16  1  0
  5 17  1  0
  7 18  1  0
  9 19  1  0
M  END
