
     RDKit          3D

 20 21  0  0  0  0  0  0  0  0999 V2000
   -0.1227   -1.4573    1.2784 C   0  0  0  0  0  0  0  0  0  0  0  0
   -0.4945   -0.8938   -0.0566 C   0  0  0  0  0  0  0  0  0  0  0  0
   -1.0677    0.5299    0.0307 C   0  0  0  0  0  0  0  0  0  0  0  0
   -2.3505    0.7319   -0.7263 C   0  0  0  0  0  0  0  0  0  0  0  0
    0.1987    0.2110   -0.7030 C   0  0  0  0  0  0  0  0  0  0  0  0
    1.4349    0.8567   -0.1839 C   0  0  0  0  0  0  0  0  0  0  0  0
    2.6888    0.2244    0.0480 C   0  0  0  0  0  0  0  0  0  0  0  0
    2.5437    0.9311   -1.1740 O   0  0  0  0  0  0  0  0  0  0  0  0
    0.6899   -0.9408    1.7880 H   0  0  0  0  0  0  0  0  0  0  0  0
   -1.0312   -1.3405    1.9399 H   0  0  0  0  0  0  0  0  0  0  0  0
    0.0194   -2.5662    1.2075 H   0  0  0  0  0  0  0  0  0  0  0  0
   -1.0593   -1.6257   -0.6991 H   0  0  0  0  0  0  0  0  0  0  0  0
   -0.9820    1.0721    0.9742 H   0  0  0  0  0  0  0  0  0  0  0  0
   -2.2150    1.1259   -1.7393 H   0  0  0  0  0  0  0  0  0  0  0  0
   -3.0537    1.3610   -0.1432 H   0  0  0  0  0  0  0  0  0  0  0  0
   -2.8561   -0.2620   -0.8432 H   0  0  0  0  0  0  0  0  0  0  0  0
    0.0762    0.2818   -1.8196 H   0  0  0  0  0  0  0  0  0  0  0  0
    1.2838    1.8997    0.2058 H   0  0  0  0  0  0  0  0  0  0  0  0
    2.8730   -0.8456   -0.1044 H   0  0  0  0  0  0  0  0  0  0  0  0
    3.4243    0.7063    0.7201 H   0  0  0  0  0  0  0  0  0  0  0  0
  1  2  1  0
  2  3  1  0
  3  4  1  0
  3  5  1  0
  5  6  1  0
  6  7  1  0
  7  8  1  0
  5  2  1  0
  8  6  1  0
  1  9  1  0
  1 10  1  0
  1 11  1  0
  2 12  1  0
  3 13  1  0
  4 14  1  0
  4 15  1  0
  4 16  1  0
  5 17  1  0
  6 18  1  0
  7 19  1  0
  7 20  1  0
M  END
