
     RDKit          3D

 19 21  0  0  0  0  0  0  0  0999 V2000
   -1.9276   -1.0789    0.2704 C   0  0  0  0  0  0  0  0  0  0  0  0
   -1.3968    0.3363    0.2902 C   0  0  0  0  0  0  0  0  0  0  0  0
   -0.6013    0.8372    1.4254 C   0  0  0  0  0  0  0  0  0  0  0  0
    0.1319    0.3969    0.2293 C   0  0  0  0  0  0  0  0  0  0  0  0
    0.6224    1.2921   -0.8055 C   0  0  0  0  0  0  0  0  0  0  0  0
    1.6866    0.8143   -1.3959 C   0  0  0  0  0  0  0  0  0  0  0  0
    2.0226   -0.4878   -0.7955 C   0  0  0  0  0  0  0  0  0  0  0  0
    1.1486   -1.5509   -1.0005 O   0  0  0  0  0  0  0  0  0  0  0  0
    0.9113   -0.8555    0.1588 C   0  0  0  0  0  0  0  0  0  0  0  0
   -1.9645   -1.3959   -0.8042 H   0  0  0  0  0  0  0  0  0  0  0  0
   -2.9603   -1.1529    0.6558 H   0  0  0  0  0  0  0  0  0  0  0  0
   -1.2338   -1.7902    0.7672 H   0  0  0  0  0  0  0  0  0  0  0  0
   -1.9895    1.0409   -0.2974 H   0  0  0  0  0  0  0  0  0  0  0  0
   -0.6808    1.9300    1.6404 H   0  0  0  0  0  0  0  0  0  0  0  0
   -0.4750    0.2396    2.3644 H   0  0  0  0  0  0  0  0  0  0  0  0
    0.1831    2.2603   -1.0889 H   0  0  0  0  0  0  0  0  0  0  0  0
    2.2791    1.2748   -2.2220 H   0  0  0  0  0  0  0  0  0  0  0  0
    3.0641   -0.6884   -0.4805 H   0  0  0  0  0  0  0  0  0  0  0  0
    1.1800   -1.4220    1.0888 H   0  0  0  0  0  0  0  0  0  0  0  0
  1  2  1  0
  2  3  1  0
  3  4  1  0
  4  5  1  0
  5  6  2  0
  6  7  1  0
  7  8  1  0
  8  9  1  0
  4  2  1  0
  9  7  1  0
  9  4  1  0
  1 10  1  0
  1 11  1  0
  1 12  1  0
  2 13  1  0
  3 14  1  0
  3 15  1  0
  5 16  1  0
  6 17  1  0
  7 18  1  0
  9 19  1  0
M  END
