
     RDKit          3D

 18 19  0  0  0  0  0  0  0  0999 V2000
    2.5640    0.0464    0.2453 C   0  0  0  0  0  0  0  0  0  0  0  0
    1.3308    0.1921   -0.6205 C   0  0  0  0  0  0  0  0  0  0  0  0
    0.3148   -0.8926   -0.3395 C   0  0  0  0  0  0  0  0  0  0  0  0
   -0.5118    0.2613    0.0619 C   0  0  0  0  0  0  0  0  0  0  0  0
   -1.3978    0.2902    1.2290 C   0  0  0  0  0  0  0  0  0  0  0  0
   -1.9300    0.4267   -0.1988 C   0  0  0  0  0  0  0  0  0  0  0  0
   -2.7756   -0.5814   -0.6032 O   0  0  0  0  0  0  0  0  0  0  0  0
    0.4540    1.1948   -0.1948 O   0  0  0  0  0  0  0  0  0  0  0  0
    3.2050    0.9381    0.0529 H   0  0  0  0  0  0  0  0  0  0  0  0
    3.1115   -0.8386   -0.1259 H   0  0  0  0  0  0  0  0  0  0  0  0
    2.3124   -0.0144    1.3137 H   0  0  0  0  0  0  0  0  0  0  0  0
    1.5855    0.3564   -1.6730 H   0  0  0  0  0  0  0  0  0  0  0  0
    0.0716   -1.4191   -1.2726 H   0  0  0  0  0  0  0  0  0  0  0  0
    0.5780   -1.5277    0.5317 H   0  0  0  0  0  0  0  0  0  0  0  0
   -1.3985    1.1861    1.8784 H   0  0  0  0  0  0  0  0  0  0  0  0
   -1.5682   -0.6598    1.7588 H   0  0  0  0  0  0  0  0  0  0  0  0
   -2.2838    1.4459   -0.5071 H   0  0  0  0  0  0  0  0  0  0  0  0
   -3.6618   -0.4044   -0.1742 H   0  0  0  0  0  0  0  0  0  0  0  0
  1  2  1  0
  2  3  1  0
  3  4  1  0
  4  5  1  0
  5  6  1  0
  6  7  1  0
  4  8  1  0
  8  2  1  0
  6  4  1  0
  1  9  1  0
  1 10  1  0
  1 11  1  0
  2 12  1  0
  3 13  1  0
  3 14  1  0
  5 15  1  0
  5 16  1  0
  6 17  1  0
  7 18  1  0
M  END
