
     RDKit          3D

 23 24  0  0  0  0  0  0  0  0999 V2000
    1.9719   -0.4217    0.1502 C   0  0  0  0  0  0  0  0  0  0  0  0
    0.5801   -0.4507    0.6779 C   0  0  0  0  0  0  0  0  0  0  0  0
   -0.5201   -0.5508   -0.3594 C   0  0  0  0  0  0  0  0  0  0  0  0
   -0.9591   -1.8530   -0.8093 C   0  0  0  0  0  0  0  0  0  0  0  0
   -0.1965    0.5298   -1.3568 C   0  0  0  0  0  0  0  0  0  0  0  0
    0.2043    1.6445   -0.3688 C   0  0  0  0  0  0  0  0  0  0  0  0
   -0.0381    0.9312    0.9190 C   0  0  0  0  0  0  0  0  0  0  0  0
    0.1384    1.5149    2.0909 O   0  0  0  0  0  0  0  0  0  0  0  0
   -1.3662    0.2093    0.6475 C   0  0  0  0  0  0  0  0  0  0  0  0
    2.4580    0.5708    0.3461 H   0  0  0  0  0  0  0  0  0  0  0  0
    2.6047   -1.1582    0.7150 H   0  0  0  0  0  0  0  0  0  0  0  0
    2.0373   -0.7017   -0.9324 H   0  0  0  0  0  0  0  0  0  0  0  0
    0.3899   -1.0773    1.5642 H   0  0  0  0  0  0  0  0  0  0  0  0
   -2.0685   -1.8369   -0.9881 H   0  0  0  0  0  0  0  0  0  0  0  0
   -0.6616   -2.6445   -0.0982 H   0  0  0  0  0  0  0  0  0  0  0  0
   -0.5102   -2.1029   -1.7883 H   0  0  0  0  0  0  0  0  0  0  0  0
   -1.1381    0.8381   -1.8447 H   0  0  0  0  0  0  0  0  0  0  0  0
    0.6116    0.2804   -2.0391 H   0  0  0  0  0  0  0  0  0  0  0  0
    1.2362    1.9317   -0.5614 H   0  0  0  0  0  0  0  0  0  0  0  0
   -0.4414    2.5340   -0.5155 H   0  0  0  0  0  0  0  0  0  0  0  0
   -0.5169    1.3307    2.8065 H   0  0  0  0  0  0  0  0  0  0  0  0
   -2.1452    0.8493    0.2062 H   0  0  0  0  0  0  0  0  0  0  0  0
   -1.6703   -0.3670    1.5384 H   0  0  0  0  0  0  0  0  0  0  0  0
  1  2  1  0
  2  3  1  0
  3  4  1  0
  3  5  1  0
  5  6  1  0
  6  7  1  0
  7  8  1  0
  7  9  1  0
  7  2  1  0
  9  3  1  0
  1 10  1  0
  1 11  1  0
  1 12  1  0
  2 13  1  0
  4 14  1  0
  4 15  1  0
  4 16  1  0
  5 17  1  0
  5 18  1  0
  6 19  1  0
  6 20  1  0
  8 21  1  0
  9 22  1  0
  9 23  1  0
M  END
