
     RDKit          3D

 17 18  0  0  0  0  0  0  0  0999 V2000
   -1.5105   -0.9191   -0.3874 C   0  0  0  0  0  0  0  0  0  0  0  0
   -0.5781   -0.2800    0.6231 C   0  0  0  0  0  0  0  0  0  0  0  0
   -0.9550    1.1807    0.6233 C   0  0  0  0  0  0  0  0  0  0  0  0
   -1.7558    1.7570    1.4080 O   0  0  0  0  0  0  0  0  0  0  0  0
   -0.1852    1.7437   -0.4776 C   0  0  0  0  0  0  0  0  0  0  0  0
    0.8240    0.9442   -0.7783 C   0  0  0  0  0  0  0  0  0  0  0  0
    0.8097   -0.2303    0.1071 C   0  0  0  0  0  0  0  0  0  0  0  0
    1.8467   -1.1117    0.2159 C   0  0  0  0  0  0  0  0  0  0  0  0
    1.7625   -0.0203    1.2163 O   0  0  0  0  0  0  0  0  0  0  0  0
   -1.3444   -0.3615   -1.3522 H   0  0  0  0  0  0  0  0  0  0  0  0
   -2.5669   -0.6918   -0.1128 H   0  0  0  0  0  0  0  0  0  0  0  0
   -1.3443   -1.9887   -0.5135 H   0  0  0  0  0  0  0  0  0  0  0  0
   -0.6794   -0.7280    1.6188 H   0  0  0  0  0  0  0  0  0  0  0  0
   -0.3989    2.6758   -0.9807 H   0  0  0  0  0  0  0  0  0  0  0  0
    1.5326    1.1564   -1.5643 H   0  0  0  0  0  0  0  0  0  0  0  0
    2.7478   -1.0495   -0.4203 H   0  0  0  0  0  0  0  0  0  0  0  0
    1.7952   -2.0769    0.7745 H   0  0  0  0  0  0  0  0  0  0  0  0
  1  2  1  0
  2  3  1  0
  3  4  2  0
  3  5  1  0
  5  6  2  0
  6  7  1  0
  7  8  1  0
  8  9  1  0
  7  2  1  0
  9  7  1  0
  1 10  1  0
  1 11  1  0
  1 12  1  0
  2 13  1  0
  5 14  1  0
  6 15  1  0
  8 16  1  0
  8 17  1  0
M  END
