
     RDKit          3D

 23 23  0  0  0  0  0  0  0  0999 V2000
    0.3466    2.2333    0.6904 C   0  0  0  0  0  0  0  0  0  0  0  0
    0.3423    0.7339    0.7262 C   0  0  0  0  0  0  0  0  0  0  0  0
    0.9179   -0.0853   -0.3604 C   0  0  0  0  0  0  0  0  0  0  0  0
    1.6288   -1.3819   -0.0437 C   0  0  0  0  0  0  0  0  0  0  0  0
    2.6989   -1.0610    0.7896 O   0  0  0  0  0  0  0  0  0  0  0  0
   -0.5492   -0.0069   -0.2899 C   0  0  0  0  0  0  0  0  0  0  0  0
   -1.1993    0.8396   -1.3650 C   0  0  0  0  0  0  0  0  0  0  0  0
   -1.4437   -0.9898    0.3648 C   0  0  0  0  0  0  0  0  0  0  0  0
   -2.2651   -1.6830   -0.5223 O   0  0  0  0  0  0  0  0  0  0  0  0
    0.0878    2.6378    1.6911 H   0  0  0  0  0  0  0  0  0  0  0  0
    1.3528    2.6453    0.4318 H   0  0  0  0  0  0  0  0  0  0  0  0
   -0.3698    2.6682   -0.0176 H   0  0  0  0  0  0  0  0  0  0  0  0
    0.4566    0.2986    1.7399 H   0  0  0  0  0  0  0  0  0  0  0  0
    1.4366    0.4549   -1.1959 H   0  0  0  0  0  0  0  0  0  0  0  0
    0.9370   -2.1106    0.3743 H   0  0  0  0  0  0  0  0  0  0  0  0
    2.0561   -1.8256   -0.9680 H   0  0  0  0  0  0  0  0  0  0  0  0
    3.3081   -1.8330    0.9380 H   0  0  0  0  0  0  0  0  0  0  0  0
   -2.1405    1.3079   -1.0360 H   0  0  0  0  0  0  0  0  0  0  0  0
   -0.5134    1.6136   -1.7579 H   0  0  0  0  0  0  0  0  0  0  0  0
   -1.3872    0.1504   -2.2411 H   0  0  0  0  0  0  0  0  0  0  0  0
   -0.9384   -1.7361    0.9964 H   0  0  0  0  0  0  0  0  0  0  0  0
   -2.1155   -0.4315    1.0612 H   0  0  0  0  0  0  0  0  0  0  0  0
   -2.6474   -2.4388   -0.0057 H   0  0  0  0  0  0  0  0  0  0  0  0
  1  2  1  0
  2  3  1  0
  3  4  1  0
  4  5  1  0
  3  6  1  0
  6  7  1  0
  6  8  1  0
  8  9  1  0
  6  2  1  0
  1 10  1  0
  1 11  1  0
  1 12  1  0
  2 13  1  0
  3 14  1  0
  4 15  1  0
  4 16  1  0
  5 17  1  0
  7 18  1  0
  7 19  1  0
  7 20  1  0
  8 21  1  0
  8 22  1  0
  9 23  1  0
M  END
