
     RDKit          3D

 23 24  0  0  0  0  0  0  0  0999 V2000
   -1.9895    1.6165   -0.4110 C   0  0  0  0  0  0  0  0  0  0  0  0
   -1.1416    0.6097    0.3341 C   0  0  0  0  0  0  0  0  0  0  0  0
   -1.8525   -0.7203    0.2657 C   0  0  0  0  0  0  0  0  0  0  0  0
   -0.7329   -1.6900    0.5538 C   0  0  0  0  0  0  0  0  0  0  0  0
    0.4283   -1.1157   -0.1893 C   0  0  0  0  0  0  0  0  0  0  0  0
    1.2898   -0.0702    0.4825 C   0  0  0  0  0  0  0  0  0  0  0  0
    2.7207   -0.0676    0.0351 C   0  0  0  0  0  0  0  0  0  0  0  0
    3.4836    0.8996    0.6673 O   0  0  0  0  0  0  0  0  0  0  0  0
    0.1786    0.3652   -0.3500 C   0  0  0  0  0  0  0  0  0  0  0  0
   -1.5480    2.6316   -0.3595 H   0  0  0  0  0  0  0  0  0  0  0  0
   -2.9526    1.6894    0.1687 H   0  0  0  0  0  0  0  0  0  0  0  0
   -2.1454    1.2707   -1.4310 H   0  0  0  0  0  0  0  0  0  0  0  0
   -1.0242    0.9767    1.3704 H   0  0  0  0  0  0  0  0  0  0  0  0
   -2.7073   -0.8081    0.9319 H   0  0  0  0  0  0  0  0  0  0  0  0
   -2.1457   -0.8845   -0.8030 H   0  0  0  0  0  0  0  0  0  0  0  0
   -0.4714   -1.7514    1.6164 H   0  0  0  0  0  0  0  0  0  0  0  0
   -1.0136   -2.6558    0.0939 H   0  0  0  0  0  0  0  0  0  0  0  0
    0.8297   -1.6769   -1.0540 H   0  0  0  0  0  0  0  0  0  0  0  0
    1.1575   -0.0275    1.5756 H   0  0  0  0  0  0  0  0  0  0  0  0
    3.1515   -1.0644    0.3473 H   0  0  0  0  0  0  0  0  0  0  0  0
    2.8298   -0.0455   -1.0692 H   0  0  0  0  0  0  0  0  0  0  0  0
    3.3907    1.7956    0.2641 H   0  0  0  0  0  0  0  0  0  0  0  0
    0.2646    0.7229   -1.3826 H   0  0  0  0  0  0  0  0  0  0  0  0
  1  2  1  0
  2  3  1  0
  3  4  1  0
  4  5  1  0
  5  6  1  0
  6  7  1  0
  7  8  1  0
  6  9  1  0
  9  2  1  0
  9  5  1  0
  1 10  1  0
  1 11  1  0
  1 12  1  0
  2 13  1  0
  3 14  1  0
  3 15  1  0
  4 16  1  0
  4 17  1  0
  5 18  1  0
  6 19  1  0
  7 20  1  0
  7 21  1  0
  8 22  1  0
  9 23  1  0
M  END
