
     RDKit          3D

 23 24  0  0  0  0  0  0  0  0999 V2000
   -1.1954    1.6987    0.4853 C   0  0  0  0  0  0  0  0  0  0  0  0
   -0.7077    0.6802   -0.4793 C   0  0  0  0  0  0  0  0  0  0  0  0
   -1.6084   -0.5536   -0.6369 C   0  0  0  0  0  0  0  0  0  0  0  0
   -2.7718   -0.3611    0.0758 O   0  0  0  0  0  0  0  0  0  0  0  0
   -0.5456   -1.3697    0.1035 C   0  0  0  0  0  0  0  0  0  0  0  0
    0.3851   -0.2188   -0.0854 C   0  0  0  0  0  0  0  0  0  0  0  0
    1.5079   -0.3954   -1.0529 C   0  0  0  0  0  0  0  0  0  0  0  0
    2.4725   -0.0657    0.0917 C   0  0  0  0  0  0  0  0  0  0  0  0
    1.2737    0.0958    1.0331 C   0  0  0  0  0  0  0  0  0  0  0  0
   -2.0612    1.2722    1.0561 H   0  0  0  0  0  0  0  0  0  0  0  0
   -1.6419    2.5541   -0.1025 H   0  0  0  0  0  0  0  0  0  0  0  0
   -0.4361    2.1477    1.1304 H   0  0  0  0  0  0  0  0  0  0  0  0
   -0.5205    1.1152   -1.5031 H   0  0  0  0  0  0  0  0  0  0  0  0
   -1.7043   -0.9178   -1.6660 H   0  0  0  0  0  0  0  0  0  0  0  0
   -3.1211   -1.2102    0.4359 H   0  0  0  0  0  0  0  0  0  0  0  0
   -0.2810   -2.3215   -0.3766 H   0  0  0  0  0  0  0  0  0  0  0  0
   -0.8006   -1.4702    1.1951 H   0  0  0  0  0  0  0  0  0  0  0  0
    1.6539   -1.3922   -1.4892 H   0  0  0  0  0  0  0  0  0  0  0  0
    1.4629    0.4145   -1.8327 H   0  0  0  0  0  0  0  0  0  0  0  0
    3.1134   -0.9231    0.3070 H   0  0  0  0  0  0  0  0  0  0  0  0
    3.0175    0.8706   -0.0180 H   0  0  0  0  0  0  0  0  0  0  0  0
    1.2596   -0.7128    1.8124 H   0  0  0  0  0  0  0  0  0  0  0  0
    1.2490    1.0629    1.5164 H   0  0  0  0  0  0  0  0  0  0  0  0
  1  2  1  0
  2  3  1  0
  3  4  1  0
  3  5  1  0
  5  6  1  0
  6  7  1  0
  7  8  1  0
  8  9  1  0
  6  2  1  0
  9  6  1  0
  1 10  1  0
  1 11  1  0
  1 12  1  0
  2 13  1  0
  3 14  1  0
  4 15  1  0
  5 16  1  0
  5 17  1  0
  7 18  1  0
  7 19  1  0
  8 20  1  0
  8 21  1  0
  9 22  1  0
  9 23  1  0
M  END
