
     RDKit          3D

 19 20  0  0  0  0  0  0  0  0999 V2000
   -1.8694    1.2009   -0.4281 C   0  0  0  0  0  0  0  0  0  0  0  0
   -1.7108   -0.2939   -0.3415 C   0  0  0  0  0  0  0  0  0  0  0  0
   -1.1995   -0.9501    0.8752 C   0  0  0  0  0  0  0  0  0  0  0  0
   -0.3091   -0.8439   -0.3501 C   0  0  0  0  0  0  0  0  0  0  0  0
    0.8375    0.1605   -0.2655 C   0  0  0  0  0  0  0  0  0  0  0  0
    2.2016   -0.4460   -0.2784 C   0  0  0  0  0  0  0  0  0  0  0  0
    2.4904    0.4985    0.8312 C   0  0  0  0  0  0  0  0  0  0  0  0
    3.4485    1.0920    1.3844 O   0  0  0  0  0  0  0  0  0  0  0  0
    1.1295    0.5095    1.0970 O   0  0  0  0  0  0  0  0  0  0  0  0
   -1.9070    1.4598   -1.5094 H   0  0  0  0  0  0  0  0  0  0  0  0
   -1.0219    1.7624   -0.0046 H   0  0  0  0  0  0  0  0  0  0  0  0
   -2.7818    1.5640    0.0484 H   0  0  0  0  0  0  0  0  0  0  0  0
   -2.5123   -0.8389   -0.8829 H   0  0  0  0  0  0  0  0  0  0  0  0
   -0.8635   -0.4196    1.7657 H   0  0  0  0  0  0  0  0  0  0  0  0
   -1.5418   -1.9943    1.0935 H   0  0  0  0  0  0  0  0  0  0  0  0
   -0.1826   -1.7274   -1.0014 H   0  0  0  0  0  0  0  0  0  0  0  0
    0.7335    1.0141   -0.9378 H   0  0  0  0  0  0  0  0  0  0  0  0
    2.8003   -0.2612   -1.1936 H   0  0  0  0  0  0  0  0  0  0  0  0
    2.2585   -1.4864    0.0978 H   0  0  0  0  0  0  0  0  0  0  0  0
  1  2  1  0
  2  3  1  0
  3  4  1  0
  4  5  1  0
  5  6  1  0
  6  7  1  0
  7  8  2  0
  7  9  1  0
  4  2  1  0
  9  5  1  0
  1 10  1  0
  1 11  1  0
  1 12  1  0
  2 13  1  0
  3 14  1  0
  3 15  1  0
  4 16  1  0
  5 17  1  0
  6 18  1  0
  6 19  1  0
M  END
