
     RDKit          3D

 21 23  0  0  0  0  0  0  0  0999 V2000
   -3.1729   -0.0877   -0.3090 C   0  0  0  0  0  0  0  0  0  0  0  0
   -1.6857   -0.1693   -0.5466 C   0  0  0  0  0  0  0  0  0  0  0  0
   -0.8598    0.7563    0.3560 C   0  0  0  0  0  0  0  0  0  0  0  0
    0.0120   -0.4354    0.2764 C   0  0  0  0  0  0  0  0  0  0  0  0
   -1.0635   -1.2389    0.1337 O   0  0  0  0  0  0  0  0  0  0  0  0
    1.1576   -0.5927   -0.6003 C   0  0  0  0  0  0  0  0  0  0  0  0
    2.3882    0.2367   -0.5622 C   0  0  0  0  0  0  0  0  0  0  0  0
    2.2511    0.4956    0.9154 C   0  0  0  0  0  0  0  0  0  0  0  0
    1.2485   -0.6584    0.9459 C   0  0  0  0  0  0  0  0  0  0  0  0
   -3.5229    0.8502   -0.7872 H   0  0  0  0  0  0  0  0  0  0  0  0
   -3.3762   -0.0612    0.7600 H   0  0  0  0  0  0  0  0  0  0  0  0
   -3.6445   -0.9578   -0.7900 H   0  0  0  0  0  0  0  0  0  0  0  0
   -1.3733   -0.0381   -1.5875 H   0  0  0  0  0  0  0  0  0  0  0  0
   -1.3941    0.8555    1.3256 H   0  0  0  0  0  0  0  0  0  0  0  0
   -0.5088    1.6706   -0.1133 H   0  0  0  0  0  0  0  0  0  0  0  0
    1.2513   -1.5892   -1.1204 H   0  0  0  0  0  0  0  0  0  0  0  0
    3.3124   -0.3894   -0.7331 H   0  0  0  0  0  0  0  0  0  0  0  0
    2.4486    1.1140   -1.2144 H   0  0  0  0  0  0  0  0  0  0  0  0
    1.7782    1.5000    1.0728 H   0  0  0  0  0  0  0  0  0  0  0  0
    3.1484    0.3488    1.5170 H   0  0  0  0  0  0  0  0  0  0  0  0
    1.6054   -1.6096    1.3480 H   0  0  0  0  0  0  0  0  0  0  0  0
  1  2  1  0
  2  3  1  0
  3  4  1  0
  4  5  1  0
  4  6  1  0
  6  7  1  0
  7  8  1  0
  8  9  1  0
  5  2  1  0
  9  6  1  0
  9  4  1  0
  1 10  1  0
  1 11  1  0
  1 12  1  0
  2 13  1  0
  3 14  1  0
  3 15  1  0
  6 16  1  0
  7 17  1  0
  7 18  1  0
  8 19  1  0
  8 20  1  0
  9 21  1  0
M  END
