
     RDKit          3D

 17 18  0  0  0  0  0  0  0  0999 V2000
   -1.9001   -0.6368    0.2618 C   0  0  0  0  0  0  0  0  0  0  0  0
   -1.0090    0.2887   -0.5044 C   0  0  0  0  0  0  0  0  0  0  0  0
    0.2188   -0.1498   -1.1647 C   0  0  0  0  0  0  0  0  0  0  0  0
    0.9412   -1.2903   -0.8131 O   0  0  0  0  0  0  0  0  0  0  0  0
    1.8521   -0.9101    0.1611 C   0  0  0  0  0  0  0  0  0  0  0  0
    3.0818   -1.2226    0.2873 O   0  0  0  0  0  0  0  0  0  0  0  0
    1.0484   -0.0299    1.0524 C   0  0  0  0  0  0  0  0  0  0  0  0
    0.2644    0.7721    0.0752 C   0  0  0  0  0  0  0  0  0  0  0  0
    0.7375    2.0474   -0.1583 O   0  0  0  0  0  0  0  0  0  0  0  0
   -2.9457   -0.2445    0.3331 H   0  0  0  0  0  0  0  0  0  0  0  0
   -1.5797   -0.8469    1.2856 H   0  0  0  0  0  0  0  0  0  0  0  0
   -1.9525   -1.6260   -0.2611 H   0  0  0  0  0  0  0  0  0  0  0  0
   -1.5784    1.0820   -1.0745 H   0  0  0  0  0  0  0  0  0  0  0  0
    0.5385    0.3088   -2.1236 H   0  0  0  0  0  0  0  0  0  0  0  0
    0.4190   -0.7272    1.6718 H   0  0  0  0  0  0  0  0  0  0  0  0
    1.6915    0.6006    1.7120 H   0  0  0  0  0  0  0  0  0  0  0  0
    0.1720    2.5845   -0.7405 H   0  0  0  0  0  0  0  0  0  0  0  0
  1  2  1  0
  2  3  1  0
  3  4  1  0
  4  5  1  0
  5  6  2  0
  5  7  1  0
  7  8  1  0
  8  9  1  0
  8  2  1  0
  8  3  1  0
  1 10  1  0
  1 11  1  0
  1 12  1  0
  2 13  1  0
  3 14  1  0
  7 15  1  0
  7 16  1  0
  9 17  1  0
M  END
