
     RDKit          3D

 18 20  0  0  0  0  0  0  0  0999 V2000
    2.1068    0.7551    0.6649 C   0  0  0  0  0  0  0  0  0  0  0  0
    1.3215   -0.5231    0.4102 C   0  0  0  0  0  0  0  0  0  0  0  0
    0.7535   -0.6468   -1.0463 C   0  0  0  0  0  0  0  0  0  0  0  0
   -0.0581   -0.5486    0.1064 C   0  0  0  0  0  0  0  0  0  0  0  0
   -1.0346   -1.4185    0.5569 O   0  0  0  0  0  0  0  0  0  0  0  0
   -1.8253   -0.6756   -0.3193 C   0  0  0  0  0  0  0  0  0  0  0  0
   -2.4208    0.5943   -0.1479 C   0  0  0  0  0  0  0  0  0  0  0  0
   -1.0837    0.5063    0.4278 C   0  0  0  0  0  0  0  0  0  0  0  0
    1.4321    1.6060    0.8410 H   0  0  0  0  0  0  0  0  0  0  0  0
    2.7870    0.9572   -0.2019 H   0  0  0  0  0  0  0  0  0  0  0  0
    2.7535    0.6220    1.5377 H   0  0  0  0  0  0  0  0  0  0  0  0
    1.8762   -1.4347    0.7495 H   0  0  0  0  0  0  0  0  0  0  0  0
    0.9158   -1.6323   -1.5351 H   0  0  0  0  0  0  0  0  0  0  0  0
    0.9165    0.2486   -1.6918 H   0  0  0  0  0  0  0  0  0  0  0  0
   -1.4021   -0.8693   -1.3589 H   0  0  0  0  0  0  0  0  0  0  0  0
   -3.3708    0.6647    0.4609 H   0  0  0  0  0  0  0  0  0  0  0  0
   -2.5003    1.3151   -1.0153 H   0  0  0  0  0  0  0  0  0  0  0  0
   -1.1672    0.4796    1.5612 H   0  0  0  0  0  0  0  0  0  0  0  0
  1  2  1  0
  2  3  1  0
  3  4  1  0
  4  5  1  0
  5  6  1  0
  6  7  1  0
  7  8  1  0
  4  2  1  0
  8  6  1  0
  8  4  1  0
  1  9  1  0
  1 10  1  0
  1 11  1  0
  2 12  1  0
  3 13  1  0
  3 14  1  0
  6 15  1  0
  7 16  1  0
  7 17  1  0
  8 18  1  0
M  END
