
     RDKit          3D

 21 22  0  0  0  0  0  0  0  0999 V2000
    2.3840    0.1521    0.2988 C   0  0  0  0  0  0  0  0  0  0  0  0
    1.0925   -0.5644    0.1393 C   0  0  0  0  0  0  0  0  0  0  0  0
    0.5703   -0.3495   -1.2975 C   0  0  0  0  0  0  0  0  0  0  0  0
   -0.8129    0.1214   -0.9669 C   0  0  0  0  0  0  0  0  0  0  0  0
   -0.5124    1.2067    0.0749 C   0  0  0  0  0  0  0  0  0  0  0  0
   -0.0479    0.0202    0.8999 C   0  0  0  0  0  0  0  0  0  0  0  0
   -1.2251   -0.7107    0.2340 C   0  0  0  0  0  0  0  0  0  0  0  0
   -2.5455   -0.3281    0.7554 C   0  0  0  0  0  0  0  0  0  0  0  0
   -3.3739    0.1200   -0.0197 O   0  0  0  0  0  0  0  0  0  0  0  0
    2.6291    0.4124    1.3490 H   0  0  0  0  0  0  0  0  0  0  0  0
    2.3666    1.0868   -0.3062 H   0  0  0  0  0  0  0  0  0  0  0  0
    3.1884   -0.5086   -0.1366 H   0  0  0  0  0  0  0  0  0  0  0  0
    1.1670   -1.6620    0.3111 H   0  0  0  0  0  0  0  0  0  0  0  0
    1.1167    0.5158   -1.7378 H   0  0  0  0  0  0  0  0  0  0  0  0
    0.6210   -1.2608   -1.8882 H   0  0  0  0  0  0  0  0  0  0  0  0
   -1.5175    0.3350   -1.7196 H   0  0  0  0  0  0  0  0  0  0  0  0
   -1.4569    1.6276    0.4268 H   0  0  0  0  0  0  0  0  0  0  0  0
    0.2545    1.9100   -0.2380 H   0  0  0  0  0  0  0  0  0  0  0  0
   -0.0439    0.0888    1.9540 H   0  0  0  0  0  0  0  0  0  0  0  0
   -1.0469   -1.7795    0.0508 H   0  0  0  0  0  0  0  0  0  0  0  0
   -2.8074   -0.4332    1.8165 H   0  0  0  0  0  0  0  0  0  0  0  0
  1  2  1  0
  2  3  1  0
  3  4  1  0
  4  5  1  0
  5  6  1  0
  6  7  1  0
  7  8  1  0
  8  9  2  0
  6  2  1  0
  7  4  1  0
  1 10  1  0
  1 11  1  0
  1 12  1  0
  2 13  1  0
  3 14  1  0
  3 15  1  0
  4 16  1  0
  5 17  1  0
  5 18  1  0
  6 19  1  0
  7 20  1  0
  8 21  1  0
M  END
