
     RDKit          3D

 23 23  0  0  0  0  0  0  0  0999 V2000
   -1.2674   -1.6012   -0.3693 C   0  0  0  0  0  0  0  0  0  0  0  0
   -0.6828   -0.6078    0.5690 C   0  0  0  0  0  0  0  0  0  0  0  0
    0.7409   -0.1974    0.2447 C   0  0  0  0  0  0  0  0  0  0  0  0
    1.7068   -0.1848    1.4399 C   0  0  0  0  0  0  0  0  0  0  0  0
    1.3790   -0.6896   -1.0084 C   0  0  0  0  0  0  0  0  0  0  0  0
   -0.3840    0.7786    0.2389 C   0  0  0  0  0  0  0  0  0  0  0  0
   -0.3321    1.7124    1.2953 O   0  0  0  0  0  0  0  0  0  0  0  0
   -0.7627    1.4161   -1.0709 C   0  0  0  0  0  0  0  0  0  0  0  0
   -2.0378    2.0237   -0.9792 O   0  0  0  0  0  0  0  0  0  0  0  0
   -0.8210   -1.6183   -1.3762 H   0  0  0  0  0  0  0  0  0  0  0  0
   -2.3796   -1.4808   -0.4935 H   0  0  0  0  0  0  0  0  0  0  0  0
   -1.0645   -2.6255    0.0633 H   0  0  0  0  0  0  0  0  0  0  0  0
   -0.8938   -0.8254    1.6473 H   0  0  0  0  0  0  0  0  0  0  0  0
    1.1063   -0.1161    2.3620 H   0  0  0  0  0  0  0  0  0  0  0  0
    2.3745    0.6910    1.3512 H   0  0  0  0  0  0  0  0  0  0  0  0
    2.2740   -1.1306    1.3636 H   0  0  0  0  0  0  0  0  0  0  0  0
    1.6107   -1.7872   -0.9299 H   0  0  0  0  0  0  0  0  0  0  0  0
    0.8248   -0.5471   -1.9260 H   0  0  0  0  0  0  0  0  0  0  0  0
    2.3699   -0.1956   -1.1037 H   0  0  0  0  0  0  0  0  0  0  0  0
   -0.8612    1.4236    2.0654 H   0  0  0  0  0  0  0  0  0  0  0  0
   -0.7900    0.6938   -1.9106 H   0  0  0  0  0  0  0  0  0  0  0  0
   -0.0642    2.2555   -1.2857 H   0  0  0  0  0  0  0  0  0  0  0  0
   -2.0459    2.6128   -0.1874 H   0  0  0  0  0  0  0  0  0  0  0  0
  1  2  1  0
  2  3  1  0
  3  4  1  0
  3  5  1  0
  3  6  1  0
  6  7  1  0
  6  8  1  0
  8  9  1  0
  6  2  1  0
  1 10  1  0
  1 11  1  0
  1 12  1  0
  2 13  1  0
  4 14  1  0
  4 15  1  0
  4 16  1  0
  5 17  1  0
  5 18  1  0
  5 19  1  0
  7 20  1  0
  8 21  1  0
  8 22  1  0
  9 23  1  0
M  END
