
     RDKit          3D

 22 23  0  0  0  0  0  0  0  0999 V2000
    2.3873    0.2835    0.3029 C   0  0  0  0  0  0  0  0  0  0  0  0
    1.2632   -0.3293   -0.4466 C   0  0  0  0  0  0  0  0  0  0  0  0
    0.2492    0.7655   -0.8363 C   0  0  0  0  0  0  0  0  0  0  0  0
   -0.9586    0.2161   -0.1176 C   0  0  0  0  0  0  0  0  0  0  0  0
   -2.2066    0.9352   -0.1222 C   0  0  0  0  0  0  0  0  0  0  0  0
   -0.9045   -1.2336   -0.5059 C   0  0  0  0  0  0  0  0  0  0  0  0
    0.3763   -1.2219    0.3437 C   0  0  0  0  0  0  0  0  0  0  0  0
   -0.3886   -0.2550    1.2291 C   0  0  0  0  0  0  0  0  0  0  0  0
    2.2548    0.3668    1.3773 H   0  0  0  0  0  0  0  0  0  0  0  0
    3.3732   -0.2212    0.1244 H   0  0  0  0  0  0  0  0  0  0  0  0
    2.5340    1.3257   -0.0977 H   0  0  0  0  0  0  0  0  0  0  0  0
    1.6592   -0.8382   -1.3357 H   0  0  0  0  0  0  0  0  0  0  0  0
    0.5490    1.7382   -0.4351 H   0  0  0  0  0  0  0  0  0  0  0  0
    0.1414    0.7306   -1.9348 H   0  0  0  0  0  0  0  0  0  0  0  0
   -2.7582    0.7630    0.8485 H   0  0  0  0  0  0  0  0  0  0  0  0
   -2.9064    0.6577   -0.9350 H   0  0  0  0  0  0  0  0  0  0  0  0
   -2.0281    2.0276   -0.1693 H   0  0  0  0  0  0  0  0  0  0  0  0
   -0.7269   -1.4578   -1.5671 H   0  0  0  0  0  0  0  0  0  0  0  0
   -1.6676   -1.8820   -0.0378 H   0  0  0  0  0  0  0  0  0  0  0  0
    0.7094   -2.1409    0.7450 H   0  0  0  0  0  0  0  0  0  0  0  0
    0.2147    0.5035    1.7416 H   0  0  0  0  0  0  0  0  0  0  0  0
   -1.1661   -0.7335    1.8287 H   0  0  0  0  0  0  0  0  0  0  0  0
  1  2  1  0
  2  3  1  0
  3  4  1  0
  4  5  1  0
  4  6  1  0
  6  7  1  0
  7  8  1  0
  7  2  1  0
  8  4  1  0
  1  9  1  0
  1 10  1  0
  1 11  1  0
  2 12  1  0
  3 13  1  0
  3 14  1  0
  5 15  1  0
  5 16  1  0
  5 17  1  0
  6 18  1  0
  6 19  1  0
  7 20  1  0
  8 21  1  0
  8 22  1  0
M  END
