
     RDKit          3D

 20 21  0  0  0  0  0  0  0  0999 V2000
    2.1844   -0.4126   -0.1950 C   0  0  0  0  0  0  0  0  0  0  0  0
    1.0201    0.4912   -0.0353 C   0  0  0  0  0  0  0  0  0  0  0  0
    0.2127    0.1784    1.2422 C   0  0  0  0  0  0  0  0  0  0  0  0
   -1.1256   -0.0331    0.6381 C   0  0  0  0  0  0  0  0  0  0  0  0
   -2.2054   -0.2800    1.3670 O   0  0  0  0  0  0  0  0  0  0  0  0
   -1.2170    1.0139   -0.4797 C   0  0  0  0  0  0  0  0  0  0  0  0
   -0.0439    0.2082   -1.0537 C   0  0  0  0  0  0  0  0  0  0  0  0
   -0.7787   -1.0037   -0.5025 C   0  0  0  0  0  0  0  0  0  0  0  0
    1.9910   -1.1479   -1.0151 H   0  0  0  0  0  0  0  0  0  0  0  0
    3.0498    0.2083   -0.5691 H   0  0  0  0  0  0  0  0  0  0  0  0
    2.4809   -0.9752    0.6923 H   0  0  0  0  0  0  0  0  0  0  0  0
    1.2558    1.5680   -0.0194 H   0  0  0  0  0  0  0  0  0  0  0  0
    0.2909    0.9726    1.9766 H   0  0  0  0  0  0  0  0  0  0  0  0
    0.5893   -0.8096    1.6126 H   0  0  0  0  0  0  0  0  0  0  0  0
   -3.0302   -0.0883    0.8725 H   0  0  0  0  0  0  0  0  0  0  0  0
   -2.0876    0.9248   -1.1267 H   0  0  0  0  0  0  0  0  0  0  0  0
   -0.9369    2.0059   -0.1219 H   0  0  0  0  0  0  0  0  0  0  0  0
    0.1495    0.2735   -2.0852 H   0  0  0  0  0  0  0  0  0  0  0  0
   -0.1468   -1.8026   -0.1059 H   0  0  0  0  0  0  0  0  0  0  0  0
   -1.6522   -1.2921   -1.0918 H   0  0  0  0  0  0  0  0  0  0  0  0
  1  2  1  0
  2  3  1  0
  3  4  1  0
  4  5  1  0
  4  6  1  0
  6  7  1  0
  7  8  1  0
  7  2  1  0
  8  4  1  0
  1  9  1  0
  1 10  1  0
  1 11  1  0
  2 12  1  0
  3 13  1  0
  3 14  1  0
  5 15  1  0
  6 16  1  0
  6 17  1  0
  7 18  1  0
  8 19  1  0
  8 20  1  0
M  END
