
     RDKit          3D

 21 23  0  0  0  0  0  0  0  0999 V2000
    2.6176   -0.3910   -0.2436 C   0  0  0  0  0  0  0  0  0  0  0  0
    1.1715   -0.5866   -0.1512 C   0  0  0  0  0  0  0  0  0  0  0  0
    0.2381    0.4148   -0.7269 C   0  0  0  0  0  0  0  0  0  0  0  0
    0.5891    1.3154    0.4331 C   0  0  0  0  0  0  0  0  0  0  0  0
    0.4432   -0.0485    1.0533 C   0  0  0  0  0  0  0  0  0  0  0  0
   -0.7499   -0.1989    0.2087 C   0  0  0  0  0  0  0  0  0  0  0  0
   -2.0117    0.4361    0.4898 C   0  0  0  0  0  0  0  0  0  0  0  0
   -2.4959   -0.7923   -0.2664 C   0  0  0  0  0  0  0  0  0  0  0  0
   -1.2581   -1.4172   -0.0695 O   0  0  0  0  0  0  0  0  0  0  0  0
    3.0890   -0.6986    0.7357 H   0  0  0  0  0  0  0  0  0  0  0  0
    2.9787    0.6129   -0.4885 H   0  0  0  0  0  0  0  0  0  0  0  0
    3.0415   -1.0846   -0.9930 H   0  0  0  0  0  0  0  0  0  0  0  0
    0.8605   -1.6150   -0.3681 H   0  0  0  0  0  0  0  0  0  0  0  0
    0.1061    0.6897   -1.6804 H   0  0  0  0  0  0  0  0  0  0  0  0
   -0.1959    2.0498    0.6746 H   0  0  0  0  0  0  0  0  0  0  0  0
    1.5727    1.7674    0.4339 H   0  0  0  0  0  0  0  0  0  0  0  0
    0.6063   -0.2960    2.0109 H   0  0  0  0  0  0  0  0  0  0  0  0
   -2.2818    1.3850   -0.0174 H   0  0  0  0  0  0  0  0  0  0  0  0
   -2.3443    0.3458    1.5433 H   0  0  0  0  0  0  0  0  0  0  0  0
   -2.6707   -0.5398   -1.3436 H   0  0  0  0  0  0  0  0  0  0  0  0
   -3.3057   -1.3482    0.2289 H   0  0  0  0  0  0  0  0  0  0  0  0
  1  2  1  0
  2  3  1  0
  3  4  1  0
  4  5  1  0
  5  6  1  0
  6  7  1  0
  7  8  1  0
  8  9  1  0
  5  2  1  0
  9  6  1  0
  6  3  1  0
  1 10  1  0
  1 11  1  0
  1 12  1  0
  2 13  1  0
  3 14  1  0
  4 15  1  0
  4 16  1  0
  5 17  1  0
  7 18  1  0
  7 19  1  0
  8 20  1  0
  8 21  1  0
M  END
