
     RDKit          3D

 17 17  0  0  0  0  0  0  0  0999 V2000
   -2.4842    0.8934   -0.3466 C   0  0  0  0  0  0  0  0  0  0  0  0
   -1.3107    0.0179   -0.7740 C   0  0  0  0  0  0  0  0  0  0  0  0
   -1.1650   -1.2359    0.0120 C   0  0  0  0  0  0  0  0  0  0  0  0
   -0.1613   -0.1326    0.1196 C   0  0  0  0  0  0  0  0  0  0  0  0
    1.1505   -0.3367   -0.3461 O   0  0  0  0  0  0  0  0  0  0  0  0
    2.2861    0.1483    0.2692 C   0  0  0  0  0  0  0  0  0  0  0  0
    2.1278    0.8186    1.3193 O   0  0  0  0  0  0  0  0  0  0  0  0
    3.6302   -0.0788   -0.2358 C   0  0  0  0  0  0  0  0  0  0  0  0
    3.8708   -0.7369   -1.2767 O   0  0  0  0  0  0  0  0  0  0  0  0
   -2.3381    1.2970    0.6844 H   0  0  0  0  0  0  0  0  0  0  0  0
   -3.4305    0.3288   -0.3251 H   0  0  0  0  0  0  0  0  0  0  0  0
   -2.5576    1.8010   -1.0034 H   0  0  0  0  0  0  0  0  0  0  0  0
   -1.1977   -0.0409   -1.8919 H   0  0  0  0  0  0  0  0  0  0  0  0
   -1.7969   -1.4054    0.9068 H   0  0  0  0  0  0  0  0  0  0  0  0
   -0.9180   -2.1465   -0.5591 H   0  0  0  0  0  0  0  0  0  0  0  0
   -0.1811    0.4816    1.0675 H   0  0  0  0  0  0  0  0  0  0  0  0
    4.4757    0.3271    0.2913 H   0  0  0  0  0  0  0  0  0  0  0  0
  1  2  1  0
  2  3  1  0
  3  4  1  0
  4  5  1  0
  5  6  1  0
  6  7  2  0
  6  8  1  0
  8  9  2  0
  4  2  1  0
  1 10  1  0
  1 11  1  0
  1 12  1  0
  2 13  1  0
  3 14  1  0
  3 15  1  0
  4 16  1  0
  8 17  1  0
M  END
