
     RDKit          3D

 19 20  0  0  0  0  0  0  0  0999 V2000
   -1.7033    0.6844   -0.6142 C   0  0  0  0  0  0  0  0  0  0  0  0
   -0.8533    0.3878    0.5750 C   0  0  0  0  0  0  0  0  0  0  0  0
   -0.7554   -1.0452    0.9961 C   0  0  0  0  0  0  0  0  0  0  0  0
   -0.4514   -1.7987   -0.2790 C   0  0  0  0  0  0  0  0  0  0  0  0
    0.4855   -1.0067   -0.8049 C   0  0  0  0  0  0  0  0  0  0  0  0
    0.6048    0.0333    0.2525 C   0  0  0  0  0  0  0  0  0  0  0  0
    1.5449    1.1193    0.1081 C   0  0  0  0  0  0  0  0  0  0  0  0
    2.8705    0.7369    0.1864 O   0  0  0  0  0  0  0  0  0  0  0  0
    0.5692   -0.7352    1.3917 O   0  0  0  0  0  0  0  0  0  0  0  0
   -2.7489    0.2981   -0.4365 H   0  0  0  0  0  0  0  0  0  0  0  0
   -1.8395    1.8049   -0.6472 H   0  0  0  0  0  0  0  0  0  0  0  0
   -1.2953    0.3559   -1.5750 H   0  0  0  0  0  0  0  0  0  0  0  0
   -0.8975    1.0865    1.4085 H   0  0  0  0  0  0  0  0  0  0  0  0
   -1.4109   -1.4725    1.6995 H   0  0  0  0  0  0  0  0  0  0  0  0
   -0.8927   -2.7224   -0.6334 H   0  0  0  0  0  0  0  0  0  0  0  0
    1.0387   -1.0509   -1.7281 H   0  0  0  0  0  0  0  0  0  0  0  0
    1.3461    1.8710    0.9286 H   0  0  0  0  0  0  0  0  0  0  0  0
    1.4326    1.7041   -0.8274 H   0  0  0  0  0  0  0  0  0  0  0  0
    2.9559   -0.2504   -0.0007 H   0  0  0  0  0  0  0  0  0  0  0  0
  1  2  1  0
  2  3  1  0
  3  4  1  0
  4  5  2  0
  5  6  1  0
  6  7  1  0
  7  8  1  0
  6  9  1  0
  6  2  1  0
  9  3  1  0
  1 10  1  0
  1 11  1  0
  1 12  1  0
  2 13  1  0
  3 14  1  0
  4 15  1  0
  5 16  1  0
  7 17  1  0
  7 18  1  0
  8 19  1  0
M  END
