
     RDKit          3D

 17 17  0  0  0  0  0  0  0  0999 V2000
    2.2797    0.0975   -0.1003 C   0  0  0  0  0  0  0  0  0  0  0  0
    0.8308   -0.2447    0.1520 C   0  0  0  0  0  0  0  0  0  0  0  0
   -0.0290    0.0027   -1.0138 C   0  0  0  0  0  0  0  0  0  0  0  0
    0.4521    0.3049   -2.0874 O   0  0  0  0  0  0  0  0  0  0  0  0
   -1.4899   -0.1156   -0.8845 C   0  0  0  0  0  0  0  0  0  0  0  0
   -1.9724   -0.1447    0.5365 C   0  0  0  0  0  0  0  0  0  0  0  0
   -1.1027    0.5169    1.4280 O   0  0  0  0  0  0  0  0  0  0  0  0
    0.2760    0.5318    1.2898 C   0  0  0  0  0  0  0  0  0  0  0  0
    1.0400    1.1565    2.0658 O   0  0  0  0  0  0  0  0  0  0  0  0
    2.5860   -0.4099   -1.0265 H   0  0  0  0  0  0  0  0  0  0  0  0
    2.4296    1.1841   -0.0994 H   0  0  0  0  0  0  0  0  0  0  0  0
    2.8605   -0.3036    0.7713 H   0  0  0  0  0  0  0  0  0  0  0  0
    0.7726   -1.3434    0.3729 H   0  0  0  0  0  0  0  0  0  0  0  0
   -2.0363    0.6615   -1.4948 H   0  0  0  0  0  0  0  0  0  0  0  0
   -1.7753   -1.0951   -1.3515 H   0  0  0  0  0  0  0  0  0  0  0  0
   -2.9396    0.4010    0.5683 H   0  0  0  0  0  0  0  0  0  0  0  0
   -2.1820   -1.2000    0.8737 H   0  0  0  0  0  0  0  0  0  0  0  0
  1  2  1  0
  2  3  1  0
  3  4  2  0
  3  5  1  0
  5  6  1  0
  6  7  1  0
  7  8  1  0
  8  9  2  0
  8  2  1  0
  1 10  1  0
  1 11  1  0
  1 12  1  0
  2 13  1  0
  5 14  1  0
  5 15  1  0
  6 16  1  0
  6 17  1  0
M  END
