
     RDKit          3D

 23 23  0  0  0  0  0  0  0  0999 V2000
    2.6194   -0.9741   -0.0684 C   0  0  0  0  0  0  0  0  0  0  0  0
    1.3815   -0.1733   -0.4761 C   0  0  0  0  0  0  0  0  0  0  0  0
    1.4904    1.2041    0.0116 C   0  0  0  0  0  0  0  0  0  0  0  0
    0.3625    1.9058    0.1354 C   0  0  0  0  0  0  0  0  0  0  0  0
   -0.8967    1.2436   -0.2262 C   0  0  0  0  0  0  0  0  0  0  0  0
   -0.8906   -0.2372    0.0351 C   0  0  0  0  0  0  0  0  0  0  0  0
   -1.9020   -0.8435   -0.9263 C   0  0  0  0  0  0  0  0  0  0  0  0
   -1.4270   -0.4954    1.4492 C   0  0  0  0  0  0  0  0  0  0  0  0
    0.2869   -0.8663   -0.1173 O   0  0  0  0  0  0  0  0  0  0  0  0
    2.3336   -1.9826    0.3179 H   0  0  0  0  0  0  0  0  0  0  0  0
    3.1943   -0.4763    0.7230 H   0  0  0  0  0  0  0  0  0  0  0  0
    3.3067   -1.1273   -0.9255 H   0  0  0  0  0  0  0  0  0  0  0  0
    1.4053   -0.1223   -1.6054 H   0  0  0  0  0  0  0  0  0  0  0  0
    2.4691    1.6421    0.2662 H   0  0  0  0  0  0  0  0  0  0  0  0
    0.3582    2.9115    0.4826 H   0  0  0  0  0  0  0  0  0  0  0  0
   -1.7030    1.6771    0.4198 H   0  0  0  0  0  0  0  0  0  0  0  0
   -1.2102    1.4889   -1.2812 H   0  0  0  0  0  0  0  0  0  0  0  0
   -2.8245   -1.1777   -0.4049 H   0  0  0  0  0  0  0  0  0  0  0  0
   -1.4772   -1.7654   -1.4128 H   0  0  0  0  0  0  0  0  0  0  0  0
   -2.1706   -0.1433   -1.7459 H   0  0  0  0  0  0  0  0  0  0  0  0
   -2.5480   -0.5048    1.4276 H   0  0  0  0  0  0  0  0  0  0  0  0
   -1.1117    0.3047    2.1439 H   0  0  0  0  0  0  0  0  0  0  0  0
   -1.0462   -1.4883    1.7776 H   0  0  0  0  0  0  0  0  0  0  0  0
  1  2  1  0
  2  3  1  0
  3  4  2  0
  4  5  1  0
  5  6  1  0
  6  7  1  0
  6  8  1  0
  6  9  1  0
  9  2  1  0
  1 10  1  0
  1 11  1  0
  1 12  1  0
  2 13  1  0
  3 14  1  0
  4 15  1  0
  5 16  1  0
  5 17  1  0
  7 18  1  0
  7 19  1  0
  7 20  1  0
  8 21  1  0
  8 22  1  0
  8 23  1  0
M  END
