
     RDKit          3D

 21 21  0  0  0  0  0  0  0  0999 V2000
   -1.9700   -0.9028    0.1348 C   0  0  0  0  0  0  0  0  0  0  0  0
   -0.6533   -0.4514   -0.4572 C   0  0  0  0  0  0  0  0  0  0  0  0
    0.4371   -1.2490    0.2004 C   0  0  0  0  0  0  0  0  0  0  0  0
    1.4319   -0.1844    0.6801 C   0  0  0  0  0  0  0  0  0  0  0  0
    2.2167    0.2207   -0.5038 C   0  0  0  0  0  0  0  0  0  0  0  0
    3.1273   -0.5125   -0.8528 O   0  0  0  0  0  0  0  0  0  0  0  0
    0.4587    0.8833    1.1172 C   0  0  0  0  0  0  0  0  0  0  0  0
   -0.4256    0.9975   -0.1106 C   0  0  0  0  0  0  0  0  0  0  0  0
   -1.6233    1.6642    0.1894 O   0  0  0  0  0  0  0  0  0  0  0  0
   -1.8730   -1.8612    0.6896 H   0  0  0  0  0  0  0  0  0  0  0  0
   -2.6703   -1.0554   -0.6991 H   0  0  0  0  0  0  0  0  0  0  0  0
   -2.3386   -0.1585    0.8864 H   0  0  0  0  0  0  0  0  0  0  0  0
   -0.6179   -0.5861   -1.5596 H   0  0  0  0  0  0  0  0  0  0  0  0
    0.9377   -1.9591   -0.4539 H   0  0  0  0  0  0  0  0  0  0  0  0
    0.0780   -1.7423    1.1415 H   0  0  0  0  0  0  0  0  0  0  0  0
    2.0180   -0.6157    1.4929 H   0  0  0  0  0  0  0  0  0  0  0  0
    2.0500    1.1127   -1.0850 H   0  0  0  0  0  0  0  0  0  0  0  0
   -0.1978    0.4168    1.9041 H   0  0  0  0  0  0  0  0  0  0  0  0
    0.9165    1.8144    1.4186 H   0  0  0  0  0  0  0  0  0  0  0  0
    0.0574    1.5725   -0.9189 H   0  0  0  0  0  0  0  0  0  0  0  0
   -1.3596    2.5962    0.4031 H   0  0  0  0  0  0  0  0  0  0  0  0
  1  2  1  0
  2  3  1  0
  3  4  1  0
  4  5  1  0
  5  6  2  0
  4  7  1  0
  7  8  1  0
  8  9  1  0
  8  2  1  0
  1 10  1  0
  1 11  1  0
  1 12  1  0
  2 13  1  0
  3 14  1  0
  3 15  1  0
  4 16  1  0
  5 17  1  0
  7 18  1  0
  7 19  1  0
  8 20  1  0
  9 21  1  0
M  END
