
     RDKit          3D

 19 19  0  0  0  0  0  0  0  0999 V2000
   -2.2515   -1.1287    0.1408 C   0  0  0  0  0  0  0  0  0  0  0  0
   -1.1152   -0.1724    0.4159 C   0  0  0  0  0  0  0  0  0  0  0  0
   -1.2722    1.1030   -0.3107 C   0  0  0  0  0  0  0  0  0  0  0  0
   -0.2052    1.7432   -0.8023 C   0  0  0  0  0  0  0  0  0  0  0  0
    1.1140    1.1582   -0.6069 C   0  0  0  0  0  0  0  0  0  0  0  0
    2.1239    1.6016   -1.2048 O   0  0  0  0  0  0  0  0  0  0  0  0
    1.1761    0.0146    0.3383 C   0  0  0  0  0  0  0  0  0  0  0  0
    2.4316   -0.8019    0.1747 C   0  0  0  0  0  0  0  0  0  0  0  0
    0.0657   -0.7976    0.0438 O   0  0  0  0  0  0  0  0  0  0  0  0
   -1.9074   -1.9989   -0.4858 H   0  0  0  0  0  0  0  0  0  0  0  0
   -2.6825   -1.5669    1.0602 H   0  0  0  0  0  0  0  0  0  0  0  0
   -3.0741   -0.6623   -0.4353 H   0  0  0  0  0  0  0  0  0  0  0  0
   -1.0735   -0.0378    1.5177 H   0  0  0  0  0  0  0  0  0  0  0  0
   -2.2808    1.4931   -0.4268 H   0  0  0  0  0  0  0  0  0  0  0  0
   -0.3451    2.6678   -1.3262 H   0  0  0  0  0  0  0  0  0  0  0  0
    1.0835    0.4549    1.3618 H   0  0  0  0  0  0  0  0  0  0  0  0
    2.9395   -0.6396   -0.7852 H   0  0  0  0  0  0  0  0  0  0  0  0
    3.1148   -0.5487    1.0293 H   0  0  0  0  0  0  0  0  0  0  0  0
    2.1587   -1.8816    0.3015 H   0  0  0  0  0  0  0  0  0  0  0  0
  1  2  1  0
  2  3  1  0
  3  4  2  0
  4  5  1  0
  5  6  2  0
  5  7  1  0
  7  8  1  0
  7  9  1  0
  9  2  1  0
  1 10  1  0
  1 11  1  0
  1 12  1  0
  2 13  1  0
  3 14  1  0
  4 15  1  0
  7 16  1  0
  8 17  1  0
  8 18  1  0
  8 19  1  0
M  END
