
     RDKit          3D

 23 24  0  0  0  0  0  0  0  0999 V2000
    2.8295   -0.1395    0.4857 C   0  0  0  0  0  0  0  0  0  0  0  0
    1.3035   -0.1121    0.5485 C   0  0  0  0  0  0  0  0  0  0  0  0
    0.6128   -0.5651   -0.7573 C   0  0  0  0  0  0  0  0  0  0  0  0
   -0.5503   -1.4333   -0.5498 C   0  0  0  0  0  0  0  0  0  0  0  0
   -1.7416   -0.8766    0.1004 C   0  0  0  0  0  0  0  0  0  0  0  0
   -1.5646    0.4217    0.8089 C   0  0  0  0  0  0  0  0  0  0  0  0
   -0.7735    1.3500   -0.0445 C   0  0  0  0  0  0  0  0  0  0  0  0
   -1.4346    1.4695   -1.2879 O   0  0  0  0  0  0  0  0  0  0  0  0
    0.5869    0.8074   -0.3353 C   0  0  0  0  0  0  0  0  0  0  0  0
    3.2587   -0.7482    1.3158 H   0  0  0  0  0  0  0  0  0  0  0  0
    3.1734    0.9177    0.5867 H   0  0  0  0  0  0  0  0  0  0  0  0
    3.1881   -0.5002   -0.4996 H   0  0  0  0  0  0  0  0  0  0  0  0
    0.9099   -0.4792    1.4968 H   0  0  0  0  0  0  0  0  0  0  0  0
    1.2819   -0.8424   -1.6065 H   0  0  0  0  0  0  0  0  0  0  0  0
   -0.2048   -2.3460    0.0208 H   0  0  0  0  0  0  0  0  0  0  0  0
   -0.8595   -1.8584   -1.5507 H   0  0  0  0  0  0  0  0  0  0  0  0
   -2.1657   -1.6053    0.8489 H   0  0  0  0  0  0  0  0  0  0  0  0
   -2.5873   -0.7357   -0.6359 H   0  0  0  0  0  0  0  0  0  0  0  0
   -1.1191    0.3159    1.8154 H   0  0  0  0  0  0  0  0  0  0  0  0
   -2.5858    0.8824    0.9410 H   0  0  0  0  0  0  0  0  0  0  0  0
   -0.7024    2.3677    0.3824 H   0  0  0  0  0  0  0  0  0  0  0  0
   -2.0951    2.1702   -1.1885 H   0  0  0  0  0  0  0  0  0  0  0  0
    1.2398    1.5394   -0.8953 H   0  0  0  0  0  0  0  0  0  0  0  0
  1  2  1  0
  2  3  1  0
  3  4  1  0
  4  5  1  0
  5  6  1  0
  6  7  1  0
  7  8  1  0
  7  9  1  0
  9  2  1  0
  9  3  1  0
  1 10  1  0
  1 11  1  0
  1 12  1  0
  2 13  1  0
  3 14  1  0
  4 15  1  0
  4 16  1  0
  5 17  1  0
  5 18  1  0
  6 19  1  0
  6 20  1  0
  7 21  1  0
  8 22  1  0
  9 23  1  0
M  END
