
     RDKit          3D

 22 23  0  0  0  0  0  0  0  0999 V2000
   -1.7997    1.4297   -0.5106 C   0  0  0  0  0  0  0  0  0  0  0  0
   -1.2656    0.3273    0.3172 C   0  0  0  0  0  0  0  0  0  0  0  0
   -1.6930   -1.0854   -0.0821 C   0  0  0  0  0  0  0  0  0  0  0  0
   -0.2583   -1.4996    0.3030 C   0  0  0  0  0  0  0  0  0  0  0  0
    0.1060   -0.0912    0.0115 C   0  0  0  0  0  0  0  0  0  0  0  0
    0.8900    0.2098   -1.1600 C   0  0  0  0  0  0  0  0  0  0  0  0
    1.3257    0.5931    0.2540 C   0  0  0  0  0  0  0  0  0  0  0  0
    2.4786   -0.1067    0.8847 C   0  0  0  0  0  0  0  0  0  0  0  0
   -2.5350    1.1555   -1.2704 H   0  0  0  0  0  0  0  0  0  0  0  0
   -2.2282    2.2007    0.1939 H   0  0  0  0  0  0  0  0  0  0  0  0
   -0.9423    1.9755   -1.0047 H   0  0  0  0  0  0  0  0  0  0  0  0
   -1.4238    0.4156    1.4296 H   0  0  0  0  0  0  0  0  0  0  0  0
   -2.4308   -1.5525    0.5738 H   0  0  0  0  0  0  0  0  0  0  0  0
   -1.8846   -1.2107   -1.1635 H   0  0  0  0  0  0  0  0  0  0  0  0
   -0.1780   -1.8359    1.3462 H   0  0  0  0  0  0  0  0  0  0  0  0
    0.1352   -2.2517   -0.3988 H   0  0  0  0  0  0  0  0  0  0  0  0
    0.6326    1.0111   -1.8723 H   0  0  0  0  0  0  0  0  0  0  0  0
    1.5269   -0.6164   -1.5776 H   0  0  0  0  0  0  0  0  0  0  0  0
    1.2915    1.6952    0.4821 H   0  0  0  0  0  0  0  0  0  0  0  0
    3.3906    0.5111    0.7853 H   0  0  0  0  0  0  0  0  0  0  0  0
    2.2809   -0.1667    1.9910 H   0  0  0  0  0  0  0  0  0  0  0  0
    2.5813   -1.1078    0.4673 H   0  0  0  0  0  0  0  0  0  0  0  0
  1  2  1  0
  2  3  1  0
  3  4  1  0
  4  5  1  0
  5  6  1  0
  6  7  1  0
  7  8  1  0
  5  2  1  0
  7  5  1  0
  1  9  1  0
  1 10  1  0
  1 11  1  0
  2 12  1  0
  3 13  1  0
  3 14  1  0
  4 15  1  0
  4 16  1  0
  6 17  1  0
  6 18  1  0
  7 19  1  0
  8 20  1  0
  8 21  1  0
  8 22  1  0
M  END
