
     RDKit          3D

 21 21  0  0  0  0  0  0  0  0999 V2000
    2.3301   -0.2405   -0.0077 C   0  0  0  0  0  0  0  0  0  0  0  0
    0.8409   -0.2566    0.2109 C   0  0  0  0  0  0  0  0  0  0  0  0
    0.1513   -1.4172   -0.4194 C   0  0  0  0  0  0  0  0  0  0  0  0
   -1.0725   -1.1368   -0.9749 O   0  0  0  0  0  0  0  0  0  0  0  0
   -2.0752   -0.9551   -0.0154 C   0  0  0  0  0  0  0  0  0  0  0  0
   -2.0113    0.4221    0.5663 C   0  0  0  0  0  0  0  0  0  0  0  0
   -1.0023    1.2801    0.4508 C   0  0  0  0  0  0  0  0  0  0  0  0
    0.2877    1.0678   -0.2799 C   0  0  0  0  0  0  0  0  0  0  0  0
    1.1621    2.1083   -0.0618 O   0  0  0  0  0  0  0  0  0  0  0  0
    2.6966    0.7425    0.4063 H   0  0  0  0  0  0  0  0  0  0  0  0
    2.5528   -0.2709   -1.0834 H   0  0  0  0  0  0  0  0  0  0  0  0
    2.8584   -1.0232    0.5427 H   0  0  0  0  0  0  0  0  0  0  0  0
    0.6890   -0.2656    1.3276 H   0  0  0  0  0  0  0  0  0  0  0  0
    0.8093   -1.7830   -1.2579 H   0  0  0  0  0  0  0  0  0  0  0  0
    0.0816   -2.3086    0.2696 H   0  0  0  0  0  0  0  0  0  0  0  0
   -2.0934   -1.7369    0.7479 H   0  0  0  0  0  0  0  0  0  0  0  0
   -3.0438   -0.9852   -0.5964 H   0  0  0  0  0  0  0  0  0  0  0  0
   -2.8851    0.7041    1.1228 H   0  0  0  0  0  0  0  0  0  0  0  0
   -1.1349    2.2290    0.9388 H   0  0  0  0  0  0  0  0  0  0  0  0
    0.0590    0.9190   -1.3742 H   0  0  0  0  0  0  0  0  0  0  0  0
    0.7999    2.9064   -0.5128 H   0  0  0  0  0  0  0  0  0  0  0  0
  1  2  1  0
  2  3  1  0
  3  4  1  0
  4  5  1  0
  5  6  1  0
  6  7  2  0
  7  8  1  0
  8  9  1  0
  8  2  1  0
  1 10  1  0
  1 11  1  0
  1 12  1  0
  2 13  1  0
  3 14  1  0
  3 15  1  0
  5 16  1  0
  5 17  1  0
  6 18  1  0
  7 19  1  0
  8 20  1  0
  9 21  1  0
M  END
