
     RDKit          3D

 21 22  0  0  0  0  0  0  0  0999 V2000
    1.9245    0.5238   -0.2050 C   0  0  0  0  0  0  0  0  0  0  0  0
    0.8370   -0.1336    0.6537 C   0  0  0  0  0  0  0  0  0  0  0  0
    0.5377   -1.4672   -0.0301 C   0  0  0  0  0  0  0  0  0  0  0  0
   -0.8083   -1.1783   -0.6712 C   0  0  0  0  0  0  0  0  0  0  0  0
   -1.4748   -0.4762    0.5266 C   0  0  0  0  0  0  0  0  0  0  0  0
   -0.4194    0.6468    0.5421 C   0  0  0  0  0  0  0  0  0  0  0  0
   -0.6518    1.6211    1.4209 O   0  0  0  0  0  0  0  0  0  0  0  0
   -0.5715    1.0435   -0.9328 C   0  0  0  0  0  0  0  0  0  0  0  0
   -0.6370   -0.1696   -1.5767 O   0  0  0  0  0  0  0  0  0  0  0  0
    2.9145    0.0838    0.0187 H   0  0  0  0  0  0  0  0  0  0  0  0
    1.7359    0.3282   -1.2821 H   0  0  0  0  0  0  0  0  0  0  0  0
    1.9477    1.6200   -0.0605 H   0  0  0  0  0  0  0  0  0  0  0  0
    1.2388   -0.2526    1.6571 H   0  0  0  0  0  0  0  0  0  0  0  0
    1.3050   -1.7568   -0.7417 H   0  0  0  0  0  0  0  0  0  0  0  0
    0.3505   -2.1877    0.7850 H   0  0  0  0  0  0  0  0  0  0  0  0
   -1.3448   -2.0502   -0.9984 H   0  0  0  0  0  0  0  0  0  0  0  0
   -2.4548   -0.1051    0.2293 H   0  0  0  0  0  0  0  0  0  0  0  0
   -1.4389   -1.0826    1.4280 H   0  0  0  0  0  0  0  0  0  0  0  0
   -1.6432    1.7742    1.5053 H   0  0  0  0  0  0  0  0  0  0  0  0
   -1.5793    1.5119   -1.0013 H   0  0  0  0  0  0  0  0  0  0  0  0
    0.2323    1.7066   -1.2666 H   0  0  0  0  0  0  0  0  0  0  0  0
  1  2  1  0
  2  3  1  0
  3  4  1  0
  4  5  1  0
  5  6  1  0
  6  7  1  0
  6  8  1  0
  8  9  1  0
  6  2  1  0
  9  4  1  0
  1 10  1  0
  1 11  1  0
  1 12  1  0
  2 13  1  0
  3 14  1  0
  3 15  1  0
  4 16  1  0
  5 17  1  0
  5 18  1  0
  7 19  1  0
  8 20  1  0
  8 21  1  0
M  END
