
     RDKit          3D

 18 19  0  0  0  0  0  0  0  0999 V2000
    2.1231   -0.2350   -0.2299 C   0  0  0  0  0  0  0  0  0  0  0  0
    0.8442    0.2155    0.3875 C   0  0  0  0  0  0  0  0  0  0  0  0
    0.0921    1.3053   -0.3057 C   0  0  0  0  0  0  0  0  0  0  0  0
   -0.2312    0.3773   -1.2830 O   0  0  0  0  0  0  0  0  0  0  0  0
   -0.4216   -0.3713   -0.1271 C   0  0  0  0  0  0  0  0  0  0  0  0
   -0.8658   -1.6674   -0.0332 C   0  0  0  0  0  0  0  0  0  0  0  0
   -1.1352    0.8513    0.4206 C   0  0  0  0  0  0  0  0  0  0  0  0
   -2.3412    1.1357   -0.2034 O   0  0  0  0  0  0  0  0  0  0  0  0
    2.0360   -1.0518   -0.9464 H   0  0  0  0  0  0  0  0  0  0  0  0
    2.5910    0.6584   -0.7318 H   0  0  0  0  0  0  0  0  0  0  0  0
    2.8277   -0.5398    0.5962 H   0  0  0  0  0  0  0  0  0  0  0  0
    0.8338    0.3286    1.4957 H   0  0  0  0  0  0  0  0  0  0  0  0
    0.3934    2.2574   -0.4528 H   0  0  0  0  0  0  0  0  0  0  0  0
   -1.6200   -1.8519    0.7891 H   0  0  0  0  0  0  0  0  0  0  0  0
   -0.0720   -2.4363    0.1585 H   0  0  0  0  0  0  0  0  0  0  0  0
   -1.3935   -2.0518   -0.9558 H   0  0  0  0  0  0  0  0  0  0  0  0
   -1.0859    0.9950    1.5007 H   0  0  0  0  0  0  0  0  0  0  0  0
   -2.5749    2.0808   -0.0791 H   0  0  0  0  0  0  0  0  0  0  0  0
  1  2  1  0
  2  3  1  0
  3  4  1  0
  4  5  1  0
  5  6  1  0
  5  7  1  0
  7  8  1  0
  5  2  1  0
  7  3  1  0
  1  9  1  0
  1 10  1  0
  1 11  1  0
  2 12  1  0
  3 13  1  0
  6 14  1  0
  6 15  1  0
  6 16  1  0
  7 17  1  0
  8 18  1  0
M  END
