
     RDKit          3D

 18 18  0  0  0  0  0  0  0  0999 V2000
    2.2699    0.2826   -0.2598 C   0  0  0  0  0  0  0  0  0  0  0  0
    0.9729   -0.2022    0.2640 C   0  0  0  0  0  0  0  0  0  0  0  0
   -0.0162   -0.7147   -0.7915 C   0  0  0  0  0  0  0  0  0  0  0  0
   -1.1014   -0.1636    0.1249 C   0  0  0  0  0  0  0  0  0  0  0  0
   -1.3817   -0.9829    1.2101 O   0  0  0  0  0  0  0  0  0  0  0  0
   -2.2916    0.3697   -0.5769 C   0  0  0  0  0  0  0  0  0  0  0  0
   -2.2534    1.0914   -1.5322 O   0  0  0  0  0  0  0  0  0  0  0  0
   -0.0775    0.8862    0.5323 C   0  0  0  0  0  0  0  0  0  0  0  0
    2.6531    1.2049    0.2013 H   0  0  0  0  0  0  0  0  0  0  0  0
    3.0450   -0.5073   -0.0314 H   0  0  0  0  0  0  0  0  0  0  0  0
    2.2182    0.3821   -1.3646 H   0  0  0  0  0  0  0  0  0  0  0  0
    0.9886   -0.9020    1.1236 H   0  0  0  0  0  0  0  0  0  0  0  0
    0.0331   -0.0845   -1.6973 H   0  0  0  0  0  0  0  0  0  0  0  0
   -0.0200   -1.7924   -0.9289 H   0  0  0  0  0  0  0  0  0  0  0  0
   -1.7123   -1.8514    0.8664 H   0  0  0  0  0  0  0  0  0  0  0  0
   -3.2664    0.0815   -0.1921 H   0  0  0  0  0  0  0  0  0  0  0  0
    0.0726    1.6852   -0.2222 H   0  0  0  0  0  0  0  0  0  0  0  0
   -0.1329    1.2175    1.5697 H   0  0  0  0  0  0  0  0  0  0  0  0
  1  2  1  0
  2  3  1  0
  3  4  1  0
  4  5  1  0
  4  6  1  0
  6  7  2  0
  4  8  1  0
  8  2  1  0
  1  9  1  0
  1 10  1  0
  1 11  1  0
  2 12  1  0
  3 13  1  0
  3 14  1  0
  5 15  1  0
  6 16  1  0
  8 17  1  0
  8 18  1  0
M  END
