
     RDKit          3D

 17 17  0  0  0  0  0  0  0  0999 V2000
    2.2621   -0.4647    0.0757 C   0  0  0  0  0  0  0  0  0  0  0  0
    0.8091   -0.2183   -0.1684 C   0  0  0  0  0  0  0  0  0  0  0  0
    0.3879    1.1761    0.1408 C   0  0  0  0  0  0  0  0  0  0  0  0
   -0.9225    1.3973   -0.0139 C   0  0  0  0  0  0  0  0  0  0  0  0
   -1.7179    0.1992   -0.4692 C   0  0  0  0  0  0  0  0  0  0  0  0
   -1.3065   -0.9403    0.4473 C   0  0  0  0  0  0  0  0  0  0  0  0
    0.0478   -1.0753    0.5800 O   0  0  0  0  0  0  0  0  0  0  0  0
    2.3991   -1.4747    0.5057 H   0  0  0  0  0  0  0  0  0  0  0  0
    2.8364   -0.4501   -0.8912 H   0  0  0  0  0  0  0  0  0  0  0  0
    2.6501    0.3363    0.7251 H   0  0  0  0  0  0  0  0  0  0  0  0
    0.5889   -0.4218   -1.2439 H   0  0  0  0  0  0  0  0  0  0  0  0
    1.0695    1.9556    0.4639 H   0  0  0  0  0  0  0  0  0  0  0  0
   -1.3546    2.3544    0.1749 H   0  0  0  0  0  0  0  0  0  0  0  0
   -2.8014    0.3598   -0.3450 H   0  0  0  0  0  0  0  0  0  0  0  0
   -1.4238   -0.0957   -1.4895 H   0  0  0  0  0  0  0  0  0  0  0  0
   -1.7215   -1.8959    0.0824 H   0  0  0  0  0  0  0  0  0  0  0  0
   -1.8026   -0.7422    1.4253 H   0  0  0  0  0  0  0  0  0  0  0  0
  1  2  1  0
  2  3  1  0
  3  4  2  0
  4  5  1  0
  5  6  1  0
  6  7  1  0
  7  2  1  0
  1  8  1  0
  1  9  1  0
  1 10  1  0
  2 11  1  0
  3 12  1  0
  4 13  1  0
  5 14  1  0
  5 15  1  0
  6 16  1  0
  6 17  1  0
M  END
