
     RDKit          3D

 21 22  0  0  0  0  0  0  0  0999 V2000
   -1.6175   -0.8354   -0.6019 C   0  0  0  0  0  0  0  0  0  0  0  0
   -0.8699   -0.0236    0.4014 C   0  0  0  0  0  0  0  0  0  0  0  0
   -0.9103    1.4528    0.0358 C   0  0  0  0  0  0  0  0  0  0  0  0
    0.5367    1.8475    0.2751 C   0  0  0  0  0  0  0  0  0  0  0  0
    1.2399    1.5456   -0.8886 O   0  0  0  0  0  0  0  0  0  0  0  0
    1.2170    0.1500   -0.9646 C   0  0  0  0  0  0  0  0  0  0  0  0
    0.6236   -0.2581    0.3673 C   0  0  0  0  0  0  0  0  0  0  0  0
    1.0681   -1.5522    0.8798 C   0  0  0  0  0  0  0  0  0  0  0  0
    1.0418    0.8504    1.1461 O   0  0  0  0  0  0  0  0  0  0  0  0
   -1.4590   -1.9098   -0.4314 H   0  0  0  0  0  0  0  0  0  0  0  0
   -1.3207   -0.6145   -1.6328 H   0  0  0  0  0  0  0  0  0  0  0  0
   -2.6910   -0.6353   -0.4683 H   0  0  0  0  0  0  0  0  0  0  0  0
   -1.2319   -0.2071    1.4139 H   0  0  0  0  0  0  0  0  0  0  0  0
   -1.1761    1.5062   -1.0398 H   0  0  0  0  0  0  0  0  0  0  0  0
   -1.6111    1.9985    0.6760 H   0  0  0  0  0  0  0  0  0  0  0  0
    0.6718    2.8468    0.6466 H   0  0  0  0  0  0  0  0  0  0  0  0
    0.6732   -0.2292   -1.8268 H   0  0  0  0  0  0  0  0  0  0  0  0
    2.2828   -0.1725   -0.9426 H   0  0  0  0  0  0  0  0  0  0  0  0
    1.8582   -1.9700    0.2300 H   0  0  0  0  0  0  0  0  0  0  0  0
    1.4586   -1.5118    1.9060 H   0  0  0  0  0  0  0  0  0  0  0  0
    0.2157   -2.2783    0.8188 H   0  0  0  0  0  0  0  0  0  0  0  0
  1  2  1  0
  2  3  1  0
  3  4  1  0
  4  5  1  0
  5  6  1  0
  6  7  1  0
  7  8  1  0
  7  9  1  0
  7  2  1  0
  9  4  1  0
  1 10  1  0
  1 11  1  0
  1 12  1  0
  2 13  1  0
  3 14  1  0
  3 15  1  0
  4 16  1  0
  6 17  1  0
  6 18  1  0
  8 19  1  0
  8 20  1  0
  8 21  1  0
M  END
