
     RDKit          3D

 19 20  0  0  0  0  0  0  0  0999 V2000
    2.6769    0.3069   -0.0538 C   0  0  0  0  0  0  0  0  0  0  0  0
    1.2387    0.3591   -0.5151 C   0  0  0  0  0  0  0  0  0  0  0  0
    0.2424    0.7885    0.4741 C   0  0  0  0  0  0  0  0  0  0  0  0
   -1.2272    0.6773    0.2650 C   0  0  0  0  0  0  0  0  0  0  0  0
   -1.8429    1.6869   -0.4506 O   0  0  0  0  0  0  0  0  0  0  0  0
   -1.0785   -0.6329   -0.4737 C   0  0  0  0  0  0  0  0  0  0  0  0
   -1.9600   -1.7157   -0.0442 C   0  0  0  0  0  0  0  0  0  0  0  0
   -2.9623   -1.9542   -0.6898 O   0  0  0  0  0  0  0  0  0  0  0  0
    0.3462   -0.6884    0.0292 C   0  0  0  0  0  0  0  0  0  0  0  0
    2.9176   -0.6761    0.4347 H   0  0  0  0  0  0  0  0  0  0  0  0
    2.9268    1.1544    0.6325 H   0  0  0  0  0  0  0  0  0  0  0  0
    3.3577    0.4199   -0.9378 H   0  0  0  0  0  0  0  0  0  0  0  0
    1.0888    0.5695   -1.6113 H   0  0  0  0  0  0  0  0  0  0  0  0
    0.5975    1.0358    1.4922 H   0  0  0  0  0  0  0  0  0  0  0  0
   -1.7727    0.5010    1.2207 H   0  0  0  0  0  0  0  0  0  0  0  0
   -2.3531    2.3035    0.1615 H   0  0  0  0  0  0  0  0  0  0  0  0
   -1.0578   -0.4307   -1.5742 H   0  0  0  0  0  0  0  0  0  0  0  0
   -1.7732   -2.3266    0.8245 H   0  0  0  0  0  0  0  0  0  0  0  0
    0.6350   -1.3782    0.8161 H   0  0  0  0  0  0  0  0  0  0  0  0
  1  2  1  0
  2  3  1  0
  3  4  1  0
  4  5  1  0
  4  6  1  0
  6  7  1  0
  7  8  2  0
  6  9  1  0
  9  2  1  0
  9  3  1  0
  1 10  1  0
  1 11  1  0
  1 12  1  0
  2 13  1  0
  3 14  1  0
  4 15  1  0
  5 16  1  0
  6 17  1  0
  7 18  1  0
  9 19  1  0
M  END
