
     RDKit          3D

 20 21  0  0  0  0  0  0  0  0999 V2000
   -1.8140   -0.7486   -0.4412 C   0  0  0  0  0  0  0  0  0  0  0  0
   -0.5667   -0.5473    0.3565 C   0  0  0  0  0  0  0  0  0  0  0  0
   -0.5060    0.8272    1.0021 C   0  0  0  0  0  0  0  0  0  0  0  0
   -0.3307    1.7934   -0.1106 C   0  0  0  0  0  0  0  0  0  0  0  0
    0.9743    1.0587   -0.1810 C   0  0  0  0  0  0  0  0  0  0  0  0
    0.8857    0.9668    1.2283 O   0  0  0  0  0  0  0  0  0  0  0  0
    0.6623   -0.3701   -0.5587 C   0  0  0  0  0  0  0  0  0  0  0  0
    1.7353   -1.2466   -0.0041 C   0  0  0  0  0  0  0  0  0  0  0  0
   -2.5377   -1.3327    0.1993 H   0  0  0  0  0  0  0  0  0  0  0  0
   -1.6621   -1.3697   -1.3565 H   0  0  0  0  0  0  0  0  0  0  0  0
   -2.3388    0.1660   -0.7249 H   0  0  0  0  0  0  0  0  0  0  0  0
   -0.4365   -1.3662    1.0602 H   0  0  0  0  0  0  0  0  0  0  0  0
   -1.1555    1.0335    1.8206 H   0  0  0  0  0  0  0  0  0  0  0  0
   -0.1788    2.8150    0.2573 H   0  0  0  0  0  0  0  0  0  0  0  0
   -0.9893    1.6823   -0.9904 H   0  0  0  0  0  0  0  0  0  0  0  0
    1.8356    1.5319   -0.5893 H   0  0  0  0  0  0  0  0  0  0  0  0
    0.4218   -0.5136   -1.6028 H   0  0  0  0  0  0  0  0  0  0  0  0
    2.5512   -1.4772   -0.6884 H   0  0  0  0  0  0  0  0  0  0  0  0
    1.2526   -2.1670    0.4369 H   0  0  0  0  0  0  0  0  0  0  0  0
    2.1973   -0.7358    0.8867 H   0  0  0  0  0  0  0  0  0  0  0  0
  1  2  1  0
  2  3  1  0
  3  4  1  0
  4  5  1  0
  5  6  1  0
  5  7  1  0
  7  8  1  0
  7  2  1  0
  6  3  1  0
  1  9  1  0
  1 10  1  0
  1 11  1  0
  2 12  1  0
  3 13  1  0
  4 14  1  0
  4 15  1  0
  5 16  1  0
  7 17  1  0
  8 18  1  0
  8 19  1  0
  8 20  1  0
M  END
