
     RDKit          3D

 20 20  0  0  0  0  0  0  0  0999 V2000
    1.8024   -0.9081   -0.1246 C   0  0  0  0  0  0  0  0  0  0  0  0
    0.8179    0.2002   -0.3130 C   0  0  0  0  0  0  0  0  0  0  0  0
    0.7418    1.1452    0.8585 C   0  0  0  0  0  0  0  0  0  0  0  0
   -0.5655    1.8029    0.6470 C   0  0  0  0  0  0  0  0  0  0  0  0
   -1.3189    1.0352   -0.1208 C   0  0  0  0  0  0  0  0  0  0  0  0
   -0.5941   -0.2292   -0.5117 C   0  0  0  0  0  0  0  0  0  0  0  0
   -1.0486   -1.3820    0.2845 C   0  0  0  0  0  0  0  0  0  0  0  0
   -0.8610   -0.4538   -1.8593 O   0  0  0  0  0  0  0  0  0  0  0  0
    2.7923   -0.4386    0.0630 H   0  0  0  0  0  0  0  0  0  0  0  0
    1.8918   -1.4571   -1.0733 H   0  0  0  0  0  0  0  0  0  0  0  0
    1.5958   -1.5544    0.7425 H   0  0  0  0  0  0  0  0  0  0  0  0
    1.1415    0.7896   -1.1961 H   0  0  0  0  0  0  0  0  0  0  0  0
    1.5354    1.9176    0.7960 H   0  0  0  0  0  0  0  0  0  0  0  0
    0.7435    0.6156    1.8319 H   0  0  0  0  0  0  0  0  0  0  0  0
   -0.8823    2.7841    1.0588 H   0  0  0  0  0  0  0  0  0  0  0  0
   -2.3452    1.3103   -0.4220 H   0  0  0  0  0  0  0  0  0  0  0  0
   -0.4070   -1.7147    1.0941 H   0  0  0  0  0  0  0  0  0  0  0  0
   -1.2720   -2.2705   -0.3662 H   0  0  0  0  0  0  0  0  0  0  0  0
   -2.0386   -1.1109    0.7570 H   0  0  0  0  0  0  0  0  0  0  0  0
   -1.7291   -0.0814   -2.1464 H   0  0  0  0  0  0  0  0  0  0  0  0
  1  2  1  0
  2  3  1  0
  3  4  1  0
  4  5  2  0
  5  6  1  0
  6  7  1  0
  6  8  1  0
  6  2  1  0
  1  9  1  0
  1 10  1  0
  1 11  1  0
  2 12  1  0
  3 13  1  0
  3 14  1  0
  4 15  1  0
  5 16  1  0
  7 17  1  0
  7 18  1  0
  7 19  1  0
  8 20  1  0
M  END
