
     RDKit          3D

 17 18  0  0  0  0  0  0  0  0999 V2000
    1.5190    0.6419    0.6377 C   0  0  0  0  0  0  0  0  0  0  0  0
    0.7030    0.1871   -0.5122 C   0  0  0  0  0  0  0  0  0  0  0  0
    0.6986   -1.3475   -0.5754 C   0  0  0  0  0  0  0  0  0  0  0  0
   -0.8059   -1.2755   -0.5235 C   0  0  0  0  0  0  0  0  0  0  0  0
   -1.4366   -0.4659   -1.4488 O   0  0  0  0  0  0  0  0  0  0  0  0
   -0.7659    0.1486   -0.4000 C   0  0  0  0  0  0  0  0  0  0  0  0
   -1.5759    1.0068    0.4748 C   0  0  0  0  0  0  0  0  0  0  0  0
    1.0123    0.6313    1.6151 H   0  0  0  0  0  0  0  0  0  0  0  0
    2.0092    1.6197    0.4073 H   0  0  0  0  0  0  0  0  0  0  0  0
    2.3825   -0.0799    0.7456 H   0  0  0  0  0  0  0  0  0  0  0  0
    1.0318    0.6619   -1.4639 H   0  0  0  0  0  0  0  0  0  0  0  0
    1.0584   -1.7040   -1.5376 H   0  0  0  0  0  0  0  0  0  0  0  0
    1.1411   -1.8334    0.3151 H   0  0  0  0  0  0  0  0  0  0  0  0
   -1.3768   -1.8794    0.1844 H   0  0  0  0  0  0  0  0  0  0  0  0
   -2.5944    0.5314    0.5927 H   0  0  0  0  0  0  0  0  0  0  0  0
   -1.2071    1.1623    1.4964 H   0  0  0  0  0  0  0  0  0  0  0  0
   -1.7934    1.9945   -0.0076 H   0  0  0  0  0  0  0  0  0  0  0  0
  1  2  1  0
  2  3  1  0
  3  4  1  0
  4  5  1  0
  5  6  1  0
  6  7  1  0
  6  2  1  0
  6  4  1  0
  1  8  1  0
  1  9  1  0
  1 10  1  0
  2 11  1  0
  3 12  1  0
  3 13  1  0
  4 14  1  0
  7 15  1  0
  7 16  1  0
  7 17  1  0
M  END
