
     RDKit          3D

 25 25  0  0  0  0  0  0  0  0999 V2000
    2.6840    0.3118   -0.0609 C   0  0  0  0  0  0  0  0  0  0  0  0
    1.4791    0.0082   -0.9290 C   0  0  0  0  0  0  0  0  0  0  0  0
    1.0450   -1.3965   -0.6219 C   0  0  0  0  0  0  0  0  0  0  0  0
   -0.4111   -1.5210   -0.2968 C   0  0  0  0  0  0  0  0  0  0  0  0
   -0.9228   -0.4112    0.5899 C   0  0  0  0  0  0  0  0  0  0  0  0
   -2.4242   -0.3000    0.3130 C   0  0  0  0  0  0  0  0  0  0  0  0
   -0.2119    0.8895    0.3798 C   0  0  0  0  0  0  0  0  0  0  0  0
   -1.1582    2.0772    0.4322 C   0  0  0  0  0  0  0  0  0  0  0  0
    0.4795    0.9434   -0.8200 O   0  0  0  0  0  0  0  0  0  0  0  0
    3.5032   -0.3528   -0.4581 H   0  0  0  0  0  0  0  0  0  0  0  0
    3.0350    1.3438   -0.1811 H   0  0  0  0  0  0  0  0  0  0  0  0
    2.5403   -0.0006    0.9914 H   0  0  0  0  0  0  0  0  0  0  0  0
    1.8227    0.0140   -1.9932 H   0  0  0  0  0  0  0  0  0  0  0  0
    1.6092   -1.8407    0.2451 H   0  0  0  0  0  0  0  0  0  0  0  0
    1.2496   -2.1031   -1.4702 H   0  0  0  0  0  0  0  0  0  0  0  0
   -0.5726   -2.5080    0.1951 H   0  0  0  0  0  0  0  0  0  0  0  0
   -0.9635   -1.5817   -1.2652 H   0  0  0  0  0  0  0  0  0  0  0  0
   -0.7940   -0.7334    1.6493 H   0  0  0  0  0  0  0  0  0  0  0  0
   -2.6009    0.0889   -0.6989 H   0  0  0  0  0  0  0  0  0  0  0  0
   -2.7905   -1.3643    0.3073 H   0  0  0  0  0  0  0  0  0  0  0  0
   -2.9636    0.2049    1.1130 H   0  0  0  0  0  0  0  0  0  0  0  0
    0.5512    1.0560    1.1867 H   0  0  0  0  0  0  0  0  0  0  0  0
   -1.9258    1.9567    1.2408 H   0  0  0  0  0  0  0  0  0  0  0  0
   -0.6062    3.0111    0.7052 H   0  0  0  0  0  0  0  0  0  0  0  0
   -1.6537    2.2076   -0.5536 H   0  0  0  0  0  0  0  0  0  0  0  0
  1  2  1  0
  2  3  1  0
  3  4  1  0
  4  5  1  0
  5  6  1  0
  5  7  1  0
  7  8  1  0
  7  9  1  0
  9  2  1  0
  1 10  1  0
  1 11  1  0
  1 12  1  0
  2 13  1  0
  3 14  1  0
  3 15  1  0
  4 16  1  0
  4 17  1  0
  5 18  1  0
  6 19  1  0
  6 20  1  0
  6 21  1  0
  7 22  1  0
  8 23  1  0
  8 24  1  0
  8 25  1  0
M  END
