
     RDKit          3D

 24 24  0  0  0  0  0  0  0  0999 V2000
    0.0042    2.0182    0.8436 C   0  0  0  0  0  0  0  0  0  0  0  0
    0.1902    1.0326   -0.2754 C   0  0  0  0  0  0  0  0  0  0  0  0
    0.7291   -0.3132   -0.0744 C   0  0  0  0  0  0  0  0  0  0  0  0
    1.7001   -0.8132   -1.1425 C   0  0  0  0  0  0  0  0  0  0  0  0
    1.2079   -0.7380    1.3210 C   0  0  0  0  0  0  0  0  0  0  0  0
   -0.6964   -0.1997   -0.3157 C   0  0  0  0  0  0  0  0  0  0  0  0
   -1.6199   -0.4404    0.8873 C   0  0  0  0  0  0  0  0  0  0  0  0
   -1.3806   -0.4307   -1.6117 C   0  0  0  0  0  0  0  0  0  0  0  0
    0.9325    2.6381    0.9170 H   0  0  0  0  0  0  0  0  0  0  0  0
   -0.8041    2.7636    0.5798 H   0  0  0  0  0  0  0  0  0  0  0  0
   -0.3047    1.5707    1.7888 H   0  0  0  0  0  0  0  0  0  0  0  0
    0.4103    1.5427   -1.2589 H   0  0  0  0  0  0  0  0  0  0  0  0
    1.2244   -1.0192   -2.0940 H   0  0  0  0  0  0  0  0  0  0  0  0
    2.1929   -1.7724   -0.8130 H   0  0  0  0  0  0  0  0  0  0  0  0
    2.5087   -0.0748   -1.2339 H   0  0  0  0  0  0  0  0  0  0  0  0
    0.9126   -1.7910    1.5283 H   0  0  0  0  0  0  0  0  0  0  0  0
    0.8947   -0.0497    2.0988 H   0  0  0  0  0  0  0  0  0  0  0  0
    2.3360   -0.7492    1.3431 H   0  0  0  0  0  0  0  0  0  0  0  0
   -1.1123   -0.3015    1.8380 H   0  0  0  0  0  0  0  0  0  0  0  0
   -2.5737    0.0846    0.7682 H   0  0  0  0  0  0  0  0  0  0  0  0
   -1.8696   -1.5409    0.8233 H   0  0  0  0  0  0  0  0  0  0  0  0
   -0.7825   -0.8469   -2.4124 H   0  0  0  0  0  0  0  0  0  0  0  0
   -2.2811   -1.1035   -1.5040 H   0  0  0  0  0  0  0  0  0  0  0  0
   -1.8187    0.5337   -2.0016 H   0  0  0  0  0  0  0  0  0  0  0  0
  1  2  1  0
  2  3  1  0
  3  4  1  0
  3  5  1  0
  3  6  1  0
  6  7  1  0
  6  8  1  0
  6  2  1  0
  1  9  1  0
  1 10  1  0
  1 11  1  0
  2 12  1  0
  4 13  1  0
  4 14  1  0
  4 15  1  0
  5 16  1  0
  5 17  1  0
  5 18  1  0
  7 19  1  0
  7 20  1  0
  7 21  1  0
  8 22  1  0
  8 23  1  0
  8 24  1  0
M  END
