
     RDKit          3D

 21 21  0  0  0  0  0  0  0  0999 V2000
    1.7343    0.5488    0.6114 C   0  0  0  0  0  0  0  0  0  0  0  0
    1.0047   -0.0045   -0.5826 C   0  0  0  0  0  0  0  0  0  0  0  0
    0.3388   -1.3154   -0.3132 C   0  0  0  0  0  0  0  0  0  0  0  0
   -0.4605   -1.3784    0.9324 C   0  0  0  0  0  0  0  0  0  0  0  0
   -0.9268   -0.1528    1.3866 O   0  0  0  0  0  0  0  0  0  0  0  0
   -1.8571    0.3005    0.4520 C   0  0  0  0  0  0  0  0  0  0  0  0
   -1.1380    1.2591   -0.4200 C   0  0  0  0  0  0  0  0  0  0  0  0
   -1.6605    2.3501   -0.4859 O   0  0  0  0  0  0  0  0  0  0  0  0
    0.0922    1.0229   -1.1776 C   0  0  0  0  0  0  0  0  0  0  0  0
    2.3850   -0.2633    1.0094 H   0  0  0  0  0  0  0  0  0  0  0  0
    2.4376    1.3338    0.2107 H   0  0  0  0  0  0  0  0  0  0  0  0
    1.0951    1.0196    1.3571 H   0  0  0  0  0  0  0  0  0  0  0  0
    1.8044   -0.2044   -1.3570 H   0  0  0  0  0  0  0  0  0  0  0  0
   -0.2313   -1.5919   -1.2277 H   0  0  0  0  0  0  0  0  0  0  0  0
    1.1472   -2.1001   -0.2369 H   0  0  0  0  0  0  0  0  0  0  0  0
   -1.3849   -1.9901    0.7132 H   0  0  0  0  0  0  0  0  0  0  0  0
    0.0678   -1.8587    1.7901 H   0  0  0  0  0  0  0  0  0  0  0  0
   -2.7084    0.7860    0.9854 H   0  0  0  0  0  0  0  0  0  0  0  0
   -2.2443   -0.5179   -0.1851 H   0  0  0  0  0  0  0  0  0  0  0  0
    0.6793    1.9828   -1.2278 H   0  0  0  0  0  0  0  0  0  0  0  0
   -0.1747    0.7739   -2.2346 H   0  0  0  0  0  0  0  0  0  0  0  0
  1  2  1  0
  2  3  1  0
  3  4  1  0
  4  5  1  0
  5  6  1  0
  6  7  1  0
  7  8  2  0
  7  9  1  0
  9  2  1  0
  1 10  1  0
  1 11  1  0
  1 12  1  0
  2 13  1  0
  3 14  1  0
  3 15  1  0
  4 16  1  0
  4 17  1  0
  6 18  1  0
  6 19  1  0
  9 20  1  0
  9 21  1  0
M  END
