
     RDKit          3D

 20 21  0  0  0  0  0  0  0  0999 V2000
   -0.3867   -1.7856    0.6686 C   0  0  0  0  0  0  0  0  0  0  0  0
    0.0162   -0.3388    0.7471 C   0  0  0  0  0  0  0  0  0  0  0  0
    0.9111    0.1024   -0.3749 C   0  0  0  0  0  0  0  0  0  0  0  0
    2.2116   -0.2744   -0.6080 C   0  0  0  0  0  0  0  0  0  0  0  0
    0.3714    1.4805   -0.1940 C   0  0  0  0  0  0  0  0  0  0  0  0
   -0.7903    0.5216   -0.1663 C   0  0  0  0  0  0  0  0  0  0  0  0
   -2.1228    0.8609   -0.0405 C   0  0  0  0  0  0  0  0  0  0  0  0
   -0.1820   -0.1260   -1.2243 O   0  0  0  0  0  0  0  0  0  0  0  0
   -0.1625   -2.1664   -0.3367 H   0  0  0  0  0  0  0  0  0  0  0  0
   -1.4972   -1.8295    0.7982 H   0  0  0  0  0  0  0  0  0  0  0  0
    0.0607   -2.4064    1.4687 H   0  0  0  0  0  0  0  0  0  0  0  0
    0.2463    0.0540    1.7423 H   0  0  0  0  0  0  0  0  0  0  0  0
    2.8800    0.5763   -0.9398 H   0  0  0  0  0  0  0  0  0  0  0  0
    2.7543   -0.6892    0.2934 H   0  0  0  0  0  0  0  0  0  0  0  0
    2.3443   -1.0398   -1.4292 H   0  0  0  0  0  0  0  0  0  0  0  0
    0.5834    1.9907    0.7474 H   0  0  0  0  0  0  0  0  0  0  0  0
    0.4136    2.0777   -1.1167 H   0  0  0  0  0  0  0  0  0  0  0  0
   -2.7409    0.1321    0.5176 H   0  0  0  0  0  0  0  0  0  0  0  0
   -2.2862    1.8446    0.4893 H   0  0  0  0  0  0  0  0  0  0  0  0
   -2.6242    1.0152   -1.0420 H   0  0  0  0  0  0  0  0  0  0  0  0
  1  2  1  0
  2  3  1  0
  3  4  1  0
  3  5  1  0
  5  6  1  0
  6  7  1  0
  6  8  1  0
  6  2  1  0
  8  3  1  0
  1  9  1  0
  1 10  1  0
  1 11  1  0
  2 12  1  0
  4 13  1  0
  4 14  1  0
  4 15  1  0
  5 16  1  0
  5 17  1  0
  7 18  1  0
  7 19  1  0
  7 20  1  0
M  END
