
     RDKit          3D

 18 19  0  0  0  0  0  0  0  0999 V2000
   -2.1341   -0.2491    0.1992 C   0  0  0  0  0  0  0  0  0  0  0  0
   -0.8167    0.0318   -0.5061 C   0  0  0  0  0  0  0  0  0  0  0  0
    0.2135   -0.9448    0.0961 C   0  0  0  0  0  0  0  0  0  0  0  0
    1.4201   -0.0560    0.4491 C   0  0  0  0  0  0  0  0  0  0  0  0
    2.6106   -0.7127    0.2835 O   0  0  0  0  0  0  0  0  0  0  0  0
    1.1699    1.0524   -0.5113 C   0  0  0  0  0  0  0  0  0  0  0  0
    0.5596    2.2001   -0.4332 O   0  0  0  0  0  0  0  0  0  0  0  0
   -0.2765    1.3118    0.0209 C   0  0  0  0  0  0  0  0  0  0  0  0
   -2.8323    0.6149    0.0647 H   0  0  0  0  0  0  0  0  0  0  0  0
   -2.5726   -1.2112   -0.0704 H   0  0  0  0  0  0  0  0  0  0  0  0
   -1.8886   -0.2431    1.2980 H   0  0  0  0  0  0  0  0  0  0  0  0
   -0.8740   -0.0521   -1.5874 H   0  0  0  0  0  0  0  0  0  0  0  0
   -0.1821   -1.4608    0.9727 H   0  0  0  0  0  0  0  0  0  0  0  0
    0.5718   -1.6297   -0.7043 H   0  0  0  0  0  0  0  0  0  0  0  0
    1.3161    0.2152    1.5113 H   0  0  0  0  0  0  0  0  0  0  0  0
    2.8668   -0.8721   -0.6582 H   0  0  0  0  0  0  0  0  0  0  0  0
    1.2275    0.6603   -1.5745 H   0  0  0  0  0  0  0  0  0  0  0  0
   -0.3790    1.3450    1.1500 H   0  0  0  0  0  0  0  0  0  0  0  0
  1  2  1  0
  2  3  1  0
  3  4  1  0
  4  5  1  0
  4  6  1  0
  6  7  1  0
  7  8  1  0
  8  2  1  0
  8  6  1  0
  1  9  1  0
  1 10  1  0
  1 11  1  0
  2 12  1  0
  3 13  1  0
  3 14  1  0
  4 15  1  0
  5 16  1  0
  6 17  1  0
  8 18  1  0
M  END
