
     RDKit          3D

 21 23  0  0  0  0  0  0  0  0999 V2000
    2.4317   -0.0204    0.3709 C   0  0  0  0  0  0  0  0  0  0  0  0
    1.3887   -0.2287   -0.6936 C   0  0  0  0  0  0  0  0  0  0  0  0
    0.5696   -1.4559   -0.7584 C   0  0  0  0  0  0  0  0  0  0  0  0
   -0.0178   -0.2754   -0.1975 C   0  0  0  0  0  0  0  0  0  0  0  0
   -1.0009    0.6264   -0.9392 C   0  0  0  0  0  0  0  0  0  0  0  0
   -1.9815    1.0602    0.1727 C   0  0  0  0  0  0  0  0  0  0  0  0
   -1.8906   -0.1715    1.0095 C   0  0  0  0  0  0  0  0  0  0  0  0
   -1.2075   -0.5043    2.0662 O   0  0  0  0  0  0  0  0  0  0  0  0
   -0.3481   -0.0092    1.2119 C   0  0  0  0  0  0  0  0  0  0  0  0
    1.9863    0.5417    1.2413 H   0  0  0  0  0  0  0  0  0  0  0  0
    2.8508   -0.9871    0.7207 H   0  0  0  0  0  0  0  0  0  0  0  0
    3.2554    0.6396    0.0071 H   0  0  0  0  0  0  0  0  0  0  0  0
    1.6116    0.2866   -1.6650 H   0  0  0  0  0  0  0  0  0  0  0  0
    0.8388   -2.2927   -0.0734 H   0  0  0  0  0  0  0  0  0  0  0  0
    0.2956   -1.8342   -1.7725 H   0  0  0  0  0  0  0  0  0  0  0  0
   -1.5840   -0.0049   -1.6687 H   0  0  0  0  0  0  0  0  0  0  0  0
   -0.5223    1.4818   -1.4120 H   0  0  0  0  0  0  0  0  0  0  0  0
   -2.9712    1.2744   -0.2219 H   0  0  0  0  0  0  0  0  0  0  0  0
   -1.4971    1.9126    0.6995 H   0  0  0  0  0  0  0  0  0  0  0  0
   -2.1971   -1.0715    0.3885 H   0  0  0  0  0  0  0  0  0  0  0  0
   -0.0104    1.0325    1.5139 H   0  0  0  0  0  0  0  0  0  0  0  0
  1  2  1  0
  2  3  1  0
  3  4  1  0
  4  5  1  0
  5  6  1  0
  6  7  1  0
  7  8  1  0
  8  9  1  0
  4  2  1  0
  9  7  1  0
  9  4  1  0
  1 10  1  0
  1 11  1  0
  1 12  1  0
  2 13  1  0
  3 14  1  0
  3 15  1  0
  5 16  1  0
  5 17  1  0
  6 18  1  0
  6 19  1  0
  7 20  1  0
  9 21  1  0
M  END
