
     RDKit          3D

 23 24  0  0  0  0  0  0  0  0999 V2000
   -2.2219   -1.1744   -0.3538 C   0  0  0  0  0  0  0  0  0  0  0  0
   -1.3907   -0.4907    0.7274 C   0  0  0  0  0  0  0  0  0  0  0  0
   -0.0060   -0.7712    0.7217 C   0  0  0  0  0  0  0  0  0  0  0  0
    1.0060   -0.9257   -0.3452 C   0  0  0  0  0  0  0  0  0  0  0  0
    1.9684    0.2492   -0.0946 C   0  0  0  0  0  0  0  0  0  0  0  0
    1.5333    1.1326    1.0144 C   0  0  0  0  0  0  0  0  0  0  0  0
    0.2052    1.4486    1.1229 O   0  0  0  0  0  0  0  0  0  0  0  0
   -0.5909    0.6470    0.4026 C   0  0  0  0  0  0  0  0  0  0  0  0
   -0.6910    1.0786   -1.0344 C   0  0  0  0  0  0  0  0  0  0  0  0
   -3.0093   -1.8093    0.0410 H   0  0  0  0  0  0  0  0  0  0  0  0
   -1.5763   -1.7753   -1.0433 H   0  0  0  0  0  0  0  0  0  0  0  0
   -2.6960   -0.4021   -1.0206 H   0  0  0  0  0  0  0  0  0  0  0  0
   -1.9403   -0.4840    1.6877 H   0  0  0  0  0  0  0  0  0  0  0  0
    0.4849   -0.8882    1.7349 H   0  0  0  0  0  0  0  0  0  0  0  0
    0.6609   -0.9727   -1.3700 H   0  0  0  0  0  0  0  0  0  0  0  0
    1.5301   -1.9115   -0.1572 H   0  0  0  0  0  0  0  0  0  0  0  0
    2.9453   -0.2224    0.2334 H   0  0  0  0  0  0  0  0  0  0  0  0
    2.2339    0.7619   -1.0397 H   0  0  0  0  0  0  0  0  0  0  0  0
    2.1314    2.0683    0.9482 H   0  0  0  0  0  0  0  0  0  0  0  0
    1.8550    0.6664    1.9919 H   0  0  0  0  0  0  0  0  0  0  0  0
   -1.6338    1.7137   -1.0696 H   0  0  0  0  0  0  0  0  0  0  0  0
   -0.8973    0.2732   -1.7446 H   0  0  0  0  0  0  0  0  0  0  0  0
    0.0993    1.7882   -1.3529 H   0  0  0  0  0  0  0  0  0  0  0  0
  1  2  1  0
  2  3  1  0
  3  4  1  0
  4  5  1  0
  5  6  1  0
  6  7  1  0
  7  8  1  0
  8  9  1  0
  8  2  1  0
  8  3  1  0
  1 10  1  0
  1 11  1  0
  1 12  1  0
  2 13  1  0
  3 14  1  0
  4 15  1  0
  4 16  1  0
  5 17  1  0
  5 18  1  0
  6 19  1  0
  6 20  1  0
  9 21  1  0
  9 22  1  0
  9 23  1  0
M  END
