
     RDKit          3D

 20 21  0  0  0  0  0  0  0  0999 V2000
    2.2631    0.1903   -0.1669 C   0  0  0  0  0  0  0  0  0  0  0  0
    0.8190    0.5223   -0.4248 C   0  0  0  0  0  0  0  0  0  0  0  0
   -0.1097    0.7828    0.6793 C   0  0  0  0  0  0  0  0  0  0  0  0
   -1.3013    1.7042    0.5276 C   0  0  0  0  0  0  0  0  0  0  0  0
   -0.1837   -0.4406   -0.0989 C   0  0  0  0  0  0  0  0  0  0  0  0
   -0.0619   -1.8069    0.3844 C   0  0  0  0  0  0  0  0  0  0  0  0
   -1.3106   -2.0851   -0.2251 O   0  0  0  0  0  0  0  0  0  0  0  0
   -1.3251   -0.8672   -0.9367 C   0  0  0  0  0  0  0  0  0  0  0  0
    2.8538    0.2438   -1.1024 H   0  0  0  0  0  0  0  0  0  0  0  0
    2.3515   -0.8683    0.1862 H   0  0  0  0  0  0  0  0  0  0  0  0
    2.7100    0.8273    0.6232 H   0  0  0  0  0  0  0  0  0  0  0  0
    0.6757    1.1505   -1.3457 H   0  0  0  0  0  0  0  0  0  0  0  0
    0.2359    0.7021    1.7410 H   0  0  0  0  0  0  0  0  0  0  0  0
   -1.4554    1.8807   -0.5433 H   0  0  0  0  0  0  0  0  0  0  0  0
   -1.2444    2.5983    1.1509 H   0  0  0  0  0  0  0  0  0  0  0  0
   -2.1857    1.1170    0.9072 H   0  0  0  0  0  0  0  0  0  0  0  0
   -0.2085   -1.8865    1.4901 H   0  0  0  0  0  0  0  0  0  0  0  0
    0.7646   -2.3924   -0.0350 H   0  0  0  0  0  0  0  0  0  0  0  0
   -2.2264   -0.2639   -0.8111 H   0  0  0  0  0  0  0  0  0  0  0  0
   -1.0610   -1.1084   -2.0002 H   0  0  0  0  0  0  0  0  0  0  0  0
  1  2  1  0
  2  3  1  0
  3  4  1  0
  3  5  1  0
  5  6  1  0
  6  7  1  0
  7  8  1  0
  5  2  1  0
  8  5  1  0
  1  9  1  0
  1 10  1  0
  1 11  1  0
  2 12  1  0
  3 13  1  0
  4 14  1  0
  4 15  1  0
  4 16  1  0
  6 17  1  0
  6 18  1  0
  8 19  1  0
  8 20  1  0
M  END
