
     RDKit          3D

 19 20  0  0  0  0  0  0  0  0999 V2000
   -1.8378   -1.4701    0.1664 C   0  0  0  0  0  0  0  0  0  0  0  0
   -1.1618   -0.1697    0.4681 C   0  0  0  0  0  0  0  0  0  0  0  0
   -0.5980    0.4919   -0.7726 C   0  0  0  0  0  0  0  0  0  0  0  0
   -0.1760    1.9207   -0.5213 C   0  0  0  0  0  0  0  0  0  0  0  0
    0.8947    1.3468    0.4138 C   0  0  0  0  0  0  0  0  0  0  0  0
    0.3154   -0.0071    0.2148 C   0  0  0  0  0  0  0  0  0  0  0  0
    1.0138   -1.1872    0.2292 O   0  0  0  0  0  0  0  0  0  0  0  0
    2.3614   -1.4025    0.0359 C   0  0  0  0  0  0  0  0  0  0  0  0
    3.0503   -0.3926   -0.1831 O   0  0  0  0  0  0  0  0  0  0  0  0
   -2.3411   -1.4634   -0.8380 H   0  0  0  0  0  0  0  0  0  0  0  0
   -2.6440   -1.6820    0.8949 H   0  0  0  0  0  0  0  0  0  0  0  0
   -1.1556   -2.3407    0.1853 H   0  0  0  0  0  0  0  0  0  0  0  0
   -1.5856    0.4345    1.2691 H   0  0  0  0  0  0  0  0  0  0  0  0
   -0.8069    0.1195   -1.7608 H   0  0  0  0  0  0  0  0  0  0  0  0
    0.1961    2.4592   -1.3876 H   0  0  0  0  0  0  0  0  0  0  0  0
   -0.9847    2.4370    0.0484 H   0  0  0  0  0  0  0  0  0  0  0  0
    0.7496    1.6806    1.4664 H   0  0  0  0  0  0  0  0  0  0  0  0
    1.8687    1.5962    0.0082 H   0  0  0  0  0  0  0  0  0  0  0  0
    2.8417   -2.3711    0.0629 H   0  0  0  0  0  0  0  0  0  0  0  0
  1  2  1  0
  2  3  1  0
  3  4  1  0
  4  5  1  0
  5  6  1  0
  6  7  1  0
  7  8  1  0
  8  9  2  0
  6  2  1  0
  6  3  1  0
  1 10  1  0
  1 11  1  0
  1 12  1  0
  2 13  1  0
  3 14  1  0
  4 15  1  0
  4 16  1  0
  5 17  1  0
  5 18  1  0
  8 19  1  0
M  END
