
     RDKit          3D

 23 24  0  0  0  0  0  0  0  0999 V2000
   -2.3116   -0.5858   -0.1015 C   0  0  0  0  0  0  0  0  0  0  0  0
   -0.9439   -0.2544    0.3975 C   0  0  0  0  0  0  0  0  0  0  0  0
   -0.0280   -1.4113    0.5621 C   0  0  0  0  0  0  0  0  0  0  0  0
    1.3482   -0.9623    0.0919 C   0  0  0  0  0  0  0  0  0  0  0  0
    1.7174   -1.8167   -0.9744 O   0  0  0  0  0  0  0  0  0  0  0  0
    1.1931    0.4031   -0.4883 C   0  0  0  0  0  0  0  0  0  0  0  0
    1.1694    1.5514    0.4852 C   0  0  0  0  0  0  0  0  0  0  0  0
   -0.1354    2.0016   -0.1827 C   0  0  0  0  0  0  0  0  0  0  0  0
   -0.2802    0.5837   -0.6702 C   0  0  0  0  0  0  0  0  0  0  0  0
   -2.2673   -1.1187   -1.0944 H   0  0  0  0  0  0  0  0  0  0  0  0
   -2.9692   -1.0701    0.6187 H   0  0  0  0  0  0  0  0  0  0  0  0
   -2.8041    0.4003   -0.3564 H   0  0  0  0  0  0  0  0  0  0  0  0
   -1.0526    0.2797    1.3608 H   0  0  0  0  0  0  0  0  0  0  0  0
    0.0908   -1.6403    1.6623 H   0  0  0  0  0  0  0  0  0  0  0  0
   -0.3553   -2.3464    0.0942 H   0  0  0  0  0  0  0  0  0  0  0  0
    2.1135   -1.0389    0.8686 H   0  0  0  0  0  0  0  0  0  0  0  0
    2.3049   -2.5424   -0.6773 H   0  0  0  0  0  0  0  0  0  0  0  0
    1.8196    0.5939   -1.3776 H   0  0  0  0  0  0  0  0  0  0  0  0
    0.9967    1.2017    1.5284 H   0  0  0  0  0  0  0  0  0  0  0  0
    1.9180    2.3356    0.3463 H   0  0  0  0  0  0  0  0  0  0  0  0
   -0.8951    2.2736    0.5855 H   0  0  0  0  0  0  0  0  0  0  0  0
   -0.0195    2.7269   -0.9853 H   0  0  0  0  0  0  0  0  0  0  0  0
   -0.6093    0.4356   -1.6934 H   0  0  0  0  0  0  0  0  0  0  0  0
  1  2  1  0
  2  3  1  0
  3  4  1  0
  4  5  1  0
  4  6  1  0
  6  7  1  0
  7  8  1  0
  8  9  1  0
  9  2  1  0
  9  6  1  0
  1 10  1  0
  1 11  1  0
  1 12  1  0
  2 13  1  0
  3 14  1  0
  3 15  1  0
  4 16  1  0
  5 17  1  0
  6 18  1  0
  7 19  1  0
  7 20  1  0
  8 21  1  0
  8 22  1  0
  9 23  1  0
M  END
