
     RDKit          3D

 23 24  0  0  0  0  0  0  0  0999 V2000
   -1.9169   -1.0114    0.1136 C   0  0  0  0  0  0  0  0  0  0  0  0
   -0.5809   -0.5426   -0.4746 C   0  0  0  0  0  0  0  0  0  0  0  0
    0.4662   -1.5276   -0.0650 C   0  0  0  0  0  0  0  0  0  0  0  0
    1.8476   -1.0026    0.0415 C   0  0  0  0  0  0  0  0  0  0  0  0
    2.0366    0.4418    0.1995 C   0  0  0  0  0  0  0  0  0  0  0  0
    0.8223    1.2559    0.5213 C   0  0  0  0  0  0  0  0  0  0  0  0
   -0.1018    0.8053    1.4585 O   0  0  0  0  0  0  0  0  0  0  0  0
   -0.3726    0.8428    0.0025 C   0  0  0  0  0  0  0  0  0  0  0  0
   -1.4287    1.8340   -0.4004 C   0  0  0  0  0  0  0  0  0  0  0  0
   -2.7611   -0.4429   -0.2737 H   0  0  0  0  0  0  0  0  0  0  0  0
   -1.8231   -0.9810    1.2262 H   0  0  0  0  0  0  0  0  0  0  0  0
   -2.0308   -2.0752   -0.2033 H   0  0  0  0  0  0  0  0  0  0  0  0
   -0.7470   -0.5084   -1.5816 H   0  0  0  0  0  0  0  0  0  0  0  0
    0.4217   -2.3511   -0.8130 H   0  0  0  0  0  0  0  0  0  0  0  0
    0.1586   -2.0156    0.8989 H   0  0  0  0  0  0  0  0  0  0  0  0
    2.4426   -1.3540   -0.8542 H   0  0  0  0  0  0  0  0  0  0  0  0
    2.3578   -1.5244    0.8973 H   0  0  0  0  0  0  0  0  0  0  0  0
    2.4796    0.8960   -0.7220 H   0  0  0  0  0  0  0  0  0  0  0  0
    2.7925    0.6852    1.0063 H   0  0  0  0  0  0  0  0  0  0  0  0
    1.0456    2.3366    0.6552 H   0  0  0  0  0  0  0  0  0  0  0  0
   -2.1790    1.3723   -1.1017 H   0  0  0  0  0  0  0  0  0  0  0  0
   -0.9229    2.6322   -0.9850 H   0  0  0  0  0  0  0  0  0  0  0  0
   -2.0065    2.2347    0.4538 H   0  0  0  0  0  0  0  0  0  0  0  0
  1  2  1  0
  2  3  1  0
  3  4  1  0
  4  5  1  0
  5  6  1  0
  6  7  1  0
  7  8  1  0
  8  9  1  0
  8  2  1  0
  8  6  1  0
  1 10  1  0
  1 11  1  0
  1 12  1  0
  2 13  1  0
  3 14  1  0
  3 15  1  0
  4 16  1  0
  4 17  1  0
  5 18  1  0
  5 19  1  0
  6 20  1  0
  9 21  1  0
  9 22  1  0
  9 23  1  0
M  END
