
     RDKit          3D

 21 23  0  0  0  0  0  0  0  0999 V2000
    2.0846    0.3376    0.8934 C   0  0  0  0  0  0  0  0  0  0  0  0
    1.2605    0.3771   -0.4143 C   0  0  0  0  0  0  0  0  0  0  0  0
    1.3102   -0.7402   -1.2486 C   0  0  0  0  0  0  0  0  0  0  0  0
    0.1998   -0.5890   -0.4309 C   0  0  0  0  0  0  0  0  0  0  0  0
   -0.9012   -0.8986   -1.1712 O   0  0  0  0  0  0  0  0  0  0  0  0
   -1.2572    0.4390   -1.0716 C   0  0  0  0  0  0  0  0  0  0  0  0
   -1.6080    1.2258    0.0935 C   0  0  0  0  0  0  0  0  0  0  0  0
   -0.8161    0.0156    0.3775 C   0  0  0  0  0  0  0  0  0  0  0  0
   -1.7192   -1.0575    1.0217 C   0  0  0  0  0  0  0  0  0  0  0  0
    2.1223   -0.6841    1.2948 H   0  0  0  0  0  0  0  0  0  0  0  0
    3.1248    0.6352    0.6359 H   0  0  0  0  0  0  0  0  0  0  0  0
    1.6205    1.0341    1.6071 H   0  0  0  0  0  0  0  0  0  0  0  0
    1.2805    1.4032   -0.8104 H   0  0  0  0  0  0  0  0  0  0  0  0
    1.3919   -0.5551   -2.3668 H   0  0  0  0  0  0  0  0  0  0  0  0
    2.0300   -1.5838   -1.0011 H   0  0  0  0  0  0  0  0  0  0  0  0
   -0.4859    0.9811   -1.6949 H   0  0  0  0  0  0  0  0  0  0  0  0
   -2.6949    1.3260    0.3185 H   0  0  0  0  0  0  0  0  0  0  0  0
   -1.0786    2.1833    0.3852 H   0  0  0  0  0  0  0  0  0  0  0  0
   -2.5820   -1.2882    0.3772 H   0  0  0  0  0  0  0  0  0  0  0  0
   -1.1832   -1.9751    1.2298 H   0  0  0  0  0  0  0  0  0  0  0  0
   -2.0986   -0.5864    1.9752 H   0  0  0  0  0  0  0  0  0  0  0  0
  1  2  1  0
  2  3  1  0
  3  4  1  0
  4  5  1  0
  5  6  1  0
  6  7  1  0
  7  8  1  0
  8  9  1  0
  4  2  1  0
  8  6  1  0
  8  4  1  0
  1 10  1  0
  1 11  1  0
  1 12  1  0
  2 13  1  0
  3 14  1  0
  3 15  1  0
  6 16  1  0
  7 17  1  0
  7 18  1  0
  9 19  1  0
  9 20  1  0
  9 21  1  0
M  END
