
     RDKit          3D

 18 19  0  0  0  0  0  0  0  0999 V2000
    2.0988   -0.1818    0.2663 C   0  0  0  0  0  0  0  0  0  0  0  0
    0.6702   -0.6187    0.1630 C   0  0  0  0  0  0  0  0  0  0  0  0
    0.0017    0.1114   -1.0092 C   0  0  0  0  0  0  0  0  0  0  0  0
   -1.4150   -0.3708   -0.9321 C   0  0  0  0  0  0  0  0  0  0  0  0
   -1.6546   -0.1827    0.5819 C   0  0  0  0  0  0  0  0  0  0  0  0
   -0.2655    0.2467    0.9653 C   0  0  0  0  0  0  0  0  0  0  0  0
   -0.0183    1.2913   -0.1020 C   0  0  0  0  0  0  0  0  0  0  0  0
    0.0944    2.4919   -0.1178 O   0  0  0  0  0  0  0  0  0  0  0  0
    2.4600    0.1870   -0.7145 H   0  0  0  0  0  0  0  0  0  0  0  0
    2.2184    0.6611    0.9978 H   0  0  0  0  0  0  0  0  0  0  0  0
    2.7925   -0.9771    0.5898 H   0  0  0  0  0  0  0  0  0  0  0  0
    0.4760   -1.6903    0.1661 H   0  0  0  0  0  0  0  0  0  0  0  0
    0.5191    0.1592   -1.9275 H   0  0  0  0  0  0  0  0  0  0  0  0
   -2.1335    0.2301   -1.5025 H   0  0  0  0  0  0  0  0  0  0  0  0
   -1.4577   -1.4542   -1.1405 H   0  0  0  0  0  0  0  0  0  0  0  0
   -2.3500    0.6882    0.6958 H   0  0  0  0  0  0  0  0  0  0  0  0
   -2.0021   -1.0937    1.0559 H   0  0  0  0  0  0  0  0  0  0  0  0
   -0.0345    0.5025    1.9642 H   0  0  0  0  0  0  0  0  0  0  0  0
  1  2  1  0
  2  3  1  0
  3  4  1  0
  4  5  1  0
  5  6  1  0
  6  7  1  0
  7  8  2  0
  6  2  1  0
  7  3  1  0
  1  9  1  0
  1 10  1  0
  1 11  1  0
  2 12  1  0
  3 13  1  0
  4 14  1  0
  4 15  1  0
  5 16  1  0
  5 17  1  0
  6 18  1  0
M  END
