
     RDKit          3D

 16 17  0  0  0  0  0  0  0  0999 V2000
   -1.8671   -0.3238    0.4223 C   0  0  0  0  0  0  0  0  0  0  0  0
   -0.7318    0.1648   -0.4183 C   0  0  0  0  0  0  0  0  0  0  0  0
   -0.1821    1.4628    0.0489 C   0  0  0  0  0  0  0  0  0  0  0  0
   -0.6967    2.3404    0.7882 O   0  0  0  0  0  0  0  0  0  0  0  0
    1.0855    1.5383   -0.5143 O   0  0  0  0  0  0  0  0  0  0  0  0
    1.5993    0.2487   -0.6569 C   0  0  0  0  0  0  0  0  0  0  0  0
    1.5258   -0.5855    0.6130 C   0  0  0  0  0  0  0  0  0  0  0  0
    0.4670   -0.7199   -0.4049 C   0  0  0  0  0  0  0  0  0  0  0  0
   -2.0526   -1.3892    0.1488 H   0  0  0  0  0  0  0  0  0  0  0  0
   -2.7601    0.2992    0.1742 H   0  0  0  0  0  0  0  0  0  0  0  0
   -1.6455   -0.2536    1.5200 H   0  0  0  0  0  0  0  0  0  0  0  0
   -1.1084    0.3316   -1.4496 H   0  0  0  0  0  0  0  0  0  0  0  0
    2.3193   -0.0022   -1.4379 H   0  0  0  0  0  0  0  0  0  0  0  0
    1.3075   -0.0598    1.5722 H   0  0  0  0  0  0  0  0  0  0  0  0
    2.2914   -1.3951    0.6215 H   0  0  0  0  0  0  0  0  0  0  0  0
    0.4487   -1.6566   -1.0272 H   0  0  0  0  0  0  0  0  0  0  0  0
  1  2  1  0
  2  3  1  0
  3  4  2  0
  3  5  1  0
  5  6  1  0
  6  7  1  0
  7  8  1  0
  8  2  1  0
  8  6  1  0
  1  9  1  0
  1 10  1  0
  1 11  1  0
  2 12  1  0
  6 13  1  0
  7 14  1  0
  7 15  1  0
  8 16  1  0
M  END
