
     RDKit          3D

 21 21  0  0  0  0  0  0  0  0999 V2000
    2.4816   -1.0253   -0.2162 C   0  0  0  0  0  0  0  0  0  0  0  0
    1.1531   -0.4181    0.1343 C   0  0  0  0  0  0  0  0  0  0  0  0
    1.2464    1.0362    0.0370 C   0  0  0  0  0  0  0  0  0  0  0  0
    0.2946    1.9510   -0.0007 C   0  0  0  0  0  0  0  0  0  0  0  0
   -1.1733    1.7946    0.0438 C   0  0  0  0  0  0  0  0  0  0  0  0
   -1.5248    0.6406   -0.6183 O   0  0  0  0  0  0  0  0  0  0  0  0
   -1.0884   -0.5156    0.0012 C   0  0  0  0  0  0  0  0  0  0  0  0
   -2.1882   -1.5513   -0.1564 C   0  0  0  0  0  0  0  0  0  0  0  0
    0.1074   -0.9744   -0.5963 O   0  0  0  0  0  0  0  0  0  0  0  0
    2.6916   -1.9052    0.4325 H   0  0  0  0  0  0  0  0  0  0  0  0
    2.5806   -1.2690   -1.2998 H   0  0  0  0  0  0  0  0  0  0  0  0
    3.2704   -0.2705    0.0437 H   0  0  0  0  0  0  0  0  0  0  0  0
    0.9506   -0.6747    1.2017 H   0  0  0  0  0  0  0  0  0  0  0  0
    2.2402    1.4456   -0.0125 H   0  0  0  0  0  0  0  0  0  0  0  0
    0.6238    3.0039   -0.0766 H   0  0  0  0  0  0  0  0  0  0  0  0
   -1.5655    1.8414    1.0812 H   0  0  0  0  0  0  0  0  0  0  0  0
   -1.6285    2.6408   -0.4984 H   0  0  0  0  0  0  0  0  0  0  0  0
   -0.9570   -0.3639    1.0876 H   0  0  0  0  0  0  0  0  0  0  0  0
   -2.8228   -1.2981   -1.0503 H   0  0  0  0  0  0  0  0  0  0  0  0
   -1.7998   -2.5661   -0.2492 H   0  0  0  0  0  0  0  0  0  0  0  0
   -2.8920   -1.5220    0.7116 H   0  0  0  0  0  0  0  0  0  0  0  0
  1  2  1  0
  2  3  1  0
  3  4  2  0
  4  5  1  0
  5  6  1  0
  6  7  1  0
  7  8  1  0
  7  9  1  0
  9  2  1  0
  1 10  1  0
  1 11  1  0
  1 12  1  0
  2 13  1  0
  3 14  1  0
  4 15  1  0
  5 16  1  0
  5 17  1  0
  7 18  1  0
  8 19  1  0
  8 20  1  0
  8 21  1  0
M  END
