
     RDKit          3D

 25 25  0  0  0  0  0  0  0  0999 V2000
    2.9918   -0.6057    0.5028 C   0  0  0  0  0  0  0  0  0  0  0  0
    1.8652   -0.2736   -0.3876 C   0  0  0  0  0  0  0  0  0  0  0  0
    0.6344   -1.1856   -0.2763 C   0  0  0  0  0  0  0  0  0  0  0  0
   -0.1519    0.0627   -0.6201 C   0  0  0  0  0  0  0  0  0  0  0  0
   -1.5318    0.1364   -0.0438 C   0  0  0  0  0  0  0  0  0  0  0  0
   -2.1930    1.4134   -0.4595 C   0  0  0  0  0  0  0  0  0  0  0  0
   -1.5411   -0.0850    1.4458 C   0  0  0  0  0  0  0  0  0  0  0  0
   -2.2627   -0.9313   -0.6160 O   0  0  0  0  0  0  0  0  0  0  0  0
    0.9221    0.8366    0.0936 C   0  0  0  0  0  0  0  0  0  0  0  0
    3.4107    0.2317    1.0811 H   0  0  0  0  0  0  0  0  0  0  0  0
    3.8233   -1.0117   -0.1371 H   0  0  0  0  0  0  0  0  0  0  0  0
    2.7026   -1.4639    1.1631 H   0  0  0  0  0  0  0  0  0  0  0  0
    2.0683   -0.1217   -1.4635 H   0  0  0  0  0  0  0  0  0  0  0  0
    0.6025   -1.9766   -1.0528 H   0  0  0  0  0  0  0  0  0  0  0  0
    0.5418   -1.5141    0.7580 H   0  0  0  0  0  0  0  0  0  0  0  0
   -0.0828    0.2566   -1.7096 H   0  0  0  0  0  0  0  0  0  0  0  0
   -3.3046    1.3257   -0.4932 H   0  0  0  0  0  0  0  0  0  0  0  0
   -1.8868    1.6170   -1.5188 H   0  0  0  0  0  0  0  0  0  0  0  0
   -1.8685    2.2668    0.1543 H   0  0  0  0  0  0  0  0  0  0  0  0
   -1.2584   -1.1413    1.6380 H   0  0  0  0  0  0  0  0  0  0  0  0
   -2.6213   -0.0129    1.7604 H   0  0  0  0  0  0  0  0  0  0  0  0
   -0.9807    0.6492    2.0197 H   0  0  0  0  0  0  0  0  0  0  0  0
   -1.8571   -1.2114   -1.4751 H   0  0  0  0  0  0  0  0  0  0  0  0
    0.8521    0.9274    1.1735 H   0  0  0  0  0  0  0  0  0  0  0  0
    1.1259    1.8112   -0.4216 H   0  0  0  0  0  0  0  0  0  0  0  0
  1  2  1  0
  2  3  1  0
  3  4  1  0
  4  5  1  0
  5  6  1  0
  5  7  1  0
  5  8  1  0
  4  9  1  0
  9  2  1  0
  1 10  1  0
  1 11  1  0
  1 12  1  0
  2 13  1  0
  3 14  1  0
  3 15  1  0
  4 16  1  0
  6 17  1  0
  6 18  1  0
  6 19  1  0
  7 20  1  0
  7 21  1  0
  7 22  1  0
  8 23  1  0
  9 24  1  0
  9 25  1  0
M  END
