
     RDKit          3D

 19 20  0  0  0  0  0  0  0  0999 V2000
   -1.2253    1.2418   -0.7951 C   0  0  0  0  0  0  0  0  0  0  0  0
   -0.9622   -0.0159   -0.0685 C   0  0  0  0  0  0  0  0  0  0  0  0
    0.1057   -0.9284   -0.6025 C   0  0  0  0  0  0  0  0  0  0  0  0
    0.0670   -2.0313    0.4056 C   0  0  0  0  0  0  0  0  0  0  0  0
   -0.0358   -1.3508    1.5739 C   0  0  0  0  0  0  0  0  0  0  0  0
    0.0112    0.0745    1.1092 C   0  0  0  0  0  0  0  0  0  0  0  0
    1.1109   -0.0096    0.0893 C   0  0  0  0  0  0  0  0  0  0  0  0
    1.4755    1.2012   -0.6226 C   0  0  0  0  0  0  0  0  0  0  0  0
    2.0231    1.0949   -1.7264 O   0  0  0  0  0  0  0  0  0  0  0  0
   -1.0765    2.0979   -0.0763 H   0  0  0  0  0  0  0  0  0  0  0  0
   -2.3297    1.2908   -1.0328 H   0  0  0  0  0  0  0  0  0  0  0  0
   -0.7116    1.3801   -1.7444 H   0  0  0  0  0  0  0  0  0  0  0  0
   -1.8515   -0.5945    0.2420 H   0  0  0  0  0  0  0  0  0  0  0  0
    0.2031   -1.1342   -1.6189 H   0  0  0  0  0  0  0  0  0  0  0  0
    0.1074   -3.1053    0.2842 H   0  0  0  0  0  0  0  0  0  0  0  0
   -0.1271   -1.7007    2.5739 H   0  0  0  0  0  0  0  0  0  0  0  0
   -0.0652    0.8602    1.7878 H   0  0  0  0  0  0  0  0  0  0  0  0
    1.9689   -0.5827    0.4969 H   0  0  0  0  0  0  0  0  0  0  0  0
    1.3119    2.2121   -0.2754 H   0  0  0  0  0  0  0  0  0  0  0  0
  1  2  1  0
  2  3  1  0
  3  4  1  0
  4  5  2  0
  5  6  1  0
  6  7  1  0
  7  8  1  0
  8  9  2  0
  6  2  1  0
  7  3  1  0
  1 10  1  0
  1 11  1  0
  1 12  1  0
  2 13  1  0
  3 14  1  0
  4 15  1  0
  5 16  1  0
  6 17  1  0
  7 18  1  0
  8 19  1  0
M  END
