
     RDKit          3D

 21 23  0  0  0  0  0  0  0  0999 V2000
   -1.7502    1.4950    0.0190 C   0  0  0  0  0  0  0  0  0  0  0  0
   -0.8221    0.4973    0.6574 C   0  0  0  0  0  0  0  0  0  0  0  0
   -1.3040   -0.8829    0.2730 C   0  0  0  0  0  0  0  0  0  0  0  0
   -0.2762   -1.3878   -0.7253 C   0  0  0  0  0  0  0  0  0  0  0  0
    1.1265   -1.3478   -0.2423 C   0  0  0  0  0  0  0  0  0  0  0  0
    1.6211   -0.2283    0.6272 C   0  0  0  0  0  0  0  0  0  0  0  0
    2.8688    0.2145    0.1405 O   0  0  0  0  0  0  0  0  0  0  0  0
    0.5440    0.6721    0.0406 C   0  0  0  0  0  0  0  0  0  0  0  0
    0.4945   -0.2435   -1.1383 C   0  0  0  0  0  0  0  0  0  0  0  0
   -2.1104    2.2410    0.7802 H   0  0  0  0  0  0  0  0  0  0  0  0
   -2.7008    0.9971   -0.3358 H   0  0  0  0  0  0  0  0  0  0  0  0
   -1.3231    1.9745   -0.8717 H   0  0  0  0  0  0  0  0  0  0  0  0
   -0.7711    0.5807    1.7532 H   0  0  0  0  0  0  0  0  0  0  0  0
   -2.2803   -0.8532   -0.2742 H   0  0  0  0  0  0  0  0  0  0  0  0
   -1.4421   -1.5384    1.1287 H   0  0  0  0  0  0  0  0  0  0  0  0
   -0.5370   -2.1561   -1.4439 H   0  0  0  0  0  0  0  0  0  0  0  0
    1.8334   -2.0320   -0.7042 H   0  0  0  0  0  0  0  0  0  0  0  0
    1.5815   -0.3790    1.7074 H   0  0  0  0  0  0  0  0  0  0  0  0
    3.3571    0.7525    0.7857 H   0  0  0  0  0  0  0  0  0  0  0  0
    0.8394    1.7121   -0.1339 H   0  0  0  0  0  0  0  0  0  0  0  0
    1.0512   -0.0877   -2.0433 H   0  0  0  0  0  0  0  0  0  0  0  0
  1  2  1  0
  2  3  1  0
  3  4  1  0
  4  5  1  0
  5  6  1  0
  6  7  1  0
  6  8  1  0
  8  9  1  0
  8  2  1  0
  9  4  1  0
  9  5  1  0
  1 10  1  0
  1 11  1  0
  1 12  1  0
  2 13  1  0
  3 14  1  0
  3 15  1  0
  4 16  1  0
  5 17  1  0
  6 18  1  0
  7 19  1  0
  8 20  1  0
  9 21  1  0
M  END
