
     RDKit          3D

 19 20  0  0  0  0  0  0  0  0999 V2000
   -2.0747    0.0577    0.0028 C   0  0  0  0  0  0  0  0  0  0  0  0
   -0.7417    0.7220    0.1911 C   0  0  0  0  0  0  0  0  0  0  0  0
    0.1379   -0.0788    1.1619 C   0  0  0  0  0  0  0  0  0  0  0  0
    1.1912   -0.7193    0.3356 C   0  0  0  0  0  0  0  0  0  0  0  0
    0.4726   -0.8471   -1.0193 C   0  0  0  0  0  0  0  0  0  0  0  0
    0.0837    0.6420   -1.0646 C   0  0  0  0  0  0  0  0  0  0  0  0
    1.3528    1.2288   -0.8262 O   0  0  0  0  0  0  0  0  0  0  0  0
    2.1549    0.3679   -0.0610 C   0  0  0  0  0  0  0  0  0  0  0  0
    3.3561    0.4468    0.2361 O   0  0  0  0  0  0  0  0  0  0  0  0
   -2.8523    0.4647    0.6956 H   0  0  0  0  0  0  0  0  0  0  0  0
   -2.0628   -1.0283    0.1374 H   0  0  0  0  0  0  0  0  0  0  0  0
   -2.4108    0.2689   -1.0298 H   0  0  0  0  0  0  0  0  0  0  0  0
   -0.8561    1.7618    0.4937 H   0  0  0  0  0  0  0  0  0  0  0  0
    0.6403    0.7001    1.8034 H   0  0  0  0  0  0  0  0  0  0  0  0
   -0.4352   -0.7312    1.8070 H   0  0  0  0  0  0  0  0  0  0  0  0
    1.6423   -1.6145    0.6803 H   0  0  0  0  0  0  0  0  0  0  0  0
   -0.3975   -1.4933   -0.9637 H   0  0  0  0  0  0  0  0  0  0  0  0
    1.1985   -1.0805   -1.7975 H   0  0  0  0  0  0  0  0  0  0  0  0
   -0.3992    0.9325   -1.9714 H   0  0  0  0  0  0  0  0  0  0  0  0
  1  2  1  0
  2  3  1  0
  3  4  1  0
  4  5  1  0
  5  6  1  0
  6  7  1  0
  7  8  1  0
  8  9  2  0
  6  2  1  0
  8  4  1  0
  1 10  1  0
  1 11  1  0
  1 12  1  0
  2 13  1  0
  3 14  1  0
  3 15  1  0
  4 16  1  0
  5 17  1  0
  5 18  1  0
  6 19  1  0
M  END
