
     RDKit          3D

 21 23  0  0  0  0  0  0  0  0999 V2000
   -2.6683    0.4972   -0.1397 C   0  0  0  0  0  0  0  0  0  0  0  0
   -1.6216   -0.5827   -0.4225 C   0  0  0  0  0  0  0  0  0  0  0  0
   -0.9598   -1.1084    0.8663 C   0  0  0  0  0  0  0  0  0  0  0  0
   -0.2494   -0.3253   -0.1165 C   0  0  0  0  0  0  0  0  0  0  0  0
    0.3984    0.9846    0.1015 C   0  0  0  0  0  0  0  0  0  0  0  0
    1.6941    0.3500   -0.3814 C   0  0  0  0  0  0  0  0  0  0  0  0
    2.9182    0.5487    0.1697 C   0  0  0  0  0  0  0  0  0  0  0  0
    2.5509    1.0269   -1.1852 O   0  0  0  0  0  0  0  0  0  0  0  0
    0.9590   -0.8710   -0.7912 C   0  0  0  0  0  0  0  0  0  0  0  0
   -3.3710    0.0914    0.6373 H   0  0  0  0  0  0  0  0  0  0  0  0
   -2.1330    1.3646    0.3305 H   0  0  0  0  0  0  0  0  0  0  0  0
   -3.1777    0.7994   -1.0622 H   0  0  0  0  0  0  0  0  0  0  0  0
   -1.9230   -1.3334   -1.1703 H   0  0  0  0  0  0  0  0  0  0  0  0
   -1.2994   -0.7228    1.8260 H   0  0  0  0  0  0  0  0  0  0  0  0
   -0.7764   -2.2230    0.8510 H   0  0  0  0  0  0  0  0  0  0  0  0
    0.0657    1.7609   -0.6480 H   0  0  0  0  0  0  0  0  0  0  0  0
    0.3982    1.3441    1.1296 H   0  0  0  0  0  0  0  0  0  0  0  0
    3.1636    1.3784    0.8652 H   0  0  0  0  0  0  0  0  0  0  0  0
    3.7523   -0.2059    0.1342 H   0  0  0  0  0  0  0  0  0  0  0  0
    0.9008   -0.9871   -1.8977 H   0  0  0  0  0  0  0  0  0  0  0  0
    1.3786   -1.7864   -0.3486 H   0  0  0  0  0  0  0  0  0  0  0  0
  1  2  1  0
  2  3  1  0
  3  4  1  0
  4  5  1  0
  5  6  1  0
  6  7  1  0
  7  8  1  0
  6  9  1  0
  4  2  1  0
  8  6  1  0
  9  4  1  0
  1 10  1  0
  1 11  1  0
  1 12  1  0
  2 13  1  0
  3 14  1  0
  3 15  1  0
  5 16  1  0
  5 17  1  0
  7 18  1  0
  7 19  1  0
  9 20  1  0
  9 21  1  0
M  END
