
     RDKit          3D

 16 16  0  0  0  0  0  0  0  0999 V2000
    1.5325    0.1537    0.7508 C   0  0  0  0  0  0  0  0  0  0  0  0
    0.7607   -0.1987   -0.4874 C   0  0  0  0  0  0  0  0  0  0  0  0
   -0.0095    0.9992   -0.9299 C   0  0  0  0  0  0  0  0  0  0  0  0
   -1.2267    0.9923   -0.4233 C   0  0  0  0  0  0  0  0  0  0  0  0
   -1.3849   -0.2221    0.4137 C   0  0  0  0  0  0  0  0  0  0  0  0
   -0.3766   -1.1609   -0.2050 C   0  0  0  0  0  0  0  0  0  0  0  0
    1.2037   -0.4378    1.6402 H   0  0  0  0  0  0  0  0  0  0  0  0
    2.6152   -0.1036    0.5958 H   0  0  0  0  0  0  0  0  0  0  0  0
    1.5146    1.2422    0.9474 H   0  0  0  0  0  0  0  0  0  0  0  0
    1.3999   -0.6205   -1.2649 H   0  0  0  0  0  0  0  0  0  0  0  0
    0.3998    1.7571   -1.5798 H   0  0  0  0  0  0  0  0  0  0  0  0
   -2.0227    1.7186   -0.5564 H   0  0  0  0  0  0  0  0  0  0  0  0
   -1.1199   -0.0097    1.4889 H   0  0  0  0  0  0  0  0  0  0  0  0
   -2.4014   -0.6541    0.3675 H   0  0  0  0  0  0  0  0  0  0  0  0
   -0.7884   -1.4598   -1.1942 H   0  0  0  0  0  0  0  0  0  0  0  0
   -0.0962   -1.9960    0.4366 H   0  0  0  0  0  0  0  0  0  0  0  0
  1  2  1  0
  2  3  1  0
  3  4  2  0
  4  5  1  0
  5  6  1  0
  6  2  1  0
  1  7  1  0
  1  8  1  0
  1  9  1  0
  2 10  1  0
  3 11  1  0
  4 12  1  0
  5 13  1  0
  5 14  1  0
  6 15  1  0
  6 16  1  0
M  END
