
     RDKit          3D

 17 18  0  0  0  0  0  0  0  0999 V2000
   -1.8453    0.0825   -0.5439 C   0  0  0  0  0  0  0  0  0  0  0  0
   -0.8085   -0.2454    0.4755 C   0  0  0  0  0  0  0  0  0  0  0  0
   -0.2644    0.9821    1.0605 C   0  0  0  0  0  0  0  0  0  0  0  0
   -0.8837    1.6517    1.9269 O   0  0  0  0  0  0  0  0  0  0  0  0
    0.9752    1.4607    0.6748 O   0  0  0  0  0  0  0  0  0  0  0  0
    1.5973    0.8047   -0.4156 C   0  0  0  0  0  0  0  0  0  0  0  0
    1.5480   -0.6933   -0.2425 C   0  0  0  0  0  0  0  0  0  0  0  0
    1.3160   -1.2337    1.0084 O   0  0  0  0  0  0  0  0  0  0  0  0
    0.2449   -1.1893   -0.0239 C   0  0  0  0  0  0  0  0  0  0  0  0
   -2.6529    0.6641   -0.0154 H   0  0  0  0  0  0  0  0  0  0  0  0
   -2.3308   -0.8910   -0.8432 H   0  0  0  0  0  0  0  0  0  0  0  0
   -1.4762    0.6443   -1.4040 H   0  0  0  0  0  0  0  0  0  0  0  0
   -1.3339   -0.7968    1.3099 H   0  0  0  0  0  0  0  0  0  0  0  0
    2.6765    1.1221   -0.4170 H   0  0  0  0  0  0  0  0  0  0  0  0
    1.1014    1.0885   -1.3525 H   0  0  0  0  0  0  0  0  0  0  0  0
    2.2464   -1.2794   -0.8696 H   0  0  0  0  0  0  0  0  0  0  0  0
   -0.1100   -2.1719   -0.3285 H   0  0  0  0  0  0  0  0  0  0  0  0
  1  2  1  0
  2  3  1  0
  3  4  2  0
  3  5  1  0
  5  6  1  0
  6  7  1  0
  7  8  1  0
  8  9  1  0
  9  2  1  0
  9  7  1  0
  1 10  1  0
  1 11  1  0
  1 12  1  0
  2 13  1  0
  6 14  1  0
  6 15  1  0
  7 16  1  0
  9 17  1  0
M  END
