
     RDKit          3D

 21 22  0  0  0  0  0  0  0  0999 V2000
    2.5178   -0.0840    0.3556 C   0  0  0  0  0  0  0  0  0  0  0  0
    1.1933    0.1590   -0.3041 C   0  0  0  0  0  0  0  0  0  0  0  0
    0.5446   -1.1626   -0.7658 C   0  0  0  0  0  0  0  0  0  0  0  0
   -0.7539   -1.0179   -0.0009 C   0  0  0  0  0  0  0  0  0  0  0  0
   -0.2787   -0.6547    1.2815 O   0  0  0  0  0  0  0  0  0  0  0  0
    0.1064    0.5440    0.6800 C   0  0  0  0  0  0  0  0  0  0  0  0
   -1.1420    0.4090   -0.1673 C   0  0  0  0  0  0  0  0  0  0  0  0
   -2.3469    0.8320    0.5998 C   0  0  0  0  0  0  0  0  0  0  0  0
   -1.0037    0.9593   -1.4289 O   0  0  0  0  0  0  0  0  0  0  0  0
    2.4118   -0.0091    1.4407 H   0  0  0  0  0  0  0  0  0  0  0  0
    3.2947    0.6090   -0.0322 H   0  0  0  0  0  0  0  0  0  0  0  0
    2.8354   -1.1250    0.0918 H   0  0  0  0  0  0  0  0  0  0  0  0
    1.2395    0.8440   -1.1624 H   0  0  0  0  0  0  0  0  0  0  0  0
    0.4244   -1.2039   -1.8434 H   0  0  0  0  0  0  0  0  0  0  0  0
    1.1209   -1.9590   -0.3025 H   0  0  0  0  0  0  0  0  0  0  0  0
   -1.4765   -1.7964   -0.0550 H   0  0  0  0  0  0  0  0  0  0  0  0
    0.2331    1.4117    1.2786 H   0  0  0  0  0  0  0  0  0  0  0  0
   -2.1992    0.5633    1.6799 H   0  0  0  0  0  0  0  0  0  0  0  0
   -3.2905    0.4000    0.2328 H   0  0  0  0  0  0  0  0  0  0  0  0
   -2.3983    1.9543    0.5853 H   0  0  0  0  0  0  0  0  0  0  0  0
   -1.0323    0.3270   -2.1635 H   0  0  0  0  0  0  0  0  0  0  0  0
  1  2  1  0
  2  3  1  0
  3  4  1  0
  4  5  1  0
  5  6  1  0
  6  7  1  0
  7  8  1  0
  7  9  1  0
  6  2  1  0
  7  4  1  0
  1 10  1  0
  1 11  1  0
  1 12  1  0
  2 13  1  0
  3 14  1  0
  3 15  1  0
  4 16  1  0
  6 17  1  0
  8 18  1  0
  8 19  1  0
  8 20  1  0
  9 21  1  0
M  END
