
     RDKit          3D

 25 26  0  0  0  0  0  0  0  0999 V2000
   -2.2456   -0.6508   -0.5284 C   0  0  0  0  0  0  0  0  0  0  0  0
   -1.1778   -0.0173    0.3176 C   0  0  0  0  0  0  0  0  0  0  0  0
   -0.3871    1.0389   -0.4644 C   0  0  0  0  0  0  0  0  0  0  0  0
   -0.2810    2.2842    0.3475 C   0  0  0  0  0  0  0  0  0  0  0  0
    0.7717    0.1204   -0.4743 C   0  0  0  0  0  0  0  0  0  0  0  0
    2.1754    0.5567   -0.4162 C   0  0  0  0  0  0  0  0  0  0  0  0
    0.5423   -1.2544   -1.0600 C   0  0  0  0  0  0  0  0  0  0  0  0
    0.0948   -0.8692    0.2915 C   0  0  0  0  0  0  0  0  0  0  0  0
    0.5121   -1.5414    1.5299 C   0  0  0  0  0  0  0  0  0  0  0  0
   -2.2918   -0.1717   -1.5374 H   0  0  0  0  0  0  0  0  0  0  0  0
   -3.2457   -0.6034   -0.0500 H   0  0  0  0  0  0  0  0  0  0  0  0
   -2.0479   -1.7302   -0.7120 H   0  0  0  0  0  0  0  0  0  0  0  0
   -1.4697    0.2713    1.3236 H   0  0  0  0  0  0  0  0  0  0  0  0
   -0.7879    1.2010   -1.4824 H   0  0  0  0  0  0  0  0  0  0  0  0
   -0.6928    3.1650   -0.2206 H   0  0  0  0  0  0  0  0  0  0  0  0
    0.7231    2.5625    0.6578 H   0  0  0  0  0  0  0  0  0  0  0  0
   -0.9105    2.2502    1.2825 H   0  0  0  0  0  0  0  0  0  0  0  0
    2.5698    0.6159   -1.4739 H   0  0  0  0  0  0  0  0  0  0  0  0
    2.3680    1.5325    0.0297 H   0  0  0  0  0  0  0  0  0  0  0  0
    2.8054   -0.2417    0.0590 H   0  0  0  0  0  0  0  0  0  0  0  0
   -0.1200   -1.2593   -1.9397 H   0  0  0  0  0  0  0  0  0  0  0  0
    1.4123   -1.9636   -1.0845 H   0  0  0  0  0  0  0  0  0  0  0  0
    0.0283   -1.0364    2.4003 H   0  0  0  0  0  0  0  0  0  0  0  0
    1.5893   -1.6804    1.6761 H   0  0  0  0  0  0  0  0  0  0  0  0
    0.0651   -2.5788    1.5284 H   0  0  0  0  0  0  0  0  0  0  0  0
  1  2  1  0
  2  3  1  0
  3  4  1  0
  3  5  1  0
  5  6  1  0
  5  7  1  0
  7  8  1  0
  8  9  1  0
  8  2  1  0
  8  5  1  0
  1 10  1  0
  1 11  1  0
  1 12  1  0
  2 13  1  0
  3 14  1  0
  4 15  1  0
  4 16  1  0
  4 17  1  0
  6 18  1  0
  6 19  1  0
  6 20  1  0
  7 21  1  0
  7 22  1  0
  9 23  1  0
  9 24  1  0
  9 25  1  0
M  END
