
     RDKit          3D

 21 22  0  0  0  0  0  0  0  0999 V2000
   -1.9352   -0.9028    0.2095 C   0  0  0  0  0  0  0  0  0  0  0  0
   -0.5166   -0.6841   -0.2598 C   0  0  0  0  0  0  0  0  0  0  0  0
    0.4726   -1.3670    0.6065 C   0  0  0  0  0  0  0  0  0  0  0  0
    1.7529   -1.0826    0.4237 C   0  0  0  0  0  0  0  0  0  0  0  0
    2.1743   -0.1100   -0.6170 C   0  0  0  0  0  0  0  0  0  0  0  0
    1.1502    0.9841   -0.8021 C   0  0  0  0  0  0  0  0  0  0  0  0
    0.6710    1.3660    0.5749 O   0  0  0  0  0  0  0  0  0  0  0  0
   -0.1508    0.7605   -0.3563 C   0  0  0  0  0  0  0  0  0  0  0  0
   -1.2766    1.6496   -0.8418 C   0  0  0  0  0  0  0  0  0  0  0  0
   -2.0812   -0.5785    1.2687 H   0  0  0  0  0  0  0  0  0  0  0  0
   -2.1286   -1.9957    0.1702 H   0  0  0  0  0  0  0  0  0  0  0  0
   -2.5920   -0.3228   -0.4641 H   0  0  0  0  0  0  0  0  0  0  0  0
   -0.4436   -1.1252   -1.2737 H   0  0  0  0  0  0  0  0  0  0  0  0
    0.1404   -2.0812    1.3687 H   0  0  0  0  0  0  0  0  0  0  0  0
    2.5060   -1.5580    1.0329 H   0  0  0  0  0  0  0  0  0  0  0  0
    2.3956   -0.6339   -1.5449 H   0  0  0  0  0  0  0  0  0  0  0  0
    3.1035    0.3787   -0.2579 H   0  0  0  0  0  0  0  0  0  0  0  0
    1.5226    1.8536   -1.3623 H   0  0  0  0  0  0  0  0  0  0  0  0
   -2.0310    1.6772   -0.0288 H   0  0  0  0  0  0  0  0  0  0  0  0
   -1.7779    1.1139   -1.6919 H   0  0  0  0  0  0  0  0  0  0  0  0
   -0.9557    2.6583   -1.1100 H   0  0  0  0  0  0  0  0  0  0  0  0
  1  2  1  0
  2  3  1  0
  3  4  2  0
  4  5  1  0
  5  6  1  0
  6  7  1  0
  7  8  1  0
  8  9  1  0
  8  2  1  0
  8  6  1  0
  1 10  1  0
  1 11  1  0
  1 12  1  0
  2 13  1  0
  3 14  1  0
  4 15  1  0
  5 16  1  0
  5 17  1  0
  6 18  1  0
  9 19  1  0
  9 20  1  0
  9 21  1  0
M  END
