
     RDKit          3D

 25 25  0  0  0  0  0  0  0  0999 V2000
   -2.0804   -0.5207    1.0327 C   0  0  0  0  0  0  0  0  0  0  0  0
   -1.2222   -0.2142   -0.2027 C   0  0  0  0  0  0  0  0  0  0  0  0
   -0.7647   -1.4528   -0.8402 C   0  0  0  0  0  0  0  0  0  0  0  0
    0.6932   -1.6317   -1.0240 C   0  0  0  0  0  0  0  0  0  0  0  0
    1.4472   -0.4821   -0.9027 O   0  0  0  0  0  0  0  0  0  0  0  0
    1.1429    0.0460    0.3675 C   0  0  0  0  0  0  0  0  0  0  0  0
    2.2445    0.9061    0.8810 C   0  0  0  0  0  0  0  0  0  0  0  0
   -0.1766    0.7584    0.2226 C   0  0  0  0  0  0  0  0  0  0  0  0
   -0.0968    1.9257   -0.7291 C   0  0  0  0  0  0  0  0  0  0  0  0
   -1.3294   -0.8140    1.8235 H   0  0  0  0  0  0  0  0  0  0  0  0
   -2.7641   -1.3667    0.8428 H   0  0  0  0  0  0  0  0  0  0  0  0
   -2.5679    0.4109    1.3239 H   0  0  0  0  0  0  0  0  0  0  0  0
   -1.9245    0.3412   -0.8918 H   0  0  0  0  0  0  0  0  0  0  0  0
   -1.2518   -1.5844   -1.8516 H   0  0  0  0  0  0  0  0  0  0  0  0
   -1.1434   -2.3423   -0.2543 H   0  0  0  0  0  0  0  0  0  0  0  0
    1.1124   -2.3604   -0.2689 H   0  0  0  0  0  0  0  0  0  0  0  0
    0.9556   -2.0832   -2.0166 H   0  0  0  0  0  0  0  0  0  0  0  0
    0.9615   -0.8154    1.0580 H   0  0  0  0  0  0  0  0  0  0  0  0
    2.7260    0.3977    1.7652 H   0  0  0  0  0  0  0  0  0  0  0  0
    1.8441    1.9008    1.1383 H   0  0  0  0  0  0  0  0  0  0  0  0
    2.9917    1.0331    0.0630 H   0  0  0  0  0  0  0  0  0  0  0  0
   -0.3977    1.2064    1.2368 H   0  0  0  0  0  0  0  0  0  0  0  0
    0.0218    1.6407   -1.7779 H   0  0  0  0  0  0  0  0  0  0  0  0
    0.6645    2.6371   -0.3557 H   0  0  0  0  0  0  0  0  0  0  0  0
   -1.0857    2.4638   -0.6397 H   0  0  0  0  0  0  0  0  0  0  0  0
  1  2  1  0
  2  3  1  0
  3  4  1  0
  4  5  1  0
  5  6  1  0
  6  7  1  0
  6  8  1  0
  8  9  1  0
  8  2  1  0
  1 10  1  0
  1 11  1  0
  1 12  1  0
  2 13  1  0
  3 14  1  0
  3 15  1  0
  4 16  1  0
  4 17  1  0
  6 18  1  0
  7 19  1  0
  7 20  1  0
  7 21  1  0
  8 22  1  0
  9 23  1  0
  9 24  1  0
  9 25  1  0
M  END
