
     RDKit          3D

 23 24  0  0  0  0  0  0  0  0999 V2000
    2.2161   -0.9090   -0.3506 C   0  0  0  0  0  0  0  0  0  0  0  0
    1.0910   -0.2492    0.3541 C   0  0  0  0  0  0  0  0  0  0  0  0
   -0.1440   -1.1566    0.4766 C   0  0  0  0  0  0  0  0  0  0  0  0
   -1.2551   -0.1449    0.4239 C   0  0  0  0  0  0  0  0  0  0  0  0
   -2.4743   -0.3488   -0.3723 C   0  0  0  0  0  0  0  0  0  0  0  0
   -2.5179   -0.4338    1.1153 C   0  0  0  0  0  0  0  0  0  0  0  0
   -0.6863    1.1105    0.3760 O   0  0  0  0  0  0  0  0  0  0  0  0
    0.4575    0.8847   -0.4275 C   0  0  0  0  0  0  0  0  0  0  0  0
    1.3179    2.0797   -0.5626 C   0  0  0  0  0  0  0  0  0  0  0  0
    2.4627   -0.4745   -1.3346 H   0  0  0  0  0  0  0  0  0  0  0  0
    2.0470   -1.9954   -0.4351 H   0  0  0  0  0  0  0  0  0  0  0  0
    3.1315   -0.8045    0.3031 H   0  0  0  0  0  0  0  0  0  0  0  0
    1.3299    0.0884    1.3714 H   0  0  0  0  0  0  0  0  0  0  0  0
   -0.1358   -1.7166    1.4241 H   0  0  0  0  0  0  0  0  0  0  0  0
   -0.2158   -1.8292   -0.4195 H   0  0  0  0  0  0  0  0  0  0  0  0
   -2.9812    0.5746   -0.7782 H   0  0  0  0  0  0  0  0  0  0  0  0
   -2.6109   -1.2130   -1.0203 H   0  0  0  0  0  0  0  0  0  0  0  0
   -2.6167   -1.4826    1.5166 H   0  0  0  0  0  0  0  0  0  0  0  0
   -3.0642    0.2951    1.7259 H   0  0  0  0  0  0  0  0  0  0  0  0
    0.0728    0.4624   -1.3700 H   0  0  0  0  0  0  0  0  0  0  0  0
    0.7806    3.0013   -0.2034 H   0  0  0  0  0  0  0  0  0  0  0  0
    1.4644    2.2719   -1.6663 H   0  0  0  0  0  0  0  0  0  0  0  0
    2.3307    1.9895   -0.1467 H   0  0  0  0  0  0  0  0  0  0  0  0
  1  2  1  0
  2  3  1  0
  3  4  1  0
  4  5  1  0
  5  6  1  0
  4  7  1  0
  7  8  1  0
  8  9  1  0
  8  2  1  0
  6  4  1  0
  1 10  1  0
  1 11  1  0
  1 12  1  0
  2 13  1  0
  3 14  1  0
  3 15  1  0
  5 16  1  0
  5 17  1  0
  6 18  1  0
  6 19  1  0
  8 20  1  0
  9 21  1  0
  9 22  1  0
  9 23  1  0
M  END
