
     RDKit          3D

 19 20  0  0  0  0  0  0  0  0999 V2000
   -1.6324    0.7077   -0.9611 C   0  0  0  0  0  0  0  0  0  0  0  0
   -1.3223   -0.2106    0.1848 C   0  0  0  0  0  0  0  0  0  0  0  0
   -0.8861   -1.5927    0.0125 C   0  0  0  0  0  0  0  0  0  0  0  0
    0.1529   -0.6021    0.2525 C   0  0  0  0  0  0  0  0  0  0  0  0
    0.7835   -0.3017    1.5167 C   0  0  0  0  0  0  0  0  0  0  0  0
    1.6649    0.6639    1.3455 C   0  0  0  0  0  0  0  0  0  0  0  0
    1.6763    1.0686   -0.0552 C   0  0  0  0  0  0  0  0  0  0  0  0
    2.0607    2.1078   -0.6176 O   0  0  0  0  0  0  0  0  0  0  0  0
    1.0853   -0.0975   -0.7881 C   0  0  0  0  0  0  0  0  0  0  0  0
   -1.8175    0.1838   -1.9159 H   0  0  0  0  0  0  0  0  0  0  0  0
   -0.7994    1.4402   -1.0741 H   0  0  0  0  0  0  0  0  0  0  0  0
   -2.5532    1.3113   -0.7512 H   0  0  0  0  0  0  0  0  0  0  0  0
   -1.8349    0.0632    1.1321 H   0  0  0  0  0  0  0  0  0  0  0  0
   -1.1813   -2.3228    0.8024 H   0  0  0  0  0  0  0  0  0  0  0  0
   -0.8598   -2.0866   -1.0002 H   0  0  0  0  0  0  0  0  0  0  0  0
    0.5862   -0.7732    2.4616 H   0  0  0  0  0  0  0  0  0  0  0  0
    2.3172    1.1323    2.0967 H   0  0  0  0  0  0  0  0  0  0  0  0
    1.9102   -0.8600   -0.8997 H   0  0  0  0  0  0  0  0  0  0  0  0
    0.6496    0.1685   -1.7417 H   0  0  0  0  0  0  0  0  0  0  0  0
  1  2  1  0
  2  3  1  0
  3  4  1  0
  4  5  1  0
  5  6  2  0
  6  7  1  0
  7  8  2  0
  7  9  1  0
  4  2  1  0
  9  4  1  0
  1 10  1  0
  1 11  1  0
  1 12  1  0
  2 13  1  0
  3 14  1  0
  3 15  1  0
  5 16  1  0
  6 17  1  0
  9 18  1  0
  9 19  1  0
M  END
