
     RDKit          3D

 21 23  0  0  0  0  0  0  0  0999 V2000
    1.9021   -0.3292    1.1704 C   0  0  0  0  0  0  0  0  0  0  0  0
    1.2602    0.0873   -0.1256 C   0  0  0  0  0  0  0  0  0  0  0  0
   -0.0401    0.7532   -0.2040 C   0  0  0  0  0  0  0  0  0  0  0  0
   -0.2456    1.7996   -1.2907 C   0  0  0  0  0  0  0  0  0  0  0  0
   -1.2506    0.3376    0.5353 C   0  0  0  0  0  0  0  0  0  0  0  0
   -1.2597   -0.7215    1.5570 C   0  0  0  0  0  0  0  0  0  0  0  0
   -0.9978   -1.1655    0.1824 C   0  0  0  0  0  0  0  0  0  0  0  0
    0.1306   -0.7013   -0.6513 C   0  0  0  0  0  0  0  0  0  0  0  0
    0.0297   -0.8743   -2.0408 O   0  0  0  0  0  0  0  0  0  0  0  0
    1.6627    0.3508    2.0115 H   0  0  0  0  0  0  0  0  0  0  0  0
    3.0136   -0.3538    1.1201 H   0  0  0  0  0  0  0  0  0  0  0  0
    1.5915   -1.3817    1.3595 H   0  0  0  0  0  0  0  0  0  0  0  0
    2.0127    0.3999   -0.8901 H   0  0  0  0  0  0  0  0  0  0  0  0
    0.7128    2.1056   -1.7497 H   0  0  0  0  0  0  0  0  0  0  0  0
   -0.6864    2.7031   -0.8242 H   0  0  0  0  0  0  0  0  0  0  0  0
   -0.9331    1.4407   -2.0774 H   0  0  0  0  0  0  0  0  0  0  0  0
   -2.2279    0.7310    0.1738 H   0  0  0  0  0  0  0  0  0  0  0  0
   -0.4799   -0.6759    2.3435 H   0  0  0  0  0  0  0  0  0  0  0  0
   -2.2548   -0.9777    1.9780 H   0  0  0  0  0  0  0  0  0  0  0  0
   -1.8248   -1.6707   -0.3685 H   0  0  0  0  0  0  0  0  0  0  0  0
   -0.1153   -1.8573   -2.2092 H   0  0  0  0  0  0  0  0  0  0  0  0
  1  2  1  0
  2  3  1  0
  3  4  1  0
  3  5  1  0
  5  6  1  0
  6  7  1  0
  7  8  1  0
  8  9  1  0
  8  2  1  0
  8  3  1  0
  7  5  1  0
  1 10  1  0
  1 11  1  0
  1 12  1  0
  2 13  1  0
  4 14  1  0
  4 15  1  0
  4 16  1  0
  5 17  1  0
  6 18  1  0
  6 19  1  0
  7 20  1  0
  9 21  1  0
M  END
