
     RDKit          3D

 18 19  0  0  0  0  0  0  0  0999 V2000
    2.1643    0.1957   -0.0667 C   0  0  0  0  0  0  0  0  0  0  0  0
    0.7637   -0.1355   -0.4445 C   0  0  0  0  0  0  0  0  0  0  0  0
    0.2474   -1.3549    0.2942 C   0  0  0  0  0  0  0  0  0  0  0  0
    0.8340   -2.3740    0.5369 O   0  0  0  0  0  0  0  0  0  0  0  0
   -1.1790   -1.0380    0.6766 C   0  0  0  0  0  0  0  0  0  0  0  0
   -1.4598    0.0130   -0.3338 C   0  0  0  0  0  0  0  0  0  0  0  0
   -1.4069    1.4111   -0.3542 C   0  0  0  0  0  0  0  0  0  0  0  0
   -0.1930    0.8680    0.0874 C   0  0  0  0  0  0  0  0  0  0  0  0
    2.2683    1.3006    0.1358 H   0  0  0  0  0  0  0  0  0  0  0  0
    2.8175    0.0045   -0.9504 H   0  0  0  0  0  0  0  0  0  0  0  0
    2.4723   -0.4045    0.8093 H   0  0  0  0  0  0  0  0  0  0  0  0
    0.6033   -0.2619   -1.5341 H   0  0  0  0  0  0  0  0  0  0  0  0
   -1.2229   -0.7011    1.7143 H   0  0  0  0  0  0  0  0  0  0  0  0
   -1.8299   -1.9358    0.5587 H   0  0  0  0  0  0  0  0  0  0  0  0
   -1.3880   -0.4800   -1.3561 H   0  0  0  0  0  0  0  0  0  0  0  0
   -1.4124    1.9634   -1.3393 H   0  0  0  0  0  0  0  0  0  0  0  0
   -2.0608    1.9844    0.3589 H   0  0  0  0  0  0  0  0  0  0  0  0
   -0.0179    0.9450    1.2070 H   0  0  0  0  0  0  0  0  0  0  0  0
  1  2  1  0
  2  3  1  0
  3  4  2  0
  3  5  1  0
  5  6  1  0
  6  7  1  0
  7  8  1  0
  8  2  1  0
  8  6  1  0
  1  9  1  0
  1 10  1  0
  1 11  1  0
  2 12  1  0
  5 13  1  0
  5 14  1  0
  6 15  1  0
  7 16  1  0
  7 17  1  0
  8 18  1  0
M  END
