
     RDKit          3D

 23 24  0  0  0  0  0  0  0  0999 V2000
    2.7377    0.4058    0.0733 C   0  0  0  0  0  0  0  0  0  0  0  0
    1.4642   -0.3316   -0.3362 C   0  0  0  0  0  0  0  0  0  0  0  0
    0.8511   -1.0540    0.8272 C   0  0  0  0  0  0  0  0  0  0  0  0
   -0.3078   -0.1147    0.8013 C   0  0  0  0  0  0  0  0  0  0  0  0
   -0.5333    0.6456    1.9314 O   0  0  0  0  0  0  0  0  0  0  0  0
    0.2870    0.5733   -0.4350 C   0  0  0  0  0  0  0  0  0  0  0  0
   -1.1040    0.1084   -0.4270 C   0  0  0  0  0  0  0  0  0  0  0  0
   -2.1595    1.1996   -0.3198 C   0  0  0  0  0  0  0  0  0  0  0  0
   -1.5592   -1.1220   -1.1506 C   0  0  0  0  0  0  0  0  0  0  0  0
    3.6470   -0.1235   -0.2432 H   0  0  0  0  0  0  0  0  0  0  0  0
    2.7018    1.3793   -0.4782 H   0  0  0  0  0  0  0  0  0  0  0  0
    2.7119    0.6280    1.1629 H   0  0  0  0  0  0  0  0  0  0  0  0
    1.5992   -0.9835   -1.2172 H   0  0  0  0  0  0  0  0  0  0  0  0
    0.6339   -2.1130    0.6069 H   0  0  0  0  0  0  0  0  0  0  0  0
    1.4310   -0.9794    1.7637 H   0  0  0  0  0  0  0  0  0  0  0  0
   -0.4267    0.0265    2.7145 H   0  0  0  0  0  0  0  0  0  0  0  0
    0.4894    1.6622   -0.3167 H   0  0  0  0  0  0  0  0  0  0  0  0
   -1.7377    2.1117   -0.8186 H   0  0  0  0  0  0  0  0  0  0  0  0
   -3.0704    0.9477   -0.9168 H   0  0  0  0  0  0  0  0  0  0  0  0
   -2.4065    1.4298    0.7406 H   0  0  0  0  0  0  0  0  0  0  0  0
   -1.0454   -2.0467   -0.8353 H   0  0  0  0  0  0  0  0  0  0  0  0
   -1.5633   -0.9748   -2.2513 H   0  0  0  0  0  0  0  0  0  0  0  0
   -2.6404   -1.2747   -0.8759 H   0  0  0  0  0  0  0  0  0  0  0  0
  1  2  1  0
  2  3  1  0
  3  4  1  0
  4  5  1  0
  4  6  1  0
  6  7  1  0
  7  8  1  0
  7  9  1  0
  6  2  1  0
  7  4  1  0
  1 10  1  0
  1 11  1  0
  1 12  1  0
  2 13  1  0
  3 14  1  0
  3 15  1  0
  5 16  1  0
  6 17  1  0
  8 18  1  0
  8 19  1  0
  8 20  1  0
  9 21  1  0
  9 22  1  0
  9 23  1  0
M  END
