
     RDKit          3D

 21 23  0  0  0  0  0  0  0  0999 V2000
    2.6066    0.3207   -0.6856 C   0  0  0  0  0  0  0  0  0  0  0  0
    1.4667    0.5485    0.3184 C   0  0  0  0  0  0  0  0  0  0  0  0
    0.1705    0.9096   -0.1251 C   0  0  0  0  0  0  0  0  0  0  0  0
   -1.1700    0.9038    0.4598 C   0  0  0  0  0  0  0  0  0  0  0  0
   -2.3909    0.5514   -0.4425 C   0  0  0  0  0  0  0  0  0  0  0  0
   -1.7024   -0.5505    0.1844 C   0  0  0  0  0  0  0  0  0  0  0  0
   -0.4298   -1.1953   -0.3836 C   0  0  0  0  0  0  0  0  0  0  0  0
    0.5545   -0.4963    0.4953 C   0  0  0  0  0  0  0  0  0  0  0  0
    0.1341   -0.6822    1.8453 O   0  0  0  0  0  0  0  0  0  0  0  0
    2.2747   -0.4558   -1.4256 H   0  0  0  0  0  0  0  0  0  0  0  0
    2.8274    1.2293   -1.2441 H   0  0  0  0  0  0  0  0  0  0  0  0
    3.4671   -0.1067   -0.1360 H   0  0  0  0  0  0  0  0  0  0  0  0
    1.8756    1.1094    1.1981 H   0  0  0  0  0  0  0  0  0  0  0  0
    0.1041    0.9394   -1.2578 H   0  0  0  0  0  0  0  0  0  0  0  0
   -1.4118    1.2972    1.4606 H   0  0  0  0  0  0  0  0  0  0  0  0
   -2.2034    0.8147   -1.5143 H   0  0  0  0  0  0  0  0  0  0  0  0
   -3.3818    0.8098   -0.0760 H   0  0  0  0  0  0  0  0  0  0  0  0
   -2.1313   -1.0649    1.0587 H   0  0  0  0  0  0  0  0  0  0  0  0
   -0.3054   -0.9516   -1.4509 H   0  0  0  0  0  0  0  0  0  0  0  0
   -0.4960   -2.2744   -0.2471 H   0  0  0  0  0  0  0  0  0  0  0  0
    0.1413   -1.6560    1.9678 H   0  0  0  0  0  0  0  0  0  0  0  0
  1  2  1  0
  2  3  1  0
  3  4  1  0
  4  5  1  0
  5  6  1  0
  6  7  1  0
  7  8  1  0
  8  9  1  0
  8  2  1  0
  8  3  1  0
  6  4  1  0
  1 10  1  0
  1 11  1  0
  1 12  1  0
  2 13  1  0
  3 14  1  0
  4 15  1  0
  5 16  1  0
  5 17  1  0
  6 18  1  0
  7 19  1  0
  7 20  1  0
  9 21  1  0
M  END
