
     RDKit          3D

 21 22  0  0  0  0  0  0  0  0999 V2000
    2.3864   -0.3704   -0.5930 C   0  0  0  0  0  0  0  0  0  0  0  0
    1.2012   -0.2449    0.3531 C   0  0  0  0  0  0  0  0  0  0  0  0
    0.7957    1.1874    0.3106 C   0  0  0  0  0  0  0  0  0  0  0  0
   -0.4248    1.6521    0.1468 C   0  0  0  0  0  0  0  0  0  0  0  0
   -1.7185    0.9612    0.4269 C   0  0  0  0  0  0  0  0  0  0  0  0
   -2.0348   -0.0473   -0.6582 C   0  0  0  0  0  0  0  0  0  0  0  0
   -1.2326   -0.9210    0.2905 C   0  0  0  0  0  0  0  0  0  0  0  0
    0.1461   -1.1762   -0.1133 C   0  0  0  0  0  0  0  0  0  0  0  0
   -1.4669   -0.0939    1.3373 O   0  0  0  0  0  0  0  0  0  0  0  0
    3.2819    0.0366   -0.0764 H   0  0  0  0  0  0  0  0  0  0  0  0
    2.2178    0.3078   -1.4720 H   0  0  0  0  0  0  0  0  0  0  0  0
    2.5173   -1.4029   -0.9515 H   0  0  0  0  0  0  0  0  0  0  0  0
    1.5330   -0.5486    1.3740 H   0  0  0  0  0  0  0  0  0  0  0  0
    1.6295    1.8945    0.4316 H   0  0  0  0  0  0  0  0  0  0  0  0
   -0.5616    2.6638   -0.2396 H   0  0  0  0  0  0  0  0  0  0  0  0
   -2.5389    1.6182    0.7287 H   0  0  0  0  0  0  0  0  0  0  0  0
   -1.4812    0.0726   -1.5995 H   0  0  0  0  0  0  0  0  0  0  0  0
   -3.0974   -0.2874   -0.7350 H   0  0  0  0  0  0  0  0  0  0  0  0
   -1.8058   -1.8863    0.4202 H   0  0  0  0  0  0  0  0  0  0  0  0
    0.1956   -1.2015   -1.2422 H   0  0  0  0  0  0  0  0  0  0  0  0
    0.4579   -2.2139    0.1877 H   0  0  0  0  0  0  0  0  0  0  0  0
  1  2  1  0
  2  3  1  0
  3  4  2  0
  4  5  1  0
  5  6  1  0
  6  7  1  0
  7  8  1  0
  7  9  1  0
  8  2  1  0
  9  5  1  0
  1 10  1  0
  1 11  1  0
  1 12  1  0
  2 13  1  0
  3 14  1  0
  4 15  1  0
  5 16  1  0
  6 17  1  0
  6 18  1  0
  7 19  1  0
  8 20  1  0
  8 21  1  0
M  END
