
     RDKit          3D

 19 19  0  0  0  0  0  0  0  0999 V2000
   -2.3894    0.8201    0.4762 C   0  0  0  0  0  0  0  0  0  0  0  0
   -1.5267    0.2583   -0.6202 C   0  0  0  0  0  0  0  0  0  0  0  0
   -0.1075    0.6373   -0.3148 C   0  0  0  0  0  0  0  0  0  0  0  0
    0.5714   -0.4688   -0.1375 C   0  0  0  0  0  0  0  0  0  0  0  0
    2.0106   -0.5507    0.1836 C   0  0  0  0  0  0  0  0  0  0  0  0
    2.6697    0.7596    0.2979 C   0  0  0  0  0  0  0  0  0  0  0  0
    2.9650    1.4029   -0.6869 O   0  0  0  0  0  0  0  0  0  0  0  0
   -0.3283   -1.6079   -0.3094 C   0  0  0  0  0  0  0  0  0  0  0  0
   -1.5692   -1.1152   -0.6928 O   0  0  0  0  0  0  0  0  0  0  0  0
   -2.0049    1.8366    0.7055 H   0  0  0  0  0  0  0  0  0  0  0  0
   -3.4449    0.9550    0.1362 H   0  0  0  0  0  0  0  0  0  0  0  0
   -2.3446    0.2399    1.4165 H   0  0  0  0  0  0  0  0  0  0  0  0
   -1.8295    0.7331   -1.5613 H   0  0  0  0  0  0  0  0  0  0  0  0
    0.1915    1.6782   -0.2738 H   0  0  0  0  0  0  0  0  0  0  0  0
    2.4915   -1.1528   -0.6389 H   0  0  0  0  0  0  0  0  0  0  0  0
    2.1179   -1.1217    1.1519 H   0  0  0  0  0  0  0  0  0  0  0  0
    2.9110    1.1893    1.2651 H   0  0  0  0  0  0  0  0  0  0  0  0
   -0.4592   -2.1466    0.6514 H   0  0  0  0  0  0  0  0  0  0  0  0
    0.0754   -2.3464   -1.0487 H   0  0  0  0  0  0  0  0  0  0  0  0
  1  2  1  0
  2  3  1  0
  3  4  2  0
  4  5  1  0
  5  6  1  0
  6  7  2  0
  4  8  1  0
  8  9  1  0
  9  2  1  0
  1 10  1  0
  1 11  1  0
  1 12  1  0
  2 13  1  0
  3 14  1  0
  5 15  1  0
  5 16  1  0
  6 17  1  0
  8 18  1  0
  8 19  1  0
M  END
