
     RDKit          3D

 21 23  0  0  0  0  0  0  0  0999 V2000
    2.9486    0.1499   -0.2535 C   0  0  0  0  0  0  0  0  0  0  0  0
    1.5910    0.3541    0.3228 C   0  0  0  0  0  0  0  0  0  0  0  0
    0.5936   -0.7000    0.0923 C   0  0  0  0  0  0  0  0  0  0  0  0
    0.4702    0.6909   -0.6156 C   0  0  0  0  0  0  0  0  0  0  0  0
   -0.9416    0.7034   -0.0506 C   0  0  0  0  0  0  0  0  0  0  0  0
   -2.0339    1.3245   -0.8410 C   0  0  0  0  0  0  0  0  0  0  0  0
   -0.9797    0.7499    1.3343 O   0  0  0  0  0  0  0  0  0  0  0  0
   -0.7895   -0.4256    0.6419 C   0  0  0  0  0  0  0  0  0  0  0  0
   -1.5838   -1.5947    1.0325 C   0  0  0  0  0  0  0  0  0  0  0  0
    3.7595    0.5608    0.3854 H   0  0  0  0  0  0  0  0  0  0  0  0
    3.1387   -0.9619   -0.2816 H   0  0  0  0  0  0  0  0  0  0  0  0
    3.0253    0.4822   -1.3080 H   0  0  0  0  0  0  0  0  0  0  0  0
    1.5605    0.8248    1.3468 H   0  0  0  0  0  0  0  0  0  0  0  0
    0.7332   -1.5565   -0.5614 H   0  0  0  0  0  0  0  0  0  0  0  0
    0.6222    0.6857   -1.6950 H   0  0  0  0  0  0  0  0  0  0  0  0
   -2.9813    1.2105   -0.3007 H   0  0  0  0  0  0  0  0  0  0  0  0
   -1.8314    2.4235   -0.9335 H   0  0  0  0  0  0  0  0  0  0  0  0
   -2.0569    0.9374   -1.8719 H   0  0  0  0  0  0  0  0  0  0  0  0
   -1.2120   -2.5121    0.4908 H   0  0  0  0  0  0  0  0  0  0  0  0
   -2.6649   -1.5228    0.9483 H   0  0  0  0  0  0  0  0  0  0  0  0
   -1.3678   -1.8241    2.1177 H   0  0  0  0  0  0  0  0  0  0  0  0
  1  2  1  0
  2  3  1  0
  3  4  1  0
  4  5  1  0
  5  6  1  0
  5  7  1  0
  7  8  1  0
  8  9  1  0
  4  2  1  0
  8  5  1  0
  8  3  1  0
  1 10  1  0
  1 11  1  0
  1 12  1  0
  2 13  1  0
  3 14  1  0
  4 15  1  0
  6 16  1  0
  6 17  1  0
  6 18  1  0
  9 19  1  0
  9 20  1  0
  9 21  1  0
M  END
