
     RDKit          3D

 23 24  0  0  0  0  0  0  0  0999 V2000
    2.7981   -0.5808    0.3566 C   0  0  0  0  0  0  0  0  0  0  0  0
    1.7302    0.4103   -0.0022 C   0  0  0  0  0  0  0  0  0  0  0  0
    0.7161    0.6647    1.1374 C   0  0  0  0  0  0  0  0  0  0  0  0
   -0.2017    0.9866    0.0034 C   0  0  0  0  0  0  0  0  0  0  0  0
    0.5553   -0.1217   -0.7153 C   0  0  0  0  0  0  0  0  0  0  0  0
   -0.2983   -0.7815   -1.4559 C   0  0  0  0  0  0  0  0  0  0  0  0
   -1.6614   -0.2191   -1.3214 C   0  0  0  0  0  0  0  0  0  0  0  0
   -1.6050    0.4822    0.0172 C   0  0  0  0  0  0  0  0  0  0  0  0
   -1.9694   -0.3878    1.1595 C   0  0  0  0  0  0  0  0  0  0  0  0
    3.1087   -0.4274    1.3957 H   0  0  0  0  0  0  0  0  0  0  0  0
    2.5222   -1.6265    0.1144 H   0  0  0  0  0  0  0  0  0  0  0  0
    3.6879   -0.3434   -0.2811 H   0  0  0  0  0  0  0  0  0  0  0  0
    2.0967    1.3494   -0.4502 H   0  0  0  0  0  0  0  0  0  0  0  0
    0.5692   -0.3026    1.6488 H   0  0  0  0  0  0  0  0  0  0  0  0
    1.0147    1.5058    1.7867 H   0  0  0  0  0  0  0  0  0  0  0  0
   -0.0108    1.9832   -0.3965 H   0  0  0  0  0  0  0  0  0  0  0  0
   -0.1125   -1.6525   -2.1219 H   0  0  0  0  0  0  0  0  0  0  0  0
   -1.7687    0.5614   -2.1046 H   0  0  0  0  0  0  0  0  0  0  0  0
   -2.4552   -0.9821   -1.3733 H   0  0  0  0  0  0  0  0  0  0  0  0
   -2.2934    1.3481   -0.0366 H   0  0  0  0  0  0  0  0  0  0  0  0
   -2.9301   -0.9155    0.8837 H   0  0  0  0  0  0  0  0  0  0  0  0
   -2.2390    0.2247    2.0478 H   0  0  0  0  0  0  0  0  0  0  0  0
   -1.2539   -1.1756    1.3874 H   0  0  0  0  0  0  0  0  0  0  0  0
  1  2  1  0
  2  3  1  0
  3  4  1  0
  4  5  1  0
  5  6  2  0
  6  7  1  0
  7  8  1  0
  8  9  1  0
  5  2  1  0
  8  4  1  0
  1 10  1  0
  1 11  1  0
  1 12  1  0
  2 13  1  0
  3 14  1  0
  3 15  1  0
  4 16  1  0
  6 17  1  0
  7 18  1  0
  7 19  1  0
  8 20  1  0
  9 21  1  0
  9 22  1  0
  9 23  1  0
M  END
