
     RDKit          3D

 23 24  0  0  0  0  0  0  0  0999 V2000
   -2.0943    1.2364    0.1150 C   0  0  0  0  0  0  0  0  0  0  0  0
   -1.3377    0.0327   -0.3695 C   0  0  0  0  0  0  0  0  0  0  0  0
   -1.4119   -1.1412    0.5558 C   0  0  0  0  0  0  0  0  0  0  0  0
   -0.2463   -1.4997    1.1476 O   0  0  0  0  0  0  0  0  0  0  0  0
    0.9024   -1.1039    0.5286 C   0  0  0  0  0  0  0  0  0  0  0  0
    0.7595   -1.0205   -0.9963 C   0  0  0  0  0  0  0  0  0  0  0  0
    0.0926    0.3363   -0.7263 C   0  0  0  0  0  0  0  0  0  0  0  0
    0.9870    0.4286    0.4975 C   0  0  0  0  0  0  0  0  0  0  0  0
    2.3817    0.8306    0.1162 C   0  0  0  0  0  0  0  0  0  0  0  0
   -3.0211    1.4251   -0.4874 H   0  0  0  0  0  0  0  0  0  0  0  0
   -2.4208    1.0643    1.1650 H   0  0  0  0  0  0  0  0  0  0  0  0
   -1.5174    2.1729    0.0841 H   0  0  0  0  0  0  0  0  0  0  0  0
   -1.8284   -0.2902   -1.3349 H   0  0  0  0  0  0  0  0  0  0  0  0
   -2.1469   -0.8773    1.3650 H   0  0  0  0  0  0  0  0  0  0  0  0
   -1.8587   -2.0536    0.0705 H   0  0  0  0  0  0  0  0  0  0  0  0
    1.8070   -1.6087    0.8500 H   0  0  0  0  0  0  0  0  0  0  0  0
    0.0729   -1.7651   -1.4270 H   0  0  0  0  0  0  0  0  0  0  0  0
    1.7344   -0.9100   -1.4729 H   0  0  0  0  0  0  0  0  0  0  0  0
    0.2752    1.0497   -1.5188 H   0  0  0  0  0  0  0  0  0  0  0  0
    0.5467    0.9273    1.3684 H   0  0  0  0  0  0  0  0  0  0  0  0
    3.1054   -0.0280    0.1509 H   0  0  0  0  0  0  0  0  0  0  0  0
    2.8114    1.5967    0.8090 H   0  0  0  0  0  0  0  0  0  0  0  0
    2.4072    1.1974   -0.9223 H   0  0  0  0  0  0  0  0  0  0  0  0
  1  2  1  0
  2  3  1  0
  3  4  1  0
  4  5  1  0
  5  6  1  0
  6  7  1  0
  7  8  1  0
  8  9  1  0
  7  2  1  0
  8  5  1  0
  1 10  1  0
  1 11  1  0
  1 12  1  0
  2 13  1  0
  3 14  1  0
  3 15  1  0
  5 16  1  0
  6 17  1  0
  6 18  1  0
  7 19  1  0
  8 20  1  0
  9 21  1  0
  9 22  1  0
  9 23  1  0
M  END
