
     RDKit          3D

 19 20  0  0  0  0  0  0  0  0999 V2000
   -1.2110   -1.7120    0.2584 C   0  0  0  0  0  0  0  0  0  0  0  0
   -1.0945   -0.2368    0.2344 C   0  0  0  0  0  0  0  0  0  0  0  0
   -0.3095    0.3696   -0.8909 C   0  0  0  0  0  0  0  0  0  0  0  0
    0.8617   -0.2878   -1.1758 O   0  0  0  0  0  0  0  0  0  0  0  0
    1.6525   -0.5731   -0.1101 C   0  0  0  0  0  0  0  0  0  0  0  0
    1.0622   -0.4389    1.1223 O   0  0  0  0  0  0  0  0  0  0  0  0
   -0.0402    0.3726    1.1473 C   0  0  0  0  0  0  0  0  0  0  0  0
    0.0393    1.4894    0.1001 C   0  0  0  0  0  0  0  0  0  0  0  0
    1.2688    2.0541   -0.0647 O   0  0  0  0  0  0  0  0  0  0  0  0
   -1.9572   -1.9904    1.0413 H   0  0  0  0  0  0  0  0  0  0  0  0
   -1.6957   -2.0307   -0.7106 H   0  0  0  0  0  0  0  0  0  0  0  0
   -0.2693   -2.2423    0.3989 H   0  0  0  0  0  0  0  0  0  0  0  0
   -2.0418    0.2970    0.3747 H   0  0  0  0  0  0  0  0  0  0  0  0
   -0.8669    0.6815   -1.7653 H   0  0  0  0  0  0  0  0  0  0  0  0
    2.0203   -1.6347   -0.2338 H   0  0  0  0  0  0  0  0  0  0  0  0
    2.6039    0.0307   -0.0732 H   0  0  0  0  0  0  0  0  0  0  0  0
   -0.3679    0.6744    2.1317 H   0  0  0  0  0  0  0  0  0  0  0  0
   -0.8313    2.1402    0.2201 H   0  0  0  0  0  0  0  0  0  0  0  0
    1.1768    3.0373    0.1449 H   0  0  0  0  0  0  0  0  0  0  0  0
  1  2  1  0
  2  3  1  0
  3  4  1  0
  4  5  1  0
  5  6  1  0
  6  7  1  0
  7  8  1  0
  8  9  1  0
  7  2  1  0
  8  3  1  0
  1 10  1  0
  1 11  1  0
  1 12  1  0
  2 13  1  0
  3 14  1  0
  5 15  1  0
  5 16  1  0
  7 17  1  0
  8 18  1  0
  9 19  1  0
M  END
