
     RDKit          3D

 20 21  0  0  0  0  0  0  0  0999 V2000
    2.0061    0.0222   -0.0884 C   0  0  0  0  0  0  0  0  0  0  0  0
    0.6362    0.3310   -0.5821 C   0  0  0  0  0  0  0  0  0  0  0  0
   -0.0514    1.3908    0.3050 C   0  0  0  0  0  0  0  0  0  0  0  0
   -1.2530    0.6179    0.7232 C   0  0  0  0  0  0  0  0  0  0  0  0
   -0.6514   -0.7463    1.0635 C   0  0  0  0  0  0  0  0  0  0  0  0
   -0.3491   -0.7816   -0.4340 C   0  0  0  0  0  0  0  0  0  0  0  0
   -0.1853   -1.9483   -1.0332 O   0  0  0  0  0  0  0  0  0  0  0  0
   -1.6775   -0.0424   -0.5905 C   0  0  0  0  0  0  0  0  0  0  0  0
    2.3088    0.8195    0.6420 H   0  0  0  0  0  0  0  0  0  0  0  0
    2.1186   -0.9601    0.3704 H   0  0  0  0  0  0  0  0  0  0  0  0
    2.7621    0.0957   -0.9135 H   0  0  0  0  0  0  0  0  0  0  0  0
    0.7021    0.6807   -1.6238 H   0  0  0  0  0  0  0  0  0  0  0  0
    0.6197    1.6099    1.1762 H   0  0  0  0  0  0  0  0  0  0  0  0
   -0.2505    2.2677   -0.3163 H   0  0  0  0  0  0  0  0  0  0  0  0
   -1.9956    1.0173    1.3533 H   0  0  0  0  0  0  0  0  0  0  0  0
   -1.4375   -1.4938    1.2736 H   0  0  0  0  0  0  0  0  0  0  0  0
    0.2187   -0.7248    1.7185 H   0  0  0  0  0  0  0  0  0  0  0  0
    0.7423   -2.1610   -1.2033 H   0  0  0  0  0  0  0  0  0  0  0  0
   -1.7097    0.6907   -1.4004 H   0  0  0  0  0  0  0  0  0  0  0  0
   -2.5537   -0.6850   -0.4402 H   0  0  0  0  0  0  0  0  0  0  0  0
  1  2  1  0
  2  3  1  0
  3  4  1  0
  4  5  1  0
  5  6  1  0
  6  7  1  0
  6  8  1  0
  6  2  1  0
  8  4  1  0
  1  9  1  0
  1 10  1  0
  1 11  1  0
  2 12  1  0
  3 13  1  0
  3 14  1  0
  4 15  1  0
  5 16  1  0
  5 17  1  0
  7 18  1  0
  8 19  1  0
  8 20  1  0
M  END
