
     RDKit          3D

 19 19  0  0  0  0  0  0  0  0999 V2000
   -2.4440   -0.8496    0.1833 C   0  0  0  0  0  0  0  0  0  0  0  0
   -1.1545   -0.1702   -0.2530 C   0  0  0  0  0  0  0  0  0  0  0  0
   -1.1532    1.2023    0.3326 C   0  0  0  0  0  0  0  0  0  0  0  0
    0.1509    1.4488    0.6640 O   0  0  0  0  0  0  0  0  0  0  0  0
    0.8326    0.2371    0.6907 C   0  0  0  0  0  0  0  0  0  0  0  0
    2.0035    0.3915   -0.2448 C   0  0  0  0  0  0  0  0  0  0  0  0
    2.8326   -0.8345   -0.3211 C   0  0  0  0  0  0  0  0  0  0  0  0
    2.6087   -1.8514    0.2912 O   0  0  0  0  0  0  0  0  0  0  0  0
   -0.0403   -0.7520    0.3110 O   0  0  0  0  0  0  0  0  0  0  0  0
   -2.7411   -0.4182    1.1745 H   0  0  0  0  0  0  0  0  0  0  0  0
   -3.2167   -0.5256   -0.5597 H   0  0  0  0  0  0  0  0  0  0  0  0
   -2.3527   -1.9456    0.2237 H   0  0  0  0  0  0  0  0  0  0  0  0
   -1.0651   -0.1651   -1.3580 H   0  0  0  0  0  0  0  0  0  0  0  0
   -1.7935    1.2263    1.2431 H   0  0  0  0  0  0  0  0  0  0  0  0
   -1.5613    1.8996   -0.4298 H   0  0  0  0  0  0  0  0  0  0  0  0
    1.1843    0.0982    1.7496 H   0  0  0  0  0  0  0  0  0  0  0  0
    1.5789    0.6049   -1.2481 H   0  0  0  0  0  0  0  0  0  0  0  0
    2.6345    1.2061    0.1460 H   0  0  0  0  0  0  0  0  0  0  0  0
    3.6963   -0.8026   -0.9753 H   0  0  0  0  0  0  0  0  0  0  0  0
  1  2  1  0
  2  3  1  0
  3  4  1  0
  4  5  1  0
  5  6  1  0
  6  7  1  0
  7  8  2  0
  5  9  1  0
  9  2  1  0
  1 10  1  0
  1 11  1  0
  1 12  1  0
  2 13  1  0
  3 14  1  0
  3 15  1  0
  5 16  1  0
  6 17  1  0
  6 18  1  0
  7 19  1  0
M  END
