
     RDKit          3D

 21 21  0  0  0  0  0  0  0  0999 V2000
   -2.5245    0.7050   -0.2567 C   0  0  0  0  0  0  0  0  0  0  0  0
   -1.1402    0.2022    0.1057 C   0  0  0  0  0  0  0  0  0  0  0  0
   -1.0237   -1.1970   -0.3668 C   0  0  0  0  0  0  0  0  0  0  0  0
    0.3259   -1.6120   -0.7729 C   0  0  0  0  0  0  0  0  0  0  0  0
    1.5167   -1.0904   -0.5781 C   0  0  0  0  0  0  0  0  0  0  0  0
    1.9031    0.1147    0.1304 C   0  0  0  0  0  0  0  0  0  0  0  0
    3.0206    0.6678   -0.5401 O   0  0  0  0  0  0  0  0  0  0  0  0
    0.8771    1.1723    0.2488 C   0  0  0  0  0  0  0  0  0  0  0  0
   -0.2229    1.0033   -0.5664 O   0  0  0  0  0  0  0  0  0  0  0  0
   -2.4797    1.0584   -1.3100 H   0  0  0  0  0  0  0  0  0  0  0  0
   -3.2787   -0.1247   -0.1653 H   0  0  0  0  0  0  0  0  0  0  0  0
   -2.8397    1.5316    0.4086 H   0  0  0  0  0  0  0  0  0  0  0  0
   -1.0542    0.2962    1.2081 H   0  0  0  0  0  0  0  0  0  0  0  0
   -1.7106   -1.3463   -1.2522 H   0  0  0  0  0  0  0  0  0  0  0  0
   -1.4158   -1.9208    0.4021 H   0  0  0  0  0  0  0  0  0  0  0  0
    0.3195   -2.5410   -1.3509 H   0  0  0  0  0  0  0  0  0  0  0  0
    2.3328   -1.6475   -1.0144 H   0  0  0  0  0  0  0  0  0  0  0  0
    2.3029   -0.1827    1.1432 H   0  0  0  0  0  0  0  0  0  0  0  0
    3.2541    1.5127   -0.0809 H   0  0  0  0  0  0  0  0  0  0  0  0
    1.2972    2.1856    0.0270 H   0  0  0  0  0  0  0  0  0  0  0  0
    0.5402    1.2127    1.3237 H   0  0  0  0  0  0  0  0  0  0  0  0
  1  2  1  0
  2  3  1  0
  3  4  1  0
  4  5  2  0
  5  6  1  0
  6  7  1  0
  6  8  1  0
  8  9  1  0
  9  2  1  0
  1 10  1  0
  1 11  1  0
  1 12  1  0
  2 13  1  0
  3 14  1  0
  3 15  1  0
  4 16  1  0
  5 17  1  0
  6 18  1  0
  7 19  1  0
  8 20  1  0
  8 21  1  0
M  END
