
     RDKit          3D

 17 18  0  0  0  0  0  0  0  0999 V2000
    2.2382    0.0651    0.5583 C   0  0  0  0  0  0  0  0  0  0  0  0
    1.0555    0.2236   -0.3499 C   0  0  0  0  0  0  0  0  0  0  0  0
    0.3049   -1.0613   -0.7426 C   0  0  0  0  0  0  0  0  0  0  0  0
   -0.3124   -0.0121    0.0203 C   0  0  0  0  0  0  0  0  0  0  0  0
   -1.4596    0.8318   -0.4134 C   0  0  0  0  0  0  0  0  0  0  0  0
   -2.1201   -0.0254    0.6745 C   0  0  0  0  0  0  0  0  0  0  0  0
   -0.8373   -0.0924    1.2688 O   0  0  0  0  0  0  0  0  0  0  0  0
    3.0721   -0.3488   -0.0772 H   0  0  0  0  0  0  0  0  0  0  0  0
    2.5780    1.0917    0.8336 H   0  0  0  0  0  0  0  0  0  0  0  0
    2.0253   -0.5695    1.4284 H   0  0  0  0  0  0  0  0  0  0  0  0
    1.2738    0.8937   -1.2310 H   0  0  0  0  0  0  0  0  0  0  0  0
    0.0130   -1.1679   -1.8172 H   0  0  0  0  0  0  0  0  0  0  0  0
    0.6809   -2.0036   -0.2585 H   0  0  0  0  0  0  0  0  0  0  0  0
   -1.8805    0.6782   -1.4019 H   0  0  0  0  0  0  0  0  0  0  0  0
   -1.3268    1.8776   -0.0700 H   0  0  0  0  0  0  0  0  0  0  0  0
   -2.8477    0.5823    1.2076 H   0  0  0  0  0  0  0  0  0  0  0  0
   -2.4574   -0.9630    0.2116 H   0  0  0  0  0  0  0  0  0  0  0  0
  1  2  1  0
  2  3  1  0
  3  4  1  0
  4  5  1  0
  5  6  1  0
  6  7  1  0
  4  2  1  0
  7  4  1  0
  1  8  1  0
  1  9  1  0
  1 10  1  0
  2 11  1  0
  3 12  1  0
  3 13  1  0
  5 14  1  0
  5 15  1  0
  6 16  1  0
  6 17  1  0
M  END
