
     RDKit          3D

 21 22  0  0  0  0  0  0  0  0999 V2000
   -2.0994   -0.2429    0.4097 C   0  0  0  0  0  0  0  0  0  0  0  0
   -0.9252   -0.0201   -0.5319 C   0  0  0  0  0  0  0  0  0  0  0  0
   -0.0253   -1.2509   -0.5615 C   0  0  0  0  0  0  0  0  0  0  0  0
    1.1172   -1.0860    0.3918 C   0  0  0  0  0  0  0  0  0  0  0  0
    2.0479    0.0169    0.0651 C   0  0  0  0  0  0  0  0  0  0  0  0
    1.0168    0.8069    0.7866 C   0  0  0  0  0  0  0  0  0  0  0  0
    0.6353   -0.3491    1.4922 O   0  0  0  0  0  0  0  0  0  0  0  0
   -0.1584    1.2076   -0.0610 C   0  0  0  0  0  0  0  0  0  0  0  0
    0.1968    2.0078   -1.1405 O   0  0  0  0  0  0  0  0  0  0  0  0
   -1.7917   -0.0018    1.4609 H   0  0  0  0  0  0  0  0  0  0  0  0
   -2.4647   -1.2804    0.3757 H   0  0  0  0  0  0  0  0  0  0  0  0
   -2.9278    0.4548    0.1379 H   0  0  0  0  0  0  0  0  0  0  0  0
   -1.3427    0.1288   -1.5591 H   0  0  0  0  0  0  0  0  0  0  0  0
    0.2890   -1.4898   -1.5973 H   0  0  0  0  0  0  0  0  0  0  0  0
   -0.5965   -2.1632   -0.2179 H   0  0  0  0  0  0  0  0  0  0  0  0
    1.5362   -2.0358    0.7497 H   0  0  0  0  0  0  0  0  0  0  0  0
    2.9796   -0.0530    0.6609 H   0  0  0  0  0  0  0  0  0  0  0  0
    2.2408    0.2517   -0.9883 H   0  0  0  0  0  0  0  0  0  0  0  0
    1.3780    1.5732    1.4969 H   0  0  0  0  0  0  0  0  0  0  0  0
   -0.8338    1.8143    0.6037 H   0  0  0  0  0  0  0  0  0  0  0  0
   -0.2722    1.7111   -1.9736 H   0  0  0  0  0  0  0  0  0  0  0  0
  1  2  1  0
  2  3  1  0
  3  4  1  0
  4  5  1  0
  5  6  1  0
  6  7  1  0
  6  8  1  0
  8  9  1  0
  8  2  1  0
  7  4  1  0
  1 10  1  0
  1 11  1  0
  1 12  1  0
  2 13  1  0
  3 14  1  0
  3 15  1  0
  4 16  1  0
  5 17  1  0
  5 18  1  0
  6 19  1  0
  8 20  1  0
  9 21  1  0
M  END
