
     RDKit          3D

 21 23  0  0  0  0  0  0  0  0999 V2000
   -1.6579    0.1781    1.3073 C   0  0  0  0  0  0  0  0  0  0  0  0
   -1.2458    0.7308   -0.0359 C   0  0  0  0  0  0  0  0  0  0  0  0
   -1.9503   -0.0297   -1.1682 C   0  0  0  0  0  0  0  0  0  0  0  0
   -0.6160   -0.7610   -1.3573 C   0  0  0  0  0  0  0  0  0  0  0  0
    0.3833    0.1539   -1.8401 O   0  0  0  0  0  0  0  0  0  0  0  0
    0.0284    0.0397   -0.4918 C   0  0  0  0  0  0  0  0  0  0  0  0
    1.0981   -0.1276    0.5109 C   0  0  0  0  0  0  0  0  0  0  0  0
    2.3888   -0.7633    0.2652 C   0  0  0  0  0  0  0  0  0  0  0  0
    2.3885    0.7059    0.2528 C   0  0  0  0  0  0  0  0  0  0  0  0
   -1.1586   -0.7949    1.5321 H   0  0  0  0  0  0  0  0  0  0  0  0
   -1.5646    0.9156    2.1151 H   0  0  0  0  0  0  0  0  0  0  0  0
   -2.7487   -0.0792    1.2160 H   0  0  0  0  0  0  0  0  0  0  0  0
   -1.2578    1.8151   -0.1314 H   0  0  0  0  0  0  0  0  0  0  0  0
   -2.1827    0.6168   -2.0266 H   0  0  0  0  0  0  0  0  0  0  0  0
   -2.7548   -0.7022   -0.8247 H   0  0  0  0  0  0  0  0  0  0  0  0
   -0.5966   -1.7772   -1.7129 H   0  0  0  0  0  0  0  0  0  0  0  0
    0.7570   -0.0945    1.5763 H   0  0  0  0  0  0  0  0  0  0  0  0
    2.6162   -1.2958   -0.7034 H   0  0  0  0  0  0  0  0  0  0  0  0
    2.9023   -1.2952    1.1202 H   0  0  0  0  0  0  0  0  0  0  0  0
    2.7527    1.3119    1.1036 H   0  0  0  0  0  0  0  0  0  0  0  0
    2.4184    1.2528   -0.7073 H   0  0  0  0  0  0  0  0  0  0  0  0
  1  2  1  0
  2  3  1  0
  3  4  1  0
  4  5  1  0
  5  6  1  0
  6  7  1  0
  7  8  1  0
  8  9  1  0
  6  2  1  0
  9  7  1  0
  6  4  1  0
  1 10  1  0
  1 11  1  0
  1 12  1  0
  2 13  1  0
  3 14  1  0
  3 15  1  0
  4 16  1  0
  7 17  1  0
  8 18  1  0
  8 19  1  0
  9 20  1  0
  9 21  1  0
M  END
