
     RDKit          3D

 25 26  0  0  0  0  0  0  0  0999 V2000
   -0.0099    2.1570   -0.0974 C   0  0  0  0  0  0  0  0  0  0  0  0
   -0.2728    0.7283   -0.4908 C   0  0  0  0  0  0  0  0  0  0  0  0
   -1.6197    0.3438    0.1001 C   0  0  0  0  0  0  0  0  0  0  0  0
   -2.3113   -0.8551   -0.3914 C   0  0  0  0  0  0  0  0  0  0  0  0
   -1.4450   -0.9204    0.8223 C   0  0  0  0  0  0  0  0  0  0  0  0
   -0.0083   -1.3440    0.7232 C   0  0  0  0  0  0  0  0  0  0  0  0
    0.7321   -0.2418   -0.0022 C   0  0  0  0  0  0  0  0  0  0  0  0
    1.8280    0.3557    0.8361 C   0  0  0  0  0  0  0  0  0  0  0  0
    1.4135   -0.9005   -1.2054 C   0  0  0  0  0  0  0  0  0  0  0  0
   -0.8053    2.7713   -0.6129 H   0  0  0  0  0  0  0  0  0  0  0  0
   -0.1952    2.3010    0.9830 H   0  0  0  0  0  0  0  0  0  0  0  0
    0.9491    2.5513   -0.4501 H   0  0  0  0  0  0  0  0  0  0  0  0
   -0.3364    0.7207   -1.6154 H   0  0  0  0  0  0  0  0  0  0  0  0
   -2.2719    1.1620    0.5005 H   0  0  0  0  0  0  0  0  0  0  0  0
   -1.9184   -1.4365   -1.2631 H   0  0  0  0  0  0  0  0  0  0  0  0
   -3.3998   -0.9295   -0.2452 H   0  0  0  0  0  0  0  0  0  0  0  0
   -1.9640   -1.1043    1.7793 H   0  0  0  0  0  0  0  0  0  0  0  0
    0.1283   -2.3350    0.2647 H   0  0  0  0  0  0  0  0  0  0  0  0
    0.3926   -1.3824    1.7656 H   0  0  0  0  0  0  0  0  0  0  0  0
    2.5860    0.7979    0.1364 H   0  0  0  0  0  0  0  0  0  0  0  0
    1.4476    1.0618    1.5704 H   0  0  0  0  0  0  0  0  0  0  0  0
    2.3524   -0.4644    1.3586 H   0  0  0  0  0  0  0  0  0  0  0  0
    1.5580   -0.0839   -1.9436 H   0  0  0  0  0  0  0  0  0  0  0  0
    2.4185   -1.2598   -0.9213 H   0  0  0  0  0  0  0  0  0  0  0  0
    0.7517   -1.6934   -1.6014 H   0  0  0  0  0  0  0  0  0  0  0  0
  1  2  1  0
  2  3  1  0
  3  4  1  0
  4  5  1  0
  5  6  1  0
  6  7  1  0
  7  8  1  0
  7  9  1  0
  7  2  1  0
  5  3  1  0
  1 10  1  0
  1 11  1  0
  1 12  1  0
  2 13  1  0
  3 14  1  0
  4 15  1  0
  4 16  1  0
  5 17  1  0
  6 18  1  0
  6 19  1  0
  8 20  1  0
  8 21  1  0
  8 22  1  0
  9 23  1  0
  9 24  1  0
  9 25  1  0
M  END
