
     RDKit          3D

 19 19  0  0  0  0  0  0  0  0999 V2000
    2.3522    0.4480    0.2328 C   0  0  0  0  0  0  0  0  0  0  0  0
    1.1303    0.0094   -0.5315 C   0  0  0  0  0  0  0  0  0  0  0  0
    0.3977   -1.1687    0.0455 C   0  0  0  0  0  0  0  0  0  0  0  0
   -0.7586   -0.2704    0.3928 C   0  0  0  0  0  0  0  0  0  0  0  0
   -2.0282   -0.5624   -0.3955 C   0  0  0  0  0  0  0  0  0  0  0  0
   -3.0096    0.3460    0.0332 O   0  0  0  0  0  0  0  0  0  0  0  0
   -0.0428    0.9296   -0.2004 C   0  0  0  0  0  0  0  0  0  0  0  0
    1.9911    0.8284    1.2289 H   0  0  0  0  0  0  0  0  0  0  0  0
    2.7495    1.3500   -0.2879 H   0  0  0  0  0  0  0  0  0  0  0  0
    3.1051   -0.3497    0.3360 H   0  0  0  0  0  0  0  0  0  0  0  0
    1.2975   -0.0875   -1.6103 H   0  0  0  0  0  0  0  0  0  0  0  0
    0.0714   -1.9336   -0.6877 H   0  0  0  0  0  0  0  0  0  0  0  0
    0.8995   -1.6531    0.8882 H   0  0  0  0  0  0  0  0  0  0  0  0
   -0.9252   -0.2184    1.4880 H   0  0  0  0  0  0  0  0  0  0  0  0
   -1.8599   -0.3796   -1.4758 H   0  0  0  0  0  0  0  0  0  0  0  0
   -2.4162   -1.5725   -0.2200 H   0  0  0  0  0  0  0  0  0  0  0  0
   -2.6049    1.2461    0.1117 H   0  0  0  0  0  0  0  0  0  0  0  0
   -0.5319    1.3449   -1.1172 H   0  0  0  0  0  0  0  0  0  0  0  0
    0.1829    1.6933    0.5752 H   0  0  0  0  0  0  0  0  0  0  0  0
  1  2  1  0
  2  3  1  0
  3  4  1  0
  4  5  1  0
  5  6  1  0
  4  7  1  0
  7  2  1  0
  1  8  1  0
  1  9  1  0
  1 10  1  0
  2 11  1  0
  3 12  1  0
  3 13  1  0
  4 14  1  0
  5 15  1  0
  5 16  1  0
  6 17  1  0
  7 18  1  0
  7 19  1  0
M  END
