
     RDKit          3D

 21 22  0  0  0  0  0  0  0  0999 V2000
   -1.8196    1.5500   -0.2931 C   0  0  0  0  0  0  0  0  0  0  0  0
   -1.0667    0.2621   -0.5131 C   0  0  0  0  0  0  0  0  0  0  0  0
   -1.4349   -0.7925    0.5140 C   0  0  0  0  0  0  0  0  0  0  0  0
   -0.2527   -1.7092    0.5378 C   0  0  0  0  0  0  0  0  0  0  0  0
    0.8806   -1.0104   -0.1837 C   0  0  0  0  0  0  0  0  0  0  0  0
    2.0301   -0.9053    0.6031 O   0  0  0  0  0  0  0  0  0  0  0  0
    2.6018    0.2660    0.1243 C   0  0  0  0  0  0  0  0  0  0  0  0
    1.4541    1.1842   -0.0598 C   0  0  0  0  0  0  0  0  0  0  0  0
    0.3913    0.4155   -0.2570 C   0  0  0  0  0  0  0  0  0  0  0  0
   -1.9352    1.8120    0.7603 H   0  0  0  0  0  0  0  0  0  0  0  0
   -1.2865    2.3515   -0.8444 H   0  0  0  0  0  0  0  0  0  0  0  0
   -2.8060    1.4322   -0.8254 H   0  0  0  0  0  0  0  0  0  0  0  0
   -1.2592   -0.1408   -1.5134 H   0  0  0  0  0  0  0  0  0  0  0  0
   -2.3481   -1.2912    0.1786 H   0  0  0  0  0  0  0  0  0  0  0  0
   -1.6514   -0.3452    1.5051 H   0  0  0  0  0  0  0  0  0  0  0  0
    0.0874   -1.9608    1.5639 H   0  0  0  0  0  0  0  0  0  0  0  0
   -0.5220   -2.6624    0.0045 H   0  0  0  0  0  0  0  0  0  0  0  0
    1.0798   -1.4257   -1.1802 H   0  0  0  0  0  0  0  0  0  0  0  0
    3.3749    0.6762    0.8030 H   0  0  0  0  0  0  0  0  0  0  0  0
    3.0434    0.0028   -0.8804 H   0  0  0  0  0  0  0  0  0  0  0  0
    1.4391    2.2907   -0.0442 H   0  0  0  0  0  0  0  0  0  0  0  0
  1  2  1  0
  2  3  1  0
  3  4  1  0
  4  5  1  0
  5  6  1  0
  6  7  1  0
  7  8  1  0
  8  9  2  0
  9  2  1  0
  9  5  1  0
  1 10  1  0
  1 11  1  0
  1 12  1  0
  2 13  1  0
  3 14  1  0
  3 15  1  0
  4 16  1  0
  4 17  1  0
  5 18  1  0
  7 19  1  0
  7 20  1  0
  8 21  1  0
M  END
