
     RDKit          3D

 18 19  0  0  0  0  0  0  0  0999 V2000
   -2.3553   -0.2625   -0.3402 C   0  0  0  0  0  0  0  0  0  0  0  0
   -1.0456   -0.0683    0.3347 C   0  0  0  0  0  0  0  0  0  0  0  0
   -0.5443    1.3504    0.2371 C   0  0  0  0  0  0  0  0  0  0  0  0
    0.7798    1.3549    0.1369 C   0  0  0  0  0  0  0  0  0  0  0  0
    1.2668   -0.0220    0.1582 C   0  0  0  0  0  0  0  0  0  0  0  0
    2.5636   -0.5181    0.1503 C   0  0  0  0  0  0  0  0  0  0  0  0
    1.8726   -0.4212    1.3509 O   0  0  0  0  0  0  0  0  0  0  0  0
    0.1001   -0.7955   -0.3703 C   0  0  0  0  0  0  0  0  0  0  0  0
   -2.4793   -1.2746   -0.7586 H   0  0  0  0  0  0  0  0  0  0  0  0
   -2.4737    0.4872   -1.1413 H   0  0  0  0  0  0  0  0  0  0  0  0
   -3.1566   -0.1611    0.4454 H   0  0  0  0  0  0  0  0  0  0  0  0
   -1.1052   -0.3936    1.3996 H   0  0  0  0  0  0  0  0  0  0  0  0
   -1.1726    2.2250    0.2476 H   0  0  0  0  0  0  0  0  0  0  0  0
    1.4207    2.2343    0.0514 H   0  0  0  0  0  0  0  0  0  0  0  0
    2.7946   -1.5224   -0.2662 H   0  0  0  0  0  0  0  0  0  0  0  0
    3.4299    0.1883   -0.0192 H   0  0  0  0  0  0  0  0  0  0  0  0
   -0.0113   -0.5404   -1.4487 H   0  0  0  0  0  0  0  0  0  0  0  0
    0.1158   -1.8604   -0.1674 H   0  0  0  0  0  0  0  0  0  0  0  0
  1  2  1  0
  2  3  1  0
  3  4  2  0
  4  5  1  0
  5  6  1  0
  6  7  1  0
  5  8  1  0
  8  2  1  0
  7  5  1  0
  1  9  1  0
  1 10  1  0
  1 11  1  0
  2 12  1  0
  3 13  1  0
  4 14  1  0
  6 15  1  0
  6 16  1  0
  8 17  1  0
  8 18  1  0
M  END
