
     RDKit          3D

 21 22  0  0  0  0  0  0  0  0999 V2000
   -1.9922   -0.8536    1.0704 C   0  0  0  0  0  0  0  0  0  0  0  0
   -1.0241   -1.0321   -0.0649 C   0  0  0  0  0  0  0  0  0  0  0  0
   -1.0741   -0.0841   -1.2420 C   0  0  0  0  0  0  0  0  0  0  0  0
    0.0853   -0.1032   -0.3096 C   0  0  0  0  0  0  0  0  0  0  0  0
    1.3949   -0.7542   -0.7540 C   0  0  0  0  0  0  0  0  0  0  0  0
    1.7564   -1.6245    0.2889 O   0  0  0  0  0  0  0  0  0  0  0  0
    0.2965    1.1220    0.5359 C   0  0  0  0  0  0  0  0  0  0  0  0
    1.3753    2.0593    0.3270 C   0  0  0  0  0  0  0  0  0  0  0  0
    0.0396    2.3974   -0.2112 O   0  0  0  0  0  0  0  0  0  0  0  0
   -2.8953   -0.3280    0.6998 H   0  0  0  0  0  0  0  0  0  0  0  0
   -2.3716   -1.8386    1.4636 H   0  0  0  0  0  0  0  0  0  0  0  0
   -1.5678   -0.3326    1.9431 H   0  0  0  0  0  0  0  0  0  0  0  0
   -0.9056   -2.0974   -0.3820 H   0  0  0  0  0  0  0  0  0  0  0  0
   -0.9039   -0.4699   -2.2621 H   0  0  0  0  0  0  0  0  0  0  0  0
   -1.7481    0.8003   -1.1834 H   0  0  0  0  0  0  0  0  0  0  0  0
    1.2446   -1.3912   -1.6552 H   0  0  0  0  0  0  0  0  0  0  0  0
    2.1443    0.0172   -0.9244 H   0  0  0  0  0  0  0  0  0  0  0  0
    2.6808   -1.4104    0.5565 H   0  0  0  0  0  0  0  0  0  0  0  0
   -0.2899    1.1803    1.4529 H   0  0  0  0  0  0  0  0  0  0  0  0
    2.0715    2.0341   -0.5109 H   0  0  0  0  0  0  0  0  0  0  0  0
    1.6836    2.7091    1.1616 H   0  0  0  0  0  0  0  0  0  0  0  0
  1  2  1  0
  2  3  1  0
  3  4  1  0
  4  5  1  0
  5  6  1  0
  4  7  1  0
  7  8  1  0
  8  9  1  0
  4  2  1  0
  9  7  1  0
  1 10  1  0
  1 11  1  0
  1 12  1  0
  2 13  1  0
  3 14  1  0
  3 15  1  0
  5 16  1  0
  5 17  1  0
  6 18  1  0
  7 19  1  0
  8 20  1  0
  8 21  1  0
M  END
