
     RDKit          3D

 23 23  0  0  0  0  0  0  0  0999 V2000
    2.5359    0.1576    0.2112 C   0  0  0  0  0  0  0  0  0  0  0  0
    1.1714    0.2371   -0.4796 C   0  0  0  0  0  0  0  0  0  0  0  0
    0.4538    1.4348    0.0536 C   0  0  0  0  0  0  0  0  0  0  0  0
   -0.7037    1.5914   -0.7271 O   0  0  0  0  0  0  0  0  0  0  0  0
   -1.7873    1.2251    0.0364 C   0  0  0  0  0  0  0  0  0  0  0  0
   -1.7670   -0.2197    0.3947 C   0  0  0  0  0  0  0  0  0  0  0  0
   -0.9756   -1.0794   -0.5508 C   0  0  0  0  0  0  0  0  0  0  0  0
   -1.3929   -2.4095   -0.2891 O   0  0  0  0  0  0  0  0  0  0  0  0
    0.4867   -1.0515   -0.2895 C   0  0  0  0  0  0  0  0  0  0  0  0
    2.6398   -0.7955    0.7843 H   0  0  0  0  0  0  0  0  0  0  0  0
    3.3006    0.1283   -0.5758 H   0  0  0  0  0  0  0  0  0  0  0  0
    2.7008    0.9790    0.9089 H   0  0  0  0  0  0  0  0  0  0  0  0
    1.3044    0.4053   -1.5863 H   0  0  0  0  0  0  0  0  0  0  0  0
    1.1286    2.3224   -0.1136 H   0  0  0  0  0  0  0  0  0  0  0  0
    0.2463    1.4074    1.1209 H   0  0  0  0  0  0  0  0  0  0  0  0
   -2.7177    1.5308   -0.5177 H   0  0  0  0  0  0  0  0  0  0  0  0
   -1.7292    1.8062    1.0025 H   0  0  0  0  0  0  0  0  0  0  0  0
   -1.3387   -0.3827    1.4129 H   0  0  0  0  0  0  0  0  0  0  0  0
   -2.8334   -0.5875    0.3418 H   0  0  0  0  0  0  0  0  0  0  0  0
   -1.2577   -0.8874   -1.5961 H   0  0  0  0  0  0  0  0  0  0  0  0
   -1.0848   -2.5662    0.6608 H   0  0  0  0  0  0  0  0  0  0  0  0
    0.6535   -1.4325    0.7510 H   0  0  0  0  0  0  0  0  0  0  0  0
    0.9663   -1.8135   -0.9533 H   0  0  0  0  0  0  0  0  0  0  0  0
  1  2  1  0
  2  3  1  0
  3  4  1  0
  4  5  1  0
  5  6  1  0
  6  7  1  0
  7  8  1  0
  7  9  1  0
  9  2  1  0
  1 10  1  0
  1 11  1  0
  1 12  1  0
  2 13  1  0
  3 14  1  0
  3 15  1  0
  5 16  1  0
  5 17  1  0
  6 18  1  0
  6 19  1  0
  7 20  1  0
  8 21  1  0
  9 22  1  0
  9 23  1  0
M  END
