
     RDKit          3D

 23 23  0  0  0  0  0  0  0  0999 V2000
   -2.5743   -0.6019    0.1454 C   0  0  0  0  0  0  0  0  0  0  0  0
   -1.0870   -0.2240    0.2182 C   0  0  0  0  0  0  0  0  0  0  0  0
   -0.9797    1.2093   -0.1605 C   0  0  0  0  0  0  0  0  0  0  0  0
    0.2988    1.8704    0.2779 C   0  0  0  0  0  0  0  0  0  0  0  0
    1.4217    1.3880   -0.3564 O   0  0  0  0  0  0  0  0  0  0  0  0
    2.0078    0.3119    0.2825 C   0  0  0  0  0  0  0  0  0  0  0  0
    1.9203   -0.8706   -0.6829 C   0  0  0  0  0  0  0  0  0  0  0  0
    0.6731   -1.6386   -0.2982 C   0  0  0  0  0  0  0  0  0  0  0  0
   -0.4498   -0.9898   -0.7440 O   0  0  0  0  0  0  0  0  0  0  0  0
   -2.7259   -1.6799    0.1182 H   0  0  0  0  0  0  0  0  0  0  0  0
   -3.1204   -0.1934    1.0326 H   0  0  0  0  0  0  0  0  0  0  0  0
   -2.9436   -0.1470   -0.8047 H   0  0  0  0  0  0  0  0  0  0  0  0
   -0.7767   -0.4598    1.2509 H   0  0  0  0  0  0  0  0  0  0  0  0
   -1.8131    1.7610    0.3400 H   0  0  0  0  0  0  0  0  0  0  0  0
   -1.0907    1.3049   -1.2434 H   0  0  0  0  0  0  0  0  0  0  0  0
    0.2056    2.9546   -0.0255 H   0  0  0  0  0  0  0  0  0  0  0  0
    0.4129    1.8893    1.3753 H   0  0  0  0  0  0  0  0  0  0  0  0
    3.0963    0.4765    0.4715 H   0  0  0  0  0  0  0  0  0  0  0  0
    1.5630    0.0755    1.2648 H   0  0  0  0  0  0  0  0  0  0  0  0
    2.8277   -1.4795   -0.6846 H   0  0  0  0  0  0  0  0  0  0  0  0
    1.7582   -0.5080   -1.7290 H   0  0  0  0  0  0  0  0  0  0  0  0
    0.6378   -1.8281    0.7849 H   0  0  0  0  0  0  0  0  0  0  0  0
    0.7382   -2.6208   -0.8330 H   0  0  0  0  0  0  0  0  0  0  0  0
  1  2  1  0
  2  3  1  0
  3  4  1  0
  4  5  1  0
  5  6  1  0
  6  7  1  0
  7  8  1  0
  8  9  1  0
  9  2  1  0
  1 10  1  0
  1 11  1  0
  1 12  1  0
  2 13  1  0
  3 14  1  0
  3 15  1  0
  4 16  1  0
  4 17  1  0
  6 18  1  0
  6 19  1  0
  7 20  1  0
  7 21  1  0
  8 22  1  0
  8 23  1  0
M  END
