
     RDKit          3D

 23 25  0  0  0  0  0  0  0  0999 V2000
    2.5743    0.2415    0.2170 C   0  0  0  0  0  0  0  0  0  0  0  0
    1.2083    0.0472   -0.3852 C   0  0  0  0  0  0  0  0  0  0  0  0
    0.6246   -1.2409    0.0871 C   0  0  0  0  0  0  0  0  0  0  0  0
   -0.7604   -1.4992   -0.4251 C   0  0  0  0  0  0  0  0  0  0  0  0
   -1.6479   -0.2989   -0.4511 C   0  0  0  0  0  0  0  0  0  0  0  0
   -1.8165    0.2399    0.9540 C   0  0  0  0  0  0  0  0  0  0  0  0
   -0.8076    1.3000    0.7120 C   0  0  0  0  0  0  0  0  0  0  0  0
    0.3162    1.2355   -0.2041 C   0  0  0  0  0  0  0  0  0  0  0  0
   -1.0053    0.9807   -0.8042 C   0  0  0  0  0  0  0  0  0  0  0  0
    2.6123    1.0174    0.9914 H   0  0  0  0  0  0  0  0  0  0  0  0
    2.9709   -0.7125    0.6703 H   0  0  0  0  0  0  0  0  0  0  0  0
    3.3443    0.5260   -0.5489 H   0  0  0  0  0  0  0  0  0  0  0  0
    1.3745   -0.0594   -1.4985 H   0  0  0  0  0  0  0  0  0  0  0  0
    1.2746   -2.0655   -0.3325 H   0  0  0  0  0  0  0  0  0  0  0  0
    0.7052   -1.3729    1.1969 H   0  0  0  0  0  0  0  0  0  0  0  0
   -1.2303   -2.2328    0.2848 H   0  0  0  0  0  0  0  0  0  0  0  0
   -0.7643   -1.9871   -1.4183 H   0  0  0  0  0  0  0  0  0  0  0  0
   -2.5686   -0.4944   -1.0070 H   0  0  0  0  0  0  0  0  0  0  0  0
   -1.6183   -0.4902    1.7576 H   0  0  0  0  0  0  0  0  0  0  0  0
   -2.8776    0.6163    1.0537 H   0  0  0  0  0  0  0  0  0  0  0  0
   -1.1412    2.3106    1.0393 H   0  0  0  0  0  0  0  0  0  0  0  0
    0.7929    2.1923   -0.5044 H   0  0  0  0  0  0  0  0  0  0  0  0
   -1.5602    1.7461   -1.3847 H   0  0  0  0  0  0  0  0  0  0  0  0
  1  2  1  0
  2  3  1  0
  3  4  1  0
  4  5  1  0
  5  6  1  0
  6  7  1  0
  7  8  1  0
  8  9  1  0
  8  2  1  0
  9  5  1  0
  9  7  1  0
  1 10  1  0
  1 11  1  0
  1 12  1  0
  2 13  1  0
  3 14  1  0
  3 15  1  0
  4 16  1  0
  4 17  1  0
  5 18  1  0
  6 19  1  0
  6 20  1  0
  7 21  1  0
  8 22  1  0
  9 23  1  0
M  END
