
     RDKit          3D

 21 22  0  0  0  0  0  0  0  0999 V2000
   -2.1283   -0.3725    0.3369 C   0  0  0  0  0  0  0  0  0  0  0  0
   -0.7308   -0.0442    0.7783 C   0  0  0  0  0  0  0  0  0  0  0  0
   -0.2080    1.1981    0.1312 C   0  0  0  0  0  0  0  0  0  0  0  0
   -1.0513    1.4872   -0.9606 O   0  0  0  0  0  0  0  0  0  0  0  0
    1.2329    1.1292   -0.2606 C   0  0  0  0  0  0  0  0  0  0  0  0
    1.8240   -0.2217    0.0330 C   0  0  0  0  0  0  0  0  0  0  0  0
    0.9376   -1.2459   -0.6670 C   0  0  0  0  0  0  0  0  0  0  0  0
    0.2293   -1.1885    0.6350 C   0  0  0  0  0  0  0  0  0  0  0  0
    1.4347   -0.7621    1.2287 O   0  0  0  0  0  0  0  0  0  0  0  0
   -2.8968   -0.1246    1.1281 H   0  0  0  0  0  0  0  0  0  0  0  0
   -2.4497    0.2256   -0.5555 H   0  0  0  0  0  0  0  0  0  0  0  0
   -2.2878   -1.4301    0.0966 H   0  0  0  0  0  0  0  0  0  0  0  0
   -0.7945    0.1734    1.8856 H   0  0  0  0  0  0  0  0  0  0  0  0
   -0.3146    2.0962    0.8083 H   0  0  0  0  0  0  0  0  0  0  0  0
   -0.5891    1.3537   -1.8123 H   0  0  0  0  0  0  0  0  0  0  0  0
    1.2663    1.2455   -1.3846 H   0  0  0  0  0  0  0  0  0  0  0  0
    1.8461    1.9714    0.1273 H   0  0  0  0  0  0  0  0  0  0  0  0
    2.8917   -0.3061   -0.1613 H   0  0  0  0  0  0  0  0  0  0  0  0
    0.4323   -0.8421   -1.5556 H   0  0  0  0  0  0  0  0  0  0  0  0
    1.4931   -2.1822   -0.7866 H   0  0  0  0  0  0  0  0  0  0  0  0
   -0.1369   -2.1605    0.9551 H   0  0  0  0  0  0  0  0  0  0  0  0
  1  2  1  0
  2  3  1  0
  3  4  1  0
  3  5  1  0
  5  6  1  0
  6  7  1  0
  7  8  1  0
  8  9  1  0
  8  2  1  0
  9  6  1  0
  1 10  1  0
  1 11  1  0
  1 12  1  0
  2 13  1  0
  3 14  1  0
  4 15  1  0
  5 16  1  0
  5 17  1  0
  6 18  1  0
  7 19  1  0
  7 20  1  0
  8 21  1  0
M  END
