
     RDKit          3D

 21 22  0  0  0  0  0  0  0  0999 V2000
   -2.6648    0.7883    0.0851 C   0  0  0  0  0  0  0  0  0  0  0  0
   -1.3806    0.1897   -0.4293 C   0  0  0  0  0  0  0  0  0  0  0  0
   -1.3073   -1.2378    0.0756 C   0  0  0  0  0  0  0  0  0  0  0  0
   -0.0697   -1.7301   -0.3535 O   0  0  0  0  0  0  0  0  0  0  0  0
    0.8693   -1.0960    0.5033 C   0  0  0  0  0  0  0  0  0  0  0  0
    1.8417   -0.2286   -0.1218 C   0  0  0  0  0  0  0  0  0  0  0  0
    2.7664    0.8582   -0.0768 C   0  0  0  0  0  0  0  0  0  0  0  0
    0.6948    0.2219    0.6021 C   0  0  0  0  0  0  0  0  0  0  0  0
   -0.2686    0.9256   -0.1677 O   0  0  0  0  0  0  0  0  0  0  0  0
   -2.7263    0.7988    1.1816 H   0  0  0  0  0  0  0  0  0  0  0  0
   -3.4892    0.1349   -0.2779 H   0  0  0  0  0  0  0  0  0  0  0  0
   -2.8410    1.7910   -0.3768 H   0  0  0  0  0  0  0  0  0  0  0  0
   -1.4915    0.1126   -1.5412 H   0  0  0  0  0  0  0  0  0  0  0  0
   -2.1562   -1.8085   -0.3379 H   0  0  0  0  0  0  0  0  0  0  0  0
   -1.3204   -1.2051    1.1940 H   0  0  0  0  0  0  0  0  0  0  0  0
    1.0441   -1.7453    1.3957 H   0  0  0  0  0  0  0  0  0  0  0  0
    2.3919   -1.0503   -0.5814 H   0  0  0  0  0  0  0  0  0  0  0  0
    3.0895    1.1163   -1.1365 H   0  0  0  0  0  0  0  0  0  0  0  0
    3.7424    0.5850    0.4330 H   0  0  0  0  0  0  0  0  0  0  0  0
    2.5350    1.8524    0.3326 H   0  0  0  0  0  0  0  0  0  0  0  0
    0.7405    0.7269    1.6185 H   0  0  0  0  0  0  0  0  0  0  0  0
  1  2  1  0
  2  3  1  0
  3  4  1  0
  4  5  1  0
  5  6  1  0
  6  7  1  0
  6  8  1  0
  8  9  1  0
  9  2  1  0
  8  5  1  0
  1 10  1  0
  1 11  1  0
  1 12  1  0
  2 13  1  0
  3 14  1  0
  3 15  1  0
  5 16  1  0
  6 17  1  0
  7 18  1  0
  7 19  1  0
  7 20  1  0
  8 21  1  0
M  END
