
     RDKit          3D

 19 19  0  0  0  0  0  0  0  0999 V2000
    1.4611    1.2485    0.0356 C   0  0  0  0  0  0  0  0  0  0  0  0
    0.5570    0.1776    0.5260 C   0  0  0  0  0  0  0  0  0  0  0  0
    1.1562   -1.2046    0.2294 C   0  0  0  0  0  0  0  0  0  0  0  0
    0.0142   -1.9989    0.4764 O   0  0  0  0  0  0  0  0  0  0  0  0
   -0.8906   -1.4321   -0.4196 C   0  0  0  0  0  0  0  0  0  0  0  0
   -0.7440    0.0797   -0.2304 C   0  0  0  0  0  0  0  0  0  0  0  0
   -0.7233    0.7290   -1.4366 O   0  0  0  0  0  0  0  0  0  0  0  0
   -1.8985    0.5265    0.5879 C   0  0  0  0  0  0  0  0  0  0  0  0
   -2.6429    1.3654    0.1168 O   0  0  0  0  0  0  0  0  0  0  0  0
    2.0755    1.6032    0.9138 H   0  0  0  0  0  0  0  0  0  0  0  0
    0.9629    2.1391   -0.3647 H   0  0  0  0  0  0  0  0  0  0  0  0
    2.2253    0.8482   -0.6846 H   0  0  0  0  0  0  0  0  0  0  0  0
    0.4041    0.2011    1.6308 H   0  0  0  0  0  0  0  0  0  0  0  0
    1.3952   -1.2533   -0.8512 H   0  0  0  0  0  0  0  0  0  0  0  0
    1.9869   -1.4403    0.8888 H   0  0  0  0  0  0  0  0  0  0  0  0
   -1.9174   -1.7660   -0.2738 H   0  0  0  0  0  0  0  0  0  0  0  0
   -0.4931   -1.6715   -1.4445 H   0  0  0  0  0  0  0  0  0  0  0  0
   -0.8194    1.6999   -1.2704 H   0  0  0  0  0  0  0  0  0  0  0  0
   -2.1090    0.1484    1.5704 H   0  0  0  0  0  0  0  0  0  0  0  0
  1  2  1  0
  2  3  1  0
  3  4  1  0
  4  5  1  0
  5  6  1  0
  6  7  1  0
  6  8  1  0
  8  9  2  0
  6  2  1  0
  1 10  1  0
  1 11  1  0
  1 12  1  0
  2 13  1  0
  3 14  1  0
  3 15  1  0
  5 16  1  0
  5 17  1  0
  7 18  1  0
  8 19  1  0
M  END
