
     RDKit          3D

 23 23  0  0  0  0  0  0  0  0999 V2000
   -0.9539   -1.4517    1.0498 C   0  0  0  0  0  0  0  0  0  0  0  0
   -0.9219   -0.6675   -0.2191 C   0  0  0  0  0  0  0  0  0  0  0  0
   -2.1301    0.2542   -0.2629 C   0  0  0  0  0  0  0  0  0  0  0  0
   -1.1697    1.3814    0.1021 C   0  0  0  0  0  0  0  0  0  0  0  0
   -0.0615    0.4752   -0.4056 C   0  0  0  0  0  0  0  0  0  0  0  0
    0.0794    0.7504   -1.7908 O   0  0  0  0  0  0  0  0  0  0  0  0
    1.2131    0.6852    0.2866 C   0  0  0  0  0  0  0  0  0  0  0  0
    2.2892   -0.3175    0.1093 C   0  0  0  0  0  0  0  0  0  0  0  0
    2.6901   -0.4658   -1.2183 O   0  0  0  0  0  0  0  0  0  0  0  0
   -0.9753   -0.8254    1.9593 H   0  0  0  0  0  0  0  0  0  0  0  0
   -1.9405   -1.9895    1.0505 H   0  0  0  0  0  0  0  0  0  0  0  0
   -0.2016   -2.2634    1.0992 H   0  0  0  0  0  0  0  0  0  0  0  0
   -0.9859   -1.3622   -1.0931 H   0  0  0  0  0  0  0  0  0  0  0  0
   -2.5759    0.3720   -1.2693 H   0  0  0  0  0  0  0  0  0  0  0  0
   -2.8673    0.1121    0.5337 H   0  0  0  0  0  0  0  0  0  0  0  0
   -1.0600    1.4976    1.1993 H   0  0  0  0  0  0  0  0  0  0  0  0
   -1.3341    2.2988   -0.4687 H   0  0  0  0  0  0  0  0  0  0  0  0
    0.0505    1.7118   -1.9735 H   0  0  0  0  0  0  0  0  0  0  0  0
    1.6414    1.6725    0.0063 H   0  0  0  0  0  0  0  0  0  0  0  0
    1.0131    0.7659    1.3914 H   0  0  0  0  0  0  0  0  0  0  0  0
    2.1113   -1.2864    0.6111 H   0  0  0  0  0  0  0  0  0  0  0  0
    3.1978    0.0996    0.6319 H   0  0  0  0  0  0  0  0  0  0  0  0
    2.8918   -1.4475   -1.3292 H   0  0  0  0  0  0  0  0  0  0  0  0
  1  2  1  0
  2  3  1  0
  3  4  1  0
  4  5  1  0
  5  6  1  0
  5  7  1  0
  7  8  1  0
  8  9  1  0
  5  2  1  0
  1 10  1  0
  1 11  1  0
  1 12  1  0
  2 13  1  0
  3 14  1  0
  3 15  1  0
  4 16  1  0
  4 17  1  0
  6 18  1  0
  7 19  1  0
  7 20  1  0
  8 21  1  0
  8 22  1  0
  9 23  1  0
M  END
