
     RDKit          3D

 19 19  0  0  0  0  0  0  0  0999 V2000
   -2.4416   -0.0312    0.2607 C   0  0  0  0  0  0  0  0  0  0  0  0
   -0.9758    0.0624   -0.1612 C   0  0  0  0  0  0  0  0  0  0  0  0
   -0.4850   -1.2111   -0.7181 C   0  0  0  0  0  0  0  0  0  0  0  0
    0.8666   -1.4417   -0.6936 O   0  0  0  0  0  0  0  0  0  0  0  0
    1.9935   -0.7949   -0.2286 C   0  0  0  0  0  0  0  0  0  0  0  0
    3.1005   -1.3397   -0.4715 O   0  0  0  0  0  0  0  0  0  0  0  0
    2.0245    0.4659    0.5210 C   0  0  0  0  0  0  0  0  0  0  0  0
    0.8028    1.3066    0.3754 C   0  0  0  0  0  0  0  0  0  0  0  0
   -0.2762    0.5694    0.9020 O   0  0  0  0  0  0  0  0  0  0  0  0
   -3.1129    0.4711   -0.4522 H   0  0  0  0  0  0  0  0  0  0  0  0
   -2.7688   -1.0828    0.3397 H   0  0  0  0  0  0  0  0  0  0  0  0
   -2.6144    0.4358    1.2486 H   0  0  0  0  0  0  0  0  0  0  0  0
   -0.9518    0.8370   -0.9803 H   0  0  0  0  0  0  0  0  0  0  0  0
   -1.0074   -2.0523   -0.1747 H   0  0  0  0  0  0  0  0  0  0  0  0
   -0.8328   -1.2783   -1.7906 H   0  0  0  0  0  0  0  0  0  0  0  0
    2.9439    1.0512    0.2254 H   0  0  0  0  0  0  0  0  0  0  0  0
    2.1585    0.2256    1.5968 H   0  0  0  0  0  0  0  0  0  0  0  0
    0.6164    1.5525   -0.7031 H   0  0  0  0  0  0  0  0  0  0  0  0
    0.9599    2.2545    0.9043 H   0  0  0  0  0  0  0  0  0  0  0  0
  1  2  1  0
  2  3  1  0
  3  4  1  0
  4  5  1  0
  5  6  2  0
  5  7  1  0
  7  8  1  0
  8  9  1  0
  9  2  1  0
  1 10  1  0
  1 11  1  0
  1 12  1  0
  2 13  1  0
  3 14  1  0
  3 15  1  0
  7 16  1  0
  7 17  1  0
  8 18  1  0
  8 19  1  0
M  END
