
     RDKit          3D

 25 25  0  0  0  0  0  0  0  0999 V2000
    2.9427    0.1875    0.0289 C   0  0  0  0  0  0  0  0  0  0  0  0
    1.6404    0.4287    0.7208 C   0  0  0  0  0  0  0  0  0  0  0  0
    0.7059    1.4129    0.0219 C   0  0  0  0  0  0  0  0  0  0  0  0
   -0.4200    0.5376    0.5366 C   0  0  0  0  0  0  0  0  0  0  0  0
   -1.6164    0.4442   -0.3549 C   0  0  0  0  0  0  0  0  0  0  0  0
   -2.6280   -0.4614    0.3124 C   0  0  0  0  0  0  0  0  0  0  0  0
   -3.7878   -0.6102   -0.4515 O   0  0  0  0  0  0  0  0  0  0  0  0
    0.5590   -0.6134    0.4545 C   0  0  0  0  0  0  0  0  0  0  0  0
    0.6628   -1.2609   -0.9013 C   0  0  0  0  0  0  0  0  0  0  0  0
    2.8299   -0.0231   -1.0506 H   0  0  0  0  0  0  0  0  0  0  0  0
    3.5858    1.0520    0.1744 H   0  0  0  0  0  0  0  0  0  0  0  0
    3.4189   -0.6923    0.4909 H   0  0  0  0  0  0  0  0  0  0  0  0
    1.7728    0.6760    1.7732 H   0  0  0  0  0  0  0  0  0  0  0  0
    0.6906    2.4221    0.4735 H   0  0  0  0  0  0  0  0  0  0  0  0
    0.7478    1.3810   -1.0786 H   0  0  0  0  0  0  0  0  0  0  0  0
   -0.7011    0.7089    1.5928 H   0  0  0  0  0  0  0  0  0  0  0  0
   -1.3961    0.0905   -1.3611 H   0  0  0  0  0  0  0  0  0  0  0  0
   -2.0611    1.4596   -0.4385 H   0  0  0  0  0  0  0  0  0  0  0  0
   -2.9319   -0.1000    1.2970 H   0  0  0  0  0  0  0  0  0  0  0  0
   -2.1851   -1.4575    0.4281 H   0  0  0  0  0  0  0  0  0  0  0  0
   -4.4247    0.1134   -0.2309 H   0  0  0  0  0  0  0  0  0  0  0  0
    0.5396   -1.3324    1.2716 H   0  0  0  0  0  0  0  0  0  0  0  0
   -0.3109   -1.7145   -1.1781 H   0  0  0  0  0  0  0  0  0  0  0  0
    1.3932   -2.0736   -0.8363 H   0  0  0  0  0  0  0  0  0  0  0  0
    0.9737   -0.5751   -1.6948 H   0  0  0  0  0  0  0  0  0  0  0  0
  1  2  1  0
  2  3  1  0
  3  4  1  0
  4  5  1  0
  5  6  1  0
  6  7  1  0
  4  8  1  0
  8  9  1  0
  8  2  1  0
  1 10  1  0
  1 11  1  0
  1 12  1  0
  2 13  1  0
  3 14  1  0
  3 15  1  0
  4 16  1  0
  5 17  1  0
  5 18  1  0
  6 19  1  0
  6 20  1  0
  7 21  1  0
  8 22  1  0
  9 23  1  0
  9 24  1  0
  9 25  1  0
M  END
