
     RDKit          3D

 21 22  0  0  0  0  0  0  0  0999 V2000
   -2.5857   -0.3178    0.2713 C   0  0  0  0  0  0  0  0  0  0  0  0
   -1.1812   -0.9207    0.1097 C   0  0  0  0  0  0  0  0  0  0  0  0
   -0.6321   -0.4639   -1.2435 C   0  0  0  0  0  0  0  0  0  0  0  0
    0.0204    0.6253   -0.4510 C   0  0  0  0  0  0  0  0  0  0  0  0
   -0.1102   -0.1646    0.8593 C   0  0  0  0  0  0  0  0  0  0  0  0
    1.1971    0.0996    0.3516 C   0  0  0  0  0  0  0  0  0  0  0  0
    2.0199    1.3316    0.7971 C   0  0  0  0  0  0  0  0  0  0  0  0
    1.9984   -0.8423   -0.4799 C   0  0  0  0  0  0  0  0  0  0  0  0
    2.3024   -2.0066   -0.1107 O   0  0  0  0  0  0  0  0  0  0  0  0
   -3.3728   -1.0933    0.2525 H   0  0  0  0  0  0  0  0  0  0  0  0
   -2.6377    0.3416    1.1716 H   0  0  0  0  0  0  0  0  0  0  0  0
   -2.8241    0.3684   -0.6021 H   0  0  0  0  0  0  0  0  0  0  0  0
   -1.1437   -2.0180    0.2295 H   0  0  0  0  0  0  0  0  0  0  0  0
   -1.4141   -0.1055   -1.9413 H   0  0  0  0  0  0  0  0  0  0  0  0
    0.1004   -1.1626   -1.6538 H   0  0  0  0  0  0  0  0  0  0  0  0
   -0.2760    1.6512   -0.4130 H   0  0  0  0  0  0  0  0  0  0  0  0
   -0.4958    0.3549    1.7555 H   0  0  0  0  0  0  0  0  0  0  0  0
    2.8158    1.0293    1.5040 H   0  0  0  0  0  0  0  0  0  0  0  0
    1.3705    2.1195    1.1803 H   0  0  0  0  0  0  0  0  0  0  0  0
    2.5039    1.7216   -0.1241 H   0  0  0  0  0  0  0  0  0  0  0  0
    2.3446   -0.5475   -1.4629 H   0  0  0  0  0  0  0  0  0  0  0  0
  1  2  1  0
  2  3  1  0
  3  4  1  0
  4  5  1  0
  5  6  1  0
  6  7  1  0
  6  8  1  0
  8  9  2  0
  5  2  1  0
  6  4  1  0
  1 10  1  0
  1 11  1  0
  1 12  1  0
  2 13  1  0
  3 14  1  0
  3 15  1  0
  4 16  1  0
  5 17  1  0
  7 18  1  0
  7 19  1  0
  7 20  1  0
  8 21  1  0
M  END
