
     RDKit          3D

 23 24  0  0  0  0  0  0  0  0999 V2000
    3.0867   -0.2141   -0.1857 C   0  0  0  0  0  0  0  0  0  0  0  0
    1.6900   -0.0032   -0.8017 C   0  0  0  0  0  0  0  0  0  0  0  0
    0.8198    0.8400   -0.0566 C   0  0  0  0  0  0  0  0  0  0  0  0
   -0.1394    0.5636    1.0521 C   0  0  0  0  0  0  0  0  0  0  0  0
   -0.8725   -0.2039   -0.0333 C   0  0  0  0  0  0  0  0  0  0  0  0
   -1.7244   -1.2810    0.6591 C   0  0  0  0  0  0  0  0  0  0  0  0
   -1.6714    0.5256   -1.0152 C   0  0  0  0  0  0  0  0  0  0  0  0
   -2.6888    1.2606   -0.3628 O   0  0  0  0  0  0  0  0  0  0  0  0
    0.5106   -0.6617   -0.3581 C   0  0  0  0  0  0  0  0  0  0  0  0
    3.8473    0.3390   -0.7370 H   0  0  0  0  0  0  0  0  0  0  0  0
    3.1100    0.1309    0.8651 H   0  0  0  0  0  0  0  0  0  0  0  0
    3.3017   -1.3114   -0.1450 H   0  0  0  0  0  0  0  0  0  0  0  0
    1.8122    0.0671   -1.9264 H   0  0  0  0  0  0  0  0  0  0  0  0
    0.3557    1.6143   -0.7023 H   0  0  0  0  0  0  0  0  0  0  0  0
    0.3144   -0.1295    1.7888 H   0  0  0  0  0  0  0  0  0  0  0  0
   -0.6465    1.4347    1.4591 H   0  0  0  0  0  0  0  0  0  0  0  0
   -2.7628   -0.9204    0.7430 H   0  0  0  0  0  0  0  0  0  0  0  0
   -1.3385   -1.5165    1.6624 H   0  0  0  0  0  0  0  0  0  0  0  0
   -1.7294   -2.2152    0.0380 H   0  0  0  0  0  0  0  0  0  0  0  0
   -2.2872   -0.2415   -1.5943 H   0  0  0  0  0  0  0  0  0  0  0  0
   -1.1748    1.0786   -1.8152 H   0  0  0  0  0  0  0  0  0  0  0  0
   -2.6169    2.2310   -0.5666 H   0  0  0  0  0  0  0  0  0  0  0  0
    0.8042   -1.3870    0.4762 H   0  0  0  0  0  0  0  0  0  0  0  0
  1  2  1  0
  2  3  1  0
  3  4  1  0
  4  5  1  0
  5  6  1  0
  5  7  1  0
  7  8  1  0
  5  9  1  0
  9  2  1  0
  9  3  1  0
  1 10  1  0
  1 11  1  0
  1 12  1  0
  2 13  1  0
  3 14  1  0
  4 15  1  0
  4 16  1  0
  6 17  1  0
  6 18  1  0
  6 19  1  0
  7 20  1  0
  7 21  1  0
  8 22  1  0
  9 23  1  0
M  END
