
     RDKit          3D

 23 24  0  0  0  0  0  0  0  0999 V2000
   -2.2810    0.6518    0.0662 C   0  0  0  0  0  0  0  0  0  0  0  0
   -0.8222    0.3257    0.3068 C   0  0  0  0  0  0  0  0  0  0  0  0
    0.0102    0.9824   -0.7431 C   0  0  0  0  0  0  0  0  0  0  0  0
    1.2493    1.5379   -0.0470 C   0  0  0  0  0  0  0  0  0  0  0  0
    2.0551    0.3253    0.4095 C   0  0  0  0  0  0  0  0  0  0  0  0
    1.7288   -0.8088   -0.2616 O   0  0  0  0  0  0  0  0  0  0  0  0
    0.7810   -1.6085    0.2607 C   0  0  0  0  0  0  0  0  0  0  0  0
   -0.3207   -2.0011   -0.7490 C   0  0  0  0  0  0  0  0  0  0  0  0
   -0.5728   -1.1494    0.4171 C   0  0  0  0  0  0  0  0  0  0  0  0
   -2.3700    1.7661    0.2310 H   0  0  0  0  0  0  0  0  0  0  0  0
   -2.6396    0.3659   -0.9230 H   0  0  0  0  0  0  0  0  0  0  0  0
   -2.8618    0.2029    0.9082 H   0  0  0  0  0  0  0  0  0  0  0  0
   -0.5872    0.7608    1.3238 H   0  0  0  0  0  0  0  0  0  0  0  0
   -0.5480    1.8952   -1.1078 H   0  0  0  0  0  0  0  0  0  0  0  0
    0.2467    0.3652   -1.6076 H   0  0  0  0  0  0  0  0  0  0  0  0
    0.8635    2.1084    0.8333 H   0  0  0  0  0  0  0  0  0  0  0  0
    1.8191    2.2229   -0.6682 H   0  0  0  0  0  0  0  0  0  0  0  0
    2.0455    0.2441    1.5152 H   0  0  0  0  0  0  0  0  0  0  0  0
    3.1258    0.5762    0.1486 H   0  0  0  0  0  0  0  0  0  0  0  0
    1.1535   -2.4450    0.9217 H   0  0  0  0  0  0  0  0  0  0  0  0
   -0.2713   -1.6082   -1.7581 H   0  0  0  0  0  0  0  0  0  0  0  0
   -0.6155   -3.0796   -0.7065 H   0  0  0  0  0  0  0  0  0  0  0  0
   -1.1883   -1.6302    1.2300 H   0  0  0  0  0  0  0  0  0  0  0  0
  1  2  1  0
  2  3  1  0
  3  4  1  0
  4  5  1  0
  5  6  1  0
  6  7  1  0
  7  8  1  0
  8  9  1  0
  9  2  1  0
  9  7  1  0
  1 10  1  0
  1 11  1  0
  1 12  1  0
  2 13  1  0
  3 14  1  0
  3 15  1  0
  4 16  1  0
  4 17  1  0
  5 18  1  0
  5 19  1  0
  7 20  1  0
  8 21  1  0
  8 22  1  0
  9 23  1  0
M  END
