
     RDKit          3D

 19 20  0  0  0  0  0  0  0  0999 V2000
   -2.2317    0.6633    0.5920 C   0  0  0  0  0  0  0  0  0  0  0  0
   -1.3166    0.0693   -0.4793 C   0  0  0  0  0  0  0  0  0  0  0  0
   -0.8398   -1.3879   -0.2178 C   0  0  0  0  0  0  0  0  0  0  0  0
    0.0251   -0.2585   -0.0092 C   0  0  0  0  0  0  0  0  0  0  0  0
    0.4796    0.2085    1.1943 O   0  0  0  0  0  0  0  0  0  0  0  0
    1.2520    1.1370    0.4549 C   0  0  0  0  0  0  0  0  0  0  0  0
    1.2913    0.0699   -0.6479 C   0  0  0  0  0  0  0  0  0  0  0  0
    2.4105   -0.8628   -0.3594 C   0  0  0  0  0  0  0  0  0  0  0  0
    3.5450   -0.5099   -0.5857 O   0  0  0  0  0  0  0  0  0  0  0  0
   -2.9153    1.3781    0.1159 H   0  0  0  0  0  0  0  0  0  0  0  0
   -2.8214   -0.1451    1.0885 H   0  0  0  0  0  0  0  0  0  0  0  0
   -1.6323    1.1337    1.4054 H   0  0  0  0  0  0  0  0  0  0  0  0
   -1.4820    0.3616   -1.5230 H   0  0  0  0  0  0  0  0  0  0  0  0
   -1.2907   -1.8871    0.6725 H   0  0  0  0  0  0  0  0  0  0  0  0
   -0.7801   -1.9928   -1.1394 H   0  0  0  0  0  0  0  0  0  0  0  0
    0.6120    1.9717    0.1600 H   0  0  0  0  0  0  0  0  0  0  0  0
    2.2280    1.3666    0.8874 H   0  0  0  0  0  0  0  0  0  0  0  0
    1.2966    0.5176   -1.6555 H   0  0  0  0  0  0  0  0  0  0  0  0
    2.1696   -1.8331    0.0463 H   0  0  0  0  0  0  0  0  0  0  0  0
  1  2  1  0
  2  3  1  0
  3  4  1  0
  4  5  1  0
  5  6  1  0
  6  7  1  0
  7  8  1  0
  8  9  2  0
  4  2  1  0
  7  4  1  0
  1 10  1  0
  1 11  1  0
  1 12  1  0
  2 13  1  0
  3 14  1  0
  3 15  1  0
  6 16  1  0
  6 17  1  0
  7 18  1  0
  8 19  1  0
M  END
