
     RDKit          3D

 23 24  0  0  0  0  0  0  0  0999 V2000
   -1.2466    1.9563    0.0781 C   0  0  0  0  0  0  0  0  0  0  0  0
   -0.7829    0.6073    0.5693 C   0  0  0  0  0  0  0  0  0  0  0  0
   -0.9471   -0.5900   -0.3953 C   0  0  0  0  0  0  0  0  0  0  0  0
   -1.4522   -1.8601    0.2895 C   0  0  0  0  0  0  0  0  0  0  0  0
   -1.6211   -0.2841   -1.5478 O   0  0  0  0  0  0  0  0  0  0  0  0
    0.3365   -0.0984   -0.0064 C   0  0  0  0  0  0  0  0  0  0  0  0
    1.3814   -0.8316    0.7529 C   0  0  0  0  0  0  0  0  0  0  0  0
    2.3379    0.2966    0.3321 C   0  0  0  0  0  0  0  0  0  0  0  0
    1.3935    0.4813   -0.8670 C   0  0  0  0  0  0  0  0  0  0  0  0
   -0.4151    2.6769   -0.0443 H   0  0  0  0  0  0  0  0  0  0  0  0
   -1.9811    2.4044    0.7651 H   0  0  0  0  0  0  0  0  0  0  0  0
   -1.7042    1.8156   -0.9330 H   0  0  0  0  0  0  0  0  0  0  0  0
   -1.0175    0.4229    1.6410 H   0  0  0  0  0  0  0  0  0  0  0  0
   -0.8790   -2.0586    1.2056 H   0  0  0  0  0  0  0  0  0  0  0  0
   -2.5184   -1.7477    0.5767 H   0  0  0  0  0  0  0  0  0  0  0  0
   -1.3694   -2.7093   -0.3967 H   0  0  0  0  0  0  0  0  0  0  0  0
   -1.0928   -0.2461   -2.3613 H   0  0  0  0  0  0  0  0  0  0  0  0
    1.1921   -0.8833    1.8234 H   0  0  0  0  0  0  0  0  0  0  0  0
    1.7364   -1.7744    0.2799 H   0  0  0  0  0  0  0  0  0  0  0  0
    2.2226    1.1186    1.0683 H   0  0  0  0  0  0  0  0  0  0  0  0
    3.3441   -0.0221    0.0820 H   0  0  0  0  0  0  0  0  0  0  0  0
    1.2947    1.5004   -1.2234 H   0  0  0  0  0  0  0  0  0  0  0  0
    1.7883   -0.1747   -1.6887 H   0  0  0  0  0  0  0  0  0  0  0  0
  1  2  1  0
  2  3  1  0
  3  4  1  0
  3  5  1  0
  3  6  1  0
  6  7  1  0
  7  8  1  0
  8  9  1  0
  6  2  1  0
  9  6  1  0
  1 10  1  0
  1 11  1  0
  1 12  1  0
  2 13  1  0
  4 14  1  0
  4 15  1  0
  4 16  1  0
  5 17  1  0
  7 18  1  0
  7 19  1  0
  8 20  1  0
  8 21  1  0
  9 22  1  0
  9 23  1  0
M  END
