
     RDKit          3D

 23 24  0  0  0  0  0  0  0  0999 V2000
   -0.9403    1.9229    0.0830 C   0  0  0  0  0  0  0  0  0  0  0  0
   -0.1452    0.7606    0.5271 C   0  0  0  0  0  0  0  0  0  0  0  0
    0.7616    0.1940   -0.5797 C   0  0  0  0  0  0  0  0  0  0  0  0
    2.1709    0.0331   -0.1068 C   0  0  0  0  0  0  0  0  0  0  0  0
    2.3082   -0.8160    0.9661 O   0  0  0  0  0  0  0  0  0  0  0  0
    0.1272   -1.1509   -0.9544 C   0  0  0  0  0  0  0  0  0  0  0  0
   -1.2769   -0.8111   -0.6132 C   0  0  0  0  0  0  0  0  0  0  0  0
   -2.1176   -1.0283    0.4826 C   0  0  0  0  0  0  0  0  0  0  0  0
   -0.9022   -0.4573    0.8865 C   0  0  0  0  0  0  0  0  0  0  0  0
   -0.9464    2.6931    0.8832 H   0  0  0  0  0  0  0  0  0  0  0  0
   -2.0269    1.6987   -0.1048 H   0  0  0  0  0  0  0  0  0  0  0  0
   -0.4900    2.4446   -0.8106 H   0  0  0  0  0  0  0  0  0  0  0  0
    0.5432    1.0716    1.3397 H   0  0  0  0  0  0  0  0  0  0  0  0
    0.7047    0.8389   -1.4513 H   0  0  0  0  0  0  0  0  0  0  0  0
    2.7896   -0.3708   -0.9337 H   0  0  0  0  0  0  0  0  0  0  0  0
    2.6157    1.0027    0.1700 H   0  0  0  0  0  0  0  0  0  0  0  0
    3.2628   -1.0945    1.0068 H   0  0  0  0  0  0  0  0  0  0  0  0
    0.2555   -1.3814   -2.0189 H   0  0  0  0  0  0  0  0  0  0  0  0
    0.4708   -1.9532   -0.2747 H   0  0  0  0  0  0  0  0  0  0  0  0
   -1.5574    0.0840   -1.2571 H   0  0  0  0  0  0  0  0  0  0  0  0
   -2.3692   -2.0859    0.7694 H   0  0  0  0  0  0  0  0  0  0  0  0
   -3.0561   -0.4112    0.6079 H   0  0  0  0  0  0  0  0  0  0  0  0
   -0.1818   -1.1835    1.3828 H   0  0  0  0  0  0  0  0  0  0  0  0
  1  2  1  0
  2  3  1  0
  3  4  1  0
  4  5  1  0
  3  6  1  0
  6  7  1  0
  7  8  1  0
  8  9  1  0
  9  2  1  0
  9  7  1  0
  1 10  1  0
  1 11  1  0
  1 12  1  0
  2 13  1  0
  3 14  1  0
  4 15  1  0
  4 16  1  0
  5 17  1  0
  6 18  1  0
  6 19  1  0
  7 20  1  0
  8 21  1  0
  8 22  1  0
  9 23  1  0
M  END
