
     RDKit          3D

 22 22  0  0  0  0  0  0  0  0999 V2000
   -1.8782   -0.7702    0.7241 C   0  0  0  0  0  0  0  0  0  0  0  0
   -1.3720   -0.0852   -0.5423 C   0  0  0  0  0  0  0  0  0  0  0  0
   -1.2921    1.3709   -0.3970 C   0  0  0  0  0  0  0  0  0  0  0  0
   -0.2139    1.9642    0.1050 C   0  0  0  0  0  0  0  0  0  0  0  0
    0.9285    1.0988    0.5226 C   0  0  0  0  0  0  0  0  0  0  0  0
    1.1417   -0.0261   -0.4244 C   0  0  0  0  0  0  0  0  0  0  0  0
    2.0505   -1.0451    0.2666 C   0  0  0  0  0  0  0  0  0  0  0  0
   -0.0718   -0.6901   -0.9443 C   0  0  0  0  0  0  0  0  0  0  0  0
   -1.1479   -0.7067    1.5484 H   0  0  0  0  0  0  0  0  0  0  0  0
   -2.8655   -0.4286    1.0292 H   0  0  0  0  0  0  0  0  0  0  0  0
   -1.9483   -1.8589    0.4662 H   0  0  0  0  0  0  0  0  0  0  0  0
   -2.1279   -0.3612   -1.3253 H   0  0  0  0  0  0  0  0  0  0  0  0
   -2.1166    2.0068   -0.6975 H   0  0  0  0  0  0  0  0  0  0  0  0
   -0.1317    3.0394    0.2222 H   0  0  0  0  0  0  0  0  0  0  0  0
    1.8738    1.7173    0.5252 H   0  0  0  0  0  0  0  0  0  0  0  0
    0.8251    0.7730    1.5872 H   0  0  0  0  0  0  0  0  0  0  0  0
    1.7358    0.3716   -1.2984 H   0  0  0  0  0  0  0  0  0  0  0  0
    2.6545   -1.5389   -0.4969 H   0  0  0  0  0  0  0  0  0  0  0  0
    1.3934   -1.7787    0.8184 H   0  0  0  0  0  0  0  0  0  0  0  0
    2.6981   -0.5064    0.9815 H   0  0  0  0  0  0  0  0  0  0  0  0
   -0.0448   -0.7802   -2.0704 H   0  0  0  0  0  0  0  0  0  0  0  0
   -0.0905   -1.7657   -0.5998 H   0  0  0  0  0  0  0  0  0  0  0  0
  1  2  1  0
  2  3  1  0
  3  4  2  0
  4  5  1  0
  5  6  1  0
  6  7  1  0
  6  8  1  0
  8  2  1  0
  1  9  1  0
  1 10  1  0
  1 11  1  0
  2 12  1  0
  3 13  1  0
  4 14  1  0
  5 15  1  0
  5 16  1  0
  6 17  1  0
  7 18  1  0
  7 19  1  0
  7 20  1  0
  8 21  1  0
  8 22  1  0
M  END
