
     RDKit          3D

 21 23  0  0  0  0  0  0  0  0999 V2000
    0.1891    1.7630    0.7834 C   0  0  0  0  0  0  0  0  0  0  0  0
   -0.3646    0.8883   -0.2710 C   0  0  0  0  0  0  0  0  0  0  0  0
    0.5543   -0.1610   -0.8141 C   0  0  0  0  0  0  0  0  0  0  0  0
    1.9739   -0.0401   -0.4989 C   0  0  0  0  0  0  0  0  0  0  0  0
   -0.1298   -1.4064   -0.3387 C   0  0  0  0  0  0  0  0  0  0  0  0
   -0.7085   -1.1103    1.0111 C   0  0  0  0  0  0  0  0  0  0  0  0
   -1.7793   -1.9095    0.6516 O   0  0  0  0  0  0  0  0  0  0  0  0
   -1.5958   -1.1690   -0.5077 C   0  0  0  0  0  0  0  0  0  0  0  0
   -1.4265    0.0195    0.3683 C   0  0  0  0  0  0  0  0  0  0  0  0
    0.7806    1.2775    1.5526 H   0  0  0  0  0  0  0  0  0  0  0  0
    0.7043    2.6326    0.3007 H   0  0  0  0  0  0  0  0  0  0  0  0
   -0.6949    2.2294    1.3147 H   0  0  0  0  0  0  0  0  0  0  0  0
   -0.8334    1.5196   -1.0542 H   0  0  0  0  0  0  0  0  0  0  0  0
    0.4299   -0.1378   -1.9369 H   0  0  0  0  0  0  0  0  0  0  0  0
    2.5432    0.4034   -1.3678 H   0  0  0  0  0  0  0  0  0  0  0  0
    2.2667    0.5165    0.3805 H   0  0  0  0  0  0  0  0  0  0  0  0
    2.4117   -1.0757   -0.4010 H   0  0  0  0  0  0  0  0  0  0  0  0
    0.2896   -2.3644   -0.5433 H   0  0  0  0  0  0  0  0  0  0  0  0
   -0.2166   -1.1157    1.8926 H   0  0  0  0  0  0  0  0  0  0  0  0
   -2.1312   -1.2435   -1.3596 H   0  0  0  0  0  0  0  0  0  0  0  0
   -2.2627    0.4835    0.8376 H   0  0  0  0  0  0  0  0  0  0  0  0
  1  2  1  0
  2  3  1  0
  3  4  1  0
  3  5  1  0
  5  6  1  0
  6  7  1  0
  7  8  1  0
  8  9  1  0
  9  2  1  0
  8  5  1  0
  9  6  1  0
  1 10  1  0
  1 11  1  0
  1 12  1  0
  2 13  1  0
  3 14  1  0
  4 15  1  0
  4 16  1  0
  4 17  1  0
  5 18  1  0
  6 19  1  0
  8 20  1  0
  9 21  1  0
M  END
