
     RDKit          3D

 23 24  0  0  0  0  0  0  0  0999 V2000
    2.3573   -0.0418   -0.3260 C   0  0  0  0  0  0  0  0  0  0  0  0
    0.8761   -0.2014   -0.4913 C   0  0  0  0  0  0  0  0  0  0  0  0
    0.2174   -1.0803    0.5800 C   0  0  0  0  0  0  0  0  0  0  0  0
   -1.1362   -1.4665    0.0273 C   0  0  0  0  0  0  0  0  0  0  0  0
   -1.6904   -0.4075   -0.8727 C   0  0  0  0  0  0  0  0  0  0  0  0
   -1.3415    0.9691   -0.3336 C   0  0  0  0  0  0  0  0  0  0  0  0
    0.0805    0.9485    0.1044 C   0  0  0  0  0  0  0  0  0  0  0  0
    0.7910    2.1092    0.0699 O   0  0  0  0  0  0  0  0  0  0  0  0
    0.1352    0.1779    1.4305 C   0  0  0  0  0  0  0  0  0  0  0  0
    2.8339   -0.8736   -0.9241 H   0  0  0  0  0  0  0  0  0  0  0  0
    2.7164   -0.1574    0.7041 H   0  0  0  0  0  0  0  0  0  0  0  0
    2.6997    0.9387   -0.7429 H   0  0  0  0  0  0  0  0  0  0  0  0
    0.6260   -0.4741   -1.5194 H   0  0  0  0  0  0  0  0  0  0  0  0
    0.8387   -1.8831    0.9675 H   0  0  0  0  0  0  0  0  0  0  0  0
   -0.9887   -2.3871   -0.5652 H   0  0  0  0  0  0  0  0  0  0  0  0
   -1.8241   -1.6100    0.8855 H   0  0  0  0  0  0  0  0  0  0  0  0
   -2.8073   -0.5133   -0.8827 H   0  0  0  0  0  0  0  0  0  0  0  0
   -1.3734   -0.4907   -1.9235 H   0  0  0  0  0  0  0  0  0  0  0  0
   -1.9932    1.1070    0.5724 H   0  0  0  0  0  0  0  0  0  0  0  0
   -1.6100    1.7731   -1.0244 H   0  0  0  0  0  0  0  0  0  0  0  0
    0.2895    2.9288    0.2647 H   0  0  0  0  0  0  0  0  0  0  0  0
    1.0762    0.3552    1.9626 H   0  0  0  0  0  0  0  0  0  0  0  0
   -0.7730    0.2792    2.0370 H   0  0  0  0  0  0  0  0  0  0  0  0
  1  2  1  0
  2  3  1  0
  3  4  1  0
  4  5  1  0
  5  6  1  0
  6  7  1  0
  7  8  1  0
  7  9  1  0
  7  2  1  0
  9  3  1  0
  1 10  1  0
  1 11  1  0
  1 12  1  0
  2 13  1  0
  3 14  1  0
  4 15  1  0
  4 16  1  0
  5 17  1  0
  5 18  1  0
  6 19  1  0
  6 20  1  0
  8 21  1  0
  9 22  1  0
  9 23  1  0
M  END
