
     RDKit          3D

 21 22  0  0  0  0  0  0  0  0999 V2000
    1.9014   -0.4873   -0.5915 C   0  0  0  0  0  0  0  0  0  0  0  0
    0.8689   -0.0412    0.3928 C   0  0  0  0  0  0  0  0  0  0  0  0
    0.6807    1.4882    0.3445 C   0  0  0  0  0  0  0  0  0  0  0  0
   -0.7771    1.5440    0.0214 C   0  0  0  0  0  0  0  0  0  0  0  0
   -1.3340    0.4618    0.9605 C   0  0  0  0  0  0  0  0  0  0  0  0
   -0.5320   -0.4473    0.0107 C   0  0  0  0  0  0  0  0  0  0  0  0
   -0.9017   -1.8319   -0.0918 C   0  0  0  0  0  0  0  0  0  0  0  0
   -0.9161    0.5261   -1.0404 C   0  0  0  0  0  0  0  0  0  0  0  0
   -1.2020    0.4724   -2.2100 O   0  0  0  0  0  0  0  0  0  0  0  0
    1.8391   -1.5814   -0.6847 H   0  0  0  0  0  0  0  0  0  0  0  0
    1.7287    0.0394   -1.5528 H   0  0  0  0  0  0  0  0  0  0  0  0
    2.8985   -0.2625   -0.1579 H   0  0  0  0  0  0  0  0  0  0  0  0
    1.1119   -0.2948    1.4412 H   0  0  0  0  0  0  0  0  0  0  0  0
    0.9559    1.9543    1.3020 H   0  0  0  0  0  0  0  0  0  0  0  0
    1.2841    1.8558   -0.5150 H   0  0  0  0  0  0  0  0  0  0  0  0
   -1.2974    2.4606   -0.0357 H   0  0  0  0  0  0  0  0  0  0  0  0
   -0.8884    0.5880    1.9482 H   0  0  0  0  0  0  0  0  0  0  0  0
   -2.4128    0.3235    0.8824 H   0  0  0  0  0  0  0  0  0  0  0  0
   -1.4820   -2.2612    0.7576 H   0  0  0  0  0  0  0  0  0  0  0  0
    0.0096   -2.4869   -0.1746 H   0  0  0  0  0  0  0  0  0  0  0  0
   -1.5353   -2.0195   -1.0069 H   0  0  0  0  0  0  0  0  0  0  0  0
  1  2  1  0
  2  3  1  0
  3  4  1  0
  4  5  1  0
  5  6  1  0
  6  7  1  0
  6  8  1  0
  8  9  2  0
  6  2  1  0
  8  4  1  0
  1 10  1  0
  1 11  1  0
  1 12  1  0
  2 13  1  0
  3 14  1  0
  3 15  1  0
  4 16  1  0
  5 17  1  0
  5 18  1  0
  7 19  1  0
  7 20  1  0
  7 21  1  0
M  END
