
     RDKit          3D

 19 19  0  0  0  0  0  0  0  0999 V2000
   -2.2710    0.6282   -0.1037 C   0  0  0  0  0  0  0  0  0  0  0  0
   -0.8480    0.1366   -0.2356 C   0  0  0  0  0  0  0  0  0  0  0  0
    0.0616    1.3037   -0.1406 C   0  0  0  0  0  0  0  0  0  0  0  0
    1.3947    1.2019   -0.1049 C   0  0  0  0  0  0  0  0  0  0  0  0
    2.2085   -0.0117   -0.1484 C   0  0  0  0  0  0  0  0  0  0  0  0
    3.4465    0.1145   -0.2997 O   0  0  0  0  0  0  0  0  0  0  0  0
    1.6230   -1.3901   -0.0199 C   0  0  0  0  0  0  0  0  0  0  0  0
    0.6938   -1.3269    0.9803 O   0  0  0  0  0  0  0  0  0  0  0  0
   -0.5727   -0.9787    0.6914 C   0  0  0  0  0  0  0  0  0  0  0  0
   -2.4047    1.3160    0.7563 H   0  0  0  0  0  0  0  0  0  0  0  0
   -2.5087    1.2493   -1.0153 H   0  0  0  0  0  0  0  0  0  0  0  0
   -2.9770   -0.2156   -0.1068 H   0  0  0  0  0  0  0  0  0  0  0  0
   -0.7704   -0.2698   -1.2874 H   0  0  0  0  0  0  0  0  0  0  0  0
   -0.3691    2.3027   -0.0969 H   0  0  0  0  0  0  0  0  0  0  0  0
    1.9433    2.1538   -0.0357 H   0  0  0  0  0  0  0  0  0  0  0  0
    2.4512   -2.0814    0.1687 H   0  0  0  0  0  0  0  0  0  0  0  0
    1.1550   -1.5839   -1.0304 H   0  0  0  0  0  0  0  0  0  0  0  0
   -1.1939   -1.8474    0.3516 H   0  0  0  0  0  0  0  0  0  0  0  0
   -1.0623   -0.7011    1.6769 H   0  0  0  0  0  0  0  0  0  0  0  0
  1  2  1  0
  2  3  1  0
  3  4  2  0
  4  5  1  0
  5  6  2  0
  5  7  1  0
  7  8  1  0
  8  9  1  0
  9  2  1  0
  1 10  1  0
  1 11  1  0
  1 12  1  0
  2 13  1  0
  3 14  1  0
  4 15  1  0
  7 16  1  0
  7 17  1  0
  9 18  1  0
  9 19  1  0
M  END
