
     RDKit          3D

 21 21  0  0  0  0  0  0  0  0999 V2000
    2.1594   -1.0469   -0.1219 C   0  0  0  0  0  0  0  0  0  0  0  0
    0.7960   -0.5357    0.3234 C   0  0  0  0  0  0  0  0  0  0  0  0
   -0.3017   -1.5266    0.0046 C   0  0  0  0  0  0  0  0  0  0  0  0
   -1.6064   -0.8247   -0.1857 C   0  0  0  0  0  0  0  0  0  0  0  0
   -2.5148   -1.4731   -0.6787 O   0  0  0  0  0  0  0  0  0  0  0  0
   -1.8593    0.5719    0.1771 C   0  0  0  0  0  0  0  0  0  0  0  0
   -0.6610    1.4706    0.0341 C   0  0  0  0  0  0  0  0  0  0  0  0
   -0.3244    2.0978    1.2498 O   0  0  0  0  0  0  0  0  0  0  0  0
    0.5269    0.7030   -0.5059 C   0  0  0  0  0  0  0  0  0  0  0  0
    2.4962   -1.9184    0.4403 H   0  0  0  0  0  0  0  0  0  0  0  0
    2.0604   -1.2320   -1.2232 H   0  0  0  0  0  0  0  0  0  0  0  0
    2.8502   -0.1604   -0.0215 H   0  0  0  0  0  0  0  0  0  0  0  0
    0.7537   -0.3471    1.4079 H   0  0  0  0  0  0  0  0  0  0  0  0
   -0.4313   -2.2321    0.8542 H   0  0  0  0  0  0  0  0  0  0  0  0
   -0.0608   -2.0635   -0.9341 H   0  0  0  0  0  0  0  0  0  0  0  0
   -2.6516    0.9849   -0.4900 H   0  0  0  0  0  0  0  0  0  0  0  0
   -2.2787    0.6465    1.2156 H   0  0  0  0  0  0  0  0  0  0  0  0
   -0.8413    2.3167   -0.6816 H   0  0  0  0  0  0  0  0  0  0  0  0
    0.2534    2.8726    1.0285 H   0  0  0  0  0  0  0  0  0  0  0  0
    1.4090    1.3595   -0.5279 H   0  0  0  0  0  0  0  0  0  0  0  0
    0.2259    0.3368   -1.5194 H   0  0  0  0  0  0  0  0  0  0  0  0
  1  2  1  0
  2  3  1  0
  3  4  1  0
  4  5  2  0
  4  6  1  0
  6  7  1  0
  7  8  1  0
  7  9  1  0
  9  2  1  0
  1 10  1  0
  1 11  1  0
  1 12  1  0
  2 13  1  0
  3 14  1  0
  3 15  1  0
  6 16  1  0
  6 17  1  0
  7 18  1  0
  8 19  1  0
  9 20  1  0
  9 21  1  0
M  END
