
     RDKit          3D

 23 24  0  0  0  0  0  0  0  0999 V2000
    2.1501    0.0969   -0.2591 C   0  0  0  0  0  0  0  0  0  0  0  0
    0.8186   -0.5438   -0.3735 C   0  0  0  0  0  0  0  0  0  0  0  0
   -0.2886    0.2942   -0.9800 C   0  0  0  0  0  0  0  0  0  0  0  0
   -1.3739   -0.6838   -1.4127 C   0  0  0  0  0  0  0  0  0  0  0  0
   -1.9314   -1.3332   -0.3401 O   0  0  0  0  0  0  0  0  0  0  0  0
   -1.0649   -1.6588    0.6663 C   0  0  0  0  0  0  0  0  0  0  0  0
   -0.0323   -0.5631    0.8834 C   0  0  0  0  0  0  0  0  0  0  0  0
   -0.6443    0.7349    0.4184 C   0  0  0  0  0  0  0  0  0  0  0  0
   -0.0294    1.9864    0.9109 C   0  0  0  0  0  0  0  0  0  0  0  0
    2.2813    1.0218   -0.8372 H   0  0  0  0  0  0  0  0  0  0  0  0
    2.9672   -0.5971   -0.6178 H   0  0  0  0  0  0  0  0  0  0  0  0
    2.3823    0.2368    0.8319 H   0  0  0  0  0  0  0  0  0  0  0  0
    0.8813   -1.5351   -0.8676 H   0  0  0  0  0  0  0  0  0  0  0  0
   -0.0053    1.0510   -1.6917 H   0  0  0  0  0  0  0  0  0  0  0  0
   -0.9581   -1.3217   -2.1888 H   0  0  0  0  0  0  0  0  0  0  0  0
   -2.1658   -0.0498   -1.8959 H   0  0  0  0  0  0  0  0  0  0  0  0
   -0.4724   -2.5907    0.4727 H   0  0  0  0  0  0  0  0  0  0  0  0
   -1.5920   -1.8052    1.6230 H   0  0  0  0  0  0  0  0  0  0  0  0
    0.4878   -0.5644    1.8286 H   0  0  0  0  0  0  0  0  0  0  0  0
   -1.7397    0.7134    0.5921 H   0  0  0  0  0  0  0  0  0  0  0  0
   -0.8273    2.7658    1.0943 H   0  0  0  0  0  0  0  0  0  0  0  0
    0.4672    1.8773    1.9152 H   0  0  0  0  0  0  0  0  0  0  0  0
    0.6894    2.4680    0.2279 H   0  0  0  0  0  0  0  0  0  0  0  0
  1  2  1  0
  2  3  1  0
  3  4  1  0
  4  5  1  0
  5  6  1  0
  6  7  1  0
  7  8  1  0
  8  9  1  0
  7  2  1  0
  8  3  1  0
  1 10  1  0
  1 11  1  0
  1 12  1  0
  2 13  1  0
  3 14  1  0
  4 15  1  0
  4 16  1  0
  6 17  1  0
  6 18  1  0
  7 19  1  0
  8 20  1  0
  9 21  1  0
  9 22  1  0
  9 23  1  0
M  END
