
     RDKit          3D

 21 22  0  0  0  0  0  0  0  0999 V2000
    2.6308   -0.2059   -0.2489 C   0  0  0  0  0  0  0  0  0  0  0  0
    1.2868    0.2555   -0.7818 C   0  0  0  0  0  0  0  0  0  0  0  0
    0.2003   -0.6581   -0.7408 C   0  0  0  0  0  0  0  0  0  0  0  0
   -0.2002   -1.5804    0.1520 O   0  0  0  0  0  0  0  0  0  0  0  0
   -1.4512   -1.1846    0.6380 C   0  0  0  0  0  0  0  0  0  0  0  0
   -2.0237    0.0302   -0.0294 C   0  0  0  0  0  0  0  0  0  0  0  0
   -1.0639    1.2189   -0.0323 C   0  0  0  0  0  0  0  0  0  0  0  0
    0.2860    0.6161    0.1595 C   0  0  0  0  0  0  0  0  0  0  0  0
    0.5841    0.4359    1.5130 O   0  0  0  0  0  0  0  0  0  0  0  0
    2.5525   -0.8630    0.6170 H   0  0  0  0  0  0  0  0  0  0  0  0
    3.0928   -0.8108   -1.0706 H   0  0  0  0  0  0  0  0  0  0  0  0
    3.3029    0.6656   -0.1059 H   0  0  0  0  0  0  0  0  0  0  0  0
    1.4214    0.8971   -1.6867 H   0  0  0  0  0  0  0  0  0  0  0  0
   -0.5100   -0.6243   -1.6187 H   0  0  0  0  0  0  0  0  0  0  0  0
   -1.4892   -1.1417    1.7385 H   0  0  0  0  0  0  0  0  0  0  0  0
   -2.1422   -2.0353    0.3571 H   0  0  0  0  0  0  0  0  0  0  0  0
   -2.4180   -0.1914   -1.0420 H   0  0  0  0  0  0  0  0  0  0  0  0
   -2.8948    0.3500    0.5790 H   0  0  0  0  0  0  0  0  0  0  0  0
   -1.0822    1.7046   -1.0299 H   0  0  0  0  0  0  0  0  0  0  0  0
   -1.3153    1.9680    0.7146 H   0  0  0  0  0  0  0  0  0  0  0  0
    1.2331    1.1536    1.7418 H   0  0  0  0  0  0  0  0  0  0  0  0
  1  2  1  0
  2  3  1  0
  3  4  1  0
  4  5  1  0
  5  6  1  0
  6  7  1  0
  7  8  1  0
  8  9  1  0
  8  2  1  0
  8  3  1  0
  1 10  1  0
  1 11  1  0
  1 12  1  0
  2 13  1  0
  3 14  1  0
  5 15  1  0
  5 16  1  0
  6 17  1  0
  6 18  1  0
  7 19  1  0
  7 20  1  0
  9 21  1  0
M  END
