
     RDKit          3D

 23 25  0  0  0  0  0  0  0  0999 V2000
    3.0256    0.4199    0.0952 C   0  0  0  0  0  0  0  0  0  0  0  0
    1.7068   -0.1917    0.4276 C   0  0  0  0  0  0  0  0  0  0  0  0
    1.0360   -1.1506   -0.4635 C   0  0  0  0  0  0  0  0  0  0  0  0
   -0.3361   -1.6251    0.0294 C   0  0  0  0  0  0  0  0  0  0  0  0
   -0.7880   -0.2408   -0.0089 C   0  0  0  0  0  0  0  0  0  0  0  0
   -1.5492    0.3326    1.1436 C   0  0  0  0  0  0  0  0  0  0  0  0
   -2.1364    1.2928    0.0976 C   0  0  0  0  0  0  0  0  0  0  0  0
   -1.9151    0.1472   -0.9053 C   0  0  0  0  0  0  0  0  0  0  0  0
    0.5390    0.3267   -0.3158 C   0  0  0  0  0  0  0  0  0  0  0  0
    3.7946   -0.3004   -0.2188 H   0  0  0  0  0  0  0  0  0  0  0  0
    3.3713    1.0326    0.9732 H   0  0  0  0  0  0  0  0  0  0  0  0
    2.9509    1.1674   -0.7430 H   0  0  0  0  0  0  0  0  0  0  0  0
    1.5517   -0.3826    1.5291 H   0  0  0  0  0  0  0  0  0  0  0  0
    1.3620   -1.4018   -1.4681 H   0  0  0  0  0  0  0  0  0  0  0  0
   -0.2977   -2.1274    1.0273 H   0  0  0  0  0  0  0  0  0  0  0  0
   -0.7695   -2.3551   -0.6958 H   0  0  0  0  0  0  0  0  0  0  0  0
   -0.8840    0.8039    1.8697 H   0  0  0  0  0  0  0  0  0  0  0  0
   -2.3530   -0.2943    1.5273 H   0  0  0  0  0  0  0  0  0  0  0  0
   -3.1688    1.5755    0.2550 H   0  0  0  0  0  0  0  0  0  0  0  0
   -1.3924    2.0713   -0.1061 H   0  0  0  0  0  0  0  0  0  0  0  0
   -2.7735   -0.5515   -0.9451 H   0  0  0  0  0  0  0  0  0  0  0  0
   -1.5950    0.4946   -1.9022 H   0  0  0  0  0  0  0  0  0  0  0  0
    0.6205    0.9568   -1.2025 H   0  0  0  0  0  0  0  0  0  0  0  0
  1  2  1  0
  2  3  1  0
  3  4  1  0
  4  5  1  0
  5  6  1  0
  6  7  1  0
  7  8  1  0
  5  9  1  0
  9  2  1  0
  9  3  1  0
  8  5  1  0
  1 10  1  0
  1 11  1  0
  1 12  1  0
  2 13  1  0
  3 14  1  0
  4 15  1  0
  4 16  1  0
  6 17  1  0
  6 18  1  0
  7 19  1  0
  7 20  1  0
  8 21  1  0
  8 22  1  0
  9 23  1  0
M  END
