
     RDKit          3D

 23 23  0  0  0  0  0  0  0  0999 V2000
   -1.9774   -1.1430    0.5748 C   0  0  0  0  0  0  0  0  0  0  0  0
   -0.9273   -0.9497   -0.5174 C   0  0  0  0  0  0  0  0  0  0  0  0
   -1.0879    0.3617   -1.2201 C   0  0  0  0  0  0  0  0  0  0  0  0
   -0.6327    1.5295   -0.4962 C   0  0  0  0  0  0  0  0  0  0  0  0
    0.1742    1.6581    0.5343 C   0  0  0  0  0  0  0  0  0  0  0  0
    0.8690    0.5902    1.2683 C   0  0  0  0  0  0  0  0  0  0  0  0
    1.1878   -0.6182    0.4743 C   0  0  0  0  0  0  0  0  0  0  0  0
    2.2437   -0.2196   -0.5731 C   0  0  0  0  0  0  0  0  0  0  0  0
    0.2594   -1.3260   -0.1083 O   0  0  0  0  0  0  0  0  0  0  0  0
   -1.6960   -0.6971    1.5219 H   0  0  0  0  0  0  0  0  0  0  0  0
   -2.9369   -0.7918    0.1738 H   0  0  0  0  0  0  0  0  0  0  0  0
   -2.0581   -2.2493    0.7380 H   0  0  0  0  0  0  0  0  0  0  0  0
   -1.2637   -1.6995   -1.3041 H   0  0  0  0  0  0  0  0  0  0  0  0
   -2.1975    0.4826   -1.4041 H   0  0  0  0  0  0  0  0  0  0  0  0
   -0.6347    0.3365   -2.2269 H   0  0  0  0  0  0  0  0  0  0  0  0
   -1.0180    2.4777   -0.8568 H   0  0  0  0  0  0  0  0  0  0  0  0
    0.3483    2.6624    0.8839 H   0  0  0  0  0  0  0  0  0  0  0  0
    1.8551    1.0346    1.6013 H   0  0  0  0  0  0  0  0  0  0  0  0
    0.3350    0.3768    2.2216 H   0  0  0  0  0  0  0  0  0  0  0  0
    1.7820   -1.2891    1.1687 H   0  0  0  0  0  0  0  0  0  0  0  0
    3.0588    0.3686   -0.1122 H   0  0  0  0  0  0  0  0  0  0  0  0
    2.6119   -1.1931   -0.9769 H   0  0  0  0  0  0  0  0  0  0  0  0
    1.7050    0.2978   -1.3651 H   0  0  0  0  0  0  0  0  0  0  0  0
  1  2  1  0
  2  3  1  0
  3  4  1  0
  4  5  2  0
  5  6  1  0
  6  7  1  0
  7  8  1  0
  7  9  1  0
  9  2  1  0
  1 10  1  0
  1 11  1  0
  1 12  1  0
  2 13  1  0
  3 14  1  0
  3 15  1  0
  4 16  1  0
  5 17  1  0
  6 18  1  0
  6 19  1  0
  7 20  1  0
  8 21  1  0
  8 22  1  0
  8 23  1  0
M  END
