
     RDKit          3D

 21 22  0  0  0  0  0  0  0  0999 V2000
   -1.4713    1.7091   -0.1558 C   0  0  0  0  0  0  0  0  0  0  0  0
   -1.2375    0.3452   -0.7897 C   0  0  0  0  0  0  0  0  0  0  0  0
   -1.4981   -0.7215    0.2802 C   0  0  0  0  0  0  0  0  0  0  0  0
   -0.0510   -0.8255    0.6025 C   0  0  0  0  0  0  0  0  0  0  0  0
    0.4972   -2.1221    0.6843 O   0  0  0  0  0  0  0  0  0  0  0  0
    0.9063    0.2656    0.5208 C   0  0  0  0  0  0  0  0  0  0  0  0
    2.3708   -0.0576    0.5717 C   0  0  0  0  0  0  0  0  0  0  0  0
    0.2091   -0.0772   -0.7378 C   0  0  0  0  0  0  0  0  0  0  0  0
    0.7821   -0.7867   -1.7514 O   0  0  0  0  0  0  0  0  0  0  0  0
   -0.7941    2.4826   -0.5614 H   0  0  0  0  0  0  0  0  0  0  0  0
   -1.3401    1.6601    0.9467 H   0  0  0  0  0  0  0  0  0  0  0  0
   -2.5391    1.9886   -0.3161 H   0  0  0  0  0  0  0  0  0  0  0  0
   -1.7296    0.1754   -1.7437 H   0  0  0  0  0  0  0  0  0  0  0  0
   -1.8367   -1.6473   -0.2607 H   0  0  0  0  0  0  0  0  0  0  0  0
   -2.1843   -0.4176    1.0744 H   0  0  0  0  0  0  0  0  0  0  0  0
    0.5568   -2.2978    1.6767 H   0  0  0  0  0  0  0  0  0  0  0  0
    0.6795    1.3086    0.8926 H   0  0  0  0  0  0  0  0  0  0  0  0
    2.7985   -0.0655   -0.4593 H   0  0  0  0  0  0  0  0  0  0  0  0
    2.9365    0.6332    1.2101 H   0  0  0  0  0  0  0  0  0  0  0  0
    2.4788   -1.1108    0.9404 H   0  0  0  0  0  0  0  0  0  0  0  0
    0.4661   -0.4387   -2.6246 H   0  0  0  0  0  0  0  0  0  0  0  0
  1  2  1  0
  2  3  1  0
  3  4  1  0
  4  5  1  0
  4  6  1  0
  6  7  1  0
  6  8  1  0
  8  9  1  0
  8  2  1  0
  8  4  1  0
  1 10  1  0
  1 11  1  0
  1 12  1  0
  2 13  1  0
  3 14  1  0
  3 15  1  0
  5 16  1  0
  6 17  1  0
  7 18  1  0
  7 19  1  0
  7 20  1  0
  9 21  1  0
M  END
