
     RDKit          3D

 21 22  0  0  0  0  0  0  0  0999 V2000
   -2.6567    0.7784   -0.0497 C   0  0  0  0  0  0  0  0  0  0  0  0
   -1.4326    0.0070   -0.4420 C   0  0  0  0  0  0  0  0  0  0  0  0
   -0.1483    0.8463   -0.5034 C   0  0  0  0  0  0  0  0  0  0  0  0
    0.4983   -0.1860    0.3243 C   0  0  0  0  0  0  0  0  0  0  0  0
   -0.8064   -0.8210    0.6630 C   0  0  0  0  0  0  0  0  0  0  0  0
    1.6093   -0.0118    1.2229 C   0  0  0  0  0  0  0  0  0  0  0  0
    1.7189   -0.9014    0.0142 C   0  0  0  0  0  0  0  0  0  0  0  0
    2.5356   -0.3922   -1.1265 C   0  0  0  0  0  0  0  0  0  0  0  0
    2.6042    0.7908   -1.3919 O   0  0  0  0  0  0  0  0  0  0  0  0
   -3.2048    1.0605   -0.9839 H   0  0  0  0  0  0  0  0  0  0  0  0
   -3.3734    0.0993    0.4985 H   0  0  0  0  0  0  0  0  0  0  0  0
   -2.4511    1.6342    0.5973 H   0  0  0  0  0  0  0  0  0  0  0  0
   -1.5492   -0.5476   -1.3941 H   0  0  0  0  0  0  0  0  0  0  0  0
    0.2749    0.9334   -1.5101 H   0  0  0  0  0  0  0  0  0  0  0  0
   -0.2805    1.8332    0.0059 H   0  0  0  0  0  0  0  0  0  0  0  0
   -1.1231   -0.4997    1.6960 H   0  0  0  0  0  0  0  0  0  0  0  0
   -0.8682   -1.9077    0.4968 H   0  0  0  0  0  0  0  0  0  0  0  0
    1.5893   -0.5480    2.2038 H   0  0  0  0  0  0  0  0  0  0  0  0
    2.2352    0.9165    1.2728 H   0  0  0  0  0  0  0  0  0  0  0  0
    1.7352   -1.9992    0.1571 H   0  0  0  0  0  0  0  0  0  0  0  0
    3.0934   -1.0851   -1.7510 H   0  0  0  0  0  0  0  0  0  0  0  0
  1  2  1  0
  2  3  1  0
  3  4  1  0
  4  5  1  0
  4  6  1  0
  6  7  1  0
  7  8  1  0
  8  9  2  0
  5  2  1  0
  7  4  1  0
  1 10  1  0
  1 11  1  0
  1 12  1  0
  2 13  1  0
  3 14  1  0
  3 15  1  0
  5 16  1  0
  5 17  1  0
  6 18  1  0
  6 19  1  0
  7 20  1  0
  8 21  1  0
M  END
