
     RDKit          3D

 19 20  0  0  0  0  0  0  0  0999 V2000
    2.0983   -0.0186    0.0471 C   0  0  0  0  0  0  0  0  0  0  0  0
    0.6947   -0.1656    0.4956 C   0  0  0  0  0  0  0  0  0  0  0  0
   -0.1060   -1.1485   -0.3721 C   0  0  0  0  0  0  0  0  0  0  0  0
   -1.4806   -0.9346    0.2298 C   0  0  0  0  0  0  0  0  0  0  0  0
   -1.4994    0.5442    0.6530 C   0  0  0  0  0  0  0  0  0  0  0  0
   -0.1725    1.0463    0.1024 C   0  0  0  0  0  0  0  0  0  0  0  0
   -0.1229    0.9032   -1.3707 C   0  0  0  0  0  0  0  0  0  0  0  0
   -0.1148    1.8428   -2.2036 O   0  0  0  0  0  0  0  0  0  0  0  0
   -0.0885   -0.4671   -1.6070 O   0  0  0  0  0  0  0  0  0  0  0  0
    2.7904   -0.3905    0.8267 H   0  0  0  0  0  0  0  0  0  0  0  0
    2.2586   -0.6407   -0.8699 H   0  0  0  0  0  0  0  0  0  0  0  0
    2.3869    1.0354   -0.1507 H   0  0  0  0  0  0  0  0  0  0  0  0
    0.5422   -0.3395    1.5616 H   0  0  0  0  0  0  0  0  0  0  0  0
    0.2607   -2.1451   -0.3640 H   0  0  0  0  0  0  0  0  0  0  0  0
   -2.2369   -1.1445   -0.5382 H   0  0  0  0  0  0  0  0  0  0  0  0
   -1.5658   -1.5819    1.1303 H   0  0  0  0  0  0  0  0  0  0  0  0
   -2.3602    1.0308    0.1833 H   0  0  0  0  0  0  0  0  0  0  0  0
   -1.4561    0.6002    1.7412 H   0  0  0  0  0  0  0  0  0  0  0  0
    0.1720    1.9735    0.5054 H   0  0  0  0  0  0  0  0  0  0  0  0
  1  2  1  0
  2  3  1  0
  3  4  1  0
  4  5  1  0
  5  6  1  0
  6  7  1  0
  7  8  2  0
  7  9  1  0
  6  2  1  0
  9  3  1  0
  1 10  1  0
  1 11  1  0
  1 12  1  0
  2 13  1  0
  3 14  1  0
  4 15  1  0
  4 16  1  0
  5 17  1  0
  5 18  1  0
  6 19  1  0
M  END
