
     RDKit          3D

 23 23  0  0  0  0  0  0  0  0999 V2000
   -1.1951   -1.6804   -0.9442 C   0  0  0  0  0  0  0  0  0  0  0  0
   -0.2661   -0.4999   -0.8636 C   0  0  0  0  0  0  0  0  0  0  0  0
    0.3773   -0.3302    0.4841 C   0  0  0  0  0  0  0  0  0  0  0  0
    1.8334    0.0080    0.4780 C   0  0  0  0  0  0  0  0  0  0  0  0
    2.6689   -1.0337   -0.1999 C   0  0  0  0  0  0  0  0  0  0  0  0
    3.1665   -0.8252   -1.3026 O   0  0  0  0  0  0  0  0  0  0  0  0
   -0.6239    0.6708   -0.0464 C   0  0  0  0  0  0  0  0  0  0  0  0
   -0.1044    2.0334   -0.3738 C   0  0  0  0  0  0  0  0  0  0  0  0
   -2.0192    0.6819    0.5422 C   0  0  0  0  0  0  0  0  0  0  0  0
   -1.6074   -1.8119   -1.9620 H   0  0  0  0  0  0  0  0  0  0  0  0
   -1.9577   -1.7016   -0.1557 H   0  0  0  0  0  0  0  0  0  0  0  0
   -0.5487   -2.5990   -0.7886 H   0  0  0  0  0  0  0  0  0  0  0  0
    0.3749   -0.4049   -1.7888 H   0  0  0  0  0  0  0  0  0  0  0  0
   -0.0228   -0.9240    1.3504 H   0  0  0  0  0  0  0  0  0  0  0  0
    2.0179    0.9896   -0.0722 H   0  0  0  0  0  0  0  0  0  0  0  0
    2.1779    0.0696    1.5351 H   0  0  0  0  0  0  0  0  0  0  0  0
    2.8373   -1.9855    0.2833 H   0  0  0  0  0  0  0  0  0  0  0  0
    0.2739    2.4922    0.5605 H   0  0  0  0  0  0  0  0  0  0  0  0
   -0.9380    2.7150   -0.7111 H   0  0  0  0  0  0  0  0  0  0  0  0
    0.6647    2.0526   -1.1712 H   0  0  0  0  0  0  0  0  0  0  0  0
   -2.0049    0.1809    1.5374 H   0  0  0  0  0  0  0  0  0  0  0  0
   -2.4071    1.7058    0.7305 H   0  0  0  0  0  0  0  0  0  0  0  0
   -2.6976    0.1965   -0.1679 H   0  0  0  0  0  0  0  0  0  0  0  0
  1  2  1  0
  2  3  1  0
  3  4  1  0
  4  5  1  0
  5  6  2  0
  3  7  1  0
  7  8  1  0
  7  9  1  0
  7  2  1  0
  1 10  1  0
  1 11  1  0
  1 12  1  0
  2 13  1  0
  3 14  1  0
  4 15  1  0
  4 16  1  0
  5 17  1  0
  8 18  1  0
  8 19  1  0
  8 20  1  0
  9 21  1  0
  9 22  1  0
  9 23  1  0
M  END
