
     RDKit          3D

 25 26  0  0  0  0  0  0  0  0999 V2000
    2.5985   -0.3572    0.3124 C   0  0  0  0  0  0  0  0  0  0  0  0
    1.1842   -0.4577   -0.2689 C   0  0  0  0  0  0  0  0  0  0  0  0
    0.2768   -0.7334    0.8849 C   0  0  0  0  0  0  0  0  0  0  0  0
   -1.1656   -0.5469    0.6072 C   0  0  0  0  0  0  0  0  0  0  0  0
   -1.8208   -1.7292   -0.0690 C   0  0  0  0  0  0  0  0  0  0  0  0
   -1.4834    0.6986   -0.1499 C   0  0  0  0  0  0  0  0  0  0  0  0
   -0.8902    1.9989    0.2752 C   0  0  0  0  0  0  0  0  0  0  0  0
   -0.4997    1.2490   -1.0262 C   0  0  0  0  0  0  0  0  0  0  0  0
    0.8804    0.7658   -1.0387 C   0  0  0  0  0  0  0  0  0  0  0  0
    2.8367    0.7147    0.5519 H   0  0  0  0  0  0  0  0  0  0  0  0
    3.3554   -0.7419   -0.3713 H   0  0  0  0  0  0  0  0  0  0  0  0
    2.6599   -0.8946    1.2754 H   0  0  0  0  0  0  0  0  0  0  0  0
    1.1493   -1.3331   -0.9713 H   0  0  0  0  0  0  0  0  0  0  0  0
    0.5622   -0.0079    1.7019 H   0  0  0  0  0  0  0  0  0  0  0  0
    0.4688   -1.7516    1.2451 H   0  0  0  0  0  0  0  0  0  0  0  0
   -1.6851   -0.4526    1.6079 H   0  0  0  0  0  0  0  0  0  0  0  0
   -1.4907   -1.8990   -1.0911 H   0  0  0  0  0  0  0  0  0  0  0  0
   -2.9241   -1.4971   -0.1032 H   0  0  0  0  0  0  0  0  0  0  0  0
   -1.7508   -2.6561    0.5486 H   0  0  0  0  0  0  0  0  0  0  0  0
   -2.5611    0.7710   -0.4549 H   0  0  0  0  0  0  0  0  0  0  0  0
   -0.2017    1.9529    1.1170 H   0  0  0  0  0  0  0  0  0  0  0  0
   -1.4313    2.9508    0.1517 H   0  0  0  0  0  0  0  0  0  0  0  0
   -0.8497    1.7444   -1.9730 H   0  0  0  0  0  0  0  0  0  0  0  0
    1.5499    1.5947   -0.6594 H   0  0  0  0  0  0  0  0  0  0  0  0
    1.2319    0.6174   -2.1024 H   0  0  0  0  0  0  0  0  0  0  0  0
  1  2  1  0
  2  3  1  0
  3  4  1  0
  4  5  1  0
  4  6  1  0
  6  7  1  0
  7  8  1  0
  8  9  1  0
  9  2  1  0
  8  6  1  0
  1 10  1  0
  1 11  1  0
  1 12  1  0
  2 13  1  0
  3 14  1  0
  3 15  1  0
  4 16  1  0
  5 17  1  0
  5 18  1  0
  5 19  1  0
  6 20  1  0
  7 21  1  0
  7 22  1  0
  8 23  1  0
  9 24  1  0
  9 25  1  0
M  END
