
     RDKit          3D

 18 18  0  0  0  0  0  0  0  0999 V2000
   -2.2721    0.0335    0.4410 C   0  0  0  0  0  0  0  0  0  0  0  0
   -1.0572   -0.4914   -0.2523 C   0  0  0  0  0  0  0  0  0  0  0  0
   -0.0347   -1.1291    0.6182 C   0  0  0  0  0  0  0  0  0  0  0  0
   -0.0198   -1.8350    1.5797 O   0  0  0  0  0  0  0  0  0  0  0  0
    0.9944   -0.4967   -0.2410 C   0  0  0  0  0  0  0  0  0  0  0  0
    2.2074    0.0297    0.4577 C   0  0  0  0  0  0  0  0  0  0  0  0
   -0.0176    0.6080   -0.4937 C   0  0  0  0  0  0  0  0  0  0  0  0
   -0.0450    1.1072   -1.7707 O   0  0  0  0  0  0  0  0  0  0  0  0
   -3.1710   -0.2969   -0.1553 H   0  0  0  0  0  0  0  0  0  0  0  0
   -2.2963    1.1506    0.3756 H   0  0  0  0  0  0  0  0  0  0  0  0
   -2.3514   -0.2468    1.4982 H   0  0  0  0  0  0  0  0  0  0  0  0
   -1.2683   -1.0612   -1.2002 H   0  0  0  0  0  0  0  0  0  0  0  0
    1.2166   -1.1297   -1.1129 H   0  0  0  0  0  0  0  0  0  0  0  0
    2.7544    0.6755   -0.2851 H   0  0  0  0  0  0  0  0  0  0  0  0
    1.9542    0.6718    1.2965 H   0  0  0  0  0  0  0  0  0  0  0  0
    2.9016   -0.8056    0.7070 H   0  0  0  0  0  0  0  0  0  0  0  0
   -0.0446    1.3164    0.3404 H   0  0  0  0  0  0  0  0  0  0  0  0
    0.5493    1.8997   -1.8032 H   0  0  0  0  0  0  0  0  0  0  0  0
  1  2  1  0
  2  3  1  0
  3  4  2  0
  3  5  1  0
  5  6  1  0
  5  7  1  0
  7  8  1  0
  7  2  1  0
  1  9  1  0
  1 10  1  0
  1 11  1  0
  2 12  1  0
  5 13  1  0
  6 14  1  0
  6 15  1  0
  6 16  1  0
  7 17  1  0
  8 18  1  0
M  END
