
     RDKit          3D

 23 23  0  0  0  0  0  0  0  0999 V2000
   -2.6679   -0.0322   -1.2357 C   0  0  0  0  0  0  0  0  0  0  0  0
   -1.7748    0.1293   -0.0237 C   0  0  0  0  0  0  0  0  0  0  0  0
   -1.3594   -1.2560    0.4139 C   0  0  0  0  0  0  0  0  0  0  0  0
    0.0724   -1.0699    0.7786 C   0  0  0  0  0  0  0  0  0  0  0  0
    0.5756    0.0557    0.3527 C   0  0  0  0  0  0  0  0  0  0  0  0
    1.9989    0.5059    0.5766 C   0  0  0  0  0  0  0  0  0  0  0  0
    2.6507    0.7002   -0.7981 C   0  0  0  0  0  0  0  0  0  0  0  0
    2.7367   -0.5025    1.1966 O   0  0  0  0  0  0  0  0  0  0  0  0
   -0.4732    0.8070   -0.3780 C   0  0  0  0  0  0  0  0  0  0  0  0
   -3.5388   -0.6276   -0.9329 H   0  0  0  0  0  0  0  0  0  0  0  0
   -2.0898   -0.6157   -2.0058 H   0  0  0  0  0  0  0  0  0  0  0  0
   -3.0117    0.9301   -1.6408 H   0  0  0  0  0  0  0  0  0  0  0  0
   -2.3023    0.6663    0.7803 H   0  0  0  0  0  0  0  0  0  0  0  0
   -1.5301   -2.0298   -0.3327 H   0  0  0  0  0  0  0  0  0  0  0  0
   -1.9141   -1.4879    1.3464 H   0  0  0  0  0  0  0  0  0  0  0  0
    0.6618   -1.8095    1.3553 H   0  0  0  0  0  0  0  0  0  0  0  0
    2.0495    1.4459    1.1246 H   0  0  0  0  0  0  0  0  0  0  0  0
    1.9443    1.1722   -1.5066 H   0  0  0  0  0  0  0  0  0  0  0  0
    2.8856   -0.3248   -1.1596 H   0  0  0  0  0  0  0  0  0  0  0  0
    3.5591    1.3121   -0.6433 H   0  0  0  0  0  0  0  0  0  0  0  0
    2.2540   -0.6937    2.0576 H   0  0  0  0  0  0  0  0  0  0  0  0
   -0.4325    1.8562    0.0001 H   0  0  0  0  0  0  0  0  0  0  0  0
   -0.2939    0.8688   -1.4657 H   0  0  0  0  0  0  0  0  0  0  0  0
  1  2  1  0
  2  3  1  0
  3  4  1  0
  4  5  2  0
  5  6  1  0
  6  7  1  0
  6  8  1  0
  5  9  1  0
  9  2  1  0
  1 10  1  0
  1 11  1  0
  1 12  1  0
  2 13  1  0
  3 14  1  0
  3 15  1  0
  4 16  1  0
  6 17  1  0
  7 18  1  0
  7 19  1  0
  7 20  1  0
  8 21  1  0
  9 22  1  0
  9 23  1  0
M  END
