
     RDKit          3D

 19 20  0  0  0  0  0  0  0  0999 V2000
   -2.2377    0.2314   -0.1424 C   0  0  0  0  0  0  0  0  0  0  0  0
   -0.8954    0.2308    0.5038 C   0  0  0  0  0  0  0  0  0  0  0  0
   -0.1381   -1.1032    0.4205 C   0  0  0  0  0  0  0  0  0  0  0  0
   -0.6098   -1.8424   -0.6894 O   0  0  0  0  0  0  0  0  0  0  0  0
    1.0626   -0.3315    0.0522 C   0  0  0  0  0  0  0  0  0  0  0  0
    2.2743   -0.1493    0.6386 C   0  0  0  0  0  0  0  0  0  0  0  0
    2.0940   -0.8169   -0.6858 O   0  0  0  0  0  0  0  0  0  0  0  0
    0.1859    0.7895   -0.4315 C   0  0  0  0  0  0  0  0  0  0  0  0
    0.6867    2.0223   -0.0111 O   0  0  0  0  0  0  0  0  0  0  0  0
   -2.9962    0.4489    0.6551 H   0  0  0  0  0  0  0  0  0  0  0  0
   -2.4304   -0.7293   -0.6438 H   0  0  0  0  0  0  0  0  0  0  0  0
   -2.3134    1.0152   -0.9386 H   0  0  0  0  0  0  0  0  0  0  0  0
   -0.8290    0.6855    1.5194 H   0  0  0  0  0  0  0  0  0  0  0  0
   -0.1411   -1.6844    1.3472 H   0  0  0  0  0  0  0  0  0  0  0  0
    0.1468   -2.1514   -1.2540 H   0  0  0  0  0  0  0  0  0  0  0  0
    2.8820    0.7775    0.4864 H   0  0  0  0  0  0  0  0  0  0  0  0
    2.7548   -0.8291    1.3778 H   0  0  0  0  0  0  0  0  0  0  0  0
   -0.1421    0.7323   -1.4664 H   0  0  0  0  0  0  0  0  0  0  0  0
    0.6463    2.7038   -0.7380 H   0  0  0  0  0  0  0  0  0  0  0  0
  1  2  1  0
  2  3  1  0
  3  4  1  0
  3  5  1  0
  5  6  1  0
  6  7  1  0
  5  8  1  0
  8  9  1  0
  8  2  1  0
  7  5  1  0
  1 10  1  0
  1 11  1  0
  1 12  1  0
  2 13  1  0
  3 14  1  0
  4 15  1  0
  6 16  1  0
  6 17  1  0
  8 18  1  0
  9 19  1  0
M  END
