
     RDKit          3D

 19 20  0  0  0  0  0  0  0  0999 V2000
   -1.6319    0.7069    0.9745 C   0  0  0  0  0  0  0  0  0  0  0  0
   -1.1745    0.1898   -0.3623 C   0  0  0  0  0  0  0  0  0  0  0  0
   -0.6994   -1.2552   -0.3469 C   0  0  0  0  0  0  0  0  0  0  0  0
    0.5950   -0.7973   -0.9234 C   0  0  0  0  0  0  0  0  0  0  0  0
    1.7191   -0.9913    0.0096 C   0  0  0  0  0  0  0  0  0  0  0  0
    1.9963    0.1604    0.6270 C   0  0  0  0  0  0  0  0  0  0  0  0
    1.0886    1.1949    0.1571 C   0  0  0  0  0  0  0  0  0  0  0  0
    1.1316    2.3722    0.5736 O   0  0  0  0  0  0  0  0  0  0  0  0
    0.1734    0.6517   -0.8266 C   0  0  0  0  0  0  0  0  0  0  0  0
   -0.7874    1.1382    1.5745 H   0  0  0  0  0  0  0  0  0  0  0  0
   -2.3095    1.5773    0.7707 H   0  0  0  0  0  0  0  0  0  0  0  0
   -2.1828   -0.0528    1.5721 H   0  0  0  0  0  0  0  0  0  0  0  0
   -1.9529    0.3156   -1.1438 H   0  0  0  0  0  0  0  0  0  0  0  0
   -0.6800   -1.6498    0.6768 H   0  0  0  0  0  0  0  0  0  0  0  0
   -1.2411   -1.9205   -1.0452 H   0  0  0  0  0  0  0  0  0  0  0  0
    0.8093   -1.1228   -1.9764 H   0  0  0  0  0  0  0  0  0  0  0  0
    2.2188   -1.9237    0.1510 H   0  0  0  0  0  0  0  0  0  0  0  0
    2.7979    0.2380    1.3620 H   0  0  0  0  0  0  0  0  0  0  0  0
    0.1295    1.1686   -1.8243 H   0  0  0  0  0  0  0  0  0  0  0  0
  1  2  1  0
  2  3  1  0
  3  4  1  0
  4  5  1  0
  5  6  2  0
  6  7  1  0
  7  8  2  0
  7  9  1  0
  9  2  1  0
  9  4  1  0
  1 10  1  0
  1 11  1  0
  1 12  1  0
  2 13  1  0
  3 14  1  0
  3 15  1  0
  4 16  1  0
  5 17  1  0
  6 18  1  0
  9 19  1  0
M  END
