
     RDKit          3D

 21 22  0  0  0  0  0  0  0  0999 V2000
    2.3771   -0.3628   -1.1477 C   0  0  0  0  0  0  0  0  0  0  0  0
    1.3451    0.3992   -0.3191 C   0  0  0  0  0  0  0  0  0  0  0  0
    1.2041    0.0480    1.1280 C   0  0  0  0  0  0  0  0  0  0  0  0
    0.1498   -0.2044    0.1180 C   0  0  0  0  0  0  0  0  0  0  0  0
   -0.3491   -1.4446   -0.0003 O   0  0  0  0  0  0  0  0  0  0  0  0
   -1.3515   -1.0375    0.9183 C   0  0  0  0  0  0  0  0  0  0  0  0
   -1.2060    0.3554    0.2857 C   0  0  0  0  0  0  0  0  0  0  0  0
   -2.0753    0.3982   -0.9350 C   0  0  0  0  0  0  0  0  0  0  0  0
   -1.2670    1.4018    1.1489 O   0  0  0  0  0  0  0  0  0  0  0  0
    3.3704    0.1138   -0.9137 H   0  0  0  0  0  0  0  0  0  0  0  0
    2.1463   -0.2122   -2.2222 H   0  0  0  0  0  0  0  0  0  0  0  0
    2.3509   -1.4317   -0.8979 H   0  0  0  0  0  0  0  0  0  0  0  0
    1.3873    1.4939   -0.5036 H   0  0  0  0  0  0  0  0  0  0  0  0
    1.7200   -0.8690    1.5289 H   0  0  0  0  0  0  0  0  0  0  0  0
    0.9635    0.8017    1.8866 H   0  0  0  0  0  0  0  0  0  0  0  0
   -2.3287   -1.5070    0.7601 H   0  0  0  0  0  0  0  0  0  0  0  0
   -0.9203   -1.0995    1.9360 H   0  0  0  0  0  0  0  0  0  0  0  0
   -1.9417   -0.5691   -1.4686 H   0  0  0  0  0  0  0  0  0  0  0  0
   -3.1675    0.4268   -0.6595 H   0  0  0  0  0  0  0  0  0  0  0  0
   -1.8722    1.2230   -1.6175 H   0  0  0  0  0  0  0  0  0  0  0  0
   -0.5352    2.0761    0.9807 H   0  0  0  0  0  0  0  0  0  0  0  0
  1  2  1  0
  2  3  1  0
  3  4  1  0
  4  5  1  0
  5  6  1  0
  6  7  1  0
  7  8  1  0
  7  9  1  0
  4  2  1  0
  7  4  1  0
  1 10  1  0
  1 11  1  0
  1 12  1  0
  2 13  1  0
  3 14  1  0
  3 15  1  0
  6 16  1  0
  6 17  1  0
  8 18  1  0
  8 19  1  0
  8 20  1  0
  9 21  1  0
M  END
