
     RDKit          3D

 17 17  0  0  0  0  0  0  0  0999 V2000
   -2.0604   -0.1160    0.2829 C   0  0  0  0  0  0  0  0  0  0  0  0
   -0.5782   -0.0683    0.0497 C   0  0  0  0  0  0  0  0  0  0  0  0
   -0.0833   -1.2426   -0.7823 C   0  0  0  0  0  0  0  0  0  0  0  0
    1.3070   -1.3833   -0.5378 O   0  0  0  0  0  0  0  0  0  0  0  0
    2.1917   -0.5195    0.1233 C   0  0  0  0  0  0  0  0  0  0  0  0
    3.2529   -1.0149    0.5840 O   0  0  0  0  0  0  0  0  0  0  0  0
    1.9794    0.8308    0.3026 O   0  0  0  0  0  0  0  0  0  0  0  0
    0.8600    1.6738    0.1350 C   0  0  0  0  0  0  0  0  0  0  0  0
   -0.1589    1.0852   -0.5986 O   0  0  0  0  0  0  0  0  0  0  0  0
   -2.4193   -1.1111   -0.0611 H   0  0  0  0  0  0  0  0  0  0  0  0
   -2.5447    0.7268   -0.2493 H   0  0  0  0  0  0  0  0  0  0  0  0
   -2.3384   -0.0563    1.3612 H   0  0  0  0  0  0  0  0  0  0  0  0
   -0.0755   -0.1847    1.0525 H   0  0  0  0  0  0  0  0  0  0  0  0
   -0.2323   -0.9822   -1.8637 H   0  0  0  0  0  0  0  0  0  0  0  0
   -0.6479   -2.1750   -0.5525 H   0  0  0  0  0  0  0  0  0  0  0  0
    1.1276    2.6243   -0.3866 H   0  0  0  0  0  0  0  0  0  0  0  0
    0.4204    1.9129    1.1407 H   0  0  0  0  0  0  0  0  0  0  0  0
  1  2  1  0
  2  3  1  0
  3  4  1  0
  4  5  1  0
  5  6  2  0
  5  7  1  0
  7  8  1  0
  8  9  1  0
  9  2  1  0
  1 10  1  0
  1 11  1  0
  1 12  1  0
  2 13  1  0
  3 14  1  0
  3 15  1  0
  8 16  1  0
  8 17  1  0
M  END
