
     RDKit          3D

 17 18  0  0  0  0  0  0  0  0999 V2000
   -1.8767   -0.0013   -0.9780 C   0  0  0  0  0  0  0  0  0  0  0  0
   -0.7563   -0.8155   -0.3427 C   0  0  0  0  0  0  0  0  0  0  0  0
   -0.4642   -0.4174    1.0834 C   0  0  0  0  0  0  0  0  0  0  0  0
   -0.1935   -1.3886    2.0294 O   0  0  0  0  0  0  0  0  0  0  0  0
    0.5110   -0.2208    0.0219 C   0  0  0  0  0  0  0  0  0  0  0  0
    1.0130    1.0960   -0.4395 C   0  0  0  0  0  0  0  0  0  0  0  0
    2.3317    0.4303   -0.1680 C   0  0  0  0  0  0  0  0  0  0  0  0
    3.5355    0.7722   -0.0670 O   0  0  0  0  0  0  0  0  0  0  0  0
    1.7508   -0.8430   -0.0452 O   0  0  0  0  0  0  0  0  0  0  0  0
   -2.1649   -0.3619   -1.9622 H   0  0  0  0  0  0  0  0  0  0  0  0
   -2.7388   -0.0553   -0.2669 H   0  0  0  0  0  0  0  0  0  0  0  0
   -1.5537    1.0574   -0.9779 H   0  0  0  0  0  0  0  0  0  0  0  0
   -0.8329   -1.8981   -0.6036 H   0  0  0  0  0  0  0  0  0  0  0  0
   -0.9821    0.4752    1.5124 H   0  0  0  0  0  0  0  0  0  0  0  0
    0.6620   -1.1211    2.4805 H   0  0  0  0  0  0  0  0  0  0  0  0
    0.8646    1.9592    0.2475 H   0  0  0  0  0  0  0  0  0  0  0  0
    0.8943    1.3326   -1.5241 H   0  0  0  0  0  0  0  0  0  0  0  0
  1  2  1  0
  2  3  1  0
  3  4  1  0
  3  5  1  0
  5  6  1  0
  6  7  1  0
  7  8  2  0
  7  9  1  0
  5  2  1  0
  9  5  1  0
  1 10  1  0
  1 11  1  0
  1 12  1  0
  2 13  1  0
  3 14  1  0
  4 15  1  0
  6 16  1  0
  6 17  1  0
M  END
