
     RDKit          3D

 19 22  0  0  0  0  0  0  0  0999 V2000
    2.0500    0.3871    0.2575 C   0  0  0  0  0  0  0  0  0  0  0  0
    0.6865    0.7780   -0.2924 C   0  0  0  0  0  0  0  0  0  0  0  0
   -0.3740    0.8361    0.7319 C   0  0  0  0  0  0  0  0  0  0  0  0
   -0.6319   -0.6001    1.1288 C   0  0  0  0  0  0  0  0  0  0  0  0
   -2.0010   -0.2385    1.1396 O   0  0  0  0  0  0  0  0  0  0  0  0
   -1.6569    0.5468    0.0090 C   0  0  0  0  0  0  0  0  0  0  0  0
   -1.2157   -0.3958   -1.0821 C   0  0  0  0  0  0  0  0  0  0  0  0
    0.2254   -0.4238   -1.1302 C   0  0  0  0  0  0  0  0  0  0  0  0
   -0.3525   -1.3312   -0.1561 C   0  0  0  0  0  0  0  0  0  0  0  0
    2.7128    0.2844   -0.6436 H   0  0  0  0  0  0  0  0  0  0  0  0
    2.3990    1.1567    0.9577 H   0  0  0  0  0  0  0  0  0  0  0  0
    1.9234   -0.6126    0.7149 H   0  0  0  0  0  0  0  0  0  0  0  0
    0.7453    1.6361   -0.9756 H   0  0  0  0  0  0  0  0  0  0  0  0
   -0.3650    1.5796    1.5007 H   0  0  0  0  0  0  0  0  0  0  0  0
   -0.2165   -0.9631    2.0433 H   0  0  0  0  0  0  0  0  0  0  0  0
   -2.3174    1.3523   -0.2356 H   0  0  0  0  0  0  0  0  0  0  0  0
   -1.9162   -0.8919   -1.7328 H   0  0  0  0  0  0  0  0  0  0  0  0
    0.8505   -0.7159   -1.9548 H   0  0  0  0  0  0  0  0  0  0  0  0
   -0.5458   -2.3842   -0.2803 H   0  0  0  0  0  0  0  0  0  0  0  0
  1  2  1  0
  2  3  1  0
  3  4  1  0
  4  5  1  0
  5  6  1  0
  6  7  1  0
  7  8  1  0
  8  9  1  0
  8  2  1  0
  6  3  1  0
  9  7  1  0
  9  4  1  0
  1 10  1  0
  1 11  1  0
  1 12  1  0
  2 13  1  0
  3 14  1  0
  4 15  1  0
  6 16  1  0
  7 17  1  0
  8 18  1  0
  9 19  1  0
M  END
