
     RDKit          3D

 23 24  0  0  0  0  0  0  0  0999 V2000
    2.1268    1.1408    0.3277 C   0  0  0  0  0  0  0  0  0  0  0  0
    0.8940    0.4951   -0.1921 C   0  0  0  0  0  0  0  0  0  0  0  0
    0.8799   -1.0155   -0.2264 C   0  0  0  0  0  0  0  0  0  0  0  0
    0.5138   -0.9366    1.2587 C   0  0  0  0  0  0  0  0  0  0  0  0
   -0.2310    0.3148    0.7997 C   0  0  0  0  0  0  0  0  0  0  0  0
   -1.2968   -0.2198   -0.1122 C   0  0  0  0  0  0  0  0  0  0  0  0
   -1.6592    0.8973   -1.0840 C   0  0  0  0  0  0  0  0  0  0  0  0
   -2.3801   -0.7506    0.5249 O   0  0  0  0  0  0  0  0  0  0  0  0
   -0.4642   -1.2960   -0.8396 C   0  0  0  0  0  0  0  0  0  0  0  0
    1.8513    2.1951    0.6240 H   0  0  0  0  0  0  0  0  0  0  0  0
    2.6399    0.6138    1.1342 H   0  0  0  0  0  0  0  0  0  0  0  0
    2.8457    1.2373   -0.5112 H   0  0  0  0  0  0  0  0  0  0  0  0
    0.5900    0.8980   -1.1697 H   0  0  0  0  0  0  0  0  0  0  0  0
    1.7382   -1.5541   -0.5102 H   0  0  0  0  0  0  0  0  0  0  0  0
   -0.1316   -1.7583    1.6043 H   0  0  0  0  0  0  0  0  0  0  0  0
    1.3576   -0.7642    1.9190 H   0  0  0  0  0  0  0  0  0  0  0  0
   -0.4422    1.0689    1.5050 H   0  0  0  0  0  0  0  0  0  0  0  0
   -1.2001    1.8676   -0.7836 H   0  0  0  0  0  0  0  0  0  0  0  0
   -2.7396    1.0621   -1.1356 H   0  0  0  0  0  0  0  0  0  0  0  0
   -1.2942    0.5931   -2.1041 H   0  0  0  0  0  0  0  0  0  0  0  0
   -2.3257   -0.7686    1.5066 H   0  0  0  0  0  0  0  0  0  0  0  0
   -0.8433   -2.2980   -0.6381 H   0  0  0  0  0  0  0  0  0  0  0  0
   -0.4294   -1.0223   -1.8973 H   0  0  0  0  0  0  0  0  0  0  0  0
  1  2  1  0
  2  3  1  0
  3  4  1  0
  4  5  1  0
  5  6  1  0
  6  7  1  0
  6  8  1  0
  6  9  1  0
  5  2  1  0
  9  3  1  0
  1 10  1  0
  1 11  1  0
  1 12  1  0
  2 13  1  0
  3 14  1  0
  4 15  1  0
  4 16  1  0
  5 17  1  0
  7 18  1  0
  7 19  1  0
  7 20  1  0
  8 21  1  0
  9 22  1  0
  9 23  1  0
M  END
