
     RDKit          3D

 19 20  0  0  0  0  0  0  0  0999 V2000
    2.2866    0.1774    0.2771 C   0  0  0  0  0  0  0  0  0  0  0  0
    1.0071   -0.3911   -0.3434 C   0  0  0  0  0  0  0  0  0  0  0  0
    0.3168   -1.2840    0.6502 C   0  0  0  0  0  0  0  0  0  0  0  0
   -1.1601   -0.9853    0.4919 C   0  0  0  0  0  0  0  0  0  0  0  0
   -1.1394    0.5001    0.1865 C   0  0  0  0  0  0  0  0  0  0  0  0
   -2.3953    1.2184   -0.0187 C   0  0  0  0  0  0  0  0  0  0  0  0
   -3.3385    0.7790   -0.6711 O   0  0  0  0  0  0  0  0  0  0  0  0
   -0.1833    1.2294    0.9922 O   0  0  0  0  0  0  0  0  0  0  0  0
    0.0430    0.7956   -0.4322 C   0  0  0  0  0  0  0  0  0  0  0  0
    2.4175    1.1930   -0.1572 H   0  0  0  0  0  0  0  0  0  0  0  0
    3.1558   -0.4485    0.0557 H   0  0  0  0  0  0  0  0  0  0  0  0
    2.1606    0.2917    1.3696 H   0  0  0  0  0  0  0  0  0  0  0  0
    1.1876   -0.8461   -1.3154 H   0  0  0  0  0  0  0  0  0  0  0  0
    0.6028   -0.9160    1.6717 H   0  0  0  0  0  0  0  0  0  0  0  0
    0.5521   -2.3508    0.5188 H   0  0  0  0  0  0  0  0  0  0  0  0
   -1.7371   -1.2266    1.3871 H   0  0  0  0  0  0  0  0  0  0  0  0
   -1.5349   -1.5609   -0.3701 H   0  0  0  0  0  0  0  0  0  0  0  0
   -2.5507    2.1930    0.4067 H   0  0  0  0  0  0  0  0  0  0  0  0
    0.3094    1.6317   -1.0761 H   0  0  0  0  0  0  0  0  0  0  0  0
  1  2  1  0
  2  3  1  0
  3  4  1  0
  4  5  1  0
  5  6  1  0
  6  7  2  0
  5  8  1  0
  8  9  1  0
  9  2  1  0
  9  5  1  0
  1 10  1  0
  1 11  1  0
  1 12  1  0
  2 13  1  0
  3 14  1  0
  3 15  1  0
  4 16  1  0
  4 17  1  0
  6 18  1  0
  9 19  1  0
M  END
