
     RDKit          3D

 19 19  0  0  0  0  0  0  0  0999 V2000
   -1.9371   -0.7279    0.5642 C   0  0  0  0  0  0  0  0  0  0  0  0
   -0.9049   -0.4225   -0.4902 C   0  0  0  0  0  0  0  0  0  0  0  0
   -0.7558    1.0800   -0.6358 C   0  0  0  0  0  0  0  0  0  0  0  0
    0.2584    1.6110    0.3359 C   0  0  0  0  0  0  0  0  0  0  0  0
    1.4082    0.9666    0.4767 C   0  0  0  0  0  0  0  0  0  0  0  0
    1.6283   -0.2546   -0.3426 C   0  0  0  0  0  0  0  0  0  0  0  0
    2.7831   -0.9206   -0.0516 O   0  0  0  0  0  0  0  0  0  0  0  0
    0.4001   -1.0840   -0.2251 C   0  0  0  0  0  0  0  0  0  0  0  0
    0.3903   -2.2561    0.0706 O   0  0  0  0  0  0  0  0  0  0  0  0
   -2.6624   -1.4756    0.1746 H   0  0  0  0  0  0  0  0  0  0  0  0
   -1.4527   -1.1882    1.4525 H   0  0  0  0  0  0  0  0  0  0  0  0
   -2.4817    0.2046    0.8933 H   0  0  0  0  0  0  0  0  0  0  0  0
   -1.2851   -0.7935   -1.4771 H   0  0  0  0  0  0  0  0  0  0  0  0
   -1.7077    1.5866   -0.5061 H   0  0  0  0  0  0  0  0  0  0  0  0
   -0.2924    1.2378   -1.6487 H   0  0  0  0  0  0  0  0  0  0  0  0
    0.0573    2.5036    0.9124 H   0  0  0  0  0  0  0  0  0  0  0  0
    2.1309    1.3518    1.1744 H   0  0  0  0  0  0  0  0  0  0  0  0
    1.6695    0.0875   -1.4081 H   0  0  0  0  0  0  0  0  0  0  0  0
    2.7535   -1.5067    0.7306 H   0  0  0  0  0  0  0  0  0  0  0  0
  1  2  1  0
  2  3  1  0
  3  4  1  0
  4  5  2  0
  5  6  1  0
  6  7  1  0
  6  8  1  0
  8  9  2  0
  8  2  1  0
  1 10  1  0
  1 11  1  0
  1 12  1  0
  2 13  1  0
  3 14  1  0
  3 15  1  0
  4 16  1  0
  5 17  1  0
  6 18  1  0
  7 19  1  0
M  END
