
     RDKit          3D

 19 19  0  0  0  0  0  0  0  0999 V2000
   -2.3853    0.2749    0.2161 C   0  0  0  0  0  0  0  0  0  0  0  0
   -0.9335    0.2481    0.6042 C   0  0  0  0  0  0  0  0  0  0  0  0
   -0.3717   -1.1309    0.2701 C   0  0  0  0  0  0  0  0  0  0  0  0
    0.9301   -1.2868    0.6929 O   0  0  0  0  0  0  0  0  0  0  0  0
    1.8654   -1.1085   -0.3253 C   0  0  0  0  0  0  0  0  0  0  0  0
    2.1527    0.3474   -0.3964 C   0  0  0  0  0  0  0  0  0  0  0  0
    1.2866    1.3375   -0.3057 C   0  0  0  0  0  0  0  0  0  0  0  0
   -0.1756    1.3120   -0.1136 C   0  0  0  0  0  0  0  0  0  0  0  0
   -0.8174    2.2790   -0.6049 O   0  0  0  0  0  0  0  0  0  0  0  0
   -2.5972   -0.3788   -0.6502 H   0  0  0  0  0  0  0  0  0  0  0  0
   -2.7196    1.3330    0.0090 H   0  0  0  0  0  0  0  0  0  0  0  0
   -2.9919   -0.1478    1.0672 H   0  0  0  0  0  0  0  0  0  0  0  0
   -0.8101    0.3464    1.7217 H   0  0  0  0  0  0  0  0  0  0  0  0
   -0.9917   -1.8509    0.8776 H   0  0  0  0  0  0  0  0  0  0  0  0
   -0.5515   -1.3862   -0.7756 H   0  0  0  0  0  0  0  0  0  0  0  0
    2.7536   -1.7096   -0.0720 H   0  0  0  0  0  0  0  0  0  0  0  0
    1.4782   -1.4893   -1.2939 H   0  0  0  0  0  0  0  0  0  0  0  0
    3.1721    0.6804   -0.5376 H   0  0  0  0  0  0  0  0  0  0  0  0
    1.7068    2.3302   -0.3836 H   0  0  0  0  0  0  0  0  0  0  0  0
  1  2  1  0
  2  3  1  0
  3  4  1  0
  4  5  1  0
  5  6  1  0
  6  7  2  0
  7  8  1  0
  8  9  2  0
  8  2  1  0
  1 10  1  0
  1 11  1  0
  1 12  1  0
  2 13  1  0
  3 14  1  0
  3 15  1  0
  5 16  1  0
  5 17  1  0
  6 18  1  0
  7 19  1  0
M  END
