
     RDKit          3D

 15 15  0  0  0  0  0  0  0  0999 V2000
    1.7520    0.0076   -0.1972 C   0  0  0  0  0  0  0  0  0  0  0  0
    0.4875   -0.1596    0.5485 C   0  0  0  0  0  0  0  0  0  0  0  0
   -0.5059    1.0046    0.4423 C   0  0  0  0  0  0  0  0  0  0  0  0
   -1.5410   -0.0399    0.5735 C   0  0  0  0  0  0  0  0  0  0  0  0
   -2.6210   -0.1450    1.0727 O   0  0  0  0  0  0  0  0  0  0  0  0
   -0.6290   -0.9062   -0.1992 C   0  0  0  0  0  0  0  0  0  0  0  0
   -0.6953   -0.5401   -1.5604 O   0  0  0  0  0  0  0  0  0  0  0  0
    1.9450   -0.7310   -0.9828 H   0  0  0  0  0  0  0  0  0  0  0  0
    2.6013   -0.0681    0.5372 H   0  0  0  0  0  0  0  0  0  0  0  0
    1.8785    1.0179   -0.6736 H   0  0  0  0  0  0  0  0  0  0  0  0
    0.5158   -0.5117    1.5805 H   0  0  0  0  0  0  0  0  0  0  0  0
   -0.4334    1.7490    1.2322 H   0  0  0  0  0  0  0  0  0  0  0  0
   -0.5024    1.4319   -0.5929 H   0  0  0  0  0  0  0  0  0  0  0  0
   -0.6688   -1.9805   -0.0039 H   0  0  0  0  0  0  0  0  0  0  0  0
   -1.5833   -0.1290   -1.7768 H   0  0  0  0  0  0  0  0  0  0  0  0
  1  2  1  0
  2  3  1  0
  3  4  1  0
  4  5  2  0
  4  6  1  0
  6  7  1  0
  6  2  1  0
  1  8  1  0
  1  9  1  0
  1 10  1  0
  2 11  1  0
  3 12  1  0
  3 13  1  0
  6 14  1  0
  7 15  1  0
M  END
