
     RDKit          3D

 16 17  0  0  0  0  0  0  0  0999 V2000
   -1.8249    0.0433   -0.2178 C   0  0  0  0  0  0  0  0  0  0  0  0
   -0.5199   -0.1754    0.4708 C   0  0  0  0  0  0  0  0  0  0  0  0
    0.1616   -1.4961    0.1777 C   0  0  0  0  0  0  0  0  0  0  0  0
    1.4126   -0.6860   -0.0185 C   0  0  0  0  0  0  0  0  0  0  0  0
    1.3668    0.0593   -1.1769 O   0  0  0  0  0  0  0  0  0  0  0  0
    0.6753    0.5314   -0.0954 C   0  0  0  0  0  0  0  0  0  0  0  0
    1.0769    1.8464    0.3862 C   0  0  0  0  0  0  0  0  0  0  0  0
    1.9651    2.4749   -0.1415 O   0  0  0  0  0  0  0  0  0  0  0  0
   -2.4253    0.7685    0.3865 H   0  0  0  0  0  0  0  0  0  0  0  0
   -1.7391    0.3370   -1.2745 H   0  0  0  0  0  0  0  0  0  0  0  0
   -2.4014   -0.9216   -0.1657 H   0  0  0  0  0  0  0  0  0  0  0  0
   -0.5771   -0.0353    1.5666 H   0  0  0  0  0  0  0  0  0  0  0  0
    0.1556   -2.2300    0.9770 H   0  0  0  0  0  0  0  0  0  0  0  0
   -0.2397   -1.8986   -0.7895 H   0  0  0  0  0  0  0  0  0  0  0  0
    2.3337   -0.9067    0.4978 H   0  0  0  0  0  0  0  0  0  0  0  0
    0.5796    2.2889    1.2367 H   0  0  0  0  0  0  0  0  0  0  0  0
  1  2  1  0
  2  3  1  0
  3  4  1  0
  4  5  1  0
  5  6  1  0
  6  7  1  0
  7  8  2  0
  6  2  1  0
  6  4  1  0
  1  9  1  0
  1 10  1  0
  1 11  1  0
  2 12  1  0
  3 13  1  0
  3 14  1  0
  4 15  1  0
  7 16  1  0
M  END
