
     RDKit          3D

 25 26  0  0  0  0  0  0  0  0999 V2000
    0.1235    1.9336   -1.0553 C   0  0  0  0  0  0  0  0  0  0  0  0
   -0.4900    1.2333    0.1036 C   0  0  0  0  0  0  0  0  0  0  0  0
   -1.8165    0.5439   -0.2080 C   0  0  0  0  0  0  0  0  0  0  0  0
   -1.3312   -0.5956    0.7002 C   0  0  0  0  0  0  0  0  0  0  0  0
   -1.6081   -1.9301    0.0981 C   0  0  0  0  0  0  0  0  0  0  0  0
    0.0496   -0.0450    0.5535 C   0  0  0  0  0  0  0  0  0  0  0  0
    1.0988   -0.1895    1.5558 C   0  0  0  0  0  0  0  0  0  0  0  0
    1.2113   -0.7616    0.1417 C   0  0  0  0  0  0  0  0  0  0  0  0
    2.3172   -0.2233   -0.7203 C   0  0  0  0  0  0  0  0  0  0  0  0
    1.0231    2.4712   -0.7006 H   0  0  0  0  0  0  0  0  0  0  0  0
   -0.5941    2.7482   -1.3686 H   0  0  0  0  0  0  0  0  0  0  0  0
    0.2840    1.3195   -1.9399 H   0  0  0  0  0  0  0  0  0  0  0  0
   -0.6653    1.9449    0.9410 H   0  0  0  0  0  0  0  0  0  0  0  0
   -1.8268    0.2446   -1.2808 H   0  0  0  0  0  0  0  0  0  0  0  0
   -2.7090    1.0624    0.1552 H   0  0  0  0  0  0  0  0  0  0  0  0
   -1.7674   -0.4145    1.7172 H   0  0  0  0  0  0  0  0  0  0  0  0
   -0.7527   -2.4316   -0.3560 H   0  0  0  0  0  0  0  0  0  0  0  0
   -2.3792   -1.8274   -0.7219 H   0  0  0  0  0  0  0  0  0  0  0  0
   -2.0237   -2.5823    0.9166 H   0  0  0  0  0  0  0  0  0  0  0  0
    1.0689   -0.8962    2.3955 H   0  0  0  0  0  0  0  0  0  0  0  0
    1.6856    0.7310    1.7919 H   0  0  0  0  0  0  0  0  0  0  0  0
    1.1559   -1.8902    0.1179 H   0  0  0  0  0  0  0  0  0  0  0  0
    2.0642   -0.2849   -1.8122 H   0  0  0  0  0  0  0  0  0  0  0  0
    3.1961   -0.9235   -0.6055 H   0  0  0  0  0  0  0  0  0  0  0  0
    2.6858    0.7632   -0.4192 H   0  0  0  0  0  0  0  0  0  0  0  0
  1  2  1  0
  2  3  1  0
  3  4  1  0
  4  5  1  0
  4  6  1  0
  6  7  1  0
  7  8  1  0
  8  9  1  0
  6  2  1  0
  8  6  1  0
  1 10  1  0
  1 11  1  0
  1 12  1  0
  2 13  1  0
  3 14  1  0
  3 15  1  0
  4 16  1  0
  5 17  1  0
  5 18  1  0
  5 19  1  0
  7 20  1  0
  7 21  1  0
  8 22  1  0
  9 23  1  0
  9 24  1  0
  9 25  1  0
M  END
