
     RDKit          3D

 25 25  0  0  0  0  0  0  0  0999 V2000
    2.4408    1.2743   -0.1737 C   0  0  0  0  0  0  0  0  0  0  0  0
    1.6436    0.3433    0.6890 C   0  0  0  0  0  0  0  0  0  0  0  0
    1.7884   -1.1064    0.2348 C   0  0  0  0  0  0  0  0  0  0  0  0
    0.5847   -1.3098   -0.6950 C   0  0  0  0  0  0  0  0  0  0  0  0
   -0.1285   -0.0126   -0.5627 C   0  0  0  0  0  0  0  0  0  0  0  0
   -1.6231   -0.1089   -0.6701 C   0  0  0  0  0  0  0  0  0  0  0  0
   -2.1622    1.3193   -0.5088 C   0  0  0  0  0  0  0  0  0  0  0  0
   -2.2556   -0.9422    0.3925 C   0  0  0  0  0  0  0  0  0  0  0  0
    0.2752    0.5847    0.6168 O   0  0  0  0  0  0  0  0  0  0  0  0
    3.2281    0.6503   -0.6858 H   0  0  0  0  0  0  0  0  0  0  0  0
    2.9514    2.0709    0.4342 H   0  0  0  0  0  0  0  0  0  0  0  0
    1.8594    1.7833   -0.9503 H   0  0  0  0  0  0  0  0  0  0  0  0
    1.9435    0.4176    1.7470 H   0  0  0  0  0  0  0  0  0  0  0  0
    2.7391   -1.2042   -0.3048 H   0  0  0  0  0  0  0  0  0  0  0  0
    1.7444   -1.7555    1.1089 H   0  0  0  0  0  0  0  0  0  0  0  0
    0.9885   -1.4667   -1.7056 H   0  0  0  0  0  0  0  0  0  0  0  0
   -0.0060   -2.1917   -0.3753 H   0  0  0  0  0  0  0  0  0  0  0  0
    0.2107    0.6529   -1.3973 H   0  0  0  0  0  0  0  0  0  0  0  0
   -1.9443   -0.4366   -1.6655 H   0  0  0  0  0  0  0  0  0  0  0  0
   -3.2294    1.2698   -0.7245 H   0  0  0  0  0  0  0  0  0  0  0  0
   -1.9657    1.6330    0.5566 H   0  0  0  0  0  0  0  0  0  0  0  0
   -1.6516    1.9927   -1.2229 H   0  0  0  0  0  0  0  0  0  0  0  0
   -3.3588   -0.7665    0.3443 H   0  0  0  0  0  0  0  0  0  0  0  0
   -1.9355   -0.6462    1.4029 H   0  0  0  0  0  0  0  0  0  0  0  0
   -2.1373   -2.0446    0.2054 H   0  0  0  0  0  0  0  0  0  0  0  0
  1  2  1  0
  2  3  1  0
  3  4  1  0
  4  5  1  0
  5  6  1  0
  6  7  1  0
  6  8  1  0
  5  9  1  0
  9  2  1  0
  1 10  1  0
  1 11  1  0
  1 12  1  0
  2 13  1  0
  3 14  1  0
  3 15  1  0
  4 16  1  0
  4 17  1  0
  5 18  1  0
  6 19  1  0
  7 20  1  0
  7 21  1  0
  7 22  1  0
  8 23  1  0
  8 24  1  0
  8 25  1  0
M  END
