
     RDKit          3D

 21 21  0  0  0  0  0  0  0  0999 V2000
    2.3030    0.0182    0.1663 C   0  0  0  0  0  0  0  0  0  0  0  0
    0.8641   -0.3571    0.3221 C   0  0  0  0  0  0  0  0  0  0  0  0
    0.1582    0.6185    1.2590 C   0  0  0  0  0  0  0  0  0  0  0  0
   -1.0100    0.6459    0.2871 C   0  0  0  0  0  0  0  0  0  0  0  0
   -2.1317   -0.2998    0.6447 C   0  0  0  0  0  0  0  0  0  0  0  0
   -0.0641    0.1267   -0.7663 C   0  0  0  0  0  0  0  0  0  0  0  0
    0.4383    1.1401   -1.5621 O   0  0  0  0  0  0  0  0  0  0  0  0
   -0.6997   -0.9588   -1.5463 C   0  0  0  0  0  0  0  0  0  0  0  0
   -0.7304   -0.8809   -2.7443 O   0  0  0  0  0  0  0  0  0  0  0  0
    2.8282   -0.5448   -0.6092 H   0  0  0  0  0  0  0  0  0  0  0  0
    2.8179   -0.2007    1.1301 H   0  0  0  0  0  0  0  0  0  0  0  0
    2.4488    1.1138    0.0005 H   0  0  0  0  0  0  0  0  0  0  0  0
    0.7467   -1.3928    0.6441 H   0  0  0  0  0  0  0  0  0  0  0  0
   -0.0888    0.1981    2.2513 H   0  0  0  0  0  0  0  0  0  0  0  0
    0.6690    1.6008    1.2948 H   0  0  0  0  0  0  0  0  0  0  0  0
   -1.4104    1.6604    0.1019 H   0  0  0  0  0  0  0  0  0  0  0  0
   -2.8446   -0.3107   -0.2049 H   0  0  0  0  0  0  0  0  0  0  0  0
   -2.6880    0.0289    1.5442 H   0  0  0  0  0  0  0  0  0  0  0  0
   -1.7672   -1.3346    0.8160 H   0  0  0  0  0  0  0  0  0  0  0  0
    1.2996    0.9530   -1.9695 H   0  0  0  0  0  0  0  0  0  0  0  0
   -1.1388   -1.8241   -1.0594 H   0  0  0  0  0  0  0  0  0  0  0  0
  1  2  1  0
  2  3  1  0
  3  4  1  0
  4  5  1  0
  4  6  1  0
  6  7  1  0
  6  8  1  0
  8  9  2  0
  6  2  1  0
  1 10  1  0
  1 11  1  0
  1 12  1  0
  2 13  1  0
  3 14  1  0
  3 15  1  0
  4 16  1  0
  5 17  1  0
  5 18  1  0
  5 19  1  0
  7 20  1  0
  8 21  1  0
M  END
