
     RDKit          3D

 23 24  0  0  0  0  0  0  0  0999 V2000
    2.5187   -0.5212   -0.3369 C   0  0  0  0  0  0  0  0  0  0  0  0
    1.0399   -0.7434   -0.2660 C   0  0  0  0  0  0  0  0  0  0  0  0
    0.3282   -0.1424   -1.4935 C   0  0  0  0  0  0  0  0  0  0  0  0
   -0.7385    0.6234   -0.7713 C   0  0  0  0  0  0  0  0  0  0  0  0
    0.1260    1.3952    0.2348 C   0  0  0  0  0  0  0  0  0  0  0  0
    0.3519    0.0114    0.8163 C   0  0  0  0  0  0  0  0  0  0  0  0
   -1.1085   -0.2528    0.4148 C   0  0  0  0  0  0  0  0  0  0  0  0
   -2.1273    0.3265    1.3255 C   0  0  0  0  0  0  0  0  0  0  0  0
   -1.2495   -1.5973    0.1323 O   0  0  0  0  0  0  0  0  0  0  0  0
    2.7430    0.5536   -0.4639 H   0  0  0  0  0  0  0  0  0  0  0  0
    2.9238   -1.1663   -1.1264 H   0  0  0  0  0  0  0  0  0  0  0  0
    2.9444   -0.8360    0.6343 H   0  0  0  0  0  0  0  0  0  0  0  0
    0.8092   -1.8211   -0.2017 H   0  0  0  0  0  0  0  0  0  0  0  0
   -0.0349   -0.9139   -2.1643 H   0  0  0  0  0  0  0  0  0  0  0  0
    1.0237    0.5885   -1.9488 H   0  0  0  0  0  0  0  0  0  0  0  0
   -1.4906    1.1457   -1.2877 H   0  0  0  0  0  0  0  0  0  0  0  0
    0.9701    1.8403   -0.2887 H   0  0  0  0  0  0  0  0  0  0  0  0
   -0.4273    2.0963    0.8561 H   0  0  0  0  0  0  0  0  0  0  0  0
    0.6113   -0.0923    1.8318 H   0  0  0  0  0  0  0  0  0  0  0  0
   -2.5793   -0.5208    1.9133 H   0  0  0  0  0  0  0  0  0  0  0  0
   -2.9921    0.7353    0.7266 H   0  0  0  0  0  0  0  0  0  0  0  0
   -1.7470    1.0748    2.0313 H   0  0  0  0  0  0  0  0  0  0  0  0
   -1.8953   -1.7834   -0.5677 H   0  0  0  0  0  0  0  0  0  0  0  0
  1  2  1  0
  2  3  1  0
  3  4  1  0
  4  5  1  0
  5  6  1  0
  6  7  1  0
  7  8  1  0
  7  9  1  0
  6  2  1  0
  7  4  1  0
  1 10  1  0
  1 11  1  0
  1 12  1  0
  2 13  1  0
  3 14  1  0
  3 15  1  0
  4 16  1  0
  5 17  1  0
  5 18  1  0
  6 19  1  0
  8 20  1  0
  8 21  1  0
  8 22  1  0
  9 23  1  0
M  END
