
     RDKit          3D

 22 23  0  0  0  0  0  0  0  0999 V2000
   -2.3531   -0.0023   -0.8777 C   0  0  0  0  0  0  0  0  0  0  0  0
   -0.9010   -0.3987   -0.8791 C   0  0  0  0  0  0  0  0  0  0  0  0
   -0.2393   -0.8383    0.3862 C   0  0  0  0  0  0  0  0  0  0  0  0
    1.0115   -1.6777    0.1688 C   0  0  0  0  0  0  0  0  0  0  0  0
    2.1214   -0.6625   -0.0605 C   0  0  0  0  0  0  0  0  0  0  0  0
    1.4558    0.5726   -0.6147 C   0  0  0  0  0  0  0  0  0  0  0  0
    0.0369    0.4895   -0.1322 C   0  0  0  0  0  0  0  0  0  0  0  0
   -0.5278    1.7525    0.4152 C   0  0  0  0  0  0  0  0  0  0  0  0
   -2.9633   -0.7237   -1.4335 H   0  0  0  0  0  0  0  0  0  0  0  0
   -2.5239    1.0030   -1.3196 H   0  0  0  0  0  0  0  0  0  0  0  0
   -2.7014    0.0408    0.1853 H   0  0  0  0  0  0  0  0  0  0  0  0
   -0.5250   -0.7493   -1.8670 H   0  0  0  0  0  0  0  0  0  0  0  0
   -0.8856   -1.0454    1.2520 H   0  0  0  0  0  0  0  0  0  0  0  0
    1.2620   -2.2816    1.0782 H   0  0  0  0  0  0  0  0  0  0  0  0
    0.9004   -2.3477   -0.7092 H   0  0  0  0  0  0  0  0  0  0  0  0
    2.6205   -0.4814    0.9002 H   0  0  0  0  0  0  0  0  0  0  0  0
    2.8327   -1.0224   -0.8226 H   0  0  0  0  0  0  0  0  0  0  0  0
    1.4107    0.4982   -1.7404 H   0  0  0  0  0  0  0  0  0  0  0  0
    1.9618    1.5133   -0.2955 H   0  0  0  0  0  0  0  0  0  0  0  0
   -1.5499    1.6308    0.8326 H   0  0  0  0  0  0  0  0  0  0  0  0
   -0.5476    2.5080   -0.4135 H   0  0  0  0  0  0  0  0  0  0  0  0
    0.1043    2.2222    1.2101 H   0  0  0  0  0  0  0  0  0  0  0  0
  1  2  1  0
  2  3  1  0
  3  4  1  0
  4  5  1  0
  5  6  1  0
  6  7  1  0
  7  8  1  0
  7  2  1  0
  7  3  1  0
  1  9  1  0
  1 10  1  0
  1 11  1  0
  2 12  1  0
  3 13  1  0
  4 14  1  0
  4 15  1  0
  5 16  1  0
  5 17  1  0
  6 18  1  0
  6 19  1  0
  8 20  1  0
  8 21  1  0
  8 22  1  0
M  END
