
     RDKit          3D

 23 23  0  0  0  0  0  0  0  0999 V2000
    2.6485   -0.7686    0.0302 C   0  0  0  0  0  0  0  0  0  0  0  0
    1.2239   -0.3269    0.1088 C   0  0  0  0  0  0  0  0  0  0  0  0
    1.1518    1.1529    0.1994 C   0  0  0  0  0  0  0  0  0  0  0  0
   -0.1883    1.7315    0.1636 C   0  0  0  0  0  0  0  0  0  0  0  0
   -1.3280    1.1115   -0.0725 C   0  0  0  0  0  0  0  0  0  0  0  0
   -1.7356   -0.2486   -0.3674 C   0  0  0  0  0  0  0  0  0  0  0  0
   -2.6029   -0.7271    0.8070 C   0  0  0  0  0  0  0  0  0  0  0  0
   -0.8019   -1.1675   -0.6435 O   0  0  0  0  0  0  0  0  0  0  0  0
    0.4072   -0.7396   -1.1046 C   0  0  0  0  0  0  0  0  0  0  0  0
    2.6757   -1.8519   -0.2820 H   0  0  0  0  0  0  0  0  0  0  0  0
    3.0673   -0.7287    1.0648 H   0  0  0  0  0  0  0  0  0  0  0  0
    3.2952   -0.1348   -0.5918 H   0  0  0  0  0  0  0  0  0  0  0  0
    0.7960   -0.7505    1.0498 H   0  0  0  0  0  0  0  0  0  0  0  0
    1.7694    1.6733   -0.5744 H   0  0  0  0  0  0  0  0  0  0  0  0
    1.6266    1.4555    1.1782 H   0  0  0  0  0  0  0  0  0  0  0  0
   -0.2322    2.7867    0.3541 H   0  0  0  0  0  0  0  0  0  0  0  0
   -2.1776    1.8140   -0.0331 H   0  0  0  0  0  0  0  0  0  0  0  0
   -2.4604   -0.2048   -1.2347 H   0  0  0  0  0  0  0  0  0  0  0  0
   -1.9826   -1.3586    1.4864 H   0  0  0  0  0  0  0  0  0  0  0  0
   -3.4574   -1.3437    0.4362 H   0  0  0  0  0  0  0  0  0  0  0  0
   -2.9569    0.1317    1.4140 H   0  0  0  0  0  0  0  0  0  0  0  0
    0.3205    0.0945   -1.8314 H   0  0  0  0  0  0  0  0  0  0  0  0
    0.9415   -1.6003   -1.5570 H   0  0  0  0  0  0  0  0  0  0  0  0
  1  2  1  0
  2  3  1  0
  3  4  1  0
  4  5  2  0
  5  6  1  0
  6  7  1  0
  6  8  1  0
  8  9  1  0
  9  2  1  0
  1 10  1  0
  1 11  1  0
  1 12  1  0
  2 13  1  0
  3 14  1  0
  3 15  1  0
  4 16  1  0
  5 17  1  0
  6 18  1  0
  7 19  1  0
  7 20  1  0
  7 21  1  0
  9 22  1  0
  9 23  1  0
M  END
