
     RDKit          3D

 23 25  0  0  0  0  0  0  0  0999 V2000
    0.5596    1.5079    1.2351 C   0  0  0  0  0  0  0  0  0  0  0  0
    0.0980    0.9384   -0.0784 C   0  0  0  0  0  0  0  0  0  0  0  0
    1.2191    0.4703   -0.9561 C   0  0  0  0  0  0  0  0  0  0  0  0
    2.2283   -0.4897   -0.4315 C   0  0  0  0  0  0  0  0  0  0  0  0
    1.0772   -0.9731   -1.2064 C   0  0  0  0  0  0  0  0  0  0  0  0
   -0.1270   -1.4494   -0.4413 C   0  0  0  0  0  0  0  0  0  0  0  0
   -0.8263   -0.2136    0.0401 C   0  0  0  0  0  0  0  0  0  0  0  0
   -1.8288   -0.3661    1.0986 C   0  0  0  0  0  0  0  0  0  0  0  0
   -2.2828   -0.0054   -0.3010 C   0  0  0  0  0  0  0  0  0  0  0  0
    1.3488    2.2715    0.9982 H   0  0  0  0  0  0  0  0  0  0  0  0
   -0.2814    2.0147    1.7251 H   0  0  0  0  0  0  0  0  0  0  0  0
    1.0458    0.7726    1.8935 H   0  0  0  0  0  0  0  0  0  0  0  0
   -0.4414    1.7734   -0.6052 H   0  0  0  0  0  0  0  0  0  0  0  0
    1.5017    1.0936   -1.8366 H   0  0  0  0  0  0  0  0  0  0  0  0
    2.2927   -0.5604    0.6682 H   0  0  0  0  0  0  0  0  0  0  0  0
    3.2240   -0.5288   -0.9332 H   0  0  0  0  0  0  0  0  0  0  0  0
    1.2347   -1.3497   -2.2328 H   0  0  0  0  0  0  0  0  0  0  0  0
   -0.7603   -2.0652   -1.1283 H   0  0  0  0  0  0  0  0  0  0  0  0
    0.2277   -2.0349    0.4374 H   0  0  0  0  0  0  0  0  0  0  0  0
   -2.0932   -1.4110    1.4040 H   0  0  0  0  0  0  0  0  0  0  0  0
   -1.9463    0.3511    1.9205 H   0  0  0  0  0  0  0  0  0  0  0  0
   -2.6707    1.0366   -0.3651 H   0  0  0  0  0  0  0  0  0  0  0  0
   -2.7993   -0.7828   -0.9049 H   0  0  0  0  0  0  0  0  0  0  0  0
  1  2  1  0
  2  3  1  0
  3  4  1  0
  4  5  1  0
  5  6  1  0
  6  7  1  0
  7  8  1  0
  8  9  1  0
  7  2  1  0
  5  3  1  0
  9  7  1  0
  1 10  1  0
  1 11  1  0
  1 12  1  0
  2 13  1  0
  3 14  1  0
  4 15  1  0
  4 16  1  0
  5 17  1  0
  6 18  1  0
  6 19  1  0
  8 20  1  0
  8 21  1  0
  9 22  1  0
  9 23  1  0
M  END
