
     RDKit          3D

 21 22  0  0  0  0  0  0  0  0999 V2000
    1.9573    0.1873    1.1715 C   0  0  0  0  0  0  0  0  0  0  0  0
    1.5849    0.1988   -0.2777 C   0  0  0  0  0  0  0  0  0  0  0  0
    0.7308   -0.9798   -0.7272 C   0  0  0  0  0  0  0  0  0  0  0  0
    1.1450   -1.5925   -1.9045 O   0  0  0  0  0  0  0  0  0  0  0  0
    0.2023    0.4133   -0.7446 C   0  0  0  0  0  0  0  0  0  0  0  0
   -0.8994    0.8022    0.1980 C   0  0  0  0  0  0  0  0  0  0  0  0
   -2.2288    0.9657   -0.5090 C   0  0  0  0  0  0  0  0  0  0  0  0
   -2.8316    0.4624    0.6510 O   0  0  0  0  0  0  0  0  0  0  0  0
   -1.6808   -0.3388    0.7964 C   0  0  0  0  0  0  0  0  0  0  0  0
    1.0947   -0.1599    1.7760 H   0  0  0  0  0  0  0  0  0  0  0  0
    2.8208   -0.4939    1.3896 H   0  0  0  0  0  0  0  0  0  0  0  0
    2.2430    1.1766    1.5636 H   0  0  0  0  0  0  0  0  0  0  0  0
    2.4305    0.4882   -0.9544 H   0  0  0  0  0  0  0  0  0  0  0  0
    0.3961   -1.7031    0.0676 H   0  0  0  0  0  0  0  0  0  0  0  0
    1.7588   -2.3374   -1.6158 H   0  0  0  0  0  0  0  0  0  0  0  0
    0.1043    0.8703   -1.7537 H   0  0  0  0  0  0  0  0  0  0  0  0
   -0.6981    1.5846    0.9201 H   0  0  0  0  0  0  0  0  0  0  0  0
   -2.4038    0.2664   -1.3354 H   0  0  0  0  0  0  0  0  0  0  0  0
   -2.4887    2.0060   -0.7636 H   0  0  0  0  0  0  0  0  0  0  0  0
   -1.5215   -0.5472    1.8560 H   0  0  0  0  0  0  0  0  0  0  0  0
   -1.7159   -1.2693    0.1961 H   0  0  0  0  0  0  0  0  0  0  0  0
  1  2  1  0
  2  3  1  0
  3  4  1  0
  3  5  1  0
  5  6  1  0
  6  7  1  0
  7  8  1  0
  8  9  1  0
  5  2  1  0
  9  6  1  0
  1 10  1  0
  1 11  1  0
  1 12  1  0
  2 13  1  0
  3 14  1  0
  4 15  1  0
  5 16  1  0
  6 17  1  0
  7 18  1  0
  7 19  1  0
  9 20  1  0
  9 21  1  0
M  END
