
     RDKit          3D

 19 20  0  0  0  0  0  0  0  0999 V2000
    2.0371   -0.9796   -0.0460 C   0  0  0  0  0  0  0  0  0  0  0  0
    0.8673   -0.1800    0.5090 C   0  0  0  0  0  0  0  0  0  0  0  0
   -0.5224   -0.5943    0.2738 C   0  0  0  0  0  0  0  0  0  0  0  0
   -1.5457   -0.4172    1.3220 C   0  0  0  0  0  0  0  0  0  0  0  0
   -1.2513    0.1100    2.3611 O   0  0  0  0  0  0  0  0  0  0  0  0
   -1.0260   -0.9799   -1.0776 C   0  0  0  0  0  0  0  0  0  0  0  0
   -0.1678   -0.0777   -1.7071 O   0  0  0  0  0  0  0  0  0  0  0  0
    0.0498    0.5200   -0.4796 C   0  0  0  0  0  0  0  0  0  0  0  0
   -0.2731    1.9492   -0.2365 C   0  0  0  0  0  0  0  0  0  0  0  0
    2.9051   -0.2590   -0.1015 H   0  0  0  0  0  0  0  0  0  0  0  0
    1.8527   -1.2783   -1.0981 H   0  0  0  0  0  0  0  0  0  0  0  0
    2.3577   -1.7882    0.6092 H   0  0  0  0  0  0  0  0  0  0  0  0
    1.0840    0.3079    1.4810 H   0  0  0  0  0  0  0  0  0  0  0  0
   -2.5634   -0.7495    1.1856 H   0  0  0  0  0  0  0  0  0  0  0  0
   -2.0714   -0.6344   -1.2170 H   0  0  0  0  0  0  0  0  0  0  0  0
   -0.8277   -2.0319   -1.3209 H   0  0  0  0  0  0  0  0  0  0  0  0
   -0.2413    2.5726   -1.1777 H   0  0  0  0  0  0  0  0  0  0  0  0
   -1.2122    2.1272    0.3216 H   0  0  0  0  0  0  0  0  0  0  0  0
    0.5487    2.3830    0.3987 H   0  0  0  0  0  0  0  0  0  0  0  0
  1  2  1  0
  2  3  1  0
  3  4  1  0
  4  5  2  0
  3  6  1  0
  6  7  1  0
  7  8  1  0
  8  9  1  0
  8  2  1  0
  8  3  1  0
  1 10  1  0
  1 11  1  0
  1 12  1  0
  2 13  1  0
  4 14  1  0
  6 15  1  0
  6 16  1  0
  9 17  1  0
  9 18  1  0
  9 19  1  0
M  END
