
     RDKit          3D

 21 22  0  0  0  0  0  0  0  0999 V2000
    2.5174   -0.5125    0.0402 C   0  0  0  0  0  0  0  0  0  0  0  0
    1.2316    0.1402    0.4763 C   0  0  0  0  0  0  0  0  0  0  0  0
    0.2198   -0.8624    1.0473 C   0  0  0  0  0  0  0  0  0  0  0  0
   -0.8436   -0.0812    0.2831 C   0  0  0  0  0  0  0  0  0  0  0  0
   -1.8791   -1.0026   -0.2493 C   0  0  0  0  0  0  0  0  0  0  0  0
   -1.2599    1.0766    0.8909 O   0  0  0  0  0  0  0  0  0  0  0  0
   -1.2084    1.9955   -0.1699 C   0  0  0  0  0  0  0  0  0  0  0  0
    0.0152    1.7261   -0.8039 O   0  0  0  0  0  0  0  0  0  0  0  0
    0.2341    0.3660   -0.6571 C   0  0  0  0  0  0  0  0  0  0  0  0
    2.3855   -1.5537   -0.2834 H   0  0  0  0  0  0  0  0  0  0  0  0
    3.1973   -0.5031    0.9168 H   0  0  0  0  0  0  0  0  0  0  0  0
    2.9505    0.0814   -0.7801 H   0  0  0  0  0  0  0  0  0  0  0  0
    1.3449    0.9893    1.1425 H   0  0  0  0  0  0  0  0  0  0  0  0
    0.3506   -1.8779    0.6355 H   0  0  0  0  0  0  0  0  0  0  0  0
    0.0365   -0.7647    2.1171 H   0  0  0  0  0  0  0  0  0  0  0  0
   -1.3901   -1.8051   -0.8206 H   0  0  0  0  0  0  0  0  0  0  0  0
   -2.3564   -1.5164    0.6366 H   0  0  0  0  0  0  0  0  0  0  0  0
   -2.6787   -0.4960   -0.8148 H   0  0  0  0  0  0  0  0  0  0  0  0
   -1.2097    3.0304    0.2122 H   0  0  0  0  0  0  0  0  0  0  0  0
   -2.0585    1.7865   -0.8619 H   0  0  0  0  0  0  0  0  0  0  0  0
    0.4012   -0.2167   -1.5582 H   0  0  0  0  0  0  0  0  0  0  0  0
  1  2  1  0
  2  3  1  0
  3  4  1  0
  4  5  1  0
  4  6  1  0
  6  7  1  0
  7  8  1  0
  8  9  1  0
  9  2  1  0
  9  4  1  0
  1 10  1  0
  1 11  1  0
  1 12  1  0
  2 13  1  0
  3 14  1  0
  3 15  1  0
  5 16  1  0
  5 17  1  0
  5 18  1  0
  7 19  1  0
  7 20  1  0
  9 21  1  0
M  END
