
     RDKit          3D

 21 23  0  0  0  0  0  0  0  0999 V2000
    2.0394   -0.5538    0.1678 C   0  0  0  0  0  0  0  0  0  0  0  0
    0.9318    0.3748   -0.1694 C   0  0  0  0  0  0  0  0  0  0  0  0
    0.1295   -0.0838   -1.3964 C   0  0  0  0  0  0  0  0  0  0  0  0
   -1.1898    0.5356   -1.2191 C   0  0  0  0  0  0  0  0  0  0  0  0
   -1.1754    1.3110    0.1069 C   0  0  0  0  0  0  0  0  0  0  0  0
   -0.1799    0.4094    0.8481 C   0  0  0  0  0  0  0  0  0  0  0  0
    0.1255    0.7776    2.0835 O   0  0  0  0  0  0  0  0  0  0  0  0
   -0.8344   -0.9252    0.6455 C   0  0  0  0  0  0  0  0  0  0  0  0
   -0.9801   -0.8959   -0.8838 C   0  0  0  0  0  0  0  0  0  0  0  0
    2.7831    0.0087    0.7854 H   0  0  0  0  0  0  0  0  0  0  0  0
    2.5924   -0.7810   -0.7891 H   0  0  0  0  0  0  0  0  0  0  0  0
    1.7575   -1.4785    0.6684 H   0  0  0  0  0  0  0  0  0  0  0  0
    1.2995    1.4020   -0.2953 H   0  0  0  0  0  0  0  0  0  0  0  0
    0.6333   -0.2270   -2.3412 H   0  0  0  0  0  0  0  0  0  0  0  0
   -1.8185    0.8803   -2.0320 H   0  0  0  0  0  0  0  0  0  0  0  0
   -0.7150    2.2850   -0.0738 H   0  0  0  0  0  0  0  0  0  0  0  0
   -2.1452    1.3156    0.5926 H   0  0  0  0  0  0  0  0  0  0  0  0
    0.3278    0.0053    2.6712 H   0  0  0  0  0  0  0  0  0  0  0  0
   -1.8669   -0.8621    1.0384 H   0  0  0  0  0  0  0  0  0  0  0  0
   -0.2590   -1.7797    0.9891 H   0  0  0  0  0  0  0  0  0  0  0  0
   -1.4555   -1.7183   -1.3967 H   0  0  0  0  0  0  0  0  0  0  0  0
  1  2  1  0
  2  3  1  0
  3  4  1  0
  4  5  1  0
  5  6  1  0
  6  7  1  0
  6  8  1  0
  8  9  1  0
  6  2  1  0
  9  3  1  0
  9  4  1  0
  1 10  1  0
  1 11  1  0
  1 12  1  0
  2 13  1  0
  3 14  1  0
  4 15  1  0
  5 16  1  0
  5 17  1  0
  7 18  1  0
  8 19  1  0
  8 20  1  0
  9 21  1  0
M  END
