
     RDKit          3D

 21 22  0  0  0  0  0  0  0  0999 V2000
   -3.3154   -0.1219   -0.0075 C   0  0  0  0  0  0  0  0  0  0  0  0
   -1.9021    0.3211    0.2311 C   0  0  0  0  0  0  0  0  0  0  0  0
   -0.9858   -0.7147    0.8185 C   0  0  0  0  0  0  0  0  0  0  0  0
    0.0031    0.1182   -0.0083 C   0  0  0  0  0  0  0  0  0  0  0  0
    1.0828   -0.7150   -0.6154 C   0  0  0  0  0  0  0  0  0  0  0  0
    1.6274   -0.0389   -1.8111 O   0  0  0  0  0  0  0  0  0  0  0  0
    2.4747   -0.3681   -0.6293 C   0  0  0  0  0  0  0  0  0  0  0  0
    3.0393    0.8910   -0.0583 C   0  0  0  0  0  0  0  0  0  0  0  0
   -1.0784    0.3546   -0.8901 O   0  0  0  0  0  0  0  0  0  0  0  0
   -3.7466   -0.4588    0.9712 H   0  0  0  0  0  0  0  0  0  0  0  0
   -3.8876    0.7850   -0.3390 H   0  0  0  0  0  0  0  0  0  0  0  0
   -3.4081   -0.9058   -0.7703 H   0  0  0  0  0  0  0  0  0  0  0  0
   -1.9051    1.2634    0.8281 H   0  0  0  0  0  0  0  0  0  0  0  0
   -1.1641   -1.7114    0.3723 H   0  0  0  0  0  0  0  0  0  0  0  0
   -0.8039   -0.6688    1.8915 H   0  0  0  0  0  0  0  0  0  0  0  0
    0.3049    1.0313    0.5096 H   0  0  0  0  0  0  0  0  0  0  0  0
    0.7807   -1.7290   -0.9022 H   0  0  0  0  0  0  0  0  0  0  0  0
    3.2130   -1.1157   -0.9294 H   0  0  0  0  0  0  0  0  0  0  0  0
    4.0439    1.1030   -0.5230 H   0  0  0  0  0  0  0  0  0  0  0  0
    3.1985    0.8804    1.0196 H   0  0  0  0  0  0  0  0  0  0  0  0
    2.4287    1.8001   -0.3014 H   0  0  0  0  0  0  0  0  0  0  0  0
  1  2  1  0
  2  3  1  0
  3  4  1  0
  4  5  1  0
  5  6  1  0
  6  7  1  0
  7  8  1  0
  4  9  1  0
  9  2  1  0
  7  5  1  0
  1 10  1  0
  1 11  1  0
  1 12  1  0
  2 13  1  0
  3 14  1  0
  3 15  1  0
  4 16  1  0
  5 17  1  0
  7 18  1  0
  8 19  1  0
  8 20  1  0
  8 21  1  0
M  END
