
     RDKit          3D

 21 21  0  0  0  0  0  0  0  0999 V2000
   -2.2846    0.9209   -0.2614 C   0  0  0  0  0  0  0  0  0  0  0  0
   -1.2549    0.1872    0.5317 C   0  0  0  0  0  0  0  0  0  0  0  0
   -1.1597   -1.2318    0.0148 C   0  0  0  0  0  0  0  0  0  0  0  0
    0.2896   -1.3924   -0.3802 C   0  0  0  0  0  0  0  0  0  0  0  0
    0.7274   -2.1518   -1.2287 O   0  0  0  0  0  0  0  0  0  0  0  0
    1.0034   -0.4384    0.4849 C   0  0  0  0  0  0  0  0  0  0  0  0
    2.4103   -0.1708    0.0644 C   0  0  0  0  0  0  0  0  0  0  0  0
    2.9522    0.7491    0.9790 O   0  0  0  0  0  0  0  0  0  0  0  0
    0.1238    0.7823    0.4413 C   0  0  0  0  0  0  0  0  0  0  0  0
   -1.8904    1.4234   -1.1612 H   0  0  0  0  0  0  0  0  0  0  0  0
   -3.0263    0.1629   -0.6505 H   0  0  0  0  0  0  0  0  0  0  0  0
   -2.9132    1.6060    0.3718 H   0  0  0  0  0  0  0  0  0  0  0  0
   -1.5405    0.2149    1.6170 H   0  0  0  0  0  0  0  0  0  0  0  0
   -1.8365   -1.4518   -0.8076 H   0  0  0  0  0  0  0  0  0  0  0  0
   -1.3354   -1.9240    0.8777 H   0  0  0  0  0  0  0  0  0  0  0  0
    1.0174   -0.8197    1.5232 H   0  0  0  0  0  0  0  0  0  0  0  0
    2.5168    0.2086   -0.9544 H   0  0  0  0  0  0  0  0  0  0  0  0
    2.9890   -1.0949    0.1571 H   0  0  0  0  0  0  0  0  0  0  0  0
    2.5632    1.6511    0.8597 H   0  0  0  0  0  0  0  0  0  0  0  0
    0.2646    1.3739   -0.4894 H   0  0  0  0  0  0  0  0  0  0  0  0
    0.3837    1.3951    1.3304 H   0  0  0  0  0  0  0  0  0  0  0  0
  1  2  1  0
  2  3  1  0
  3  4  1  0
  4  5  2  0
  4  6  1  0
  6  7  1  0
  7  8  1  0
  6  9  1  0
  9  2  1  0
  1 10  1  0
  1 11  1  0
  1 12  1  0
  2 13  1  0
  3 14  1  0
  3 15  1  0
  6 16  1  0
  7 17  1  0
  7 18  1  0
  8 19  1  0
  9 20  1  0
  9 21  1  0
M  END
