
     RDKit          3D

 23 24  0  0  0  0  0  0  0  0999 V2000
    1.4584   -1.3549    0.2077 C   0  0  0  0  0  0  0  0  0  0  0  0
    0.6947   -0.3772   -0.6559 C   0  0  0  0  0  0  0  0  0  0  0  0
   -0.5342   -1.1069   -1.1939 C   0  0  0  0  0  0  0  0  0  0  0  0
   -1.6104   -0.4829   -0.3745 C   0  0  0  0  0  0  0  0  0  0  0  0
   -1.3021   -0.6859    1.0836 C   0  0  0  0  0  0  0  0  0  0  0  0
   -0.3269    0.1475    1.4557 C   0  0  0  0  0  0  0  0  0  0  0  0
    0.1625    0.7509    0.2092 C   0  0  0  0  0  0  0  0  0  0  0  0
    1.0105    1.9249    0.3164 C   0  0  0  0  0  0  0  0  0  0  0  0
   -1.1839    0.9950   -0.4964 C   0  0  0  0  0  0  0  0  0  0  0  0
    1.7594   -0.8488    1.1631 H   0  0  0  0  0  0  0  0  0  0  0  0
    0.8556   -2.2518    0.4723 H   0  0  0  0  0  0  0  0  0  0  0  0
    2.4110   -1.6456   -0.2906 H   0  0  0  0  0  0  0  0  0  0  0  0
    1.3397    0.0030   -1.4687 H   0  0  0  0  0  0  0  0  0  0  0  0
   -0.6276   -0.7759   -2.2617 H   0  0  0  0  0  0  0  0  0  0  0  0
   -0.4538   -2.1916   -1.1019 H   0  0  0  0  0  0  0  0  0  0  0  0
   -2.6212   -0.6633   -0.6510 H   0  0  0  0  0  0  0  0  0  0  0  0
   -1.8375   -1.4200    1.6744 H   0  0  0  0  0  0  0  0  0  0  0  0
    0.0151    0.3280    2.4505 H   0  0  0  0  0  0  0  0  0  0  0  0
    0.7749    2.5062    1.2171 H   0  0  0  0  0  0  0  0  0  0  0  0
    2.0791    1.6336    0.2495 H   0  0  0  0  0  0  0  0  0  0  0  0
    0.8368    2.5983   -0.5665 H   0  0  0  0  0  0  0  0  0  0  0  0
   -1.8479    1.6232    0.0958 H   0  0  0  0  0  0  0  0  0  0  0  0
   -1.0522    1.2943   -1.5339 H   0  0  0  0  0  0  0  0  0  0  0  0
  1  2  1  0
  2  3  1  0
  3  4  1  0
  4  5  1  0
  5  6  2  0
  6  7  1  0
  7  8  1  0
  7  9  1  0
  7  2  1  0
  9  4  1  0
  1 10  1  0
  1 11  1  0
  1 12  1  0
  2 13  1  0
  3 14  1  0
  3 15  1  0
  4 16  1  0
  5 17  1  0
  6 18  1  0
  8 19  1  0
  8 20  1  0
  8 21  1  0
  9 22  1  0
  9 23  1  0
M  END
