
     RDKit          3D

 21 22  0  0  0  0  0  0  0  0999 V2000
   -0.9534   -1.8643   -0.2386 C   0  0  0  0  0  0  0  0  0  0  0  0
   -0.4780   -0.5405   -0.7709 C   0  0  0  0  0  0  0  0  0  0  0  0
   -1.6430    0.4096   -0.6961 C   0  0  0  0  0  0  0  0  0  0  0  0
   -1.3970    1.6060   -0.1537 C   0  0  0  0  0  0  0  0  0  0  0  0
   -0.1453    1.7059    0.6521 C   0  0  0  0  0  0  0  0  0  0  0  0
    1.0458    1.3790   -0.2161 C   0  0  0  0  0  0  0  0  0  0  0  0
    0.6060   -0.0088    0.1196 C   0  0  0  0  0  0  0  0  0  0  0  0
    1.7941   -0.9246    0.2715 C   0  0  0  0  0  0  0  0  0  0  0  0
    0.0630    0.4703    1.2986 O   0  0  0  0  0  0  0  0  0  0  0  0
   -0.6579   -2.6972   -0.9209 H   0  0  0  0  0  0  0  0  0  0  0  0
   -0.6022   -2.0160    0.7972 H   0  0  0  0  0  0  0  0  0  0  0  0
   -2.0713   -1.9123   -0.1885 H   0  0  0  0  0  0  0  0  0  0  0  0
   -0.1712   -0.5916   -1.8365 H   0  0  0  0  0  0  0  0  0  0  0  0
   -2.6217    0.1227   -1.0668 H   0  0  0  0  0  0  0  0  0  0  0  0
   -2.0430    2.4622   -0.2732 H   0  0  0  0  0  0  0  0  0  0  0  0
   -0.0395    2.5887    1.2776 H   0  0  0  0  0  0  0  0  0  0  0  0
    1.9734    1.6358    0.3121 H   0  0  0  0  0  0  0  0  0  0  0  0
    0.9670    1.6490   -1.2705 H   0  0  0  0  0  0  0  0  0  0  0  0
    1.6961   -1.7372   -0.4780 H   0  0  0  0  0  0  0  0  0  0  0  0
    1.9212   -1.3352    1.2727 H   0  0  0  0  0  0  0  0  0  0  0  0
    2.7571   -0.4016    0.0022 H   0  0  0  0  0  0  0  0  0  0  0  0
  1  2  1  0
  2  3  1  0
  3  4  2  0
  4  5  1  0
  5  6  1  0
  6  7  1  0
  7  8  1  0
  7  9  1  0
  7  2  1  0
  9  5  1  0
  1 10  1  0
  1 11  1  0
  1 12  1  0
  2 13  1  0
  3 14  1  0
  4 15  1  0
  5 16  1  0
  6 17  1  0
  6 18  1  0
  8 19  1  0
  8 20  1  0
  8 21  1  0
M  END
