
     RDKit          3D

 21 22  0  0  0  0  0  0  0  0999 V2000
    1.8117    0.0357    0.7336 C   0  0  0  0  0  0  0  0  0  0  0  0
    1.0337    0.1244   -0.5397 C   0  0  0  0  0  0  0  0  0  0  0  0
   -0.0298    1.1409   -0.7446 C   0  0  0  0  0  0  0  0  0  0  0  0
   -0.1355    2.2689    0.2878 C   0  0  0  0  0  0  0  0  0  0  0  0
   -0.4417   -0.1520   -0.3750 C   0  0  0  0  0  0  0  0  0  0  0  0
   -1.0634   -1.2388   -1.1431 C   0  0  0  0  0  0  0  0  0  0  0  0
   -1.1400   -1.9829    0.1985 C   0  0  0  0  0  0  0  0  0  0  0  0
   -0.9920   -0.6540    0.8573 C   0  0  0  0  0  0  0  0  0  0  0  0
   -1.2412   -0.2194    1.9644 O   0  0  0  0  0  0  0  0  0  0  0  0
    2.6587    0.7520    0.7396 H   0  0  0  0  0  0  0  0  0  0  0  0
    1.1802    0.1131    1.6267 H   0  0  0  0  0  0  0  0  0  0  0  0
    2.2559   -1.0029    0.7680 H   0  0  0  0  0  0  0  0  0  0  0  0
    1.4969   -0.3799   -1.4326 H   0  0  0  0  0  0  0  0  0  0  0  0
   -0.1250    1.5285   -1.7809 H   0  0  0  0  0  0  0  0  0  0  0  0
   -1.2394    2.4879    0.3514 H   0  0  0  0  0  0  0  0  0  0  0  0
    0.2089    1.8707    1.2637 H   0  0  0  0  0  0  0  0  0  0  0  0
    0.3897    3.1634   -0.0409 H   0  0  0  0  0  0  0  0  0  0  0  0
   -0.3423   -1.6981   -1.8607 H   0  0  0  0  0  0  0  0  0  0  0  0
   -2.0224   -1.0787   -1.6325 H   0  0  0  0  0  0  0  0  0  0  0  0
   -2.0696   -2.5150    0.3788 H   0  0  0  0  0  0  0  0  0  0  0  0
   -0.1934   -2.5640    0.3801 H   0  0  0  0  0  0  0  0  0  0  0  0
  1  2  1  0
  2  3  1  0
  3  4  1  0
  3  5  1  0
  5  6  1  0
  6  7  1  0
  7  8  1  0
  8  9  2  0
  5  2  1  0
  8  5  1  0
  1 10  1  0
  1 11  1  0
  1 12  1  0
  2 13  1  0
  3 14  1  0
  4 15  1  0
  4 16  1  0
  4 17  1  0
  6 18  1  0
  6 19  1  0
  7 20  1  0
  7 21  1  0
M  END
