
     RDKit          3D

 23 24  0  0  0  0  0  0  0  0999 V2000
    2.3063   -0.1081   -0.5968 C   0  0  0  0  0  0  0  0  0  0  0  0
    1.1288    0.0526    0.2880 C   0  0  0  0  0  0  0  0  0  0  0  0
    0.3873    1.3646    0.0324 C   0  0  0  0  0  0  0  0  0  0  0  0
   -1.0316    1.1287    0.5459 C   0  0  0  0  0  0  0  0  0  0  0  0
   -1.7779    0.3951   -0.5372 C   0  0  0  0  0  0  0  0  0  0  0  0
   -0.8757   -0.7412   -1.0026 C   0  0  0  0  0  0  0  0  0  0  0  0
    0.0922   -1.0478    0.1383 C   0  0  0  0  0  0  0  0  0  0  0  0
   -0.7299   -0.9898    1.4331 C   0  0  0  0  0  0  0  0  0  0  0  0
   -1.0276    0.3372    1.6885 O   0  0  0  0  0  0  0  0  0  0  0  0
    2.1862   -0.8092   -1.4316 H   0  0  0  0  0  0  0  0  0  0  0  0
    2.5369    0.9106   -1.0283 H   0  0  0  0  0  0  0  0  0  0  0  0
    3.2492   -0.3745   -0.0372 H   0  0  0  0  0  0  0  0  0  0  0  0
    1.4674    0.0518    1.3394 H   0  0  0  0  0  0  0  0  0  0  0  0
    0.8763    2.2130    0.5185 H   0  0  0  0  0  0  0  0  0  0  0  0
    0.3470    1.4702   -1.0809 H   0  0  0  0  0  0  0  0  0  0  0  0
   -1.5280    2.0756    0.8087 H   0  0  0  0  0  0  0  0  0  0  0  0
   -1.9201    1.1219   -1.3739 H   0  0  0  0  0  0  0  0  0  0  0  0
   -2.7738    0.0504   -0.2351 H   0  0  0  0  0  0  0  0  0  0  0  0
   -1.5084   -1.6216   -1.1502 H   0  0  0  0  0  0  0  0  0  0  0  0
   -0.3360   -0.4814   -1.9384 H   0  0  0  0  0  0  0  0  0  0  0  0
    0.5381   -2.0256   -0.0289 H   0  0  0  0  0  0  0  0  0  0  0  0
   -0.0192   -1.3143    2.2360 H   0  0  0  0  0  0  0  0  0  0  0  0
   -1.5874   -1.6581    1.4124 H   0  0  0  0  0  0  0  0  0  0  0  0
  1  2  1  0
  2  3  1  0
  3  4  1  0
  4  5  1  0
  5  6  1  0
  6  7  1  0
  7  8  1  0
  8  9  1  0
  7  2  1  0
  9  4  1  0
  1 10  1  0
  1 11  1  0
  1 12  1  0
  2 13  1  0
  3 14  1  0
  3 15  1  0
  4 16  1  0
  5 17  1  0
  5 18  1  0
  6 19  1  0
  6 20  1  0
  7 21  1  0
  8 22  1  0
  8 23  1  0
M  END
