
     RDKit          3D

 23 23  0  0  0  0  0  0  0  0999 V2000
   -0.9213    1.7782   -0.6865 C   0  0  0  0  0  0  0  0  0  0  0  0
   -0.9184    0.7529    0.4272 C   0  0  0  0  0  0  0  0  0  0  0  0
   -1.1122   -0.6572    0.0104 C   0  0  0  0  0  0  0  0  0  0  0  0
   -1.9629   -1.5933    0.8464 C   0  0  0  0  0  0  0  0  0  0  0  0
   -1.9554   -2.8325    0.2068 O   0  0  0  0  0  0  0  0  0  0  0  0
    0.1551   -0.2037    0.6608 C   0  0  0  0  0  0  0  0  0  0  0  0
    1.4001   -0.3357   -0.1410 C   0  0  0  0  0  0  0  0  0  0  0  0
    2.1996    0.9383   -0.0975 C   0  0  0  0  0  0  0  0  0  0  0  0
    3.3646    0.7348   -0.8771 O   0  0  0  0  0  0  0  0  0  0  0  0
   -0.4816    2.7417   -0.3610 H   0  0  0  0  0  0  0  0  0  0  0  0
   -0.3639    1.4206   -1.5743 H   0  0  0  0  0  0  0  0  0  0  0  0
   -1.9819    2.0485   -0.9688 H   0  0  0  0  0  0  0  0  0  0  0  0
   -1.5549    1.0366    1.3178 H   0  0  0  0  0  0  0  0  0  0  0  0
   -1.1536   -0.8627   -1.0667 H   0  0  0  0  0  0  0  0  0  0  0  0
   -2.9996   -1.2177    0.9496 H   0  0  0  0  0  0  0  0  0  0  0  0
   -1.4963   -1.7749    1.8551 H   0  0  0  0  0  0  0  0  0  0  0  0
   -1.0176   -2.9816   -0.1101 H   0  0  0  0  0  0  0  0  0  0  0  0
    0.3178   -0.5103    1.7447 H   0  0  0  0  0  0  0  0  0  0  0  0
    2.0492   -1.1424    0.2997 H   0  0  0  0  0  0  0  0  0  0  0  0
    1.2168   -0.6799   -1.1819 H   0  0  0  0  0  0  0  0  0  0  0  0
    1.7010    1.8255   -0.4823 H   0  0  0  0  0  0  0  0  0  0  0  0
    2.4925    1.1756    0.9601 H   0  0  0  0  0  0  0  0  0  0  0  0
    3.0232    0.3392   -1.7314 H   0  0  0  0  0  0  0  0  0  0  0  0
  1  2  1  0
  2  3  1  0
  3  4  1  0
  4  5  1  0
  3  6  1  0
  6  7  1  0
  7  8  1  0
  8  9  1  0
  6  2  1  0
  1 10  1  0
  1 11  1  0
  1 12  1  0
  2 13  1  0
  3 14  1  0
  4 15  1  0
  4 16  1  0
  5 17  1  0
  6 18  1  0
  7 19  1  0
  7 20  1  0
  8 21  1  0
  8 22  1  0
  9 23  1  0
M  END
