
     RDKit          3D

 23 24  0  0  0  0  0  0  0  0999 V2000
   -1.1166    1.7690   -0.1011 C   0  0  0  0  0  0  0  0  0  0  0  0
   -0.0481    0.7345   -0.3955 C   0  0  0  0  0  0  0  0  0  0  0  0
    1.2001    1.1317    0.3259 C   0  0  0  0  0  0  0  0  0  0  0  0
    2.1574    0.0177    0.5906 C   0  0  0  0  0  0  0  0  0  0  0  0
    1.8035   -1.2607   -0.0347 C   0  0  0  0  0  0  0  0  0  0  0  0
    0.5702   -1.6114   -0.3845 C   0  0  0  0  0  0  0  0  0  0  0  0
   -0.5066   -0.6537   -0.1263 C   0  0  0  0  0  0  0  0  0  0  0  0
   -1.9174   -0.9837   -0.4900 C   0  0  0  0  0  0  0  0  0  0  0  0
   -1.4913   -0.9911    0.9172 C   0  0  0  0  0  0  0  0  0  0  0  0
   -0.6172    2.7679   -0.2730 H   0  0  0  0  0  0  0  0  0  0  0  0
   -1.4010    1.7072    0.9660 H   0  0  0  0  0  0  0  0  0  0  0  0
   -1.9602    1.7360   -0.7942 H   0  0  0  0  0  0  0  0  0  0  0  0
    0.1507    0.8112   -1.4975 H   0  0  0  0  0  0  0  0  0  0  0  0
    0.9194    1.5754    1.3078 H   0  0  0  0  0  0  0  0  0  0  0  0
    1.6750    1.9525   -0.2516 H   0  0  0  0  0  0  0  0  0  0  0  0
    2.2852   -0.1770    1.6905 H   0  0  0  0  0  0  0  0  0  0  0  0
    3.1574    0.3234    0.2193 H   0  0  0  0  0  0  0  0  0  0  0  0
    2.6253   -1.9707   -0.2219 H   0  0  0  0  0  0  0  0  0  0  0  0
    0.3759   -2.5801   -0.8469 H   0  0  0  0  0  0  0  0  0  0  0  0
   -2.0370   -1.9195   -1.0771 H   0  0  0  0  0  0  0  0  0  0  0  0
   -2.6246   -0.1927   -0.7974 H   0  0  0  0  0  0  0  0  0  0  0  0
   -1.8237   -0.1916    1.5801 H   0  0  0  0  0  0  0  0  0  0  0  0
   -1.3764   -1.9942    1.4103 H   0  0  0  0  0  0  0  0  0  0  0  0
  1  2  1  0
  2  3  1  0
  3  4  1  0
  4  5  1  0
  5  6  2  0
  6  7  1  0
  7  8  1  0
  8  9  1  0
  7  2  1  0
  9  7  1  0
  1 10  1  0
  1 11  1  0
  1 12  1  0
  2 13  1  0
  3 14  1  0
  3 15  1  0
  4 16  1  0
  4 17  1  0
  5 18  1  0
  6 19  1  0
  8 20  1  0
  8 21  1  0
  9 22  1  0
  9 23  1  0
M  END
