
     RDKit          3D

 23 24  0  0  0  0  0  0  0  0999 V2000
   -2.3681   -0.8767   -0.0295 C   0  0  0  0  0  0  0  0  0  0  0  0
   -1.0142   -0.3172   -0.3350 C   0  0  0  0  0  0  0  0  0  0  0  0
   -0.0168   -0.8871    0.5879 C   0  0  0  0  0  0  0  0  0  0  0  0
    1.3090   -0.1335    0.6640 C   0  0  0  0  0  0  0  0  0  0  0  0
    2.2621   -0.5323   -0.4008 C   0  0  0  0  0  0  0  0  0  0  0  0
    0.9886    1.2973    0.7616 C   0  0  0  0  0  0  0  0  0  0  0  0
    1.2256    2.3479    0.0138 O   0  0  0  0  0  0  0  0  0  0  0  0
    0.3633    1.5935   -0.6266 C   0  0  0  0  0  0  0  0  0  0  0  0
   -1.0434    1.2184   -0.3882 C   0  0  0  0  0  0  0  0  0  0  0  0
   -2.2363   -1.9302    0.2850 H   0  0  0  0  0  0  0  0  0  0  0  0
   -2.9638   -0.9072   -0.9773 H   0  0  0  0  0  0  0  0  0  0  0  0
   -2.9252   -0.3251    0.7423 H   0  0  0  0  0  0  0  0  0  0  0  0
   -0.7522   -0.6282   -1.3843 H   0  0  0  0  0  0  0  0  0  0  0  0
   -0.4130   -1.0866    1.6162 H   0  0  0  0  0  0  0  0  0  0  0  0
    0.2630   -1.9111    0.2015 H   0  0  0  0  0  0  0  0  0  0  0  0
    1.7596   -0.4549    1.6421 H   0  0  0  0  0  0  0  0  0  0  0  0
    2.7067   -1.5276   -0.0999 H   0  0  0  0  0  0  0  0  0  0  0  0
    1.7983   -0.7254   -1.3896 H   0  0  0  0  0  0  0  0  0  0  0  0
    3.0938    0.1705   -0.4290 H   0  0  0  0  0  0  0  0  0  0  0  0
    0.3497    1.5300    1.6657 H   0  0  0  0  0  0  0  0  0  0  0  0
    0.7974    1.0490   -1.4998 H   0  0  0  0  0  0  0  0  0  0  0  0
   -1.4378    1.5628    0.5879 H   0  0  0  0  0  0  0  0  0  0  0  0
   -1.7464    1.4737   -1.2079 H   0  0  0  0  0  0  0  0  0  0  0  0
  1  2  1  0
  2  3  1  0
  3  4  1  0
  4  5  1  0
  4  6  1  0
  6  7  1  0
  7  8  1  0
  8  9  1  0
  9  2  1  0
  8  6  1  0
  1 10  1  0
  1 11  1  0
  1 12  1  0
  2 13  1  0
  3 14  1  0
  3 15  1  0
  4 16  1  0
  5 17  1  0
  5 18  1  0
  5 19  1  0
  6 20  1  0
  8 21  1  0
  9 22  1  0
  9 23  1  0
M  END
