
     RDKit          3D

 25 25  0  0  0  0  0  0  0  0999 V2000
   -2.3630    1.0453    0.2892 C   0  0  0  0  0  0  0  0  0  0  0  0
   -1.6309   -0.1582    0.8087 C   0  0  0  0  0  0  0  0  0  0  0  0
   -1.6293   -1.1904   -0.3120 C   0  0  0  0  0  0  0  0  0  0  0  0
   -0.4842   -0.7596   -1.1726 C   0  0  0  0  0  0  0  0  0  0  0  0
    0.3331    0.2329   -0.4140 C   0  0  0  0  0  0  0  0  0  0  0  0
    1.8072   -0.1212   -0.5384 C   0  0  0  0  0  0  0  0  0  0  0  0
    2.6872    0.8403    0.2037 C   0  0  0  0  0  0  0  0  0  0  0  0
    2.0309   -1.4461   -0.1780 O   0  0  0  0  0  0  0  0  0  0  0  0
   -0.1614    0.0832    1.0029 C   0  0  0  0  0  0  0  0  0  0  0  0
   -3.0240    0.7744   -0.5847 H   0  0  0  0  0  0  0  0  0  0  0  0
   -3.0598    1.4874    1.0426 H   0  0  0  0  0  0  0  0  0  0  0  0
   -1.6894    1.8300   -0.0711 H   0  0  0  0  0  0  0  0  0  0  0  0
   -2.1357   -0.5332    1.7167 H   0  0  0  0  0  0  0  0  0  0  0  0
   -1.4645   -2.1990    0.1174 H   0  0  0  0  0  0  0  0  0  0  0  0
   -2.5775   -1.1327   -0.8926 H   0  0  0  0  0  0  0  0  0  0  0  0
   -0.8717   -0.2602   -2.0826 H   0  0  0  0  0  0  0  0  0  0  0  0
    0.1335   -1.6446   -1.3959 H   0  0  0  0  0  0  0  0  0  0  0  0
    0.2086    1.2686   -0.7335 H   0  0  0  0  0  0  0  0  0  0  0  0
    2.0578   -0.0426   -1.6178 H   0  0  0  0  0  0  0  0  0  0  0  0
    3.5607    1.1732   -0.4303 H   0  0  0  0  0  0  0  0  0  0  0  0
    2.1425    1.7976    0.4297 H   0  0  0  0  0  0  0  0  0  0  0  0
    3.1511    0.4049    1.1140 H   0  0  0  0  0  0  0  0  0  0  0  0
    2.6306   -1.5280    0.6050 H   0  0  0  0  0  0  0  0  0  0  0  0
    0.0805    0.9239    1.6544 H   0  0  0  0  0  0  0  0  0  0  0  0
    0.2676   -0.8457    1.4391 H   0  0  0  0  0  0  0  0  0  0  0  0
  1  2  1  0
  2  3  1  0
  3  4  1  0
  4  5  1  0
  5  6  1  0
  6  7  1  0
  6  8  1  0
  5  9  1  0
  9  2  1  0
  1 10  1  0
  1 11  1  0
  1 12  1  0
  2 13  1  0
  3 14  1  0
  3 15  1  0
  4 16  1  0
  4 17  1  0
  5 18  1  0
  6 19  1  0
  7 20  1  0
  7 21  1  0
  7 22  1  0
  8 23  1  0
  9 24  1  0
  9 25  1  0
M  END
