
     RDKit          3D

 19 19  0  0  0  0  0  0  0  0999 V2000
    1.8490   -0.8512   -0.3520 C   0  0  0  0  0  0  0  0  0  0  0  0
    0.6484   -0.3846    0.4320 C   0  0  0  0  0  0  0  0  0  0  0  0
    0.8815    0.9943    0.9313 C   0  0  0  0  0  0  0  0  0  0  0  0
    0.1807    1.8802    0.2450 C   0  0  0  0  0  0  0  0  0  0  0  0
   -0.6087    1.2069   -0.7986 C   0  0  0  0  0  0  0  0  0  0  0  0
   -1.1759    1.7360   -1.7921 O   0  0  0  0  0  0  0  0  0  0  0  0
   -0.5794   -0.2327   -0.4074 C   0  0  0  0  0  0  0  0  0  0  0  0
   -1.7707   -0.4483    0.5259 C   0  0  0  0  0  0  0  0  0  0  0  0
   -0.6331   -1.0702   -1.4946 O   0  0  0  0  0  0  0  0  0  0  0  0
    2.4593    0.0167   -0.6827 H   0  0  0  0  0  0  0  0  0  0  0  0
    1.5607   -1.5142   -1.2104 H   0  0  0  0  0  0  0  0  0  0  0  0
    2.4937   -1.4642    0.3276 H   0  0  0  0  0  0  0  0  0  0  0  0
    0.4775   -1.0883    1.2646 H   0  0  0  0  0  0  0  0  0  0  0  0
    1.5446    1.2725    1.7614 H   0  0  0  0  0  0  0  0  0  0  0  0
    0.1716    2.9505    0.4075 H   0  0  0  0  0  0  0  0  0  0  0  0
   -1.6208    0.2913    1.3577 H   0  0  0  0  0  0  0  0  0  0  0  0
   -2.7217   -0.2489    0.0270 H   0  0  0  0  0  0  0  0  0  0  0  0
   -1.6642   -1.4683    0.9259 H   0  0  0  0  0  0  0  0  0  0  0  0
   -1.4923   -1.5777   -1.4679 H   0  0  0  0  0  0  0  0  0  0  0  0
  1  2  1  0
  2  3  1  0
  3  4  2  0
  4  5  1  0
  5  6  2  0
  5  7  1  0
  7  8  1  0
  7  9  1  0
  7  2  1  0
  1 10  1  0
  1 11  1  0
  1 12  1  0
  2 13  1  0
  3 14  1  0
  4 15  1  0
  8 16  1  0
  8 17  1  0
  8 18  1  0
  9 19  1  0
M  END
