
     RDKit          3D

 23 24  0  0  0  0  0  0  0  0999 V2000
    1.4701    0.3010   -1.3086 C   0  0  0  0  0  0  0  0  0  0  0  0
    1.2258    0.4109    0.1477 C   0  0  0  0  0  0  0  0  0  0  0  0
    0.7867   -0.8211    0.8702 C   0  0  0  0  0  0  0  0  0  0  0  0
   -0.1448   -1.5993   -0.0201 C   0  0  0  0  0  0  0  0  0  0  0  0
   -1.3413   -0.8218   -0.4314 C   0  0  0  0  0  0  0  0  0  0  0  0
   -1.2523    0.6498   -0.1932 C   0  0  0  0  0  0  0  0  0  0  0  0
   -1.3722    1.4016   -1.3718 O   0  0  0  0  0  0  0  0  0  0  0  0
   -0.0543    1.0549    0.5962 C   0  0  0  0  0  0  0  0  0  0  0  0
    0.0097    0.1107    1.8080 C   0  0  0  0  0  0  0  0  0  0  0  0
    2.2465   -0.4686   -1.4940 H   0  0  0  0  0  0  0  0  0  0  0  0
    0.6138    0.0657   -1.9287 H   0  0  0  0  0  0  0  0  0  0  0  0
    1.8968    1.2600   -1.6692 H   0  0  0  0  0  0  0  0  0  0  0  0
    2.0847    0.9053    0.6619 H   0  0  0  0  0  0  0  0  0  0  0  0
    1.5326   -1.3977    1.4043 H   0  0  0  0  0  0  0  0  0  0  0  0
    0.4514   -1.9134   -0.9216 H   0  0  0  0  0  0  0  0  0  0  0  0
   -0.4520   -2.5609    0.4610 H   0  0  0  0  0  0  0  0  0  0  0  0
   -1.5227   -0.9601   -1.5386 H   0  0  0  0  0  0  0  0  0  0  0  0
   -2.2610   -1.2837    0.0361 H   0  0  0  0  0  0  0  0  0  0  0  0
   -2.1586    0.9359    0.4202 H   0  0  0  0  0  0  0  0  0  0  0  0
   -1.4583    2.3559   -1.0546 H   0  0  0  0  0  0  0  0  0  0  0  0
   -0.0311    2.1102    0.8486 H   0  0  0  0  0  0  0  0  0  0  0  0
   -0.9586   -0.2673    2.1323 H   0  0  0  0  0  0  0  0  0  0  0  0
    0.6893    0.5320    2.5454 H   0  0  0  0  0  0  0  0  0  0  0  0
  1  2  1  0
  2  3  1  0
  3  4  1  0
  4  5  1  0
  5  6  1  0
  6  7  1  0
  6  8  1  0
  8  9  1  0
  8  2  1  0
  9  3  1  0
  1 10  1  0
  1 11  1  0
  1 12  1  0
  2 13  1  0
  3 14  1  0
  4 15  1  0
  4 16  1  0
  5 17  1  0
  5 18  1  0
  6 19  1  0
  7 20  1  0
  8 21  1  0
  9 22  1  0
  9 23  1  0
M  END
