
     RDKit          3D

 17 18  0  0  0  0  0  0  0  0999 V2000
   -1.8566   -0.0959   -0.5431 C   0  0  0  0  0  0  0  0  0  0  0  0
   -0.4750    0.4944   -0.4744 C   0  0  0  0  0  0  0  0  0  0  0  0
    0.0161    0.7417    0.9352 C   0  0  0  0  0  0  0  0  0  0  0  0
    0.9740    1.7682    1.1409 O   0  0  0  0  0  0  0  0  0  0  0  0
    1.9227    1.6069    0.1542 C   0  0  0  0  0  0  0  0  0  0  0  0
    2.6429    2.4959   -0.3988 O   0  0  0  0  0  0  0  0  0  0  0  0
    1.9496    0.2411   -0.1375 O   0  0  0  0  0  0  0  0  0  0  0  0
    0.6618   -0.2728    0.0631 C   0  0  0  0  0  0  0  0  0  0  0  0
    0.4755   -1.7403    0.3758 C   0  0  0  0  0  0  0  0  0  0  0  0
   -1.9296   -1.0059   -1.1465 H   0  0  0  0  0  0  0  0  0  0  0  0
   -2.5323    0.7276   -0.9206 H   0  0  0  0  0  0  0  0  0  0  0  0
   -2.2675   -0.3497    0.4679 H   0  0  0  0  0  0  0  0  0  0  0  0
   -0.2107    1.2618   -1.2490 H   0  0  0  0  0  0  0  0  0  0  0  0
   -0.5975    0.4121    1.7957 H   0  0  0  0  0  0  0  0  0  0  0  0
    0.9888   -2.3576   -0.3817 H   0  0  0  0  0  0  0  0  0  0  0  0
    0.8627   -2.0058    1.3850 H   0  0  0  0  0  0  0  0  0  0  0  0
   -0.6248   -1.9216    0.4119 H   0  0  0  0  0  0  0  0  0  0  0  0
  1  2  1  0
  2  3  1  0
  3  4  1  0
  4  5  1  0
  5  6  2  0
  5  7  1  0
  7  8  1  0
  8  9  1  0
  8  2  1  0
  8  3  1  0
  1 10  1  0
  1 11  1  0
  1 12  1  0
  2 13  1  0
  3 14  1  0
  9 15  1  0
  9 16  1  0
  9 17  1  0
M  END
