
     RDKit          3D

 19 20  0  0  0  0  0  0  0  0999 V2000
    2.2365    0.5977   -0.1402 C   0  0  0  0  0  0  0  0  0  0  0  0
    0.9852   -0.1386   -0.6166 C   0  0  0  0  0  0  0  0  0  0  0  0
    0.5664   -1.1847    0.3876 C   0  0  0  0  0  0  0  0  0  0  0  0
   -0.3254   -0.1416    1.0270 C   0  0  0  0  0  0  0  0  0  0  0  0
   -1.6022   -0.6108    1.1517 O   0  0  0  0  0  0  0  0  0  0  0  0
   -2.4124   -0.0616    0.1997 C   0  0  0  0  0  0  0  0  0  0  0  0
   -1.4965    0.2450   -0.9226 C   0  0  0  0  0  0  0  0  0  0  0  0
   -1.7511    0.1775   -2.0990 O   0  0  0  0  0  0  0  0  0  0  0  0
   -0.2322    0.6420   -0.2682 C   0  0  0  0  0  0  0  0  0  0  0  0
    2.8009    0.9949   -0.9987 H   0  0  0  0  0  0  0  0  0  0  0  0
    1.9754    1.3804    0.6123 H   0  0  0  0  0  0  0  0  0  0  0  0
    2.8536   -0.1528    0.4329 H   0  0  0  0  0  0  0  0  0  0  0  0
    1.0226   -0.4719   -1.6653 H   0  0  0  0  0  0  0  0  0  0  0  0
    1.4000   -1.5423    1.0538 H   0  0  0  0  0  0  0  0  0  0  0  0
    0.0067   -2.0213   -0.0945 H   0  0  0  0  0  0  0  0  0  0  0  0
    0.1041    0.3841    1.8898 H   0  0  0  0  0  0  0  0  0  0  0  0
   -2.8045    0.9069    0.6087 H   0  0  0  0  0  0  0  0  0  0  0  0
   -3.2408   -0.7359   -0.0859 H   0  0  0  0  0  0  0  0  0  0  0  0
   -0.0864    1.7331   -0.1408 H   0  0  0  0  0  0  0  0  0  0  0  0
  1  2  1  0
  2  3  1  0
  3  4  1  0
  4  5  1  0
  5  6  1  0
  6  7  1  0
  7  8  2  0
  7  9  1  0
  9  2  1  0
  9  4  1  0
  1 10  1  0
  1 11  1  0
  1 12  1  0
  2 13  1  0
  3 14  1  0
  3 15  1  0
  4 16  1  0
  6 17  1  0
  6 18  1  0
  9 19  1  0
M  END
