
     RDKit          3D

 16 16  0  0  0  0  0  0  0  0999 V2000
   -1.2293   -0.8826    0.4270 C   0  0  0  0  0  0  0  0  0  0  0  0
   -0.3554   -0.3413   -0.6835 C   0  0  0  0  0  0  0  0  0  0  0  0
   -0.7296    1.1292   -0.8467 C   0  0  0  0  0  0  0  0  0  0  0  0
   -0.3112    1.6207    0.4367 O   0  0  0  0  0  0  0  0  0  0  0  0
    0.8412    0.9474    0.8197 C   0  0  0  0  0  0  0  0  0  0  0  0
    1.6153    1.2077    1.7774 O   0  0  0  0  0  0  0  0  0  0  0  0
    1.0437   -0.1912   -0.1157 C   0  0  0  0  0  0  0  0  0  0  0  0
    1.4939   -1.3281    0.5035 O   0  0  0  0  0  0  0  0  0  0  0  0
   -0.9072   -0.3305    1.3568 H   0  0  0  0  0  0  0  0  0  0  0  0
   -1.0385   -1.9608    0.6256 H   0  0  0  0  0  0  0  0  0  0  0  0
   -2.3097   -0.7016    0.2129 H   0  0  0  0  0  0  0  0  0  0  0  0
   -0.4030   -0.9012   -1.6053 H   0  0  0  0  0  0  0  0  0  0  0  0
   -1.7969    1.2700   -1.0076 H   0  0  0  0  0  0  0  0  0  0  0  0
   -0.0905    1.5168   -1.6583 H   0  0  0  0  0  0  0  0  0  0  0  0
    1.7314    0.1868   -0.9149 H   0  0  0  0  0  0  0  0  0  0  0  0
    2.4457   -1.2413    0.6723 H   0  0  0  0  0  0  0  0  0  0  0  0
  1  2  1  0
  2  3  1  0
  3  4  1  0
  4  5  1  0
  5  6  2  0
  5  7  1  0
  7  8  1  0
  7  2  1  0
  1  9  1  0
  1 10  1  0
  1 11  1  0
  2 12  1  0
  3 13  1  0
  3 14  1  0
  7 15  1  0
  8 16  1  0
M  END
