
     RDKit          3D

 21 21  0  0  0  0  0  0  0  0999 V2000
    1.6971   -1.1891   -0.3844 C   0  0  0  0  0  0  0  0  0  0  0  0
    0.6603   -0.1507   -0.6631 C   0  0  0  0  0  0  0  0  0  0  0  0
   -0.6697   -0.1576   -0.0790 C   0  0  0  0  0  0  0  0  0  0  0  0
   -1.7712    0.5000   -0.9187 C   0  0  0  0  0  0  0  0  0  0  0  0
   -1.1868   -1.2907    0.7930 C   0  0  0  0  0  0  0  0  0  0  0  0
    0.2933    0.7373    0.5857 C   0  0  0  0  0  0  0  0  0  0  0  0
    0.9888    0.3192    1.7139 O   0  0  0  0  0  0  0  0  0  0  0  0
    0.4719    2.1572    0.1940 C   0  0  0  0  0  0  0  0  0  0  0  0
   -0.4788    2.7773   -0.2550 O   0  0  0  0  0  0  0  0  0  0  0  0
    1.6829   -1.9055   -1.2592 H   0  0  0  0  0  0  0  0  0  0  0  0
    2.7106   -0.7134   -0.4200 H   0  0  0  0  0  0  0  0  0  0  0  0
    1.5896   -1.7394    0.5474 H   0  0  0  0  0  0  0  0  0  0  0  0
    0.8047    0.3534   -1.6291 H   0  0  0  0  0  0  0  0  0  0  0  0
   -2.3913    1.1760   -0.3152 H   0  0  0  0  0  0  0  0  0  0  0  0
   -2.4414   -0.2674   -1.3414 H   0  0  0  0  0  0  0  0  0  0  0  0
   -1.3106    1.1253   -1.7262 H   0  0  0  0  0  0  0  0  0  0  0  0
   -1.9295   -0.8210    1.4830 H   0  0  0  0  0  0  0  0  0  0  0  0
   -1.7316   -2.0451    0.2027 H   0  0  0  0  0  0  0  0  0  0  0  0
   -0.3720   -1.7144    1.4125 H   0  0  0  0  0  0  0  0  0  0  0  0
    1.9153    0.2697    1.7336 H   0  0  0  0  0  0  0  0  0  0  0  0
    1.4685    2.5787    0.3253 H   0  0  0  0  0  0  0  0  0  0  0  0
  1  2  1  0
  2  3  1  0
  3  4  1  0
  3  5  1  0
  3  6  1  0
  6  7  1  0
  6  8  1  0
  8  9  2  0
  6  2  1  0
  1 10  1  0
  1 11  1  0
  1 12  1  0
  2 13  1  0
  4 14  1  0
  4 15  1  0
  4 16  1  0
  5 17  1  0
  5 18  1  0
  5 19  1  0
  7 20  1  0
  8 21  1  0
M  END
