
     RDKit          3D

 23 23  0  0  0  0  0  0  0  0999 V2000
    2.7235    0.7083   -0.0322 C   0  0  0  0  0  0  0  0  0  0  0  0
    1.3976    0.1705    0.4493 C   0  0  0  0  0  0  0  0  0  0  0  0
    1.1090   -1.2835   -0.0046 C   0  0  0  0  0  0  0  0  0  0  0  0
    0.3368   -0.0887   -0.5383 C   0  0  0  0  0  0  0  0  0  0  0  0
   -1.1057   -0.0492   -0.2974 C   0  0  0  0  0  0  0  0  0  0  0  0
   -1.5724   -1.0349    0.7068 C   0  0  0  0  0  0  0  0  0  0  0  0
   -1.3076   -2.3242    0.2692 O   0  0  0  0  0  0  0  0  0  0  0  0
   -1.6367    1.3323    0.0559 C   0  0  0  0  0  0  0  0  0  0  0  0
   -1.3790    2.2228   -0.9766 O   0  0  0  0  0  0  0  0  0  0  0  0
    3.1149    1.5314    0.5741 H   0  0  0  0  0  0  0  0  0  0  0  0
    2.6810    1.0250   -1.1066 H   0  0  0  0  0  0  0  0  0  0  0  0
    3.5204   -0.0908   -0.0147 H   0  0  0  0  0  0  0  0  0  0  0  0
    1.1701    0.4262    1.5042 H   0  0  0  0  0  0  0  0  0  0  0  0
    0.7572   -1.9200    0.8055 H   0  0  0  0  0  0  0  0  0  0  0  0
    1.8678   -1.7462   -0.6769 H   0  0  0  0  0  0  0  0  0  0  0  0
    0.6370    0.1852   -1.6013 H   0  0  0  0  0  0  0  0  0  0  0  0
   -1.6319   -0.3008   -1.2636 H   0  0  0  0  0  0  0  0  0  0  0  0
   -2.6809   -0.9732    0.8935 H   0  0  0  0  0  0  0  0  0  0  0  0
   -1.0874   -0.8628    1.6989 H   0  0  0  0  0  0  0  0  0  0  0  0
   -1.3904   -3.0068    0.9929 H   0  0  0  0  0  0  0  0  0  0  0  0
   -1.2368    1.7187    0.9946 H   0  0  0  0  0  0  0  0  0  0  0  0
   -2.7328    1.2167    0.1858 H   0  0  0  0  0  0  0  0  0  0  0  0
   -1.5537    3.1439   -0.6835 H   0  0  0  0  0  0  0  0  0  0  0  0
  1  2  1  0
  2  3  1  0
  3  4  1  0
  4  5  1  0
  5  6  1  0
  6  7  1  0
  5  8  1  0
  8  9  1  0
  4  2  1  0
  1 10  1  0
  1 11  1  0
  1 12  1  0
  2 13  1  0
  3 14  1  0
  3 15  1  0
  4 16  1  0
  5 17  1  0
  6 18  1  0
  6 19  1  0
  7 20  1  0
  8 21  1  0
  8 22  1  0
  9 23  1  0
M  END
