
     RDKit          3D

 25 25  0  0  0  0  0  0  0  0999 V2000
    2.9840    0.3400    0.0147 C   0  0  0  0  0  0  0  0  0  0  0  0
    1.5443    0.2585   -0.4774 C   0  0  0  0  0  0  0  0  0  0  0  0
    1.2010   -1.1599   -0.5998 C   0  0  0  0  0  0  0  0  0  0  0  0
    0.0977   -1.8615   -0.3270 C   0  0  0  0  0  0  0  0  0  0  0  0
   -1.1554   -1.2778    0.2214 C   0  0  0  0  0  0  0  0  0  0  0  0
   -1.3807    0.0317   -0.4994 C   0  0  0  0  0  0  0  0  0  0  0  0
   -2.8939    0.2818   -0.4504 C   0  0  0  0  0  0  0  0  0  0  0  0
   -0.7205    1.1259    0.2517 C   0  0  0  0  0  0  0  0  0  0  0  0
    0.7146    1.0375    0.4807 C   0  0  0  0  0  0  0  0  0  0  0  0
    3.0115    0.5576    1.1079 H   0  0  0  0  0  0  0  0  0  0  0  0
    3.5233   -0.6070   -0.1690 H   0  0  0  0  0  0  0  0  0  0  0  0
    3.5270    1.1692   -0.4736 H   0  0  0  0  0  0  0  0  0  0  0  0
    1.5380    0.7848   -1.4636 H   0  0  0  0  0  0  0  0  0  0  0  0
    1.9896   -1.7951   -0.9911 H   0  0  0  0  0  0  0  0  0  0  0  0
    0.1271   -2.9385   -0.5235 H   0  0  0  0  0  0  0  0  0  0  0  0
   -2.0155   -1.9661    0.1198 H   0  0  0  0  0  0  0  0  0  0  0  0
   -0.9582   -1.0830    1.3115 H   0  0  0  0  0  0  0  0  0  0  0  0
   -1.1075   -0.0207   -1.5692 H   0  0  0  0  0  0  0  0  0  0  0  0
   -3.4568   -0.6259   -0.2267 H   0  0  0  0  0  0  0  0  0  0  0  0
   -3.2426    0.7287   -1.4154 H   0  0  0  0  0  0  0  0  0  0  0  0
   -3.1451    1.0264    0.3371 H   0  0  0  0  0  0  0  0  0  0  0  0
   -0.9583    2.0866   -0.2968 H   0  0  0  0  0  0  0  0  0  0  0  0
   -1.2765    1.2441    1.2292 H   0  0  0  0  0  0  0  0  0  0  0  0
    1.1549    2.0620    0.5392 H   0  0  0  0  0  0  0  0  0  0  0  0
    0.8980    0.6005    1.5069 H   0  0  0  0  0  0  0  0  0  0  0  0
  1  2  1  0
  2  3  1  0
  3  4  2  0
  4  5  1  0
  5  6  1  0
  6  7  1  0
  6  8  1  0
  8  9  1  0
  9  2  1  0
  1 10  1  0
  1 11  1  0
  1 12  1  0
  2 13  1  0
  3 14  1  0
  4 15  1  0
  5 16  1  0
  5 17  1  0
  6 18  1  0
  7 19  1  0
  7 20  1  0
  7 21  1  0
  8 22  1  0
  8 23  1  0
  9 24  1  0
  9 25  1  0
M  END
