
     RDKit          3D

 19 20  0  0  0  0  0  0  0  0999 V2000
    2.3692    0.1448    0.1005 C   0  0  0  0  0  0  0  0  0  0  0  0
    0.9529    0.0711   -0.3727 C   0  0  0  0  0  0  0  0  0  0  0  0
    0.1385    1.1978    0.1633 C   0  0  0  0  0  0  0  0  0  0  0  0
    0.5968    2.0668    0.8662 O   0  0  0  0  0  0  0  0  0  0  0  0
   -1.3152    1.1697   -0.2426 C   0  0  0  0  0  0  0  0  0  0  0  0
   -1.8929   -0.0940    0.2982 C   0  0  0  0  0  0  0  0  0  0  0  0
   -1.0986   -1.3164    0.0673 C   0  0  0  0  0  0  0  0  0  0  0  0
   -0.1538   -1.6016    1.1175 O   0  0  0  0  0  0  0  0  0  0  0  0
    0.2955   -1.2478   -0.1395 C   0  0  0  0  0  0  0  0  0  0  0  0
    2.4781    0.4709    1.1544 H   0  0  0  0  0  0  0  0  0  0  0  0
    2.8982   -0.7870   -0.1250 H   0  0  0  0  0  0  0  0  0  0  0  0
    2.8753    0.9478   -0.5089 H   0  0  0  0  0  0  0  0  0  0  0  0
    0.9776    0.2284   -1.4911 H   0  0  0  0  0  0  0  0  0  0  0  0
   -1.4134    1.1590   -1.3437 H   0  0  0  0  0  0  0  0  0  0  0  0
   -1.8197    2.0265    0.2380 H   0  0  0  0  0  0  0  0  0  0  0  0
   -2.9116   -0.2066   -0.1786 H   0  0  0  0  0  0  0  0  0  0  0  0
   -2.1009    0.0821    1.3924 H   0  0  0  0  0  0  0  0  0  0  0  0
   -1.6663   -2.2214   -0.2882 H   0  0  0  0  0  0  0  0  0  0  0  0
    0.7903   -2.0902   -0.7075 H   0  0  0  0  0  0  0  0  0  0  0  0
  1  2  1  0
  2  3  1  0
  3  4  2  0
  3  5  1  0
  5  6  1  0
  6  7  1  0
  7  8  1  0
  8  9  1  0
  9  2  1  0
  9  7  1  0
  1 10  1  0
  1 11  1  0
  1 12  1  0
  2 13  1  0
  5 14  1  0
  5 15  1  0
  6 16  1  0
  6 17  1  0
  7 18  1  0
  9 19  1  0
M  END
