
     RDKit          3D

 23 24  0  0  0  0  0  0  0  0999 V2000
   -0.0454    2.0280    0.3508 C   0  0  0  0  0  0  0  0  0  0  0  0
   -0.0376    0.5991    0.7810 C   0  0  0  0  0  0  0  0  0  0  0  0
    0.7511   -0.2448   -0.2348 C   0  0  0  0  0  0  0  0  0  0  0  0
    2.1777   -0.2917    0.1798 C   0  0  0  0  0  0  0  0  0  0  0  0
    2.9562   -1.0452   -0.7035 O   0  0  0  0  0  0  0  0  0  0  0  0
   -0.1551   -1.3647    0.1014 C   0  0  0  0  0  0  0  0  0  0  0  0
   -1.5045   -1.5183    0.6621 C   0  0  0  0  0  0  0  0  0  0  0  0
   -1.1000   -0.2906    0.2164 C   0  0  0  0  0  0  0  0  0  0  0  0
   -1.7410    0.2693   -1.0303 C   0  0  0  0  0  0  0  0  0  0  0  0
   -1.0417    2.3814   -0.0152 H   0  0  0  0  0  0  0  0  0  0  0  0
    0.2748    2.6974    1.2023 H   0  0  0  0  0  0  0  0  0  0  0  0
    0.6770    2.2480   -0.4660 H   0  0  0  0  0  0  0  0  0  0  0  0
    0.2232    0.3880    1.8132 H   0  0  0  0  0  0  0  0  0  0  0  0
    0.6485    0.1157   -1.2645 H   0  0  0  0  0  0  0  0  0  0  0  0
    2.6589    0.7059    0.2361 H   0  0  0  0  0  0  0  0  0  0  0  0
    2.2749   -0.7493    1.1935 H   0  0  0  0  0  0  0  0  0  0  0  0
    2.4579   -1.2718   -1.5243 H   0  0  0  0  0  0  0  0  0  0  0  0
    0.4073   -2.0927    0.6211 H   0  0  0  0  0  0  0  0  0  0  0  0
   -2.1935   -2.1642    0.0421 H   0  0  0  0  0  0  0  0  0  0  0  0
   -1.7387   -1.6665    1.7517 H   0  0  0  0  0  0  0  0  0  0  0  0
   -1.1551    1.0285   -1.5377 H   0  0  0  0  0  0  0  0  0  0  0  0
   -2.1121   -0.5487   -1.6993 H   0  0  0  0  0  0  0  0  0  0  0  0
   -2.6825    0.7874   -0.6757 H   0  0  0  0  0  0  0  0  0  0  0  0
  1  2  1  0
  2  3  1  0
  3  4  1  0
  4  5  1  0
  3  6  1  0
  6  7  1  0
  7  8  1  0
  8  9  1  0
  8  2  1  0
  8  6  1  0
  1 10  1  0
  1 11  1  0
  1 12  1  0
  2 13  1  0
  3 14  1  0
  4 15  1  0
  4 16  1  0
  5 17  1  0
  6 18  1  0
  7 19  1  0
  7 20  1  0
  9 21  1  0
  9 22  1  0
  9 23  1  0
M  END
