
     RDKit          3D

 23 24  0  0  0  0  0  0  0  0999 V2000
    1.9902    1.4462    0.1796 C   0  0  0  0  0  0  0  0  0  0  0  0
    1.3353    0.2189   -0.4199 C   0  0  0  0  0  0  0  0  0  0  0  0
    1.3390   -0.8588    0.6251 C   0  0  0  0  0  0  0  0  0  0  0  0
    0.4043   -1.9674    0.3111 C   0  0  0  0  0  0  0  0  0  0  0  0
   -0.8103   -1.6548   -0.1321 C   0  0  0  0  0  0  0  0  0  0  0  0
   -1.1313   -0.2161   -0.2766 C   0  0  0  0  0  0  0  0  0  0  0  0
   -1.7764    0.5492    0.8164 C   0  0  0  0  0  0  0  0  0  0  0  0
   -2.5339    0.2048   -0.4432 C   0  0  0  0  0  0  0  0  0  0  0  0
   -0.0158    0.4994   -0.9983 C   0  0  0  0  0  0  0  0  0  0  0  0
    3.1010    1.3607   -0.0011 H   0  0  0  0  0  0  0  0  0  0  0  0
    1.8941    1.4524    1.2940 H   0  0  0  0  0  0  0  0  0  0  0  0
    1.6279    2.3868   -0.2440 H   0  0  0  0  0  0  0  0  0  0  0  0
    1.9936   -0.1493   -1.2568 H   0  0  0  0  0  0  0  0  0  0  0  0
    2.3764   -1.2761    0.6932 H   0  0  0  0  0  0  0  0  0  0  0  0
    1.0697   -0.4442    1.6145 H   0  0  0  0  0  0  0  0  0  0  0  0
    0.6887   -2.9937    0.4341 H   0  0  0  0  0  0  0  0  0  0  0  0
   -1.5635   -2.3875   -0.3884 H   0  0  0  0  0  0  0  0  0  0  0  0
   -2.0620    0.0495    1.7769 H   0  0  0  0  0  0  0  0  0  0  0  0
   -1.5131    1.6190    0.9436 H   0  0  0  0  0  0  0  0  0  0  0  0
   -3.2901   -0.6177   -0.3118 H   0  0  0  0  0  0  0  0  0  0  0  0
   -2.8159    0.9785   -1.1610 H   0  0  0  0  0  0  0  0  0  0  0  0
   -0.0700    0.2211   -2.0914 H   0  0  0  0  0  0  0  0  0  0  0  0
   -0.2380    1.5790   -0.9639 H   0  0  0  0  0  0  0  0  0  0  0  0
  1  2  1  0
  2  3  1  0
  3  4  1  0
  4  5  2  0
  5  6  1  0
  6  7  1  0
  7  8  1  0
  6  9  1  0
  9  2  1  0
  8  6  1  0
  1 10  1  0
  1 11  1  0
  1 12  1  0
  2 13  1  0
  3 14  1  0
  3 15  1  0
  4 16  1  0
  5 17  1  0
  7 18  1  0
  7 19  1  0
  8 20  1  0
  8 21  1  0
  9 22  1  0
  9 23  1  0
M  END
