
     RDKit          3D

 23 24  0  0  0  0  0  0  0  0999 V2000
   -2.3983   -0.7167    0.2604 C   0  0  0  0  0  0  0  0  0  0  0  0
   -1.0712   -0.2221   -0.1748 C   0  0  0  0  0  0  0  0  0  0  0  0
   -0.8717    1.2650    0.0218 C   0  0  0  0  0  0  0  0  0  0  0  0
    0.5049    1.6106   -0.4490 C   0  0  0  0  0  0  0  0  0  0  0  0
    1.2999    0.5023   -0.9983 C   0  0  0  0  0  0  0  0  0  0  0  0
    2.4536   -0.0167   -0.0833 C   0  0  0  0  0  0  0  0  0  0  0  0
    1.2560   -0.7905   -0.3289 C   0  0  0  0  0  0  0  0  0  0  0  0
    0.0864   -0.8690    0.6033 C   0  0  0  0  0  0  0  0  0  0  0  0
   -0.2258   -2.1505    1.0096 O   0  0  0  0  0  0  0  0  0  0  0  0
   -3.1457    0.1043    0.3176 H   0  0  0  0  0  0  0  0  0  0  0  0
   -2.3216   -1.2227    1.2206 H   0  0  0  0  0  0  0  0  0  0  0  0
   -2.8042   -1.4158   -0.5268 H   0  0  0  0  0  0  0  0  0  0  0  0
   -0.9359   -0.4010   -1.2790 H   0  0  0  0  0  0  0  0  0  0  0  0
   -1.6751    1.8662   -0.4159 H   0  0  0  0  0  0  0  0  0  0  0  0
   -0.9396    1.4315    1.1374 H   0  0  0  0  0  0  0  0  0  0  0  0
    0.3849    2.4047   -1.2422 H   0  0  0  0  0  0  0  0  0  0  0  0
    1.0608    2.1385    0.3745 H   0  0  0  0  0  0  0  0  0  0  0  0
    1.5333    0.5133   -2.0954 H   0  0  0  0  0  0  0  0  0  0  0  0
    2.6450    0.5878    0.8170 H   0  0  0  0  0  0  0  0  0  0  0  0
    3.3745   -0.2991   -0.6289 H   0  0  0  0  0  0  0  0  0  0  0  0
    1.3534   -1.7037   -0.9831 H   0  0  0  0  0  0  0  0  0  0  0  0
    0.2523   -0.2643    1.5414 H   0  0  0  0  0  0  0  0  0  0  0  0
    0.1842   -2.3523    1.9020 H   0  0  0  0  0  0  0  0  0  0  0  0
  1  2  1  0
  2  3  1  0
  3  4  1  0
  4  5  1  0
  5  6  1  0
  6  7  1  0
  7  8  1  0
  8  9  1  0
  8  2  1  0
  7  5  1  0
  1 10  1  0
  1 11  1  0
  1 12  1  0
  2 13  1  0
  3 14  1  0
  3 15  1  0
  4 16  1  0
  4 17  1  0
  5 18  1  0
  6 19  1  0
  6 20  1  0
  7 21  1  0
  8 22  1  0
  9 23  1  0
M  END
