
     RDKit          3D

 21 22  0  0  0  0  0  0  0  0999 V2000
   -1.5022    0.9448   -1.0831 C   0  0  0  0  0  0  0  0  0  0  0  0
   -1.1069   -0.0882   -0.0443 C   0  0  0  0  0  0  0  0  0  0  0  0
   -1.1281    0.5448    1.3542 C   0  0  0  0  0  0  0  0  0  0  0  0
    0.2621   -0.0566    1.5961 C   0  0  0  0  0  0  0  0  0  0  0  0
    0.3626   -0.2745    0.1474 C   0  0  0  0  0  0  0  0  0  0  0  0
    1.1905   -1.2237   -0.5478 C   0  0  0  0  0  0  0  0  0  0  0  0
    0.5849   -1.9733   -1.5678 O   0  0  0  0  0  0  0  0  0  0  0  0
    1.3479    0.2717   -0.7549 C   0  0  0  0  0  0  0  0  0  0  0  0
    2.5241    0.8884   -0.3613 O   0  0  0  0  0  0  0  0  0  0  0  0
   -2.6201    1.0030   -1.0471 H   0  0  0  0  0  0  0  0  0  0  0  0
   -1.0786    1.9313   -0.8127 H   0  0  0  0  0  0  0  0  0  0  0  0
   -1.1234    0.7037   -2.0919 H   0  0  0  0  0  0  0  0  0  0  0  0
   -1.7160   -1.0070   -0.0695 H   0  0  0  0  0  0  0  0  0  0  0  0
   -1.9240    0.1314    1.9741 H   0  0  0  0  0  0  0  0  0  0  0  0
   -1.0363    1.6459    1.3475 H   0  0  0  0  0  0  0  0  0  0  0  0
    0.1263   -0.9888    2.1820 H   0  0  0  0  0  0  0  0  0  0  0  0
    0.9639    0.6521    2.0700 H   0  0  0  0  0  0  0  0  0  0  0  0
    2.0166   -1.7846   -0.0514 H   0  0  0  0  0  0  0  0  0  0  0  0
    0.2442   -2.7999   -1.1151 H   0  0  0  0  0  0  0  0  0  0  0  0
    0.9919    0.6304   -1.7568 H   0  0  0  0  0  0  0  0  0  0  0  0
    2.6206    0.8492    0.6323 H   0  0  0  0  0  0  0  0  0  0  0  0
  1  2  1  0
  2  3  1  0
  3  4  1  0
  4  5  1  0
  5  6  1  0
  6  7  1  0
  6  8  1  0
  8  9  1  0
  5  2  1  0
  8  5  1  0
  1 10  1  0
  1 11  1  0
  1 12  1  0
  2 13  1  0
  3 14  1  0
  3 15  1  0
  4 16  1  0
  4 17  1  0
  6 18  1  0
  7 19  1  0
  8 20  1  0
  9 21  1  0
M  END
