
     RDKit          3D

 21 22  0  0  0  0  0  0  0  0999 V2000
   -2.0404    0.9839   -0.4705 C   0  0  0  0  0  0  0  0  0  0  0  0
   -0.8438    0.0580   -0.6780 C   0  0  0  0  0  0  0  0  0  0  0  0
   -1.1823   -1.2145    0.0851 C   0  0  0  0  0  0  0  0  0  0  0  0
   -0.6237   -1.0812    1.3213 O   0  0  0  0  0  0  0  0  0  0  0  0
    0.5058   -0.3057    1.2084 C   0  0  0  0  0  0  0  0  0  0  0  0
    1.5639   -1.0265    0.3694 C   0  0  0  0  0  0  0  0  0  0  0  0
    1.6881    0.2497   -0.4396 C   0  0  0  0  0  0  0  0  0  0  0  0
    2.6634    1.0715    0.1379 O   0  0  0  0  0  0  0  0  0  0  0  0
    0.3103    0.6312    0.0487 C   0  0  0  0  0  0  0  0  0  0  0  0
   -2.1024    1.1598    0.6313 H   0  0  0  0  0  0  0  0  0  0  0  0
   -2.9334    0.3799   -0.7567 H   0  0  0  0  0  0  0  0  0  0  0  0
   -1.9541    1.9208   -1.0166 H   0  0  0  0  0  0  0  0  0  0  0  0
   -0.6325   -0.1233   -1.7355 H   0  0  0  0  0  0  0  0  0  0  0  0
   -2.2926   -1.3201    0.2251 H   0  0  0  0  0  0  0  0  0  0  0  0
   -0.8651   -2.0840   -0.4956 H   0  0  0  0  0  0  0  0  0  0  0  0
    0.8783    0.1331    2.1309 H   0  0  0  0  0  0  0  0  0  0  0  0
    1.1476   -1.8228   -0.2711 H   0  0  0  0  0  0  0  0  0  0  0  0
    2.4095   -1.2771    1.0076 H   0  0  0  0  0  0  0  0  0  0  0  0
    1.7917    0.0730   -1.5163 H   0  0  0  0  0  0  0  0  0  0  0  0
    2.2315    1.9046    0.4623 H   0  0  0  0  0  0  0  0  0  0  0  0
    0.2801    1.6898    0.3354 H   0  0  0  0  0  0  0  0  0  0  0  0
  1  2  1  0
  2  3  1  0
  3  4  1  0
  4  5  1  0
  5  6  1  0
  6  7  1  0
  7  8  1  0
  7  9  1  0
  9  2  1  0
  9  5  1  0
  1 10  1  0
  1 11  1  0
  1 12  1  0
  2 13  1  0
  3 14  1  0
  3 15  1  0
  5 16  1  0
  6 17  1  0
  6 18  1  0
  7 19  1  0
  8 20  1  0
  9 21  1  0
M  END
