
     RDKit          3D

 23 24  0  0  0  0  0  0  0  0999 V2000
   -2.2582   -1.0046    0.7359 C   0  0  0  0  0  0  0  0  0  0  0  0
   -1.1653    0.0029    0.5782 C   0  0  0  0  0  0  0  0  0  0  0  0
   -1.3535    0.7129   -0.6984 C   0  0  0  0  0  0  0  0  0  0  0  0
   -0.3363    1.4347   -1.1377 C   0  0  0  0  0  0  0  0  0  0  0  0
    0.9486    1.5736   -0.4486 C   0  0  0  0  0  0  0  0  0  0  0  0
    1.2407    0.5143    0.5564 C   0  0  0  0  0  0  0  0  0  0  0  0
    2.1217   -0.5523   -0.0715 C   0  0  0  0  0  0  0  0  0  0  0  0
    0.8067   -1.2165   -0.4976 C   0  0  0  0  0  0  0  0  0  0  0  0
    0.2006   -0.5429    0.6918 C   0  0  0  0  0  0  0  0  0  0  0  0
   -3.1883   -0.5578    0.3214 H   0  0  0  0  0  0  0  0  0  0  0  0
   -2.4703   -1.1870    1.8149 H   0  0  0  0  0  0  0  0  0  0  0  0
   -2.0607   -1.9460    0.1926 H   0  0  0  0  0  0  0  0  0  0  0  0
   -1.3046    0.7614    1.3991 H   0  0  0  0  0  0  0  0  0  0  0  0
   -2.2888    0.6450   -1.2538 H   0  0  0  0  0  0  0  0  0  0  0  0
   -0.4754    1.9603   -2.0819 H   0  0  0  0  0  0  0  0  0  0  0  0
    1.7488    1.6346   -1.2433 H   0  0  0  0  0  0  0  0  0  0  0  0
    0.9842    2.5685    0.0634 H   0  0  0  0  0  0  0  0  0  0  0  0
    1.6327    0.8483    1.5391 H   0  0  0  0  0  0  0  0  0  0  0  0
    2.7342   -0.1907   -0.8946 H   0  0  0  0  0  0  0  0  0  0  0  0
    2.6702   -1.1307    0.7169 H   0  0  0  0  0  0  0  0  0  0  0  0
    0.4725   -0.8654   -1.4711 H   0  0  0  0  0  0  0  0  0  0  0  0
    0.9438   -2.3126   -0.4211 H   0  0  0  0  0  0  0  0  0  0  0  0
    0.3969   -1.1499    1.6098 H   0  0  0  0  0  0  0  0  0  0  0  0
  1  2  1  0
  2  3  1  0
  3  4  2  0
  4  5  1  0
  5  6  1  0
  6  7  1  0
  7  8  1  0
  8  9  1  0
  9  2  1  0
  9  6  1  0
  1 10  1  0
  1 11  1  0
  1 12  1  0
  2 13  1  0
  3 14  1  0
  4 15  1  0
  5 16  1  0
  5 17  1  0
  6 18  1  0
  7 19  1  0
  7 20  1  0
  8 21  1  0
  8 22  1  0
  9 23  1  0
M  END
