
     RDKit          3D

 19 20  0  0  0  0  0  0  0  0999 V2000
    1.9063    0.4870    0.1198 C   0  0  0  0  0  0  0  0  0  0  0  0
    0.7655   -0.1919   -0.5492 C   0  0  0  0  0  0  0  0  0  0  0  0
    0.2724   -1.4155    0.2488 C   0  0  0  0  0  0  0  0  0  0  0  0
   -1.1127   -0.9270    0.5716 C   0  0  0  0  0  0  0  0  0  0  0  0
   -1.5909   -0.2886   -0.7445 C   0  0  0  0  0  0  0  0  0  0  0  0
   -0.4600    0.6779   -0.4313 C   0  0  0  0  0  0  0  0  0  0  0  0
   -0.4771    1.8961   -0.9577 O   0  0  0  0  0  0  0  0  0  0  0  0
   -0.8383    0.4652    0.9857 C   0  0  0  0  0  0  0  0  0  0  0  0
   -0.8727    1.1671    1.9547 O   0  0  0  0  0  0  0  0  0  0  0  0
    2.8762   -0.0283    0.0099 H   0  0  0  0  0  0  0  0  0  0  0  0
    1.6845    0.6012    1.1936 H   0  0  0  0  0  0  0  0  0  0  0  0
    1.9660    1.5293   -0.2909 H   0  0  0  0  0  0  0  0  0  0  0  0
    0.9469   -0.4589   -1.5962 H   0  0  0  0  0  0  0  0  0  0  0  0
    0.8275   -1.5112    1.1962 H   0  0  0  0  0  0  0  0  0  0  0  0
    0.2970   -2.3276   -0.3593 H   0  0  0  0  0  0  0  0  0  0  0  0
   -1.7945   -1.5296    1.1052 H   0  0  0  0  0  0  0  0  0  0  0  0
   -1.4557   -0.9121   -1.6278 H   0  0  0  0  0  0  0  0  0  0  0  0
   -2.5632    0.1754   -0.5680 H   0  0  0  0  0  0  0  0  0  0  0  0
   -0.3771    2.5918   -0.2606 H   0  0  0  0  0  0  0  0  0  0  0  0
  1  2  1  0
  2  3  1  0
  3  4  1  0
  4  5  1  0
  5  6  1  0
  6  7  1  0
  6  8  1  0
  8  9  2  0
  6  2  1  0
  8  4  1  0
  1 10  1  0
  1 11  1  0
  1 12  1  0
  2 13  1  0
  3 14  1  0
  3 15  1  0
  4 16  1  0
  5 17  1  0
  5 18  1  0
  7 19  1  0
M  END
