
     RDKit          3D

 21 23  0  0  0  0  0  0  0  0999 V2000
   -2.4263    0.5432    0.4145 C   0  0  0  0  0  0  0  0  0  0  0  0
   -1.1138   -0.1444    0.7263 C   0  0  0  0  0  0  0  0  0  0  0  0
   -0.6592   -1.0129   -0.4154 C   0  0  0  0  0  0  0  0  0  0  0  0
    0.4802   -1.9365    0.0377 C   0  0  0  0  0  0  0  0  0  0  0  0
    1.5182   -1.1379    0.4220 O   0  0  0  0  0  0  0  0  0  0  0  0
    1.3301    0.1392   -0.0861 C   0  0  0  0  0  0  0  0  0  0  0  0
    2.4671    1.0817   -0.2151 C   0  0  0  0  0  0  0  0  0  0  0  0
    0.0335    0.7788    0.4278 C   0  0  0  0  0  0  0  0  0  0  0  0
    0.1451    0.1444   -0.9231 C   0  0  0  0  0  0  0  0  0  0  0  0
   -2.2778    1.4899   -0.1625 H   0  0  0  0  0  0  0  0  0  0  0  0
   -2.8702    0.8412    1.3963 H   0  0  0  0  0  0  0  0  0  0  0  0
   -3.0924   -0.0990   -0.1816 H   0  0  0  0  0  0  0  0  0  0  0  0
   -1.0864   -0.6573    1.7003 H   0  0  0  0  0  0  0  0  0  0  0  0
   -1.4029   -1.4550   -1.0560 H   0  0  0  0  0  0  0  0  0  0  0  0
    0.0867   -2.6119    0.8029 H   0  0  0  0  0  0  0  0  0  0  0  0
    0.7705   -2.5587   -0.8384 H   0  0  0  0  0  0  0  0  0  0  0  0
    2.8827    1.2609    0.8193 H   0  0  0  0  0  0  0  0  0  0  0  0
    3.2572    0.7549   -0.9008 H   0  0  0  0  0  0  0  0  0  0  0  0
    2.0642    2.0704   -0.5375 H   0  0  0  0  0  0  0  0  0  0  0  0
   -0.0768    1.8600    0.4140 H   0  0  0  0  0  0  0  0  0  0  0  0
   -0.0297    0.6491   -1.8445 H   0  0  0  0  0  0  0  0  0  0  0  0
  1  2  1  0
  2  3  1  0
  3  4  1  0
  4  5  1  0
  5  6  1  0
  6  7  1  0
  6  8  1  0
  8  9  1  0
  8  2  1  0
  9  3  1  0
  9  6  1  0
  1 10  1  0
  1 11  1  0
  1 12  1  0
  2 13  1  0
  3 14  1  0
  4 15  1  0
  4 16  1  0
  7 17  1  0
  7 18  1  0
  7 19  1  0
  8 20  1  0
  9 21  1  0
M  END
