
     RDKit          3D

 21 23  0  0  0  0  0  0  0  0999 V2000
    2.5676   -0.5592    0.0803 C   0  0  0  0  0  0  0  0  0  0  0  0
    1.2650    0.1628    0.2531 C   0  0  0  0  0  0  0  0  0  0  0  0
    0.8872    1.0961   -0.8560 C   0  0  0  0  0  0  0  0  0  0  0  0
   -0.4142    0.3557   -0.9945 C   0  0  0  0  0  0  0  0  0  0  0  0
   -1.6732    0.8839   -0.4063 C   0  0  0  0  0  0  0  0  0  0  0  0
   -2.2077   -0.2942    0.4069 C   0  0  0  0  0  0  0  0  0  0  0  0
   -0.9808   -0.9385    0.9750 C   0  0  0  0  0  0  0  0  0  0  0  0
    0.0612   -0.6700   -0.0574 C   0  0  0  0  0  0  0  0  0  0  0  0
   -0.2927   -0.9654   -1.3547 O   0  0  0  0  0  0  0  0  0  0  0  0
    3.3825    0.1248    0.4351 H   0  0  0  0  0  0  0  0  0  0  0  0
    2.7171   -0.7733   -1.0057 H   0  0  0  0  0  0  0  0  0  0  0  0
    2.6339   -1.4645    0.6923 H   0  0  0  0  0  0  0  0  0  0  0  0
    1.1971    0.6700    1.2443 H   0  0  0  0  0  0  0  0  0  0  0  0
    1.5157    0.9163   -1.7652 H   0  0  0  0  0  0  0  0  0  0  0  0
    0.8190    2.1660   -0.6001 H   0  0  0  0  0  0  0  0  0  0  0  0
   -1.5389    1.7611    0.2338 H   0  0  0  0  0  0  0  0  0  0  0  0
   -2.4333    1.0460   -1.2158 H   0  0  0  0  0  0  0  0  0  0  0  0
   -2.8897    0.0511    1.2153 H   0  0  0  0  0  0  0  0  0  0  0  0
   -2.7570   -0.9720   -0.2634 H   0  0  0  0  0  0  0  0  0  0  0  0
   -1.1746   -2.0461    1.0178 H   0  0  0  0  0  0  0  0  0  0  0  0
   -0.6842   -0.5507    1.9652 H   0  0  0  0  0  0  0  0  0  0  0  0
  1  2  1  0
  2  3  1  0
  3  4  1  0
  4  5  1  0
  5  6  1  0
  6  7  1  0
  7  8  1  0
  8  9  1  0
  8  2  1  0
  8  4  1  0
  9  4  1  0
  1 10  1  0
  1 11  1  0
  1 12  1  0
  2 13  1  0
  3 14  1  0
  3 15  1  0
  5 16  1  0
  5 17  1  0
  6 18  1  0
  6 19  1  0
  7 20  1  0
  7 21  1  0
M  END
