
     RDKit          3D

 16 16  0  0  0  0  0  0  0  0999 V2000
    1.9511    0.2958   -0.0571 C   0  0  0  0  0  0  0  0  0  0  0  0
    0.5760   -0.2047   -0.3810 C   0  0  0  0  0  0  0  0  0  0  0  0
   -0.1375   -0.5138    0.9192 C   0  0  0  0  0  0  0  0  0  0  0  0
   -1.5681   -0.6978    0.3962 C   0  0  0  0  0  0  0  0  0  0  0  0
   -1.6463    0.5307   -0.4776 C   0  0  0  0  0  0  0  0  0  0  0  0
   -2.7059    1.1270   -0.7210 O   0  0  0  0  0  0  0  0  0  0  0  0
   -0.3042    0.8467   -0.9432 C   0  0  0  0  0  0  0  0  0  0  0  0
    0.0628    1.7975   -1.6664 O   0  0  0  0  0  0  0  0  0  0  0  0
    2.7005   -0.3015   -0.6203 H   0  0  0  0  0  0  0  0  0  0  0  0
    2.1075    1.3557   -0.2865 H   0  0  0  0  0  0  0  0  0  0  0  0
    2.1947    0.1315    1.0299 H   0  0  0  0  0  0  0  0  0  0  0  0
    0.5931   -1.1156   -1.0352 H   0  0  0  0  0  0  0  0  0  0  0  0
    0.2378   -1.4121    1.4129 H   0  0  0  0  0  0  0  0  0  0  0  0
   -0.1288    0.3976    1.5224 H   0  0  0  0  0  0  0  0  0  0  0  0
   -2.3020   -0.6807    1.1976 H   0  0  0  0  0  0  0  0  0  0  0  0
   -1.6306   -1.5564   -0.2898 H   0  0  0  0  0  0  0  0  0  0  0  0
  1  2  1  0
  2  3  1  0
  3  4  1  0
  4  5  1  0
  5  6  2  0
  5  7  1  0
  7  8  2  0
  7  2  1  0
  1  9  1  0
  1 10  1  0
  1 11  1  0
  2 12  1  0
  3 13  1  0
  3 14  1  0
  4 15  1  0
  4 16  1  0
M  END
