
     RDKit          3D

 19 19  0  0  0  0  0  0  0  0999 V2000
   -1.8083    0.8226    0.1539 C   0  0  0  0  0  0  0  0  0  0  0  0
   -0.8052   -0.0341   -0.5936 C   0  0  0  0  0  0  0  0  0  0  0  0
   -0.9347   -1.4395   -0.0781 C   0  0  0  0  0  0  0  0  0  0  0  0
    0.0183   -1.5381    1.0465 C   0  0  0  0  0  0  0  0  0  0  0  0
    0.8786   -0.5310    1.0259 C   0  0  0  0  0  0  0  0  0  0  0  0
    0.5831    0.3542   -0.1302 C   0  0  0  0  0  0  0  0  0  0  0  0
    1.5510    0.0762   -1.1297 O   0  0  0  0  0  0  0  0  0  0  0  0
    2.3810    1.0776   -1.6141 C   0  0  0  0  0  0  0  0  0  0  0  0
    2.2703    2.2444   -1.1586 O   0  0  0  0  0  0  0  0  0  0  0  0
   -2.8129    0.4082   -0.0352 H   0  0  0  0  0  0  0  0  0  0  0  0
   -1.7710    1.8861   -0.1798 H   0  0  0  0  0  0  0  0  0  0  0  0
   -1.5300    0.7301    1.2435 H   0  0  0  0  0  0  0  0  0  0  0  0
   -0.9124    0.0412   -1.6892 H   0  0  0  0  0  0  0  0  0  0  0  0
   -0.6677   -2.1259   -0.9135 H   0  0  0  0  0  0  0  0  0  0  0  0
   -1.9763   -1.6382    0.3015 H   0  0  0  0  0  0  0  0  0  0  0  0
    0.0587   -2.3196    1.8293 H   0  0  0  0  0  0  0  0  0  0  0  0
    1.7012   -0.3525    1.7482 H   0  0  0  0  0  0  0  0  0  0  0  0
    0.6432    1.4228    0.1343 H   0  0  0  0  0  0  0  0  0  0  0  0
    3.1329    0.9154   -2.3745 H   0  0  0  0  0  0  0  0  0  0  0  0
  1  2  1  0
  2  3  1  0
  3  4  1  0
  4  5  2  0
  5  6  1  0
  6  7  1  0
  7  8  1  0
  8  9  2  0
  6  2  1  0
  1 10  1  0
  1 11  1  0
  1 12  1  0
  2 13  1  0
  3 14  1  0
  3 15  1  0
  4 16  1  0
  5 17  1  0
  6 18  1  0
  8 19  1  0
M  END
