
     RDKit          3D

 23 23  0  0  0  0  0  0  0  0999 V2000
    2.7974   -0.0059    0.3683 C   0  0  0  0  0  0  0  0  0  0  0  0
    1.5556    0.5725   -0.3092 C   0  0  0  0  0  0  0  0  0  0  0  0
    0.9689   -0.4387   -1.2872 C   0  0  0  0  0  0  0  0  0  0  0  0
    0.2786   -1.4019   -0.5644 O   0  0  0  0  0  0  0  0  0  0  0  0
   -1.0909   -1.2030   -0.5812 C   0  0  0  0  0  0  0  0  0  0  0  0
   -1.5058   -0.1842    0.4457 C   0  0  0  0  0  0  0  0  0  0  0  0
   -2.9795    0.0873    0.3575 C   0  0  0  0  0  0  0  0  0  0  0  0
   -0.7314    0.9594    0.2244 O   0  0  0  0  0  0  0  0  0  0  0  0
    0.5184    0.7269    0.8032 C   0  0  0  0  0  0  0  0  0  0  0  0
    3.4703    0.8205    0.6893 H   0  0  0  0  0  0  0  0  0  0  0  0
    2.5136   -0.5799    1.2808 H   0  0  0  0  0  0  0  0  0  0  0  0
    3.3164   -0.7273   -0.2920 H   0  0  0  0  0  0  0  0  0  0  0  0
    1.7744    1.5426   -0.7977 H   0  0  0  0  0  0  0  0  0  0  0  0
    0.2775    0.1138   -1.9399 H   0  0  0  0  0  0  0  0  0  0  0  0
    1.7917   -0.9009   -1.8512 H   0  0  0  0  0  0  0  0  0  0  0  0
   -1.6390   -2.1643   -0.4157 H   0  0  0  0  0  0  0  0  0  0  0  0
   -1.3559   -0.7944   -1.5767 H   0  0  0  0  0  0  0  0  0  0  0  0
   -1.2527   -0.5373    1.4795 H   0  0  0  0  0  0  0  0  0  0  0  0
   -3.3506   -0.2403   -0.6215 H   0  0  0  0  0  0  0  0  0  0  0  0
   -3.4859   -0.5562    1.1170 H   0  0  0  0  0  0  0  0  0  0  0  0
   -3.2339    1.1401    0.5994 H   0  0  0  0  0  0  0  0  0  0  0  0
    0.8176    1.5173    1.5123 H   0  0  0  0  0  0  0  0  0  0  0  0
    0.5453   -0.2456    1.3594 H   0  0  0  0  0  0  0  0  0  0  0  0
  1  2  1  0
  2  3  1  0
  3  4  1  0
  4  5  1  0
  5  6  1  0
  6  7  1  0
  6  8  1  0
  8  9  1  0
  9  2  1  0
  1 10  1  0
  1 11  1  0
  1 12  1  0
  2 13  1  0
  3 14  1  0
  3 15  1  0
  5 16  1  0
  5 17  1  0
  6 18  1  0
  7 19  1  0
  7 20  1  0
  7 21  1  0
  9 22  1  0
  9 23  1  0
M  END
