
     RDKit          3D

 21 22  0  0  0  0  0  0  0  0999 V2000
    2.3078   -0.2426   -0.7453 C   0  0  0  0  0  0  0  0  0  0  0  0
    0.8250   -0.0353   -0.5025 C   0  0  0  0  0  0  0  0  0  0  0  0
    0.1404   -1.2601    0.0076 C   0  0  0  0  0  0  0  0  0  0  0  0
   -1.3137   -1.3439   -0.3524 C   0  0  0  0  0  0  0  0  0  0  0  0
   -2.0161   -0.0570   -0.2927 C   0  0  0  0  0  0  0  0  0  0  0  0
   -1.6067    1.1212    0.1300 C   0  0  0  0  0  0  0  0  0  0  0  0
   -0.4586    1.5234    0.9900 C   0  0  0  0  0  0  0  0  0  0  0  0
    0.6500    0.4962    0.9073 C   0  0  0  0  0  0  0  0  0  0  0  0
    0.2618   -0.7623    1.2936 O   0  0  0  0  0  0  0  0  0  0  0  0
    2.7950    0.7318   -0.4809 H   0  0  0  0  0  0  0  0  0  0  0  0
    2.6470   -0.9787    0.0117 H   0  0  0  0  0  0  0  0  0  0  0  0
    2.5281   -0.5462   -1.7809 H   0  0  0  0  0  0  0  0  0  0  0  0
    0.3039    0.5413   -1.2913 H   0  0  0  0  0  0  0  0  0  0  0  0
    0.6610   -2.1879   -0.2253 H   0  0  0  0  0  0  0  0  0  0  0  0
   -1.4712   -1.8763   -1.3229 H   0  0  0  0  0  0  0  0  0  0  0  0
   -1.7919   -2.0124    0.4235 H   0  0  0  0  0  0  0  0  0  0  0  0
   -3.0290   -0.0823   -0.6529 H   0  0  0  0  0  0  0  0  0  0  0  0
   -2.2055    1.9821   -0.1986 H   0  0  0  0  0  0  0  0  0  0  0  0
   -0.7423    1.5925    2.0656 H   0  0  0  0  0  0  0  0  0  0  0  0
   -0.0392    2.4895    0.6430 H   0  0  0  0  0  0  0  0  0  0  0  0
    1.5545    0.9070    1.3732 H   0  0  0  0  0  0  0  0  0  0  0  0
  1  2  1  0
  2  3  1  0
  3  4  1  0
  4  5  1  0
  5  6  2  0
  6  7  1  0
  7  8  1  0
  8  9  1  0
  8  2  1  0
  9  3  1  0
  1 10  1  0
  1 11  1  0
  1 12  1  0
  2 13  1  0
  3 14  1  0
  4 15  1  0
  4 16  1  0
  5 17  1  0
  6 18  1  0
  7 19  1  0
  7 20  1  0
  8 21  1  0
M  END
