
     RDKit          3D

 23 25  0  0  0  0  0  0  0  0999 V2000
    2.4355   -0.6002   -0.0253 C   0  0  0  0  0  0  0  0  0  0  0  0
    1.4667    0.5065    0.0930 C   0  0  0  0  0  0  0  0  0  0  0  0
    0.6027    0.5853    1.3035 C   0  0  0  0  0  0  0  0  0  0  0  0
   -0.6192    0.8972    0.5003 C   0  0  0  0  0  0  0  0  0  0  0  0
   -1.7922    0.0027    0.7509 C   0  0  0  0  0  0  0  0  0  0  0  0
   -1.8832   -0.8644   -0.4869 C   0  0  0  0  0  0  0  0  0  0  0  0
   -0.4178   -1.0268   -0.8446 C   0  0  0  0  0  0  0  0  0  0  0  0
    0.1566    0.3179   -0.6760 C   0  0  0  0  0  0  0  0  0  0  0  0
   -0.5885    1.5770   -0.8018 C   0  0  0  0  0  0  0  0  0  0  0  0
    3.0411   -0.6916    0.9155 H   0  0  0  0  0  0  0  0  0  0  0  0
    3.1975   -0.3128   -0.8095 H   0  0  0  0  0  0  0  0  0  0  0  0
    2.0239   -1.5693   -0.3509 H   0  0  0  0  0  0  0  0  0  0  0  0
    1.9382    1.4866   -0.1201 H   0  0  0  0  0  0  0  0  0  0  0  0
    0.8338    1.3576    2.0379 H   0  0  0  0  0  0  0  0  0  0  0  0
    0.5501   -0.4086    1.8395 H   0  0  0  0  0  0  0  0  0  0  0  0
   -1.6958   -0.5996    1.6777 H   0  0  0  0  0  0  0  0  0  0  0  0
   -2.6991    0.6716    0.8318 H   0  0  0  0  0  0  0  0  0  0  0  0
   -2.4530   -0.3494   -1.2738 H   0  0  0  0  0  0  0  0  0  0  0  0
   -2.3051   -1.8556   -0.2552 H   0  0  0  0  0  0  0  0  0  0  0  0
    0.0107   -1.6971   -0.0475 H   0  0  0  0  0  0  0  0  0  0  0  0
   -0.3413   -1.4631   -1.8459 H   0  0  0  0  0  0  0  0  0  0  0  0
    0.0197    2.5016   -0.9808 H   0  0  0  0  0  0  0  0  0  0  0  0
   -1.4813    1.5346   -1.4317 H   0  0  0  0  0  0  0  0  0  0  0  0
  1  2  1  0
  2  3  1  0
  3  4  1  0
  4  5  1  0
  5  6  1  0
  6  7  1  0
  7  8  1  0
  8  9  1  0
  8  2  1  0
  8  4  1  0
  9  4  1  0
  1 10  1  0
  1 11  1  0
  1 12  1  0
  2 13  1  0
  3 14  1  0
  3 15  1  0
  5 16  1  0
  5 17  1  0
  6 18  1  0
  6 19  1  0
  7 20  1  0
  7 21  1  0
  9 22  1  0
  9 23  1  0
M  END
