
     RDKit          3D

 21 23  0  0  0  0  0  0  0  0999 V2000
   -2.4963   -0.1312    0.1875 C   0  0  0  0  0  0  0  0  0  0  0  0
   -1.0171    0.1530    0.4187 C   0  0  0  0  0  0  0  0  0  0  0  0
   -0.2044   -1.1048    0.5237 C   0  0  0  0  0  0  0  0  0  0  0  0
    1.0268   -0.9262   -0.3081 C   0  0  0  0  0  0  0  0  0  0  0  0
    0.9046    0.4662   -0.9152 C   0  0  0  0  0  0  0  0  0  0  0  0
   -0.5117    0.8896   -0.7806 C   0  0  0  0  0  0  0  0  0  0  0  0
    1.8729    0.9479    0.1228 C   0  0  0  0  0  0  0  0  0  0  0  0
    1.7597    0.5838    1.4402 O   0  0  0  0  0  0  0  0  0  0  0  0
    2.1729   -0.3358    0.5152 C   0  0  0  0  0  0  0  0  0  0  0  0
   -2.9088   -0.7752    0.9918 H   0  0  0  0  0  0  0  0  0  0  0  0
   -2.5937   -0.5745   -0.8211 H   0  0  0  0  0  0  0  0  0  0  0  0
   -3.0052    0.8512    0.1523 H   0  0  0  0  0  0  0  0  0  0  0  0
   -0.9597    0.7774    1.3415 H   0  0  0  0  0  0  0  0  0  0  0  0
   -0.7775   -2.0228    0.2706 H   0  0  0  0  0  0  0  0  0  0  0  0
    0.1145   -1.1881    1.6001 H   0  0  0  0  0  0  0  0  0  0  0  0
    1.3041   -1.7228   -0.9923 H   0  0  0  0  0  0  0  0  0  0  0  0
    1.3450    0.4808   -1.9386 H   0  0  0  0  0  0  0  0  0  0  0  0
   -1.0598    0.6034   -1.6883 H   0  0  0  0  0  0  0  0  0  0  0  0
   -0.5984    1.9939   -0.5820 H   0  0  0  0  0  0  0  0  0  0  0  0
    2.4900    1.8430   -0.0572 H   0  0  0  0  0  0  0  0  0  0  0  0
    3.1423   -0.8087    0.5190 H   0  0  0  0  0  0  0  0  0  0  0  0
  1  2  1  0
  2  3  1  0
  3  4  1  0
  4  5  1  0
  5  6  1  0
  5  7  1  0
  7  8  1  0
  8  9  1  0
  6  2  1  0
  9  7  1  0
  9  4  1  0
  1 10  1  0
  1 11  1  0
  1 12  1  0
  2 13  1  0
  3 14  1  0
  3 15  1  0
  4 16  1  0
  5 17  1  0
  6 18  1  0
  6 19  1  0
  7 20  1  0
  9 21  1  0
M  END
