
     RDKit          3D

 25 26  0  0  0  0  0  0  0  0999 V2000
    2.5916    0.9103   -0.0144 C   0  0  0  0  0  0  0  0  0  0  0  0
    1.2064    0.5095   -0.4012 C   0  0  0  0  0  0  0  0  0  0  0  0
    0.9635   -1.0086   -0.4079 C   0  0  0  0  0  0  0  0  0  0  0  0
    0.7840   -0.8650    1.0786 C   0  0  0  0  0  0  0  0  0  0  0  0
    0.1759    0.4910    0.6888 C   0  0  0  0  0  0  0  0  0  0  0  0
   -1.0601    0.0357   -0.0252 C   0  0  0  0  0  0  0  0  0  0  0  0
   -2.0353   -0.6787    0.8672 C   0  0  0  0  0  0  0  0  0  0  0  0
   -1.6607    1.1461   -0.8145 C   0  0  0  0  0  0  0  0  0  0  0  0
   -0.4389   -1.0408   -0.9381 C   0  0  0  0  0  0  0  0  0  0  0  0
    2.7948    0.8609    1.0566 H   0  0  0  0  0  0  0  0  0  0  0  0
    2.7644    1.9499   -0.3748 H   0  0  0  0  0  0  0  0  0  0  0  0
    3.3083    0.2789   -0.6139 H   0  0  0  0  0  0  0  0  0  0  0  0
    0.8980    0.9061   -1.3766 H   0  0  0  0  0  0  0  0  0  0  0  0
    1.7173   -1.6281   -0.8055 H   0  0  0  0  0  0  0  0  0  0  0  0
    1.6866   -0.7471    1.6753 H   0  0  0  0  0  0  0  0  0  0  0  0
    0.0134   -1.4688    1.5503 H   0  0  0  0  0  0  0  0  0  0  0  0
    0.1421    1.2473    1.4212 H   0  0  0  0  0  0  0  0  0  0  0  0
   -3.0686   -0.5528    0.4324 H   0  0  0  0  0  0  0  0  0  0  0  0
   -2.0512   -0.2819    1.9037 H   0  0  0  0  0  0  0  0  0  0  0  0
   -1.8770   -1.7964    0.8573 H   0  0  0  0  0  0  0  0  0  0  0  0
   -0.8916    1.8573   -1.1470 H   0  0  0  0  0  0  0  0  0  0  0  0
   -2.2879    0.8066   -1.6616 H   0  0  0  0  0  0  0  0  0  0  0  0
   -2.3286    1.7150   -0.1202 H   0  0  0  0  0  0  0  0  0  0  0  0
   -0.4007   -0.6486   -1.9853 H   0  0  0  0  0  0  0  0  0  0  0  0
   -0.9458   -1.9975   -0.8450 H   0  0  0  0  0  0  0  0  0  0  0  0
  1  2  1  0
  2  3  1  0
  3  4  1  0
  4  5  1  0
  5  6  1  0
  6  7  1  0
  6  8  1  0
  6  9  1  0
  5  2  1  0
  9  3  1  0
  1 10  1  0
  1 11  1  0
  1 12  1  0
  2 13  1  0
  3 14  1  0
  4 15  1  0
  4 16  1  0
  5 17  1  0
  7 18  1  0
  7 19  1  0
  7 20  1  0
  8 21  1  0
  8 22  1  0
  8 23  1  0
  9 24  1  0
  9 25  1  0
M  END
