
     RDKit          3D

 17 18  0  0  0  0  0  0  0  0999 V2000
    2.0579   -0.4790   -0.6775 C   0  0  0  0  0  0  0  0  0  0  0  0
    0.7950   -0.4128    0.1105 C   0  0  0  0  0  0  0  0  0  0  0  0
   -0.3758   -1.1293   -0.4443 C   0  0  0  0  0  0  0  0  0  0  0  0
   -0.5496   -2.1705   -1.0205 O   0  0  0  0  0  0  0  0  0  0  0  0
   -1.1906   -0.0271    0.0150 C   0  0  0  0  0  0  0  0  0  0  0  0
   -2.4759    0.1350    0.3790 C   0  0  0  0  0  0  0  0  0  0  0  0
   -1.5062   -0.1661    1.4664 O   0  0  0  0  0  0  0  0  0  0  0  0
   -0.0245    0.8708   -0.1094 C   0  0  0  0  0  0  0  0  0  0  0  0
    0.1650    1.8260    0.8552 O   0  0  0  0  0  0  0  0  0  0  0  0
    2.3295    0.5143   -1.0670 H   0  0  0  0  0  0  0  0  0  0  0  0
    2.8879   -0.8763   -0.0548 H   0  0  0  0  0  0  0  0  0  0  0  0
    1.9175   -1.2273   -1.4967 H   0  0  0  0  0  0  0  0  0  0  0  0
    0.9153   -0.5404    1.2243 H   0  0  0  0  0  0  0  0  0  0  0  0
   -3.2192   -0.6789    0.4040 H   0  0  0  0  0  0  0  0  0  0  0  0
   -2.9406    1.1318    0.5381 H   0  0  0  0  0  0  0  0  0  0  0  0
    0.0907    1.2295   -1.1705 H   0  0  0  0  0  0  0  0  0  0  0  0
    1.1234    2.0002    1.0482 H   0  0  0  0  0  0  0  0  0  0  0  0
  1  2  1  0
  2  3  1  0
  3  4  2  0
  3  5  1  0
  5  6  1  0
  6  7  1  0
  5  8  1  0
  8  9  1  0
  8  2  1  0
  7  5  1  0
  1 10  1  0
  1 11  1  0
  1 12  1  0
  2 13  1  0
  6 14  1  0
  6 15  1  0
  8 16  1  0
  9 17  1  0
M  END
