
     RDKit          3D

 20 21  0  0  0  0  0  0  0  0999 V2000
   -1.5819    1.0511    0.0386 C   0  0  0  0  0  0  0  0  0  0  0  0
   -1.0430   -0.1884   -0.6051 C   0  0  0  0  0  0  0  0  0  0  0  0
   -0.8080   -1.2997    0.4238 C   0  0  0  0  0  0  0  0  0  0  0  0
    0.4264   -0.7328    1.1344 C   0  0  0  0  0  0  0  0  0  0  0  0
    1.3063   -0.4165   -0.0707 C   0  0  0  0  0  0  0  0  0  0  0  0
    1.7906    0.9928   -0.1562 C   0  0  0  0  0  0  0  0  0  0  0  0
    0.8628    1.2406   -1.1847 O   0  0  0  0  0  0  0  0  0  0  0  0
    0.3390   -0.0224   -1.1743 C   0  0  0  0  0  0  0  0  0  0  0  0
   -2.2029    0.7287    0.9217 H   0  0  0  0  0  0  0  0  0  0  0  0
   -0.8266    1.7332    0.4328 H   0  0  0  0  0  0  0  0  0  0  0  0
   -2.3018    1.5565   -0.6513 H   0  0  0  0  0  0  0  0  0  0  0  0
   -1.7853   -0.5544   -1.3241 H   0  0  0  0  0  0  0  0  0  0  0  0
   -1.6510   -1.4406    1.0914 H   0  0  0  0  0  0  0  0  0  0  0  0
   -0.4930   -2.1794   -0.1503 H   0  0  0  0  0  0  0  0  0  0  0  0
    0.1444    0.1956    1.6879 H   0  0  0  0  0  0  0  0  0  0  0  0
    0.9309   -1.4795    1.7511 H   0  0  0  0  0  0  0  0  0  0  0  0
    2.0039   -1.2152   -0.3457 H   0  0  0  0  0  0  0  0  0  0  0  0
    2.8465    1.0344   -0.4780 H   0  0  0  0  0  0  0  0  0  0  0  0
    1.5550    1.6497    0.7201 H   0  0  0  0  0  0  0  0  0  0  0  0
    0.4876   -0.6539   -2.0613 H   0  0  0  0  0  0  0  0  0  0  0  0
  1  2  1  0
  2  3  1  0
  3  4  1  0
  4  5  1  0
  5  6  1  0
  6  7  1  0
  7  8  1  0
  8  2  1  0
  8  5  1  0
  1  9  1  0
  1 10  1  0
  1 11  1  0
  2 12  1  0
  3 13  1  0
  3 14  1  0
  4 15  1  0
  4 16  1  0
  5 17  1  0
  6 18  1  0
  6 19  1  0
  8 20  1  0
M  END
