
     RDKit          3D

 19 19  0  0  0  0  0  0  0  0999 V2000
   -2.1329   -1.0585    0.3351 C   0  0  0  0  0  0  0  0  0  0  0  0
   -0.8218   -0.6645   -0.3406 C   0  0  0  0  0  0  0  0  0  0  0  0
   -0.7057    0.7387   -0.8338 C   0  0  0  0  0  0  0  0  0  0  0  0
    0.0059    0.2860    0.3923 C   0  0  0  0  0  0  0  0  0  0  0  0
   -0.5312    0.8428    1.5787 O   0  0  0  0  0  0  0  0  0  0  0  0
    1.4767    0.1181    0.4382 C   0  0  0  0  0  0  0  0  0  0  0  0
    2.1136    1.3519    0.6331 O   0  0  0  0  0  0  0  0  0  0  0  0
    2.1083   -0.5823   -0.6754 C   0  0  0  0  0  0  0  0  0  0  0  0
    1.8233   -1.6921   -1.0865 O   0  0  0  0  0  0  0  0  0  0  0  0
   -1.9143   -1.6563    1.2412 H   0  0  0  0  0  0  0  0  0  0  0  0
   -2.7142   -0.1595    0.6104 H   0  0  0  0  0  0  0  0  0  0  0  0
   -2.7347   -1.6678   -0.3563 H   0  0  0  0  0  0  0  0  0  0  0  0
   -0.4594   -1.4648   -0.9924 H   0  0  0  0  0  0  0  0  0  0  0  0
   -1.5869    1.4067   -0.7642 H   0  0  0  0  0  0  0  0  0  0  0  0
   -0.0444    0.9770   -1.6996 H   0  0  0  0  0  0  0  0  0  0  0  0
   -0.4508    1.8202    1.4670 H   0  0  0  0  0  0  0  0  0  0  0  0
    1.7126   -0.4755    1.3707 H   0  0  0  0  0  0  0  0  0  0  0  0
    1.9404    1.9783   -0.1027 H   0  0  0  0  0  0  0  0  0  0  0  0
    2.9155   -0.0985   -1.2151 H   0  0  0  0  0  0  0  0  0  0  0  0
  1  2  1  0
  2  3  1  0
  3  4  1  0
  4  5  1  0
  4  6  1  0
  6  7  1  0
  6  8  1  0
  8  9  2  0
  4  2  1  0
  1 10  1  0
  1 11  1  0
  1 12  1  0
  2 13  1  0
  3 14  1  0
  3 15  1  0
  5 16  1  0
  6 17  1  0
  7 18  1  0
  8 19  1  0
M  END
