
     RDKit          3D

 20 21  0  0  0  0  0  0  0  0999 V2000
   -1.4621   -0.1884    1.4165 C   0  0  0  0  0  0  0  0  0  0  0  0
   -0.9233   -0.4488    0.0037 C   0  0  0  0  0  0  0  0  0  0  0  0
   -1.2928    0.7355   -0.8604 C   0  0  0  0  0  0  0  0  0  0  0  0
   -1.0238    1.9517   -0.2808 O   0  0  0  0  0  0  0  0  0  0  0  0
    0.1176    1.3166   -0.6883 C   0  0  0  0  0  0  0  0  0  0  0  0
    0.5199   -0.0202   -0.1578 C   0  0  0  0  0  0  0  0  0  0  0  0
    1.1452   -0.8527   -1.2847 C   0  0  0  0  0  0  0  0  0  0  0  0
    1.3413    0.0083    1.0816 C   0  0  0  0  0  0  0  0  0  0  0  0
   -1.1303    0.8587    1.6533 H   0  0  0  0  0  0  0  0  0  0  0  0
   -2.5656   -0.1966    1.4046 H   0  0  0  0  0  0  0  0  0  0  0  0
   -1.1245   -0.9293    2.1364 H   0  0  0  0  0  0  0  0  0  0  0  0
   -1.1757   -1.4337   -0.3756 H   0  0  0  0  0  0  0  0  0  0  0  0
   -1.6437    0.6162   -1.8728 H   0  0  0  0  0  0  0  0  0  0  0  0
    0.6474    1.6818   -1.5794 H   0  0  0  0  0  0  0  0  0  0  0  0
    0.6660   -0.5943   -2.2632 H   0  0  0  0  0  0  0  0  0  0  0  0
    2.2186   -0.6505   -1.3731 H   0  0  0  0  0  0  0  0  0  0  0  0
    0.8912   -1.8964   -1.0819 H   0  0  0  0  0  0  0  0  0  0  0  0
    1.7251    1.0495    1.2224 H   0  0  0  0  0  0  0  0  0  0  0  0
    2.2409   -0.6418    0.9320 H   0  0  0  0  0  0  0  0  0  0  0  0
    0.8288   -0.3657    1.9675 H   0  0  0  0  0  0  0  0  0  0  0  0
  1  2  1  0
  2  3  1  0
  3  4  1  0
  4  5  1  0
  5  6  1  0
  6  7  1  0
  6  8  1  0
  6  2  1  0
  5  3  1  0
  1  9  1  0
  1 10  1  0
  1 11  1  0
  2 12  1  0
  3 13  1  0
  5 14  1  0
  7 15  1  0
  7 16  1  0
  7 17  1  0
  8 18  1  0
  8 19  1  0
  8 20  1  0
M  END
