
     RDKit          3D

 21 21  0  0  0  0  0  0  0  0999 V2000
   -1.8265    1.5357    0.4253 C   0  0  0  0  0  0  0  0  0  0  0  0
   -0.5718    0.6964    0.5486 C   0  0  0  0  0  0  0  0  0  0  0  0
    0.5713    1.4445    0.0339 C   0  0  0  0  0  0  0  0  0  0  0  0
    1.7465    1.0067   -0.3609 C   0  0  0  0  0  0  0  0  0  0  0  0
    2.2648   -0.3639   -0.4037 C   0  0  0  0  0  0  0  0  0  0  0  0
    1.5868   -1.4391   -0.1167 C   0  0  0  0  0  0  0  0  0  0  0  0
    0.2014   -1.6902    0.3130 C   0  0  0  0  0  0  0  0  0  0  0  0
   -0.7754   -0.6382   -0.1467 C   0  0  0  0  0  0  0  0  0  0  0  0
   -2.0439   -1.0898    0.2740 O   0  0  0  0  0  0  0  0  0  0  0  0
   -1.8150    2.1210   -0.5170 H   0  0  0  0  0  0  0  0  0  0  0  0
   -1.8612    2.2768    1.2475 H   0  0  0  0  0  0  0  0  0  0  0  0
   -2.6936    0.8588    0.5019 H   0  0  0  0  0  0  0  0  0  0  0  0
   -0.4062    0.4396    1.6351 H   0  0  0  0  0  0  0  0  0  0  0  0
    0.4425    2.5055   -0.0358 H   0  0  0  0  0  0  0  0  0  0  0  0
    2.4555    1.7602   -0.7124 H   0  0  0  0  0  0  0  0  0  0  0  0
    3.2924   -0.4715   -0.6989 H   0  0  0  0  0  0  0  0  0  0  0  0
    2.1713   -2.3493   -0.2156 H   0  0  0  0  0  0  0  0  0  0  0  0
    0.1628   -1.7181    1.4180 H   0  0  0  0  0  0  0  0  0  0  0  0
   -0.1256   -2.6462   -0.1305 H   0  0  0  0  0  0  0  0  0  0  0  0
   -0.8223   -0.5406   -1.2472 H   0  0  0  0  0  0  0  0  0  0  0  0
   -1.9536   -1.6984    1.0723 H   0  0  0  0  0  0  0  0  0  0  0  0
  1  2  1  0
  2  3  1  0
  3  4  2  0
  4  5  1  0
  5  6  2  0
  6  7  1  0
  7  8  1  0
  8  9  1  0
  8  2  1  0
  1 10  1  0
  1 11  1  0
  1 12  1  0
  2 13  1  0
  3 14  1  0
  4 15  1  0
  5 16  1  0
  6 17  1  0
  7 18  1  0
  7 19  1  0
  8 20  1  0
  9 21  1  0
M  END
