
     RDKit          3D

 23 24  0  0  0  0  0  0  0  0999 V2000
    2.4922   -0.1461   -0.3331 C   0  0  0  0  0  0  0  0  0  0  0  0
    1.1617   -0.3564    0.3051 C   0  0  0  0  0  0  0  0  0  0  0  0
    0.1730   -1.1888   -0.5281 C   0  0  0  0  0  0  0  0  0  0  0  0
   -0.8891   -0.2532    0.0674 C   0  0  0  0  0  0  0  0  0  0  0  0
   -2.0719   -0.0086   -0.7942 C   0  0  0  0  0  0  0  0  0  0  0  0
   -1.2612   -0.7721    1.4618 C   0  0  0  0  0  0  0  0  0  0  0  0
    0.1645    0.7691    0.1577 C   0  0  0  0  0  0  0  0  0  0  0  0
    0.3790    1.9667   -0.4444 C   0  0  0  0  0  0  0  0  0  0  0  0
    0.1487    1.8227    1.0194 O   0  0  0  0  0  0  0  0  0  0  0  0
    2.4597   -0.4505   -1.3933 H   0  0  0  0  0  0  0  0  0  0  0  0
    3.2245   -0.8138    0.1975 H   0  0  0  0  0  0  0  0  0  0  0  0
    2.8369    0.9105   -0.2687 H   0  0  0  0  0  0  0  0  0  0  0  0
    1.1649   -0.6956    1.3675 H   0  0  0  0  0  0  0  0  0  0  0  0
    0.1109   -2.2235   -0.2075 H   0  0  0  0  0  0  0  0  0  0  0  0
    0.3253   -0.9880   -1.6062 H   0  0  0  0  0  0  0  0  0  0  0  0
   -1.9474   -0.3372   -1.8528 H   0  0  0  0  0  0  0  0  0  0  0  0
   -2.9143   -0.6506   -0.3977 H   0  0  0  0  0  0  0  0  0  0  0  0
   -2.4555    1.0305   -0.7206 H   0  0  0  0  0  0  0  0  0  0  0  0
   -0.9084   -0.0571    2.2389 H   0  0  0  0  0  0  0  0  0  0  0  0
   -2.3599   -0.8152    1.5562 H   0  0  0  0  0  0  0  0  0  0  0  0
   -0.8085   -1.7419    1.6786 H   0  0  0  0  0  0  0  0  0  0  0  0
    1.3863    2.4141   -0.5720 H   0  0  0  0  0  0  0  0  0  0  0  0
   -0.4114    2.5852   -0.9315 H   0  0  0  0  0  0  0  0  0  0  0  0
  1  2  1  0
  2  3  1  0
  3  4  1  0
  4  5  1  0
  4  6  1  0
  4  7  1  0
  7  8  1  0
  8  9  1  0
  7  2  1  0
  9  7  1  0
  1 10  1  0
  1 11  1  0
  1 12  1  0
  2 13  1  0
  3 14  1  0
  3 15  1  0
  5 16  1  0
  5 17  1  0
  5 18  1  0
  6 19  1  0
  6 20  1  0
  6 21  1  0
  8 22  1  0
  8 23  1  0
M  END
