
     RDKit          3D

 21 22  0  0  0  0  0  0  0  0999 V2000
    2.4063   -0.0197   -0.2768 C   0  0  0  0  0  0  0  0  0  0  0  0
    0.9463    0.1588   -0.4817 C   0  0  0  0  0  0  0  0  0  0  0  0
    0.2873    1.3203    0.1866 C   0  0  0  0  0  0  0  0  0  0  0  0
   -0.0011    0.4335    1.3724 C   0  0  0  0  0  0  0  0  0  0  0  0
    0.0507   -0.7290    0.3928 C   0  0  0  0  0  0  0  0  0  0  0  0
   -1.2639   -0.7862   -0.3115 C   0  0  0  0  0  0  0  0  0  0  0  0
   -2.1836   -1.4372    0.5177 O   0  0  0  0  0  0  0  0  0  0  0  0
   -1.7076    0.5662   -0.7212 C   0  0  0  0  0  0  0  0  0  0  0  0
   -0.8883    1.6045   -0.4431 O   0  0  0  0  0  0  0  0  0  0  0  0
    2.7555   -0.7952   -1.0172 H   0  0  0  0  0  0  0  0  0  0  0  0
    2.6723   -0.4133    0.7110 H   0  0  0  0  0  0  0  0  0  0  0  0
    2.9341    0.9200   -0.5474 H   0  0  0  0  0  0  0  0  0  0  0  0
    0.6652    0.1240   -1.5661 H   0  0  0  0  0  0  0  0  0  0  0  0
    0.8901    2.2086    0.3708 H   0  0  0  0  0  0  0  0  0  0  0  0
    0.7474    0.3958    2.1591 H   0  0  0  0  0  0  0  0  0  0  0  0
   -1.0487    0.5476    1.7535 H   0  0  0  0  0  0  0  0  0  0  0  0
    0.4984   -1.6444    0.7465 H   0  0  0  0  0  0  0  0  0  0  0  0
   -1.1187   -1.4122   -1.2317 H   0  0  0  0  0  0  0  0  0  0  0  0
   -1.9830   -2.4070    0.4318 H   0  0  0  0  0  0  0  0  0  0  0  0
   -2.7019    0.7634   -0.2224 H   0  0  0  0  0  0  0  0  0  0  0  0
   -1.9566    0.6017   -1.8231 H   0  0  0  0  0  0  0  0  0  0  0  0
  1  2  1  0
  2  3  1  0
  3  4  1  0
  4  5  1  0
  5  6  1  0
  6  7  1  0
  6  8  1  0
  8  9  1  0
  5  2  1  0
  9  3  1  0
  1 10  1  0
  1 11  1  0
  1 12  1  0
  2 13  1  0
  3 14  1  0
  4 15  1  0
  4 16  1  0
  5 17  1  0
  6 18  1  0
  7 19  1  0
  8 20  1  0
  8 21  1  0
M  END
