
     RDKit          3D

 23 25  0  0  0  0  0  0  0  0999 V2000
   -2.1069   -1.3278    0.2248 C   0  0  0  0  0  0  0  0  0  0  0  0
   -1.0630   -0.3869    0.7053 C   0  0  0  0  0  0  0  0  0  0  0  0
    0.2531   -1.0360    1.1386 C   0  0  0  0  0  0  0  0  0  0  0  0
    0.9626   -0.0898    0.2357 C   0  0  0  0  0  0  0  0  0  0  0  0
    2.1979   -0.3746   -0.4501 C   0  0  0  0  0  0  0  0  0  0  0  0
    2.1092    0.7217    0.6345 C   0  0  0  0  0  0  0  0  0  0  0  0
   -0.2994    0.3976   -0.2934 C   0  0  0  0  0  0  0  0  0  0  0  0
   -0.6758    0.7127   -1.6348 C   0  0  0  0  0  0  0  0  0  0  0  0
   -0.5844    1.8143   -0.5577 C   0  0  0  0  0  0  0  0  0  0  0  0
   -2.0080   -2.2967    0.7915 H   0  0  0  0  0  0  0  0  0  0  0  0
   -3.1426   -0.9593    0.4837 H   0  0  0  0  0  0  0  0  0  0  0  0
   -2.0873   -1.5630   -0.8395 H   0  0  0  0  0  0  0  0  0  0  0  0
   -1.4963    0.2984    1.4854 H   0  0  0  0  0  0  0  0  0  0  0  0
    0.3392   -2.1061    0.8008 H   0  0  0  0  0  0  0  0  0  0  0  0
    0.3803   -0.8977    2.2239 H   0  0  0  0  0  0  0  0  0  0  0  0
    2.7616   -1.3033   -0.1487 H   0  0  0  0  0  0  0  0  0  0  0  0
    2.4848   -0.0188   -1.4392 H   0  0  0  0  0  0  0  0  0  0  0  0
    2.6438    0.5431    1.5808 H   0  0  0  0  0  0  0  0  0  0  0  0
    2.1641    1.7755    0.2575 H   0  0  0  0  0  0  0  0  0  0  0  0
   -1.7179    0.5341   -2.0006 H   0  0  0  0  0  0  0  0  0  0  0  0
    0.1205    0.8165   -2.4198 H   0  0  0  0  0  0  0  0  0  0  0  0
    0.2808    2.4935   -0.5906 H   0  0  0  0  0  0  0  0  0  0  0  0
   -1.5162    2.2528   -0.1881 H   0  0  0  0  0  0  0  0  0  0  0  0
  1  2  1  0
  2  3  1  0
  3  4  1  0
  4  5  1  0
  5  6  1  0
  4  7  1  0
  7  8  1  0
  8  9  1  0
  7  2  1  0
  6  4  1  0
  9  7  1  0
  1 10  1  0
  1 11  1  0
  1 12  1  0
  2 13  1  0
  3 14  1  0
  3 15  1  0
  5 16  1  0
  5 17  1  0
  6 18  1  0
  6 19  1  0
  8 20  1  0
  8 21  1  0
  9 22  1  0
  9 23  1  0
M  END
