
     RDKit          3D

 21 22  0  0  0  0  0  0  0  0999 V2000
   -2.0369   -1.2152   -0.7817 C   0  0  0  0  0  0  0  0  0  0  0  0
   -1.2430   -0.5208    0.2950 C   0  0  0  0  0  0  0  0  0  0  0  0
   -0.4544    0.6397   -0.3356 C   0  0  0  0  0  0  0  0  0  0  0  0
   -0.4234    1.8013    0.5987 C   0  0  0  0  0  0  0  0  0  0  0  0
    0.7628   -0.2356   -0.2165 C   0  0  0  0  0  0  0  0  0  0  0  0
    2.1331    0.3134   -0.2767 C   0  0  0  0  0  0  0  0  0  0  0  0
    3.0430   -0.4747    0.4598 O   0  0  0  0  0  0  0  0  0  0  0  0
    0.6736   -1.5616   -0.7439 O   0  0  0  0  0  0  0  0  0  0  0  0
    0.1311   -1.1741    0.5045 C   0  0  0  0  0  0  0  0  0  0  0  0
   -2.4508   -0.4107   -1.4571 H   0  0  0  0  0  0  0  0  0  0  0  0
   -2.8219   -1.8694   -0.4011 H   0  0  0  0  0  0  0  0  0  0  0  0
   -1.2933   -1.7557   -1.4373 H   0  0  0  0  0  0  0  0  0  0  0  0
   -1.7707   -0.2603    1.2120 H   0  0  0  0  0  0  0  0  0  0  0  0
   -0.7003    0.8428   -1.3749 H   0  0  0  0  0  0  0  0  0  0  0  0
   -0.9831    1.6022    1.5564 H   0  0  0  0  0  0  0  0  0  0  0  0
   -1.0025    2.6463    0.1250 H   0  0  0  0  0  0  0  0  0  0  0  0
    0.5604    2.1873    0.8463 H   0  0  0  0  0  0  0  0  0  0  0  0
    2.4924    0.2205   -1.3446 H   0  0  0  0  0  0  0  0  0  0  0  0
    2.2131    1.3782   -0.0329 H   0  0  0  0  0  0  0  0  0  0  0  0
    2.8681   -0.3636    1.4245 H   0  0  0  0  0  0  0  0  0  0  0  0
    0.3026   -1.7901    1.3802 H   0  0  0  0  0  0  0  0  0  0  0  0
  1  2  1  0
  2  3  1  0
  3  4  1  0
  3  5  1  0
  5  6  1  0
  6  7  1  0
  5  8  1  0
  8  9  1  0
  9  2  1  0
  9  5  1  0
  1 10  1  0
  1 11  1  0
  1 12  1  0
  2 13  1  0
  3 14  1  0
  4 15  1  0
  4 16  1  0
  4 17  1  0
  6 18  1  0
  6 19  1  0
  7 20  1  0
  9 21  1  0
M  END
