
     RDKit          3D

 19 20  0  0  0  0  0  0  0  0999 V2000
   -2.1863    0.3319    0.3892 C   0  0  0  0  0  0  0  0  0  0  0  0
   -0.6987    0.4913    0.3262 C   0  0  0  0  0  0  0  0  0  0  0  0
    0.0239   -0.6482    1.0734 C   0  0  0  0  0  0  0  0  0  0  0  0
    0.7391   -1.2374   -0.1235 C   0  0  0  0  0  0  0  0  0  0  0  0
   -0.3304   -1.2471   -1.0540 O   0  0  0  0  0  0  0  0  0  0  0  0
   -0.1654    0.1617   -1.0568 C   0  0  0  0  0  0  0  0  0  0  0  0
    1.2836   -0.1102   -0.9222 C   0  0  0  0  0  0  0  0  0  0  0  0
    2.1239    0.8730   -0.2346 C   0  0  0  0  0  0  0  0  0  0  0  0
    1.8210    1.9861    0.0827 O   0  0  0  0  0  0  0  0  0  0  0  0
   -2.4798   -0.6066    0.9250 H   0  0  0  0  0  0  0  0  0  0  0  0
   -2.6317    1.1652    0.9993 H   0  0  0  0  0  0  0  0  0  0  0  0
   -2.6709    0.3910   -0.6090 H   0  0  0  0  0  0  0  0  0  0  0  0
   -0.3904    1.4692    0.6871 H   0  0  0  0  0  0  0  0  0  0  0  0
   -0.7215   -1.3873    1.4061 H   0  0  0  0  0  0  0  0  0  0  0  0
    0.6839   -0.2783    1.8474 H   0  0  0  0  0  0  0  0  0  0  0  0
    1.2852   -2.1457   -0.0028 H   0  0  0  0  0  0  0  0  0  0  0  0
   -0.5601    0.6927   -1.8944 H   0  0  0  0  0  0  0  0  0  0  0  0
    1.7310   -0.4452   -1.8528 H   0  0  0  0  0  0  0  0  0  0  0  0
    3.1435    0.5441    0.0137 H   0  0  0  0  0  0  0  0  0  0  0  0
  1  2  1  0
  2  3  1  0
  3  4  1  0
  4  5  1  0
  5  6  1  0
  6  7  1  0
  7  8  1  0
  8  9  2  0
  6  2  1  0
  7  4  1  0
  1 10  1  0
  1 11  1  0
  1 12  1  0
  2 13  1  0
  3 14  1  0
  3 15  1  0
  4 16  1  0
  6 17  1  0
  7 18  1  0
  8 19  1  0
M  END
