
     RDKit          3D

 23 24  0  0  0  0  0  0  0  0999 V2000
    2.8222   -0.6926    0.0828 C   0  0  0  0  0  0  0  0  0  0  0  0
    1.5829    0.1508   -0.0894 C   0  0  0  0  0  0  0  0  0  0  0  0
    0.6217   -0.4200   -1.0992 C   0  0  0  0  0  0  0  0  0  0  0  0
   -0.6195    0.3774   -0.8327 C   0  0  0  0  0  0  0  0  0  0  0  0
   -0.5525    0.7561    0.6689 C   0  0  0  0  0  0  0  0  0  0  0  0
    0.7175    0.1311    1.1673 C   0  0  0  0  0  0  0  0  0  0  0  0
   -1.6586   -0.0383    0.1054 C   0  0  0  0  0  0  0  0  0  0  0  0
   -2.9768    0.7325   -0.0464 C   0  0  0  0  0  0  0  0  0  0  0  0
   -1.8539   -1.3486    0.5012 O   0  0  0  0  0  0  0  0  0  0  0  0
    2.5975   -1.7352    0.3167 H   0  0  0  0  0  0  0  0  0  0  0  0
    3.3702   -0.6552   -0.8784 H   0  0  0  0  0  0  0  0  0  0  0  0
    3.4511   -0.2063    0.8369 H   0  0  0  0  0  0  0  0  0  0  0  0
    1.8905    1.1747   -0.3402 H   0  0  0  0  0  0  0  0  0  0  0  0
    0.4988   -1.5045   -0.8428 H   0  0  0  0  0  0  0  0  0  0  0  0
    0.9557   -0.3226   -2.1334 H   0  0  0  0  0  0  0  0  0  0  0  0
   -0.7665    1.2394   -1.4962 H   0  0  0  0  0  0  0  0  0  0  0  0
   -0.6558    1.8257    0.9179 H   0  0  0  0  0  0  0  0  0  0  0  0
    0.4979   -0.9307    1.3936 H   0  0  0  0  0  0  0  0  0  0  0  0
    1.1911    0.6524    1.9976 H   0  0  0  0  0  0  0  0  0  0  0  0
   -2.8275    1.8194    0.1340 H   0  0  0  0  0  0  0  0  0  0  0  0
   -3.7508    0.3364    0.6209 H   0  0  0  0  0  0  0  0  0  0  0  0
   -3.3085    0.6498   -1.1158 H   0  0  0  0  0  0  0  0  0  0  0  0
   -1.2267   -1.9918    0.1315 H   0  0  0  0  0  0  0  0  0  0  0  0
  1  2  1  0
  2  3  1  0
  3  4  1  0
  4  5  1  0
  5  6  1  0
  5  7  1  0
  7  8  1  0
  7  9  1  0
  6  2  1  0
  7  4  1  0
  1 10  1  0
  1 11  1  0
  1 12  1  0
  2 13  1  0
  3 14  1  0
  3 15  1  0
  4 16  1  0
  5 17  1  0
  6 18  1  0
  6 19  1  0
  8 20  1  0
  8 21  1  0
  8 22  1  0
  9 23  1  0
M  END
