
     RDKit          3D

 20 21  0  0  0  0  0  0  0  0999 V2000
    2.4237    0.1824   -0.0893 C   0  0  0  0  0  0  0  0  0  0  0  0
    1.0762   -0.4306   -0.0907 C   0  0  0  0  0  0  0  0  0  0  0  0
    0.1592   -0.0082    1.0686 C   0  0  0  0  0  0  0  0  0  0  0  0
   -0.9345   -0.0553    0.0586 C   0  0  0  0  0  0  0  0  0  0  0  0
   -1.8991   -1.1531    0.0251 C   0  0  0  0  0  0  0  0  0  0  0  0
   -2.2824    0.3512    0.1952 C   0  0  0  0  0  0  0  0  0  0  0  0
    0.0434    0.2510   -1.0028 C   0  0  0  0  0  0  0  0  0  0  0  0
    0.3729    1.6141   -1.1609 O   0  0  0  0  0  0  0  0  0  0  0  0
    2.5968    0.9337   -0.8927 H   0  0  0  0  0  0  0  0  0  0  0  0
    3.1698   -0.6387   -0.3069 H   0  0  0  0  0  0  0  0  0  0  0  0
    2.6976    0.5720    0.9196 H   0  0  0  0  0  0  0  0  0  0  0  0
    0.9923   -1.5160   -0.2371 H   0  0  0  0  0  0  0  0  0  0  0  0
    0.4147    1.0074    1.4640 H   0  0  0  0  0  0  0  0  0  0  0  0
    0.1359   -0.7685    1.8577 H   0  0  0  0  0  0  0  0  0  0  0  0
   -1.9781   -1.7664    0.9588 H   0  0  0  0  0  0  0  0  0  0  0  0
   -2.1250   -1.6130   -0.9418 H   0  0  0  0  0  0  0  0  0  0  0  0
   -2.8629    0.7439   -0.6513 H   0  0  0  0  0  0  0  0  0  0  0  0
   -2.7423    0.5983    1.1827 H   0  0  0  0  0  0  0  0  0  0  0  0
   -0.1575   -0.2667   -1.9372 H   0  0  0  0  0  0  0  0  0  0  0  0
    0.8994    1.9628   -0.4195 H   0  0  0  0  0  0  0  0  0  0  0  0
  1  2  1  0
  2  3  1  0
  3  4  1  0
  4  5  1  0
  5  6  1  0
  4  7  1  0
  7  8  1  0
  7  2  1  0
  6  4  1  0
  1  9  1  0
  1 10  1  0
  1 11  1  0
  2 12  1  0
  3 13  1  0
  3 14  1  0
  5 15  1  0
  5 16  1  0
  6 17  1  0
  6 18  1  0
  7 19  1  0
  8 20  1  0
M  END
