
     RDKit          3D

 21 21  0  0  0  0  0  0  0  0999 V2000
   -2.4349    0.6192    0.2605 C   0  0  0  0  0  0  0  0  0  0  0  0
   -1.0193    0.1230    0.2904 C   0  0  0  0  0  0  0  0  0  0  0  0
   -1.0119   -1.3827   -0.0179 C   0  0  0  0  0  0  0  0  0  0  0  0
    0.3960   -1.7699    0.2414 C   0  0  0  0  0  0  0  0  0  0  0  0
    0.6142   -2.8414    0.7588 O   0  0  0  0  0  0  0  0  0  0  0  0
    1.4706   -0.8523   -0.1330 C   0  0  0  0  0  0  0  0  0  0  0  0
    1.0517    0.4484   -0.6970 C   0  0  0  0  0  0  0  0  0  0  0  0
    1.7361    1.6153    0.0002 C   0  0  0  0  0  0  0  0  0  0  0  0
   -0.2955    0.7092   -0.7101 O   0  0  0  0  0  0  0  0  0  0  0  0
   -2.7153    0.7713   -0.8011 H   0  0  0  0  0  0  0  0  0  0  0  0
   -2.4650    1.5910    0.8014 H   0  0  0  0  0  0  0  0  0  0  0  0
   -3.1176   -0.1189    0.7535 H   0  0  0  0  0  0  0  0  0  0  0  0
   -0.5914    0.2849    1.3071 H   0  0  0  0  0  0  0  0  0  0  0  0
   -1.2269   -1.4724   -1.1215 H   0  0  0  0  0  0  0  0  0  0  0  0
   -1.7388   -1.9274    0.5903 H   0  0  0  0  0  0  0  0  0  0  0  0
    2.1280   -1.4105   -0.8625 H   0  0  0  0  0  0  0  0  0  0  0  0
    2.1597   -0.6600    0.7424 H   0  0  0  0  0  0  0  0  0  0  0  0
    1.4015    0.5215   -1.7704 H   0  0  0  0  0  0  0  0  0  0  0  0
    1.3313    2.5378   -0.4895 H   0  0  0  0  0  0  0  0  0  0  0  0
    2.8313    1.6053   -0.2075 H   0  0  0  0  0  0  0  0  0  0  0  0
    1.4962    1.6086    1.0645 H   0  0  0  0  0  0  0  0  0  0  0  0
  1  2  1  0
  2  3  1  0
  3  4  1  0
  4  5  2  0
  4  6  1  0
  6  7  1  0
  7  8  1  0
  7  9  1  0
  9  2  1  0
  1 10  1  0
  1 11  1  0
  1 12  1  0
  2 13  1  0
  3 14  1  0
  3 15  1  0
  6 16  1  0
  6 17  1  0
  7 18  1  0
  8 19  1  0
  8 20  1  0
  8 21  1  0
M  END
