
     RDKit          3D

 16 17  0  0  0  0  0  0  0  0999 V2000
   -1.9158    0.1600    0.6583 C   0  0  0  0  0  0  0  0  0  0  0  0
   -0.7932   -0.2241   -0.2383 C   0  0  0  0  0  0  0  0  0  0  0  0
    0.4753   -0.6914    0.4125 C   0  0  0  0  0  0  0  0  0  0  0  0
    0.6693    0.6906    0.8163 C   0  0  0  0  0  0  0  0  0  0  0  0
    1.0142    1.3139    1.7736 O   0  0  0  0  0  0  0  0  0  0  0  0
    0.2218    0.8459   -0.5516 C   0  0  0  0  0  0  0  0  0  0  0  0
    1.1453   -0.3023   -0.8800 C   0  0  0  0  0  0  0  0  0  0  0  0
    2.5053   -0.0177   -0.7764 O   0  0  0  0  0  0  0  0  0  0  0  0
   -1.9765    1.2313    0.9003 H   0  0  0  0  0  0  0  0  0  0  0  0
   -2.8726   -0.1013    0.1224 H   0  0  0  0  0  0  0  0  0  0  0  0
   -1.9560   -0.4687    1.5952 H   0  0  0  0  0  0  0  0  0  0  0  0
   -1.0340   -0.8147   -1.1385 H   0  0  0  0  0  0  0  0  0  0  0  0
    0.6173   -1.5387    0.9254 H   0  0  0  0  0  0  0  0  0  0  0  0
    0.0722    1.6653   -1.1027 H   0  0  0  0  0  0  0  0  0  0  0  0
    0.8556   -0.8824   -1.7669 H   0  0  0  0  0  0  0  0  0  0  0  0
    2.9718   -0.8659   -0.4948 H   0  0  0  0  0  0  0  0  0  0  0  0
  1  2  1  0
  2  3  1  0
  3  4  1  0
  4  5  2  0
  4  6  1  0
  6  7  1  0
  7  8  1  0
  6  2  1  0
  7  3  1  0
  1  9  1  0
  1 10  1  0
  1 11  1  0
  2 12  1  0
  3 13  1  0
  6 14  1  0
  7 15  1  0
  8 16  1  0
M  END
