
     RDKit          3D

 19 21  0  0  0  0  0  0  0  0999 V2000
    2.0217    0.6154   -0.1644 C   0  0  0  0  0  0  0  0  0  0  0  0
    0.8948   -0.3634   -0.1366 C   0  0  0  0  0  0  0  0  0  0  0  0
   -0.2209   -0.0237   -1.0921 C   0  0  0  0  0  0  0  0  0  0  0  0
   -1.2470   -1.0615   -0.6820 C   0  0  0  0  0  0  0  0  0  0  0  0
   -1.2522   -0.7686    0.8276 C   0  0  0  0  0  0  0  0  0  0  0  0
   -0.9980    0.6826    0.9717 C   0  0  0  0  0  0  0  0  0  0  0  0
   -0.7976    1.1591   -0.4170 C   0  0  0  0  0  0  0  0  0  0  0  0
   -1.0405    2.2264   -0.8728 O   0  0  0  0  0  0  0  0  0  0  0  0
    0.1032   -0.2771    1.1771 C   0  0  0  0  0  0  0  0  0  0  0  0
    2.6292    0.5026    0.7565 H   0  0  0  0  0  0  0  0  0  0  0  0
    1.7194    1.6574   -0.3215 H   0  0  0  0  0  0  0  0  0  0  0  0
    2.6887    0.3395   -1.0071 H   0  0  0  0  0  0  0  0  0  0  0  0
    1.2726   -1.3782   -0.2233 H   0  0  0  0  0  0  0  0  0  0  0  0
    0.0103    0.0479   -2.1158 H   0  0  0  0  0  0  0  0  0  0  0  0
   -0.8838   -2.0645   -0.9000 H   0  0  0  0  0  0  0  0  0  0  0  0
   -2.1975   -0.7841   -1.1445 H   0  0  0  0  0  0  0  0  0  0  0  0
   -1.8792   -1.3518    1.4850 H   0  0  0  0  0  0  0  0  0  0  0  0
   -1.4212    1.3085    1.7410 H   0  0  0  0  0  0  0  0  0  0  0  0
    0.5979   -0.4666    2.1182 H   0  0  0  0  0  0  0  0  0  0  0  0
  1  2  1  0
  2  3  1  0
  3  4  1  0
  4  5  1  0
  5  6  1  0
  6  7  1  0
  7  8  2  0
  6  9  1  0
  9  2  1  0
  7  3  1  0
  9  5  1  0
  1 10  1  0
  1 11  1  0
  1 12  1  0
  2 13  1  0
  3 14  1  0
  4 15  1  0
  4 16  1  0
  5 17  1  0
  6 18  1  0
  9 19  1  0
M  END
