
     RDKit          3D

 25 25  0  0  0  0  0  0  0  0999 V2000
    2.5806   -0.4972    0.6767 C   0  0  0  0  0  0  0  0  0  0  0  0
    1.7882    0.0787   -0.4850 C   0  0  0  0  0  0  0  0  0  0  0  0
    0.6924   -0.8337   -0.8946 C   0  0  0  0  0  0  0  0  0  0  0  0
   -0.5604   -0.6429   -0.0226 C   0  0  0  0  0  0  0  0  0  0  0  0
   -1.6791   -1.4988   -0.4949 C   0  0  0  0  0  0  0  0  0  0  0  0
   -0.8367    0.8420   -0.1392 C   0  0  0  0  0  0  0  0  0  0  0  0
   -2.1627    1.2582    0.3570 C   0  0  0  0  0  0  0  0  0  0  0  0
    0.3253    1.4995    0.6161 C   0  0  0  0  0  0  0  0  0  0  0  0
    1.4305    1.3521   -0.1748 O   0  0  0  0  0  0  0  0  0  0  0  0
    2.1190   -0.2044    1.6372 H   0  0  0  0  0  0  0  0  0  0  0  0
    2.6126   -1.6069    0.6237 H   0  0  0  0  0  0  0  0  0  0  0  0
    3.5809   -0.0295    0.6499 H   0  0  0  0  0  0  0  0  0  0  0  0
    2.5181    0.1326   -1.3458 H   0  0  0  0  0  0  0  0  0  0  0  0
    1.0134   -1.8694   -0.9034 H   0  0  0  0  0  0  0  0  0  0  0  0
    0.3531   -0.5348   -1.9280 H   0  0  0  0  0  0  0  0  0  0  0  0
   -0.2194   -0.9172    1.0181 H   0  0  0  0  0  0  0  0  0  0  0  0
   -2.4971   -0.9733   -0.9882 H   0  0  0  0  0  0  0  0  0  0  0  0
   -2.0540   -2.0800    0.3976 H   0  0  0  0  0  0  0  0  0  0  0  0
   -1.2646   -2.2957   -1.1742 H   0  0  0  0  0  0  0  0  0  0  0  0
   -0.7026    1.1223   -1.2185 H   0  0  0  0  0  0  0  0  0  0  0  0
   -2.8549    0.4131    0.5562 H   0  0  0  0  0  0  0  0  0  0  0  0
   -2.0629    1.9162    1.2445 H   0  0  0  0  0  0  0  0  0  0  0  0
   -2.6784    1.8987   -0.4183 H   0  0  0  0  0  0  0  0  0  0  0  0
    0.1452    2.5497    0.8294 H   0  0  0  0  0  0  0  0  0  0  0  0
    0.4135    0.9206    1.5811 H   0  0  0  0  0  0  0  0  0  0  0  0
  1  2  1  0
  2  3  1  0
  3  4  1  0
  4  5  1  0
  4  6  1  0
  6  7  1  0
  6  8  1  0
  8  9  1  0
  9  2  1  0
  1 10  1  0
  1 11  1  0
  1 12  1  0
  2 13  1  0
  3 14  1  0
  3 15  1  0
  4 16  1  0
  5 17  1  0
  5 18  1  0
  5 19  1  0
  6 20  1  0
  7 21  1  0
  7 22  1  0
  7 23  1  0
  8 24  1  0
  8 25  1  0
M  END
