
     RDKit          3D

 25 25  0  0  0  0  0  0  0  0999 V2000
   -1.1553    1.6896    0.4780 C   0  0  0  0  0  0  0  0  0  0  0  0
   -0.6237    0.3062    0.7355 C   0  0  0  0  0  0  0  0  0  0  0  0
   -1.7412   -0.6692    0.4568 C   0  0  0  0  0  0  0  0  0  0  0  0
   -1.3029   -1.5409   -0.6825 C   0  0  0  0  0  0  0  0  0  0  0  0
    0.1588   -1.3016   -0.9019 C   0  0  0  0  0  0  0  0  0  0  0  0
    0.5330   -0.0691   -0.1160 C   0  0  0  0  0  0  0  0  0  0  0  0
    0.9099    1.0907   -1.0367 C   0  0  0  0  0  0  0  0  0  0  0  0
    1.7828   -0.4130    0.6653 C   0  0  0  0  0  0  0  0  0  0  0  0
    2.2369    0.6215    1.4482 O   0  0  0  0  0  0  0  0  0  0  0  0
   -0.4185    2.4839    0.5518 H   0  0  0  0  0  0  0  0  0  0  0  0
   -1.6761    1.6478   -0.5196 H   0  0  0  0  0  0  0  0  0  0  0  0
   -1.9748    1.8687    1.2133 H   0  0  0  0  0  0  0  0  0  0  0  0
   -0.3598    0.2350    1.8282 H   0  0  0  0  0  0  0  0  0  0  0  0
   -2.0156   -1.2430    1.3583 H   0  0  0  0  0  0  0  0  0  0  0  0
   -2.6815   -0.1556    0.1272 H   0  0  0  0  0  0  0  0  0  0  0  0
   -1.8271   -1.3025   -1.6307 H   0  0  0  0  0  0  0  0  0  0  0  0
   -1.5336   -2.5972   -0.4520 H   0  0  0  0  0  0  0  0  0  0  0  0
    0.4032   -1.0969   -1.9620 H   0  0  0  0  0  0  0  0  0  0  0  0
    0.6994   -2.2105   -0.5551 H   0  0  0  0  0  0  0  0  0  0  0  0
    1.3074    1.8850   -0.3564 H   0  0  0  0  0  0  0  0  0  0  0  0
    0.0481    1.4255   -1.6240 H   0  0  0  0  0  0  0  0  0  0  0  0
    1.7717    0.7845   -1.6656 H   0  0  0  0  0  0  0  0  0  0  0  0
    2.5715   -0.6325   -0.0973 H   0  0  0  0  0  0  0  0  0  0  0  0
    1.6631   -1.3668    1.2376 H   0  0  0  0  0  0  0  0  0  0  0  0
    3.2244    0.5604    1.4998 H   0  0  0  0  0  0  0  0  0  0  0  0
  1  2  1  0
  2  3  1  0
  3  4  1  0
  4  5  1  0
  5  6  1  0
  6  7  1  0
  6  8  1  0
  8  9  1  0
  6  2  1  0
  1 10  1  0
  1 11  1  0
  1 12  1  0
  2 13  1  0
  3 14  1  0
  3 15  1  0
  4 16  1  0
  4 17  1  0
  5 18  1  0
  5 19  1  0
  7 20  1  0
  7 21  1  0
  7 22  1  0
  8 23  1  0
  8 24  1  0
  9 25  1  0
M  END
