
     RDKit          3D

 21 22  0  0  0  0  0  0  0  0999 V2000
   -1.1839   -1.7792   -0.1404 C   0  0  0  0  0  0  0  0  0  0  0  0
   -1.0176   -0.3453   -0.0526 C   0  0  0  0  0  0  0  0  0  0  0  0
   -0.1099    0.2762    0.9637 C   0  0  0  0  0  0  0  0  0  0  0  0
   -0.5791    1.7420    0.7870 C   0  0  0  0  0  0  0  0  0  0  0  0
   -0.4988    1.7739   -0.7038 C   0  0  0  0  0  0  0  0  0  0  0  0
   -0.7120    2.6821   -1.4426 O   0  0  0  0  0  0  0  0  0  0  0  0
   -0.0847    0.3748   -0.9979 C   0  0  0  0  0  0  0  0  0  0  0  0
    1.0376    0.2832    0.0127 C   0  0  0  0  0  0  0  0  0  0  0  0
    1.9896   -0.7980   -0.0607 C   0  0  0  0  0  0  0  0  0  0  0  0
   -1.3361   -2.0733   -1.2219 H   0  0  0  0  0  0  0  0  0  0  0  0
   -0.4255   -2.4358    0.2998 H   0  0  0  0  0  0  0  0  0  0  0  0
   -2.1437   -2.0713    0.3524 H   0  0  0  0  0  0  0  0  0  0  0  0
   -2.0342    0.1493   -0.1200 H   0  0  0  0  0  0  0  0  0  0  0  0
   -0.0328   -0.0953    1.9412 H   0  0  0  0  0  0  0  0  0  0  0  0
   -1.6142    1.8402    1.1271 H   0  0  0  0  0  0  0  0  0  0  0  0
    0.1277    2.4260    1.2663 H   0  0  0  0  0  0  0  0  0  0  0  0
    0.0489    0.0462   -1.9807 H   0  0  0  0  0  0  0  0  0  0  0  0
    1.6054    1.2565    0.1420 H   0  0  0  0  0  0  0  0  0  0  0  0
    2.3549   -1.0518    0.9668 H   0  0  0  0  0  0  0  0  0  0  0  0
    1.7074   -1.7445   -0.5291 H   0  0  0  0  0  0  0  0  0  0  0  0
    2.9010   -0.4561   -0.6093 H   0  0  0  0  0  0  0  0  0  0  0  0
  1  2  1  0
  2  3  1  0
  3  4  1  0
  4  5  1  0
  5  6  2  0
  5  7  1  0
  7  8  1  0
  8  9  1  0
  7  2  1  0
  8  3  1  0
  1 10  1  0
  1 11  1  0
  1 12  1  0
  2 13  1  0
  3 14  1  0
  4 15  1  0
  4 16  1  0
  7 17  1  0
  8 18  1  0
  9 19  1  0
  9 20  1  0
  9 21  1  0
M  END
