
     RDKit          3D

 23 24  0  0  0  0  0  0  0  0999 V2000
   -1.0761    2.0811   -0.0140 C   0  0  0  0  0  0  0  0  0  0  0  0
   -0.3821    0.8734    0.5116 C   0  0  0  0  0  0  0  0  0  0  0  0
    1.0576    0.8642   -0.0051 C   0  0  0  0  0  0  0  0  0  0  0  0
    1.4403   -0.5936   -0.0085 C   0  0  0  0  0  0  0  0  0  0  0  0
    2.7553   -1.0618   -0.0590 C   0  0  0  0  0  0  0  0  0  0  0  0
    2.0238   -1.0766   -1.2447 O   0  0  0  0  0  0  0  0  0  0  0  0
    0.2157   -1.3636    0.3611 C   0  0  0  0  0  0  0  0  0  0  0  0
   -0.8844   -0.4146   -0.1297 C   0  0  0  0  0  0  0  0  0  0  0  0
   -2.2364   -0.8095    0.3024 C   0  0  0  0  0  0  0  0  0  0  0  0
   -2.0656    2.2270    0.4384 H   0  0  0  0  0  0  0  0  0  0  0  0
   -1.0858    2.0386   -1.1131 H   0  0  0  0  0  0  0  0  0  0  0  0
   -0.4669    2.9729    0.2691 H   0  0  0  0  0  0  0  0  0  0  0  0
   -0.3228    0.8033    1.5968 H   0  0  0  0  0  0  0  0  0  0  0  0
    1.7237    1.4791    0.6012 H   0  0  0  0  0  0  0  0  0  0  0  0
    0.9853    1.2007   -1.0684 H   0  0  0  0  0  0  0  0  0  0  0  0
    3.6050   -0.3518   -0.0831 H   0  0  0  0  0  0  0  0  0  0  0  0
    3.0385   -2.0428    0.3991 H   0  0  0  0  0  0  0  0  0  0  0  0
    0.1253   -1.3484    1.4774 H   0  0  0  0  0  0  0  0  0  0  0  0
    0.1354   -2.3568   -0.0692 H   0  0  0  0  0  0  0  0  0  0  0  0
   -0.7330   -0.3062   -1.2151 H   0  0  0  0  0  0  0  0  0  0  0  0
   -2.1848   -1.6379    1.0280 H   0  0  0  0  0  0  0  0  0  0  0  0
   -2.7956   -1.2173   -0.5905 H   0  0  0  0  0  0  0  0  0  0  0  0
   -2.8725    0.0409    0.6555 H   0  0  0  0  0  0  0  0  0  0  0  0
  1  2  1  0
  2  3  1  0
  3  4  1  0
  4  5  1  0
  5  6  1  0
  4  7  1  0
  7  8  1  0
  8  9  1  0
  8  2  1  0
  6  4  1  0
  1 10  1  0
  1 11  1  0
  1 12  1  0
  2 13  1  0
  3 14  1  0
  3 15  1  0
  5 16  1  0
  5 17  1  0
  7 18  1  0
  7 19  1  0
  8 20  1  0
  9 21  1  0
  9 22  1  0
  9 23  1  0
M  END
