
     RDKit          3D

 23 24  0  0  0  0  0  0  0  0999 V2000
   -2.3329   -1.1646   -0.0231 C   0  0  0  0  0  0  0  0  0  0  0  0
   -1.1995   -0.2527   -0.3652 C   0  0  0  0  0  0  0  0  0  0  0  0
   -1.3105    1.0761    0.4003 C   0  0  0  0  0  0  0  0  0  0  0  0
   -0.2962    1.9398   -0.2586 C   0  0  0  0  0  0  0  0  0  0  0  0
    0.9091    1.4273   -0.4414 C   0  0  0  0  0  0  0  0  0  0  0  0
    1.2731    0.0673   -0.0259 C   0  0  0  0  0  0  0  0  0  0  0  0
    2.3537   -0.0188    1.0384 C   0  0  0  0  0  0  0  0  0  0  0  0
    1.1654   -1.0262   -1.0319 C   0  0  0  0  0  0  0  0  0  0  0  0
    0.1307   -0.8382    0.0250 C   0  0  0  0  0  0  0  0  0  0  0  0
   -2.0602   -2.2131   -0.2441 H   0  0  0  0  0  0  0  0  0  0  0  0
   -2.6741   -1.0487    1.0191 H   0  0  0  0  0  0  0  0  0  0  0  0
   -3.1878   -0.8913   -0.7092 H   0  0  0  0  0  0  0  0  0  0  0  0
   -1.2207    0.0222   -1.4598 H   0  0  0  0  0  0  0  0  0  0  0  0
   -2.3306    1.4505    0.3213 H   0  0  0  0  0  0  0  0  0  0  0  0
   -0.9815    0.8814    1.4493 H   0  0  0  0  0  0  0  0  0  0  0  0
   -0.5482    2.9171   -0.5595 H   0  0  0  0  0  0  0  0  0  0  0  0
    1.7165    2.0171   -0.9285 H   0  0  0  0  0  0  0  0  0  0  0  0
    1.8733    0.1801    2.0212 H   0  0  0  0  0  0  0  0  0  0  0  0
    2.8580   -1.0009    1.0444 H   0  0  0  0  0  0  0  0  0  0  0  0
    3.1088    0.7654    0.8213 H   0  0  0  0  0  0  0  0  0  0  0  0
    0.8765   -0.8264   -2.0769 H   0  0  0  0  0  0  0  0  0  0  0  0
    1.7912   -1.9342   -0.9136 H   0  0  0  0  0  0  0  0  0  0  0  0
    0.0861   -1.5292    0.8973 H   0  0  0  0  0  0  0  0  0  0  0  0
  1  2  1  0
  2  3  1  0
  3  4  1  0
  4  5  2  0
  5  6  1  0
  6  7  1  0
  6  8  1  0
  8  9  1  0
  9  2  1  0
  9  6  1  0
  1 10  1  0
  1 11  1  0
  1 12  1  0
  2 13  1  0
  3 14  1  0
  3 15  1  0
  4 16  1  0
  5 17  1  0
  7 18  1  0
  7 19  1  0
  7 20  1  0
  8 21  1  0
  8 22  1  0
  9 23  1  0
M  END
