
     RDKit          3D

 21 23  0  0  0  0  0  0  0  0999 V2000
    2.1832   -0.9865    0.4314 C   0  0  0  0  0  0  0  0  0  0  0  0
    1.2114    0.0509    0.8842 C   0  0  0  0  0  0  0  0  0  0  0  0
   -0.2311   -0.1955    1.0207 C   0  0  0  0  0  0  0  0  0  0  0  0
   -1.0587   -0.8871    0.0095 C   0  0  0  0  0  0  0  0  0  0  0  0
   -1.2732   -2.2499    0.0747 O   0  0  0  0  0  0  0  0  0  0  0  0
   -1.8912   -0.1399   -0.9845 C   0  0  0  0  0  0  0  0  0  0  0  0
   -0.3998   -0.2185   -1.1061 C   0  0  0  0  0  0  0  0  0  0  0  0
    0.3545    0.6606   -0.1504 C   0  0  0  0  0  0  0  0  0  0  0  0
   -0.0111    2.1068   -0.1549 C   0  0  0  0  0  0  0  0  0  0  0  0
    1.7428   -1.9772    0.2331 H   0  0  0  0  0  0  0  0  0  0  0  0
    3.0608   -1.0640    1.1372 H   0  0  0  0  0  0  0  0  0  0  0  0
    2.6504   -0.6145   -0.5276 H   0  0  0  0  0  0  0  0  0  0  0  0
    1.6422    0.7756    1.6232 H   0  0  0  0  0  0  0  0  0  0  0  0
   -0.8080    0.3835    1.7848 H   0  0  0  0  0  0  0  0  0  0  0  0
   -2.0882   -2.4126    0.6403 H   0  0  0  0  0  0  0  0  0  0  0  0
   -2.2619    0.8850   -0.7574 H   0  0  0  0  0  0  0  0  0  0  0  0
   -2.4520   -0.7271   -1.7074 H   0  0  0  0  0  0  0  0  0  0  0  0
    0.0925   -0.7509   -1.9140 H   0  0  0  0  0  0  0  0  0  0  0  0
    0.7873    2.7622    0.2417 H   0  0  0  0  0  0  0  0  0  0  0  0
   -0.2929    2.3823   -1.2128 H   0  0  0  0  0  0  0  0  0  0  0  0
   -0.9570    2.2167    0.4341 H   0  0  0  0  0  0  0  0  0  0  0  0
  1  2  1  0
  2  3  1  0
  3  4  1  0
  4  5  1  0
  4  6  1  0
  6  7  1  0
  7  8  1  0
  8  9  1  0
  8  2  1  0
  8  3  1  0
  7  4  1  0
  1 10  1  0
  1 11  1  0
  1 12  1  0
  2 13  1  0
  3 14  1  0
  5 15  1  0
  6 16  1  0
  6 17  1  0
  7 18  1  0
  9 19  1  0
  9 20  1  0
  9 21  1  0
M  END
