
     RDKit          3D

 23 23  0  0  0  0  0  0  0  0999 V2000
    2.6485   -0.2069    0.6460 C   0  0  0  0  0  0  0  0  0  0  0  0
    1.4758   -0.0619   -0.3336 C   0  0  0  0  0  0  0  0  0  0  0  0
    0.7845   -1.3800   -0.4993 C   0  0  0  0  0  0  0  0  0  0  0  0
   -0.5741   -1.2873   -0.6955 O   0  0  0  0  0  0  0  0  0  0  0  0
   -1.3092   -1.0533    0.4370 C   0  0  0  0  0  0  0  0  0  0  0  0
   -2.2788    0.0833    0.1852 C   0  0  0  0  0  0  0  0  0  0  0  0
   -1.5949    1.4236    0.1394 C   0  0  0  0  0  0  0  0  0  0  0  0
   -0.3071    1.3768   -0.6747 C   0  0  0  0  0  0  0  0  0  0  0  0
    0.6885    0.9445    0.1513 O   0  0  0  0  0  0  0  0  0  0  0  0
    3.5563   -0.5717    0.1468 H   0  0  0  0  0  0  0  0  0  0  0  0
    2.8962    0.8135    1.0361 H   0  0  0  0  0  0  0  0  0  0  0  0
    2.3238   -0.8957    1.4361 H   0  0  0  0  0  0  0  0  0  0  0  0
    1.9578    0.2954   -1.2891 H   0  0  0  0  0  0  0  0  0  0  0  0
    1.2057   -1.8441   -1.4403 H   0  0  0  0  0  0  0  0  0  0  0  0
    1.0362   -2.1133    0.3032 H   0  0  0  0  0  0  0  0  0  0  0  0
   -0.7065   -0.8898    1.3503 H   0  0  0  0  0  0  0  0  0  0  0  0
   -1.9506   -1.9500    0.6663 H   0  0  0  0  0  0  0  0  0  0  0  0
   -2.7388   -0.0829   -0.8067 H   0  0  0  0  0  0  0  0  0  0  0  0
   -3.0790    0.1450    0.9377 H   0  0  0  0  0  0  0  0  0  0  0  0
   -1.2813    1.7778    1.1608 H   0  0  0  0  0  0  0  0  0  0  0  0
   -2.2507    2.1710   -0.2993 H   0  0  0  0  0  0  0  0  0  0  0  0
   -0.4155    0.8530   -1.6219 H   0  0  0  0  0  0  0  0  0  0  0  0
   -0.0867    2.4533   -0.9358 H   0  0  0  0  0  0  0  0  0  0  0  0
  1  2  1  0
  2  3  1  0
  3  4  1  0
  4  5  1  0
  5  6  1  0
  6  7  1  0
  7  8  1  0
  8  9  1  0
  9  2  1  0
  1 10  1  0
  1 11  1  0
  1 12  1  0
  2 13  1  0
  3 14  1  0
  3 15  1  0
  5 16  1  0
  5 17  1  0
  6 18  1  0
  6 19  1  0
  7 20  1  0
  7 21  1  0
  8 22  1  0
  8 23  1  0
M  END
