
     RDKit          3D

 21 22  0  0  0  0  0  0  0  0999 V2000
   -0.8455    1.7575    0.6975 C   0  0  0  0  0  0  0  0  0  0  0  0
   -0.5214    0.6697   -0.2568 C   0  0  0  0  0  0  0  0  0  0  0  0
   -1.7007   -0.3113   -0.4407 C   0  0  0  0  0  0  0  0  0  0  0  0
   -0.9171   -1.5826   -0.1635 C   0  0  0  0  0  0  0  0  0  0  0  0
    0.4063   -1.4039   -0.8385 C   0  0  0  0  0  0  0  0  0  0  0  0
    0.4679   -0.3340    0.2607 C   0  0  0  0  0  0  0  0  0  0  0  0
    1.7796    0.0929    0.7053 C   0  0  0  0  0  0  0  0  0  0  0  0
    2.3287    0.9783   -0.2077 O   0  0  0  0  0  0  0  0  0  0  0  0
   -0.2616   -1.2299    1.0396 O   0  0  0  0  0  0  0  0  0  0  0  0
   -0.2520    1.5955    1.6311 H   0  0  0  0  0  0  0  0  0  0  0  0
   -0.4417    2.7192    0.2720 H   0  0  0  0  0  0  0  0  0  0  0  0
   -1.9094    1.9254    0.8852 H   0  0  0  0  0  0  0  0  0  0  0  0
   -0.2701    1.0258   -1.2804 H   0  0  0  0  0  0  0  0  0  0  0  0
   -2.1114   -0.2646   -1.4465 H   0  0  0  0  0  0  0  0  0  0  0  0
   -2.4391   -0.1838    0.3725 H   0  0  0  0  0  0  0  0  0  0  0  0
   -1.4233   -2.5183   -0.1956 H   0  0  0  0  0  0  0  0  0  0  0  0
    0.4165   -0.9861   -1.8425 H   0  0  0  0  0  0  0  0  0  0  0  0
    1.0876   -2.2264   -0.6214 H   0  0  0  0  0  0  0  0  0  0  0  0
    2.4420   -0.8139    0.8027 H   0  0  0  0  0  0  0  0  0  0  0  0
    1.7145    0.5654    1.7055 H   0  0  0  0  0  0  0  0  0  0  0  0
    2.4501    0.5252   -1.0785 H   0  0  0  0  0  0  0  0  0  0  0  0
  1  2  1  0
  2  3  1  0
  3  4  1  0
  4  5  1  0
  5  6  1  0
  6  7  1  0
  7  8  1  0
  6  9  1  0
  6  2  1  0
  9  4  1  0
  1 10  1  0
  1 11  1  0
  1 12  1  0
  2 13  1  0
  3 14  1  0
  3 15  1  0
  4 16  1  0
  5 17  1  0
  5 18  1  0
  7 19  1  0
  7 20  1  0
  8 21  1  0
M  END
