
     RDKit          3D

 21 22  0  0  0  0  0  0  0  0999 V2000
    0.2413    1.9630   -0.0583 C   0  0  0  0  0  0  0  0  0  0  0  0
    0.1231    0.6329    0.6094 C   0  0  0  0  0  0  0  0  0  0  0  0
    1.4479   -0.1547    0.5493 C   0  0  0  0  0  0  0  0  0  0  0  0
    2.3568    0.4948   -0.2421 O   0  0  0  0  0  0  0  0  0  0  0  0
    0.9159   -1.3729   -0.1721 C   0  0  0  0  0  0  0  0  0  0  0  0
   -0.4042   -1.6629    0.4781 C   0  0  0  0  0  0  0  0  0  0  0  0
   -0.6898   -0.3605   -0.2329 C   0  0  0  0  0  0  0  0  0  0  0  0
   -2.0648   -0.0119   -0.5467 C   0  0  0  0  0  0  0  0  0  0  0  0
    0.1674   -0.7884   -1.2204 O   0  0  0  0  0  0  0  0  0  0  0  0
    1.1760    2.0427   -0.6593 H   0  0  0  0  0  0  0  0  0  0  0  0
    0.2005    2.7526    0.7299 H   0  0  0  0  0  0  0  0  0  0  0  0
   -0.6184    2.1793   -0.7464 H   0  0  0  0  0  0  0  0  0  0  0  0
   -0.2728    0.6698    1.6355 H   0  0  0  0  0  0  0  0  0  0  0  0
    1.8078   -0.3870    1.5727 H   0  0  0  0  0  0  0  0  0  0  0  0
    2.5679   -0.0274   -1.0614 H   0  0  0  0  0  0  0  0  0  0  0  0
    1.5791   -2.1649   -0.4200 H   0  0  0  0  0  0  0  0  0  0  0  0
   -0.3826   -1.5736    1.5898 H   0  0  0  0  0  0  0  0  0  0  0  0
   -0.9051   -2.5470    0.0791 H   0  0  0  0  0  0  0  0  0  0  0  0
   -2.6720   -0.9209   -0.7128 H   0  0  0  0  0  0  0  0  0  0  0  0
   -2.4858    0.6007    0.2959 H   0  0  0  0  0  0  0  0  0  0  0  0
   -2.0882    0.6360   -1.4672 H   0  0  0  0  0  0  0  0  0  0  0  0
  1  2  1  0
  2  3  1  0
  3  4  1  0
  3  5  1  0
  5  6  1  0
  6  7  1  0
  7  8  1  0
  7  9  1  0
  7  2  1  0
  9  5  1  0
  1 10  1  0
  1 11  1  0
  1 12  1  0
  2 13  1  0
  3 14  1  0
  4 15  1  0
  5 16  1  0
  6 17  1  0
  6 18  1  0
  8 19  1  0
  8 20  1  0
  8 21  1  0
M  END
