
     RDKit          3D

 21 22  0  0  0  0  0  0  0  0999 V2000
   -1.2472   -1.4526   -0.1534 C   0  0  0  0  0  0  0  0  0  0  0  0
   -0.5896   -0.3324    0.5509 C   0  0  0  0  0  0  0  0  0  0  0  0
   -1.4256    0.9400    0.3658 C   0  0  0  0  0  0  0  0  0  0  0  0
   -2.0306    0.9800   -0.8701 O   0  0  0  0  0  0  0  0  0  0  0  0
   -0.3717    1.9781    0.5051 C   0  0  0  0  0  0  0  0  0  0  0  0
    0.8441    1.5024    0.3510 C   0  0  0  0  0  0  0  0  0  0  0  0
    0.7533    0.0548    0.0828 C   0  0  0  0  0  0  0  0  0  0  0  0
    1.9583   -0.7778    0.4089 C   0  0  0  0  0  0  0  0  0  0  0  0
    1.4752   -0.5570   -1.0363 C   0  0  0  0  0  0  0  0  0  0  0  0
   -1.7822   -2.1156    0.5890 H   0  0  0  0  0  0  0  0  0  0  0  0
   -2.0780   -1.0932   -0.8265 H   0  0  0  0  0  0  0  0  0  0  0  0
   -0.6048   -2.1110   -0.7348 H   0  0  0  0  0  0  0  0  0  0  0  0
   -0.5504   -0.5426    1.6423 H   0  0  0  0  0  0  0  0  0  0  0  0
   -2.1581    1.0323    1.1792 H   0  0  0  0  0  0  0  0  0  0  0  0
   -1.3385    0.7445   -1.5534 H   0  0  0  0  0  0  0  0  0  0  0  0
   -0.5556    3.0455    0.7156 H   0  0  0  0  0  0  0  0  0  0  0  0
    1.8097    2.0426    0.4014 H   0  0  0  0  0  0  0  0  0  0  0  0
    2.8566   -0.2267    0.7396 H   0  0  0  0  0  0  0  0  0  0  0  0
    1.7475   -1.7705    0.8604 H   0  0  0  0  0  0  0  0  0  0  0  0
    2.1558    0.0987   -1.6496 H   0  0  0  0  0  0  0  0  0  0  0  0
    1.1319   -1.4395   -1.5679 H   0  0  0  0  0  0  0  0  0  0  0  0
  1  2  1  0
  2  3  1  0
  3  4  1  0
  3  5  1  0
  5  6  2  0
  6  7  1  0
  7  8  1  0
  8  9  1  0
  7  2  1  0
  9  7  1  0
  1 10  1  0
  1 11  1  0
  1 12  1  0
  2 13  1  0
  3 14  1  0
  4 15  1  0
  5 16  1  0
  6 17  1  0
  8 18  1  0
  8 19  1  0
  9 20  1  0
  9 21  1  0
M  END
