
     RDKit          3D

 23 24  0  0  0  0  0  0  0  0999 V2000
    2.4615   -0.0174   -0.5522 C   0  0  0  0  0  0  0  0  0  0  0  0
    0.9658   -0.0635   -0.5111 C   0  0  0  0  0  0  0  0  0  0  0  0
    0.4235   -1.3686    0.0217 C   0  0  0  0  0  0  0  0  0  0  0  0
   -0.8338   -0.9525    0.7175 C   0  0  0  0  0  0  0  0  0  0  0  0
   -1.9235   -0.5079   -0.1885 C   0  0  0  0  0  0  0  0  0  0  0  0
   -1.6941    0.7828   -0.8647 C   0  0  0  0  0  0  0  0  0  0  0  0
   -0.7515    1.6279   -0.4613 C   0  0  0  0  0  0  0  0  0  0  0  0
    0.3508    1.0158    0.3344 C   0  0  0  0  0  0  0  0  0  0  0  0
   -0.3558    0.2879    1.4855 C   0  0  0  0  0  0  0  0  0  0  0  0
    2.9644   -0.7466    0.0816 H   0  0  0  0  0  0  0  0  0  0  0  0
    2.7600    1.0376   -0.2943 H   0  0  0  0  0  0  0  0  0  0  0  0
    2.8653   -0.1641   -1.5952 H   0  0  0  0  0  0  0  0  0  0  0  0
    0.6161   -0.0062   -1.5845 H   0  0  0  0  0  0  0  0  0  0  0  0
    1.1109   -1.7792    0.8043 H   0  0  0  0  0  0  0  0  0  0  0  0
    0.3035   -2.1429   -0.7341 H   0  0  0  0  0  0  0  0  0  0  0  0
   -1.2363   -1.7014    1.4177 H   0  0  0  0  0  0  0  0  0  0  0  0
   -2.8414   -0.3628    0.4545 H   0  0  0  0  0  0  0  0  0  0  0  0
   -2.2305   -1.2909   -0.9216 H   0  0  0  0  0  0  0  0  0  0  0  0
   -2.3216    1.0358   -1.7138 H   0  0  0  0  0  0  0  0  0  0  0  0
   -0.7769    2.6879   -0.6917 H   0  0  0  0  0  0  0  0  0  0  0  0
    1.0712    1.7555    0.7119 H   0  0  0  0  0  0  0  0  0  0  0  0
    0.3271    0.0257    2.2911 H   0  0  0  0  0  0  0  0  0  0  0  0
   -1.2547    0.8471    1.7928 H   0  0  0  0  0  0  0  0  0  0  0  0
  1  2  1  0
  2  3  1  0
  3  4  1  0
  4  5  1  0
  5  6  1  0
  6  7  2  0
  7  8  1  0
  8  9  1  0
  8  2  1  0
  9  4  1  0
  1 10  1  0
  1 11  1  0
  1 12  1  0
  2 13  1  0
  3 14  1  0
  3 15  1  0
  4 16  1  0
  5 17  1  0
  5 18  1  0
  6 19  1  0
  7 20  1  0
  8 21  1  0
  9 22  1  0
  9 23  1  0
M  END
