
     RDKit          3D

 19 19  0  0  0  0  0  0  0  0999 V2000
   -2.7320    0.1564    0.7696 C   0  0  0  0  0  0  0  0  0  0  0  0
   -1.4146    0.4124    0.1001 C   0  0  0  0  0  0  0  0  0  0  0  0
   -0.8968   -0.8892   -0.3952 C   0  0  0  0  0  0  0  0  0  0  0  0
    0.3808   -0.9267   -0.7523 C   0  0  0  0  0  0  0  0  0  0  0  0
    1.2911    0.2763   -0.6713 C   0  0  0  0  0  0  0  0  0  0  0  0
    2.6844   -0.2628   -0.4519 C   0  0  0  0  0  0  0  0  0  0  0  0
    0.8368    1.1195    0.4578 C   0  0  0  0  0  0  0  0  0  0  0  0
    1.6425    1.9717    0.8984 O   0  0  0  0  0  0  0  0  0  0  0  0
   -0.4518    0.9473    0.9923 O   0  0  0  0  0  0  0  0  0  0  0  0
   -3.5060    0.0653   -0.0194 H   0  0  0  0  0  0  0  0  0  0  0  0
   -2.6930   -0.8280    1.2896 H   0  0  0  0  0  0  0  0  0  0  0  0
   -3.0057    0.9197    1.5245 H   0  0  0  0  0  0  0  0  0  0  0  0
   -1.5741    1.1500   -0.7157 H   0  0  0  0  0  0  0  0  0  0  0  0
   -1.5364   -1.7842   -0.4654 H   0  0  0  0  0  0  0  0  0  0  0  0
    0.7545   -1.8783   -1.1132 H   0  0  0  0  0  0  0  0  0  0  0  0
    1.2153    0.7809   -1.6326 H   0  0  0  0  0  0  0  0  0  0  0  0
    2.7290   -0.9008    0.4504 H   0  0  0  0  0  0  0  0  0  0  0  0
    3.3751    0.5924   -0.4253 H   0  0  0  0  0  0  0  0  0  0  0  0
    2.9009   -0.9219   -1.3387 H   0  0  0  0  0  0  0  0  0  0  0  0
  1  2  1  0
  2  3  1  0
  3  4  2  0
  4  5  1  0
  5  6  1  0
  5  7  1  0
  7  8  2  0
  7  9  1  0
  9  2  1  0
  1 10  1  0
  1 11  1  0
  1 12  1  0
  2 13  1  0
  3 14  1  0
  4 15  1  0
  5 16  1  0
  6 17  1  0
  6 18  1  0
  6 19  1  0
M  END
