
     RDKit          3D

 21 22  0  0  0  0  0  0  0  0999 V2000
    2.2083    0.3472    0.2888 C   0  0  0  0  0  0  0  0  0  0  0  0
    0.9195   -0.4044    0.3598 C   0  0  0  0  0  0  0  0  0  0  0  0
    0.6158   -1.2337   -0.8423 C   0  0  0  0  0  0  0  0  0  0  0  0
   -0.3775   -0.7466   -1.6495 O   0  0  0  0  0  0  0  0  0  0  0  0
   -1.3381   -0.0043   -1.0394 C   0  0  0  0  0  0  0  0  0  0  0  0
   -0.6798    1.2953   -0.5568 C   0  0  0  0  0  0  0  0  0  0  0  0
   -0.2597    0.4867    0.6636 C   0  0  0  0  0  0  0  0  0  0  0  0
   -1.5101   -0.3717    0.4151 C   0  0  0  0  0  0  0  0  0  0  0  0
   -2.5817    0.2019    1.0515 O   0  0  0  0  0  0  0  0  0  0  0  0
    2.0159    1.3367   -0.1594 H   0  0  0  0  0  0  0  0  0  0  0  0
    2.5620    0.5213    1.3357 H   0  0  0  0  0  0  0  0  0  0  0  0
    2.9782   -0.2324   -0.2449 H   0  0  0  0  0  0  0  0  0  0  0  0
    0.9960   -1.1152    1.2348 H   0  0  0  0  0  0  0  0  0  0  0  0
    0.3532   -2.2916   -0.5905 H   0  0  0  0  0  0  0  0  0  0  0  0
    1.5476   -1.2988   -1.4717 H   0  0  0  0  0  0  0  0  0  0  0  0
   -2.2370    0.1450   -1.6254 H   0  0  0  0  0  0  0  0  0  0  0  0
    0.1910    1.6057   -1.1498 H   0  0  0  0  0  0  0  0  0  0  0  0
   -1.4175    2.0566   -0.3049 H   0  0  0  0  0  0  0  0  0  0  0  0
   -0.2551    1.0149    1.6107 H   0  0  0  0  0  0  0  0  0  0  0  0
   -1.3144   -1.4323    0.6391 H   0  0  0  0  0  0  0  0  0  0  0  0
   -2.4167    0.1195    2.0356 H   0  0  0  0  0  0  0  0  0  0  0  0
  1  2  1  0
  2  3  1  0
  3  4  1  0
  4  5  1  0
  5  6  1  0
  6  7  1  0
  7  8  1  0
  8  9  1  0
  7  2  1  0
  8  5  1  0
  1 10  1  0
  1 11  1  0
  1 12  1  0
  2 13  1  0
  3 14  1  0
  3 15  1  0
  5 16  1  0
  6 17  1  0
  6 18  1  0
  7 19  1  0
  8 20  1  0
  9 21  1  0
M  END
