
     RDKit          3D

 21 23  0  0  0  0  0  0  0  0999 V2000
   -2.0929   -1.1935    0.0961 C   0  0  0  0  0  0  0  0  0  0  0  0
   -0.6838   -0.8141    0.3874 C   0  0  0  0  0  0  0  0  0  0  0  0
    0.1722   -0.0892   -0.5720 C   0  0  0  0  0  0  0  0  0  0  0  0
    1.5458    0.2838   -0.1501 C   0  0  0  0  0  0  0  0  0  0  0  0
    2.5805   -0.7959   -0.0467 C   0  0  0  0  0  0  0  0  0  0  0  0
    1.8683    1.5468    0.2834 O   0  0  0  0  0  0  0  0  0  0  0  0
    1.0019    0.9135    1.1311 C   0  0  0  0  0  0  0  0  0  0  0  0
   -0.3888    0.6020    0.6402 C   0  0  0  0  0  0  0  0  0  0  0  0
   -1.3542    1.7057    0.3422 C   0  0  0  0  0  0  0  0  0  0  0  0
   -2.6242   -0.4060   -0.4510 H   0  0  0  0  0  0  0  0  0  0  0  0
   -2.1553   -2.1965   -0.3963 H   0  0  0  0  0  0  0  0  0  0  0  0
   -2.6135   -1.3379    1.0846 H   0  0  0  0  0  0  0  0  0  0  0  0
   -0.1564   -1.5378    1.0711 H   0  0  0  0  0  0  0  0  0  0  0  0
   -0.2025    0.1806   -1.5878 H   0  0  0  0  0  0  0  0  0  0  0  0
    2.1248   -1.7936   -0.1970 H   0  0  0  0  0  0  0  0  0  0  0  0
    3.0200   -0.7681    0.9670 H   0  0  0  0  0  0  0  0  0  0  0  0
    3.3707   -0.6393   -0.8226 H   0  0  0  0  0  0  0  0  0  0  0  0
    1.3467    0.3778    2.0338 H   0  0  0  0  0  0  0  0  0  0  0  0
   -2.1367    1.8510    1.0904 H   0  0  0  0  0  0  0  0  0  0  0  0
   -0.7463    2.6268    0.1444 H   0  0  0  0  0  0  0  0  0  0  0  0
   -1.8763    1.4841   -0.6271 H   0  0  0  0  0  0  0  0  0  0  0  0
  1  2  1  0
  2  3  1  0
  3  4  1  0
  4  5  1  0
  4  6  1  0
  6  7  1  0
  7  8  1  0
  8  9  1  0
  8  2  1  0
  8  3  1  0
  7  4  1  0
  1 10  1  0
  1 11  1  0
  1 12  1  0
  2 13  1  0
  3 14  1  0
  5 15  1  0
  5 16  1  0
  5 17  1  0
  7 18  1  0
  9 19  1  0
  9 20  1  0
  9 21  1  0
M  END
