
     RDKit          3D

 23 24  0  0  0  0  0  0  0  0999 V2000
   -2.0973    0.3766   -0.6831 C   0  0  0  0  0  0  0  0  0  0  0  0
   -1.0542   -0.2490    0.1973 C   0  0  0  0  0  0  0  0  0  0  0  0
   -0.4282   -1.4860   -0.4723 C   0  0  0  0  0  0  0  0  0  0  0  0
    1.0237   -1.1240   -0.3058 C   0  0  0  0  0  0  0  0  0  0  0  0
    1.9801   -1.9713   -0.6456 O   0  0  0  0  0  0  0  0  0  0  0  0
    1.0351    0.2874   -0.8818 C   0  0  0  0  0  0  0  0  0  0  0  0
    0.1763    0.5857    0.3524 C   0  0  0  0  0  0  0  0  0  0  0  0
    0.1155    1.9342    0.8506 C   0  0  0  0  0  0  0  0  0  0  0  0
    1.1150   -0.4120    1.0495 C   0  0  0  0  0  0  0  0  0  0  0  0
   -2.9038   -0.3546   -0.8283 H   0  0  0  0  0  0  0  0  0  0  0  0
   -1.6318    0.6934   -1.6312 H   0  0  0  0  0  0  0  0  0  0  0  0
   -2.4885    1.2552   -0.1741 H   0  0  0  0  0  0  0  0  0  0  0  0
   -1.4640   -0.5549    1.1745 H   0  0  0  0  0  0  0  0  0  0  0  0
   -0.7294   -2.3952    0.0516 H   0  0  0  0  0  0  0  0  0  0  0  0
   -0.7480   -1.4442   -1.5370 H   0  0  0  0  0  0  0  0  0  0  0  0
    2.5504   -2.2075    0.1427 H   0  0  0  0  0  0  0  0  0  0  0  0
    0.5136    0.3595   -1.8362 H   0  0  0  0  0  0  0  0  0  0  0  0
    2.0156    0.7667   -0.7860 H   0  0  0  0  0  0  0  0  0  0  0  0
   -0.8245    2.0828    1.4267 H   0  0  0  0  0  0  0  0  0  0  0  0
    1.0134    2.2057    1.4488 H   0  0  0  0  0  0  0  0  0  0  0  0
    0.0744    2.6714    0.0178 H   0  0  0  0  0  0  0  0  0  0  0  0
    2.1285   -0.0491    1.2062 H   0  0  0  0  0  0  0  0  0  0  0  0
    0.6281   -0.9710    1.8633 H   0  0  0  0  0  0  0  0  0  0  0  0
  1  2  1  0
  2  3  1  0
  3  4  1  0
  4  5  1  0
  4  6  1  0
  6  7  1  0
  7  8  1  0
  7  9  1  0
  7  2  1  0
  9  4  1  0
  1 10  1  0
  1 11  1  0
  1 12  1  0
  2 13  1  0
  3 14  1  0
  3 15  1  0
  5 16  1  0
  6 17  1  0
  6 18  1  0
  8 19  1  0
  8 20  1  0
  8 21  1  0
  9 22  1  0
  9 23  1  0
M  END
