
     RDKit          3D

 19 20  0  0  0  0  0  0  0  0999 V2000
   -1.6756   -0.7896   -0.2247 C   0  0  0  0  0  0  0  0  0  0  0  0
   -0.6880   -0.3795    0.8289 C   0  0  0  0  0  0  0  0  0  0  0  0
   -0.9078    1.1074    1.1460 C   0  0  0  0  0  0  0  0  0  0  0  0
   -0.3519    1.6738   -0.0223 O   0  0  0  0  0  0  0  0  0  0  0  0
    0.8776    1.0791   -0.1922 C   0  0  0  0  0  0  0  0  0  0  0  0
    1.0278   -0.1185   -1.0776 C   0  0  0  0  0  0  0  0  0  0  0  0
    0.7345   -0.3593    0.3391 C   0  0  0  0  0  0  0  0  0  0  0  0
    1.7610   -0.7040    1.3305 C   0  0  0  0  0  0  0  0  0  0  0  0
    1.8505    0.0337    2.3223 O   0  0  0  0  0  0  0  0  0  0  0  0
   -2.5049   -1.3397    0.3065 H   0  0  0  0  0  0  0  0  0  0  0  0
   -1.2773   -1.4506   -0.9940 H   0  0  0  0  0  0  0  0  0  0  0  0
   -2.1897    0.1040   -0.6740 H   0  0  0  0  0  0  0  0  0  0  0  0
   -0.7632   -1.0046    1.7238 H   0  0  0  0  0  0  0  0  0  0  0  0
   -0.3271    1.3527    2.0348 H   0  0  0  0  0  0  0  0  0  0  0  0
   -1.9805    1.2768    1.2089 H   0  0  0  0  0  0  0  0  0  0  0  0
    1.7787    1.6404    0.0429 H   0  0  0  0  0  0  0  0  0  0  0  0
    0.1831   -0.2586   -1.7973 H   0  0  0  0  0  0  0  0  0  0  0  0
    2.0123   -0.3334   -1.4877 H   0  0  0  0  0  0  0  0  0  0  0  0
    2.4407   -1.5302    1.2818 H   0  0  0  0  0  0  0  0  0  0  0  0
  1  2  1  0
  2  3  1  0
  3  4  1  0
  4  5  1  0
  5  6  1  0
  6  7  1  0
  7  8  1  0
  8  9  2  0
  7  2  1  0
  7  5  1  0
  1 10  1  0
  1 11  1  0
  1 12  1  0
  2 13  1  0
  3 14  1  0
  3 15  1  0
  5 16  1  0
  6 17  1  0
  6 18  1  0
  8 19  1  0
M  END
