
     RDKit          3D

 20 21  0  0  0  0  0  0  0  0999 V2000
    2.4185    0.2293    0.2462 C   0  0  0  0  0  0  0  0  0  0  0  0
    0.9455    0.0315    0.4784 C   0  0  0  0  0  0  0  0  0  0  0  0
    0.3586   -1.2334   -0.0909 C   0  0  0  0  0  0  0  0  0  0  0  0
   -0.5902   -0.4341   -0.9368 C   0  0  0  0  0  0  0  0  0  0  0  0
   -1.9694   -0.3522   -0.2755 C   0  0  0  0  0  0  0  0  0  0  0  0
   -1.7638    0.8065    0.6739 C   0  0  0  0  0  0  0  0  0  0  0  0
   -0.8544    1.6243   -0.0008 O   0  0  0  0  0  0  0  0  0  0  0  0
    0.1318    0.8147   -0.4983 C   0  0  0  0  0  0  0  0  0  0  0  0
    2.9647   -0.7330    0.2117 H   0  0  0  0  0  0  0  0  0  0  0  0
    2.6045    0.8519   -0.6672 H   0  0  0  0  0  0  0  0  0  0  0  0
    2.8645    0.8135    1.0905 H   0  0  0  0  0  0  0  0  0  0  0  0
    0.6932    0.1243    1.5397 H   0  0  0  0  0  0  0  0  0  0  0  0
    1.1006   -1.7465   -0.7235 H   0  0  0  0  0  0  0  0  0  0  0  0
   -0.1598   -1.8954    0.6191 H   0  0  0  0  0  0  0  0  0  0  0  0
   -0.6089   -0.6408   -2.0060 H   0  0  0  0  0  0  0  0  0  0  0  0
   -2.1173   -1.3124    0.2357 H   0  0  0  0  0  0  0  0  0  0  0  0
   -2.7145   -0.1258   -1.0506 H   0  0  0  0  0  0  0  0  0  0  0  0
   -2.6872    1.3706    0.8452 H   0  0  0  0  0  0  0  0  0  0  0  0
   -1.3160    0.4763    1.6189 H   0  0  0  0  0  0  0  0  0  0  0  0
    0.6997    1.3304   -1.3097 H   0  0  0  0  0  0  0  0  0  0  0  0
  1  2  1  0
  2  3  1  0
  3  4  1  0
  4  5  1  0
  5  6  1  0
  6  7  1  0
  7  8  1  0
  8  2  1  0
  8  4  1  0
  1  9  1  0
  1 10  1  0
  1 11  1  0
  2 12  1  0
  3 13  1  0
  3 14  1  0
  4 15  1  0
  5 16  1  0
  5 17  1  0
  6 18  1  0
  6 19  1  0
  8 20  1  0
M  END
