
     RDKit          3D

 19 20  0  0  0  0  0  0  0  0999 V2000
   -1.9786   -0.5887   -0.3365 C   0  0  0  0  0  0  0  0  0  0  0  0
   -1.1255    0.0979    0.6677 C   0  0  0  0  0  0  0  0  0  0  0  0
   -1.0828    1.5536    0.2916 C   0  0  0  0  0  0  0  0  0  0  0  0
    0.0804    1.8453   -0.2570 C   0  0  0  0  0  0  0  0  0  0  0  0
    0.9115    0.6490   -0.3029 C   0  0  0  0  0  0  0  0  0  0  0  0
    1.9501   -0.0058   -0.7969 C   0  0  0  0  0  0  0  0  0  0  0  0
    1.9778   -1.3410   -0.1253 C   0  0  0  0  0  0  0  0  0  0  0  0
    0.5957   -1.5115    0.1331 O   0  0  0  0  0  0  0  0  0  0  0  0
    0.2946   -0.2975    0.6850 C   0  0  0  0  0  0  0  0  0  0  0  0
   -2.1805   -1.6345   -0.0051 H   0  0  0  0  0  0  0  0  0  0  0  0
   -2.9909   -0.0892   -0.3108 H   0  0  0  0  0  0  0  0  0  0  0  0
   -1.6294   -0.5102   -1.3694 H   0  0  0  0  0  0  0  0  0  0  0  0
   -1.5935   -0.0386    1.6691 H   0  0  0  0  0  0  0  0  0  0  0  0
   -1.8884    2.2498    0.4503 H   0  0  0  0  0  0  0  0  0  0  0  0
    0.4023    2.8099   -0.6266 H   0  0  0  0  0  0  0  0  0  0  0  0
    2.6089    0.3991   -1.5366 H   0  0  0  0  0  0  0  0  0  0  0  0
    2.4690   -1.2353    0.8621 H   0  0  0  0  0  0  0  0  0  0  0  0
    2.3847   -2.1291   -0.7557 H   0  0  0  0  0  0  0  0  0  0  0  0
    0.7947   -0.2232    1.6639 H   0  0  0  0  0  0  0  0  0  0  0  0
  1  2  1  0
  2  3  1  0
  3  4  2  0
  4  5  1  0
  5  6  2  0
  6  7  1  0
  7  8  1  0
  8  9  1  0
  9  2  1  0
  9  5  1  0
  1 10  1  0
  1 11  1  0
  1 12  1  0
  2 13  1  0
  3 14  1  0
  4 15  1  0
  6 16  1  0
  7 17  1  0
  7 18  1  0
  9 19  1  0
M  END
