
     RDKit          3D

 23 23  0  0  0  0  0  0  0  0999 V2000
   -0.5309    1.9794   -0.1785 C   0  0  0  0  0  0  0  0  0  0  0  0
   -0.3026    0.5078   -0.5327 C   0  0  0  0  0  0  0  0  0  0  0  0
   -1.6473   -0.1121   -0.7159 C   0  0  0  0  0  0  0  0  0  0  0  0
   -1.8222   -1.2831    0.2511 C   0  0  0  0  0  0  0  0  0  0  0  0
   -0.7392   -2.1438   -0.0139 O   0  0  0  0  0  0  0  0  0  0  0  0
    0.3554   -1.6285    0.6244 C   0  0  0  0  0  0  0  0  0  0  0  0
    0.5776   -0.1696    0.4559 C   0  0  0  0  0  0  0  0  0  0  0  0
    2.0505    0.0235    0.0862 C   0  0  0  0  0  0  0  0  0  0  0  0
    2.4178    1.3436    0.0526 O   0  0  0  0  0  0  0  0  0  0  0  0
   -0.9868    2.4252   -1.1101 H   0  0  0  0  0  0  0  0  0  0  0  0
    0.3815    2.4873    0.1245 H   0  0  0  0  0  0  0  0  0  0  0  0
   -1.3333    1.9859    0.5824 H   0  0  0  0  0  0  0  0  0  0  0  0
    0.2368    0.4917   -1.5242 H   0  0  0  0  0  0  0  0  0  0  0  0
   -1.8165   -0.4832   -1.7376 H   0  0  0  0  0  0  0  0  0  0  0  0
   -2.4963    0.5840   -0.4976 H   0  0  0  0  0  0  0  0  0  0  0  0
   -2.7608   -1.8102    0.0451 H   0  0  0  0  0  0  0  0  0  0  0  0
   -1.7177   -0.9255    1.2894 H   0  0  0  0  0  0  0  0  0  0  0  0
    0.2485   -1.8593    1.7198 H   0  0  0  0  0  0  0  0  0  0  0  0
    1.2433   -2.2473    0.3060 H   0  0  0  0  0  0  0  0  0  0  0  0
    0.4550    0.3680    1.4398 H   0  0  0  0  0  0  0  0  0  0  0  0
    2.7049   -0.5554    0.7632 H   0  0  0  0  0  0  0  0  0  0  0  0
    2.2417   -0.4069   -0.9406 H   0  0  0  0  0  0  0  0  0  0  0  0
    3.2405    1.4287   -0.4897 H   0  0  0  0  0  0  0  0  0  0  0  0
  1  2  1  0
  2  3  1  0
  3  4  1  0
  4  5  1  0
  5  6  1  0
  6  7  1  0
  7  8  1  0
  8  9  1  0
  7  2  1  0
  1 10  1  0
  1 11  1  0
  1 12  1  0
  2 13  1  0
  3 14  1  0
  3 15  1  0
  4 16  1  0
  4 17  1  0
  6 18  1  0
  6 19  1  0
  7 20  1  0
  8 21  1  0
  8 22  1  0
  9 23  1  0
M  END
