
     RDKit          3D

 17 17  0  0  0  0  0  0  0  0999 V2000
    1.7224   -1.0257   -0.2260 C   0  0  0  0  0  0  0  0  0  0  0  0
    0.4693   -0.2851   -0.6839 C   0  0  0  0  0  0  0  0  0  0  0  0
    0.3260    1.0718   -0.0231 C   0  0  0  0  0  0  0  0  0  0  0  0
    1.2023    1.4338    0.9869 O   0  0  0  0  0  0  0  0  0  0  0  0
   -0.6202   -0.0905    0.2665 C   0  0  0  0  0  0  0  0  0  0  0  0
   -2.0280    0.1624   -0.1706 C   0  0  0  0  0  0  0  0  0  0  0  0
   -0.5079   -0.7450    1.4895 O   0  0  0  0  0  0  0  0  0  0  0  0
    1.7600   -0.8944    0.8812 H   0  0  0  0  0  0  0  0  0  0  0  0
    2.5716   -0.4034   -0.6373 H   0  0  0  0  0  0  0  0  0  0  0  0
    1.7525   -2.0614   -0.5552 H   0  0  0  0  0  0  0  0  0  0  0  0
    0.3362   -0.3376   -1.7828 H   0  0  0  0  0  0  0  0  0  0  0  0
   -0.0358    1.9003   -0.6610 H   0  0  0  0  0  0  0  0  0  0  0  0
    0.8558    2.1925    1.4789 H   0  0  0  0  0  0  0  0  0  0  0  0
   -2.4313    0.9908    0.4795 H   0  0  0  0  0  0  0  0  0  0  0  0
   -2.6860   -0.7169   -0.0434 H   0  0  0  0  0  0  0  0  0  0  0  0
   -2.1241    0.5266   -1.2068 H   0  0  0  0  0  0  0  0  0  0  0  0
   -0.5628   -1.7184    1.2965 H   0  0  0  0  0  0  0  0  0  0  0  0
  1  2  1  0
  2  3  1  0
  3  4  1  0
  3  5  1  0
  5  6  1  0
  5  7  1  0
  5  2  1  0
  1  8  1  0
  1  9  1  0
  1 10  1  0
  2 11  1  0
  3 12  1  0
  4 13  1  0
  6 14  1  0
  6 15  1  0
  6 16  1  0
  7 17  1  0
M  END
