
     RDKit          3D

 20 21  0  0  0  0  0  0  0  0999 V2000
    2.5882   -0.3018   -0.0865 C   0  0  0  0  0  0  0  0  0  0  0  0
    1.1538   -0.1319    0.2768 C   0  0  0  0  0  0  0  0  0  0  0  0
    0.2775   -0.7142   -0.8267 C   0  0  0  0  0  0  0  0  0  0  0  0
   -0.9066    0.1957   -0.8737 C   0  0  0  0  0  0  0  0  0  0  0  0
   -2.0036   -0.3165    0.0368 C   0  0  0  0  0  0  0  0  0  0  0  0
   -1.4926    0.5660    1.1496 C   0  0  0  0  0  0  0  0  0  0  0  0
   -0.5998    1.2472    0.1523 C   0  0  0  0  0  0  0  0  0  0  0  0
    0.7598    1.1914    0.4157 O   0  0  0  0  0  0  0  0  0  0  0  0
    2.6702   -1.0749   -0.8968 H   0  0  0  0  0  0  0  0  0  0  0  0
    3.1247    0.6260   -0.3227 H   0  0  0  0  0  0  0  0  0  0  0  0
    3.1061   -0.7691    0.7936 H   0  0  0  0  0  0  0  0  0  0  0  0
    0.8987   -0.6365    1.2412 H   0  0  0  0  0  0  0  0  0  0  0  0
   -0.0284   -1.7582   -0.5783 H   0  0  0  0  0  0  0  0  0  0  0  0
    0.8446   -0.7086   -1.7632 H   0  0  0  0  0  0  0  0  0  0  0  0
   -1.2238    0.5710   -1.8502 H   0  0  0  0  0  0  0  0  0  0  0  0
   -1.9383   -1.3945    0.2587 H   0  0  0  0  0  0  0  0  0  0  0  0
   -2.9989   -0.0644   -0.3635 H   0  0  0  0  0  0  0  0  0  0  0  0
   -2.2724    1.2791    1.5066 H   0  0  0  0  0  0  0  0  0  0  0  0
   -0.9993   -0.0376    1.9252 H   0  0  0  0  0  0  0  0  0  0  0  0
   -0.9598    2.2319   -0.1948 H   0  0  0  0  0  0  0  0  0  0  0  0
  1  2  1  0
  2  3  1  0
  3  4  1  0
  4  5  1  0
  5  6  1  0
  6  7  1  0
  7  8  1  0
  8  2  1  0
  7  4  1  0
  1  9  1  0
  1 10  1  0
  1 11  1  0
  2 12  1  0
  3 13  1  0
  3 14  1  0
  4 15  1  0
  5 16  1  0
  5 17  1  0
  6 18  1  0
  6 19  1  0
  7 20  1  0
M  END
