
     RDKit          3D

 23 23  0  0  0  0  0  0  0  0999 V2000
    2.1248   -0.8043   -0.4203 C   0  0  0  0  0  0  0  0  0  0  0  0
    1.0628   -0.3258    0.4982 C   0  0  0  0  0  0  0  0  0  0  0  0
    0.1145   -1.4580    0.9216 C   0  0  0  0  0  0  0  0  0  0  0  0
   -0.9123   -0.7070    1.4912 O   0  0  0  0  0  0  0  0  0  0  0  0
   -1.2133    0.2382    0.5169 C   0  0  0  0  0  0  0  0  0  0  0  0
   -2.3054   -0.2933   -0.3689 C   0  0  0  0  0  0  0  0  0  0  0  0
    0.0426    0.5847   -0.2001 C   0  0  0  0  0  0  0  0  0  0  0  0
    0.4674    2.0004    0.0863 C   0  0  0  0  0  0  0  0  0  0  0  0
    0.0618    0.2592   -1.5343 O   0  0  0  0  0  0  0  0  0  0  0  0
    2.1580   -0.3147   -1.4040 H   0  0  0  0  0  0  0  0  0  0  0  0
    1.9972   -1.9115   -0.5542 H   0  0  0  0  0  0  0  0  0  0  0  0
    3.1107   -0.6908    0.1127 H   0  0  0  0  0  0  0  0  0  0  0  0
    1.4206    0.1699    1.4165 H   0  0  0  0  0  0  0  0  0  0  0  0
    0.5865   -2.1585    1.6023 H   0  0  0  0  0  0  0  0  0  0  0  0
   -0.2591   -1.8923   -0.0236 H   0  0  0  0  0  0  0  0  0  0  0  0
   -1.5904    1.1345    1.0307 H   0  0  0  0  0  0  0  0  0  0  0  0
   -2.0906   -1.2771   -0.8069 H   0  0  0  0  0  0  0  0  0  0  0  0
   -3.2019   -0.4451    0.2941 H   0  0  0  0  0  0  0  0  0  0  0  0
   -2.5718    0.4118   -1.1564 H   0  0  0  0  0  0  0  0  0  0  0  0
    0.7998    2.0241    1.1537 H   0  0  0  0  0  0  0  0  0  0  0  0
    1.3279    2.2566   -0.5550 H   0  0  0  0  0  0  0  0  0  0  0  0
   -0.3949    2.6698   -0.0579 H   0  0  0  0  0  0  0  0  0  0  0  0
   -0.7351    0.5293   -2.0426 H   0  0  0  0  0  0  0  0  0  0  0  0
  1  2  1  0
  2  3  1  0
  3  4  1  0
  4  5  1  0
  5  6  1  0
  5  7  1  0
  7  8  1  0
  7  9  1  0
  7  2  1  0
  1 10  1  0
  1 11  1  0
  1 12  1  0
  2 13  1  0
  3 14  1  0
  3 15  1  0
  5 16  1  0
  6 17  1  0
  6 18  1  0
  6 19  1  0
  8 20  1  0
  8 21  1  0
  8 22  1  0
  9 23  1  0
M  END
