
     RDKit          3D

 21 21  0  0  0  0  0  0  0  0999 V2000
    1.8357   -1.3129   -0.4442 C   0  0  0  0  0  0  0  0  0  0  0  0
    1.4989    0.1323   -0.5719 C   0  0  0  0  0  0  0  0  0  0  0  0
    1.7858    0.9956    0.6285 C   0  0  0  0  0  0  0  0  0  0  0  0
    2.2529    2.2714    0.3174 O   0  0  0  0  0  0  0  0  0  0  0  0
    0.3622    0.6992    0.3326 C   0  0  0  0  0  0  0  0  0  0  0  0
   -0.3263   -0.2873    0.9867 O   0  0  0  0  0  0  0  0  0  0  0  0
   -1.6857   -0.1963    1.0032 C   0  0  0  0  0  0  0  0  0  0  0  0
   -2.1960   -0.2398   -0.4175 C   0  0  0  0  0  0  0  0  0  0  0  0
   -3.5859   -0.1476   -0.4094 O   0  0  0  0  0  0  0  0  0  0  0  0
    1.2186   -1.7607    0.3740 H   0  0  0  0  0  0  0  0  0  0  0  0
    1.5050   -1.8309   -1.3731 H   0  0  0  0  0  0  0  0  0  0  0  0
    2.8902   -1.5206   -0.1886 H   0  0  0  0  0  0  0  0  0  0  0  0
    1.5767    0.5838   -1.5755 H   0  0  0  0  0  0  0  0  0  0  0  0
    2.2472    0.5115    1.5152 H   0  0  0  0  0  0  0  0  0  0  0  0
    2.5015    2.3435   -0.6460 H   0  0  0  0  0  0  0  0  0  0  0  0
   -0.2213    1.5094   -0.1332 H   0  0  0  0  0  0  0  0  0  0  0  0
   -2.0669   -1.1171    1.5213 H   0  0  0  0  0  0  0  0  0  0  0  0
   -2.0386    0.7071    1.5477 H   0  0  0  0  0  0  0  0  0  0  0  0
   -1.9197   -1.2614   -0.8096 H   0  0  0  0  0  0  0  0  0  0  0  0
   -1.7116    0.5040   -1.0379 H   0  0  0  0  0  0  0  0  0  0  0  0
   -3.9227   -0.5833    0.4087 H   0  0  0  0  0  0  0  0  0  0  0  0
  1  2  1  0
  2  3  1  0
  3  4  1  0
  3  5  1  0
  5  6  1  0
  6  7  1  0
  7  8  1  0
  8  9  1  0
  5  2  1  0
  1 10  1  0
  1 11  1  0
  1 12  1  0
  2 13  1  0
  3 14  1  0
  4 15  1  0
  5 16  1  0
  7 17  1  0
  7 18  1  0
  8 19  1  0
  8 20  1  0
  9 21  1  0
M  END
