
     RDKit          3D

 16 17  0  0  0  0  0  0  0  0999 V2000
    1.6658    0.5202    0.1524 C   0  0  0  0  0  0  0  0  0  0  0  0
    0.7507   -0.5984   -0.2652 C   0  0  0  0  0  0  0  0  0  0  0  0
   -0.0872   -1.0672    0.8625 C   0  0  0  0  0  0  0  0  0  0  0  0
    0.2125   -1.7077    1.8035 O   0  0  0  0  0  0  0  0  0  0  0  0
   -1.4005   -0.5129    0.4857 C   0  0  0  0  0  0  0  0  0  0  0  0
   -1.1191    0.8494   -0.1197 C   0  0  0  0  0  0  0  0  0  0  0  0
   -0.4317   -0.0448   -1.0881 C   0  0  0  0  0  0  0  0  0  0  0  0
   -1.4860   -0.9566   -0.8539 O   0  0  0  0  0  0  0  0  0  0  0  0
    1.4933    0.8415    1.2091 H   0  0  0  0  0  0  0  0  0  0  0  0
    2.7258    0.2301    0.0572 H   0  0  0  0  0  0  0  0  0  0  0  0
    1.4745    1.4356   -0.4618 H   0  0  0  0  0  0  0  0  0  0  0  0
    1.2159   -1.3807   -0.8483 H   0  0  0  0  0  0  0  0  0  0  0  0
   -2.2450   -0.6389    1.1080 H   0  0  0  0  0  0  0  0  0  0  0  0
   -0.4760    1.4849    0.5192 H   0  0  0  0  0  0  0  0  0  0  0  0
   -2.0577    1.2936   -0.4750 H   0  0  0  0  0  0  0  0  0  0  0  0
   -0.2353    0.2518   -2.0854 H   0  0  0  0  0  0  0  0  0  0  0  0
  1  2  1  0
  2  3  1  0
  3  4  2  0
  3  5  1  0
  5  6  1  0
  6  7  1  0
  7  8  1  0
  7  2  1  0
  8  5  1  0
  1  9  1  0
  1 10  1  0
  1 11  1  0
  2 12  1  0
  5 13  1  0
  6 14  1  0
  6 15  1  0
  7 16  1  0
M  END
