
     RDKit          3D

 23 23  0  0  0  0  0  0  0  0999 V2000
   -1.8047   -1.2014   -0.3381 C   0  0  0  0  0  0  0  0  0  0  0  0
   -0.4249   -0.5753   -0.4243 C   0  0  0  0  0  0  0  0  0  0  0  0
    0.5368   -1.5020    0.2476 C   0  0  0  0  0  0  0  0  0  0  0  0
    1.9256   -1.0241   -0.0615 C   0  0  0  0  0  0  0  0  0  0  0  0
    2.4046    0.1840    0.1272 C   0  0  0  0  0  0  0  0  0  0  0  0
    1.6980    1.3666    0.6880 C   0  0  0  0  0  0  0  0  0  0  0  0
    0.5883    1.5970   -0.1240 O   0  0  0  0  0  0  0  0  0  0  0  0
   -0.4849    0.7929    0.1819 C   0  0  0  0  0  0  0  0  0  0  0  0
   -1.7232    1.4765   -0.4194 C   0  0  0  0  0  0  0  0  0  0  0  0
   -1.7043   -2.2307   -0.7450 H   0  0  0  0  0  0  0  0  0  0  0  0
   -2.5556   -0.6820   -0.9390 H   0  0  0  0  0  0  0  0  0  0  0  0
   -2.1463   -1.3128    0.7142 H   0  0  0  0  0  0  0  0  0  0  0  0
   -0.1698   -0.5046   -1.4898 H   0  0  0  0  0  0  0  0  0  0  0  0
    0.3816   -1.4196    1.3434 H   0  0  0  0  0  0  0  0  0  0  0  0
    0.3661   -2.5211   -0.1235 H   0  0  0  0  0  0  0  0  0  0  0  0
    2.5986   -1.7722   -0.4886 H   0  0  0  0  0  0  0  0  0  0  0  0
    3.4277    0.3665   -0.1485 H   0  0  0  0  0  0  0  0  0  0  0  0
    2.3407    2.2375    0.8024 H   0  0  0  0  0  0  0  0  0  0  0  0
    1.3814    1.0605    1.7289 H   0  0  0  0  0  0  0  0  0  0  0  0
   -0.6846    0.7354    1.2702 H   0  0  0  0  0  0  0  0  0  0  0  0
   -1.6233    2.5657   -0.3434 H   0  0  0  0  0  0  0  0  0  0  0  0
   -1.6790    1.2297   -1.5166 H   0  0  0  0  0  0  0  0  0  0  0  0
   -2.6490    1.1337    0.0577 H   0  0  0  0  0  0  0  0  0  0  0  0
  1  2  1  0
  2  3  1  0
  3  4  1  0
  4  5  2  0
  5  6  1  0
  6  7  1  0
  7  8  1  0
  8  9  1  0
  8  2  1  0
  1 10  1  0
  1 11  1  0
  1 12  1  0
  2 13  1  0
  3 14  1  0
  3 15  1  0
  4 16  1  0
  5 17  1  0
  6 18  1  0
  6 19  1  0
  8 20  1  0
  9 21  1  0
  9 22  1  0
  9 23  1  0
M  END
