
     RDKit          3D

 23 23  0  0  0  0  0  0  0  0999 V2000
   -2.0427    1.1729    0.5259 C   0  0  0  0  0  0  0  0  0  0  0  0
   -1.3070    0.4314   -0.5581 C   0  0  0  0  0  0  0  0  0  0  0  0
   -1.7945   -0.8752   -1.0654 C   0  0  0  0  0  0  0  0  0  0  0  0
   -0.6117   -0.8660   -0.2145 C   0  0  0  0  0  0  0  0  0  0  0  0
   -0.7112   -1.3409    1.2200 C   0  0  0  0  0  0  0  0  0  0  0  0
    0.6914   -0.9362   -0.7030 O   0  0  0  0  0  0  0  0  0  0  0  0
    1.3800    0.1213   -0.1104 C   0  0  0  0  0  0  0  0  0  0  0  0
    2.8251    0.1727   -0.5503 C   0  0  0  0  0  0  0  0  0  0  0  0
    3.4000    1.2725    0.1129 O   0  0  0  0  0  0  0  0  0  0  0  0
   -1.4760    2.1260    0.7096 H   0  0  0  0  0  0  0  0  0  0  0  0
   -2.0622    0.6470    1.4909 H   0  0  0  0  0  0  0  0  0  0  0  0
   -3.0373    1.4752    0.1771 H   0  0  0  0  0  0  0  0  0  0  0  0
   -0.9164    1.0957   -1.3566 H   0  0  0  0  0  0  0  0  0  0  0  0
   -1.7672   -1.1124   -2.1523 H   0  0  0  0  0  0  0  0  0  0  0  0
   -2.7393   -1.2524   -0.5923 H   0  0  0  0  0  0  0  0  0  0  0  0
   -1.7088   -1.8102    1.4169 H   0  0  0  0  0  0  0  0  0  0  0  0
    0.0337   -2.1534    1.3845 H   0  0  0  0  0  0  0  0  0  0  0  0
   -0.4689   -0.5426    1.9468 H   0  0  0  0  0  0  0  0  0  0  0  0
    0.8654    1.0623   -0.3905 H   0  0  0  0  0  0  0  0  0  0  0  0
    1.2854   -0.0188    0.9811 H   0  0  0  0  0  0  0  0  0  0  0  0
    2.9012    0.2532   -1.6437 H   0  0  0  0  0  0  0  0  0  0  0  0
    3.3127   -0.7445   -0.1419 H   0  0  0  0  0  0  0  0  0  0  0  0
    3.9480    1.8224   -0.4868 H   0  0  0  0  0  0  0  0  0  0  0  0
  1  2  1  0
  2  3  1  0
  3  4  1  0
  4  5  1  0
  4  6  1  0
  6  7  1  0
  7  8  1  0
  8  9  1  0
  4  2  1  0
  1 10  1  0
  1 11  1  0
  1 12  1  0
  2 13  1  0
  3 14  1  0
  3 15  1  0
  5 16  1  0
  5 17  1  0
  5 18  1  0
  7 19  1  0
  7 20  1  0
  8 21  1  0
  8 22  1  0
  9 23  1  0
M  END
