
     RDKit          3D

 19 20  0  0  0  0  0  0  0  0999 V2000
    1.6473   -0.7196    0.8110 C   0  0  0  0  0  0  0  0  0  0  0  0
    0.8012    0.4064    0.3158 C   0  0  0  0  0  0  0  0  0  0  0  0
    0.7416    0.4400   -1.2266 C   0  0  0  0  0  0  0  0  0  0  0  0
   -0.3035    1.2889   -1.4869 O   0  0  0  0  0  0  0  0  0  0  0  0
   -1.2021    1.2310   -0.4114 C   0  0  0  0  0  0  0  0  0  0  0  0
   -0.6977    0.0611    0.4081 C   0  0  0  0  0  0  0  0  0  0  0  0
   -1.1802   -0.0949    1.6293 O   0  0  0  0  0  0  0  0  0  0  0  0
   -0.7034   -1.1288   -0.5216 C   0  0  0  0  0  0  0  0  0  0  0  0
    0.3052   -0.8863   -1.4555 O   0  0  0  0  0  0  0  0  0  0  0  0
    1.3902   -0.8892    1.8790 H   0  0  0  0  0  0  0  0  0  0  0  0
    1.4854   -1.6068    0.1895 H   0  0  0  0  0  0  0  0  0  0  0  0
    2.6950   -0.4026    0.7830 H   0  0  0  0  0  0  0  0  0  0  0  0
    1.0244    1.3851    0.7302 H   0  0  0  0  0  0  0  0  0  0  0  0
    1.6818    0.6649   -1.6789 H   0  0  0  0  0  0  0  0  0  0  0  0
   -1.0252    2.1640    0.1875 H   0  0  0  0  0  0  0  0  0  0  0  0
   -2.2447    1.1264   -0.7276 H   0  0  0  0  0  0  0  0  0  0  0  0
   -2.1209    0.1237    1.7044 H   0  0  0  0  0  0  0  0  0  0  0  0
   -1.6663   -1.0734   -1.1062 H   0  0  0  0  0  0  0  0  0  0  0  0
   -0.6281   -2.0900   -0.0231 H   0  0  0  0  0  0  0  0  0  0  0  0
  1  2  1  0
  2  3  1  0
  3  4  1  0
  4  5  1  0
  5  6  1  0
  6  7  1  0
  6  8  1  0
  8  9  1  0
  6  2  1  0
  9  3  1  0
  1 10  1  0
  1 11  1  0
  1 12  1  0
  2 13  1  0
  3 14  1  0
  5 15  1  0
  5 16  1  0
  7 17  1  0
  8 18  1  0
  8 19  1  0
M  END
