
     RDKit          3D

 25 26  0  0  0  0  0  0  0  0999 V2000
    1.9725   -1.6411   -0.2129 C   0  0  0  0  0  0  0  0  0  0  0  0
    0.7994   -0.7468    0.1790 C   0  0  0  0  0  0  0  0  0  0  0  0
    1.2985    0.6697    0.4142 C   0  0  0  0  0  0  0  0  0  0  0  0
    0.3781    1.7727    0.2010 C   0  0  0  0  0  0  0  0  0  0  0  0
   -0.9376    1.5181   -0.4894 C   0  0  0  0  0  0  0  0  0  0  0  0
   -1.3216    0.1257   -0.2413 C   0  0  0  0  0  0  0  0  0  0  0  0
   -1.5324   -0.1246    1.2570 C   0  0  0  0  0  0  0  0  0  0  0  0
   -1.5169   -0.9933   -1.0818 C   0  0  0  0  0  0  0  0  0  0  0  0
   -0.1498   -0.6613   -0.9278 C   0  0  0  0  0  0  0  0  0  0  0  0
    2.8918   -1.2867    0.3066 H   0  0  0  0  0  0  0  0  0  0  0  0
    2.0551   -1.6745   -1.2973 H   0  0  0  0  0  0  0  0  0  0  0  0
    1.7148   -2.6862    0.1276 H   0  0  0  0  0  0  0  0  0  0  0  0
    0.4230   -1.1273    1.1301 H   0  0  0  0  0  0  0  0  0  0  0  0
    1.7325    0.6772    1.4559 H   0  0  0  0  0  0  0  0  0  0  0  0
    2.2121    0.7663   -0.2452 H   0  0  0  0  0  0  0  0  0  0  0  0
    0.8807    2.5747   -0.4183 H   0  0  0  0  0  0  0  0  0  0  0  0
    0.1856    2.2932    1.1853 H   0  0  0  0  0  0  0  0  0  0  0  0
   -0.8868    1.7551   -1.5769 H   0  0  0  0  0  0  0  0  0  0  0  0
   -1.6982    2.1933   -0.0445 H   0  0  0  0  0  0  0  0  0  0  0  0
   -2.5400    0.2876    1.4692 H   0  0  0  0  0  0  0  0  0  0  0  0
   -1.5827   -1.2017    1.4881 H   0  0  0  0  0  0  0  0  0  0  0  0
   -0.8170    0.4414    1.8725 H   0  0  0  0  0  0  0  0  0  0  0  0
   -1.8933   -1.9467   -0.6522 H   0  0  0  0  0  0  0  0  0  0  0  0
   -2.0057   -0.8280   -2.0812 H   0  0  0  0  0  0  0  0  0  0  0  0
    0.3381   -0.1568   -1.8179 H   0  0  0  0  0  0  0  0  0  0  0  0
  1  2  1  0
  2  3  1  0
  3  4  1  0
  4  5  1  0
  5  6  1  0
  6  7  1  0
  6  8  1  0
  8  9  1  0
  9  2  1  0
  9  6  1  0
  1 10  1  0
  1 11  1  0
  1 12  1  0
  2 13  1  0
  3 14  1  0
  3 15  1  0
  4 16  1  0
  4 17  1  0
  5 18  1  0
  5 19  1  0
  7 20  1  0
  7 21  1  0
  7 22  1  0
  8 23  1  0
  8 24  1  0
  9 25  1  0
M  END
