
     RDKit          3D

 21 22  0  0  0  0  0  0  0  0999 V2000
    1.3942    1.2856    0.8387 C   0  0  0  0  0  0  0  0  0  0  0  0
    0.8109   -0.0725    0.8250 C   0  0  0  0  0  0  0  0  0  0  0  0
    1.3584   -0.9472   -0.3010 C   0  0  0  0  0  0  0  0  0  0  0  0
    0.6899   -0.6023   -1.3816 C   0  0  0  0  0  0  0  0  0  0  0  0
   -0.2434    0.4397   -1.0218 C   0  0  0  0  0  0  0  0  0  0  0  0
   -1.4872    0.5798   -0.3989 C   0  0  0  0  0  0  0  0  0  0  0  0
   -1.8856    1.8351    0.1131 O   0  0  0  0  0  0  0  0  0  0  0  0
   -0.6119   -0.1882    0.3656 C   0  0  0  0  0  0  0  0  0  0  0  0
   -0.9378   -1.7074    0.3308 C   0  0  0  0  0  0  0  0  0  0  0  0
    2.1385    1.4802    0.0195 H   0  0  0  0  0  0  0  0  0  0  0  0
    0.6633    2.1174    0.8991 H   0  0  0  0  0  0  0  0  0  0  0  0
    2.0078    1.3815    1.7835 H   0  0  0  0  0  0  0  0  0  0  0  0
    0.8910   -0.5852    1.8026 H   0  0  0  0  0  0  0  0  0  0  0  0
    2.1251   -1.6758   -0.1925 H   0  0  0  0  0  0  0  0  0  0  0  0
    0.8246   -1.0301   -2.3582 H   0  0  0  0  0  0  0  0  0  0  0  0
    0.3689    1.4096   -0.9888 H   0  0  0  0  0  0  0  0  0  0  0  0
   -2.3917    0.1160   -0.8865 H   0  0  0  0  0  0  0  0  0  0  0  0
   -2.5087    2.2897   -0.4928 H   0  0  0  0  0  0  0  0  0  0  0  0
   -0.5209   -2.2253    1.2027 H   0  0  0  0  0  0  0  0  0  0  0  0
   -0.6266   -2.1386   -0.6241 H   0  0  0  0  0  0  0  0  0  0  0  0
   -2.0588   -1.7619    0.4655 H   0  0  0  0  0  0  0  0  0  0  0  0
  1  2  1  0
  2  3  1  0
  3  4  2  0
  4  5  1  0
  5  6  1  0
  6  7  1  0
  6  8  1  0
  8  9  1  0
  8  2  1  0
  8  5  1  0
  1 10  1  0
  1 11  1  0
  1 12  1  0
  2 13  1  0
  3 14  1  0
  4 15  1  0
  5 16  1  0
  6 17  1  0
  7 18  1  0
  9 19  1  0
  9 20  1  0
  9 21  1  0
M  END
