
     RDKit          3D

 16 17  0  0  0  0  0  0  0  0999 V2000
    1.5212    0.8112    0.3287 C   0  0  0  0  0  0  0  0  0  0  0  0
    0.9819   -0.0673   -0.7653 C   0  0  0  0  0  0  0  0  0  0  0  0
    0.2309   -1.2631   -0.1662 C   0  0  0  0  0  0  0  0  0  0  0  0
   -0.9369   -0.3499   -0.0876 C   0  0  0  0  0  0  0  0  0  0  0  0
   -1.6650    0.1120    0.9647 C   0  0  0  0  0  0  0  0  0  0  0  0
   -2.2290   -0.7861   -0.0837 O   0  0  0  0  0  0  0  0  0  0  0  0
   -0.3742    0.4524   -1.1816 C   0  0  0  0  0  0  0  0  0  0  0  0
   -0.8213    1.1930   -2.0274 O   0  0  0  0  0  0  0  0  0  0  0  0
    1.5849    1.8436   -0.0821 H   0  0  0  0  0  0  0  0  0  0  0  0
    0.7201    0.8633    1.1169 H   0  0  0  0  0  0  0  0  0  0  0  0
    2.4534    0.4546    0.7771 H   0  0  0  0  0  0  0  0  0  0  0  0
    1.6478   -0.3102   -1.5910 H   0  0  0  0  0  0  0  0  0  0  0  0
    0.0777   -2.0852   -0.9160 H   0  0  0  0  0  0  0  0  0  0  0  0
    0.6800   -1.6091    0.7666 H   0  0  0  0  0  0  0  0  0  0  0  0
   -1.7057   -0.3677    1.9779 H   0  0  0  0  0  0  0  0  0  0  0  0
   -2.1658    1.1085    0.9691 H   0  0  0  0  0  0  0  0  0  0  0  0
  1  2  1  0
  2  3  1  0
  3  4  1  0
  4  5  1  0
  5  6  1  0
  4  7  1  0
  7  8  2  0
  7  2  1  0
  6  4  1  0
  1  9  1  0
  1 10  1  0
  1 11  1  0
  2 12  1  0
  3 13  1  0
  3 14  1  0
  5 15  1  0
  5 16  1  0
M  END
