
     RDKit          3D

 25 26  0  0  0  0  0  0  0  0999 V2000
    3.2395    0.4834   -0.5362 C   0  0  0  0  0  0  0  0  0  0  0  0
    2.2178   -0.0708    0.3871 C   0  0  0  0  0  0  0  0  0  0  0  0
    0.9419    0.7733    0.5319 C   0  0  0  0  0  0  0  0  0  0  0  0
    0.2325   -0.5499    0.7206 C   0  0  0  0  0  0  0  0  0  0  0  0
   -1.1720   -0.6355    0.2664 C   0  0  0  0  0  0  0  0  0  0  0  0
   -1.4607   -0.3766   -1.2183 C   0  0  0  0  0  0  0  0  0  0  0  0
   -1.9705    0.5351   -0.1470 C   0  0  0  0  0  0  0  0  0  0  0  0
   -3.4754    0.4870    0.0435 C   0  0  0  0  0  0  0  0  0  0  0  0
    1.2826   -1.1236   -0.2294 C   0  0  0  0  0  0  0  0  0  0  0  0
    2.8531    1.3525   -1.0802 H   0  0  0  0  0  0  0  0  0  0  0  0
    4.1501    0.7336    0.0826 H   0  0  0  0  0  0  0  0  0  0  0  0
    3.6051   -0.3324   -1.2247 H   0  0  0  0  0  0  0  0  0  0  0  0
    2.5370   -0.4075    1.3751 H   0  0  0  0  0  0  0  0  0  0  0  0
    0.9506    1.4517    1.3825 H   0  0  0  0  0  0  0  0  0  0  0  0
    0.7257    1.2199   -0.4595 H   0  0  0  0  0  0  0  0  0  0  0  0
    0.3976   -0.9397    1.7239 H   0  0  0  0  0  0  0  0  0  0  0  0
   -1.7568   -1.4746    0.7090 H   0  0  0  0  0  0  0  0  0  0  0  0
   -2.1760   -1.0679   -1.7276 H   0  0  0  0  0  0  0  0  0  0  0  0
   -0.6585    0.0100   -1.8542 H   0  0  0  0  0  0  0  0  0  0  0  0
   -1.5705    1.5728   -0.1097 H   0  0  0  0  0  0  0  0  0  0  0  0
   -3.8187    1.2346    0.8077 H   0  0  0  0  0  0  0  0  0  0  0  0
   -3.7293   -0.5121    0.4574 H   0  0  0  0  0  0  0  0  0  0  0  0
   -4.0263    0.6294   -0.9033 H   0  0  0  0  0  0  0  0  0  0  0  0
    1.1044   -0.8403   -1.2792 H   0  0  0  0  0  0  0  0  0  0  0  0
    1.5769   -2.1522   -0.0227 H   0  0  0  0  0  0  0  0  0  0  0  0
  1  2  1  0
  2  3  1  0
  3  4  1  0
  4  5  1  0
  5  6  1  0
  6  7  1  0
  7  8  1  0
  4  9  1  0
  9  2  1  0
  7  5  1  0
  1 10  1  0
  1 11  1  0
  1 12  1  0
  2 13  1  0
  3 14  1  0
  3 15  1  0
  4 16  1  0
  5 17  1  0
  6 18  1  0
  6 19  1  0
  7 20  1  0
  8 21  1  0
  8 22  1  0
  8 23  1  0
  9 24  1  0
  9 25  1  0
M  END
