
     RDKit          3D

 16 17  0  0  0  0  0  0  0  0999 V2000
    1.5302    1.0437   -0.1929 C   0  0  0  0  0  0  0  0  0  0  0  0
    0.5590   -0.0222   -0.6443 C   0  0  0  0  0  0  0  0  0  0  0  0
    0.9416   -1.3533   -0.1144 C   0  0  0  0  0  0  0  0  0  0  0  0
    1.7588   -2.1905   -0.3779 O   0  0  0  0  0  0  0  0  0  0  0  0
   -0.1252   -1.2145    0.8932 C   0  0  0  0  0  0  0  0  0  0  0  0
   -0.2125   -0.0470    1.6554 O   0  0  0  0  0  0  0  0  0  0  0  0
   -0.5977   -0.0697    0.3500 C   0  0  0  0  0  0  0  0  0  0  0  0
   -1.8980    0.3908   -0.1507 C   0  0  0  0  0  0  0  0  0  0  0  0
    1.0140    2.0301   -0.3403 H   0  0  0  0  0  0  0  0  0  0  0  0
    2.5011    0.9909   -0.6787 H   0  0  0  0  0  0  0  0  0  0  0  0
    1.5938    0.9371    0.9285 H   0  0  0  0  0  0  0  0  0  0  0  0
    0.2099    0.0293   -1.6655 H   0  0  0  0  0  0  0  0  0  0  0  0
   -0.5550   -2.0907    1.3921 H   0  0  0  0  0  0  0  0  0  0  0  0
   -2.6846    0.4843    0.5916 H   0  0  0  0  0  0  0  0  0  0  0  0
   -1.7480    1.3747   -0.6848 H   0  0  0  0  0  0  0  0  0  0  0  0
   -2.2875   -0.2929   -0.9613 H   0  0  0  0  0  0  0  0  0  0  0  0
  1  2  1  0
  2  3  1  0
  3  4  2  0
  3  5  1  0
  5  6  1  0
  6  7  1  0
  7  8  1  0
  7  2  1  0
  7  5  1  0
  1  9  1  0
  1 10  1  0
  1 11  1  0
  2 12  1  0
  5 13  1  0
  8 14  1  0
  8 15  1  0
  8 16  1  0
M  END
