
     RDKit          3D

 21 21  0  0  0  0  0  0  0  0999 V2000
   -2.4055    0.1459    0.5550 C   0  0  0  0  0  0  0  0  0  0  0  0
   -1.0779   -0.2071   -0.1268 C   0  0  0  0  0  0  0  0  0  0  0  0
   -0.2147    1.0061   -0.2673 C   0  0  0  0  0  0  0  0  0  0  0  0
    1.2378    0.7459   -0.3493 C   0  0  0  0  0  0  0  0  0  0  0  0
    1.9096    1.9274    0.0433 O   0  0  0  0  0  0  0  0  0  0  0  0
    1.7497   -0.3501    0.5202 C   0  0  0  0  0  0  0  0  0  0  0  0
    0.9689   -1.6229    0.1942 C   0  0  0  0  0  0  0  0  0  0  0  0
   -0.4235   -1.3091    0.6331 C   0  0  0  0  0  0  0  0  0  0  0  0
   -0.9840   -1.8905    1.5262 O   0  0  0  0  0  0  0  0  0  0  0  0
   -2.7656   -0.7359    1.1218 H   0  0  0  0  0  0  0  0  0  0  0  0
   -2.2342    0.9701    1.3072 H   0  0  0  0  0  0  0  0  0  0  0  0
   -3.0973    0.4772   -0.2261 H   0  0  0  0  0  0  0  0  0  0  0  0
   -1.3206   -0.6461   -1.1290 H   0  0  0  0  0  0  0  0  0  0  0  0
   -0.5256    1.5101   -1.2308 H   0  0  0  0  0  0  0  0  0  0  0  0
   -0.4489    1.7823    0.5173 H   0  0  0  0  0  0  0  0  0  0  0  0
    1.5231    0.5589   -1.4193 H   0  0  0  0  0  0  0  0  0  0  0  0
    1.2910    2.4851    0.6052 H   0  0  0  0  0  0  0  0  0  0  0  0
    2.8073   -0.5420    0.2552 H   0  0  0  0  0  0  0  0  0  0  0  0
    1.6316   -0.0909    1.5839 H   0  0  0  0  0  0  0  0  0  0  0  0
    1.3877   -2.5102    0.6579 H   0  0  0  0  0  0  0  0  0  0  0  0
    0.9911   -1.7042   -0.9184 H   0  0  0  0  0  0  0  0  0  0  0  0
  1  2  1  0
  2  3  1  0
  3  4  1  0
  4  5  1  0
  4  6  1  0
  6  7  1  0
  7  8  1  0
  8  9  2  0
  8  2  1  0
  1 10  1  0
  1 11  1  0
  1 12  1  0
  2 13  1  0
  3 14  1  0
  3 15  1  0
  4 16  1  0
  5 17  1  0
  6 18  1  0
  6 19  1  0
  7 20  1  0
  7 21  1  0
M  END
