
     RDKit          3D

 23 23  0  0  0  0  0  0  0  0999 V2000
   -1.8776   -1.0520   -0.5762 C   0  0  0  0  0  0  0  0  0  0  0  0
   -1.5732    0.3543   -0.1897 C   0  0  0  0  0  0  0  0  0  0  0  0
   -1.3916    0.6764    1.2943 C   0  0  0  0  0  0  0  0  0  0  0  0
   -0.2514    0.7826    0.3378 C   0  0  0  0  0  0  0  0  0  0  0  0
    0.1622    2.1684   -0.1469 C   0  0  0  0  0  0  0  0  0  0  0  0
    0.8874   -0.1400    0.5412 C   0  0  0  0  0  0  0  0  0  0  0  0
    1.4144   -0.8449   -0.6579 C   0  0  0  0  0  0  0  0  0  0  0  0
    2.5569   -1.7216   -0.2464 C   0  0  0  0  0  0  0  0  0  0  0  0
    2.8905   -1.7531    0.9115 O   0  0  0  0  0  0  0  0  0  0  0  0
   -1.3800   -1.8140    0.0213 H   0  0  0  0  0  0  0  0  0  0  0  0
   -1.6410   -1.1819   -1.6623 H   0  0  0  0  0  0  0  0  0  0  0  0
   -2.9730   -1.2057   -0.4001 H   0  0  0  0  0  0  0  0  0  0  0  0
   -2.2334    1.0972   -0.6865 H   0  0  0  0  0  0  0  0  0  0  0  0
   -1.7950    1.6122    1.7011 H   0  0  0  0  0  0  0  0  0  0  0  0
   -1.4585   -0.2059    1.9357 H   0  0  0  0  0  0  0  0  0  0  0  0
   -0.7223    2.8404   -0.1877 H   0  0  0  0  0  0  0  0  0  0  0  0
    1.0000    2.5826    0.4287 H   0  0  0  0  0  0  0  0  0  0  0  0
    0.5143    2.0408   -1.1915 H   0  0  0  0  0  0  0  0  0  0  0  0
    1.7365    0.4773    0.9648 H   0  0  0  0  0  0  0  0  0  0  0  0
    0.6599   -0.8542    1.3680 H   0  0  0  0  0  0  0  0  0  0  0  0
    1.7599   -0.0957   -1.4262 H   0  0  0  0  0  0  0  0  0  0  0  0
    0.6502   -1.4493   -1.1329 H   0  0  0  0  0  0  0  0  0  0  0  0
    3.0647   -2.3138   -1.0000 H   0  0  0  0  0  0  0  0  0  0  0  0
  1  2  1  0
  2  3  1  0
  3  4  1  0
  4  5  1  0
  4  6  1  0
  6  7  1  0
  7  8  1  0
  8  9  2  0
  4  2  1  0
  1 10  1  0
  1 11  1  0
  1 12  1  0
  2 13  1  0
  3 14  1  0
  3 15  1  0
  5 16  1  0
  5 17  1  0
  5 18  1  0
  6 19  1  0
  6 20  1  0
  7 21  1  0
  7 22  1  0
  8 23  1  0
M  END
