
     RDKit          3D

 21 23  0  0  0  0  0  0  0  0999 V2000
    2.6724   -0.2632   -0.8306 C   0  0  0  0  0  0  0  0  0  0  0  0
    1.6707    0.7348   -0.2326 C   0  0  0  0  0  0  0  0  0  0  0  0
    0.3388    0.7606   -0.6628 C   0  0  0  0  0  0  0  0  0  0  0  0
   -0.9633    1.2237   -0.1039 C   0  0  0  0  0  0  0  0  0  0  0  0
   -1.5092   -0.1433    0.3406 C   0  0  0  0  0  0  0  0  0  0  0  0
   -2.4244   -0.8741   -0.5813 C   0  0  0  0  0  0  0  0  0  0  0  0
   -1.4264   -0.5847    1.6116 O   0  0  0  0  0  0  0  0  0  0  0  0
   -0.2108   -0.8307    0.7957 C   0  0  0  0  0  0  0  0  0  0  0  0
    0.7989    0.2145    0.7534 C   0  0  0  0  0  0  0  0  0  0  0  0
    3.1906    0.2407   -1.6700 H   0  0  0  0  0  0  0  0  0  0  0  0
    2.1681   -1.1854   -1.1552 H   0  0  0  0  0  0  0  0  0  0  0  0
    3.4404   -0.4488   -0.0466 H   0  0  0  0  0  0  0  0  0  0  0  0
    2.1976    1.7216   -0.1022 H   0  0  0  0  0  0  0  0  0  0  0  0
    0.1015   -0.0473   -1.4266 H   0  0  0  0  0  0  0  0  0  0  0  0
   -1.5959    1.5792   -0.9404 H   0  0  0  0  0  0  0  0  0  0  0  0
   -0.8830    1.9168    0.7298 H   0  0  0  0  0  0  0  0  0  0  0  0
   -3.1732   -1.4506    0.0288 H   0  0  0  0  0  0  0  0  0  0  0  0
   -1.9435   -1.5355   -1.3000 H   0  0  0  0  0  0  0  0  0  0  0  0
   -3.0469   -0.0922   -1.1078 H   0  0  0  0  0  0  0  0  0  0  0  0
   -0.0590   -1.8830    0.5472 H   0  0  0  0  0  0  0  0  0  0  0  0
    0.6566    0.9469    1.6133 H   0  0  0  0  0  0  0  0  0  0  0  0
  1  2  1  0
  2  3  1  0
  3  4  1  0
  4  5  1  0
  5  6  1  0
  5  7  1  0
  7  8  1  0
  8  9  1  0
  9  2  1  0
  9  3  1  0
  8  5  1  0
  1 10  1  0
  1 11  1  0
  1 12  1  0
  2 13  1  0
  3 14  1  0
  4 15  1  0
  4 16  1  0
  6 17  1  0
  6 18  1  0
  6 19  1  0
  8 20  1  0
  9 21  1  0
M  END
