
     RDKit          3D

 19 20  0  0  0  0  0  0  0  0999 V2000
    2.0740   -0.1505    0.1227 C   0  0  0  0  0  0  0  0  0  0  0  0
    0.7803    0.4563   -0.2685 C   0  0  0  0  0  0  0  0  0  0  0  0
   -0.0695    0.8649    0.9525 C   0  0  0  0  0  0  0  0  0  0  0  0
   -1.3251    0.1137    0.6302 C   0  0  0  0  0  0  0  0  0  0  0  0
   -0.8200   -1.2481    0.2004 C   0  0  0  0  0  0  0  0  0  0  0  0
   -0.1842   -0.4728   -0.9312 C   0  0  0  0  0  0  0  0  0  0  0  0
   -1.4577    0.3875   -0.8753 C   0  0  0  0  0  0  0  0  0  0  0  0
    2.3460   -1.0644   -0.4671 H   0  0  0  0  0  0  0  0  0  0  0  0
    2.1718   -0.3208    1.2188 H   0  0  0  0  0  0  0  0  0  0  0  0
    2.8873    0.5897   -0.1338 H   0  0  0  0  0  0  0  0  0  0  0  0
    0.9074    1.3385   -0.9426 H   0  0  0  0  0  0  0  0  0  0  0  0
   -0.2678    1.9503    0.8982 H   0  0  0  0  0  0  0  0  0  0  0  0
    0.4100    0.5750    1.8915 H   0  0  0  0  0  0  0  0  0  0  0  0
   -2.1871    0.1924    1.2286 H   0  0  0  0  0  0  0  0  0  0  0  0
   -1.6074   -1.9286   -0.1928 H   0  0  0  0  0  0  0  0  0  0  0  0
   -0.1483   -1.7221    0.9118 H   0  0  0  0  0  0  0  0  0  0  0  0
    0.0439   -0.9559   -1.8417 H   0  0  0  0  0  0  0  0  0  0  0  0
   -2.3291   -0.0484   -1.3489 H   0  0  0  0  0  0  0  0  0  0  0  0
   -1.2246    1.4432   -1.0529 H   0  0  0  0  0  0  0  0  0  0  0  0
  1  2  1  0
  2  3  1  0
  3  4  1  0
  4  5  1  0
  5  6  1  0
  6  7  1  0
  6  2  1  0
  7  4  1  0
  1  8  1  0
  1  9  1  0
  1 10  1  0
  2 11  1  0
  3 12  1  0
  3 13  1  0
  4 14  1  0
  5 15  1  0
  5 16  1  0
  6 17  1  0
  7 18  1  0
  7 19  1  0
M  END
