
     RDKit          3D

 23 24  0  0  0  0  0  0  0  0999 V2000
   -2.4646    0.6220   -0.0332 C   0  0  0  0  0  0  0  0  0  0  0  0
   -1.5059   -0.5307   -0.1690 C   0  0  0  0  0  0  0  0  0  0  0  0
   -0.3966   -0.1064   -1.1576 C   0  0  0  0  0  0  0  0  0  0  0  0
    0.7610   -0.0673   -0.2296 C   0  0  0  0  0  0  0  0  0  0  0  0
    2.0789    0.3113   -0.6838 C   0  0  0  0  0  0  0  0  0  0  0  0
    3.0637    0.3089    0.2670 O   0  0  0  0  0  0  0  0  0  0  0  0
    0.1728    0.6226    0.9871 C   0  0  0  0  0  0  0  0  0  0  0  0
   -0.6754   -0.6553    1.0705 C   0  0  0  0  0  0  0  0  0  0  0  0
    0.5902   -1.3551    0.5546 C   0  0  0  0  0  0  0  0  0  0  0  0
   -2.1629    1.4906   -0.6876 H   0  0  0  0  0  0  0  0  0  0  0  0
   -2.4216    1.0253    1.0167 H   0  0  0  0  0  0  0  0  0  0  0  0
   -3.5097    0.3213   -0.2034 H   0  0  0  0  0  0  0  0  0  0  0  0
   -1.9583   -1.4563   -0.5184 H   0  0  0  0  0  0  0  0  0  0  0  0
   -0.2339   -0.9113   -1.9048 H   0  0  0  0  0  0  0  0  0  0  0  0
   -0.6489    0.8656   -1.6200 H   0  0  0  0  0  0  0  0  0  0  0  0
    2.4154   -0.3184   -1.5320 H   0  0  0  0  0  0  0  0  0  0  0  0
    2.0333    1.3551   -1.0999 H   0  0  0  0  0  0  0  0  0  0  0  0
    3.7710    0.9514    0.0044 H   0  0  0  0  0  0  0  0  0  0  0  0
    0.9053    0.6700    1.8351 H   0  0  0  0  0  0  0  0  0  0  0  0
   -0.3967    1.5321    0.7920 H   0  0  0  0  0  0  0  0  0  0  0  0
   -1.0745   -0.9414    1.9982 H   0  0  0  0  0  0  0  0  0  0  0  0
    1.2799   -1.5055    1.3880 H   0  0  0  0  0  0  0  0  0  0  0  0
    0.3776   -2.2284   -0.0740 H   0  0  0  0  0  0  0  0  0  0  0  0
  1  2  1  0
  2  3  1  0
  3  4  1  0
  4  5  1  0
  5  6  1  0
  4  7  1  0
  7  8  1  0
  8  9  1  0
  8  2  1  0
  9  4  1  0
  1 10  1  0
  1 11  1  0
  1 12  1  0
  2 13  1  0
  3 14  1  0
  3 15  1  0
  5 16  1  0
  5 17  1  0
  6 18  1  0
  7 19  1  0
  7 20  1  0
  8 21  1  0
  9 22  1  0
  9 23  1  0
M  END
