
     RDKit          3D

 23 25  0  0  0  0  0  0  0  0999 V2000
    2.3575   -0.9954   -0.0556 C   0  0  0  0  0  0  0  0  0  0  0  0
    1.0360   -0.3232   -0.4271 C   0  0  0  0  0  0  0  0  0  0  0  0
   -0.0330   -1.3527   -0.1106 C   0  0  0  0  0  0  0  0  0  0  0  0
   -1.3729   -0.8112   -0.4525 C   0  0  0  0  0  0  0  0  0  0  0  0
   -2.2626   -0.5178    0.7393 C   0  0  0  0  0  0  0  0  0  0  0  0
   -1.6502    0.5700   -0.1047 C   0  0  0  0  0  0  0  0  0  0  0  0
   -0.5719    1.3825    0.4780 C   0  0  0  0  0  0  0  0  0  0  0  0
    0.3457    2.1604   -0.4268 C   0  0  0  0  0  0  0  0  0  0  0  0
    0.8010    0.9407    0.3203 C   0  0  0  0  0  0  0  0  0  0  0  0
    2.3491   -1.9663   -0.6324 H   0  0  0  0  0  0  0  0  0  0  0  0
    3.2276   -0.4090   -0.3401 H   0  0  0  0  0  0  0  0  0  0  0  0
    2.3614   -1.3104    1.0174 H   0  0  0  0  0  0  0  0  0  0  0  0
    1.0593   -0.1941   -1.5241 H   0  0  0  0  0  0  0  0  0  0  0  0
    0.0778   -1.6493    0.9656 H   0  0  0  0  0  0  0  0  0  0  0  0
    0.1700   -2.2678   -0.6953 H   0  0  0  0  0  0  0  0  0  0  0  0
   -1.8525   -1.2145   -1.3671 H   0  0  0  0  0  0  0  0  0  0  0  0
   -1.8537   -0.6030    1.7611 H   0  0  0  0  0  0  0  0  0  0  0  0
   -3.3079   -0.8145    0.6093 H   0  0  0  0  0  0  0  0  0  0  0  0
   -2.4101    1.1268   -0.7077 H   0  0  0  0  0  0  0  0  0  0  0  0
   -0.8523    1.9518    1.4023 H   0  0  0  0  0  0  0  0  0  0  0  0
    0.2125    2.0675   -1.5325 H   0  0  0  0  0  0  0  0  0  0  0  0
    0.6993    3.1660   -0.1361 H   0  0  0  0  0  0  0  0  0  0  0  0
    1.4697    1.0635    1.2192 H   0  0  0  0  0  0  0  0  0  0  0  0
  1  2  1  0
  2  3  1  0
  3  4  1  0
  4  5  1  0
  5  6  1  0
  6  7  1  0
  7  8  1  0
  8  9  1  0
  9  2  1  0
  6  4  1  0
  9  7  1  0
  1 10  1  0
  1 11  1  0
  1 12  1  0
  2 13  1  0
  3 14  1  0
  3 15  1  0
  4 16  1  0
  5 17  1  0
  5 18  1  0
  6 19  1  0
  7 20  1  0
  8 21  1  0
  8 22  1  0
  9 23  1  0
M  END
