
     RDKit          3D

 25 26  0  0  0  0  0  0  0  0999 V2000
   -2.1006    0.2327    1.0661 C   0  0  0  0  0  0  0  0  0  0  0  0
   -1.3431    0.2237   -0.2089 C   0  0  0  0  0  0  0  0  0  0  0  0
   -1.1877   -1.1966   -0.7884 C   0  0  0  0  0  0  0  0  0  0  0  0
    0.3082   -1.2056   -0.9739 C   0  0  0  0  0  0  0  0  0  0  0  0
    0.5909    0.1776   -1.4808 C   0  0  0  0  0  0  0  0  0  0  0  0
    0.1013    0.5952   -0.0869 C   0  0  0  0  0  0  0  0  0  0  0  0
    0.5149    1.8637    0.4434 C   0  0  0  0  0  0  0  0  0  0  0  0
    0.7473   -0.6855    0.3923 C   0  0  0  0  0  0  0  0  0  0  0  0
    2.2163   -0.6588    0.5877 C   0  0  0  0  0  0  0  0  0  0  0  0
   -3.1078    0.6987    0.8505 H   0  0  0  0  0  0  0  0  0  0  0  0
   -1.6566    0.8901    1.8492 H   0  0  0  0  0  0  0  0  0  0  0  0
   -2.3443   -0.7807    1.4582 H   0  0  0  0  0  0  0  0  0  0  0  0
   -1.7896    0.8240   -1.0187 H   0  0  0  0  0  0  0  0  0  0  0  0
   -1.4520   -1.9516   -0.0214 H   0  0  0  0  0  0  0  0  0  0  0  0
   -1.7036   -1.3119   -1.7356 H   0  0  0  0  0  0  0  0  0  0  0  0
    0.7960   -2.0469   -1.3797 H   0  0  0  0  0  0  0  0  0  0  0  0
   -0.1389    0.4429   -2.2821 H   0  0  0  0  0  0  0  0  0  0  0  0
    1.6165    0.4385   -1.7105 H   0  0  0  0  0  0  0  0  0  0  0  0
    1.1375    1.8119    1.3858 H   0  0  0  0  0  0  0  0  0  0  0  0
   -0.3718    2.5198    0.6685 H   0  0  0  0  0  0  0  0  0  0  0  0
    1.1365    2.4377   -0.2757 H   0  0  0  0  0  0  0  0  0  0  0  0
    0.2311   -1.1834    1.2180 H   0  0  0  0  0  0  0  0  0  0  0  0
    2.5852   -1.7233    0.5299 H   0  0  0  0  0  0  0  0  0  0  0  0
    2.4250   -0.3453    1.6322 H   0  0  0  0  0  0  0  0  0  0  0  0
    2.7892   -0.0667   -0.1194 H   0  0  0  0  0  0  0  0  0  0  0  0
  1  2  1  0
  2  3  1  0
  3  4  1  0
  4  5  1  0
  5  6  1  0
  6  7  1  0
  6  8  1  0
  8  9  1  0
  6  2  1  0
  8  4  1  0
  1 10  1  0
  1 11  1  0
  1 12  1  0
  2 13  1  0
  3 14  1  0
  3 15  1  0
  4 16  1  0
  5 17  1  0
  5 18  1  0
  7 19  1  0
  7 20  1  0
  7 21  1  0
  8 22  1  0
  9 23  1  0
  9 24  1  0
  9 25  1  0
M  END
