
     RDKit          3D

 21 22  0  0  0  0  0  0  0  0999 V2000
   -2.6665    0.0903    0.4752 C   0  0  0  0  0  0  0  0  0  0  0  0
   -1.7706   -0.2187   -0.7031 C   0  0  0  0  0  0  0  0  0  0  0  0
   -0.8528   -1.3187   -0.3369 C   0  0  0  0  0  0  0  0  0  0  0  0
    0.2564   -0.7406    0.1000 C   0  0  0  0  0  0  0  0  0  0  0  0
    1.6285   -0.9138    0.6438 C   0  0  0  0  0  0  0  0  0  0  0  0
    2.4024    0.1508   -0.1060 C   0  0  0  0  0  0  0  0  0  0  0  0
    1.4063    1.2410   -0.4418 C   0  0  0  0  0  0  0  0  0  0  0  0
    0.0716    0.7555    0.0056 C   0  0  0  0  0  0  0  0  0  0  0  0
   -0.9165    0.8405   -0.9783 O   0  0  0  0  0  0  0  0  0  0  0  0
   -3.2562    0.9986    0.2761 H   0  0  0  0  0  0  0  0  0  0  0  0
   -3.3430   -0.7852    0.5943 H   0  0  0  0  0  0  0  0  0  0  0  0
   -2.0668    0.2493    1.3729 H   0  0  0  0  0  0  0  0  0  0  0  0
   -2.3647   -0.4373   -1.6107 H   0  0  0  0  0  0  0  0  0  0  0  0
   -1.0533   -2.4049   -0.4130 H   0  0  0  0  0  0  0  0  0  0  0  0
    1.9890   -1.9285    0.4071 H   0  0  0  0  0  0  0  0  0  0  0  0
    1.6886   -0.6990    1.7343 H   0  0  0  0  0  0  0  0  0  0  0  0
    3.2012    0.5408    0.5567 H   0  0  0  0  0  0  0  0  0  0  0  0
    2.8481   -0.2625   -1.0461 H   0  0  0  0  0  0  0  0  0  0  0  0
    1.4589    1.4620   -1.5400 H   0  0  0  0  0  0  0  0  0  0  0  0
    1.6517    2.1911    0.0837 H   0  0  0  0  0  0  0  0  0  0  0  0
   -0.3123    1.1892    0.9263 H   0  0  0  0  0  0  0  0  0  0  0  0
  1  2  1  0
  2  3  1  0
  3  4  2  0
  4  5  1  0
  5  6  1  0
  6  7  1  0
  7  8  1  0
  8  9  1  0
  9  2  1  0
  8  4  1  0
  1 10  1  0
  1 11  1  0
  1 12  1  0
  2 13  1  0
  3 14  1  0
  5 15  1  0
  5 16  1  0
  6 17  1  0
  6 18  1  0
  7 19  1  0
  7 20  1  0
  8 21  1  0
M  END
