
     RDKit          3D

 25 26  0  0  0  0  0  0  0  0999 V2000
    2.3052   -1.3764    0.0097 C   0  0  0  0  0  0  0  0  0  0  0  0
    1.3042   -0.3489   -0.4337 C   0  0  0  0  0  0  0  0  0  0  0  0
    1.7625    1.0694   -0.0287 C   0  0  0  0  0  0  0  0  0  0  0  0
    0.4409    1.8260    0.2331 C   0  0  0  0  0  0  0  0  0  0  0  0
   -0.5139    0.9272   -0.4553 C   0  0  0  0  0  0  0  0  0  0  0  0
    0.0177   -0.3715    0.2816 C   0  0  0  0  0  0  0  0  0  0  0  0
   -1.3298   -0.1442   -0.0675 C   0  0  0  0  0  0  0  0  0  0  0  0
   -1.9107   -1.0817   -1.1385 C   0  0  0  0  0  0  0  0  0  0  0  0
   -2.3699    0.1331    1.0215 C   0  0  0  0  0  0  0  0  0  0  0  0
    1.8999   -2.3640   -0.2005 H   0  0  0  0  0  0  0  0  0  0  0  0
    2.6490   -1.2201    1.0302 H   0  0  0  0  0  0  0  0  0  0  0  0
    3.2102   -1.2431   -0.6512 H   0  0  0  0  0  0  0  0  0  0  0  0
    1.1648   -0.3600   -1.5136 H   0  0  0  0  0  0  0  0  0  0  0  0
    2.3110    1.5551   -0.8491 H   0  0  0  0  0  0  0  0  0  0  0  0
    2.3471    1.0156    0.9204 H   0  0  0  0  0  0  0  0  0  0  0  0
    0.2213    1.8159    1.3175 H   0  0  0  0  0  0  0  0  0  0  0  0
    0.4907    2.8445   -0.1868 H   0  0  0  0  0  0  0  0  0  0  0  0
   -0.2908    0.9726   -1.5680 H   0  0  0  0  0  0  0  0  0  0  0  0
    0.2319   -0.2317    1.3891 H   0  0  0  0  0  0  0  0  0  0  0  0
   -1.1161   -1.3960   -1.8439 H   0  0  0  0  0  0  0  0  0  0  0  0
   -2.7711   -0.6318   -1.6418 H   0  0  0  0  0  0  0  0  0  0  0  0
   -2.2567   -1.9847   -0.5559 H   0  0  0  0  0  0  0  0  0  0  0  0
   -2.5644    1.2253    1.0773 H   0  0  0  0  0  0  0  0  0  0  0  0
   -1.9162   -0.2533    1.9707 H   0  0  0  0  0  0  0  0  0  0  0  0
   -3.3169   -0.3773    0.8727 H   0  0  0  0  0  0  0  0  0  0  0  0
  1  2  1  0
  2  3  1  0
  3  4  1  0
  4  5  1  0
  5  6  1  0
  6  7  1  0
  7  8  1  0
  7  9  1  0
  6  2  1  0
  7  5  1  0
  1 10  1  0
  1 11  1  0
  1 12  1  0
  2 13  1  0
  3 14  1  0
  3 15  1  0
  4 16  1  0
  4 17  1  0
  5 18  1  0
  6 19  1  0
  8 20  1  0
  8 21  1  0
  8 22  1  0
  9 23  1  0
  9 24  1  0
  9 25  1  0
M  END
