
     RDKit          3D

 19 20  0  0  0  0  0  0  0  0999 V2000
    2.7895   -0.1748    0.1674 C   0  0  0  0  0  0  0  0  0  0  0  0
    1.3241    0.1482    0.2151 C   0  0  0  0  0  0  0  0  0  0  0  0
    0.6558   -0.3970   -1.0566 C   0  0  0  0  0  0  0  0  0  0  0  0
   -0.7492   -0.2664   -0.6140 C   0  0  0  0  0  0  0  0  0  0  0  0
   -2.0193   -0.0110   -0.7917 C   0  0  0  0  0  0  0  0  0  0  0  0
   -2.7350   -0.2034    0.5367 C   0  0  0  0  0  0  0  0  0  0  0  0
   -1.6333    0.1302    1.3803 O   0  0  0  0  0  0  0  0  0  0  0  0
   -0.6435   -0.6533    0.8512 C   0  0  0  0  0  0  0  0  0  0  0  0
    0.6360   -0.4226    1.2263 O   0  0  0  0  0  0  0  0  0  0  0  0
    2.9842   -0.9652    0.9083 H   0  0  0  0  0  0  0  0  0  0  0  0
    3.0977   -0.5234   -0.8587 H   0  0  0  0  0  0  0  0  0  0  0  0
    3.3621    0.7428    0.4460 H   0  0  0  0  0  0  0  0  0  0  0  0
    1.1421    1.2392    0.2136 H   0  0  0  0  0  0  0  0  0  0  0  0
    0.8727   -1.4523   -1.2181 H   0  0  0  0  0  0  0  0  0  0  0  0
    0.8942    0.2457   -1.9251 H   0  0  0  0  0  0  0  0  0  0  0  0
   -2.4467    0.2845   -1.7419 H   0  0  0  0  0  0  0  0  0  0  0  0
   -3.0602   -1.2316    0.6777 H   0  0  0  0  0  0  0  0  0  0  0  0
   -3.5067    0.5690    0.6151 H   0  0  0  0  0  0  0  0  0  0  0  0
   -0.9644   -1.7194    0.9683 H   0  0  0  0  0  0  0  0  0  0  0  0
  1  2  1  0
  2  3  1  0
  3  4  1  0
  4  5  2  0
  5  6  1  0
  6  7  1  0
  7  8  1  0
  8  9  1  0
  9  2  1  0
  8  4  1  0
  1 10  1  0
  1 11  1  0
  1 12  1  0
  2 13  1  0
  3 14  1  0
  3 15  1  0
  5 16  1  0
  6 17  1  0
  6 18  1  0
  8 19  1  0
M  END
