
     RDKit          3D

 21 21  0  0  0  0  0  0  0  0999 V2000
   -2.0816   -0.4876   -0.0262 C   0  0  0  0  0  0  0  0  0  0  0  0
   -0.6468   -0.0808    0.2141 C   0  0  0  0  0  0  0  0  0  0  0  0
   -0.3418    1.2953   -0.2830 C   0  0  0  0  0  0  0  0  0  0  0  0
   -0.8791    2.2815    0.5747 O   0  0  0  0  0  0  0  0  0  0  0  0
    1.1304    1.4811   -0.2957 C   0  0  0  0  0  0  0  0  0  0  0  0
    2.0178    0.4996   -0.1735 C   0  0  0  0  0  0  0  0  0  0  0  0
    1.6076   -0.9219   -0.0073 C   0  0  0  0  0  0  0  0  0  0  0  0
    0.2207   -1.0470   -0.6057 C   0  0  0  0  0  0  0  0  0  0  0  0
   -0.3140   -2.3100   -0.4191 O   0  0  0  0  0  0  0  0  0  0  0  0
   -2.8017    0.2304    0.3650 H   0  0  0  0  0  0  0  0  0  0  0  0
   -2.1832   -0.6424   -1.1345 H   0  0  0  0  0  0  0  0  0  0  0  0
   -2.2119   -1.4898    0.4491 H   0  0  0  0  0  0  0  0  0  0  0  0
   -0.3890   -0.1392    1.2717 H   0  0  0  0  0  0  0  0  0  0  0  0
   -0.7853    1.5130   -1.2881 H   0  0  0  0  0  0  0  0  0  0  0  0
   -1.2472    3.0430    0.0754 H   0  0  0  0  0  0  0  0  0  0  0  0
    1.5180    2.5033   -0.4147 H   0  0  0  0  0  0  0  0  0  0  0  0
    3.0834    0.7270   -0.1937 H   0  0  0  0  0  0  0  0  0  0  0  0
    1.4908   -1.1262    1.0836 H   0  0  0  0  0  0  0  0  0  0  0  0
    2.3018   -1.6251   -0.4899 H   0  0  0  0  0  0  0  0  0  0  0  0
    0.2282   -0.7322   -1.6739 H   0  0  0  0  0  0  0  0  0  0  0  0
    0.2828   -2.9722   -0.8416 H   0  0  0  0  0  0  0  0  0  0  0  0
  1  2  1  0
  2  3  1  0
  3  4  1  0
  3  5  1  0
  5  6  2  0
  6  7  1  0
  7  8  1  0
  8  9  1  0
  8  2  1  0
  1 10  1  0
  1 11  1  0
  1 12  1  0
  2 13  1  0
  3 14  1  0
  4 15  1  0
  5 16  1  0
  6 17  1  0
  7 18  1  0
  7 19  1  0
  8 20  1  0
  9 21  1  0
M  END
