
     RDKit          3D

 19 20  0  0  0  0  0  0  0  0999 V2000
   -0.0098    1.6112   -0.4874 C   0  0  0  0  0  0  0  0  0  0  0  0
   -0.4520    0.6293    0.5775 C   0  0  0  0  0  0  0  0  0  0  0  0
   -1.8731    0.3299    0.3332 C   0  0  0  0  0  0  0  0  0  0  0  0
   -1.9942   -0.8940   -0.1230 C   0  0  0  0  0  0  0  0  0  0  0  0
   -0.6601   -1.5250   -0.2236 C   0  0  0  0  0  0  0  0  0  0  0  0
   -0.1603   -1.7941    1.1008 O   0  0  0  0  0  0  0  0  0  0  0  0
    0.2576   -0.6640    0.3085 C   0  0  0  0  0  0  0  0  0  0  0  0
    1.7687   -0.6775    0.1894 C   0  0  0  0  0  0  0  0  0  0  0  0
    2.1443    0.4150   -0.5800 O   0  0  0  0  0  0  0  0  0  0  0  0
    0.1303    1.1281   -1.4725 H   0  0  0  0  0  0  0  0  0  0  0  0
   -0.9031    2.2891   -0.6515 H   0  0  0  0  0  0  0  0  0  0  0  0
    0.8026    2.2501   -0.1496 H   0  0  0  0  0  0  0  0  0  0  0  0
   -0.2600    1.0180    1.5989 H   0  0  0  0  0  0  0  0  0  0  0  0
   -2.7099    1.0503    0.5151 H   0  0  0  0  0  0  0  0  0  0  0  0
   -2.9762   -1.3367   -0.3785 H   0  0  0  0  0  0  0  0  0  0  0  0
   -0.5945   -2.3611   -0.9382 H   0  0  0  0  0  0  0  0  0  0  0  0
    2.1506   -1.5726   -0.2942 H   0  0  0  0  0  0  0  0  0  0  0  0
    2.2517   -0.5301    1.1941 H   0  0  0  0  0  0  0  0  0  0  0  0
    3.0873    0.6343   -0.5189 H   0  0  0  0  0  0  0  0  0  0  0  0
  1  2  1  0
  2  3  1  0
  3  4  2  0
  4  5  1  0
  5  6  1  0
  6  7  1  0
  7  8  1  0
  8  9  1  0
  7  2  1  0
  7  5  1  0
  1 10  1  0
  1 11  1  0
  1 12  1  0
  2 13  1  0
  3 14  1  0
  4 15  1  0
  5 16  1  0
  8 17  1  0
  8 18  1  0
  9 19  1  0
M  END
