
     RDKit          3D

 19 20  0  0  0  0  0  0  0  0999 V2000
    2.2037   -0.0616   -0.1001 C   0  0  0  0  0  0  0  0  0  0  0  0
    0.9506   -0.3232   -0.8167 C   0  0  0  0  0  0  0  0  0  0  0  0
    0.0297   -1.3358   -0.1198 C   0  0  0  0  0  0  0  0  0  0  0  0
   -1.1017   -0.4316   -0.4102 C   0  0  0  0  0  0  0  0  0  0  0  0
   -2.2783   -0.1950    0.2281 C   0  0  0  0  0  0  0  0  0  0  0  0
   -2.1777   -0.7629   -1.1613 O   0  0  0  0  0  0  0  0  0  0  0  0
   -0.1367    0.6601   -0.8543 C   0  0  0  0  0  0  0  0  0  0  0  0
   -0.1913    1.7578    0.1049 C   0  0  0  0  0  0  0  0  0  0  0  0
    0.6886    2.1743    0.8017 O   0  0  0  0  0  0  0  0  0  0  0  0
    3.0716   -0.6180   -0.5612 H   0  0  0  0  0  0  0  0  0  0  0  0
    2.1247   -0.5097    0.9328 H   0  0  0  0  0  0  0  0  0  0  0  0
    2.5247    0.9721   -0.0027 H   0  0  0  0  0  0  0  0  0  0  0  0
    1.1542   -0.7251   -1.8519 H   0  0  0  0  0  0  0  0  0  0  0  0
    0.3413   -1.4068    0.9572 H   0  0  0  0  0  0  0  0  0  0  0  0
   -0.0090   -2.3195   -0.5853 H   0  0  0  0  0  0  0  0  0  0  0  0
   -2.7811   -0.9384    0.9090 H   0  0  0  0  0  0  0  0  0  0  0  0
   -2.8068    0.7852    0.2205 H   0  0  0  0  0  0  0  0  0  0  0  0
   -0.4437    1.0074   -1.8693 H   0  0  0  0  0  0  0  0  0  0  0  0
   -1.1629    2.2709    0.2038 H   0  0  0  0  0  0  0  0  0  0  0  0
  1  2  1  0
  2  3  1  0
  3  4  1  0
  4  5  1  0
  5  6  1  0
  4  7  1  0
  7  8  1  0
  8  9  2  0
  7  2  1  0
  6  4  1  0
  1 10  1  0
  1 11  1  0
  1 12  1  0
  2 13  1  0
  3 14  1  0
  3 15  1  0
  5 16  1  0
  5 17  1  0
  7 18  1  0
  8 19  1  0
M  END
