
     RDKit          3D

 19 19  0  0  0  0  0  0  0  0999 V2000
    2.1518    0.3075    0.1911 C   0  0  0  0  0  0  0  0  0  0  0  0
    0.9952    0.0599   -0.7582 C   0  0  0  0  0  0  0  0  0  0  0  0
    0.3216   -1.2033   -0.3138 C   0  0  0  0  0  0  0  0  0  0  0  0
   -0.7489   -0.8209    0.6542 C   0  0  0  0  0  0  0  0  0  0  0  0
   -0.4641   -0.8564    1.8437 O   0  0  0  0  0  0  0  0  0  0  0  0
   -2.1278   -0.4029    0.2738 C   0  0  0  0  0  0  0  0  0  0  0  0
   -1.9927    0.6459   -0.6377 O   0  0  0  0  0  0  0  0  0  0  0  0
   -0.9017    1.3779   -0.2866 C   0  0  0  0  0  0  0  0  0  0  0  0
    0.2679    1.1595   -0.8809 O   0  0  0  0  0  0  0  0  0  0  0  0
    3.1259    0.3371   -0.3146 H   0  0  0  0  0  0  0  0  0  0  0  0
    2.2250   -0.4641    0.9839 H   0  0  0  0  0  0  0  0  0  0  0  0
    1.9943    1.2769    0.7490 H   0  0  0  0  0  0  0  0  0  0  0  0
    1.4709   -0.1803   -1.7564 H   0  0  0  0  0  0  0  0  0  0  0  0
    1.0680   -1.8974    0.1410 H   0  0  0  0  0  0  0  0  0  0  0  0
   -0.1265   -1.7160   -1.1871 H   0  0  0  0  0  0  0  0  0  0  0  0
   -2.5843   -1.2741   -0.2549 H   0  0  0  0  0  0  0  0  0  0  0  0
   -2.7252   -0.1060    1.1585 H   0  0  0  0  0  0  0  0  0  0  0  0
   -0.7730    1.2972    0.8337 H   0  0  0  0  0  0  0  0  0  0  0  0
   -1.1767    2.4595   -0.4387 H   0  0  0  0  0  0  0  0  0  0  0  0
  1  2  1  0
  2  3  1  0
  3  4  1  0
  4  5  2  0
  4  6  1  0
  6  7  1  0
  7  8  1  0
  8  9  1  0
  9  2  1  0
  1 10  1  0
  1 11  1  0
  1 12  1  0
  2 13  1  0
  3 14  1  0
  3 15  1  0
  6 16  1  0
  6 17  1  0
  8 18  1  0
  8 19  1  0
M  END
