
     RDKit          3D

 19 19  0  0  0  0  0  0  0  0999 V2000
   -1.8275   -1.1198    0.2818 C   0  0  0  0  0  0  0  0  0  0  0  0
   -0.6348   -0.5747   -0.5109 C   0  0  0  0  0  0  0  0  0  0  0  0
    0.5535   -1.3109   -0.0568 C   0  0  0  0  0  0  0  0  0  0  0  0
    1.7454   -0.8115    0.1515 C   0  0  0  0  0  0  0  0  0  0  0  0
    2.0313    0.6263   -0.0618 C   0  0  0  0  0  0  0  0  0  0  0  0
    0.7626    1.3643    0.1959 C   0  0  0  0  0  0  0  0  0  0  0  0
    0.8271    2.3685    0.8856 O   0  0  0  0  0  0  0  0  0  0  0  0
   -0.5182    0.9145   -0.3501 C   0  0  0  0  0  0  0  0  0  0  0  0
   -1.5840    1.3534    0.4341 O   0  0  0  0  0  0  0  0  0  0  0  0
   -1.7312   -2.1805    0.5054 H   0  0  0  0  0  0  0  0  0  0  0  0
   -2.7842   -0.8636   -0.2228 H   0  0  0  0  0  0  0  0  0  0  0  0
   -1.8325   -0.5629    1.2638 H   0  0  0  0  0  0  0  0  0  0  0  0
   -0.7858   -0.8332   -1.5900 H   0  0  0  0  0  0  0  0  0  0  0  0
    0.4179   -2.3917    0.1240 H   0  0  0  0  0  0  0  0  0  0  0  0
    2.5722   -1.4309    0.4889 H   0  0  0  0  0  0  0  0  0  0  0  0
    2.8418    0.9586    0.6238 H   0  0  0  0  0  0  0  0  0  0  0  0
    2.3745    0.7693   -1.0989 H   0  0  0  0  0  0  0  0  0  0  0  0
   -0.6547    1.4056   -1.3493 H   0  0  0  0  0  0  0  0  0  0  0  0
   -1.7733    2.3192    0.2856 H   0  0  0  0  0  0  0  0  0  0  0  0
  1  2  1  0
  2  3  1  0
  3  4  2  0
  4  5  1  0
  5  6  1  0
  6  7  2  0
  6  8  1  0
  8  9  1  0
  8  2  1  0
  1 10  1  0
  1 11  1  0
  1 12  1  0
  2 13  1  0
  3 14  1  0
  4 15  1  0
  5 16  1  0
  5 17  1  0
  8 18  1  0
  9 19  1  0
M  END
