
     RDKit          3D

 19 21  0  0  0  0  0  0  0  0999 V2000
    2.2400    0.7385    0.3641 C   0  0  0  0  0  0  0  0  0  0  0  0
    1.1780    0.5736   -0.7074 C   0  0  0  0  0  0  0  0  0  0  0  0
    0.7063   -0.8966   -0.9687 C   0  0  0  0  0  0  0  0  0  0  0  0
   -0.1021    0.0615   -0.3167 C   0  0  0  0  0  0  0  0  0  0  0  0
   -0.6828    0.0338    1.0429 C   0  0  0  0  0  0  0  0  0  0  0  0
   -1.8089   -0.9389    0.9364 C   0  0  0  0  0  0  0  0  0  0  0  0
   -2.3354   -0.5941   -0.2409 C   0  0  0  0  0  0  0  0  0  0  0  0
   -1.4339    0.5669   -0.6105 C   0  0  0  0  0  0  0  0  0  0  0  0
   -1.3784    1.2099    0.6542 O   0  0  0  0  0  0  0  0  0  0  0  0
    2.0607   -0.0377    1.1467 H   0  0  0  0  0  0  0  0  0  0  0  0
    2.0686    1.7141    0.8592 H   0  0  0  0  0  0  0  0  0  0  0  0
    3.2678    0.6372   -0.0392 H   0  0  0  0  0  0  0  0  0  0  0  0
    1.3147    1.2095   -1.5848 H   0  0  0  0  0  0  0  0  0  0  0  0
    0.6401   -1.1395   -2.0364 H   0  0  0  0  0  0  0  0  0  0  0  0
    1.2947   -1.6608   -0.3965 H   0  0  0  0  0  0  0  0  0  0  0  0
   -0.0994    0.0719    1.9209 H   0  0  0  0  0  0  0  0  0  0  0  0
   -2.0666   -1.6920    1.6598 H   0  0  0  0  0  0  0  0  0  0  0  0
   -3.1671   -1.0056   -0.7983 H   0  0  0  0  0  0  0  0  0  0  0  0
   -1.6962    1.1482   -1.4507 H   0  0  0  0  0  0  0  0  0  0  0  0
  1  2  1  0
  2  3  1  0
  3  4  1  0
  4  5  1  0
  5  6  1  0
  6  7  2  0
  7  8  1  0
  8  9  1  0
  4  2  1  0
  9  5  1  0
  8  4  1  0
  1 10  1  0
  1 11  1  0
  1 12  1  0
  2 13  1  0
  3 14  1  0
  3 15  1  0
  5 16  1  0
  6 17  1  0
  7 18  1  0
  8 19  1  0
M  END
