
     RDKit          3D

 19 20  0  0  0  0  0  0  0  0999 V2000
   -2.7410    0.0564    0.4114 C   0  0  0  0  0  0  0  0  0  0  0  0
   -1.3381   -0.2852    0.0330 C   0  0  0  0  0  0  0  0  0  0  0  0
   -0.5231    0.6400   -0.7740 C   0  0  0  0  0  0  0  0  0  0  0  0
    0.7696    0.1821   -1.3048 C   0  0  0  0  0  0  0  0  0  0  0  0
    1.6223   -0.2150   -0.4075 C   0  0  0  0  0  0  0  0  0  0  0  0
    2.9914   -0.7255   -0.6311 C   0  0  0  0  0  0  0  0  0  0  0  0
    3.6923   -1.0702    0.3469 O   0  0  0  0  0  0  0  0  0  0  0  0
    1.0058   -0.0828    0.9232 C   0  0  0  0  0  0  0  0  0  0  0  0
   -0.2875    0.5853    0.7026 C   0  0  0  0  0  0  0  0  0  0  0  0
   -2.7551    0.3318    1.5071 H   0  0  0  0  0  0  0  0  0  0  0  0
   -3.1589    0.9106   -0.1646 H   0  0  0  0  0  0  0  0  0  0  0  0
   -3.4545   -0.7895    0.3217 H   0  0  0  0  0  0  0  0  0  0  0  0
   -1.1390   -1.3625   -0.0768 H   0  0  0  0  0  0  0  0  0  0  0  0
   -0.9843    1.5537   -1.2149 H   0  0  0  0  0  0  0  0  0  0  0  0
    0.9978    0.1764   -2.3846 H   0  0  0  0  0  0  0  0  0  0  0  0
    3.4288   -0.8191   -1.6108 H   0  0  0  0  0  0  0  0  0  0  0  0
    0.8694   -1.0863    1.4171 H   0  0  0  0  0  0  0  0  0  0  0  0
    1.6149    0.5351    1.6189 H   0  0  0  0  0  0  0  0  0  0  0  0
   -0.6109    1.4651    1.2872 H   0  0  0  0  0  0  0  0  0  0  0  0
  1  2  1  0
  2  3  1  0
  3  4  1  0
  4  5  2  0
  5  6  1  0
  6  7  2  0
  5  8  1  0
  8  9  1  0
  9  2  1  0
  9  3  1  0
  1 10  1  0
  1 11  1  0
  1 12  1  0
  2 13  1  0
  3 14  1  0
  4 15  1  0
  6 16  1  0
  8 17  1  0
  8 18  1  0
  9 19  1  0
M  END
