
     RDKit          3D

 22 23  0  0  0  0  0  0  0  0999 V2000
    2.2678   -0.0395    0.4677 C   0  0  0  0  0  0  0  0  0  0  0  0
    1.1842   -0.3585   -0.4997 C   0  0  0  0  0  0  0  0  0  0  0  0
    0.2679   -1.4674   -0.0636 C   0  0  0  0  0  0  0  0  0  0  0  0
   -0.9271   -0.5830   -0.3097 C   0  0  0  0  0  0  0  0  0  0  0  0
   -1.9682   -0.5836    0.7483 C   0  0  0  0  0  0  0  0  0  0  0  0
   -1.0316    0.2167   -1.5431 C   0  0  0  0  0  0  0  0  0  0  0  0
   -0.0024    0.5611   -0.5272 C   0  0  0  0  0  0  0  0  0  0  0  0
   -0.0601    1.7910    0.2951 C   0  0  0  0  0  0  0  0  0  0  0  0
    2.9145   -0.9547    0.5683 H   0  0  0  0  0  0  0  0  0  0  0  0
    2.9182    0.7584    0.1142 H   0  0  0  0  0  0  0  0  0  0  0  0
    1.8276    0.2151    1.4535 H   0  0  0  0  0  0  0  0  0  0  0  0
    1.5901   -0.6104   -1.5209 H   0  0  0  0  0  0  0  0  0  0  0  0
    0.4106   -1.6595    1.0232 H   0  0  0  0  0  0  0  0  0  0  0  0
    0.2293   -2.3503   -0.7092 H   0  0  0  0  0  0  0  0  0  0  0  0
   -2.9846   -0.2878    0.3962 H   0  0  0  0  0  0  0  0  0  0  0  0
   -1.7274   -0.0105    1.6526 H   0  0  0  0  0  0  0  0  0  0  0  0
   -2.0937   -1.6519    1.0943 H   0  0  0  0  0  0  0  0  0  0  0  0
   -0.6983   -0.2845   -2.4910 H   0  0  0  0  0  0  0  0  0  0  0  0
   -1.8644    0.9055   -1.6377 H   0  0  0  0  0  0  0  0  0  0  0  0
   -1.1359    2.0897    0.4108 H   0  0  0  0  0  0  0  0  0  0  0  0
    0.4815    2.6220   -0.2197 H   0  0  0  0  0  0  0  0  0  0  0  0
    0.4019    1.6820    1.2977 H   0  0  0  0  0  0  0  0  0  0  0  0
  1  2  1  0
  2  3  1  0
  3  4  1  0
  4  5  1  0
  4  6  1  0
  6  7  1  0
  7  8  1  0
  7  2  1  0
  7  4  1  0
  1  9  1  0
  1 10  1  0
  1 11  1  0
  2 12  1  0
  3 13  1  0
  3 14  1  0
  5 15  1  0
  5 16  1  0
  5 17  1  0
  6 18  1  0
  6 19  1  0
  8 20  1  0
  8 21  1  0
  8 22  1  0
M  END
