
     RDKit          3D

 16 16  0  0  0  0  0  0  0  0999 V2000
    2.2661    0.3239    0.3609 C   0  0  0  0  0  0  0  0  0  0  0  0
    0.9511    0.2134   -0.2981 C   0  0  0  0  0  0  0  0  0  0  0  0
    0.0316   -0.8978    0.2227 C   0  0  0  0  0  0  0  0  0  0  0  0
   -0.9442    0.1366   -0.3537 C   0  0  0  0  0  0  0  0  0  0  0  0
   -2.3090    0.1146    0.1834 C   0  0  0  0  0  0  0  0  0  0  0  0
   -0.0542    1.0950    0.1658 O   0  0  0  0  0  0  0  0  0  0  0  0
    2.4040    1.2684    0.9516 H   0  0  0  0  0  0  0  0  0  0  0  0
    2.5717   -0.5751    0.9553 H   0  0  0  0  0  0  0  0  0  0  0  0
    3.0531    0.3949   -0.4478 H   0  0  0  0  0  0  0  0  0  0  0  0
    0.9189    0.1996   -1.3897 H   0  0  0  0  0  0  0  0  0  0  0  0
    0.0442   -0.9632    1.3111 H   0  0  0  0  0  0  0  0  0  0  0  0
    0.0809   -1.8186   -0.3546 H   0  0  0  0  0  0  0  0  0  0  0  0
   -0.8447    0.1442   -1.4585 H   0  0  0  0  0  0  0  0  0  0  0  0
   -2.6510    1.1550    0.4534 H   0  0  0  0  0  0  0  0  0  0  0  0
   -3.0079   -0.1807   -0.6550 H   0  0  0  0  0  0  0  0  0  0  0  0
   -2.5105   -0.6102    0.9908 H   0  0  0  0  0  0  0  0  0  0  0  0
  1  2  1  0
  2  3  1  0
  3  4  1  0
  4  5  1  0
  4  6  1  0
  6  2  1  0
  1  7  1  0
  1  8  1  0
  1  9  1  0
  2 10  1  0
  3 11  1  0
  3 12  1  0
  4 13  1  0
  5 14  1  0
  5 15  1  0
  5 16  1  0
M  END
