
     RDKit          3D

 23 24  0  0  0  0  0  0  0  0999 V2000
    1.9185   -0.8926   -0.5409 C   0  0  0  0  0  0  0  0  0  0  0  0
    0.6612   -0.0954   -0.7281 C   0  0  0  0  0  0  0  0  0  0  0  0
    0.7573    1.2766   -0.0491 C   0  0  0  0  0  0  0  0  0  0  0  0
   -0.5599    1.8620   -0.3953 C   0  0  0  0  0  0  0  0  0  0  0  0
   -1.4734    0.6688   -0.0458 C   0  0  0  0  0  0  0  0  0  0  0  0
   -2.2165    0.2685   -1.1300 O   0  0  0  0  0  0  0  0  0  0  0  0
   -0.4085   -0.3280    0.3360 C   0  0  0  0  0  0  0  0  0  0  0  0
   -0.7675   -1.6832    0.6821 C   0  0  0  0  0  0  0  0  0  0  0  0
    0.4769    0.4848    1.2379 C   0  0  0  0  0  0  0  0  0  0  0  0
    1.8959   -1.5233    0.3875 H   0  0  0  0  0  0  0  0  0  0  0  0
    2.7688   -0.1756   -0.5230 H   0  0  0  0  0  0  0  0  0  0  0  0
    2.0173   -1.6073   -1.3865 H   0  0  0  0  0  0  0  0  0  0  0  0
    0.2828   -0.0220   -1.7583 H   0  0  0  0  0  0  0  0  0  0  0  0
    1.6621    1.8088   -0.1195 H   0  0  0  0  0  0  0  0  0  0  0  0
   -0.6825    2.0319   -1.4926 H   0  0  0  0  0  0  0  0  0  0  0  0
   -0.8585    2.7405    0.1822 H   0  0  0  0  0  0  0  0  0  0  0  0
   -2.0419    0.9381    0.8432 H   0  0  0  0  0  0  0  0  0  0  0  0
   -2.1273   -0.6996   -1.3331 H   0  0  0  0  0  0  0  0  0  0  0  0
   -1.7932   -1.7225    1.0989 H   0  0  0  0  0  0  0  0  0  0  0  0
   -0.7229   -2.3340   -0.2405 H   0  0  0  0  0  0  0  0  0  0  0  0
   -0.0359   -2.1272    1.3846 H   0  0  0  0  0  0  0  0  0  0  0  0
   -0.0992    1.1463    1.9253 H   0  0  0  0  0  0  0  0  0  0  0  0
    1.3463   -0.0154    1.6649 H   0  0  0  0  0  0  0  0  0  0  0  0
  1  2  1  0
  2  3  1  0
  3  4  1  0
  4  5  1  0
  5  6  1  0
  5  7  1  0
  7  8  1  0
  7  9  1  0
  7  2  1  0
  9  3  1  0
  1 10  1  0
  1 11  1  0
  1 12  1  0
  2 13  1  0
  3 14  1  0
  4 15  1  0
  4 16  1  0
  5 17  1  0
  6 18  1  0
  8 19  1  0
  8 20  1  0
  8 21  1  0
  9 22  1  0
  9 23  1  0
M  END
