
     RDKit          3D

 15 15  0  0  0  0  0  0  0  0999 V2000
   -1.7436    0.8695    0.1537 C   0  0  0  0  0  0  0  0  0  0  0  0
   -0.8494   -0.1970    0.7027 C   0  0  0  0  0  0  0  0  0  0  0  0
   -0.5146   -1.3072   -0.2629 C   0  0  0  0  0  0  0  0  0  0  0  0
    0.5375   -0.3852    0.2670 C   0  0  0  0  0  0  0  0  0  0  0  0
    1.1711    0.4596   -0.6553 O   0  0  0  0  0  0  0  0  0  0  0  0
    2.5199    0.7032   -0.6272 C   0  0  0  0  0  0  0  0  0  0  0  0
    3.2136    0.1399    0.2690 O   0  0  0  0  0  0  0  0  0  0  0  0
   -2.6468    0.3534   -0.2785 H   0  0  0  0  0  0  0  0  0  0  0  0
   -2.1501    1.5373    0.9526 H   0  0  0  0  0  0  0  0  0  0  0  0
   -1.2949    1.4452   -0.6821 H   0  0  0  0  0  0  0  0  0  0  0  0
   -1.1504   -0.5645    1.7059 H   0  0  0  0  0  0  0  0  0  0  0  0
   -0.8098   -1.1930   -1.3422 H   0  0  0  0  0  0  0  0  0  0  0  0
   -0.5660   -2.3626    0.0837 H   0  0  0  0  0  0  0  0  0  0  0  0
    1.2254   -0.8416    1.0248 H   0  0  0  0  0  0  0  0  0  0  0  0
    3.0581    1.3430   -1.3111 H   0  0  0  0  0  0  0  0  0  0  0  0
  1  2  1  0
  2  3  1  0
  3  4  1  0
  4  5  1  0
  5  6  1  0
  6  7  2  0
  4  2  1  0
  1  8  1  0
  1  9  1  0
  1 10  1  0
  2 11  1  0
  3 12  1  0
  3 13  1  0
  4 14  1  0
  6 15  1  0
M  END
