
     RDKit          3D

 21 23  0  0  0  0  0  0  0  0999 V2000
   -2.6938    0.5928    0.2682 C   0  0  0  0  0  0  0  0  0  0  0  0
   -1.3233    0.6937   -0.4205 C   0  0  0  0  0  0  0  0  0  0  0  0
   -0.8221   -0.2915   -1.2977 C   0  0  0  0  0  0  0  0  0  0  0  0
    0.4115   -0.8832   -1.4534 O   0  0  0  0  0  0  0  0  0  0  0  0
   -0.0095   -1.5940   -0.2948 C   0  0  0  0  0  0  0  0  0  0  0  0
   -0.2961   -0.1662    0.1850 C   0  0  0  0  0  0  0  0  0  0  0  0
    0.9608    0.5775    0.4716 C   0  0  0  0  0  0  0  0  0  0  0  0
    2.1661   -0.0643    1.0942 C   0  0  0  0  0  0  0  0  0  0  0  0
    2.1773    0.6116   -0.2980 C   0  0  0  0  0  0  0  0  0  0  0  0
   -3.4410    1.1966   -0.2548 H   0  0  0  0  0  0  0  0  0  0  0  0
   -2.5187    1.0227    1.2938 H   0  0  0  0  0  0  0  0  0  0  0  0
   -2.9580   -0.4572    0.4240 H   0  0  0  0  0  0  0  0  0  0  0  0
   -1.1293    1.7717   -0.6954 H   0  0  0  0  0  0  0  0  0  0  0  0
   -1.5802   -1.1283   -1.4511 H   0  0  0  0  0  0  0  0  0  0  0  0
    0.8079   -2.0669    0.2238 H   0  0  0  0  0  0  0  0  0  0  0  0
   -0.8845   -2.2324   -0.4254 H   0  0  0  0  0  0  0  0  0  0  0  0
    0.7271    1.5489    1.0259 H   0  0  0  0  0  0  0  0  0  0  0  0
    2.3210   -1.1301    1.1716 H   0  0  0  0  0  0  0  0  0  0  0  0
    2.7846    0.4926    1.8596 H   0  0  0  0  0  0  0  0  0  0  0  0
    2.7601    1.5827   -0.3672 H   0  0  0  0  0  0  0  0  0  0  0  0
    2.5401   -0.0765   -1.0593 H   0  0  0  0  0  0  0  0  0  0  0  0
  1  2  1  0
  2  3  1  0
  3  4  1  0
  4  5  1  0
  5  6  1  0
  6  7  1  0
  7  8  1  0
  8  9  1  0
  6  2  1  0
  9  7  1  0
  6  3  1  0
  1 10  1  0
  1 11  1  0
  1 12  1  0
  2 13  1  0
  3 14  1  0
  5 15  1  0
  5 16  1  0
  7 17  1  0
  8 18  1  0
  8 19  1  0
  9 20  1  0
  9 21  1  0
M  END
