
     RDKit          3D

 23 24  0  0  0  0  0  0  0  0999 V2000
   -1.7231    0.9019   -0.6353 C   0  0  0  0  0  0  0  0  0  0  0  0
   -1.3007    0.3171    0.6878 C   0  0  0  0  0  0  0  0  0  0  0  0
   -2.0626   -0.9480    0.8773 C   0  0  0  0  0  0  0  0  0  0  0  0
   -1.3378   -1.9824    0.4704 C   0  0  0  0  0  0  0  0  0  0  0  0
   -0.0065   -1.4947   -0.0349 C   0  0  0  0  0  0  0  0  0  0  0  0
    0.1067   -0.1593    0.7135 C   0  0  0  0  0  0  0  0  0  0  0  0
    1.0748    0.7253   -0.0192 C   0  0  0  0  0  0  0  0  0  0  0  0
    2.5230    0.1970    0.0307 C   0  0  0  0  0  0  0  0  0  0  0  0
    2.1151    1.5020    0.6424 C   0  0  0  0  0  0  0  0  0  0  0  0
   -2.8220    0.7780   -0.7432 H   0  0  0  0  0  0  0  0  0  0  0  0
   -1.4511    1.9811   -0.6388 H   0  0  0  0  0  0  0  0  0  0  0  0
   -1.2096    0.4424   -1.4923 H   0  0  0  0  0  0  0  0  0  0  0  0
   -1.5575    1.0260    1.4968 H   0  0  0  0  0  0  0  0  0  0  0  0
   -3.0549   -1.0451    1.2810 H   0  0  0  0  0  0  0  0  0  0  0  0
   -1.6483   -3.0208    0.4946 H   0  0  0  0  0  0  0  0  0  0  0  0
    0.7991   -2.1411    0.3267 H   0  0  0  0  0  0  0  0  0  0  0  0
   -0.0392   -1.3601   -1.1143 H   0  0  0  0  0  0  0  0  0  0  0  0
    0.4000   -0.3885    1.7422 H   0  0  0  0  0  0  0  0  0  0  0  0
    0.7097    1.0655   -1.0119 H   0  0  0  0  0  0  0  0  0  0  0  0
    3.0374    0.1819   -0.9617 H   0  0  0  0  0  0  0  0  0  0  0  0
    2.7553   -0.6033    0.7596 H   0  0  0  0  0  0  0  0  0  0  0  0
    2.4998    2.3983    0.0870 H   0  0  0  0  0  0  0  0  0  0  0  0
    2.1926    1.6267    1.7315 H   0  0  0  0  0  0  0  0  0  0  0  0
  1  2  1  0
  2  3  1  0
  3  4  2  0
  4  5  1  0
  5  6  1  0
  6  7  1  0
  7  8  1  0
  8  9  1  0
  6  2  1  0
  9  7  1  0
  1 10  1  0
  1 11  1  0
  1 12  1  0
  2 13  1  0
  3 14  1  0
  4 15  1  0
  5 16  1  0
  5 17  1  0
  6 18  1  0
  7 19  1  0
  8 20  1  0
  8 21  1  0
  9 22  1  0
  9 23  1  0
M  END
