
     RDKit          3D

 17 18  0  0  0  0  0  0  0  0999 V2000
    2.0879   -0.2588   -0.0888 C   0  0  0  0  0  0  0  0  0  0  0  0
    0.6768   -0.5667   -0.4595 C   0  0  0  0  0  0  0  0  0  0  0  0
   -0.2231   -0.8091    0.6924 C   0  0  0  0  0  0  0  0  0  0  0  0
   -1.5880   -1.2622    0.3511 C   0  0  0  0  0  0  0  0  0  0  0  0
   -2.2501   -2.2734    0.4526 O   0  0  0  0  0  0  0  0  0  0  0  0
   -1.8341    0.0949   -0.1958 C   0  0  0  0  0  0  0  0  0  0  0  0
   -0.3839    0.4160   -0.1960 C   0  0  0  0  0  0  0  0  0  0  0  0
    0.0109    1.7359    0.3015 C   0  0  0  0  0  0  0  0  0  0  0  0
   -0.5540    2.7187   -0.2019 O   0  0  0  0  0  0  0  0  0  0  0  0
    2.6491    0.0528   -0.9679 H   0  0  0  0  0  0  0  0  0  0  0  0
    2.5743   -1.2041    0.2917 H   0  0  0  0  0  0  0  0  0  0  0  0
    2.1742    0.4821    0.7324 H   0  0  0  0  0  0  0  0  0  0  0  0
    0.5565   -1.2170   -1.3357 H   0  0  0  0  0  0  0  0  0  0  0  0
    0.0813   -0.6470    1.7277 H   0  0  0  0  0  0  0  0  0  0  0  0
   -2.3665    0.7006    0.5955 H   0  0  0  0  0  0  0  0  0  0  0  0
   -2.3690    0.1270   -1.1612 H   0  0  0  0  0  0  0  0  0  0  0  0
    0.7577    1.9103    1.0740 H   0  0  0  0  0  0  0  0  0  0  0  0
  1  2  1  0
  2  3  1  0
  3  4  1  0
  4  5  2  0
  4  6  1  0
  6  7  1  0
  7  8  1  0
  8  9  2  0
  7  2  1  0
  7  3  1  0
  1 10  1  0
  1 11  1  0
  1 12  1  0
  2 13  1  0
  3 14  1  0
  6 15  1  0
  6 16  1  0
  8 17  1  0
M  END
