
     RDKit          3D

 21 23  0  0  0  0  0  0  0  0999 V2000
   -0.3019    1.7250   -0.7828 C   0  0  0  0  0  0  0  0  0  0  0  0
   -0.0638    0.2450   -0.7303 C   0  0  0  0  0  0  0  0  0  0  0  0
    1.3608   -0.1570   -0.7640 C   0  0  0  0  0  0  0  0  0  0  0  0
    2.3689    0.2987    0.2019 C   0  0  0  0  0  0  0  0  0  0  0  0
    1.5410   -0.9393    0.5045 C   0  0  0  0  0  0  0  0  0  0  0  0
    0.4270   -0.7736    1.2827 O   0  0  0  0  0  0  0  0  0  0  0  0
   -0.6287   -0.4238    0.4779 C   0  0  0  0  0  0  0  0  0  0  0  0
   -1.7838   -1.3765    0.2914 C   0  0  0  0  0  0  0  0  0  0  0  0
   -1.9177   -0.1034    1.0719 C   0  0  0  0  0  0  0  0  0  0  0  0
    0.6333    2.3157   -0.8378 H   0  0  0  0  0  0  0  0  0  0  0  0
   -0.9320    1.9964    0.0984 H   0  0  0  0  0  0  0  0  0  0  0  0
   -0.9059    2.0375   -1.6732 H   0  0  0  0  0  0  0  0  0  0  0  0
   -0.5730   -0.1934   -1.6386 H   0  0  0  0  0  0  0  0  0  0  0  0
    1.7537   -0.6474   -1.6996 H   0  0  0  0  0  0  0  0  0  0  0  0
    2.1929    1.1306    0.9092 H   0  0  0  0  0  0  0  0  0  0  0  0
    3.4212    0.1248   -0.0241 H   0  0  0  0  0  0  0  0  0  0  0  0
    1.9983   -1.9359    0.4130 H   0  0  0  0  0  0  0  0  0  0  0  0
   -1.7724   -2.3536    0.7804 H   0  0  0  0  0  0  0  0  0  0  0  0
   -2.2168   -1.3874   -0.7371 H   0  0  0  0  0  0  0  0  0  0  0  0
   -2.5944    0.7024    0.6757 H   0  0  0  0  0  0  0  0  0  0  0  0
   -2.0068   -0.2848    2.1806 H   0  0  0  0  0  0  0  0  0  0  0  0
  1  2  1  0
  2  3  1  0
  3  4  1  0
  4  5  1  0
  5  6  1  0
  6  7  1  0
  7  8  1  0
  8  9  1  0
  7  2  1  0
  5  3  1  0
  9  7  1  0
  1 10  1  0
  1 11  1  0
  1 12  1  0
  2 13  1  0
  3 14  1  0
  4 15  1  0
  4 16  1  0
  5 17  1  0
  8 18  1  0
  8 19  1  0
  9 20  1  0
  9 21  1  0
M  END
