
     RDKit          3D

 21 22  0  0  0  0  0  0  0  0999 V2000
    2.3549   -0.1854    0.6649 C   0  0  0  0  0  0  0  0  0  0  0  0
    1.4505    0.4225   -0.3470 C   0  0  0  0  0  0  0  0  0  0  0  0
    0.7619   -0.5959   -1.2859 C   0  0  0  0  0  0  0  0  0  0  0  0
   -0.3701   -0.5537   -0.3206 C   0  0  0  0  0  0  0  0  0  0  0  0
   -0.3943   -1.5129    0.6663 O   0  0  0  0  0  0  0  0  0  0  0  0
   -1.7459   -0.2104   -0.7820 C   0  0  0  0  0  0  0  0  0  0  0  0
   -2.1829    0.5126    0.5225 C   0  0  0  0  0  0  0  0  0  0  0  0
   -0.9644    1.3998    0.6750 C   0  0  0  0  0  0  0  0  0  0  0  0
    0.0882    0.8149    0.1532 C   0  0  0  0  0  0  0  0  0  0  0  0
    3.1003    0.5784    0.9872 H   0  0  0  0  0  0  0  0  0  0  0  0
    2.9707   -0.9950    0.1832 H   0  0  0  0  0  0  0  0  0  0  0  0
    1.8769   -0.5901    1.5542 H   0  0  0  0  0  0  0  0  0  0  0  0
    1.9764    1.2190   -0.9124 H   0  0  0  0  0  0  0  0  0  0  0  0
    0.6046   -0.2416   -2.2997 H   0  0  0  0  0  0  0  0  0  0  0  0
    1.3135   -1.5541   -1.2468 H   0  0  0  0  0  0  0  0  0  0  0  0
   -0.4482   -1.1800    1.5761 H   0  0  0  0  0  0  0  0  0  0  0  0
   -1.7311    0.5246   -1.6068 H   0  0  0  0  0  0  0  0  0  0  0  0
   -2.3946   -1.0726   -0.9661 H   0  0  0  0  0  0  0  0  0  0  0  0
   -2.2403   -0.2412    1.3232 H   0  0  0  0  0  0  0  0  0  0  0  0
   -3.0877    1.0704    0.3131 H   0  0  0  0  0  0  0  0  0  0  0  0
   -0.9383    2.3907    1.1484 H   0  0  0  0  0  0  0  0  0  0  0  0
  1  2  1  0
  2  3  1  0
  3  4  1  0
  4  5  1  0
  4  6  1  0
  6  7  1  0
  7  8  1  0
  8  9  2  0
  9  2  1  0
  9  4  1  0
  1 10  1  0
  1 11  1  0
  1 12  1  0
  2 13  1  0
  3 14  1  0
  3 15  1  0
  5 16  1  0
  6 17  1  0
  6 18  1  0
  7 19  1  0
  7 20  1  0
  8 21  1  0
M  END
