
     RDKit          3D

 19 20  0  0  0  0  0  0  0  0999 V2000
    2.1064   -0.6453    0.0845 C   0  0  0  0  0  0  0  0  0  0  0  0
    0.6701   -0.8893   -0.2447 C   0  0  0  0  0  0  0  0  0  0  0  0
    0.0522    0.2834   -1.0439 C   0  0  0  0  0  0  0  0  0  0  0  0
    0.6367    1.5150   -0.8969 O   0  0  0  0  0  0  0  0  0  0  0  0
    0.1773    2.0571    0.3097 C   0  0  0  0  0  0  0  0  0  0  0  0
   -0.0722    0.9971    1.1583 O   0  0  0  0  0  0  0  0  0  0  0  0
   -0.4081   -0.0659    0.3223 C   0  0  0  0  0  0  0  0  0  0  0  0
   -1.8102   -0.5399    0.4430 C   0  0  0  0  0  0  0  0  0  0  0  0
   -1.9996   -1.6047   -0.4522 O   0  0  0  0  0  0  0  0  0  0  0  0
    2.2678    0.2379    0.7487 H   0  0  0  0  0  0  0  0  0  0  0  0
    2.6163   -0.3596   -0.8830 H   0  0  0  0  0  0  0  0  0  0  0  0
    2.6489   -1.5437    0.4350 H   0  0  0  0  0  0  0  0  0  0  0  0
    0.4085   -1.9077   -0.5669 H   0  0  0  0  0  0  0  0  0  0  0  0
   -0.4524   -0.0297   -1.9509 H   0  0  0  0  0  0  0  0  0  0  0  0
   -0.7525    2.6210    0.1438 H   0  0  0  0  0  0  0  0  0  0  0  0
    0.9546    2.6892    0.8004 H   0  0  0  0  0  0  0  0  0  0  0  0
   -2.4763    0.2831    0.0501 H   0  0  0  0  0  0  0  0  0  0  0  0
   -2.1584   -0.7578    1.4487 H   0  0  0  0  0  0  0  0  0  0  0  0
   -2.4090   -2.3404    0.0939 H   0  0  0  0  0  0  0  0  0  0  0  0
  1  2  1  0
  2  3  1  0
  3  4  1  0
  4  5  1  0
  5  6  1  0
  6  7  1  0
  7  8  1  0
  8  9  1  0
  7  2  1  0
  7  3  1  0
  1 10  1  0
  1 11  1  0
  1 12  1  0
  2 13  1  0
  3 14  1  0
  5 15  1  0
  5 16  1  0
  8 17  1  0
  8 18  1  0
  9 19  1  0
M  END
