
     RDKit          3D

 23 25  0  0  0  0  0  0  0  0999 V2000
   -0.3905    1.3449   -1.4434 C   0  0  0  0  0  0  0  0  0  0  0  0
   -0.0183   -0.0147   -0.8913 C   0  0  0  0  0  0  0  0  0  0  0  0
    1.1789   -0.0483   -0.0071 C   0  0  0  0  0  0  0  0  0  0  0  0
    2.1743    1.0737   -0.0117 C   0  0  0  0  0  0  0  0  0  0  0  0
    1.3810   -1.0969    1.0166 C   0  0  0  0  0  0  0  0  0  0  0  0
    0.2107   -0.1499    1.1924 C   0  0  0  0  0  0  0  0  0  0  0  0
   -0.8780   -0.4011    0.2350 C   0  0  0  0  0  0  0  0  0  0  0  0
   -2.2815   -0.2511    0.3947 C   0  0  0  0  0  0  0  0  0  0  0  0
   -1.6450   -1.6618    0.2571 C   0  0  0  0  0  0  0  0  0  0  0  0
    0.4491    1.8251   -1.9567 H   0  0  0  0  0  0  0  0  0  0  0  0
   -0.8763    1.9834   -0.6750 H   0  0  0  0  0  0  0  0  0  0  0  0
   -1.1796    1.1637   -2.2168 H   0  0  0  0  0  0  0  0  0  0  0  0
   -0.0544   -0.7852   -1.7070 H   0  0  0  0  0  0  0  0  0  0  0  0
    1.8224    2.0006   -0.4575 H   0  0  0  0  0  0  0  0  0  0  0  0
    2.4553    1.2719    1.0488 H   0  0  0  0  0  0  0  0  0  0  0  0
    3.1027    0.6812   -0.4960 H   0  0  0  0  0  0  0  0  0  0  0  0
    2.1918   -0.9769    1.7266 H   0  0  0  0  0  0  0  0  0  0  0  0
    1.1105   -2.1436    0.7714 H   0  0  0  0  0  0  0  0  0  0  0  0
    0.2737    0.7050    1.8556 H   0  0  0  0  0  0  0  0  0  0  0  0
   -2.7640   -0.0999    1.3649 H   0  0  0  0  0  0  0  0  0  0  0  0
   -2.9317    0.0263   -0.4648 H   0  0  0  0  0  0  0  0  0  0  0  0
   -1.7674   -2.1781   -0.6991 H   0  0  0  0  0  0  0  0  0  0  0  0
   -1.5637   -2.2684    1.1634 H   0  0  0  0  0  0  0  0  0  0  0  0
  1  2  1  0
  2  3  1  0
  3  4  1  0
  3  5  1  0
  5  6  1  0
  6  7  1  0
  7  8  1  0
  8  9  1  0
  7  2  1  0
  6  3  1  0
  9  7  1  0
  1 10  1  0
  1 11  1  0
  1 12  1  0
  2 13  1  0
  4 14  1  0
  4 15  1  0
  4 16  1  0
  5 17  1  0
  5 18  1  0
  6 19  1  0
  8 20  1  0
  8 21  1  0
  9 22  1  0
  9 23  1  0
M  END
