
     RDKit          3D

 21 22  0  0  0  0  0  0  0  0999 V2000
   -2.6018    1.1814    0.0516 C   0  0  0  0  0  0  0  0  0  0  0  0
   -1.3359    0.5159   -0.4544 C   0  0  0  0  0  0  0  0  0  0  0  0
   -1.5055   -0.9833   -0.7373 C   0  0  0  0  0  0  0  0  0  0  0  0
   -0.6438   -0.5005    0.4009 C   0  0  0  0  0  0  0  0  0  0  0  0
    0.8384   -0.6531    0.3430 C   0  0  0  0  0  0  0  0  0  0  0  0
    1.4928   -1.0147   -0.9268 C   0  0  0  0  0  0  0  0  0  0  0  0
    1.7081    0.3712   -0.3169 C   0  0  0  0  0  0  0  0  0  0  0  0
    3.0502    0.6616    0.2448 C   0  0  0  0  0  0  0  0  0  0  0  0
    3.7090   -0.1757    0.8411 O   0  0  0  0  0  0  0  0  0  0  0  0
   -2.4359    2.2116    0.3643 H   0  0  0  0  0  0  0  0  0  0  0  0
   -2.9573    0.5817    0.9195 H   0  0  0  0  0  0  0  0  0  0  0  0
   -3.3638    1.0532   -0.7433 H   0  0  0  0  0  0  0  0  0  0  0  0
   -0.7686    1.0772   -1.2025 H   0  0  0  0  0  0  0  0  0  0  0  0
   -2.4835   -1.4421   -0.5248 H   0  0  0  0  0  0  0  0  0  0  0  0
   -0.9929   -1.3624   -1.6506 H   0  0  0  0  0  0  0  0  0  0  0  0
   -1.1259   -0.6301    1.4040 H   0  0  0  0  0  0  0  0  0  0  0  0
    1.3070   -1.1007    1.2570 H   0  0  0  0  0  0  0  0  0  0  0  0
    0.9999   -1.0034   -1.8990 H   0  0  0  0  0  0  0  0  0  0  0  0
    2.4007   -1.6646   -0.9036 H   0  0  0  0  0  0  0  0  0  0  0  0
    1.2311    1.2281   -0.8307 H   0  0  0  0  0  0  0  0  0  0  0  0
    3.4776    1.6484    0.1310 H   0  0  0  0  0  0  0  0  0  0  0  0
  1  2  1  0
  2  3  1  0
  3  4  1  0
  4  5  1  0
  5  6  1  0
  6  7  1  0
  7  8  1  0
  8  9  2  0
  4  2  1  0
  7  5  1  0
  1 10  1  0
  1 11  1  0
  1 12  1  0
  2 13  1  0
  3 14  1  0
  3 15  1  0
  4 16  1  0
  5 17  1  0
  6 18  1  0
  6 19  1  0
  7 20  1  0
  8 21  1  0
M  END
