
     RDKit          3D

 13 13  0  0  0  0  0  0  0  0999 V2000
   -1.5710    0.5534   -0.0141 C   0  0  0  0  0  0  0  0  0  0  0  0
   -0.1836    0.3141    0.5329 C   0  0  0  0  0  0  0  0  0  0  0  0
    0.2379   -1.0897    0.2165 C   0  0  0  0  0  0  0  0  0  0  0  0
    1.5457   -1.0038   -0.2660 O   0  0  0  0  0  0  0  0  0  0  0  0
    1.9524    0.3146   -0.1265 C   0  0  0  0  0  0  0  0  0  0  0  0
    3.1407    0.7713    0.0014 O   0  0  0  0  0  0  0  0  0  0  0  0
    0.7943    1.0748   -0.1521 O   0  0  0  0  0  0  0  0  0  0  0  0
   -1.9574    1.5315    0.3438 H   0  0  0  0  0  0  0  0  0  0  0  0
   -2.2130   -0.2916    0.2523 H   0  0  0  0  0  0  0  0  0  0  0  0
   -1.4574    0.5583   -1.1374 H   0  0  0  0  0  0  0  0  0  0  0  0
   -0.1094    0.5320    1.6092 H   0  0  0  0  0  0  0  0  0  0  0  0
    0.2430   -1.6916    1.1604 H   0  0  0  0  0  0  0  0  0  0  0  0
   -0.4222   -1.5734   -0.5548 H   0  0  0  0  0  0  0  0  0  0  0  0
  1  2  1  0
  2  3  1  0
  3  4  1  0
  4  5  1  0
  5  6  2  0
  5  7  1  0
  7  2  1  0
  1  8  1  0
  1  9  1  0
  1 10  1  0
  2 11  1  0
  3 12  1  0
  3 13  1  0
M  END
