
     RDKit          3D

 17 18  0  0  0  0  0  0  0  0999 V2000
   -2.0670   -0.6739    0.3853 C   0  0  0  0  0  0  0  0  0  0  0  0
   -0.9995    0.4076    0.3646 C   0  0  0  0  0  0  0  0  0  0  0  0
   -0.9208    1.0053   -0.9816 C   0  0  0  0  0  0  0  0  0  0  0  0
   -1.4442    1.9496   -1.5913 O   0  0  0  0  0  0  0  0  0  0  0  0
    0.0157    0.0529   -1.3232 O   0  0  0  0  0  0  0  0  0  0  0  0
    0.3659   -0.0109    0.0160 C   0  0  0  0  0  0  0  0  0  0  0  0
    1.2257   -0.9442    0.6570 C   0  0  0  0  0  0  0  0  0  0  0  0
    1.5954    0.5629    0.5747 C   0  0  0  0  0  0  0  0  0  0  0  0
    2.5807    0.9127   -0.3325 O   0  0  0  0  0  0  0  0  0  0  0  0
   -2.6551   -0.6938   -0.5653 H   0  0  0  0  0  0  0  0  0  0  0  0
   -1.6629   -1.6759    0.5574 H   0  0  0  0  0  0  0  0  0  0  0  0
   -2.8143   -0.4326    1.1973 H   0  0  0  0  0  0  0  0  0  0  0  0
   -1.1111    1.1158    1.2067 H   0  0  0  0  0  0  0  0  0  0  0  0
    1.0618   -1.3540    1.6651 H   0  0  0  0  0  0  0  0  0  0  0  0
    1.8897   -1.5932    0.0276 H   0  0  0  0  0  0  0  0  0  0  0  0
    1.6436    1.1139    1.5229 H   0  0  0  0  0  0  0  0  0  0  0  0
    3.2961    0.2578   -0.4343 H   0  0  0  0  0  0  0  0  0  0  0  0
  1  2  1  0
  2  3  1  0
  3  4  2  0
  3  5  1  0
  5  6  1  0
  6  7  1  0
  7  8  1  0
  8  9  1  0
  6  2  1  0
  8  6  1  0
  1 10  1  0
  1 11  1  0
  1 12  1  0
  2 13  1  0
  7 14  1  0
  7 15  1  0
  8 16  1  0
  9 17  1  0
M  END
