
     RDKit          3D

 21 22  0  0  0  0  0  0  0  0999 V2000
    2.2521   -0.8011   -0.3803 C   0  0  0  0  0  0  0  0  0  0  0  0
    0.9747   -0.4717    0.3310 C   0  0  0  0  0  0  0  0  0  0  0  0
   -0.2628   -0.5953   -0.5301 C   0  0  0  0  0  0  0  0  0  0  0  0
   -1.5245   -0.9438    0.2221 C   0  0  0  0  0  0  0  0  0  0  0  0
   -2.6169   -0.6632   -0.5959 O   0  0  0  0  0  0  0  0  0  0  0  0
   -1.4570   -0.0273    1.4073 C   0  0  0  0  0  0  0  0  0  0  0  0
   -0.7675    1.0888    1.0034 O   0  0  0  0  0  0  0  0  0  0  0  0
    0.1546    0.6924    0.0324 C   0  0  0  0  0  0  0  0  0  0  0  0
    0.6258    1.8385   -0.8274 C   0  0  0  0  0  0  0  0  0  0  0  0
    3.1086   -0.1906   -0.0092 H   0  0  0  0  0  0  0  0  0  0  0  0
    2.1480   -0.7592   -1.4870 H   0  0  0  0  0  0  0  0  0  0  0  0
    2.5215   -1.8628   -0.1346 H   0  0  0  0  0  0  0  0  0  0  0  0
    0.9134   -0.9191    1.3560 H   0  0  0  0  0  0  0  0  0  0  0  0
   -0.1495   -0.8589   -1.5885 H   0  0  0  0  0  0  0  0  0  0  0  0
   -1.4773   -2.0059    0.5278 H   0  0  0  0  0  0  0  0  0  0  0  0
   -2.9783    0.2138   -0.2899 H   0  0  0  0  0  0  0  0  0  0  0  0
   -2.5124    0.2553    1.6573 H   0  0  0  0  0  0  0  0  0  0  0  0
   -0.9991   -0.4735    2.3006 H   0  0  0  0  0  0  0  0  0  0  0  0
    1.1170    2.5744   -0.1396 H   0  0  0  0  0  0  0  0  0  0  0  0
   -0.3074    2.3624   -1.1800 H   0  0  0  0  0  0  0  0  0  0  0  0
    1.2371    1.5468   -1.6758 H   0  0  0  0  0  0  0  0  0  0  0  0
  1  2  1  0
  2  3  1  0
  3  4  1  0
  4  5  1  0
  4  6  1  0
  6  7  1  0
  7  8  1  0
  8  9  1  0
  8  2  1  0
  8  3  1  0
  1 10  1  0
  1 11  1  0
  1 12  1  0
  2 13  1  0
  3 14  1  0
  4 15  1  0
  5 16  1  0
  6 17  1  0
  6 18  1  0
  9 19  1  0
  9 20  1  0
  9 21  1  0
M  END
