
     RDKit          3D

 23 23  0  0  0  0  0  0  0  0999 V2000
    2.5834    0.2364   -0.9050 C   0  0  0  0  0  0  0  0  0  0  0  0
    1.1146    0.1252   -0.6653 C   0  0  0  0  0  0  0  0  0  0  0  0
    0.8449   -1.1888   -0.0076 C   0  0  0  0  0  0  0  0  0  0  0  0
   -0.3288   -1.7525    0.2083 C   0  0  0  0  0  0  0  0  0  0  0  0
   -1.6599   -1.2079   -0.1546 C   0  0  0  0  0  0  0  0  0  0  0  0
   -1.6451    0.3034   -0.2104 C   0  0  0  0  0  0  0  0  0  0  0  0
   -2.9623    0.7189    0.0615 O   0  0  0  0  0  0  0  0  0  0  0  0
   -0.7494    0.9375    0.8017 C   0  0  0  0  0  0  0  0  0  0  0  0
    0.6456    1.1889    0.3023 C   0  0  0  0  0  0  0  0  0  0  0  0
    3.0883    0.2861    0.0856 H   0  0  0  0  0  0  0  0  0  0  0  0
    2.9311   -0.7156   -1.3676 H   0  0  0  0  0  0  0  0  0  0  0  0
    2.8739    1.0567   -1.5747 H   0  0  0  0  0  0  0  0  0  0  0  0
    0.5374    0.1687   -1.6228 H   0  0  0  0  0  0  0  0  0  0  0  0
    1.7265   -1.7573    0.3395 H   0  0  0  0  0  0  0  0  0  0  0  0
   -0.3035   -2.7082    0.7006 H   0  0  0  0  0  0  0  0  0  0  0  0
   -1.9273   -1.5602   -1.1943 H   0  0  0  0  0  0  0  0  0  0  0  0
   -2.4614   -1.5902    0.5112 H   0  0  0  0  0  0  0  0  0  0  0  0
   -1.4295    0.6839   -1.2437 H   0  0  0  0  0  0  0  0  0  0  0  0
   -3.0255    1.1712    0.9325 H   0  0  0  0  0  0  0  0  0  0  0  0
   -0.7783    0.3384    1.7359 H   0  0  0  0  0  0  0  0  0  0  0  0
   -1.1758    1.9411    1.0758 H   0  0  0  0  0  0  0  0  0  0  0  0
    1.3293    1.1612    1.1660 H   0  0  0  0  0  0  0  0  0  0  0  0
    0.7718    2.1631   -0.1944 H   0  0  0  0  0  0  0  0  0  0  0  0
  1  2  1  0
  2  3  1  0
  3  4  2  0
  4  5  1  0
  5  6  1  0
  6  7  1  0
  6  8  1  0
  8  9  1  0
  9  2  1  0
  1 10  1  0
  1 11  1  0
  1 12  1  0
  2 13  1  0
  3 14  1  0
  4 15  1  0
  5 16  1  0
  5 17  1  0
  6 18  1  0
  7 19  1  0
  8 20  1  0
  8 21  1  0
  9 22  1  0
  9 23  1  0
M  END
