
     RDKit          3D

 23 25  0  0  0  0  0  0  0  0999 V2000
   -2.4362   -0.9220    0.3449 C   0  0  0  0  0  0  0  0  0  0  0  0
   -1.1902   -0.0902    0.5107 C   0  0  0  0  0  0  0  0  0  0  0  0
    0.0237   -0.9069    0.8483 C   0  0  0  0  0  0  0  0  0  0  0  0
    1.1349   -0.1986    0.1271 C   0  0  0  0  0  0  0  0  0  0  0  0
    2.4961   -0.7901    0.2781 C   0  0  0  0  0  0  0  0  0  0  0  0
    1.0607    1.2367   -0.2037 C   0  0  0  0  0  0  0  0  0  0  0  0
   -0.2248    1.9595   -0.4360 C   0  0  0  0  0  0  0  0  0  0  0  0
   -0.8623    0.6115   -0.7767 C   0  0  0  0  0  0  0  0  0  0  0  0
    0.5182    0.1476   -1.1351 C   0  0  0  0  0  0  0  0  0  0  0  0
   -3.2200   -0.5921    1.0428 H   0  0  0  0  0  0  0  0  0  0  0  0
   -2.2600   -1.9995    0.5260 H   0  0  0  0  0  0  0  0  0  0  0  0
   -2.8328   -0.8549   -0.7089 H   0  0  0  0  0  0  0  0  0  0  0  0
   -1.3465    0.6228    1.3540 H   0  0  0  0  0  0  0  0  0  0  0  0
    0.1963   -1.0297    1.9257 H   0  0  0  0  0  0  0  0  0  0  0  0
   -0.1141   -1.8985    0.3308 H   0  0  0  0  0  0  0  0  0  0  0  0
    2.4792   -1.8727    0.4316 H   0  0  0  0  0  0  0  0  0  0  0  0
    3.1980   -0.4957   -0.5466 H   0  0  0  0  0  0  0  0  0  0  0  0
    2.9551   -0.3457    1.2059 H   0  0  0  0  0  0  0  0  0  0  0  0
    1.9665    1.7064   -0.5812 H   0  0  0  0  0  0  0  0  0  0  0  0
   -0.1479    2.6382   -1.3250 H   0  0  0  0  0  0  0  0  0  0  0  0
   -0.6599    2.4136    0.4668 H   0  0  0  0  0  0  0  0  0  0  0  0
   -1.6158    0.6271   -1.5527 H   0  0  0  0  0  0  0  0  0  0  0  0
    0.8822    0.0331   -2.1267 H   0  0  0  0  0  0  0  0  0  0  0  0
  1  2  1  0
  2  3  1  0
  3  4  1  0
  4  5  1  0
  4  6  1  0
  6  7  1  0
  7  8  1  0
  8  9  1  0
  8  2  1  0
  9  4  1  0
  9  6  1  0
  1 10  1  0
  1 11  1  0
  1 12  1  0
  2 13  1  0
  3 14  1  0
  3 15  1  0
  5 16  1  0
  5 17  1  0
  5 18  1  0
  6 19  1  0
  7 20  1  0
  7 21  1  0
  8 22  1  0
  9 23  1  0
M  END
