
     RDKit          3D

 21 22  0  0  0  0  0  0  0  0999 V2000
   -0.6444    2.0351    0.1007 C   0  0  0  0  0  0  0  0  0  0  0  0
    0.1263    0.7786    0.3536 C   0  0  0  0  0  0  0  0  0  0  0  0
    1.1165    0.3792   -0.7130 C   0  0  0  0  0  0  0  0  0  0  0  0
    2.1060   -0.5709   -0.0620 C   0  0  0  0  0  0  0  0  0  0  0  0
    1.4948   -1.4359    0.8091 O   0  0  0  0  0  0  0  0  0  0  0  0
    0.1663   -1.6503    0.6000 C   0  0  0  0  0  0  0  0  0  0  0  0
   -0.4900   -0.5006   -0.1118 C   0  0  0  0  0  0  0  0  0  0  0  0
   -1.9603   -0.5506   -0.2629 C   0  0  0  0  0  0  0  0  0  0  0  0
    0.1518   -0.3808   -1.3607 O   0  0  0  0  0  0  0  0  0  0  0  0
   -0.7944    2.2747   -0.9625 H   0  0  0  0  0  0  0  0  0  0  0  0
   -0.0752    2.8742    0.5585 H   0  0  0  0  0  0  0  0  0  0  0  0
   -1.6130    1.9762    0.6549 H   0  0  0  0  0  0  0  0  0  0  0  0
    0.5964    0.7814    1.3489 H   0  0  0  0  0  0  0  0  0  0  0  0
    1.5853    1.1807   -1.2796 H   0  0  0  0  0  0  0  0  0  0  0  0
    2.7595   -1.0701   -0.8029 H   0  0  0  0  0  0  0  0  0  0  0  0
    2.7825    0.0880    0.5572 H   0  0  0  0  0  0  0  0  0  0  0  0
   -0.3178   -1.8493    1.5909 H   0  0  0  0  0  0  0  0  0  0  0  0
    0.0654   -2.5586   -0.0526 H   0  0  0  0  0  0  0  0  0  0  0  0
   -2.2696   -1.6088   -0.3928 H   0  0  0  0  0  0  0  0  0  0  0  0
   -2.2881   -0.0177   -1.1953 H   0  0  0  0  0  0  0  0  0  0  0  0
   -2.4977   -0.1743    0.6223 H   0  0  0  0  0  0  0  0  0  0  0  0
  1  2  1  0
  2  3  1  0
  3  4  1  0
  4  5  1  0
  5  6  1  0
  6  7  1  0
  7  8  1  0
  7  9  1  0
  7  2  1  0
  9  3  1  0
  1 10  1  0
  1 11  1  0
  1 12  1  0
  2 13  1  0
  3 14  1  0
  4 15  1  0
  4 16  1  0
  6 17  1  0
  6 18  1  0
  8 19  1  0
  8 20  1  0
  8 21  1  0
M  END
