
     RDKit          3D

 16 17  0  0  0  0  0  0  0  0999 V2000
   -2.0919    0.2957    0.1756 C   0  0  0  0  0  0  0  0  0  0  0  0
   -0.8372   -0.3446   -0.3192 C   0  0  0  0  0  0  0  0  0  0  0  0
    0.0491    0.5911   -1.1018 C   0  0  0  0  0  0  0  0  0  0  0  0
   -0.1749    1.1985   -2.1338 O   0  0  0  0  0  0  0  0  0  0  0  0
    1.1043    0.3811   -0.1041 C   0  0  0  0  0  0  0  0  0  0  0  0
    1.7576    1.4495    0.4781 O   0  0  0  0  0  0  0  0  0  0  0  0
    1.5814   -0.9877    0.1153 C   0  0  0  0  0  0  0  0  0  0  0  0
    0.2592   -0.5479    0.6834 C   0  0  0  0  0  0  0  0  0  0  0  0
   -2.8236   -0.5031    0.4147 H   0  0  0  0  0  0  0  0  0  0  0  0
   -2.4885    0.9288   -0.6705 H   0  0  0  0  0  0  0  0  0  0  0  0
   -1.9094    0.9739    1.0439 H   0  0  0  0  0  0  0  0  0  0  0  0
   -1.0681   -1.2624   -0.8968 H   0  0  0  0  0  0  0  0  0  0  0  0
    2.7255    1.3172    0.3301 H   0  0  0  0  0  0  0  0  0  0  0  0
    1.4814   -1.7945   -0.6480 H   0  0  0  0  0  0  0  0  0  0  0  0
    2.3391   -1.2272    0.8832 H   0  0  0  0  0  0  0  0  0  0  0  0
    0.0961   -0.4686    1.7499 H   0  0  0  0  0  0  0  0  0  0  0  0
  1  2  1  0
  2  3  1  0
  3  4  2  0
  3  5  1  0
  5  6  1  0
  5  7  1  0
  7  8  1  0
  8  2  1  0
  8  5  1  0
  1  9  1  0
  1 10  1  0
  1 11  1  0
  2 12  1  0
  6 13  1  0
  7 14  1  0
  7 15  1  0
  8 16  1  0
M  END
