
     RDKit          3D

 23 24  0  0  0  0  0  0  0  0999 V2000
    2.7486   -0.1899    0.1577 C   0  0  0  0  0  0  0  0  0  0  0  0
    1.2962    0.1338    0.4379 C   0  0  0  0  0  0  0  0  0  0  0  0
    0.8230    1.1631   -0.5602 C   0  0  0  0  0  0  0  0  0  0  0  0
   -0.4023    1.6489   -0.5897 C   0  0  0  0  0  0  0  0  0  0  0  0
   -1.5301    1.3207    0.2925 C   0  0  0  0  0  0  0  0  0  0  0  0
   -1.8355   -0.0998    0.4919 C   0  0  0  0  0  0  0  0  0  0  0  0
   -1.9079   -1.0423   -0.6831 C   0  0  0  0  0  0  0  0  0  0  0  0
   -0.9036   -1.1540    0.5117 C   0  0  0  0  0  0  0  0  0  0  0  0
    0.4818   -1.0917    0.1203 C   0  0  0  0  0  0  0  0  0  0  0  0
    3.3191    0.1390    1.0557 H   0  0  0  0  0  0  0  0  0  0  0  0
    2.9081   -1.2696   -0.0441 H   0  0  0  0  0  0  0  0  0  0  0  0
    3.1213    0.4094   -0.6897 H   0  0  0  0  0  0  0  0  0  0  0  0
    1.1115    0.4684    1.4602 H   0  0  0  0  0  0  0  0  0  0  0  0
    1.5495    1.5108   -1.2880 H   0  0  0  0  0  0  0  0  0  0  0  0
   -0.6063    2.3802   -1.3576 H   0  0  0  0  0  0  0  0  0  0  0  0
   -2.4790    1.8423   -0.0212 H   0  0  0  0  0  0  0  0  0  0  0  0
   -1.2939    1.7950    1.2917 H   0  0  0  0  0  0  0  0  0  0  0  0
   -2.7666   -0.2055    1.1373 H   0  0  0  0  0  0  0  0  0  0  0  0
   -2.6923   -1.7845   -0.7780 H   0  0  0  0  0  0  0  0  0  0  0  0
   -1.4847   -0.7167   -1.6592 H   0  0  0  0  0  0  0  0  0  0  0  0
   -1.1683   -2.0594    1.1492 H   0  0  0  0  0  0  0  0  0  0  0  0
    1.0888   -1.9431    0.5575 H   0  0  0  0  0  0  0  0  0  0  0  0
    0.6227   -1.2551   -0.9929 H   0  0  0  0  0  0  0  0  0  0  0  0
  1  2  1  0
  2  3  1  0
  3  4  2  0
  4  5  1  0
  5  6  1  0
  6  7  1  0
  7  8  1  0
  8  9  1  0
  9  2  1  0
  8  6  1  0
  1 10  1  0
  1 11  1  0
  1 12  1  0
  2 13  1  0
  3 14  1  0
  4 15  1  0
  5 16  1  0
  5 17  1  0
  6 18  1  0
  7 19  1  0
  7 20  1  0
  8 21  1  0
  9 22  1  0
  9 23  1  0
M  END
