
     RDKit          3D

 23 23  0  0  0  0  0  0  0  0999 V2000
    2.3155   -0.1890    0.9117 C   0  0  0  0  0  0  0  0  0  0  0  0
    1.4628    0.2797   -0.2511 C   0  0  0  0  0  0  0  0  0  0  0  0
    0.9434   -0.8590   -1.0839 C   0  0  0  0  0  0  0  0  0  0  0  0
   -0.2334   -1.5278   -0.5389 C   0  0  0  0  0  0  0  0  0  0  0  0
   -1.5013   -1.2171   -0.2044 C   0  0  0  0  0  0  0  0  0  0  0  0
   -2.3228   -0.0053   -0.2353 C   0  0  0  0  0  0  0  0  0  0  0  0
   -1.7709    1.1024    0.6458 C   0  0  0  0  0  0  0  0  0  0  0  0
   -0.4911    0.6700    1.0466 O   0  0  0  0  0  0  0  0  0  0  0  0
    0.4032    1.2464    0.1735 C   0  0  0  0  0  0  0  0  0  0  0  0
    1.9656   -1.1235    1.3553 H   0  0  0  0  0  0  0  0  0  0  0  0
    2.3940    0.6574    1.6278 H   0  0  0  0  0  0  0  0  0  0  0  0
    3.3766   -0.3727    0.5727 H   0  0  0  0  0  0  0  0  0  0  0  0
    2.1680    0.8575   -0.9202 H   0  0  0  0  0  0  0  0  0  0  0  0
    0.7863   -0.4806   -2.1353 H   0  0  0  0  0  0  0  0  0  0  0  0
    1.7757   -1.5896   -1.1706 H   0  0  0  0  0  0  0  0  0  0  0  0
   -0.0867   -2.5805   -0.3283 H   0  0  0  0  0  0  0  0  0  0  0  0
   -2.0487   -2.0702    0.1820 H   0  0  0  0  0  0  0  0  0  0  0  0
   -2.5022    0.3669   -1.2854 H   0  0  0  0  0  0  0  0  0  0  0  0
   -3.3344   -0.2322    0.1570 H   0  0  0  0  0  0  0  0  0  0  0  0
   -2.3981    1.2991    1.5248 H   0  0  0  0  0  0  0  0  0  0  0  0
   -1.7319    2.0157    0.0430 H   0  0  0  0  0  0  0  0  0  0  0  0
   -0.0742    1.6464   -0.7453 H   0  0  0  0  0  0  0  0  0  0  0  0
    0.9047    2.1057    0.6585 H   0  0  0  0  0  0  0  0  0  0  0  0
  1  2  1  0
  2  3  1  0
  3  4  1  0
  4  5  2  3
  5  6  1  0
  6  7  1  0
  7  8  1  0
  8  9  1  0
  9  2  1  0
  1 10  1  0
  1 11  1  0
  1 12  1  0
  2 13  1  0
  3 14  1  0
  3 15  1  0
  4 16  1  0
  5 17  1  0
  6 18  1  0
  6 19  1  0
  7 20  1  0
  7 21  1  0
  9 22  1  0
  9 23  1  0
M  END
