
     RDKit          3D

 19 21  0  0  0  0  0  0  0  0999 V2000
    2.4192    0.4336    0.1866 C   0  0  0  0  0  0  0  0  0  0  0  0
    1.0246   -0.0228    0.4694 C   0  0  0  0  0  0  0  0  0  0  0  0
    0.4520   -0.7500   -0.7449 C   0  0  0  0  0  0  0  0  0  0  0  0
   -1.0093   -0.7512   -0.4115 C   0  0  0  0  0  0  0  0  0  0  0  0
   -1.4866   -0.8250    0.9890 C   0  0  0  0  0  0  0  0  0  0  0  0
   -1.1392    0.5407    0.3742 C   0  0  0  0  0  0  0  0  0  0  0  0
   -1.8598    0.9452   -0.8684 C   0  0  0  0  0  0  0  0  0  0  0  0
   -1.9484   -0.3490   -1.3448 O   0  0  0  0  0  0  0  0  0  0  0  0
    0.1245    0.9969    0.6392 O   0  0  0  0  0  0  0  0  0  0  0  0
    2.7843    0.9961    1.0697 H   0  0  0  0  0  0  0  0  0  0  0  0
    3.0623   -0.4924    0.1498 H   0  0  0  0  0  0  0  0  0  0  0  0
    2.5626    0.9403   -0.7652 H   0  0  0  0  0  0  0  0  0  0  0  0
    1.0764   -0.7132    1.3541 H   0  0  0  0  0  0  0  0  0  0  0  0
    0.8949   -1.7243   -0.9071 H   0  0  0  0  0  0  0  0  0  0  0  0
    0.5856   -0.0372   -1.6058 H   0  0  0  0  0  0  0  0  0  0  0  0
   -2.5601   -1.0073    1.1263 H   0  0  0  0  0  0  0  0  0  0  0  0
   -0.8611   -1.1457    1.8236 H   0  0  0  0  0  0  0  0  0  0  0  0
   -1.2742    1.5629   -1.5876 H   0  0  0  0  0  0  0  0  0  0  0  0
   -2.8476    1.4026   -0.6344 H   0  0  0  0  0  0  0  0  0  0  0  0
  1  2  1  0
  2  3  1  0
  3  4  1  0
  4  5  1  0
  5  6  1  0
  6  7  1  0
  7  8  1  0
  6  9  1  0
  9  2  1  0
  6  4  1  0
  8  4  1  0
  1 10  1  0
  1 11  1  0
  1 12  1  0
  2 13  1  0
  3 14  1  0
  3 15  1  0
  5 16  1  0
  5 17  1  0
  7 18  1  0
  7 19  1  0
M  END
