
     RDKit          3D

 21 23  0  0  0  0  0  0  0  0999 V2000
    1.7801    1.0763    0.0288 C   0  0  0  0  0  0  0  0  0  0  0  0
    0.8892    0.0993   -0.6847 C   0  0  0  0  0  0  0  0  0  0  0  0
    1.3321   -1.3359   -0.3671 C   0  0  0  0  0  0  0  0  0  0  0  0
   -0.0660   -1.6224    0.1998 C   0  0  0  0  0  0  0  0  0  0  0  0
   -0.4072   -0.2120   -0.0446 C   0  0  0  0  0  0  0  0  0  0  0  0
   -0.8797    0.6337    1.0739 C   0  0  0  0  0  0  0  0  0  0  0  0
   -2.0945    0.9955    0.2065 C   0  0  0  0  0  0  0  0  0  0  0  0
   -1.8548    1.4415   -1.0794 O   0  0  0  0  0  0  0  0  0  0  0  0
   -1.6592    0.1003   -0.8013 C   0  0  0  0  0  0  0  0  0  0  0  0
    2.7232    1.1856   -0.5245 H   0  0  0  0  0  0  0  0  0  0  0  0
    1.9873    0.6705    1.0407 H   0  0  0  0  0  0  0  0  0  0  0  0
    1.3234    2.0680    0.1565 H   0  0  0  0  0  0  0  0  0  0  0  0
    0.8355    0.3229   -1.7657 H   0  0  0  0  0  0  0  0  0  0  0  0
    1.5440   -1.8904   -1.2932 H   0  0  0  0  0  0  0  0  0  0  0  0
    2.1136   -1.3993    0.3966 H   0  0  0  0  0  0  0  0  0  0  0  0
   -0.6349   -2.2984   -0.4994 H   0  0  0  0  0  0  0  0  0  0  0  0
   -0.0677   -2.0070    1.2272 H   0  0  0  0  0  0  0  0  0  0  0  0
   -0.3278    1.5771    1.2782 H   0  0  0  0  0  0  0  0  0  0  0  0
   -1.1767    0.1589    2.0112 H   0  0  0  0  0  0  0  0  0  0  0  0
   -3.0683    1.1086    0.6732 H   0  0  0  0  0  0  0  0  0  0  0  0
   -2.2917   -0.6730   -1.2328 H   0  0  0  0  0  0  0  0  0  0  0  0
  1  2  1  0
  2  3  1  0
  3  4  1  0
  4  5  1  0
  5  6  1  0
  6  7  1  0
  7  8  1  0
  8  9  1  0
  5  2  1  0
  9  7  1  0
  9  5  1  0
  1 10  1  0
  1 11  1  0
  1 12  1  0
  2 13  1  0
  3 14  1  0
  3 15  1  0
  4 16  1  0
  4 17  1  0
  6 18  1  0
  6 19  1  0
  7 20  1  0
  9 21  1  0
M  END
