
     RDKit          3D

 18 18  0  0  0  0  0  0  0  0999 V2000
    2.2528    0.2647    0.0809 C   0  0  0  0  0  0  0  0  0  0  0  0
    1.0881   -0.2898   -0.6665 C   0  0  0  0  0  0  0  0  0  0  0  0
    0.1299   -0.9624    0.2904 C   0  0  0  0  0  0  0  0  0  0  0  0
   -0.8399    0.0699   -0.2359 C   0  0  0  0  0  0  0  0  0  0  0  0
   -1.2267    1.1236    0.8032 C   0  0  0  0  0  0  0  0  0  0  0  0
   -1.9853   -0.5932   -0.8692 C   0  0  0  0  0  0  0  0  0  0  0  0
   -2.8613   -1.0735   -0.1897 O   0  0  0  0  0  0  0  0  0  0  0  0
    0.1209    0.5946   -1.0736 O   0  0  0  0  0  0  0  0  0  0  0  0
    2.7260   -0.5723    0.6449 H   0  0  0  0  0  0  0  0  0  0  0  0
    1.8904    0.9814    0.8285 H   0  0  0  0  0  0  0  0  0  0  0  0
    3.0164    0.7419   -0.5346 H   0  0  0  0  0  0  0  0  0  0  0  0
    1.3932   -0.9367   -1.5241 H   0  0  0  0  0  0  0  0  0  0  0  0
    0.3115   -0.8008    1.3518 H   0  0  0  0  0  0  0  0  0  0  0  0
   -0.0836   -2.0069    0.0133 H   0  0  0  0  0  0  0  0  0  0  0  0
   -0.4022    1.1936    1.5248 H   0  0  0  0  0  0  0  0  0  0  0  0
   -2.1916    0.8164    1.2310 H   0  0  0  0  0  0  0  0  0  0  0  0
   -1.2900    2.1030    0.2623 H   0  0  0  0  0  0  0  0  0  0  0  0
   -2.0487   -0.6538   -1.9375 H   0  0  0  0  0  0  0  0  0  0  0  0
  1  2  1  0
  2  3  1  0
  3  4  1  0
  4  5  1  0
  4  6  1  0
  6  7  2  0
  4  8  1  0
  8  2  1  0
  1  9  1  0
  1 10  1  0
  1 11  1  0
  2 12  1  0
  3 13  1  0
  3 14  1  0
  5 15  1  0
  5 16  1  0
  5 17  1  0
  6 18  1  0
M  END
