
     RDKit          3D

 23 24  0  0  0  0  0  0  0  0999 V2000
   -1.4606    1.5490   -0.2767 C   0  0  0  0  0  0  0  0  0  0  0  0
   -1.2817    0.0736   -0.5194 C   0  0  0  0  0  0  0  0  0  0  0  0
   -1.8227   -0.7199    0.6298 C   0  0  0  0  0  0  0  0  0  0  0  0
   -1.0585   -1.9902    0.5314 C   0  0  0  0  0  0  0  0  0  0  0  0
    0.0542   -1.7784   -0.1249 C   0  0  0  0  0  0  0  0  0  0  0  0
    0.1641   -0.3408   -0.5424 C   0  0  0  0  0  0  0  0  0  0  0  0
    1.0005    0.3421    0.4873 C   0  0  0  0  0  0  0  0  0  0  0  0
    2.4736   -0.1083    0.4319 C   0  0  0  0  0  0  0  0  0  0  0  0
    2.0588    1.3056    0.1865 C   0  0  0  0  0  0  0  0  0  0  0  0
   -1.0983    1.8340    0.7284 H   0  0  0  0  0  0  0  0  0  0  0  0
   -1.0385    2.1526   -1.0830 H   0  0  0  0  0  0  0  0  0  0  0  0
   -2.5617    1.7393   -0.2760 H   0  0  0  0  0  0  0  0  0  0  0  0
   -1.7533   -0.2351   -1.4482 H   0  0  0  0  0  0  0  0  0  0  0  0
   -2.9108   -0.8884    0.4784 H   0  0  0  0  0  0  0  0  0  0  0  0
   -1.6239   -0.2118    1.5978 H   0  0  0  0  0  0  0  0  0  0  0  0
   -1.3642   -2.9448    0.9348 H   0  0  0  0  0  0  0  0  0  0  0  0
    0.8043   -2.5106   -0.3494 H   0  0  0  0  0  0  0  0  0  0  0  0
    0.6042   -0.3285   -1.5532 H   0  0  0  0  0  0  0  0  0  0  0  0
    0.5256    0.3939    1.4919 H   0  0  0  0  0  0  0  0  0  0  0  0
    2.8756   -0.4225    1.4091 H   0  0  0  0  0  0  0  0  0  0  0  0
    2.8305   -0.6524   -0.4371 H   0  0  0  0  0  0  0  0  0  0  0  0
    2.2350    1.7311   -0.8198 H   0  0  0  0  0  0  0  0  0  0  0  0
    2.3479    2.0106    0.9951 H   0  0  0  0  0  0  0  0  0  0  0  0
  1  2  1  0
  2  3  1  0
  3  4  1  0
  4  5  2  0
  5  6  1  0
  6  7  1  0
  7  8  1  0
  8  9  1  0
  6  2  1  0
  9  7  1  0
  1 10  1  0
  1 11  1  0
  1 12  1  0
  2 13  1  0
  3 14  1  0
  3 15  1  0
  4 16  1  0
  5 17  1  0
  6 18  1  0
  7 19  1  0
  8 20  1  0
  8 21  1  0
  9 22  1  0
  9 23  1  0
M  END
