
     RDKit          3D

 21 22  0  0  0  0  0  0  0  0999 V2000
   -2.1297   -1.0092    0.2535 C   0  0  0  0  0  0  0  0  0  0  0  0
   -0.6335   -0.8234    0.3702 C   0  0  0  0  0  0  0  0  0  0  0  0
    0.0285   -0.2942   -0.8432 C   0  0  0  0  0  0  0  0  0  0  0  0
    1.3149   -0.6896   -1.1473 O   0  0  0  0  0  0  0  0  0  0  0  0
    2.1018   -0.9834   -0.0811 C   0  0  0  0  0  0  0  0  0  0  0  0
    2.2496    0.2167    0.7848 C   0  0  0  0  0  0  0  0  0  0  0  0
    1.1632    0.9486    0.9804 C   0  0  0  0  0  0  0  0  0  0  0  0
   -0.1043    0.5561    0.3523 C   0  0  0  0  0  0  0  0  0  0  0  0
   -1.1193    1.6986    0.2429 C   0  0  0  0  0  0  0  0  0  0  0  0
   -2.6175   -0.0192    0.1858 H   0  0  0  0  0  0  0  0  0  0  0  0
   -2.5476   -1.6119    1.0741 H   0  0  0  0  0  0  0  0  0  0  0  0
   -2.3383   -1.5606   -0.6993 H   0  0  0  0  0  0  0  0  0  0  0  0
   -0.1135   -1.5275    1.0304 H   0  0  0  0  0  0  0  0  0  0  0  0
   -0.5793   -0.0462   -1.7430 H   0  0  0  0  0  0  0  0  0  0  0  0
    3.1313   -1.1977   -0.4739 H   0  0  0  0  0  0  0  0  0  0  0  0
    1.8145   -1.8831    0.4994 H   0  0  0  0  0  0  0  0  0  0  0  0
    3.2149    0.4828    1.2404 H   0  0  0  0  0  0  0  0  0  0  0  0
    1.2507    1.8220    1.6051 H   0  0  0  0  0  0  0  0  0  0  0  0
   -1.7190    1.5806   -0.7052 H   0  0  0  0  0  0  0  0  0  0  0  0
   -1.8068    1.7135    1.0964 H   0  0  0  0  0  0  0  0  0  0  0  0
   -0.5606    2.6273    0.1313 H   0  0  0  0  0  0  0  0  0  0  0  0
  1  2  1  0
  2  3  1  0
  3  4  1  0
  4  5  1  0
  5  6  1  0
  6  7  2  0
  7  8  1  0
  8  9  1  0
  8  2  1  0
  8  3  1  0
  1 10  1  0
  1 11  1  0
  1 12  1  0
  2 13  1  0
  3 14  1  0
  5 15  1  0
  5 16  1  0
  6 17  1  0
  7 18  1  0
  9 19  1  0
  9 20  1  0
  9 21  1  0
M  END
