
     RDKit          3D

 21 22  0  0  0  0  0  0  0  0999 V2000
   -2.7031    0.0624    0.7803 C   0  0  0  0  0  0  0  0  0  0  0  0
   -1.5172    0.2292   -0.1321 C   0  0  0  0  0  0  0  0  0  0  0  0
   -0.5295    1.1989    0.3755 C   0  0  0  0  0  0  0  0  0  0  0  0
    0.6699    0.8202   -0.0397 C   0  0  0  0  0  0  0  0  0  0  0  0
    2.1429    1.0861   -0.0666 C   0  0  0  0  0  0  0  0  0  0  0  0
    2.6669   -0.3027    0.0492 C   0  0  0  0  0  0  0  0  0  0  0  0
    1.7706   -1.1766   -0.3870 C   0  0  0  0  0  0  0  0  0  0  0  0
    0.5636   -0.4573   -0.8355 C   0  0  0  0  0  0  0  0  0  0  0  0
   -0.7051   -1.0372   -0.2346 C   0  0  0  0  0  0  0  0  0  0  0  0
   -3.4129   -0.6204    0.2649 H   0  0  0  0  0  0  0  0  0  0  0  0
   -3.1933    1.0232    0.9030 H   0  0  0  0  0  0  0  0  0  0  0  0
   -2.4434   -0.3775    1.7549 H   0  0  0  0  0  0  0  0  0  0  0  0
   -1.9281    0.5433   -1.1151 H   0  0  0  0  0  0  0  0  0  0  0  0
   -0.7374    2.0959    0.9984 H   0  0  0  0  0  0  0  0  0  0  0  0
    2.4153    1.4354   -1.0963 H   0  0  0  0  0  0  0  0  0  0  0  0
    2.4790    1.7542    0.7209 H   0  0  0  0  0  0  0  0  0  0  0  0
    3.6559   -0.5433    0.4421 H   0  0  0  0  0  0  0  0  0  0  0  0
    1.9573   -2.2540   -0.3882 H   0  0  0  0  0  0  0  0  0  0  0  0
    0.5004   -0.2754   -1.9052 H   0  0  0  0  0  0  0  0  0  0  0  0
   -0.4868   -1.4018    0.7809 H   0  0  0  0  0  0  0  0  0  0  0  0
   -1.1651   -1.8026   -0.8701 H   0  0  0  0  0  0  0  0  0  0  0  0
  1  2  1  0
  2  3  1  0
  3  4  2  0
  4  5  1  0
  5  6  1  0
  6  7  2  0
  7  8  1  0
  8  9  1  0
  9  2  1  0
  8  4  1  0
  1 10  1  0
  1 11  1  0
  1 12  1  0
  2 13  1  0
  3 14  1  0
  5 15  1  0
  5 16  1  0
  6 17  1  0
  7 18  1  0
  8 19  1  0
  9 20  1  0
  9 21  1  0
M  END
