
     RDKit          3D

 23 24  0  0  0  0  0  0  0  0999 V2000
   -0.0041    2.1125    0.1357 C   0  0  0  0  0  0  0  0  0  0  0  0
   -0.1726    0.8082   -0.5932 C   0  0  0  0  0  0  0  0  0  0  0  0
   -1.5745    0.2912   -0.4086 C   0  0  0  0  0  0  0  0  0  0  0  0
   -1.4805   -0.9619    0.4127 C   0  0  0  0  0  0  0  0  0  0  0  0
   -2.3854   -1.9155   -0.0222 O   0  0  0  0  0  0  0  0  0  0  0  0
   -0.0744   -1.4517    0.0895 C   0  0  0  0  0  0  0  0  0  0  0  0
    0.7682   -0.2382   -0.0701 C   0  0  0  0  0  0  0  0  0  0  0  0
    2.1260   -0.4010   -0.6354 C   0  0  0  0  0  0  0  0  0  0  0  0
    1.9358    0.0737    0.7498 C   0  0  0  0  0  0  0  0  0  0  0  0
    0.9199    2.6161   -0.1857 H   0  0  0  0  0  0  0  0  0  0  0  0
    0.0415    1.9393    1.2376 H   0  0  0  0  0  0  0  0  0  0  0  0
   -0.8562    2.7731   -0.1496 H   0  0  0  0  0  0  0  0  0  0  0  0
    0.0309    0.9362   -1.6679 H   0  0  0  0  0  0  0  0  0  0  0  0
   -2.0052    0.0050   -1.3997 H   0  0  0  0  0  0  0  0  0  0  0  0
   -2.2004    1.0807    0.0556 H   0  0  0  0  0  0  0  0  0  0  0  0
   -1.6231   -0.7612    1.4814 H   0  0  0  0  0  0  0  0  0  0  0  0
   -2.9779   -2.2611    0.6786 H   0  0  0  0  0  0  0  0  0  0  0  0
   -0.1607   -1.9355   -0.9246 H   0  0  0  0  0  0  0  0  0  0  0  0
    0.3046   -2.1634    0.8454 H   0  0  0  0  0  0  0  0  0  0  0  0
    2.5128    0.2531   -1.4435 H   0  0  0  0  0  0  0  0  0  0  0  0
    2.5220   -1.4430   -0.7259 H   0  0  0  0  0  0  0  0  0  0  0  0
    2.1346    1.1706    0.9130 H   0  0  0  0  0  0  0  0  0  0  0  0
    2.2186   -0.5273    1.6272 H   0  0  0  0  0  0  0  0  0  0  0  0
  1  2  1  0
  2  3  1  0
  3  4  1  0
  4  5  1  0
  4  6  1  0
  6  7  1  0
  7  8  1  0
  8  9  1  0
  7  2  1  0
  9  7  1  0
  1 10  1  0
  1 11  1  0
  1 12  1  0
  2 13  1  0
  3 14  1  0
  3 15  1  0
  4 16  1  0
  5 17  1  0
  6 18  1  0
  6 19  1  0
  8 20  1  0
  8 21  1  0
  9 22  1  0
  9 23  1  0
M  END
