
     RDKit          3D

 21 23  0  0  0  0  0  0  0  0999 V2000
    2.4444   -0.0993    0.0353 C   0  0  0  0  0  0  0  0  0  0  0  0
    1.0813    0.3929    0.4827 C   0  0  0  0  0  0  0  0  0  0  0  0
    0.2783   -0.5822    1.2907 C   0  0  0  0  0  0  0  0  0  0  0  0
   -0.7424   -0.7588    0.2037 C   0  0  0  0  0  0  0  0  0  0  0  0
   -2.1272   -0.1982    0.3668 C   0  0  0  0  0  0  0  0  0  0  0  0
   -1.9867    1.1699    0.2468 O   0  0  0  0  0  0  0  0  0  0  0  0
   -0.9738    1.4243   -0.6524 C   0  0  0  0  0  0  0  0  0  0  0  0
    0.0201    0.3255   -0.5869 C   0  0  0  0  0  0  0  0  0  0  0  0
   -0.2758   -0.9683   -1.2166 C   0  0  0  0  0  0  0  0  0  0  0  0
    2.5601   -1.1805    0.2528 H   0  0  0  0  0  0  0  0  0  0  0  0
    3.2655    0.4664    0.5463 H   0  0  0  0  0  0  0  0  0  0  0  0
    2.5128    0.1267   -1.0523 H   0  0  0  0  0  0  0  0  0  0  0  0
    1.1598    1.4129    0.9314 H   0  0  0  0  0  0  0  0  0  0  0  0
   -0.1763   -0.1156    2.2015 H   0  0  0  0  0  0  0  0  0  0  0  0
    0.8529   -1.4757    1.5505 H   0  0  0  0  0  0  0  0  0  0  0  0
   -2.7390   -0.5990   -0.4820 H   0  0  0  0  0  0  0  0  0  0  0  0
   -2.6264   -0.4873    1.2884 H   0  0  0  0  0  0  0  0  0  0  0  0
   -1.4049    1.4423   -1.6813 H   0  0  0  0  0  0  0  0  0  0  0  0
   -0.5493    2.4263   -0.3894 H   0  0  0  0  0  0  0  0  0  0  0  0
    0.4960   -1.7373   -1.3596 H   0  0  0  0  0  0  0  0  0  0  0  0
   -1.0694   -0.9847   -1.9765 H   0  0  0  0  0  0  0  0  0  0  0  0
  1  2  1  0
  2  3  1  0
  3  4  1  0
  4  5  1  0
  5  6  1  0
  6  7  1  0
  7  8  1  0
  8  9  1  0
  8  2  1  0
  8  4  1  0
  9  4  1  0
  1 10  1  0
  1 11  1  0
  1 12  1  0
  2 13  1  0
  3 14  1  0
  3 15  1  0
  5 16  1  0
  5 17  1  0
  7 18  1  0
  7 19  1  0
  9 20  1  0
  9 21  1  0
M  END
