
     RDKit          3D

 21 22  0  0  0  0  0  0  0  0999 V2000
    2.5049   -0.3861    0.2837 C   0  0  0  0  0  0  0  0  0  0  0  0
    1.1315   -0.2919   -0.3155 C   0  0  0  0  0  0  0  0  0  0  0  0
    0.7029    1.1695   -0.4546 C   0  0  0  0  0  0  0  0  0  0  0  0
   -0.3064    0.9284    0.6437 C   0  0  0  0  0  0  0  0  0  0  0  0
   -1.7229    1.0745    0.2569 C   0  0  0  0  0  0  0  0  0  0  0  0
   -2.3584    2.0920    0.3568 O   0  0  0  0  0  0  0  0  0  0  0  0
   -2.2518   -0.2095   -0.2720 C   0  0  0  0  0  0  0  0  0  0  0  0
   -1.1847   -1.2338   -0.0052 C   0  0  0  0  0  0  0  0  0  0  0  0
   -0.0186   -0.5438    0.6161 C   0  0  0  0  0  0  0  0  0  0  0  0
    2.6836   -1.3159    0.8519 H   0  0  0  0  0  0  0  0  0  0  0  0
    2.7124    0.5345    0.8869 H   0  0  0  0  0  0  0  0  0  0  0  0
    3.2328   -0.4004   -0.5741 H   0  0  0  0  0  0  0  0  0  0  0  0
    1.0197   -0.8305   -1.2797 H   0  0  0  0  0  0  0  0  0  0  0  0
    0.2977    1.3999   -1.4457 H   0  0  0  0  0  0  0  0  0  0  0  0
    1.4692    1.8859   -0.0915 H   0  0  0  0  0  0  0  0  0  0  0  0
   -0.0916    1.4329    1.6071 H   0  0  0  0  0  0  0  0  0  0  0  0
   -2.3650   -0.0585   -1.3816 H   0  0  0  0  0  0  0  0  0  0  0  0
   -3.1972   -0.5111    0.1962 H   0  0  0  0  0  0  0  0  0  0  0  0
   -0.8862   -1.7606   -0.9373 H   0  0  0  0  0  0  0  0  0  0  0  0
   -1.6000   -2.0447    0.6598 H   0  0  0  0  0  0  0  0  0  0  0  0
    0.2281   -0.9309    1.6157 H   0  0  0  0  0  0  0  0  0  0  0  0
  1  2  1  0
  2  3  1  0
  3  4  1  0
  4  5  1  0
  5  6  2  0
  5  7  1  0
  7  8  1  0
  8  9  1  0
  9  2  1  0
  9  4  1  0
  1 10  1  0
  1 11  1  0
  1 12  1  0
  2 13  1  0
  3 14  1  0
  3 15  1  0
  4 16  1  0
  7 17  1  0
  7 18  1  0
  8 19  1  0
  8 20  1  0
  9 21  1  0
M  END
