
     RDKit          3D

 23 24  0  0  0  0  0  0  0  0999 V2000
    2.3073   -0.1512    0.8713 C   0  0  0  0  0  0  0  0  0  0  0  0
    1.2668   -0.0785   -0.1938 C   0  0  0  0  0  0  0  0  0  0  0  0
    0.6476    1.2653   -0.3751 C   0  0  0  0  0  0  0  0  0  0  0  0
   -0.7911    1.3582   -0.0372 C   0  0  0  0  0  0  0  0  0  0  0  0
   -1.6291    0.1959   -0.4324 C   0  0  0  0  0  0  0  0  0  0  0  0
   -1.8437   -0.6503    0.8330 C   0  0  0  0  0  0  0  0  0  0  0  0
   -0.5215   -0.9543    1.1451 O   0  0  0  0  0  0  0  0  0  0  0  0
    0.1766   -1.1442   -0.0163 C   0  0  0  0  0  0  0  0  0  0  0  0
   -0.7831   -0.8502   -1.1758 C   0  0  0  0  0  0  0  0  0  0  0  0
    1.9507   -0.7626    1.7218 H   0  0  0  0  0  0  0  0  0  0  0  0
    2.6583    0.8567    1.1692 H   0  0  0  0  0  0  0  0  0  0  0  0
    3.2347   -0.6810    0.5030 H   0  0  0  0  0  0  0  0  0  0  0  0
    1.7621   -0.3487   -1.1722 H   0  0  0  0  0  0  0  0  0  0  0  0
    1.2033    1.9688    0.3129 H   0  0  0  0  0  0  0  0  0  0  0  0
    0.8320    1.6927   -1.3975 H   0  0  0  0  0  0  0  0  0  0  0  0
   -0.9058    1.5815    1.0592 H   0  0  0  0  0  0  0  0  0  0  0  0
   -1.2172    2.2707   -0.5492 H   0  0  0  0  0  0  0  0  0  0  0  0
   -2.5555    0.4189   -0.9457 H   0  0  0  0  0  0  0  0  0  0  0  0
   -2.3380   -1.5933    0.5377 H   0  0  0  0  0  0  0  0  0  0  0  0
   -2.3472   -0.0883    1.6141 H   0  0  0  0  0  0  0  0  0  0  0  0
    0.5844   -2.1536   -0.0650 H   0  0  0  0  0  0  0  0  0  0  0  0
   -1.4146   -1.7202   -1.3661 H   0  0  0  0  0  0  0  0  0  0  0  0
   -0.2770   -0.4322   -2.0410 H   0  0  0  0  0  0  0  0  0  0  0  0
  1  2  1  0
  2  3  1  0
  3  4  1  0
  4  5  1  0
  5  6  1  0
  6  7  1  0
  7  8  1  0
  8  9  1  0
  8  2  1  0
  9  5  1  0
  1 10  1  0
  1 11  1  0
  1 12  1  0
  2 13  1  0
  3 14  1  0
  3 15  1  0
  4 16  1  0
  4 17  1  0
  5 18  1  0
  6 19  1  0
  6 20  1  0
  8 21  1  0
  9 22  1  0
  9 23  1  0
M  END
