
     RDKit          3D

 19 20  0  0  0  0  0  0  0  0999 V2000
   -0.0910   -1.9928    0.1881 C   0  0  0  0  0  0  0  0  0  0  0  0
    0.1209   -0.5622   -0.2027 C   0  0  0  0  0  0  0  0  0  0  0  0
    1.2470    0.1601    0.4455 C   0  0  0  0  0  0  0  0  0  0  0  0
    2.3326    0.6329   -0.4134 C   0  0  0  0  0  0  0  0  0  0  0  0
    3.2770    1.2085    0.0944 O   0  0  0  0  0  0  0  0  0  0  0  0
    0.2239    1.2242    0.8533 C   0  0  0  0  0  0  0  0  0  0  0  0
   -0.6869    0.7721    1.7626 O   0  0  0  0  0  0  0  0  0  0  0  0
   -0.8427    0.3798    0.4577 C   0  0  0  0  0  0  0  0  0  0  0  0
   -2.1173    0.7707   -0.1982 C   0  0  0  0  0  0  0  0  0  0  0  0
    0.6614   -2.6522   -0.2871 H   0  0  0  0  0  0  0  0  0  0  0  0
   -0.0178   -2.0589    1.2858 H   0  0  0  0  0  0  0  0  0  0  0  0
   -1.1161   -2.2978   -0.0908 H   0  0  0  0  0  0  0  0  0  0  0  0
    0.1302   -0.3752   -1.3075 H   0  0  0  0  0  0  0  0  0  0  0  0
    1.6107   -0.4170    1.3365 H   0  0  0  0  0  0  0  0  0  0  0  0
    2.2980    0.4762   -1.4674 H   0  0  0  0  0  0  0  0  0  0  0  0
    0.3963    2.2630    0.6204 H   0  0  0  0  0  0  0  0  0  0  0  0
   -2.3566    0.0117   -0.9755 H   0  0  0  0  0  0  0  0  0  0  0  0
   -2.9598    0.6890    0.5493 H   0  0  0  0  0  0  0  0  0  0  0  0
   -2.1097    1.7678   -0.6522 H   0  0  0  0  0  0  0  0  0  0  0  0
  1  2  1  0
  2  3  1  0
  3  4  1  0
  4  5  2  0
  3  6  1  0
  6  7  1  0
  7  8  1  0
  8  9  1  0
  8  2  1  0
  8  6  1  0
  1 10  1  0
  1 11  1  0
  1 12  1  0
  2 13  1  0
  3 14  1  0
  4 15  1  0
  6 16  1  0
  9 17  1  0
  9 18  1  0
  9 19  1  0
M  END
