
     RDKit          3D

 21 22  0  0  0  0  0  0  0  0999 V2000
    2.5508    0.8331    0.0339 C   0  0  0  0  0  0  0  0  0  0  0  0
    1.3989   -0.0741    0.3147 C   0  0  0  0  0  0  0  0  0  0  0  0
    0.8710   -0.6887   -0.9997 C   0  0  0  0  0  0  0  0  0  0  0  0
   -0.3290   -0.9085   -0.1035 C   0  0  0  0  0  0  0  0  0  0  0  0
    0.0646   -1.8536    0.8854 O   0  0  0  0  0  0  0  0  0  0  0  0
   -1.2614    0.0395    0.3858 C   0  0  0  0  0  0  0  0  0  0  0  0
   -2.4160    0.3576   -0.5835 C   0  0  0  0  0  0  0  0  0  0  0  0
   -3.2838    1.2802   -0.0539 O   0  0  0  0  0  0  0  0  0  0  0  0
    0.0482    0.5933    0.2524 C   0  0  0  0  0  0  0  0  0  0  0  0
    3.4905    0.2702    0.2824 H   0  0  0  0  0  0  0  0  0  0  0  0
    2.5580    1.7571    0.6134 H   0  0  0  0  0  0  0  0  0  0  0  0
    2.6528    1.0672   -1.0600 H   0  0  0  0  0  0  0  0  0  0  0  0
    1.6098   -0.7595    1.1173 H   0  0  0  0  0  0  0  0  0  0  0  0
    1.3599   -1.6103   -1.2974 H   0  0  0  0  0  0  0  0  0  0  0  0
    0.7597    0.1186   -1.7254 H   0  0  0  0  0  0  0  0  0  0  0  0
    0.4706   -2.6474    0.4519 H   0  0  0  0  0  0  0  0  0  0  0  0
   -1.6738    0.0046    1.4385 H   0  0  0  0  0  0  0  0  0  0  0  0
   -1.9068    0.7231   -1.5116 H   0  0  0  0  0  0  0  0  0  0  0  0
   -2.9576   -0.5681   -0.8672 H   0  0  0  0  0  0  0  0  0  0  0  0
   -4.1037    0.7897    0.2718 H   0  0  0  0  0  0  0  0  0  0  0  0
    0.0975    1.2759   -0.6596 H   0  0  0  0  0  0  0  0  0  0  0  0
  1  2  1  0
  2  3  1  0
  3  4  1  0
  4  5  1  0
  4  6  1  0
  6  7  1  0
  7  8  1  0
  6  9  1  0
  9  2  1  0
  9  4  1  0
  1 10  1  0
  1 11  1  0
  1 12  1  0
  2 13  1  0
  3 14  1  0
  3 15  1  0
  5 16  1  0
  6 17  1  0
  7 18  1  0
  7 19  1  0
  8 20  1  0
  9 21  1  0
M  END
