
     RDKit          3D

 23 24  0  0  0  0  0  0  0  0999 V2000
   -2.3605   -1.0777    0.0481 C   0  0  0  0  0  0  0  0  0  0  0  0
   -0.8820   -0.9970    0.3588 C   0  0  0  0  0  0  0  0  0  0  0  0
   -0.6100    0.4393    0.8487 C   0  0  0  0  0  0  0  0  0  0  0  0
    0.2459    0.8714   -0.3446 C   0  0  0  0  0  0  0  0  0  0  0  0
    0.6441    2.2657   -0.4294 C   0  0  0  0  0  0  0  0  0  0  0  0
   -0.5120    0.3336   -1.4135 O   0  0  0  0  0  0  0  0  0  0  0  0
   -0.0767   -0.9206   -0.9184 C   0  0  0  0  0  0  0  0  0  0  0  0
    1.2057   -0.2272   -0.5942 C   0  0  0  0  0  0  0  0  0  0  0  0
    1.9926   -0.7547    0.5566 C   0  0  0  0  0  0  0  0  0  0  0  0
   -2.5783   -2.0061   -0.4811 H   0  0  0  0  0  0  0  0  0  0  0  0
   -2.9265   -0.9977    0.9970 H   0  0  0  0  0  0  0  0  0  0  0  0
   -2.6248   -0.2273   -0.6017 H   0  0  0  0  0  0  0  0  0  0  0  0
   -0.5316   -1.7436    1.0631 H   0  0  0  0  0  0  0  0  0  0  0  0
   -0.0652    0.4553    1.7883 H   0  0  0  0  0  0  0  0  0  0  0  0
   -1.5137    1.0510    0.8287 H   0  0  0  0  0  0  0  0  0  0  0  0
    1.7182    2.4847   -0.2603 H   0  0  0  0  0  0  0  0  0  0  0  0
    0.1012    2.8597    0.3614 H   0  0  0  0  0  0  0  0  0  0  0  0
    0.3272    2.7149   -1.3954 H   0  0  0  0  0  0  0  0  0  0  0  0
   -0.0940   -1.7445   -1.5950 H   0  0  0  0  0  0  0  0  0  0  0  0
    1.8115   -0.0669   -1.4770 H   0  0  0  0  0  0  0  0  0  0  0  0
    1.4418   -0.8848    1.4815 H   0  0  0  0  0  0  0  0  0  0  0  0
    2.8634   -0.0855    0.7128 H   0  0  0  0  0  0  0  0  0  0  0  0
    2.4237   -1.7421    0.2629 H   0  0  0  0  0  0  0  0  0  0  0  0
  1  2  1  0
  2  3  1  0
  3  4  1  0
  4  5  1  0
  4  6  1  0
  6  7  1  0
  7  8  1  0
  8  9  1  0
  7  2  1  0
  8  4  1  0
  1 10  1  0
  1 11  1  0
  1 12  1  0
  2 13  1  0
  3 14  1  0
  3 15  1  0
  5 16  1  0
  5 17  1  0
  5 18  1  0
  7 19  1  0
  8 20  1  0
  9 21  1  0
  9 22  1  0
  9 23  1  0
M  END
