
     RDKit          3D

 21 22  0  0  0  0  0  0  0  0999 V2000
    1.5382    1.3295    0.2190 C   0  0  0  0  0  0  0  0  0  0  0  0
    1.0098    0.0160   -0.2353 C   0  0  0  0  0  0  0  0  0  0  0  0
    0.4561   -0.8269    0.9330 C   0  0  0  0  0  0  0  0  0  0  0  0
   -0.7404   -1.5681    0.3316 C   0  0  0  0  0  0  0  0  0  0  0  0
   -0.4058   -1.4772   -1.0923 C   0  0  0  0  0  0  0  0  0  0  0  0
   -0.6307   -0.6734   -2.0853 O   0  0  0  0  0  0  0  0  0  0  0  0
   -0.2155    0.0692   -1.0854 C   0  0  0  0  0  0  0  0  0  0  0  0
   -1.2962    0.9341   -0.5232 C   0  0  0  0  0  0  0  0  0  0  0  0
   -0.9310    1.7296    0.5275 O   0  0  0  0  0  0  0  0  0  0  0  0
    2.6409    1.3229    0.1730 H   0  0  0  0  0  0  0  0  0  0  0  0
    1.2780    1.5834    1.2646 H   0  0  0  0  0  0  0  0  0  0  0  0
    1.1575    2.1361   -0.4351 H   0  0  0  0  0  0  0  0  0  0  0  0
    1.8130   -0.5497   -0.7335 H   0  0  0  0  0  0  0  0  0  0  0  0
    0.1738   -0.2026    1.7812 H   0  0  0  0  0  0  0  0  0  0  0  0
    1.2666   -1.5261    1.2234 H   0  0  0  0  0  0  0  0  0  0  0  0
   -0.6213   -2.6338    0.6912 H   0  0  0  0  0  0  0  0  0  0  0  0
   -1.6928   -1.2398    0.6918 H   0  0  0  0  0  0  0  0  0  0  0  0
    0.5444   -2.0787   -1.2847 H   0  0  0  0  0  0  0  0  0  0  0  0
   -1.5664    1.6503   -1.3620 H   0  0  0  0  0  0  0  0  0  0  0  0
   -2.2516    0.4308   -0.3014 H   0  0  0  0  0  0  0  0  0  0  0  0
   -1.5268    1.5744    1.3018 H   0  0  0  0  0  0  0  0  0  0  0  0
  1  2  1  0
  2  3  1  0
  3  4  1  0
  4  5  1  0
  5  6  1  0
  6  7  1  0
  7  8  1  0
  8  9  1  0
  7  2  1  0
  7  5  1  0
  1 10  1  0
  1 11  1  0
  1 12  1  0
  2 13  1  0
  3 14  1  0
  3 15  1  0
  4 16  1  0
  4 17  1  0
  5 18  1  0
  8 19  1  0
  8 20  1  0
  9 21  1  0
M  END
