
     RDKit          3D

 23 23  0  0  0  0  0  0  0  0999 V2000
    2.3611    0.9224    0.0660 C   0  0  0  0  0  0  0  0  0  0  0  0
    1.4124   -0.1575   -0.3437 C   0  0  0  0  0  0  0  0  0  0  0  0
    1.0762   -0.9978    0.8881 C   0  0  0  0  0  0  0  0  0  0  0  0
   -0.3408   -1.3539    0.6344 C   0  0  0  0  0  0  0  0  0  0  0  0
   -0.8576   -2.4179    0.9020 O   0  0  0  0  0  0  0  0  0  0  0  0
   -0.9751   -0.1959    0.0129 C   0  0  0  0  0  0  0  0  0  0  0  0
   -2.2201   -0.5519   -0.7387 C   0  0  0  0  0  0  0  0  0  0  0  0
   -1.3210    0.8751    1.0214 C   0  0  0  0  0  0  0  0  0  0  0  0
    0.1094    0.3540   -0.8792 C   0  0  0  0  0  0  0  0  0  0  0  0
    2.3956    1.7819   -0.6414 H   0  0  0  0  0  0  0  0  0  0  0  0
    2.1765    1.2493    1.1115 H   0  0  0  0  0  0  0  0  0  0  0  0
    3.3939    0.4921    0.0533 H   0  0  0  0  0  0  0  0  0  0  0  0
    1.8926   -0.8024   -1.1218 H   0  0  0  0  0  0  0  0  0  0  0  0
    1.1027   -0.3323    1.7872 H   0  0  0  0  0  0  0  0  0  0  0  0
    1.7464   -1.8516    0.9696 H   0  0  0  0  0  0  0  0  0  0  0  0
   -2.6946    0.3405   -1.1709 H   0  0  0  0  0  0  0  0  0  0  0  0
   -2.9371   -0.9946   -0.0284 H   0  0  0  0  0  0  0  0  0  0  0  0
   -2.0582   -1.2988   -1.5388 H   0  0  0  0  0  0  0  0  0  0  0  0
   -1.9284    1.6417    0.4851 H   0  0  0  0  0  0  0  0  0  0  0  0
   -0.3864    1.3902    1.3584 H   0  0  0  0  0  0  0  0  0  0  0  0
   -1.9124    0.5050    1.8580 H   0  0  0  0  0  0  0  0  0  0  0  0
   -0.0875   -0.0443   -1.9092 H   0  0  0  0  0  0  0  0  0  0  0  0
    0.0524    1.4466   -0.9496 H   0  0  0  0  0  0  0  0  0  0  0  0
  1  2  1  0
  2  3  1  0
  3  4  1  0
  4  5  2  0
  4  6  1  0
  6  7  1  0
  6  8  1  0
  6  9  1  0
  9  2  1  0
  1 10  1  0
  1 11  1  0
  1 12  1  0
  2 13  1  0
  3 14  1  0
  3 15  1  0
  7 16  1  0
  7 17  1  0
  7 18  1  0
  8 19  1  0
  8 20  1  0
  8 21  1  0
  9 22  1  0
  9 23  1  0
M  END
