
     RDKit          3D

 20 20  0  0  0  0  0  0  0  0999 V2000
   -2.4442    0.5599   -0.2186 C   0  0  0  0  0  0  0  0  0  0  0  0
   -1.1886    0.1694    0.5036 C   0  0  0  0  0  0  0  0  0  0  0  0
   -0.7428   -1.2366    0.2166 C   0  0  0  0  0  0  0  0  0  0  0  0
    0.7913   -1.2119    0.2605 C   0  0  0  0  0  0  0  0  0  0  0  0
    1.1529    0.1866    0.6409 C   0  0  0  0  0  0  0  0  0  0  0  0
    2.4645    0.6592    0.1416 C   0  0  0  0  0  0  0  0  0  0  0  0
   -0.0052    0.9649    0.0642 C   0  0  0  0  0  0  0  0  0  0  0  0
    0.0459    1.9860   -0.5928 O   0  0  0  0  0  0  0  0  0  0  0  0
   -2.6145    1.6360   -0.0372 H   0  0  0  0  0  0  0  0  0  0  0  0
   -3.2823    0.0209    0.2699 H   0  0  0  0  0  0  0  0  0  0  0  0
   -2.4381    0.2934   -1.2911 H   0  0  0  0  0  0  0  0  0  0  0  0
   -1.3320    0.3706    1.5725 H   0  0  0  0  0  0  0  0  0  0  0  0
   -1.1578   -1.8868    1.0054 H   0  0  0  0  0  0  0  0  0  0  0  0
   -1.1011   -1.6204   -0.7493 H   0  0  0  0  0  0  0  0  0  0  0  0
    1.1518   -1.9642    0.9910 H   0  0  0  0  0  0  0  0  0  0  0  0
    1.2089   -1.5184   -0.7281 H   0  0  0  0  0  0  0  0  0  0  0  0
    1.0357    0.2776    1.7452 H   0  0  0  0  0  0  0  0  0  0  0  0
    2.7113    0.2284   -0.8264 H   0  0  0  0  0  0  0  0  0  0  0  0
    2.4927    1.7677    0.1733 H   0  0  0  0  0  0  0  0  0  0  0  0
    3.2517    0.3179    0.8668 H   0  0  0  0  0  0  0  0  0  0  0  0
  1  2  1  0
  2  3  1  0
  3  4  1  0
  4  5  1  0
  5  6  1  0
  5  7  1  0
  7  8  2  0
  7  2  1  0
  1  9  1  0
  1 10  1  0
  1 11  1  0
  2 12  1  0
  3 13  1  0
  3 14  1  0
  4 15  1  0
  4 16  1  0
  5 17  1  0
  6 18  1  0
  6 19  1  0
  6 20  1  0
M  END
