
     RDKit          3D

 19 21  0  0  0  0  0  0  0  0999 V2000
    2.4909   -0.5731    0.3678 C   0  0  0  0  0  0  0  0  0  0  0  0
    1.0413   -0.6563   -0.0720 C   0  0  0  0  0  0  0  0  0  0  0  0
    0.4614    0.5788   -0.5899 C   0  0  0  0  0  0  0  0  0  0  0  0
   -0.9047    0.6862   -1.1808 C   0  0  0  0  0  0  0  0  0  0  0  0
   -1.6220   -0.6178   -0.8174 C   0  0  0  0  0  0  0  0  0  0  0  0
   -1.4217   -0.0967    0.5794 C   0  0  0  0  0  0  0  0  0  0  0  0
   -1.6848    1.2634   -0.0346 C   0  0  0  0  0  0  0  0  0  0  0  0
   -2.2421    2.2865    0.2602 O   0  0  0  0  0  0  0  0  0  0  0  0
    0.0539   -0.0199    0.8050 C   0  0  0  0  0  0  0  0  0  0  0  0
    3.1217   -1.1865   -0.3367 H   0  0  0  0  0  0  0  0  0  0  0  0
    2.8429    0.4558    0.3767 H   0  0  0  0  0  0  0  0  0  0  0  0
    2.5544   -1.0917    1.3410 H   0  0  0  0  0  0  0  0  0  0  0  0
    0.8040   -1.6687   -0.4709 H   0  0  0  0  0  0  0  0  0  0  0  0
    1.0388    1.5096   -0.5621 H   0  0  0  0  0  0  0  0  0  0  0  0
   -1.0601    1.0864   -2.1483 H   0  0  0  0  0  0  0  0  0  0  0  0
   -2.6912   -0.5526   -1.0988 H   0  0  0  0  0  0  0  0  0  0  0  0
   -1.1258   -1.5325   -1.1042 H   0  0  0  0  0  0  0  0  0  0  0  0
   -2.0768   -0.4064    1.3596 H   0  0  0  0  0  0  0  0  0  0  0  0
    0.4201    0.5355    1.6745 H   0  0  0  0  0  0  0  0  0  0  0  0
  1  2  1  0
  2  3  1  0
  3  4  1  0
  4  5  1  0
  5  6  1  0
  6  7  1  0
  7  8  2  0
  6  9  1  0
  9  2  1  0
  9  3  1  0
  7  4  1  0
  1 10  1  0
  1 11  1  0
  1 12  1  0
  2 13  1  0
  3 14  1  0
  4 15  1  0
  5 16  1  0
  5 17  1  0
  6 18  1  0
  9 19  1  0
M  END
