
     RDKit          3D

 22 23  0  0  0  0  0  0  0  0999 V2000
   -2.1178    0.1419   -1.1715 C   0  0  0  0  0  0  0  0  0  0  0  0
   -1.0222    0.6282   -0.2512 C   0  0  0  0  0  0  0  0  0  0  0  0
   -1.4164    0.4816    1.2017 C   0  0  0  0  0  0  0  0  0  0  0  0
   -0.8332   -0.9335    1.1392 C   0  0  0  0  0  0  0  0  0  0  0  0
    0.0207   -0.4384   -0.0235 C   0  0  0  0  0  0  0  0  0  0  0  0
    1.3709    0.0132    0.3762 C   0  0  0  0  0  0  0  0  0  0  0  0
    2.2211    0.8977   -0.4245 C   0  0  0  0  0  0  0  0  0  0  0  0
    2.5310   -0.5953   -0.3918 C   0  0  0  0  0  0  0  0  0  0  0  0
   -1.8583   -0.8527   -1.5840 H   0  0  0  0  0  0  0  0  0  0  0  0
   -3.0769    0.0212   -0.6009 H   0  0  0  0  0  0  0  0  0  0  0  0
   -2.2762    0.8091   -2.0432 H   0  0  0  0  0  0  0  0  0  0  0  0
   -0.5406    1.5712   -0.5272 H   0  0  0  0  0  0  0  0  0  0  0  0
   -2.5063    0.4060    1.3517 H   0  0  0  0  0  0  0  0  0  0  0  0
   -0.8797    1.1603    1.8800 H   0  0  0  0  0  0  0  0  0  0  0  0
   -0.2290   -1.2099    2.0228 H   0  0  0  0  0  0  0  0  0  0  0  0
   -1.5668   -1.7057    0.8649 H   0  0  0  0  0  0  0  0  0  0  0  0
    0.0336   -1.1672   -0.8617 H   0  0  0  0  0  0  0  0  0  0  0  0
    1.5368    0.0537    1.4935 H   0  0  0  0  0  0  0  0  0  0  0  0
    2.9657    1.5239    0.0942 H   0  0  0  0  0  0  0  0  0  0  0  0
    1.9278    1.2938   -1.4147 H   0  0  0  0  0  0  0  0  0  0  0  0
    2.2930   -1.1770   -1.3196 H   0  0  0  0  0  0  0  0  0  0  0  0
    3.4228   -0.9220    0.1895 H   0  0  0  0  0  0  0  0  0  0  0  0
  1  2  1  0
  2  3  1  0
  3  4  1  0
  4  5  1  0
  5  6  1  0
  6  7  1  0
  7  8  1  0
  5  2  1  0
  8  6  1  0
  1  9  1  0
  1 10  1  0
  1 11  1  0
  2 12  1  0
  3 13  1  0
  3 14  1  0
  4 15  1  0
  4 16  1  0
  5 17  1  0
  6 18  1  0
  7 19  1  0
  7 20  1  0
  8 21  1  0
  8 22  1  0
M  END
