
     RDKit          3D

 25 26  0  0  0  0  0  0  0  0999 V2000
    2.3943    1.0245   -0.4219 C   0  0  0  0  0  0  0  0  0  0  0  0
    1.4569   -0.1120   -0.2393 C   0  0  0  0  0  0  0  0  0  0  0  0
    0.2447   -0.0803   -1.1052 C   0  0  0  0  0  0  0  0  0  0  0  0
   -0.9553   -0.0699   -0.1856 C   0  0  0  0  0  0  0  0  0  0  0  0
   -1.5457    1.3416   -0.2701 C   0  0  0  0  0  0  0  0  0  0  0  0
   -2.0371   -1.0223   -0.6589 C   0  0  0  0  0  0  0  0  0  0  0  0
   -0.4895   -0.3237    1.1939 C   0  0  0  0  0  0  0  0  0  0  0  0
    0.3449   -1.4663    1.5732 C   0  0  0  0  0  0  0  0  0  0  0  0
    0.9618   -0.1343    1.1697 C   0  0  0  0  0  0  0  0  0  0  0  0
    2.4923    1.6484    0.5022 H   0  0  0  0  0  0  0  0  0  0  0  0
    3.4262    0.6534   -0.6554 H   0  0  0  0  0  0  0  0  0  0  0  0
    2.0691    1.7436   -1.2166 H   0  0  0  0  0  0  0  0  0  0  0  0
    2.0049   -1.0796   -0.4088 H   0  0  0  0  0  0  0  0  0  0  0  0
    0.1540   -0.9670   -1.7762 H   0  0  0  0  0  0  0  0  0  0  0  0
    0.3000    0.8004   -1.7612 H   0  0  0  0  0  0  0  0  0  0  0  0
   -1.1834    1.8734   -1.1810 H   0  0  0  0  0  0  0  0  0  0  0  0
   -1.2309    1.9660    0.5886 H   0  0  0  0  0  0  0  0  0  0  0  0
   -2.6572    1.3006   -0.3788 H   0  0  0  0  0  0  0  0  0  0  0  0
   -3.0005   -0.6020   -0.2718 H   0  0  0  0  0  0  0  0  0  0  0  0
   -1.9404   -2.0195   -0.1820 H   0  0  0  0  0  0  0  0  0  0  0  0
   -2.0355   -1.1489   -1.7547 H   0  0  0  0  0  0  0  0  0  0  0  0
   -1.0829    0.1966    1.9941 H   0  0  0  0  0  0  0  0  0  0  0  0
    0.4237   -2.3259    0.8826 H   0  0  0  0  0  0  0  0  0  0  0  0
    0.4923   -1.7155    2.6185 H   0  0  0  0  0  0  0  0  0  0  0  0
    1.3934    0.5185    1.9446 H   0  0  0  0  0  0  0  0  0  0  0  0
  1  2  1  0
  2  3  1  0
  3  4  1  0
  4  5  1  0
  4  6  1  0
  4  7  1  0
  7  8  1  0
  8  9  1  0
  9  2  1  0
  9  7  1  0
  1 10  1  0
  1 11  1  0
  1 12  1  0
  2 13  1  0
  3 14  1  0
  3 15  1  0
  5 16  1  0
  5 17  1  0
  5 18  1  0
  6 19  1  0
  6 20  1  0
  6 21  1  0
  7 22  1  0
  8 23  1  0
  8 24  1  0
  9 25  1  0
M  END
