
     RDKit          3D

 23 23  0  0  0  0  0  0  0  0999 V2000
    2.6900    0.3303    0.4038 C   0  0  0  0  0  0  0  0  0  0  0  0
    1.3852    0.2427   -0.3086 C   0  0  0  0  0  0  0  0  0  0  0  0
    1.1063   -1.1999   -0.7538 C   0  0  0  0  0  0  0  0  0  0  0  0
   -0.2381   -1.1147   -1.0882 O   0  0  0  0  0  0  0  0  0  0  0  0
   -0.8685   -0.3227   -0.1742 C   0  0  0  0  0  0  0  0  0  0  0  0
   -1.8108   -1.0449    0.7386 C   0  0  0  0  0  0  0  0  0  0  0  0
   -1.6847    0.7809   -0.8643 C   0  0  0  0  0  0  0  0  0  0  0  0
   -2.2797    1.5216    0.1610 O   0  0  0  0  0  0  0  0  0  0  0  0
    0.1967    0.4020    0.6305 C   0  0  0  0  0  0  0  0  0  0  0  0
    2.6803   -0.2860    1.3083 H   0  0  0  0  0  0  0  0  0  0  0  0
    3.4771   -0.0877   -0.2781 H   0  0  0  0  0  0  0  0  0  0  0  0
    2.9551    1.3856    0.5605 H   0  0  0  0  0  0  0  0  0  0  0  0
    1.2600    0.9581   -1.1193 H   0  0  0  0  0  0  0  0  0  0  0  0
    1.1851   -1.8267    0.1505 H   0  0  0  0  0  0  0  0  0  0  0  0
    1.7406   -1.5026   -1.5774 H   0  0  0  0  0  0  0  0  0  0  0  0
   -2.7287   -1.3429    0.1803 H   0  0  0  0  0  0  0  0  0  0  0  0
   -2.1228   -0.3128    1.5370 H   0  0  0  0  0  0  0  0  0  0  0  0
   -1.3917   -1.9412    1.1948 H   0  0  0  0  0  0  0  0  0  0  0  0
   -0.9419    1.3885   -1.4280 H   0  0  0  0  0  0  0  0  0  0  0  0
   -2.4051    0.3327   -1.5542 H   0  0  0  0  0  0  0  0  0  0  0  0
   -2.5090    2.4334   -0.1116 H   0  0  0  0  0  0  0  0  0  0  0  0
    0.3566   -0.2271    1.5476 H   0  0  0  0  0  0  0  0  0  0  0  0
   -0.0519    1.4333    0.8448 H   0  0  0  0  0  0  0  0  0  0  0  0
  1  2  1  0
  2  3  1  0
  3  4  1  0
  4  5  1  0
  5  6  1  0
  5  7  1  0
  7  8  1  0
  5  9  1  0
  9  2  1  0
  1 10  1  0
  1 11  1  0
  1 12  1  0
  2 13  1  0
  3 14  1  0
  3 15  1  0
  6 16  1  0
  6 17  1  0
  6 18  1  0
  7 19  1  0
  7 20  1  0
  8 21  1  0
  9 22  1  0
  9 23  1  0
M  END
