
     RDKit          3D

 19 20  0  0  0  0  0  0  0  0999 V2000
   -2.2655   -0.0412   -0.0674 C   0  0  0  0  0  0  0  0  0  0  0  0
   -0.8719    0.1288    0.4474 C   0  0  0  0  0  0  0  0  0  0  0  0
   -0.5841    1.5190    0.8964 C   0  0  0  0  0  0  0  0  0  0  0  0
   -1.4380    2.3853    1.2099 O   0  0  0  0  0  0  0  0  0  0  0  0
    0.8101    1.6164    0.8831 O   0  0  0  0  0  0  0  0  0  0  0  0
    1.3497    0.7827   -0.1152 C   0  0  0  0  0  0  0  0  0  0  0  0
    1.9796   -0.4994    0.3826 C   0  0  0  0  0  0  0  0  0  0  0  0
    0.9707   -1.3186   -0.3806 C   0  0  0  0  0  0  0  0  0  0  0  0
    0.1844   -0.0611   -0.6241 C   0  0  0  0  0  0  0  0  0  0  0  0
   -2.8785   -0.4815    0.7458 H   0  0  0  0  0  0  0  0  0  0  0  0
   -2.3204   -0.7496   -0.9340 H   0  0  0  0  0  0  0  0  0  0  0  0
   -2.6791    0.9199   -0.4153 H   0  0  0  0  0  0  0  0  0  0  0  0
   -0.6476   -0.5243    1.3352 H   0  0  0  0  0  0  0  0  0  0  0  0
    1.9041    1.3035   -0.9196 H   0  0  0  0  0  0  0  0  0  0  0  0
    1.8857   -0.6722    1.4579 H   0  0  0  0  0  0  0  0  0  0  0  0
    2.9927   -0.6581   -0.0275 H   0  0  0  0  0  0  0  0  0  0  0  0
    1.3190   -1.7337   -1.3480 H   0  0  0  0  0  0  0  0  0  0  0  0
    0.4251   -2.0581    0.2247 H   0  0  0  0  0  0  0  0  0  0  0  0
   -0.1361    0.1423   -1.6447 H   0  0  0  0  0  0  0  0  0  0  0  0
  1  2  1  0
  2  3  1  0
  3  4  2  0
  3  5  1  0
  5  6  1  0
  6  7  1  0
  7  8  1  0
  8  9  1  0
  9  2  1  0
  9  6  1  0
  1 10  1  0
  1 11  1  0
  1 12  1  0
  2 13  1  0
  6 14  1  0
  7 15  1  0
  7 16  1  0
  8 17  1  0
  8 18  1  0
  9 19  1  0
M  END
