
     RDKit          3D

 20 20  0  0  0  0  0  0  0  0999 V2000
   -1.9090   -1.1146   -0.3428 C   0  0  0  0  0  0  0  0  0  0  0  0
   -0.4472   -0.7585   -0.4759 C   0  0  0  0  0  0  0  0  0  0  0  0
   -0.1389    0.7004   -0.4322 C   0  0  0  0  0  0  0  0  0  0  0  0
   -1.2145    1.6892   -0.0300 C   0  0  0  0  0  0  0  0  0  0  0  0
    0.2884   -0.2226    0.6966 C   0  0  0  0  0  0  0  0  0  0  0  0
    1.7528   -0.5548    0.8792 C   0  0  0  0  0  0  0  0  0  0  0  0
    2.5977   -0.1007   -0.2234 C   0  0  0  0  0  0  0  0  0  0  0  0
    3.3901    0.8130   -0.0971 O   0  0  0  0  0  0  0  0  0  0  0  0
   -2.2132   -1.0834    0.7209 H   0  0  0  0  0  0  0  0  0  0  0  0
   -2.5064   -0.3408   -0.8764 H   0  0  0  0  0  0  0  0  0  0  0  0
   -2.1332   -2.1239   -0.7576 H   0  0  0  0  0  0  0  0  0  0  0  0
    0.1003   -1.3977   -1.2259 H   0  0  0  0  0  0  0  0  0  0  0  0
    0.6308    1.0680   -1.1069 H   0  0  0  0  0  0  0  0  0  0  0  0
   -2.0989    1.6960   -0.6691 H   0  0  0  0  0  0  0  0  0  0  0  0
   -1.5771    1.5321    1.0206 H   0  0  0  0  0  0  0  0  0  0  0  0
   -0.7325    2.6862   -0.0237 H   0  0  0  0  0  0  0  0  0  0  0  0
   -0.2708   -0.2424    1.6446 H   0  0  0  0  0  0  0  0  0  0  0  0
    1.8883   -1.6319    1.0934 H   0  0  0  0  0  0  0  0  0  0  0  0
    2.0720   -0.0306    1.8224 H   0  0  0  0  0  0  0  0  0  0  0  0
    2.5212   -0.5829   -1.1829 H   0  0  0  0  0  0  0  0  0  0  0  0
  1  2  1  0
  2  3  1  0
  3  4  1  0
  3  5  1  0
  5  6  1  0
  6  7  1  0
  7  8  2  0
  5  2  1  0
  1  9  1  0
  1 10  1  0
  1 11  1  0
  2 12  1  0
  3 13  1  0
  4 14  1  0
  4 15  1  0
  4 16  1  0
  5 17  1  0
  6 18  1  0
  6 19  1  0
  7 20  1  0
M  END
