
     RDKit          3D

 17 17  0  0  0  0  0  0  0  0999 V2000
   -1.6016   -0.9656   -0.4476 C   0  0  0  0  0  0  0  0  0  0  0  0
   -1.0642    0.4386   -0.5048 C   0  0  0  0  0  0  0  0  0  0  0  0
   -1.4418    1.2265    0.6867 C   0  0  0  0  0  0  0  0  0  0  0  0
   -2.3465    2.0101    1.0253 O   0  0  0  0  0  0  0  0  0  0  0  0
   -0.3250    0.7212    1.3220 O   0  0  0  0  0  0  0  0  0  0  0  0
    0.3010    0.6473    0.0528 C   0  0  0  0  0  0  0  0  0  0  0  0
    1.2721   -0.4859   -0.1184 C   0  0  0  0  0  0  0  0  0  0  0  0
    2.5750   -0.1008    0.4962 C   0  0  0  0  0  0  0  0  0  0  0  0
    3.5353   -0.8527    0.4902 O   0  0  0  0  0  0  0  0  0  0  0  0
   -1.8790   -1.2562    0.5887 H   0  0  0  0  0  0  0  0  0  0  0  0
   -2.5571   -0.9710   -1.0245 H   0  0  0  0  0  0  0  0  0  0  0  0
   -0.9471   -1.7076   -0.9454 H   0  0  0  0  0  0  0  0  0  0  0  0
   -1.2829    0.9380   -1.4691 H   0  0  0  0  0  0  0  0  0  0  0  0
    0.7301    1.6073   -0.2221 H   0  0  0  0  0  0  0  0  0  0  0  0
    1.4291   -0.6725   -1.2039 H   0  0  0  0  0  0  0  0  0  0  0  0
    0.8969   -1.4427    0.3049 H   0  0  0  0  0  0  0  0  0  0  0  0
    2.7055    0.8662    0.9691 H   0  0  0  0  0  0  0  0  0  0  0  0
  1  2  1  0
  2  3  1  0
  3  4  2  0
  3  5  1  0
  5  6  1  0
  6  7  1  0
  7  8  1  0
  8  9  2  0
  6  2  1  0
  1 10  1  0
  1 11  1  0
  1 12  1  0
  2 13  1  0
  6 14  1  0
  7 15  1  0
  7 16  1  0
  8 17  1  0
M  END
