
     RDKit          3D

 23 24  0  0  0  0  0  0  0  0999 V2000
   -2.5962   -0.7291    0.2936 C   0  0  0  0  0  0  0  0  0  0  0  0
   -1.3637    0.0967    0.4984 C   0  0  0  0  0  0  0  0  0  0  0  0
   -1.1018    1.0666   -0.6264 C   0  0  0  0  0  0  0  0  0  0  0  0
    0.3964    1.1564   -0.7745 C   0  0  0  0  0  0  0  0  0  0  0  0
    1.1353    1.4181    0.4969 C   0  0  0  0  0  0  0  0  0  0  0  0
    0.9903    0.0393    0.0446 C   0  0  0  0  0  0  0  0  0  0  0  0
    2.1855   -0.7136   -0.5529 C   0  0  0  0  0  0  0  0  0  0  0  0
    2.5837   -1.6919    0.3409 O   0  0  0  0  0  0  0  0  0  0  0  0
   -0.1674   -0.8366    0.3746 C   0  0  0  0  0  0  0  0  0  0  0  0
   -2.3943   -1.8187    0.2278 H   0  0  0  0  0  0  0  0  0  0  0  0
   -3.1531   -0.4417   -0.6270 H   0  0  0  0  0  0  0  0  0  0  0  0
   -3.2472   -0.6059    1.2075 H   0  0  0  0  0  0  0  0  0  0  0  0
   -1.2922    0.5807    1.4703 H   0  0  0  0  0  0  0  0  0  0  0  0
   -1.5616    0.7387   -1.5722 H   0  0  0  0  0  0  0  0  0  0  0  0
   -1.5117    2.0765   -0.4017 H   0  0  0  0  0  0  0  0  0  0  0  0
    0.8573    1.3075   -1.7565 H   0  0  0  0  0  0  0  0  0  0  0  0
    2.1678    1.8437    0.4659 H   0  0  0  0  0  0  0  0  0  0  0  0
    0.5547    1.8040    1.3596 H   0  0  0  0  0  0  0  0  0  0  0  0
    2.9968    0.0044   -0.7561 H   0  0  0  0  0  0  0  0  0  0  0  0
    1.7996   -1.1593   -1.4956 H   0  0  0  0  0  0  0  0  0  0  0  0
    3.1652   -1.2357    1.0189 H   0  0  0  0  0  0  0  0  0  0  0  0
   -0.3772   -1.4733   -0.5236 H   0  0  0  0  0  0  0  0  0  0  0  0
   -0.0662   -1.4266    1.2877 H   0  0  0  0  0  0  0  0  0  0  0  0
  1  2  1  0
  2  3  1  0
  3  4  1  0
  4  5  1  0
  5  6  1  0
  6  7  1  0
  7  8  1  0
  6  9  1  0
  9  2  1  0
  6  4  1  0
  1 10  1  0
  1 11  1  0
  1 12  1  0
  2 13  1  0
  3 14  1  0
  3 15  1  0
  4 16  1  0
  5 17  1  0
  5 18  1  0
  7 19  1  0
  7 20  1  0
  8 21  1  0
  9 22  1  0
  9 23  1  0
M  END
