
     RDKit          3D

 20 20  0  0  0  0  0  0  0  0999 V2000
    2.2741   -0.2299   -0.5573 C   0  0  0  0  0  0  0  0  0  0  0  0
    1.1855    0.1559    0.4125 C   0  0  0  0  0  0  0  0  0  0  0  0
    0.2712   -1.0084    0.6860 C   0  0  0  0  0  0  0  0  0  0  0  0
   -0.4787   -1.2324   -0.4470 O   0  0  0  0  0  0  0  0  0  0  0  0
   -1.2821   -0.1450   -0.7936 C   0  0  0  0  0  0  0  0  0  0  0  0
   -2.4780   -0.0170    0.1303 C   0  0  0  0  0  0  0  0  0  0  0  0
   -0.6055    1.0237   -0.9584 O   0  0  0  0  0  0  0  0  0  0  0  0
    0.3650    1.3118   -0.0526 C   0  0  0  0  0  0  0  0  0  0  0  0
    2.8396    0.6555   -0.8811 H   0  0  0  0  0  0  0  0  0  0  0  0
    2.9624   -0.9304   -0.0260 H   0  0  0  0  0  0  0  0  0  0  0  0
    1.8544   -0.7609   -1.4470 H   0  0  0  0  0  0  0  0  0  0  0  0
    1.6685    0.4208    1.3793 H   0  0  0  0  0  0  0  0  0  0  0  0
   -0.3731   -0.7347    1.5310 H   0  0  0  0  0  0  0  0  0  0  0  0
    0.8860   -1.8976    0.8705 H   0  0  0  0  0  0  0  0  0  0  0  0
   -1.7145   -0.4245   -1.8012 H   0  0  0  0  0  0  0  0  0  0  0  0
   -2.4679   -0.9184    0.7921 H   0  0  0  0  0  0  0  0  0  0  0  0
   -3.4403   -0.0277   -0.4064 H   0  0  0  0  0  0  0  0  0  0  0  0
   -2.4564    0.9013    0.7378 H   0  0  0  0  0  0  0  0  0  0  0  0
    1.0780    2.0405   -0.5410 H   0  0  0  0  0  0  0  0  0  0  0  0
   -0.0883    1.8174    0.8504 H   0  0  0  0  0  0  0  0  0  0  0  0
  1  2  1  0
  2  3  1  0
  3  4  1  0
  4  5  1  0
  5  6  1  0
  5  7  1  0
  7  8  1  0
  8  2  1  0
  1  9  1  0
  1 10  1  0
  1 11  1  0
  2 12  1  0
  3 13  1  0
  3 14  1  0
  5 15  1  0
  6 16  1  0
  6 17  1  0
  6 18  1  0
  8 19  1  0
  8 20  1  0
M  END
