
     RDKit          3D

 21 21  0  0  0  0  0  0  0  0999 V2000
   -2.2690   -1.3846    0.3133 C   0  0  0  0  0  0  0  0  0  0  0  0
   -1.0477   -0.5306    0.3966 C   0  0  0  0  0  0  0  0  0  0  0  0
   -1.2710    0.8110   -0.3119 C   0  0  0  0  0  0  0  0  0  0  0  0
    0.1742    1.3025   -0.2446 C   0  0  0  0  0  0  0  0  0  0  0  0
    0.4390    2.2405   -1.2217 O   0  0  0  0  0  0  0  0  0  0  0  0
    0.9269    0.0042   -0.4532 C   0  0  0  0  0  0  0  0  0  0  0  0
    2.0024   -0.1646    0.6007 C   0  0  0  0  0  0  0  0  0  0  0  0
    2.6131   -1.4102    0.3538 O   0  0  0  0  0  0  0  0  0  0  0  0
    0.0211   -1.0222   -0.3390 O   0  0  0  0  0  0  0  0  0  0  0  0
   -3.1175   -0.7878    0.7489 H   0  0  0  0  0  0  0  0  0  0  0  0
   -2.1007   -2.2918    0.9142 H   0  0  0  0  0  0  0  0  0  0  0  0
   -2.5026   -1.5760   -0.7346 H   0  0  0  0  0  0  0  0  0  0  0  0
   -0.6949   -0.3643    1.4321 H   0  0  0  0  0  0  0  0  0  0  0  0
   -1.9618    1.4541    0.2213 H   0  0  0  0  0  0  0  0  0  0  0  0
   -1.5557    0.5860   -1.3587 H   0  0  0  0  0  0  0  0  0  0  0  0
    0.3242    1.6705    0.7826 H   0  0  0  0  0  0  0  0  0  0  0  0
    1.4089    2.4257   -1.1840 H   0  0  0  0  0  0  0  0  0  0  0  0
    1.3995   -0.0176   -1.4598 H   0  0  0  0  0  0  0  0  0  0  0  0
    2.7584    0.6136    0.5332 H   0  0  0  0  0  0  0  0  0  0  0  0
    1.4983   -0.2204    1.6020 H   0  0  0  0  0  0  0  0  0  0  0  0
    2.9548   -1.3381   -0.5912 H   0  0  0  0  0  0  0  0  0  0  0  0
  1  2  1  0
  2  3  1  0
  3  4  1  0
  4  5  1  0
  4  6  1  0
  6  7  1  0
  7  8  1  0
  6  9  1  0
  9  2  1  0
  1 10  1  0
  1 11  1  0
  1 12  1  0
  2 13  1  0
  3 14  1  0
  3 15  1  0
  4 16  1  0
  5 17  1  0
  6 18  1  0
  7 19  1  0
  7 20  1  0
  8 21  1  0
M  END
