
     RDKit          3D

 21 22  0  0  0  0  0  0  0  0999 V2000
   -1.5878   -1.3148    0.5177 C   0  0  0  0  0  0  0  0  0  0  0  0
   -0.6965   -0.6013   -0.4699 C   0  0  0  0  0  0  0  0  0  0  0  0
   -0.7077    0.8908   -0.3006 C   0  0  0  0  0  0  0  0  0  0  0  0
   -1.2307    1.2395    0.9268 O   0  0  0  0  0  0  0  0  0  0  0  0
    0.7060    1.3526   -0.5124 C   0  0  0  0  0  0  0  0  0  0  0  0
    1.1965    1.9509    0.6703 O   0  0  0  0  0  0  0  0  0  0  0  0
    1.5236    0.1159   -0.7439 C   0  0  0  0  0  0  0  0  0  0  0  0
    1.7164   -0.7275    0.5087 C   0  0  0  0  0  0  0  0  0  0  0  0
    0.7031   -1.0711   -0.4816 C   0  0  0  0  0  0  0  0  0  0  0  0
   -1.0482   -1.6134    1.4212 H   0  0  0  0  0  0  0  0  0  0  0  0
   -2.4036   -0.5921    0.7791 H   0  0  0  0  0  0  0  0  0  0  0  0
   -2.1196   -2.1705    0.0210 H   0  0  0  0  0  0  0  0  0  0  0  0
   -1.1438   -0.8060   -1.4869 H   0  0  0  0  0  0  0  0  0  0  0  0
   -1.3354    1.4087   -1.0750 H   0  0  0  0  0  0  0  0  0  0  0  0
   -2.1917    1.4836    0.8560 H   0  0  0  0  0  0  0  0  0  0  0  0
    0.8122    2.0809   -1.3276 H   0  0  0  0  0  0  0  0  0  0  0  0
    0.5196    1.8981    1.3876 H   0  0  0  0  0  0  0  0  0  0  0  0
    2.2481    0.0549   -1.5602 H   0  0  0  0  0  0  0  0  0  0  0  0
    2.6456   -1.3344    0.5060 H   0  0  0  0  0  0  0  0  0  0  0  0
    1.5137   -0.2592    1.4833 H   0  0  0  0  0  0  0  0  0  0  0  0
    0.8801   -1.9856   -1.1196 H   0  0  0  0  0  0  0  0  0  0  0  0
  1  2  1  0
  2  3  1  0
  3  4  1  0
  3  5  1  0
  5  6  1  0
  5  7  1  0
  7  8  1  0
  8  9  1  0
  9  2  1  0
  9  7  1  0
  1 10  1  0
  1 11  1  0
  1 12  1  0
  2 13  1  0
  3 14  1  0
  4 15  1  0
  5 16  1  0
  6 17  1  0
  7 18  1  0
  8 19  1  0
  8 20  1  0
  9 21  1  0
M  END
