
     RDKit          3D

 23 23  0  0  0  0  0  0  0  0999 V2000
    3.1277   -0.0990    0.4091 C   0  0  0  0  0  0  0  0  0  0  0  0
    1.7493    0.0381   -0.1758 C   0  0  0  0  0  0  0  0  0  0  0  0
    0.8216    1.1021    0.3364 C   0  0  0  0  0  0  0  0  0  0  0  0
    0.5455   -0.3084    0.7254 C   0  0  0  0  0  0  0  0  0  0  0  0
   -0.5501   -1.0317    0.0378 C   0  0  0  0  0  0  0  0  0  0  0  0
   -0.2119   -2.2129   -0.5917 O   0  0  0  0  0  0  0  0  0  0  0  0
   -1.6439   -0.2761   -0.5973 C   0  0  0  0  0  0  0  0  0  0  0  0
   -2.4712    0.5176    0.3688 C   0  0  0  0  0  0  0  0  0  0  0  0
   -1.8432    1.4548    1.1280 O   0  0  0  0  0  0  0  0  0  0  0  0
    3.8469    0.1382   -0.3885 H   0  0  0  0  0  0  0  0  0  0  0  0
    3.2729    0.6437    1.2157 H   0  0  0  0  0  0  0  0  0  0  0  0
    3.3509   -1.1454    0.7444 H   0  0  0  0  0  0  0  0  0  0  0  0
    1.6718   -0.2403   -1.2505 H   0  0  0  0  0  0  0  0  0  0  0  0
    0.1550    1.5612   -0.4536 H   0  0  0  0  0  0  0  0  0  0  0  0
    1.2704    1.8274    1.0089 H   0  0  0  0  0  0  0  0  0  0  0  0
    0.8605   -0.6246    1.7271 H   0  0  0  0  0  0  0  0  0  0  0  0
   -1.1562   -1.5092    0.9786 H   0  0  0  0  0  0  0  0  0  0  0  0
   -0.5277   -2.2685   -1.5168 H   0  0  0  0  0  0  0  0  0  0  0  0
   -1.3248    0.3301   -1.4806 H   0  0  0  0  0  0  0  0  0  0  0  0
   -2.3553   -1.0471   -1.0271 H   0  0  0  0  0  0  0  0  0  0  0  0
   -3.2891    1.0226   -0.2397 H   0  0  0  0  0  0  0  0  0  0  0  0
   -3.0368   -0.2195    1.0014 H   0  0  0  0  0  0  0  0  0  0  0  0
   -2.2623    2.3468    1.0551 H   0  0  0  0  0  0  0  0  0  0  0  0
  1  2  1  0
  2  3  1  0
  3  4  1  0
  4  5  1  0
  5  6  1  0
  5  7  1  0
  7  8  1  0
  8  9  1  0
  4  2  1  0
  1 10  1  0
  1 11  1  0
  1 12  1  0
  2 13  1  0
  3 14  1  0
  3 15  1  0
  4 16  1  0
  5 17  1  0
  6 18  1  0
  7 19  1  0
  7 20  1  0
  8 21  1  0
  8 22  1  0
  9 23  1  0
M  END
