
     RDKit          3D

 21 22  0  0  0  0  0  0  0  0999 V2000
    2.0536    1.0544   -0.1123 C   0  0  0  0  0  0  0  0  0  0  0  0
    1.0092   -0.0036    0.1440 C   0  0  0  0  0  0  0  0  0  0  0  0
   -0.1397    0.4353    1.0160 C   0  0  0  0  0  0  0  0  0  0  0  0
   -0.7952   -0.8051    1.5001 C   0  0  0  0  0  0  0  0  0  0  0  0
   -1.0286   -1.7483    0.5980 C   0  0  0  0  0  0  0  0  0  0  0  0
   -0.6376   -1.5450   -0.8490 C   0  0  0  0  0  0  0  0  0  0  0  0
    0.0075   -0.1979   -0.9700 C   0  0  0  0  0  0  0  0  0  0  0  0
   -0.8665    0.8216   -0.2711 C   0  0  0  0  0  0  0  0  0  0  0  0
   -0.7034    2.1275   -0.6596 O   0  0  0  0  0  0  0  0  0  0  0  0
    1.5474    2.0496   -0.0338 H   0  0  0  0  0  0  0  0  0  0  0  0
    2.5803    0.9261   -1.0678 H   0  0  0  0  0  0  0  0  0  0  0  0
    2.7792    1.0086    0.7245 H   0  0  0  0  0  0  0  0  0  0  0  0
    1.4694   -0.9509    0.4654 H   0  0  0  0  0  0  0  0  0  0  0  0
    0.0353    1.2278    1.7263 H   0  0  0  0  0  0  0  0  0  0  0  0
   -1.0589   -0.9116    2.5357 H   0  0  0  0  0  0  0  0  0  0  0  0
   -1.5093   -2.6787    0.9155 H   0  0  0  0  0  0  0  0  0  0  0  0
   -1.5782   -1.5207   -1.4239 H   0  0  0  0  0  0  0  0  0  0  0  0
    0.0268   -2.3847   -1.1263 H   0  0  0  0  0  0  0  0  0  0  0  0
    0.3517    0.0817   -1.9698 H   0  0  0  0  0  0  0  0  0  0  0  0
   -1.9420    0.4917   -0.2447 H   0  0  0  0  0  0  0  0  0  0  0  0
   -1.6010    2.5222   -0.8972 H   0  0  0  0  0  0  0  0  0  0  0  0
  1  2  1  0
  2  3  1  0
  3  4  1  0
  4  5  2  0
  5  6  1  0
  6  7  1  0
  7  8  1  0
  8  9  1  0
  7  2  1  0
  8  3  1  0
  1 10  1  0
  1 11  1  0
  1 12  1  0
  2 13  1  0
  3 14  1  0
  4 15  1  0
  5 16  1  0
  6 17  1  0
  6 18  1  0
  7 19  1  0
  8 20  1  0
  9 21  1  0
M  END
