
     RDKit          3D

 23 25  0  0  0  0  0  0  0  0999 V2000
   -2.2488    0.3780   -1.0752 C   0  0  0  0  0  0  0  0  0  0  0  0
   -1.9731   -0.0714    0.3146 C   0  0  0  0  0  0  0  0  0  0  0  0
   -1.2566   -1.4350    0.3552 C   0  0  0  0  0  0  0  0  0  0  0  0
   -0.7226   -0.1469    1.0197 C   0  0  0  0  0  0  0  0  0  0  0  0
    0.6318    0.2174    0.5828 C   0  0  0  0  0  0  0  0  0  0  0  0
    1.1528    1.5001    0.1427 C   0  0  0  0  0  0  0  0  0  0  0  0
    2.0577    0.8260   -0.8967 C   0  0  0  0  0  0  0  0  0  0  0  0
    1.4495   -0.4914   -0.3972 C   0  0  0  0  0  0  0  0  0  0  0  0
    1.7623   -0.7596    1.0103 C   0  0  0  0  0  0  0  0  0  0  0  0
   -3.0518    1.1516   -1.1422 H   0  0  0  0  0  0  0  0  0  0  0  0
   -2.6761   -0.5128   -1.6205 H   0  0  0  0  0  0  0  0  0  0  0  0
   -1.4083    0.7294   -1.6537 H   0  0  0  0  0  0  0  0  0  0  0  0
   -2.9199   -0.0678    0.8996 H   0  0  0  0  0  0  0  0  0  0  0  0
   -1.6767   -2.2170    1.0121 H   0  0  0  0  0  0  0  0  0  0  0  0
   -0.7627   -1.7964   -0.5478 H   0  0  0  0  0  0  0  0  0  0  0  0
   -0.8148   -0.1779    2.1351 H   0  0  0  0  0  0  0  0  0  0  0  0
    0.5614    2.2438   -0.3611 H   0  0  0  0  0  0  0  0  0  0  0  0
    1.7770    1.9971    0.9420 H   0  0  0  0  0  0  0  0  0  0  0  0
    3.1351    0.8560   -0.5924 H   0  0  0  0  0  0  0  0  0  0  0  0
    1.8339    1.0591   -1.9331 H   0  0  0  0  0  0  0  0  0  0  0  0
    1.1072   -1.2216   -1.1183 H   0  0  0  0  0  0  0  0  0  0  0  0
    1.4111   -1.7491    1.4053 H   0  0  0  0  0  0  0  0  0  0  0  0
    2.6314   -0.3116    1.5188 H   0  0  0  0  0  0  0  0  0  0  0  0
  1  2  1  0
  2  3  1  0
  3  4  1  0
  4  5  1  0
  5  6  1  0
  6  7  1  0
  7  8  1  0
  8  9  1  0
  4  2  1  0
  8  5  1  0
  9  5  1  0
  1 10  1  0
  1 11  1  0
  1 12  1  0
  2 13  1  0
  3 14  1  0
  3 15  1  0
  4 16  1  0
  6 17  1  0
  6 18  1  0
  7 19  1  0
  7 20  1  0
  8 21  1  0
  9 22  1  0
  9 23  1  0
M  END
