
     RDKit          3D

 23 24  0  0  0  0  0  0  0  0999 V2000
    2.1379   -0.0248    0.3826 C   0  0  0  0  0  0  0  0  0  0  0  0
    0.9830   -0.2170   -0.5164 C   0  0  0  0  0  0  0  0  0  0  0  0
    0.0662   -1.3780   -0.1111 C   0  0  0  0  0  0  0  0  0  0  0  0
   -0.3195   -1.0759    1.2924 C   0  0  0  0  0  0  0  0  0  0  0  0
   -0.5459    0.4467    1.1718 C   0  0  0  0  0  0  0  0  0  0  0  0
   -0.2401    0.6125   -0.2946 C   0  0  0  0  0  0  0  0  0  0  0  0
   -0.4015    1.8969   -0.9358 C   0  0  0  0  0  0  0  0  0  0  0  0
   -1.0033   -0.5895   -0.8821 C   0  0  0  0  0  0  0  0  0  0  0  0
   -2.2805   -0.7419   -0.4095 O   0  0  0  0  0  0  0  0  0  0  0  0
    2.0301    0.7045    1.1767 H   0  0  0  0  0  0  0  0  0  0  0  0
    3.0155    0.3083   -0.2463 H   0  0  0  0  0  0  0  0  0  0  0  0
    2.4178   -1.0243    0.8270 H   0  0  0  0  0  0  0  0  0  0  0  0
    1.2354   -0.2625   -1.6039 H   0  0  0  0  0  0  0  0  0  0  0  0
    0.3059   -2.3476   -0.4426 H   0  0  0  0  0  0  0  0  0  0  0  0
   -1.3117   -1.5410    1.5535 H   0  0  0  0  0  0  0  0  0  0  0  0
    0.4283   -1.2953    2.0514 H   0  0  0  0  0  0  0  0  0  0  0  0
   -1.5838    0.7126    1.4385 H   0  0  0  0  0  0  0  0  0  0  0  0
    0.1214    0.9999    1.8345 H   0  0  0  0  0  0  0  0  0  0  0  0
    0.3192    2.1378   -1.7274 H   0  0  0  0  0  0  0  0  0  0  0  0
   -1.4215    2.0233   -1.4046 H   0  0  0  0  0  0  0  0  0  0  0  0
   -0.3479    2.7250   -0.1785 H   0  0  0  0  0  0  0  0  0  0  0  0
   -0.8335   -0.7379   -1.9557 H   0  0  0  0  0  0  0  0  0  0  0  0
   -2.7714   -1.3320   -1.0199 H   0  0  0  0  0  0  0  0  0  0  0  0
  1  2  1  0
  2  3  1  0
  3  4  1  0
  4  5  1  0
  5  6  1  0
  6  7  1  0
  6  8  1  0
  8  9  1  0
  6  2  1  0
  8  3  1  0
  1 10  1  0
  1 11  1  0
  1 12  1  0
  2 13  1  0
  3 14  1  0
  4 15  1  0
  4 16  1  0
  5 17  1  0
  5 18  1  0
  7 19  1  0
  7 20  1  0
  7 21  1  0
  8 22  1  0
  9 23  1  0
M  END
