
     RDKit          3D

 19 19  0  0  0  0  0  0  0  0999 V2000
   -0.6388    1.6014    0.8848 C   0  0  0  0  0  0  0  0  0  0  0  0
   -0.6440    0.5804   -0.1959 C   0  0  0  0  0  0  0  0  0  0  0  0
   -1.3863   -0.7014    0.0964 C   0  0  0  0  0  0  0  0  0  0  0  0
   -2.5756   -0.8509   -0.6047 O   0  0  0  0  0  0  0  0  0  0  0  0
   -0.2669   -1.4481   -0.5936 C   0  0  0  0  0  0  0  0  0  0  0  0
    0.6015   -0.1947   -0.4346 C   0  0  0  0  0  0  0  0  0  0  0  0
    1.4993   -0.3359    0.6190 O   0  0  0  0  0  0  0  0  0  0  0  0
    2.8756   -0.1846    0.4477 C   0  0  0  0  0  0  0  0  0  0  0  0
    3.3178    0.0910   -0.7094 O   0  0  0  0  0  0  0  0  0  0  0  0
   -1.1234    1.2575    1.8310 H   0  0  0  0  0  0  0  0  0  0  0  0
    0.3542    2.0111    1.1323 H   0  0  0  0  0  0  0  0  0  0  0  0
   -1.2659    2.4839    0.5601 H   0  0  0  0  0  0  0  0  0  0  0  0
   -1.0287    0.9908   -1.1752 H   0  0  0  0  0  0  0  0  0  0  0  0
   -1.4994   -0.9389    1.1791 H   0  0  0  0  0  0  0  0  0  0  0  0
   -2.6010   -0.1478   -1.2963 H   0  0  0  0  0  0  0  0  0  0  0  0
   -0.4310   -1.6675   -1.6534 H   0  0  0  0  0  0  0  0  0  0  0  0
    0.0884   -2.2977    0.0228 H   0  0  0  0  0  0  0  0  0  0  0  0
    1.1483    0.0481   -1.3901 H   0  0  0  0  0  0  0  0  0  0  0  0
    3.5759   -0.2968    1.2799 H   0  0  0  0  0  0  0  0  0  0  0  0
  1  2  1  0
  2  3  1  0
  3  4  1  0
  3  5  1  0
  5  6  1  0
  6  7  1  0
  7  8  1  0
  8  9  2  0
  6  2  1  0
  1 10  1  0
  1 11  1  0
  1 12  1  0
  2 13  1  0
  3 14  1  0
  4 15  1  0
  5 16  1  0
  5 17  1  0
  6 18  1  0
  8 19  1  0
M  END
