
     RDKit          3D

 21 22  0  0  0  0  0  0  0  0999 V2000
   -2.1702   -0.9659   -0.1062 C   0  0  0  0  0  0  0  0  0  0  0  0
   -1.0913   -0.0014    0.3718 C   0  0  0  0  0  0  0  0  0  0  0  0
   -1.2708    1.3644   -0.2484 C   0  0  0  0  0  0  0  0  0  0  0  0
    0.1098    1.8972   -0.2663 C   0  0  0  0  0  0  0  0  0  0  0  0
    0.9595    0.9116   -0.2697 C   0  0  0  0  0  0  0  0  0  0  0  0
    2.3460    0.4930   -0.2824 C   0  0  0  0  0  0  0  0  0  0  0  0
    2.4735   -0.7136    0.2413 C   0  0  0  0  0  0  0  0  0  0  0  0
    1.1324   -1.1783    0.6462 C   0  0  0  0  0  0  0  0  0  0  0  0
    0.2256   -0.4118   -0.2421 C   0  0  0  0  0  0  0  0  0  0  0  0
   -2.4513   -1.6728    0.6894 H   0  0  0  0  0  0  0  0  0  0  0  0
   -1.7980   -1.4952   -1.0080 H   0  0  0  0  0  0  0  0  0  0  0  0
   -3.0262   -0.3256   -0.4182 H   0  0  0  0  0  0  0  0  0  0  0  0
   -1.0092    0.0044    1.4547 H   0  0  0  0  0  0  0  0  0  0  0  0
   -1.5874    1.1997   -1.2975 H   0  0  0  0  0  0  0  0  0  0  0  0
   -1.9695    2.0024    0.3182 H   0  0  0  0  0  0  0  0  0  0  0  0
    0.3931    2.9524   -0.2755 H   0  0  0  0  0  0  0  0  0  0  0  0
    3.1982    1.0723   -0.6652 H   0  0  0  0  0  0  0  0  0  0  0  0
    3.4078   -1.2868    0.3623 H   0  0  0  0  0  0  0  0  0  0  0  0
    1.0186   -2.2788    0.5703 H   0  0  0  0  0  0  0  0  0  0  0  0
    0.9475   -0.8235    1.6955 H   0  0  0  0  0  0  0  0  0  0  0  0
    0.1620   -0.7438   -1.2703 H   0  0  0  0  0  0  0  0  0  0  0  0
  1  2  1  0
  2  3  1  0
  3  4  1  0
  4  5  2  0
  5  6  1  0
  6  7  2  0
  7  8  1  0
  8  9  1  0
  9  2  1  0
  9  5  1  0
  1 10  1  0
  1 11  1  0
  1 12  1  0
  2 13  1  0
  3 14  1  0
  3 15  1  0
  4 16  1  0
  6 17  1  0
  7 18  1  0
  8 19  1  0
  8 20  1  0
  9 21  1  0
M  END
