
     RDKit          3D

 20 21  0  0  0  0  0  0  0  0999 V2000
   -0.9027   -1.8181   -0.2924 C   0  0  0  0  0  0  0  0  0  0  0  0
   -0.9561   -0.4496    0.2833 C   0  0  0  0  0  0  0  0  0  0  0  0
    0.3026    0.1259    0.8350 C   0  0  0  0  0  0  0  0  0  0  0  0
    1.5076   -0.5956    0.2372 C   0  0  0  0  0  0  0  0  0  0  0  0
    2.6381    0.0212    0.8212 O   0  0  0  0  0  0  0  0  0  0  0  0
    0.1158    1.4443    0.1697 C   0  0  0  0  0  0  0  0  0  0  0  0
   -1.2040    1.9863   -0.2036 C   0  0  0  0  0  0  0  0  0  0  0  0
   -0.8768    0.6800   -0.7556 C   0  0  0  0  0  0  0  0  0  0  0  0
   -0.3409   -2.5548    0.2926 H   0  0  0  0  0  0  0  0  0  0  0  0
   -0.5285   -1.7909   -1.3534 H   0  0  0  0  0  0  0  0  0  0  0  0
   -1.9660   -2.1954   -0.3508 H   0  0  0  0  0  0  0  0  0  0  0  0
   -1.8041   -0.2864    0.9797 H   0  0  0  0  0  0  0  0  0  0  0  0
    0.3894    0.1832    1.9342 H   0  0  0  0  0  0  0  0  0  0  0  0
    1.5350   -0.3846   -0.8554 H   0  0  0  0  0  0  0  0  0  0  0  0
    1.4931   -1.6788    0.4681 H   0  0  0  0  0  0  0  0  0  0  0  0
    3.3394    0.0969    0.1205 H   0  0  0  0  0  0  0  0  0  0  0  0
    0.9882    1.8989   -0.2947 H   0  0  0  0  0  0  0  0  0  0  0  0
   -2.0294    2.0026    0.5672 H   0  0  0  0  0  0  0  0  0  0  0  0
   -1.2432    2.8407   -0.8720 H   0  0  0  0  0  0  0  0  0  0  0  0
   -0.4576    0.4741   -1.7308 H   0  0  0  0  0  0  0  0  0  0  0  0
  1  2  1  0
  2  3  1  0
  3  4  1  0
  4  5  1  0
  3  6  1  0
  6  7  1  0
  7  8  1  0
  8  2  1  0
  8  6  1  0
  1  9  1  0
  1 10  1  0
  1 11  1  0
  2 12  1  0
  3 13  1  0
  4 14  1  0
  4 15  1  0
  5 16  1  0
  6 17  1  0
  7 18  1  0
  7 19  1  0
  8 20  1  0
M  END
