
     RDKit          3D

 18 21  0  0  0  0  0  0  0  0999 V2000
    2.1056    0.2069    0.1040 C   0  0  0  0  0  0  0  0  0  0  0  0
    0.7570    0.4018   -0.5712 C   0  0  0  0  0  0  0  0  0  0  0  0
    0.0477   -0.9150   -0.7837 C   0  0  0  0  0  0  0  0  0  0  0  0
   -1.3604   -0.6056   -0.7892 C   0  0  0  0  0  0  0  0  0  0  0  0
   -0.6661   -1.1559    0.4652 C   0  0  0  0  0  0  0  0  0  0  0  0
   -0.8839    0.1418    1.1161 C   0  0  0  0  0  0  0  0  0  0  0  0
   -0.1979    1.1502    0.3196 C   0  0  0  0  0  0  0  0  0  0  0  0
   -1.5228    0.6872   -0.0917 C   0  0  0  0  0  0  0  0  0  0  0  0
    2.5192   -0.7696   -0.2388 H   0  0  0  0  0  0  0  0  0  0  0  0
    2.7650    1.0460   -0.2217 H   0  0  0  0  0  0  0  0  0  0  0  0
    1.9719    0.2464    1.2068 H   0  0  0  0  0  0  0  0  0  0  0  0
    0.8870    0.9061   -1.5601 H   0  0  0  0  0  0  0  0  0  0  0  0
    0.5449   -1.7540   -1.2656 H   0  0  0  0  0  0  0  0  0  0  0  0
   -2.1802   -1.2309   -1.1235 H   0  0  0  0  0  0  0  0  0  0  0  0
   -0.9670   -2.1169    0.8600 H   0  0  0  0  0  0  0  0  0  0  0  0
   -1.3698    0.2945    2.0705 H   0  0  0  0  0  0  0  0  0  0  0  0
   -0.0220    2.1849    0.6077 H   0  0  0  0  0  0  0  0  0  0  0  0
   -2.4281    1.2822   -0.1043 H   0  0  0  0  0  0  0  0  0  0  0  0
  1  2  1  0
  2  3  1  0
  3  4  1  0
  4  5  1  0
  5  6  1  0
  6  7  1  0
  7  8  1  0
  7  2  1  0
  5  3  1  0
  8  6  1  0
  8  4  1  0
  1  9  1  0
  1 10  1  0
  1 11  1  0
  2 12  1  0
  3 13  1  0
  4 14  1  0
  5 15  1  0
  6 16  1  0
  7 17  1  0
  8 18  1  0
M  END
