
     RDKit          3D

 19 19  0  0  0  0  0  0  0  0999 V2000
    1.6797   -0.4638    0.8011 C   0  0  0  0  0  0  0  0  0  0  0  0
    0.8309   -0.0157   -0.3269 C   0  0  0  0  0  0  0  0  0  0  0  0
    0.6375    1.4447   -0.5328 C   0  0  0  0  0  0  0  0  0  0  0  0
   -0.6914    1.1715   -0.9149 O   0  0  0  0  0  0  0  0  0  0  0  0
   -0.6518    0.0441   -0.0986 C   0  0  0  0  0  0  0  0  0  0  0  0
   -1.1035    0.3929    1.2838 C   0  0  0  0  0  0  0  0  0  0  0  0
   -1.3129   -1.1865   -0.6622 C   0  0  0  0  0  0  0  0  0  0  0  0
    1.0973   -1.0861    1.5255 H   0  0  0  0  0  0  0  0  0  0  0  0
    2.4978   -1.1403    0.4322 H   0  0  0  0  0  0  0  0  0  0  0  0
    2.1832    0.3326    1.3667 H   0  0  0  0  0  0  0  0  0  0  0  0
    1.0662   -0.5329   -1.2714 H   0  0  0  0  0  0  0  0  0  0  0  0
    0.7481    2.0927    0.3417 H   0  0  0  0  0  0  0  0  0  0  0  0
    1.1491    1.8878   -1.4313 H   0  0  0  0  0  0  0  0  0  0  0  0
   -0.6410    1.3282    1.6255 H   0  0  0  0  0  0  0  0  0  0  0  0
   -2.2077    0.6067    1.2194 H   0  0  0  0  0  0  0  0  0  0  0  0
   -1.0089   -0.4334    2.0103 H   0  0  0  0  0  0  0  0  0  0  0  0
   -0.9182   -1.2964   -1.7130 H   0  0  0  0  0  0  0  0  0  0  0  0
   -2.4012   -1.0734   -0.6325 H   0  0  0  0  0  0  0  0  0  0  0  0
   -0.9532   -2.0728   -0.1146 H   0  0  0  0  0  0  0  0  0  0  0  0
  1  2  1  0
  2  3  1  0
  3  4  1  0
  4  5  1  0
  5  6  1  0
  5  7  1  0
  5  2  1  0
  1  8  1  0
  1  9  1  0
  1 10  1  0
  2 11  1  0
  3 12  1  0
  3 13  1  0
  6 14  1  0
  6 15  1  0
  6 16  1  0
  7 17  1  0
  7 18  1  0
  7 19  1  0
M  END
