
     RDKit          3D

 23 23  0  0  0  0  0  0  0  0999 V2000
   -2.5632    0.1244   -0.6000 C   0  0  0  0  0  0  0  0  0  0  0  0
   -1.6214   -0.2884    0.5172 C   0  0  0  0  0  0  0  0  0  0  0  0
   -0.9141    0.8909    1.1189 C   0  0  0  0  0  0  0  0  0  0  0  0
    0.4075    1.1891    0.5463 C   0  0  0  0  0  0  0  0  0  0  0  0
    1.2253    0.1261    0.3888 C   0  0  0  0  0  0  0  0  0  0  0  0
    2.5731    0.1954   -0.1572 C   0  0  0  0  0  0  0  0  0  0  0  0
    2.9407    1.4821   -0.5055 O   0  0  0  0  0  0  0  0  0  0  0  0
    0.6395   -1.1741    0.8171 C   0  0  0  0  0  0  0  0  0  0  0  0
   -0.6403   -1.3149    0.0239 C   0  0  0  0  0  0  0  0  0  0  0  0
   -3.5980    0.0597   -0.2176 H   0  0  0  0  0  0  0  0  0  0  0  0
   -2.4761   -0.6253   -1.4271 H   0  0  0  0  0  0  0  0  0  0  0  0
   -2.3456    1.1573   -0.9615 H   0  0  0  0  0  0  0  0  0  0  0  0
   -2.2103   -0.8189    1.3271 H   0  0  0  0  0  0  0  0  0  0  0  0
   -0.7445    0.7001    2.2183 H   0  0  0  0  0  0  0  0  0  0  0  0
   -1.5718    1.8008    1.1089 H   0  0  0  0  0  0  0  0  0  0  0  0
    0.7622    2.1710    0.2504 H   0  0  0  0  0  0  0  0  0  0  0  0
    2.6922   -0.4892   -1.0465 H   0  0  0  0  0  0  0  0  0  0  0  0
    3.2873   -0.1278    0.6558 H   0  0  0  0  0  0  0  0  0  0  0  0
    3.9265    1.4431   -0.7201 H   0  0  0  0  0  0  0  0  0  0  0  0
    0.3793   -1.0417    1.9076 H   0  0  0  0  0  0  0  0  0  0  0  0
    1.3316   -2.0077    0.6639 H   0  0  0  0  0  0  0  0  0  0  0  0
   -0.4350   -1.1076   -1.0481 H   0  0  0  0  0  0  0  0  0  0  0  0
   -1.0449   -2.3443    0.0626 H   0  0  0  0  0  0  0  0  0  0  0  0
  1  2  1  0
  2  3  1  0
  3  4  1  0
  4  5  2  0
  5  6  1  0
  6  7  1  0
  5  8  1  0
  8  9  1  0
  9  2  1  0
  1 10  1  0
  1 11  1  0
  1 12  1  0
  2 13  1  0
  3 14  1  0
  3 15  1  0
  4 16  1  0
  6 17  1  0
  6 18  1  0
  7 19  1  0
  8 20  1  0
  8 21  1  0
  9 22  1  0
  9 23  1  0
M  END
