
     RDKit          3D

 21 22  0  0  0  0  0  0  0  0999 V2000
    2.6394    0.1618    0.2978 C   0  0  0  0  0  0  0  0  0  0  0  0
    1.1648    0.0761   -0.1143 C   0  0  0  0  0  0  0  0  0  0  0  0
    0.6289   -1.3076    0.1262 C   0  0  0  0  0  0  0  0  0  0  0  0
   -0.3763   -1.2710    1.0657 O   0  0  0  0  0  0  0  0  0  0  0  0
   -1.6089   -0.9467    0.5854 C   0  0  0  0  0  0  0  0  0  0  0  0
   -1.8375    0.4565    0.2119 C   0  0  0  0  0  0  0  0  0  0  0  0
   -1.2769    0.9356   -1.1321 C   0  0  0  0  0  0  0  0  0  0  0  0
   -0.7304    1.3787    0.1694 C   0  0  0  0  0  0  0  0  0  0  0  0
    0.4807    0.9796    0.6524 O   0  0  0  0  0  0  0  0  0  0  0  0
    3.2426   -0.5085   -0.3178 H   0  0  0  0  0  0  0  0  0  0  0  0
    2.7180   -0.0179    1.3893 H   0  0  0  0  0  0  0  0  0  0  0  0
    2.9135    1.2456    0.1536 H   0  0  0  0  0  0  0  0  0  0  0  0
    1.1249    0.3955   -1.1665 H   0  0  0  0  0  0  0  0  0  0  0  0
    0.2306   -1.7891   -0.7975 H   0  0  0  0  0  0  0  0  0  0  0  0
    1.4582   -1.9851    0.4654 H   0  0  0  0  0  0  0  0  0  0  0  0
   -1.8289   -1.6096   -0.3022 H   0  0  0  0  0  0  0  0  0  0  0  0
   -2.3660   -1.2780    1.3558 H   0  0  0  0  0  0  0  0  0  0  0  0
   -2.8824    0.8356    0.4136 H   0  0  0  0  0  0  0  0  0  0  0  0
   -0.8189    0.1544   -1.7364 H   0  0  0  0  0  0  0  0  0  0  0  0
   -1.9129    1.6355   -1.7322 H   0  0  0  0  0  0  0  0  0  0  0  0
   -0.9625    2.4587    0.4123 H   0  0  0  0  0  0  0  0  0  0  0  0
  1  2  1  0
  2  3  1  0
  3  4  1  0
  4  5  1  0
  5  6  1  0
  6  7  1  0
  7  8  1  0
  8  9  1  0
  9  2  1  0
  8  6  1  0
  1 10  1  0
  1 11  1  0
  1 12  1  0
  2 13  1  0
  3 14  1  0
  3 15  1  0
  5 16  1  0
  5 17  1  0
  6 18  1  0
  7 19  1  0
  7 20  1  0
  8 21  1  0
M  END
