
     RDKit          3D

 21 22  0  0  0  0  0  0  0  0999 V2000
    2.1323    0.9789   -0.4234 C   0  0  0  0  0  0  0  0  0  0  0  0
    1.2731    0.1340    0.4575 C   0  0  0  0  0  0  0  0  0  0  0  0
    0.8376   -1.1780   -0.1880 C   0  0  0  0  0  0  0  0  0  0  0  0
    1.0038   -2.2754    0.6625 O   0  0  0  0  0  0  0  0  0  0  0  0
   -0.1361   -0.1334    0.1353 C   0  0  0  0  0  0  0  0  0  0  0  0
   -0.8476    0.6937   -0.8651 C   0  0  0  0  0  0  0  0  0  0  0  0
   -2.3172    0.4566   -0.4958 C   0  0  0  0  0  0  0  0  0  0  0  0
   -2.2952    0.2947    0.8992 O   0  0  0  0  0  0  0  0  0  0  0  0
   -1.1632   -0.4556    1.1773 C   0  0  0  0  0  0  0  0  0  0  0  0
    3.1854    0.5774   -0.3445 H   0  0  0  0  0  0  0  0  0  0  0  0
    1.8697    0.8152   -1.5076 H   0  0  0  0  0  0  0  0  0  0  0  0
    2.1176    2.0463   -0.2118 H   0  0  0  0  0  0  0  0  0  0  0  0
    1.5389    0.1438    1.5259 H   0  0  0  0  0  0  0  0  0  0  0  0
    1.0790   -1.3589   -1.2473 H   0  0  0  0  0  0  0  0  0  0  0  0
    0.7772   -1.9858    1.6028 H   0  0  0  0  0  0  0  0  0  0  0  0
   -0.6391    0.4645   -1.9079 H   0  0  0  0  0  0  0  0  0  0  0  0
   -0.6465    1.7879   -0.6729 H   0  0  0  0  0  0  0  0  0  0  0  0
   -2.9092    1.3246   -0.7914 H   0  0  0  0  0  0  0  0  0  0  0  0
   -2.6270   -0.4777   -0.9953 H   0  0  0  0  0  0  0  0  0  0  0  0
   -1.4614   -1.5318    1.0078 H   0  0  0  0  0  0  0  0  0  0  0  0
   -0.7720   -0.3210    2.1828 H   0  0  0  0  0  0  0  0  0  0  0  0
  1  2  1  0
  2  3  1  0
  3  4  1  0
  3  5  1  0
  5  6  1  0
  6  7  1  0
  7  8  1  0
  8  9  1  0
  5  2  1  0
  9  5  1  0
  1 10  1  0
  1 11  1  0
  1 12  1  0
  2 13  1  0
  3 14  1  0
  4 15  1  0
  6 16  1  0
  6 17  1  0
  7 18  1  0
  7 19  1  0
  9 20  1  0
  9 21  1  0
M  END
