
     RDKit          3D

 25 25  0  0  0  0  0  0  0  0999 V2000
   -0.0741    2.0533   -0.3606 C   0  0  0  0  0  0  0  0  0  0  0  0
   -0.3684    0.7306    0.3323 C   0  0  0  0  0  0  0  0  0  0  0  0
   -1.6432    0.1966   -0.2266 C   0  0  0  0  0  0  0  0  0  0  0  0
   -1.8868   -1.1694    0.3210 C   0  0  0  0  0  0  0  0  0  0  0  0
   -0.6557   -2.0159    0.1945 C   0  0  0  0  0  0  0  0  0  0  0  0
    0.4858   -1.4517    0.6791 O   0  0  0  0  0  0  0  0  0  0  0  0
    0.7975   -0.2101    0.2072 C   0  0  0  0  0  0  0  0  0  0  0  0
    1.9138    0.3491    1.0910 C   0  0  0  0  0  0  0  0  0  0  0  0
    1.3363   -0.2342   -1.2143 C   0  0  0  0  0  0  0  0  0  0  0  0
    0.9797    2.0460   -0.6604 H   0  0  0  0  0  0  0  0  0  0  0  0
   -0.2731    2.8722    0.3419 H   0  0  0  0  0  0  0  0  0  0  0  0
   -0.7148    2.1895   -1.2451 H   0  0  0  0  0  0  0  0  0  0  0  0
   -0.5229    0.8939    1.4379 H   0  0  0  0  0  0  0  0  0  0  0  0
   -1.6911    0.2386   -1.3245 H   0  0  0  0  0  0  0  0  0  0  0  0
   -2.4708    0.8586    0.1428 H   0  0  0  0  0  0  0  0  0  0  0  0
   -2.7048   -1.6920   -0.2397 H   0  0  0  0  0  0  0  0  0  0  0  0
   -2.2397   -1.0957    1.3845 H   0  0  0  0  0  0  0  0  0  0  0  0
   -0.8486   -2.9474    0.8031 H   0  0  0  0  0  0  0  0  0  0  0  0
   -0.5791   -2.3892   -0.8568 H   0  0  0  0  0  0  0  0  0  0  0  0
    2.8657    0.4510    0.5312 H   0  0  0  0  0  0  0  0  0  0  0  0
    2.1311   -0.3209    1.9473 H   0  0  0  0  0  0  0  0  0  0  0  0
    1.6689    1.3551    1.4777 H   0  0  0  0  0  0  0  0  0  0  0  0
    0.7427    0.4308   -1.8914 H   0  0  0  0  0  0  0  0  0  0  0  0
    1.3732   -1.2810   -1.5973 H   0  0  0  0  0  0  0  0  0  0  0  0
    2.3785    0.1421   -1.2746 H   0  0  0  0  0  0  0  0  0  0  0  0
  1  2  1  0
  2  3  1  0
  3  4  1  0
  4  5  1  0
  5  6  1  0
  6  7  1  0
  7  8  1  0
  7  9  1  0
  7  2  1  0
  1 10  1  0
  1 11  1  0
  1 12  1  0
  2 13  1  0
  3 14  1  0
  3 15  1  0
  4 16  1  0
  4 17  1  0
  5 18  1  0
  5 19  1  0
  8 20  1  0
  8 21  1  0
  8 22  1  0
  9 23  1  0
  9 24  1  0
  9 25  1  0
M  END
