
     RDKit          3D

 25 25  0  0  0  0  0  0  0  0999 V2000
    2.0446    0.9481   -0.2085 C   0  0  0  0  0  0  0  0  0  0  0  0
    1.2281   -0.0848    0.5800 C   0  0  0  0  0  0  0  0  0  0  0  0
    1.2066   -1.4110   -0.0715 C   0  0  0  0  0  0  0  0  0  0  0  0
    0.0375   -1.6641   -0.9766 C   0  0  0  0  0  0  0  0  0  0  0  0
   -1.2870   -1.5246   -0.3103 C   0  0  0  0  0  0  0  0  0  0  0  0
   -1.8502   -0.2692   -0.5083 O   0  0  0  0  0  0  0  0  0  0  0  0
   -1.0234    0.7643   -0.1488 C   0  0  0  0  0  0  0  0  0  0  0  0
   -1.9285    1.9365    0.2558 C   0  0  0  0  0  0  0  0  0  0  0  0
   -0.1085    0.4556    0.9837 C   0  0  0  0  0  0  0  0  0  0  0  0
    2.0179    0.7314   -1.2892 H   0  0  0  0  0  0  0  0  0  0  0  0
    3.1220    0.9066    0.0863 H   0  0  0  0  0  0  0  0  0  0  0  0
    1.7111    1.9785    0.0116 H   0  0  0  0  0  0  0  0  0  0  0  0
    1.8093   -0.2086    1.5414 H   0  0  0  0  0  0  0  0  0  0  0  0
    2.1289   -1.4998   -0.7081 H   0  0  0  0  0  0  0  0  0  0  0  0
    1.2812   -2.2762    0.6433 H   0  0  0  0  0  0  0  0  0  0  0  0
    0.1346   -2.7253   -1.3321 H   0  0  0  0  0  0  0  0  0  0  0  0
    0.1176   -1.0386   -1.8772 H   0  0  0  0  0  0  0  0  0  0  0  0
   -1.2536   -1.8236    0.7539 H   0  0  0  0  0  0  0  0  0  0  0  0
   -2.0033   -2.2527   -0.7943 H   0  0  0  0  0  0  0  0  0  0  0  0
   -0.4537    1.1147   -1.0191 H   0  0  0  0  0  0  0  0  0  0  0  0
   -1.9071    2.0754    1.3628 H   0  0  0  0  0  0  0  0  0  0  0  0
   -2.9780    1.7547   -0.0194 H   0  0  0  0  0  0  0  0  0  0  0  0
   -1.6132    2.8761   -0.2185 H   0  0  0  0  0  0  0  0  0  0  0  0
   -0.5334   -0.1996    1.7568 H   0  0  0  0  0  0  0  0  0  0  0  0
    0.1005    1.4362    1.5062 H   0  0  0  0  0  0  0  0  0  0  0  0
  1  2  1  0
  2  3  1  0
  3  4  1  0
  4  5  1  0
  5  6  1  0
  6  7  1  0
  7  8  1  0
  7  9  1  0
  9  2  1  0
  1 10  1  0
  1 11  1  0
  1 12  1  0
  2 13  1  0
  3 14  1  0
  3 15  1  0
  4 16  1  0
  4 17  1  0
  5 18  1  0
  5 19  1  0
  7 20  1  0
  8 21  1  0
  8 22  1  0
  8 23  1  0
  9 24  1  0
  9 25  1  0
M  END
