
     RDKit          3D

 23 24  0  0  0  0  0  0  0  0999 V2000
   -2.1124   -1.1189   -0.1141 C   0  0  0  0  0  0  0  0  0  0  0  0
   -1.4528    0.1227    0.4044 C   0  0  0  0  0  0  0  0  0  0  0  0
   -0.2727   -0.3238    1.2957 C   0  0  0  0  0  0  0  0  0  0  0  0
    0.7467    0.6457    0.8545 C   0  0  0  0  0  0  0  0  0  0  0  0
    1.7813    0.6325   -0.0901 C   0  0  0  0  0  0  0  0  0  0  0  0
    2.8626   -0.4471    0.0629 C   0  0  0  0  0  0  0  0  0  0  0  0
    0.5559    0.3040   -0.6810 C   0  0  0  0  0  0  0  0  0  0  0  0
   -0.7894    0.9245   -0.7380 C   0  0  0  0  0  0  0  0  0  0  0  0
   -1.3731    0.6267   -1.9571 O   0  0  0  0  0  0  0  0  0  0  0  0
   -1.9667   -1.2700   -1.2113 H   0  0  0  0  0  0  0  0  0  0  0  0
   -1.7152   -2.0555    0.3570 H   0  0  0  0  0  0  0  0  0  0  0  0
   -3.1864   -1.0681    0.1674 H   0  0  0  0  0  0  0  0  0  0  0  0
   -2.1189    0.8067    0.9312 H   0  0  0  0  0  0  0  0  0  0  0  0
   -0.0230   -1.3860    1.1051 H   0  0  0  0  0  0  0  0  0  0  0  0
   -0.5842   -0.1943    2.3526 H   0  0  0  0  0  0  0  0  0  0  0  0
    0.3969    1.6840    1.1587 H   0  0  0  0  0  0  0  0  0  0  0  0
    2.2817    1.5935   -0.3975 H   0  0  0  0  0  0  0  0  0  0  0  0
    2.3266   -1.3406    0.4679 H   0  0  0  0  0  0  0  0  0  0  0  0
    3.1782   -0.6789   -0.9853 H   0  0  0  0  0  0  0  0  0  0  0  0
    3.6711   -0.1178    0.7098 H   0  0  0  0  0  0  0  0  0  0  0  0
    0.4249   -0.8010   -0.9131 H   0  0  0  0  0  0  0  0  0  0  0  0
   -0.8136    1.9984   -0.4885 H   0  0  0  0  0  0  0  0  0  0  0  0
   -1.8176    1.4633   -2.2911 H   0  0  0  0  0  0  0  0  0  0  0  0
  1  2  1  0
  2  3  1  0
  3  4  1  0
  4  5  1  0
  5  6  1  0
  5  7  1  0
  7  8  1  0
  8  9  1  0
  8  2  1  0
  7  4  1  0
  1 10  1  0
  1 11  1  0
  1 12  1  0
  2 13  1  0
  3 14  1  0
  3 15  1  0
  4 16  1  0
  5 17  1  0
  6 18  1  0
  6 19  1  0
  6 20  1  0
  7 21  1  0
  8 22  1  0
  9 23  1  0
M  END
