
     RDKit          3D

 19 20  0  0  0  0  0  0  0  0999 V2000
    2.1353    0.7285    0.1459 C   0  0  0  0  0  0  0  0  0  0  0  0
    1.5456   -0.6010   -0.2315 C   0  0  0  0  0  0  0  0  0  0  0  0
    0.5428   -1.2828    0.6037 C   0  0  0  0  0  0  0  0  0  0  0  0
   -0.4066   -0.6095    1.3257 O   0  0  0  0  0  0  0  0  0  0  0  0
   -0.9703   -0.0867    0.1703 C   0  0  0  0  0  0  0  0  0  0  0  0
   -1.1510    1.4077    0.2026 C   0  0  0  0  0  0  0  0  0  0  0  0
   -2.2617   -0.7538   -0.2355 C   0  0  0  0  0  0  0  0  0  0  0  0
   -2.7468   -1.6669    0.4083 O   0  0  0  0  0  0  0  0  0  0  0  0
    0.1427   -0.5983   -0.6927 C   0  0  0  0  0  0  0  0  0  0  0  0
    1.4259    1.4467    0.5503 H   0  0  0  0  0  0  0  0  0  0  0  0
    2.5528    1.1674   -0.8076 H   0  0  0  0  0  0  0  0  0  0  0  0
    3.0027    0.6390    0.8237 H   0  0  0  0  0  0  0  0  0  0  0  0
    2.2531   -1.2642   -0.7673 H   0  0  0  0  0  0  0  0  0  0  0  0
    0.4634   -2.3746    0.5603 H   0  0  0  0  0  0  0  0  0  0  0  0
   -0.8521    1.8425    1.1945 H   0  0  0  0  0  0  0  0  0  0  0  0
   -2.2362    1.6976    0.0967 H   0  0  0  0  0  0  0  0  0  0  0  0
   -0.6172    1.8773   -0.6327 H   0  0  0  0  0  0  0  0  0  0  0  0
   -2.7254   -0.3648   -1.1366 H   0  0  0  0  0  0  0  0  0  0  0  0
   -0.0970   -1.2040   -1.5780 H   0  0  0  0  0  0  0  0  0  0  0  0
  1  2  1  0
  2  3  1  0
  3  4  1  0
  4  5  1  0
  5  6  1  0
  5  7  1  0
  7  8  2  0
  5  9  1  0
  9  2  1  0
  9  3  1  0
  1 10  1  0
  1 11  1  0
  1 12  1  0
  2 13  1  0
  3 14  1  0
  6 15  1  0
  6 16  1  0
  6 17  1  0
  7 18  1  0
  9 19  1  0
M  END
