
     RDKit          3D

 23 24  0  0  0  0  0  0  0  0999 V2000
   -1.7343    1.6949   -0.4040 C   0  0  0  0  0  0  0  0  0  0  0  0
   -0.9628    0.6214    0.2965 C   0  0  0  0  0  0  0  0  0  0  0  0
   -0.9612   -0.7142   -0.4389 C   0  0  0  0  0  0  0  0  0  0  0  0
   -1.4080   -1.8812    0.3915 C   0  0  0  0  0  0  0  0  0  0  0  0
    0.2620    0.0281   -0.2148 C   0  0  0  0  0  0  0  0  0  0  0  0
    1.3214   -0.3517    0.7723 C   0  0  0  0  0  0  0  0  0  0  0  0
    2.6058   -0.0761    0.0229 C   0  0  0  0  0  0  0  0  0  0  0  0
    2.2091   -0.2247   -1.3120 O   0  0  0  0  0  0  0  0  0  0  0  0
    1.0450    0.5714   -1.3669 C   0  0  0  0  0  0  0  0  0  0  0  0
   -1.4452    1.6541   -1.4853 H   0  0  0  0  0  0  0  0  0  0  0  0
   -1.6492    2.6891    0.0368 H   0  0  0  0  0  0  0  0  0  0  0  0
   -2.8224    1.4128   -0.3948 H   0  0  0  0  0  0  0  0  0  0  0  0
   -1.1127    0.6046    1.3973 H   0  0  0  0  0  0  0  0  0  0  0  0
   -1.3573   -0.7392   -1.4826 H   0  0  0  0  0  0  0  0  0  0  0  0
   -1.1253   -2.8592   -0.0786 H   0  0  0  0  0  0  0  0  0  0  0  0
   -1.1453   -1.8160    1.4480 H   0  0  0  0  0  0  0  0  0  0  0  0
   -2.5376   -1.8799    0.3536 H   0  0  0  0  0  0  0  0  0  0  0  0
    1.2818    0.4154    1.5975 H   0  0  0  0  0  0  0  0  0  0  0  0
    1.2521   -1.3793    1.1489 H   0  0  0  0  0  0  0  0  0  0  0  0
    3.0037    0.9474    0.2252 H   0  0  0  0  0  0  0  0  0  0  0  0
    3.3762   -0.7958    0.3246 H   0  0  0  0  0  0  0  0  0  0  0  0
    0.5555    0.4482   -2.3477 H   0  0  0  0  0  0  0  0  0  0  0  0
    1.3484    1.6299   -1.1822 H   0  0  0  0  0  0  0  0  0  0  0  0
  1  2  1  0
  2  3  1  0
  3  4  1  0
  3  5  1  0
  5  6  1  0
  6  7  1  0
  7  8  1  0
  8  9  1  0
  5  2  1  0
  9  5  1  0
  1 10  1  0
  1 11  1  0
  1 12  1  0
  2 13  1  0
  3 14  1  0
  4 15  1  0
  4 16  1  0
  4 17  1  0
  6 18  1  0
  6 19  1  0
  7 20  1  0
  7 21  1  0
  9 22  1  0
  9 23  1  0
M  END
