
     RDKit          3D

 23 24  0  0  0  0  0  0  0  0999 V2000
    2.5823    0.2557   -0.2257 C   0  0  0  0  0  0  0  0  0  0  0  0
    1.1739    0.7602   -0.4836 C   0  0  0  0  0  0  0  0  0  0  0  0
    0.4871    1.0322    0.8465 C   0  0  0  0  0  0  0  0  0  0  0  0
    0.0239   -0.3926    1.1958 C   0  0  0  0  0  0  0  0  0  0  0  0
   -0.6722   -0.7075   -0.0707 C   0  0  0  0  0  0  0  0  0  0  0  0
    0.3107   -0.3145   -1.1326 C   0  0  0  0  0  0  0  0  0  0  0  0
   -1.8152   -1.5555   -0.2682 C   0  0  0  0  0  0  0  0  0  0  0  0
   -2.0796   -0.0763   -0.1451 C   0  0  0  0  0  0  0  0  0  0  0  0
   -2.3441    0.6757   -1.2762 O   0  0  0  0  0  0  0  0  0  0  0  0
    2.9271    0.7805    0.7036 H   0  0  0  0  0  0  0  0  0  0  0  0
    3.2322    0.6340   -1.0375 H   0  0  0  0  0  0  0  0  0  0  0  0
    2.6120   -0.8289   -0.1348 H   0  0  0  0  0  0  0  0  0  0  0  0
    1.1719    1.6861   -1.0930 H   0  0  0  0  0  0  0  0  0  0  0  0
   -0.4143    1.6067    0.6399 H   0  0  0  0  0  0  0  0  0  0  0  0
    1.1552    1.4396    1.5993 H   0  0  0  0  0  0  0  0  0  0  0  0
   -0.6357   -0.3593    2.0886 H   0  0  0  0  0  0  0  0  0  0  0  0
    0.9280   -1.0109    1.3903 H   0  0  0  0  0  0  0  0  0  0  0  0
   -0.1461    0.0312   -2.0639 H   0  0  0  0  0  0  0  0  0  0  0  0
    0.9911   -1.1851   -1.3466 H   0  0  0  0  0  0  0  0  0  0  0  0
   -2.1424   -2.2407    0.5359 H   0  0  0  0  0  0  0  0  0  0  0  0
   -1.9981   -1.9485   -1.2860 H   0  0  0  0  0  0  0  0  0  0  0  0
   -2.5688    0.1977    0.8076 H   0  0  0  0  0  0  0  0  0  0  0  0
   -2.7789    1.5202   -0.9574 H   0  0  0  0  0  0  0  0  0  0  0  0
  1  2  1  0
  2  3  1  0
  3  4  1  0
  4  5  1  0
  5  6  1  0
  5  7  1  0
  7  8  1  0
  8  9  1  0
  6  2  1  0
  8  5  1  0
  1 10  1  0
  1 11  1  0
  1 12  1  0
  2 13  1  0
  3 14  1  0
  3 15  1  0
  4 16  1  0
  4 17  1  0
  6 18  1  0
  6 19  1  0
  7 20  1  0
  7 21  1  0
  8 22  1  0
  9 23  1  0
M  END
