
     RDKit          3D

 25 26  0  0  0  0  0  0  0  0999 V2000
   -2.0453   -0.1702    1.4426 C   0  0  0  0  0  0  0  0  0  0  0  0
   -1.9737    0.2033    0.0014 C   0  0  0  0  0  0  0  0  0  0  0  0
   -1.4200   -0.9098   -0.8869 C   0  0  0  0  0  0  0  0  0  0  0  0
   -0.7395    0.3749   -0.7713 C   0  0  0  0  0  0  0  0  0  0  0  0
    0.5976    0.6261   -0.2020 C   0  0  0  0  0  0  0  0  0  0  0  0
    0.6512    1.9226    0.6068 C   0  0  0  0  0  0  0  0  0  0  0  0
    1.6748    0.4485   -1.2982 C   0  0  0  0  0  0  0  0  0  0  0  0
    1.7167   -0.2556    0.0063 C   0  0  0  0  0  0  0  0  0  0  0  0
    1.6608   -1.7533    0.0935 C   0  0  0  0  0  0  0  0  0  0  0  0
   -2.4801    0.6603    2.0604 H   0  0  0  0  0  0  0  0  0  0  0  0
   -1.1335   -0.5037    1.9049 H   0  0  0  0  0  0  0  0  0  0  0  0
   -2.7926   -1.0029    1.5336 H   0  0  0  0  0  0  0  0  0  0  0  0
   -2.9005    0.7226   -0.3235 H   0  0  0  0  0  0  0  0  0  0  0  0
   -2.0885   -1.1476   -1.7587 H   0  0  0  0  0  0  0  0  0  0  0  0
   -1.0682   -1.8431   -0.4123 H   0  0  0  0  0  0  0  0  0  0  0  0
   -0.8743    1.0039   -1.6989 H   0  0  0  0  0  0  0  0  0  0  0  0
    1.0905    2.7093   -0.0613 H   0  0  0  0  0  0  0  0  0  0  0  0
    1.3477    1.8315    1.4570 H   0  0  0  0  0  0  0  0  0  0  0  0
   -0.3253    2.2568    0.9414 H   0  0  0  0  0  0  0  0  0  0  0  0
    2.2438    1.3719   -1.5016 H   0  0  0  0  0  0  0  0  0  0  0  0
    1.4750   -0.1603   -2.1696 H   0  0  0  0  0  0  0  0  0  0  0  0
    2.5688    0.1153    0.6147 H   0  0  0  0  0  0  0  0  0  0  0  0
    2.6199   -2.2127    0.3522 H   0  0  0  0  0  0  0  0  0  0  0  0
    1.2597   -2.2324   -0.8222 H   0  0  0  0  0  0  0  0  0  0  0  0
    0.9351   -2.0554    0.8916 H   0  0  0  0  0  0  0  0  0  0  0  0
  1  2  1  0
  2  3  1  0
  3  4  1  0
  4  5  1  0
  5  6  1  0
  5  7  1  0
  7  8  1  0
  8  9  1  0
  4  2  1  0
  8  5  1  0
  1 10  1  0
  1 11  1  0
  1 12  1  0
  2 13  1  0
  3 14  1  0
  3 15  1  0
  4 16  1  0
  6 17  1  0
  6 18  1  0
  6 19  1  0
  7 20  1  0
  7 21  1  0
  8 22  1  0
  9 23  1  0
  9 24  1  0
  9 25  1  0
M  END
