
     RDKit          3D

 17 18  0  0  0  0  0  0  0  0999 V2000
    2.0865    0.4443    0.1783 C   0  0  0  0  0  0  0  0  0  0  0  0
    0.8731   -0.1387   -0.4789 C   0  0  0  0  0  0  0  0  0  0  0  0
   -0.1815    0.9136   -0.5464 C   0  0  0  0  0  0  0  0  0  0  0  0
   -0.0735    2.1266   -0.5619 O   0  0  0  0  0  0  0  0  0  0  0  0
   -1.4731    0.1699   -0.5948 C   0  0  0  0  0  0  0  0  0  0  0  0
   -2.5208    0.8987   -0.0334 O   0  0  0  0  0  0  0  0  0  0  0  0
   -1.1941   -1.1070    0.1698 C   0  0  0  0  0  0  0  0  0  0  0  0
   -0.5445   -2.1222   -0.5433 O   0  0  0  0  0  0  0  0  0  0  0  0
    0.2075   -1.2067    0.3300 C   0  0  0  0  0  0  0  0  0  0  0  0
    2.5592    1.1353   -0.5706 H   0  0  0  0  0  0  0  0  0  0  0  0
    1.7248    1.1277    0.9930 H   0  0  0  0  0  0  0  0  0  0  0  0
    2.8056   -0.3074    0.5435 H   0  0  0  0  0  0  0  0  0  0  0  0
    1.0873   -0.4923   -1.5230 H   0  0  0  0  0  0  0  0  0  0  0  0
   -1.6592   -0.0419   -1.6801 H   0  0  0  0  0  0  0  0  0  0  0  0
   -2.4565    1.8136   -0.4509 H   0  0  0  0  0  0  0  0  0  0  0  0
   -1.9887   -1.4114    0.8581 H   0  0  0  0  0  0  0  0  0  0  0  0
    0.7479   -1.8019    1.0683 H   0  0  0  0  0  0  0  0  0  0  0  0
  1  2  1  0
  2  3  1  0
  3  4  2  0
  3  5  1  0
  5  6  1  0
  5  7  1  0
  7  8  1  0
  8  9  1  0
  9  2  1  0
  9  7  1  0
  1 10  1  0
  1 11  1  0
  1 12  1  0
  2 13  1  0
  5 14  1  0
  6 15  1  0
  7 16  1  0
  9 17  1  0
M  END
