
     RDKit          3D

 21 21  0  0  0  0  0  0  0  0999 V2000
    2.3765   -0.2530   -0.6593 C   0  0  0  0  0  0  0  0  0  0  0  0
    1.3427   -0.3450    0.4476 C   0  0  0  0  0  0  0  0  0  0  0  0
    0.7921    0.9841    0.6720 C   0  0  0  0  0  0  0  0  0  0  0  0
   -0.2845    1.7350    0.4877 C   0  0  0  0  0  0  0  0  0  0  0  0
   -1.5921    1.4658   -0.1343 C   0  0  0  0  0  0  0  0  0  0  0  0
   -1.6018    0.4061   -0.9997 O   0  0  0  0  0  0  0  0  0  0  0  0
   -2.0227   -0.7785   -0.3940 C   0  0  0  0  0  0  0  0  0  0  0  0
   -0.8877   -1.6638   -0.0796 C   0  0  0  0  0  0  0  0  0  0  0  0
    0.3752   -1.4223    0.2338 C   0  0  0  0  0  0  0  0  0  0  0  0
    3.0138   -1.1561   -0.6027 H   0  0  0  0  0  0  0  0  0  0  0  0
    3.0372    0.6076   -0.3946 H   0  0  0  0  0  0  0  0  0  0  0  0
    1.9262   -0.0902   -1.6433 H   0  0  0  0  0  0  0  0  0  0  0  0
    1.9287   -0.6315    1.3719 H   0  0  0  0  0  0  0  0  0  0  0  0
    1.5482    1.6003    1.1864 H   0  0  0  0  0  0  0  0  0  0  0  0
   -0.1953    2.7439    0.8640 H   0  0  0  0  0  0  0  0  0  0  0  0
   -1.8611    2.3832   -0.7376 H   0  0  0  0  0  0  0  0  0  0  0  0
   -2.3666    1.4116    0.6570 H   0  0  0  0  0  0  0  0  0  0  0  0
   -2.6892   -1.2987   -1.1130 H   0  0  0  0  0  0  0  0  0  0  0  0
   -2.5914   -0.5618    0.5557 H   0  0  0  0  0  0  0  0  0  0  0  0
   -1.1280   -2.7415   -0.1088 H   0  0  0  0  0  0  0  0  0  0  0  0
    0.8798   -2.3950    0.3907 H   0  0  0  0  0  0  0  0  0  0  0  0
  1  2  1  0
  2  3  1  0
  3  4  2  3
  4  5  1  0
  5  6  1  0
  6  7  1  0
  7  8  1  0
  8  9  2  3
  9  2  1  0
  1 10  1  0
  1 11  1  0
  1 12  1  0
  2 13  1  0
  3 14  1  0
  4 15  1  0
  5 16  1  0
  5 17  1  0
  7 18  1  0
  7 19  1  0
  8 20  1  0
  9 21  1  0
M  END
