
     RDKit          3D

 22 22  0  0  0  0  0  0  0  0999 V2000
   -1.0501    1.8818   -0.1236 C   0  0  0  0  0  0  0  0  0  0  0  0
    0.0334    0.9341   -0.5892 C   0  0  0  0  0  0  0  0  0  0  0  0
    1.1570    0.9132    0.4186 C   0  0  0  0  0  0  0  0  0  0  0  0
    0.9295   -0.5716    0.6389 C   0  0  0  0  0  0  0  0  0  0  0  0
    2.1337   -1.3404    0.0870 C   0  0  0  0  0  0  0  0  0  0  0  0
   -0.2374   -0.5237   -0.2831 C   0  0  0  0  0  0  0  0  0  0  0  0
   -1.6012   -0.6699    0.3316 C   0  0  0  0  0  0  0  0  0  0  0  0
   -1.9178   -1.9905    0.6401 O   0  0  0  0  0  0  0  0  0  0  0  0
   -1.0453    1.9229    0.9997 H   0  0  0  0  0  0  0  0  0  0  0  0
   -2.0411    1.6488   -0.5220 H   0  0  0  0  0  0  0  0  0  0  0  0
   -0.7259    2.9038   -0.4421 H   0  0  0  0  0  0  0  0  0  0  0  0
    0.3244    1.0696   -1.6373 H   0  0  0  0  0  0  0  0  0  0  0  0
    2.1060    1.1781   -0.0787 H   0  0  0  0  0  0  0  0  0  0  0  0
    1.0164    1.5495    1.3045 H   0  0  0  0  0  0  0  0  0  0  0  0
    0.7125   -0.8118    1.7000 H   0  0  0  0  0  0  0  0  0  0  0  0
    1.8763   -2.3506   -0.2299 H   0  0  0  0  0  0  0  0  0  0  0  0
    2.9143   -1.3939    0.8638 H   0  0  0  0  0  0  0  0  0  0  0  0
    2.5547   -0.7876   -0.7860 H   0  0  0  0  0  0  0  0  0  0  0  0
   -0.1106   -1.2137   -1.1382 H   0  0  0  0  0  0  0  0  0  0  0  0
   -1.7673    0.0215    1.1684 H   0  0  0  0  0  0  0  0  0  0  0  0
   -2.3385   -0.3687   -0.4706 H   0  0  0  0  0  0  0  0  0  0  0  0
   -2.9230   -2.0008    0.7460 H   0  0  0  0  0  0  0  0  0  0  0  0
  1  2  1  0
  2  3  1  0
  3  4  1  0
  4  5  1  0
  4  6  1  0
  6  7  1  0
  7  8  1  0
  6  2  1  0
  1  9  1  0
  1 10  1  0
  1 11  1  0
  2 12  1  0
  3 13  1  0
  3 14  1  0
  4 15  1  0
  5 16  1  0
  5 17  1  0
  5 18  1  0
  6 19  1  0
  7 20  1  0
  7 21  1  0
  8 22  1  0
M  END
