
     RDKit          3D

 18 19  0  0  0  0  0  0  0  0999 V2000
    1.7220   -0.1858    0.8462 C   0  0  0  0  0  0  0  0  0  0  0  0
    0.8226    0.0736   -0.3088 C   0  0  0  0  0  0  0  0  0  0  0  0
   -0.0838   -1.1008   -0.7065 C   0  0  0  0  0  0  0  0  0  0  0  0
   -0.9917    0.0135   -1.2608 C   0  0  0  0  0  0  0  0  0  0  0  0
   -0.5400    0.6855    0.0468 C   0  0  0  0  0  0  0  0  0  0  0  0
   -0.6480    1.9902    0.1641 O   0  0  0  0  0  0  0  0  0  0  0  0
   -1.1081   -0.2719    1.0276 C   0  0  0  0  0  0  0  0  0  0  0  0
   -0.6881   -1.5035    0.4587 O   0  0  0  0  0  0  0  0  0  0  0  0
    2.5874    0.5358    0.7610 H   0  0  0  0  0  0  0  0  0  0  0  0
    1.2939   -0.0257    1.8336 H   0  0  0  0  0  0  0  0  0  0  0  0
    2.1986   -1.1914    0.8321 H   0  0  0  0  0  0  0  0  0  0  0  0
    1.2341    0.6069   -1.1709 H   0  0  0  0  0  0  0  0  0  0  0  0
    0.3012   -1.8007   -1.4035 H   0  0  0  0  0  0  0  0  0  0  0  0
   -0.5714    0.4525   -2.1665 H   0  0  0  0  0  0  0  0  0  0  0  0
   -2.0496   -0.2763   -1.2659 H   0  0  0  0  0  0  0  0  0  0  0  0
   -0.5398    2.4659   -0.6743 H   0  0  0  0  0  0  0  0  0  0  0  0
   -2.2133   -0.2511    0.9462 H   0  0  0  0  0  0  0  0  0  0  0  0
   -0.7259   -0.2166    2.0407 H   0  0  0  0  0  0  0  0  0  0  0  0
  1  2  1  0
  2  3  1  0
  3  4  1  0
  4  5  1  0
  5  6  1  0
  5  7  1  0
  7  8  1  0
  5  2  1  0
  8  3  1  0
  1  9  1  0
  1 10  1  0
  1 11  1  0
  2 12  1  0
  3 13  1  0
  4 14  1  0
  4 15  1  0
  6 16  1  0
  7 17  1  0
  7 18  1  0
M  END
