
     RDKit          3D

 21 22  0  0  0  0  0  0  0  0999 V2000
    2.1518   -0.6453   -1.1466 C   0  0  0  0  0  0  0  0  0  0  0  0
    1.4321    0.1454   -0.1082 C   0  0  0  0  0  0  0  0  0  0  0  0
    0.7342    1.3476   -0.7223 C   0  0  0  0  0  0  0  0  0  0  0  0
    1.1878    2.2274   -1.3974 O   0  0  0  0  0  0  0  0  0  0  0  0
   -0.6525    1.1558   -0.2735 C   0  0  0  0  0  0  0  0  0  0  0  0
   -0.4642    0.6664    1.1464 C   0  0  0  0  0  0  0  0  0  0  0  0
    0.2107   -0.5269    0.4458 C   0  0  0  0  0  0  0  0  0  0  0  0
   -0.8736   -0.3276   -0.5955 C   0  0  0  0  0  0  0  0  0  0  0  0
   -2.2133   -0.7702   -0.0759 C   0  0  0  0  0  0  0  0  0  0  0  0
    2.8959    0.0244   -1.6304 H   0  0  0  0  0  0  0  0  0  0  0  0
    1.4597   -1.0796   -1.8751 H   0  0  0  0  0  0  0  0  0  0  0  0
    2.7030   -1.4482   -0.6640 H   0  0  0  0  0  0  0  0  0  0  0  0
    2.1088    0.4569    0.7060 H   0  0  0  0  0  0  0  0  0  0  0  0
   -1.4186    1.8398   -0.5026 H   0  0  0  0  0  0  0  0  0  0  0  0
   -1.4234    0.3992    1.5886 H   0  0  0  0  0  0  0  0  0  0  0  0
    0.2641    1.2002    1.7485 H   0  0  0  0  0  0  0  0  0  0  0  0
    0.2732   -1.4359    0.9725 H   0  0  0  0  0  0  0  0  0  0  0  0
   -0.6200   -0.5822   -1.6162 H   0  0  0  0  0  0  0  0  0  0  0  0
   -2.1511   -1.4279    0.8056 H   0  0  0  0  0  0  0  0  0  0  0  0
   -2.7288   -1.3198   -0.8778 H   0  0  0  0  0  0  0  0  0  0  0  0
   -2.8758    0.1005    0.1822 H   0  0  0  0  0  0  0  0  0  0  0  0
  1  2  1  0
  2  3  1  0
  3  4  2  0
  3  5  1  0
  5  6  1  0
  6  7  1  0
  7  8  1  0
  8  9  1  0
  7  2  1  0
  8  5  1  0
  1 10  1  0
  1 11  1  0
  1 12  1  0
  2 13  1  0
  5 14  1  0
  6 15  1  0
  6 16  1  0
  7 17  1  0
  8 18  1  0
  9 19  1  0
  9 20  1  0
  9 21  1  0
M  END
