
     RDKit          3D

 23 24  0  0  0  0  0  0  0  0999 V2000
   -1.3758    1.3919    1.1097 C   0  0  0  0  0  0  0  0  0  0  0  0
   -1.0340    0.6912   -0.1674 C   0  0  0  0  0  0  0  0  0  0  0  0
   -1.8527   -0.5286   -0.4931 C   0  0  0  0  0  0  0  0  0  0  0  0
   -0.6291   -1.0036   -1.2546 C   0  0  0  0  0  0  0  0  0  0  0  0
   -0.0593   -0.4278    0.0032 C   0  0  0  0  0  0  0  0  0  0  0  0
    1.2401   -0.3824    0.4084 C   0  0  0  0  0  0  0  0  0  0  0  0
    2.1236    0.4670   -0.4979 C   0  0  0  0  0  0  0  0  0  0  0  0
    3.4317    0.4888   -0.0554 O   0  0  0  0  0  0  0  0  0  0  0  0
   -1.2027   -1.1612    0.6957 C   0  0  0  0  0  0  0  0  0  0  0  0
   -2.4422    1.2183    1.3198 H   0  0  0  0  0  0  0  0  0  0  0  0
   -1.1592    2.4932    0.9789 H   0  0  0  0  0  0  0  0  0  0  0  0
   -0.7093    1.0818    1.9573 H   0  0  0  0  0  0  0  0  0  0  0  0
   -0.9163    1.3390   -1.0423 H   0  0  0  0  0  0  0  0  0  0  0  0
   -2.8013   -0.5749   -0.7974 H   0  0  0  0  0  0  0  0  0  0  0  0
   -0.6227   -2.1103   -1.2814 H   0  0  0  0  0  0  0  0  0  0  0  0
   -0.4260   -0.4773   -2.1873 H   0  0  0  0  0  0  0  0  0  0  0  0
    1.7392   -1.3967    0.4117 H   0  0  0  0  0  0  0  0  0  0  0  0
    1.3956    0.0151    1.4327 H   0  0  0  0  0  0  0  0  0  0  0  0
    2.1031    0.0831   -1.5300 H   0  0  0  0  0  0  0  0  0  0  0  0
    1.7406    1.5256   -0.5413 H   0  0  0  0  0  0  0  0  0  0  0  0
    4.0739    0.3170   -0.7837 H   0  0  0  0  0  0  0  0  0  0  0  0
   -1.4737   -0.7900    1.6814 H   0  0  0  0  0  0  0  0  0  0  0  0
   -1.1435   -2.2592    0.6332 H   0  0  0  0  0  0  0  0  0  0  0  0
  1  2  1  0
  2  3  1  0
  3  4  1  0
  4  5  1  0
  5  6  1  0
  6  7  1  0
  7  8  1  0
  5  9  1  0
  5  2  1  0
  9  3  1  0
  1 10  1  0
  1 11  1  0
  1 12  1  0
  2 13  1  0
  3 14  1  0
  4 15  1  0
  4 16  1  0
  6 17  1  0
  6 18  1  0
  7 19  1  0
  7 20  1  0
  8 21  1  0
  9 22  1  0
  9 23  1  0
M  END
