
     RDKit          3D

 21 22  0  0  0  0  0  0  0  0999 V2000
    2.4054   -0.7295   -0.0481 C   0  0  0  0  0  0  0  0  0  0  0  0
    1.1002   -0.0328   -0.1757 C   0  0  0  0  0  0  0  0  0  0  0  0
    0.5206    0.3968    1.1738 C   0  0  0  0  0  0  0  0  0  0  0  0
   -0.8794    0.8352    0.7213 C   0  0  0  0  0  0  0  0  0  0  0  0
   -0.7121    2.1404    0.2246 O   0  0  0  0  0  0  0  0  0  0  0  0
   -1.2146   -0.0928   -0.4300 C   0  0  0  0  0  0  0  0  0  0  0  0
   -2.5291   -0.3807   -0.7781 C   0  0  0  0  0  0  0  0  0  0  0  0
   -1.6841    0.5492   -1.5843 O   0  0  0  0  0  0  0  0  0  0  0  0
   -0.0229   -0.9633   -0.6497 C   0  0  0  0  0  0  0  0  0  0  0  0
    2.6193   -1.1576    0.9401 H   0  0  0  0  0  0  0  0  0  0  0  0
    2.4786   -1.4957   -0.8551 H   0  0  0  0  0  0  0  0  0  0  0  0
    3.2135    0.0403   -0.2244 H   0  0  0  0  0  0  0  0  0  0  0  0
    1.1310    0.8769   -0.8135 H   0  0  0  0  0  0  0  0  0  0  0  0
    0.3736   -0.4852    1.8360 H   0  0  0  0  0  0  0  0  0  0  0  0
    1.0790    1.2136    1.6308 H   0  0  0  0  0  0  0  0  0  0  0  0
   -1.6062    0.7837    1.5379 H   0  0  0  0  0  0  0  0  0  0  0  0
   -0.1560    2.6579    0.8462 H   0  0  0  0  0  0  0  0  0  0  0  0
   -3.3832    0.1618   -0.3247 H   0  0  0  0  0  0  0  0  0  0  0  0
   -2.8282   -1.2189   -1.4325 H   0  0  0  0  0  0  0  0  0  0  0  0
   -0.0306   -1.8013    0.0840 H   0  0  0  0  0  0  0  0  0  0  0  0
    0.1251   -1.2982   -1.6787 H   0  0  0  0  0  0  0  0  0  0  0  0
  1  2  1  0
  2  3  1  0
  3  4  1  0
  4  5  1  0
  4  6  1  0
  6  7  1  0
  7  8  1  0
  6  9  1  0
  9  2  1  0
  8  6  1  0
  1 10  1  0
  1 11  1  0
  1 12  1  0
  2 13  1  0
  3 14  1  0
  3 15  1  0
  4 16  1  0
  5 17  1  0
  7 18  1  0
  7 19  1  0
  9 20  1  0
  9 21  1  0
M  END
