
     RDKit          3D

 17 17  0  0  0  0  0  0  0  0999 V2000
   -1.5463   -0.9455   -0.3757 C   0  0  0  0  0  0  0  0  0  0  0  0
   -0.4357   -0.2968    0.4006 C   0  0  0  0  0  0  0  0  0  0  0  0
   -0.6962    1.0995    0.7676 C   0  0  0  0  0  0  0  0  0  0  0  0
   -1.6371    1.5673    1.3831 O   0  0  0  0  0  0  0  0  0  0  0  0
    0.4283    1.9019    0.2433 C   0  0  0  0  0  0  0  0  0  0  0  0
    1.3563    1.0354   -0.2810 O   0  0  0  0  0  0  0  0  0  0  0  0
    0.7905   -0.1881   -0.4706 C   0  0  0  0  0  0  0  0  0  0  0  0
    1.7778   -1.2432   -0.1624 C   0  0  0  0  0  0  0  0  0  0  0  0
    1.4758   -2.4139   -0.2674 O   0  0  0  0  0  0  0  0  0  0  0  0
   -1.2962   -1.0611   -1.4612 H   0  0  0  0  0  0  0  0  0  0  0  0
   -1.6613   -2.0044   -0.0024 H   0  0  0  0  0  0  0  0  0  0  0  0
   -2.4883   -0.3898   -0.3218 H   0  0  0  0  0  0  0  0  0  0  0  0
   -0.2271   -0.8647    1.3446 H   0  0  0  0  0  0  0  0  0  0  0  0
    0.9155    2.4368    1.0919 H   0  0  0  0  0  0  0  0  0  0  0  0
    0.0152    2.6118   -0.4987 H   0  0  0  0  0  0  0  0  0  0  0  0
    0.4559   -0.2571   -1.5475 H   0  0  0  0  0  0  0  0  0  0  0  0
    2.7730   -0.9881    0.1576 H   0  0  0  0  0  0  0  0  0  0  0  0
  1  2  1  0
  2  3  1  0
  3  4  2  0
  3  5  1  0
  5  6  1  0
  6  7  1  0
  7  8  1  0
  8  9  2  0
  7  2  1  0
  1 10  1  0
  1 11  1  0
  1 12  1  0
  2 13  1  0
  5 14  1  0
  5 15  1  0
  7 16  1  0
  8 17  1  0
M  END
