
     RDKit          3D

 19 20  0  0  0  0  0  0  0  0999 V2000
   -1.3661   -1.2729    0.6254 C   0  0  0  0  0  0  0  0  0  0  0  0
   -0.7790   -0.3539   -0.3942 C   0  0  0  0  0  0  0  0  0  0  0  0
   -1.3701    1.0641   -0.3396 C   0  0  0  0  0  0  0  0  0  0  0  0
   -0.0685    1.5767    0.2255 C   0  0  0  0  0  0  0  0  0  0  0  0
    0.2745    2.6375    0.7152 O   0  0  0  0  0  0  0  0  0  0  0  0
    0.5173    0.2967   -0.0763 C   0  0  0  0  0  0  0  0  0  0  0  0
    1.4781   -0.3443    0.8025 C   0  0  0  0  0  0  0  0  0  0  0  0
    2.5276    0.1871    0.0200 O   0  0  0  0  0  0  0  0  0  0  0  0
    1.6205    0.1979   -1.0570 C   0  0  0  0  0  0  0  0  0  0  0  0
   -1.2122   -0.9779    1.6643 H   0  0  0  0  0  0  0  0  0  0  0  0
   -2.4800   -1.2740    0.4613 H   0  0  0  0  0  0  0  0  0  0  0  0
   -1.0296   -2.3033    0.3939 H   0  0  0  0  0  0  0  0  0  0  0  0
   -0.7786   -0.8009   -1.3930 H   0  0  0  0  0  0  0  0  0  0  0  0
   -1.6193    1.4543   -1.3374 H   0  0  0  0  0  0  0  0  0  0  0  0
   -2.2053    1.1300    0.4129 H   0  0  0  0  0  0  0  0  0  0  0  0
    1.6002    0.0236    1.8408 H   0  0  0  0  0  0  0  0  0  0  0  0
    1.5027   -1.4378    0.7350 H   0  0  0  0  0  0  0  0  0  0  0  0
    1.6229   -0.8224   -1.5332 H   0  0  0  0  0  0  0  0  0  0  0  0
    1.7649    1.0196   -1.7662 H   0  0  0  0  0  0  0  0  0  0  0  0
  1  2  1  0
  2  3  1  0
  3  4  1  0
  4  5  2  0
  4  6  1  0
  6  7  1  0
  7  8  1  0
  8  9  1  0
  6  2  1  0
  9  6  1  0
  1 10  1  0
  1 11  1  0
  1 12  1  0
  2 13  1  0
  3 14  1  0
  3 15  1  0
  7 16  1  0
  7 17  1  0
  9 18  1  0
  9 19  1  0
M  END
