
     RDKit          3D

 19 21  0  0  0  0  0  0  0  0999 V2000
    1.9439   -0.4814   -0.2212 C   0  0  0  0  0  0  0  0  0  0  0  0
    0.4863   -0.5053   -0.5463 C   0  0  0  0  0  0  0  0  0  0  0  0
   -0.3388   -1.3762    0.3532 C   0  0  0  0  0  0  0  0  0  0  0  0
   -0.2199   -0.3790    1.3252 O   0  0  0  0  0  0  0  0  0  0  0  0
   -0.2793    0.5262    0.2393 C   0  0  0  0  0  0  0  0  0  0  0  0
    0.2796    1.8524    0.4227 C   0  0  0  0  0  0  0  0  0  0  0  0
   -1.7247    0.3762   -0.1703 C   0  0  0  0  0  0  0  0  0  0  0  0
   -2.6044   -0.3412    0.5967 O   0  0  0  0  0  0  0  0  0  0  0  0
   -1.7671   -1.1667   -0.1149 C   0  0  0  0  0  0  0  0  0  0  0  0
    2.1907    0.2132    0.6084 H   0  0  0  0  0  0  0  0  0  0  0  0
    2.5825   -0.1890   -1.0785 H   0  0  0  0  0  0  0  0  0  0  0  0
    2.2421   -1.4944    0.1373 H   0  0  0  0  0  0  0  0  0  0  0  0
    0.2216   -0.6068   -1.6069 H   0  0  0  0  0  0  0  0  0  0  0  0
   -0.0153   -2.3643    0.5865 H   0  0  0  0  0  0  0  0  0  0  0  0
    0.7668    1.9748    1.4297 H   0  0  0  0  0  0  0  0  0  0  0  0
    1.0210    2.1406   -0.3479 H   0  0  0  0  0  0  0  0  0  0  0  0
   -0.5065    2.6483    0.3957 H   0  0  0  0  0  0  0  0  0  0  0  0
   -2.1254    0.8795   -1.0430 H   0  0  0  0  0  0  0  0  0  0  0  0
   -2.1531   -1.7069   -0.9784 H   0  0  0  0  0  0  0  0  0  0  0  0
  1  2  1  0
  2  3  1  0
  3  4  1  0
  4  5  1  0
  5  6  1  0
  5  7  1  0
  7  8  1  0
  8  9  1  0
  5  2  1  0
  9  7  1  0
  9  3  1  0
  1 10  1  0
  1 11  1  0
  1 12  1  0
  2 13  1  0
  3 14  1  0
  6 15  1  0
  6 16  1  0
  6 17  1  0
  7 18  1  0
  9 19  1  0
M  END
