
     RDKit          3D

 19 20  0  0  0  0  0  0  0  0999 V2000
   -2.6256   -0.0950    0.2599 C   0  0  0  0  0  0  0  0  0  0  0  0
   -1.2870    0.3052   -0.2559 C   0  0  0  0  0  0  0  0  0  0  0  0
   -0.4685   -0.8450   -0.8581 C   0  0  0  0  0  0  0  0  0  0  0  0
    0.7059   -0.2265   -0.1971 C   0  0  0  0  0  0  0  0  0  0  0  0
   -0.1809    0.3811    0.8089 C   0  0  0  0  0  0  0  0  0  0  0  0
    1.2662    0.8423   -1.0727 O   0  0  0  0  0  0  0  0  0  0  0  0
    2.0268   -0.1727   -0.4676 C   0  0  0  0  0  0  0  0  0  0  0  0
    3.0212    0.3233    0.5040 C   0  0  0  0  0  0  0  0  0  0  0  0
    2.7151    1.0560    1.4303 O   0  0  0  0  0  0  0  0  0  0  0  0
   -3.1936   -0.6813   -0.5011 H   0  0  0  0  0  0  0  0  0  0  0  0
   -3.2172    0.8245    0.4345 H   0  0  0  0  0  0  0  0  0  0  0  0
   -2.5770   -0.6405    1.2183 H   0  0  0  0  0  0  0  0  0  0  0  0
   -1.2284    1.1860   -0.8883 H   0  0  0  0  0  0  0  0  0  0  0  0
   -0.4576   -0.8420   -1.9637 H   0  0  0  0  0  0  0  0  0  0  0  0
   -0.7155   -1.8317   -0.3991 H   0  0  0  0  0  0  0  0  0  0  0  0
    0.0661    1.4202    1.1036 H   0  0  0  0  0  0  0  0  0  0  0  0
   -0.3976   -0.2191    1.7065 H   0  0  0  0  0  0  0  0  0  0  0  0
    2.4814   -0.8380   -1.2582 H   0  0  0  0  0  0  0  0  0  0  0  0
    4.0662    0.0531    0.4298 H   0  0  0  0  0  0  0  0  0  0  0  0
  1  2  1  0
  2  3  1  0
  3  4  1  0
  4  5  1  0
  4  6  1  0
  6  7  1  0
  7  8  1  0
  8  9  2  0
  5  2  1  0
  7  4  1  0
  1 10  1  0
  1 11  1  0
  1 12  1  0
  2 13  1  0
  3 14  1  0
  3 15  1  0
  5 16  1  0
  5 17  1  0
  7 18  1  0
  8 19  1  0
M  END
