
     RDKit          3D

 21 23  0  0  0  0  0  0  0  0999 V2000
    2.5292    0.5111    0.1398 C   0  0  0  0  0  0  0  0  0  0  0  0
    1.4828   -0.5357    0.1664 C   0  0  0  0  0  0  0  0  0  0  0  0
    0.2241   -0.1880    0.9128 C   0  0  0  0  0  0  0  0  0  0  0  0
   -0.4299   -1.2566    0.0786 C   0  0  0  0  0  0  0  0  0  0  0  0
   -1.8432   -0.8019   -0.1157 C   0  0  0  0  0  0  0  0  0  0  0  0
   -1.5925    0.6858   -0.4209 C   0  0  0  0  0  0  0  0  0  0  0  0
   -2.2254    1.5007    0.5069 O   0  0  0  0  0  0  0  0  0  0  0  0
   -0.0977    0.7170   -0.2261 C   0  0  0  0  0  0  0  0  0  0  0  0
    0.4400   -0.5205   -0.8986 C   0  0  0  0  0  0  0  0  0  0  0  0
    2.7329    0.9727   -0.8231 H   0  0  0  0  0  0  0  0  0  0  0  0
    3.4835    0.0468    0.5278 H   0  0  0  0  0  0  0  0  0  0  0  0
    2.3413    1.3598    0.8612 H   0  0  0  0  0  0  0  0  0  0  0  0
    1.8174   -1.5640    0.4169 H   0  0  0  0  0  0  0  0  0  0  0  0
    0.1186   -0.0334    1.8933 H   0  0  0  0  0  0  0  0  0  0  0  0
   -0.2254   -2.2829    0.2952 H   0  0  0  0  0  0  0  0  0  0  0  0
   -2.2880   -1.3248   -0.9611 H   0  0  0  0  0  0  0  0  0  0  0  0
   -2.4317   -0.9007    0.8296 H   0  0  0  0  0  0  0  0  0  0  0  0
   -1.9109    0.8539   -1.4554 H   0  0  0  0  0  0  0  0  0  0  0  0
   -3.0851    1.8003    0.0914 H   0  0  0  0  0  0  0  0  0  0  0  0
    0.4253    1.6426   -0.3490 H   0  0  0  0  0  0  0  0  0  0  0  0
    0.5346   -0.6822   -1.8800 H   0  0  0  0  0  0  0  0  0  0  0  0
  1  2  1  0
  2  3  1  0
  3  4  1  0
  4  5  1  0
  5  6  1  0
  6  7  1  0
  6  8  1  0
  8  9  1  0
  9  2  1  0
  8  3  1  0
  9  4  1  0
  1 10  1  0
  1 11  1  0
  1 12  1  0
  2 13  1  0
  3 14  1  0
  4 15  1  0
  5 16  1  0
  5 17  1  0
  6 18  1  0
  7 19  1  0
  8 20  1  0
  9 21  1  0
M  END
