
     RDKit          3D

 23 23  0  0  0  0  0  0  0  0999 V2000
   -3.1541   -0.2472   -0.5977 C   0  0  0  0  0  0  0  0  0  0  0  0
   -1.8831   -0.5546    0.0883 C   0  0  0  0  0  0  0  0  0  0  0  0
   -1.0616    0.6624    0.5398 C   0  0  0  0  0  0  0  0  0  0  0  0
   -0.0110   -0.3530    0.3020 C   0  0  0  0  0  0  0  0  0  0  0  0
    1.3656    0.0850   -0.0269 C   0  0  0  0  0  0  0  0  0  0  0  0
    2.1902   -1.0829   -0.5260 C   0  0  0  0  0  0  0  0  0  0  0  0
    1.4549    1.1772   -1.0416 C   0  0  0  0  0  0  0  0  0  0  0  0
    1.9720    0.5389    1.1440 O   0  0  0  0  0  0  0  0  0  0  0  0
   -0.7810   -0.8439   -0.7521 O   0  0  0  0  0  0  0  0  0  0  0  0
   -3.2060   -0.6766   -1.6297 H   0  0  0  0  0  0  0  0  0  0  0  0
   -3.4426    0.8211   -0.5903 H   0  0  0  0  0  0  0  0  0  0  0  0
   -3.9823   -0.7777   -0.0399 H   0  0  0  0  0  0  0  0  0  0  0  0
   -1.8867   -1.2895    0.9050 H   0  0  0  0  0  0  0  0  0  0  0  0
   -1.1973    1.4610   -0.1835 H   0  0  0  0  0  0  0  0  0  0  0  0
   -1.1940    0.9267    1.6006 H   0  0  0  0  0  0  0  0  0  0  0  0
    0.0017   -1.1105    1.1140 H   0  0  0  0  0  0  0  0  0  0  0  0
    3.2182   -0.6906   -0.7110 H   0  0  0  0  0  0  0  0  0  0  0  0
    1.8268   -1.4952   -1.4750 H   0  0  0  0  0  0  0  0  0  0  0  0
    2.3164   -1.8627    0.2655 H   0  0  0  0  0  0  0  0  0  0  0  0
    1.6282    0.7559   -2.0655 H   0  0  0  0  0  0  0  0  0  0  0  0
    2.3496    1.8290   -0.8443 H   0  0  0  0  0  0  0  0  0  0  0  0
    0.5897    1.8405   -1.0913 H   0  0  0  0  0  0  0  0  0  0  0  0
    2.8863    0.8867    0.9966 H   0  0  0  0  0  0  0  0  0  0  0  0
  1  2  1  0
  2  3  1  0
  3  4  1  0
  4  5  1  0
  5  6  1  0
  5  7  1  0
  5  8  1  0
  4  9  1  0
  9  2  1  0
  1 10  1  0
  1 11  1  0
  1 12  1  0
  2 13  1  0
  3 14  1  0
  3 15  1  0
  4 16  1  0
  6 17  1  0
  6 18  1  0
  6 19  1  0
  7 20  1  0
  7 21  1  0
  7 22  1  0
  8 23  1  0
M  END
