
     RDKit          3D

 21 22  0  0  0  0  0  0  0  0999 V2000
   -2.1407   -0.8615   -0.1811 C   0  0  0  0  0  0  0  0  0  0  0  0
   -1.3351    0.4021   -0.2129 C   0  0  0  0  0  0  0  0  0  0  0  0
   -0.9518    0.8146    1.1891 C   0  0  0  0  0  0  0  0  0  0  0  0
    0.4798    0.6873    0.8287 C   0  0  0  0  0  0  0  0  0  0  0  0
    1.0787   -0.4794    0.1895 C   0  0  0  0  0  0  0  0  0  0  0  0
    2.5334   -0.3161   -0.2471 C   0  0  0  0  0  0  0  0  0  0  0  0
    0.7484   -1.7829    0.4951 O   0  0  0  0  0  0  0  0  0  0  0  0
    0.0974    0.2974   -0.5714 C   0  0  0  0  0  0  0  0  0  0  0  0
    0.5327    1.0266   -1.6548 O   0  0  0  0  0  0  0  0  0  0  0  0
   -2.6404   -1.0205   -1.1521 H   0  0  0  0  0  0  0  0  0  0  0  0
   -1.5919   -1.7373    0.1940 H   0  0  0  0  0  0  0  0  0  0  0  0
   -2.9783   -0.6939    0.5570 H   0  0  0  0  0  0  0  0  0  0  0  0
   -1.8709    1.1747   -0.8062 H   0  0  0  0  0  0  0  0  0  0  0  0
   -1.2711    1.8768    1.3499 H   0  0  0  0  0  0  0  0  0  0  0  0
   -1.3358    0.1442    1.9934 H   0  0  0  0  0  0  0  0  0  0  0  0
    1.1041    1.5885    1.0033 H   0  0  0  0  0  0  0  0  0  0  0  0
    2.6298    0.6214   -0.8449 H   0  0  0  0  0  0  0  0  0  0  0  0
    3.1749   -0.2116    0.6707 H   0  0  0  0  0  0  0  0  0  0  0  0
    2.9107   -1.1804   -0.7946 H   0  0  0  0  0  0  0  0  0  0  0  0
    0.7041   -2.2784   -0.3812 H   0  0  0  0  0  0  0  0  0  0  0  0
    0.1220    1.9287   -1.6246 H   0  0  0  0  0  0  0  0  0  0  0  0
  1  2  1  0
  2  3  1  0
  3  4  1  0
  4  5  1  0
  5  6  1  0
  5  7  1  0
  5  8  1  0
  8  9  1  0
  8  2  1  0
  8  4  1  0
  1 10  1  0
  1 11  1  0
  1 12  1  0
  2 13  1  0
  3 14  1  0
  3 15  1  0
  4 16  1  0
  6 17  1  0
  6 18  1  0
  6 19  1  0
  7 20  1  0
  9 21  1  0
M  END
