
     RDKit          3D

 20 21  0  0  0  0  0  0  0  0999 V2000
    2.2075   -0.1963    0.1075 C   0  0  0  0  0  0  0  0  0  0  0  0
    0.8082   -0.1506   -0.3744 C   0  0  0  0  0  0  0  0  0  0  0  0
   -0.1929   -1.0390    0.2902 C   0  0  0  0  0  0  0  0  0  0  0  0
   -1.4483   -1.0383   -0.5736 C   0  0  0  0  0  0  0  0  0  0  0  0
   -1.5848    0.1045   -1.2984 O   0  0  0  0  0  0  0  0  0  0  0  0
   -1.1476    1.2558   -0.7133 C   0  0  0  0  0  0  0  0  0  0  0  0
    0.0122    1.0309    0.2013 C   0  0  0  0  0  0  0  0  0  0  0  0
   -0.3974    0.0684    1.3232 C   0  0  0  0  0  0  0  0  0  0  0  0
    2.7919   -0.8474   -0.6046 H   0  0  0  0  0  0  0  0  0  0  0  0
    2.3432   -0.4957    1.1505 H   0  0  0  0  0  0  0  0  0  0  0  0
    2.6512    0.8303   -0.0265 H   0  0  0  0  0  0  0  0  0  0  0  0
    0.7170   -0.2062   -1.4669 H   0  0  0  0  0  0  0  0  0  0  0  0
    0.1280   -1.9951    0.6719 H   0  0  0  0  0  0  0  0  0  0  0  0
   -1.2916   -1.8847   -1.3065 H   0  0  0  0  0  0  0  0  0  0  0  0
   -2.3127   -1.2642    0.0867 H   0  0  0  0  0  0  0  0  0  0  0  0
   -0.7811    1.9319   -1.5398 H   0  0  0  0  0  0  0  0  0  0  0  0
   -1.9613    1.8209   -0.2053 H   0  0  0  0  0  0  0  0  0  0  0  0
    0.6049    1.8825    0.5092 H   0  0  0  0  0  0  0  0  0  0  0  0
    0.3062    0.0051    2.1532 H   0  0  0  0  0  0  0  0  0  0  0  0
   -1.4528    0.1873    1.6156 H   0  0  0  0  0  0  0  0  0  0  0  0
  1  2  1  0
  2  3  1  0
  3  4  1  0
  4  5  1  0
  5  6  1  0
  6  7  1  0
  7  8  1  0
  7  2  1  0
  8  3  1  0
  1  9  1  0
  1 10  1  0
  1 11  1  0
  2 12  1  0
  3 13  1  0
  4 14  1  0
  4 15  1  0
  6 16  1  0
  6 17  1  0
  7 18  1  0
  8 19  1  0
  8 20  1  0
M  END
