
     RDKit          3D

 25 26  0  0  0  0  0  0  0  0999 V2000
   -2.6644    0.5236    0.2426 C   0  0  0  0  0  0  0  0  0  0  0  0
   -1.8804   -0.7156   -0.0370 C   0  0  0  0  0  0  0  0  0  0  0  0
   -0.8546   -0.6267   -1.1357 C   0  0  0  0  0  0  0  0  0  0  0  0
    0.1779   -0.2980   -0.0932 C   0  0  0  0  0  0  0  0  0  0  0  0
    1.4641   -1.0491   -0.1627 C   0  0  0  0  0  0  0  0  0  0  0  0
    2.4777   -0.0246    0.2905 C   0  0  0  0  0  0  0  0  0  0  0  0
    1.9677    1.2927   -0.2410 C   0  0  0  0  0  0  0  0  0  0  0  0
    0.4717    1.1591   -0.0179 C   0  0  0  0  0  0  0  0  0  0  0  0
   -0.7415   -0.8564    0.9620 C   0  0  0  0  0  0  0  0  0  0  0  0
   -3.6438    0.2026    0.6844 H   0  0  0  0  0  0  0  0  0  0  0  0
   -2.8844    1.1240   -0.6582 H   0  0  0  0  0  0  0  0  0  0  0  0
   -2.2020    1.1781    1.0224 H   0  0  0  0  0  0  0  0  0  0  0  0
   -2.5111   -1.6364   -0.1090 H   0  0  0  0  0  0  0  0  0  0  0  0
   -1.0083    0.1569   -1.8894 H   0  0  0  0  0  0  0  0  0  0  0  0
   -0.6824   -1.6183   -1.5910 H   0  0  0  0  0  0  0  0  0  0  0  0
    1.7162   -1.4117   -1.1817 H   0  0  0  0  0  0  0  0  0  0  0  0
    1.4480   -1.9518    0.4915 H   0  0  0  0  0  0  0  0  0  0  0  0
    2.5229    0.0577    1.3892 H   0  0  0  0  0  0  0  0  0  0  0  0
    3.4756   -0.2141   -0.1197 H   0  0  0  0  0  0  0  0  0  0  0  0
    2.2231    1.3767   -1.3113 H   0  0  0  0  0  0  0  0  0  0  0  0
    2.3407    2.1435    0.3431 H   0  0  0  0  0  0  0  0  0  0  0  0
   -0.0104    1.7052   -0.8721 H   0  0  0  0  0  0  0  0  0  0  0  0
    0.1855    1.5996    0.9555 H   0  0  0  0  0  0  0  0  0  0  0  0
   -0.5858   -1.9263    1.1993 H   0  0  0  0  0  0  0  0  0  0  0  0
   -0.8024   -0.1906    1.8394 H   0  0  0  0  0  0  0  0  0  0  0  0
  1  2  1  0
  2  3  1  0
  3  4  1  0
  4  5  1  0
  5  6  1  0
  6  7  1  0
  7  8  1  0
  4  9  1  0
  9  2  1  0
  8  4  1  0
  1 10  1  0
  1 11  1  0
  1 12  1  0
  2 13  1  0
  3 14  1  0
  3 15  1  0
  5 16  1  0
  5 17  1  0
  6 18  1  0
  6 19  1  0
  7 20  1  0
  7 21  1  0
  8 22  1  0
  8 23  1  0
  9 24  1  0
  9 25  1  0
M  END
