
     RDKit          3D

 23 24  0  0  0  0  0  0  0  0999 V2000
   -1.9635    0.2554    1.2801 C   0  0  0  0  0  0  0  0  0  0  0  0
   -1.3356   -0.3449    0.0891 C   0  0  0  0  0  0  0  0  0  0  0  0
   -1.4406    0.5427   -1.1667 C   0  0  0  0  0  0  0  0  0  0  0  0
   -0.0977    0.9208   -1.4527 O   0  0  0  0  0  0  0  0  0  0  0  0
    0.3608    1.1013   -0.1753 C   0  0  0  0  0  0  0  0  0  0  0  0
    1.1459    0.3546    0.7187 C   0  0  0  0  0  0  0  0  0  0  0  0
    2.6060    0.1090    0.3637 C   0  0  0  0  0  0  0  0  0  0  0  0
    0.1466   -0.4391    0.1353 C   0  0  0  0  0  0  0  0  0  0  0  0
    0.6381   -1.3902   -0.9752 C   0  0  0  0  0  0  0  0  0  0  0  0
   -1.2792    0.1418    2.1520 H   0  0  0  0  0  0  0  0  0  0  0  0
   -2.2396    1.3167    1.2040 H   0  0  0  0  0  0  0  0  0  0  0  0
   -2.8870   -0.3260    1.5705 H   0  0  0  0  0  0  0  0  0  0  0  0
   -1.7882   -1.3326   -0.1295 H   0  0  0  0  0  0  0  0  0  0  0  0
   -2.0130    1.4496   -0.9769 H   0  0  0  0  0  0  0  0  0  0  0  0
   -1.8700   -0.0202   -2.0059 H   0  0  0  0  0  0  0  0  0  0  0  0
   -0.3680    1.8137    0.3277 H   0  0  0  0  0  0  0  0  0  0  0  0
    1.0692    0.5500    1.8303 H   0  0  0  0  0  0  0  0  0  0  0  0
    3.0684   -0.6665    1.0010 H   0  0  0  0  0  0  0  0  0  0  0  0
    2.7410   -0.1977   -0.6810 H   0  0  0  0  0  0  0  0  0  0  0  0
    3.1695    1.0565    0.5559 H   0  0  0  0  0  0  0  0  0  0  0  0
   -0.0720   -2.1888   -1.1730 H   0  0  0  0  0  0  0  0  0  0  0  0
    0.8351   -0.8366   -1.9108 H   0  0  0  0  0  0  0  0  0  0  0  0
    1.5737   -1.8693   -0.5815 H   0  0  0  0  0  0  0  0  0  0  0  0
  1  2  1  0
  2  3  1  0
  3  4  1  0
  4  5  1  0
  5  6  1  0
  6  7  1  0
  6  8  1  0
  8  9  1  0
  8  2  1  0
  8  5  1  0
  1 10  1  0
  1 11  1  0
  1 12  1  0
  2 13  1  0
  3 14  1  0
  3 15  1  0
  5 16  1  0
  6 17  1  0
  7 18  1  0
  7 19  1  0
  7 20  1  0
  9 21  1  0
  9 22  1  0
  9 23  1  0
M  END
