
     RDKit          3D

 19 21  0  0  0  0  0  0  0  0999 V2000
   -1.9863   -0.5829    0.6417 C   0  0  0  0  0  0  0  0  0  0  0  0
   -1.3134    0.0682   -0.5226 C   0  0  0  0  0  0  0  0  0  0  0  0
   -0.5514    1.3083   -0.0640 C   0  0  0  0  0  0  0  0  0  0  0  0
    0.6660    0.8636   -0.8028 C   0  0  0  0  0  0  0  0  0  0  0  0
    1.9187    0.6258   -0.0236 C   0  0  0  0  0  0  0  0  0  0  0  0
    1.8467   -0.7830    0.3979 C   0  0  0  0  0  0  0  0  0  0  0  0
    0.7849   -1.3858   -0.1260 C   0  0  0  0  0  0  0  0  0  0  0  0
   -0.0105   -0.4989   -0.9658 C   0  0  0  0  0  0  0  0  0  0  0  0
    0.5812    0.2150   -2.0150 O   0  0  0  0  0  0  0  0  0  0  0  0
   -2.9366   -0.0246    0.8302 H   0  0  0  0  0  0  0  0  0  0  0  0
   -1.3405   -0.4367    1.5510 H   0  0  0  0  0  0  0  0  0  0  0  0
   -2.2636   -1.6282    0.4766 H   0  0  0  0  0  0  0  0  0  0  0  0
   -1.9908    0.3110   -1.3676 H   0  0  0  0  0  0  0  0  0  0  0  0
   -0.3666    1.3110    1.0458 H   0  0  0  0  0  0  0  0  0  0  0  0
   -0.9972    2.2632   -0.3481 H   0  0  0  0  0  0  0  0  0  0  0  0
    2.7777    0.7482   -0.6997 H   0  0  0  0  0  0  0  0  0  0  0  0
    2.0162    1.2842    0.8575 H   0  0  0  0  0  0  0  0  0  0  0  0
    2.6045   -1.2265    1.0638 H   0  0  0  0  0  0  0  0  0  0  0  0
    0.5609   -2.4319    0.0705 H   0  0  0  0  0  0  0  0  0  0  0  0
  1  2  1  0
  2  3  1  0
  3  4  1  0
  4  5  1  0
  5  6  1  0
  6  7  2  0
  7  8  1  0
  8  9  1  0
  8  2  1  0
  8  4  1  0
  9  4  1  0
  1 10  1  0
  1 11  1  0
  1 12  1  0
  2 13  1  0
  3 14  1  0
  3 15  1  0
  5 16  1  0
  5 17  1  0
  6 18  1  0
  7 19  1  0
M  END
