
     RDKit          3D

 18 18  0  0  0  0  0  0  0  0999 V2000
   -1.4576    1.3040    0.5091 C   0  0  0  0  0  0  0  0  0  0  0  0
   -0.3696    0.6994   -0.2958 C   0  0  0  0  0  0  0  0  0  0  0  0
    0.7356    0.0540    0.5229 C   0  0  0  0  0  0  0  0  0  0  0  0
    2.1569    0.3023    0.0474 C   0  0  0  0  0  0  0  0  0  0  0  0
   -0.0701   -0.7733   -0.3872 C   0  0  0  0  0  0  0  0  0  0  0  0
    0.3351   -1.1228   -1.6801 O   0  0  0  0  0  0  0  0  0  0  0  0
   -1.0675   -1.7265    0.1793 C   0  0  0  0  0  0  0  0  0  0  0  0
   -0.6802   -2.2378    1.2557 O   0  0  0  0  0  0  0  0  0  0  0  0
   -1.4259    2.4292    0.3822 H   0  0  0  0  0  0  0  0  0  0  0  0
   -1.3297    1.1703    1.6149 H   0  0  0  0  0  0  0  0  0  0  0  0
   -2.4429    0.9140    0.1783 H   0  0  0  0  0  0  0  0  0  0  0  0
   -0.0143    1.3290   -1.1559 H   0  0  0  0  0  0  0  0  0  0  0  0
    0.5440   -0.0898    1.6247 H   0  0  0  0  0  0  0  0  0  0  0  0
    2.6902    0.9963    0.7084 H   0  0  0  0  0  0  0  0  0  0  0  0
    2.6777   -0.6647   -0.1201 H   0  0  0  0  0  0  0  0  0  0  0  0
    2.0990    0.7864   -0.9553 H   0  0  0  0  0  0  0  0  0  0  0  0
   -0.3965   -1.4381   -2.1971 H   0  0  0  0  0  0  0  0  0  0  0  0
   -1.9841   -1.9320   -0.2315 H   0  0  0  0  0  0  0  0  0  0  0  0
  1  2  1  0
  2  3  1  0
  3  4  1  0
  3  5  1  0
  5  6  1  0
  5  7  1  0
  7  8  2  0
  5  2  1  0
  1  9  1  0
  1 10  1  0
  1 11  1  0
  2 12  1  0
  3 13  1  0
  4 14  1  0
  4 15  1  0
  4 16  1  0
  6 17  1  0
  7 18  1  0
M  END
