
     RDKit          3D

 19 20  0  0  0  0  0  0  0  0999 V2000
    1.4834   -1.1309   -0.0232 C   0  0  0  0  0  0  0  0  0  0  0  0
    0.7434    0.0019    0.5658 C   0  0  0  0  0  0  0  0  0  0  0  0
    0.9066    1.2154   -0.3367 C   0  0  0  0  0  0  0  0  0  0  0  0
    0.0567    0.9135   -1.3990 O   0  0  0  0  0  0  0  0  0  0  0  0
   -0.9834    1.0679   -0.4599 C   0  0  0  0  0  0  0  0  0  0  0  0
   -0.1705    2.0963    0.1496 C   0  0  0  0  0  0  0  0  0  0  0  0
   -0.2511    3.1204    0.7387 O   0  0  0  0  0  0  0  0  0  0  0  0
   -0.7569   -0.0975    0.5185 C   0  0  0  0  0  0  0  0  0  0  0  0
   -1.3238   -1.3031   -0.1146 C   0  0  0  0  0  0  0  0  0  0  0  0
    2.5517   -0.8401   -0.1121 H   0  0  0  0  0  0  0  0  0  0  0  0
    1.1439   -1.3572   -1.0521 H   0  0  0  0  0  0  0  0  0  0  0  0
    1.4738   -2.0422    0.6170 H   0  0  0  0  0  0  0  0  0  0  0  0
    1.1470    0.2829    1.5471 H   0  0  0  0  0  0  0  0  0  0  0  0
    1.8755    1.5921   -0.5242 H   0  0  0  0  0  0  0  0  0  0  0  0
   -1.9658    1.2309   -0.8131 H   0  0  0  0  0  0  0  0  0  0  0  0
   -1.2409    0.0862    1.4760 H   0  0  0  0  0  0  0  0  0  0  0  0
   -0.8767   -1.6282   -1.0513 H   0  0  0  0  0  0  0  0  0  0  0  0
   -2.4017   -1.0586   -0.3547 H   0  0  0  0  0  0  0  0  0  0  0  0
   -1.4112   -2.1496    0.6282 H   0  0  0  0  0  0  0  0  0  0  0  0
  1  2  1  0
  2  3  1  0
  3  4  1  0
  4  5  1  0
  5  6  1  0
  6  7  2  0
  5  8  1  0
  8  9  1  0
  8  2  1  0
  6  3  1  0
  1 10  1  0
  1 11  1  0
  1 12  1  0
  2 13  1  0
  3 14  1  0
  5 15  1  0
  8 16  1  0
  9 17  1  0
  9 18  1  0
  9 19  1  0
M  END
