
     RDKit          3D

 21 22  0  0  0  0  0  0  0  0999 V2000
    2.3354   -0.2109    0.3401 C   0  0  0  0  0  0  0  0  0  0  0  0
    0.9540   -0.1021   -0.1885 C   0  0  0  0  0  0  0  0  0  0  0  0
    0.5235    1.3701   -0.2347 C   0  0  0  0  0  0  0  0  0  0  0  0
   -0.9184    1.5504   -0.4610 C   0  0  0  0  0  0  0  0  0  0  0  0
   -1.2975    2.5975   -0.9238 O   0  0  0  0  0  0  0  0  0  0  0  0
   -1.9284    0.5124   -0.1497 C   0  0  0  0  0  0  0  0  0  0  0  0
   -1.2882   -0.7780   -0.4504 C   0  0  0  0  0  0  0  0  0  0  0  0
   -0.9247   -1.8984    0.3198 C   0  0  0  0  0  0  0  0  0  0  0  0
   -0.0977   -0.7846    0.5707 C   0  0  0  0  0  0  0  0  0  0  0  0
    2.7563    0.7561    0.7234 H   0  0  0  0  0  0  0  0  0  0  0  0
    2.4502   -0.9430    1.1679 H   0  0  0  0  0  0  0  0  0  0  0  0
    3.0741   -0.5353   -0.4491 H   0  0  0  0  0  0  0  0  0  0  0  0
    0.9787   -0.4167   -1.2730 H   0  0  0  0  0  0  0  0  0  0  0  0
    0.7316    1.7479    0.8106 H   0  0  0  0  0  0  0  0  0  0  0  0
    1.1537    1.9451   -0.9295 H   0  0  0  0  0  0  0  0  0  0  0  0
   -2.2310    0.5993    0.9261 H   0  0  0  0  0  0  0  0  0  0  0  0
   -2.8710    0.7004   -0.7403 H   0  0  0  0  0  0  0  0  0  0  0  0
   -1.0080   -0.8147   -1.5481 H   0  0  0  0  0  0  0  0  0  0  0  0
   -1.6255   -2.2528    1.1260 H   0  0  0  0  0  0  0  0  0  0  0  0
   -0.4902   -2.7949   -0.1894 H   0  0  0  0  0  0  0  0  0  0  0  0
   -0.2770   -0.2478    1.5528 H   0  0  0  0  0  0  0  0  0  0  0  0
  1  2  1  0
  2  3  1  0
  3  4  1  0
  4  5  2  0
  4  6  1  0
  6  7  1  0
  7  8  1  0
  8  9  1  0
  9  2  1  0
  9  7  1  0
  1 10  1  0
  1 11  1  0
  1 12  1  0
  2 13  1  0
  3 14  1  0
  3 15  1  0
  6 16  1  0
  6 17  1  0
  7 18  1  0
  8 19  1  0
  8 20  1  0
  9 21  1  0
M  END
