
     RDKit          3D

 12 12  0  0  0  0  0  0  0  0999 V2000
    1.4507   -0.0236   -0.0622 C   0  0  0  0  0  0  0  0  0  0  0  0
    0.0931    0.2970    0.4707 C   0  0  0  0  0  0  0  0  0  0  0  0
   -0.9775   -0.7213    0.0895 C   0  0  0  0  0  0  0  0  0  0  0  0
   -1.0447    0.6688   -0.3628 C   0  0  0  0  0  0  0  0  0  0  0  0
    1.4694   -0.9631   -0.6797 H   0  0  0  0  0  0  0  0  0  0  0  0
    1.8940    0.7836   -0.6861 H   0  0  0  0  0  0  0  0  0  0  0  0
    2.1299   -0.2553    0.8035 H   0  0  0  0  0  0  0  0  0  0  0  0
    0.0809    0.6942    1.5219 H   0  0  0  0  0  0  0  0  0  0  0  0
   -0.7146   -1.5069   -0.6432 H   0  0  0  0  0  0  0  0  0  0  0  0
   -1.5678   -1.1203    0.9419 H   0  0  0  0  0  0  0  0  0  0  0  0
   -1.8405    1.3230    0.0760 H   0  0  0  0  0  0  0  0  0  0  0  0
   -0.9731    0.8239   -1.4695 H   0  0  0  0  0  0  0  0  0  0  0  0
  1  2  1  0
  2  3  1  0
  3  4  1  0
  4  2  1  0
  1  5  1  0
  1  6  1  0
  1  7  1  0
  2  8  1  0
  3  9  1  0
  3 10  1  0
  4 11  1  0
  4 12  1  0
M  END
