
     RDKit          3D

 21 23  0  0  0  0  0  0  0  0999 V2000
    1.8735   -1.4701   -0.0265 C   0  0  0  0  0  0  0  0  0  0  0  0
    0.5111   -0.9677    0.0689 C   0  0  0  0  0  0  0  0  0  0  0  0
   -0.0113   -0.0372   -0.9904 C   0  0  0  0  0  0  0  0  0  0  0  0
    0.8522    1.0285   -0.3651 C   0  0  0  0  0  0  0  0  0  0  0  0
    2.1903    0.9477   -0.5511 O   0  0  0  0  0  0  0  0  0  0  0  0
    0.2513    0.3204    0.8093 C   0  0  0  0  0  0  0  0  0  0  0  0
   -1.0021    0.3320    0.0281 C   0  0  0  0  0  0  0  0  0  0  0  0
   -2.0749    1.2332    0.0189 C   0  0  0  0  0  0  0  0  0  0  0  0
   -2.2444   -0.2911    0.3413 C   0  0  0  0  0  0  0  0  0  0  0  0
    2.3851   -1.3357   -1.0130 H   0  0  0  0  0  0  0  0  0  0  0  0
    2.5202   -1.1051    0.8173 H   0  0  0  0  0  0  0  0  0  0  0  0
    1.8609   -2.5940    0.1047 H   0  0  0  0  0  0  0  0  0  0  0  0
   -0.2899   -1.7021    0.3354 H   0  0  0  0  0  0  0  0  0  0  0  0
   -0.1107   -0.2303   -1.9678 H   0  0  0  0  0  0  0  0  0  0  0  0
    0.4048    2.0249   -0.5590 H   0  0  0  0  0  0  0  0  0  0  0  0
    2.7515    1.2117    0.2334 H   0  0  0  0  0  0  0  0  0  0  0  0
    0.4089    0.4943    1.7828 H   0  0  0  0  0  0  0  0  0  0  0  0
   -2.5547    1.5621   -0.9413 H   0  0  0  0  0  0  0  0  0  0  0  0
   -2.2732    1.9167    0.8645 H   0  0  0  0  0  0  0  0  0  0  0  0
   -2.5802   -0.4961    1.3979 H   0  0  0  0  0  0  0  0  0  0  0  0
   -2.8683   -0.8418   -0.3882 H   0  0  0  0  0  0  0  0  0  0  0  0
  1  2  1  0
  2  3  1  0
  3  4  1  0
  4  5  1  0
  4  6  1  0
  6  7  1  0
  7  8  1  0
  8  9  1  0
  6  2  1  0
  9  7  1  0
  7  3  1  0
  1 10  1  0
  1 11  1  0
  1 12  1  0
  2 13  1  0
  3 14  1  0
  4 15  1  0
  5 16  1  0
  6 17  1  0
  8 18  1  0
  8 19  1  0
  9 20  1  0
  9 21  1  0
M  END
