
     RDKit          3D

 21 23  0  0  0  0  0  0  0  0999 V2000
    2.9071    0.1113   -0.2624 C   0  0  0  0  0  0  0  0  0  0  0  0
    1.4459   -0.0651   -0.5347 C   0  0  0  0  0  0  0  0  0  0  0  0
    0.4726    0.8084    0.1410 C   0  0  0  0  0  0  0  0  0  0  0  0
   -0.9831    0.5916   -0.2829 C   0  0  0  0  0  0  0  0  0  0  0  0
   -1.9335    1.5316    0.4188 C   0  0  0  0  0  0  0  0  0  0  0  0
   -0.8830   -0.7868    0.2597 C   0  0  0  0  0  0  0  0  0  0  0  0
   -1.5654   -1.9312   -0.0373 C   0  0  0  0  0  0  0  0  0  0  0  0
   -1.7239   -1.2612    1.2297 O   0  0  0  0  0  0  0  0  0  0  0  0
    0.5963   -0.6955    0.4814 C   0  0  0  0  0  0  0  0  0  0  0  0
    3.2162   -0.6466    0.4727 H   0  0  0  0  0  0  0  0  0  0  0  0
    3.5398   -0.0423   -1.1744 H   0  0  0  0  0  0  0  0  0  0  0  0
    3.0920    1.1483    0.1006 H   0  0  0  0  0  0  0  0  0  0  0  0
    1.2161   -0.3220   -1.5943 H   0  0  0  0  0  0  0  0  0  0  0  0
    0.6969    1.4488    0.9888 H   0  0  0  0  0  0  0  0  0  0  0  0
   -1.0265    0.6058   -1.3891 H   0  0  0  0  0  0  0  0  0  0  0  0
   -2.2217    2.3285   -0.2955 H   0  0  0  0  0  0  0  0  0  0  0  0
   -2.8204    0.9808    0.8228 H   0  0  0  0  0  0  0  0  0  0  0  0
   -1.4493    2.0589    1.2772 H   0  0  0  0  0  0  0  0  0  0  0  0
   -1.1209   -2.9510    0.0128 H   0  0  0  0  0  0  0  0  0  0  0  0
   -2.4987   -1.9391   -0.6724 H   0  0  0  0  0  0  0  0  0  0  0  0
    1.0434   -0.9731    1.4347 H   0  0  0  0  0  0  0  0  0  0  0  0
  1  2  1  0
  2  3  1  0
  3  4  1  0
  4  5  1  0
  4  6  1  0
  6  7  1  0
  7  8  1  0
  6  9  1  0
  9  2  1  0
  9  3  1  0
  8  6  1  0
  1 10  1  0
  1 11  1  0
  1 12  1  0
  2 13  1  0
  3 14  1  0
  4 15  1  0
  5 16  1  0
  5 17  1  0
  5 18  1  0
  7 19  1  0
  7 20  1  0
  9 21  1  0
M  END
