
     RDKit          3D

 23 24  0  0  0  0  0  0  0  0999 V2000
    1.5169    1.1153    0.8961 C   0  0  0  0  0  0  0  0  0  0  0  0
    1.0770    0.5404   -0.3906 C   0  0  0  0  0  0  0  0  0  0  0  0
    1.6199   -0.8869   -0.5915 C   0  0  0  0  0  0  0  0  0  0  0  0
    0.4439   -1.8206   -0.2677 C   0  0  0  0  0  0  0  0  0  0  0  0
   -0.5566   -0.9126    0.3043 C   0  0  0  0  0  0  0  0  0  0  0  0
   -1.8701   -1.1215    0.0617 O   0  0  0  0  0  0  0  0  0  0  0  0
   -2.5056    0.1451    0.1096 C   0  0  0  0  0  0  0  0  0  0  0  0
   -1.3715    1.1760   -0.0615 C   0  0  0  0  0  0  0  0  0  0  0  0
   -0.3332    0.3179   -0.6072 C   0  0  0  0  0  0  0  0  0  0  0  0
    0.8014    1.7560    1.4162 H   0  0  0  0  0  0  0  0  0  0  0  0
    2.4632    1.7256    0.7940 H   0  0  0  0  0  0  0  0  0  0  0  0
    1.7985    0.2762    1.5799 H   0  0  0  0  0  0  0  0  0  0  0  0
    1.5509    1.1457   -1.2180 H   0  0  0  0  0  0  0  0  0  0  0  0
    2.4899   -1.0842    0.0305 H   0  0  0  0  0  0  0  0  0  0  0  0
    1.8370   -1.0421   -1.6793 H   0  0  0  0  0  0  0  0  0  0  0  0
    0.1134   -2.3893   -1.1330 H   0  0  0  0  0  0  0  0  0  0  0  0
    0.8153   -2.5040    0.5476 H   0  0  0  0  0  0  0  0  0  0  0  0
   -0.2999   -0.5944    1.3305 H   0  0  0  0  0  0  0  0  0  0  0  0
   -3.0237    0.2645    1.0593 H   0  0  0  0  0  0  0  0  0  0  0  0
   -3.1554    0.2826   -0.7672 H   0  0  0  0  0  0  0  0  0  0  0  0
   -1.6987    2.0140   -0.7114 H   0  0  0  0  0  0  0  0  0  0  0  0
   -1.1744    1.5496    0.9522 H   0  0  0  0  0  0  0  0  0  0  0  0
   -0.5380    0.0466   -1.6545 H   0  0  0  0  0  0  0  0  0  0  0  0
  1  2  1  0
  2  3  1  0
  3  4  1  0
  4  5  1  0
  5  6  1  0
  6  7  1  0
  7  8  1  0
  8  9  1  0
  9  2  1  0
  9  5  1  0
  1 10  1  0
  1 11  1  0
  1 12  1  0
  2 13  1  0
  3 14  1  0
  3 15  1  0
  4 16  1  0
  4 17  1  0
  5 18  1  0
  7 19  1  0
  7 20  1  0
  8 21  1  0
  8 22  1  0
  9 23  1  0
M  END
