
     RDKit          3D

 21 22  0  0  0  0  0  0  0  0999 V2000
   -1.3157   -1.2300   -0.9668 C   0  0  0  0  0  0  0  0  0  0  0  0
   -1.0624   -0.2555    0.1436 C   0  0  0  0  0  0  0  0  0  0  0  0
   -1.2654    1.1554   -0.4315 C   0  0  0  0  0  0  0  0  0  0  0  0
   -0.5174    1.9398    0.5787 C   0  0  0  0  0  0  0  0  0  0  0  0
    0.4164    1.2013    1.1633 C   0  0  0  0  0  0  0  0  0  0  0  0
    0.3513   -0.1499    0.5698 C   0  0  0  0  0  0  0  0  0  0  0  0
    1.1910   -1.2568    0.9962 C   0  0  0  0  0  0  0  0  0  0  0  0
    1.4824   -0.5272   -0.3068 C   0  0  0  0  0  0  0  0  0  0  0  0
    2.6325    0.2688   -0.2636 O   0  0  0  0  0  0  0  0  0  0  0  0
   -2.3926   -1.1005   -1.2670 H   0  0  0  0  0  0  0  0  0  0  0  0
   -1.2022   -2.2725   -0.6580 H   0  0  0  0  0  0  0  0  0  0  0  0
   -0.7141   -0.9406   -1.8365 H   0  0  0  0  0  0  0  0  0  0  0  0
   -1.7311   -0.3396    0.9946 H   0  0  0  0  0  0  0  0  0  0  0  0
   -0.7103    1.1408   -1.4082 H   0  0  0  0  0  0  0  0  0  0  0  0
   -2.3127    1.4213   -0.5236 H   0  0  0  0  0  0  0  0  0  0  0  0
   -0.6941    2.9744    0.8206 H   0  0  0  0  0  0  0  0  0  0  0  0
    1.1312    1.4725    1.9404 H   0  0  0  0  0  0  0  0  0  0  0  0
    0.8305   -2.2828    0.8415 H   0  0  0  0  0  0  0  0  0  0  0  0
    1.9131   -1.1379    1.8326 H   0  0  0  0  0  0  0  0  0  0  0  0
    1.3458   -1.0421   -1.2588 H   0  0  0  0  0  0  0  0  0  0  0  0
    2.6236    0.9610   -0.9605 H   0  0  0  0  0  0  0  0  0  0  0  0
  1  2  1  0
  2  3  1  0
  3  4  1  0
  4  5  2  0
  5  6  1  0
  6  7  1  0
  7  8  1  0
  8  9  1  0
  6  2  1  0
  8  6  1  0
  1 10  1  0
  1 11  1  0
  1 12  1  0
  2 13  1  0
  3 14  1  0
  3 15  1  0
  4 16  1  0
  5 17  1  0
  7 18  1  0
  7 19  1  0
  8 20  1  0
  9 21  1  0
M  END
