
     RDKit          3D

 17 17  0  0  0  0  0  0  0  0999 V2000
    1.6183   -0.7855   -0.0609 C   0  0  0  0  0  0  0  0  0  0  0  0
    0.7340    0.2679    0.5205 C   0  0  0  0  0  0  0  0  0  0  0  0
    0.9470    1.5686   -0.1792 C   0  0  0  0  0  0  0  0  0  0  0  0
    1.9289    2.3035   -0.4443 O   0  0  0  0  0  0  0  0  0  0  0  0
   -0.4397    1.5896   -0.4006 O   0  0  0  0  0  0  0  0  0  0  0  0
   -0.6882    0.2866    0.0915 C   0  0  0  0  0  0  0  0  0  0  0  0
   -1.0781   -0.6755   -1.0068 C   0  0  0  0  0  0  0  0  0  0  0  0
   -1.6996    0.2263    1.1806 C   0  0  0  0  0  0  0  0  0  0  0  0
   -2.2056    1.2819    1.5361 O   0  0  0  0  0  0  0  0  0  0  0  0
    1.7058   -0.6688   -1.1618 H   0  0  0  0  0  0  0  0  0  0  0  0
    2.6534   -0.6004    0.3339 H   0  0  0  0  0  0  0  0  0  0  0  0
    1.3388   -1.8084    0.2424 H   0  0  0  0  0  0  0  0  0  0  0  0
    0.8676    0.3926    1.6106 H   0  0  0  0  0  0  0  0  0  0  0  0
   -1.6457   -0.0509   -1.7583 H   0  0  0  0  0  0  0  0  0  0  0  0
   -1.8392   -1.4226   -0.6525 H   0  0  0  0  0  0  0  0  0  0  0  0
   -0.2421   -1.1924   -1.4682 H   0  0  0  0  0  0  0  0  0  0  0  0
   -1.9555   -0.7125    1.6171 H   0  0  0  0  0  0  0  0  0  0  0  0
  1  2  1  0
  2  3  1  0
  3  4  2  0
  3  5  1  0
  5  6  1  0
  6  7  1  0
  6  8  1  0
  8  9  2  0
  6  2  1  0
  1 10  1  0
  1 11  1  0
  1 12  1  0
  2 13  1  0
  7 14  1  0
  7 15  1  0
  7 16  1  0
  8 17  1  0
M  END
