
     RDKit          3D

 22 23  0  0  0  0  0  0  0  0999 V2000
   -2.2824    0.0748    0.9944 C   0  0  0  0  0  0  0  0  0  0  0  0
   -1.1580    0.3854    0.0202 C   0  0  0  0  0  0  0  0  0  0  0  0
   -0.8668   -0.8338   -0.7603 C   0  0  0  0  0  0  0  0  0  0  0  0
    0.5566   -1.1021   -1.0711 C   0  0  0  0  0  0  0  0  0  0  0  0
    1.4928    0.0253   -0.9687 C   0  0  0  0  0  0  0  0  0  0  0  0
    2.3141    0.0680    0.3475 C   0  0  0  0  0  0  0  0  0  0  0  0
    1.2497    1.0558    0.0316 C   0  0  0  0  0  0  0  0  0  0  0  0
   -0.0139    0.9352    0.8146 C   0  0  0  0  0  0  0  0  0  0  0  0
   -1.9325   -0.8040    1.5932 H   0  0  0  0  0  0  0  0  0  0  0  0
   -3.1299   -0.2936    0.3874 H   0  0  0  0  0  0  0  0  0  0  0  0
   -2.5351    0.9365    1.6258 H   0  0  0  0  0  0  0  0  0  0  0  0
   -1.5082    1.2182   -0.6577 H   0  0  0  0  0  0  0  0  0  0  0  0
   -1.2756   -1.7495   -0.2365 H   0  0  0  0  0  0  0  0  0  0  0  0
   -1.4885   -0.7811   -1.7043 H   0  0  0  0  0  0  0  0  0  0  0  0
    0.6001   -1.5205   -2.1223 H   0  0  0  0  0  0  0  0  0  0  0  0
    0.9588   -1.9601   -0.4538 H   0  0  0  0  0  0  0  0  0  0  0  0
    2.0721    0.3237   -1.8924 H   0  0  0  0  0  0  0  0  0  0  0  0
    3.3759    0.2928    0.2246 H   0  0  0  0  0  0  0  0  0  0  0  0
    2.0955   -0.7095    1.0985 H   0  0  0  0  0  0  0  0  0  0  0  0
    1.6429    2.0860   -0.1920 H   0  0  0  0  0  0  0  0  0  0  0  0
   -0.3164    1.9713    1.1387 H   0  0  0  0  0  0  0  0  0  0  0  0
    0.1487    0.3811    1.7828 H   0  0  0  0  0  0  0  0  0  0  0  0
  1  2  1  0
  2  3  1  0
  3  4  1  0
  4  5  1  0
  5  6  1  0
  6  7  1  0
  7  8  1  0
  8  2  1  0
  7  5  1  0
  1  9  1  0
  1 10  1  0
  1 11  1  0
  2 12  1  0
  3 13  1  0
  3 14  1  0
  4 15  1  0
  4 16  1  0
  5 17  1  0
  6 18  1  0
  6 19  1  0
  7 20  1  0
  8 21  1  0
  8 22  1  0
M  END
