
     RDKit          3D

 20 20  0  0  0  0  0  0  0  0999 V2000
    2.3009   -0.5379    0.2071 C   0  0  0  0  0  0  0  0  0  0  0  0
    0.9332   -0.2472   -0.4308 C   0  0  0  0  0  0  0  0  0  0  0  0
    0.4994    1.1443   -0.1622 C   0  0  0  0  0  0  0  0  0  0  0  0
   -0.9195    1.4035    0.0772 C   0  0  0  0  0  0  0  0  0  0  0  0
   -1.8768    0.2830   -0.1320 C   0  0  0  0  0  0  0  0  0  0  0  0
   -1.3881   -1.0641    0.2945 C   0  0  0  0  0  0  0  0  0  0  0  0
    0.0281   -1.3071    0.0075 C   0  0  0  0  0  0  0  0  0  0  0  0
    0.4849   -2.4298    0.1338 O   0  0  0  0  0  0  0  0  0  0  0  0
    2.2972   -0.2946    1.2881 H   0  0  0  0  0  0  0  0  0  0  0  0
    3.0407    0.0456   -0.3717 H   0  0  0  0  0  0  0  0  0  0  0  0
    2.4623   -1.6280    0.0606 H   0  0  0  0  0  0  0  0  0  0  0  0
    1.1101   -0.3992   -1.5326 H   0  0  0  0  0  0  0  0  0  0  0  0
    0.8858    1.7814   -1.0154 H   0  0  0  0  0  0  0  0  0  0  0  0
    1.1120    1.5139    0.7152 H   0  0  0  0  0  0  0  0  0  0  0  0
   -1.2776    2.2384   -0.5991 H   0  0  0  0  0  0  0  0  0  0  0  0
   -1.0793    1.8358    1.1101 H   0  0  0  0  0  0  0  0  0  0  0  0
   -2.7954    0.5185    0.4484 H   0  0  0  0  0  0  0  0  0  0  0  0
   -2.2229    0.2326   -1.2023 H   0  0  0  0  0  0  0  0  0  0  0  0
   -1.6029   -1.2592    1.3704 H   0  0  0  0  0  0  0  0  0  0  0  0
   -1.9920   -1.8299   -0.2668 H   0  0  0  0  0  0  0  0  0  0  0  0
  1  2  1  0
  2  3  1  0
  3  4  1  0
  4  5  1  0
  5  6  1  0
  6  7  1  0
  7  8  2  0
  7  2  1  0
  1  9  1  0
  1 10  1  0
  1 11  1  0
  2 12  1  0
  3 13  1  0
  3 14  1  0
  4 15  1  0
  4 16  1  0
  5 17  1  0
  5 18  1  0
  6 19  1  0
  6 20  1  0
M  END
