
     RDKit          3D

 21 21  0  0  0  0  0  0  0  0999 V2000
    2.3117    0.1930    0.2080 C   0  0  0  0  0  0  0  0  0  0  0  0
    1.2733   -0.2303   -0.8389 C   0  0  0  0  0  0  0  0  0  0  0  0
    0.1970    0.7724   -0.7984 C   0  0  0  0  0  0  0  0  0  0  0  0
   -0.8000    0.3606   -0.0563 C   0  0  0  0  0  0  0  0  0  0  0  0
   -2.0869    1.1393    0.2130 C   0  0  0  0  0  0  0  0  0  0  0  0
   -2.0664    2.3521   -0.4353 O   0  0  0  0  0  0  0  0  0  0  0  0
   -0.5097   -0.9746    0.4923 C   0  0  0  0  0  0  0  0  0  0  0  0
   -0.1880   -0.9519    1.8442 O   0  0  0  0  0  0  0  0  0  0  0  0
    0.6050   -1.4867   -0.3667 C   0  0  0  0  0  0  0  0  0  0  0  0
    1.7413    0.3321    1.1549 H   0  0  0  0  0  0  0  0  0  0  0  0
    3.0826   -0.5769    0.3529 H   0  0  0  0  0  0  0  0  0  0  0  0
    2.7066    1.1786   -0.0986 H   0  0  0  0  0  0  0  0  0  0  0  0
    1.7408   -0.3323   -1.8370 H   0  0  0  0  0  0  0  0  0  0  0  0
    0.2387    1.7544   -1.3366 H   0  0  0  0  0  0  0  0  0  0  0  0
   -2.9146    0.5005   -0.1429 H   0  0  0  0  0  0  0  0  0  0  0  0
   -2.2294    1.3009    1.2838 H   0  0  0  0  0  0  0  0  0  0  0  0
   -2.7365    2.3427   -1.1657 H   0  0  0  0  0  0  0  0  0  0  0  0
   -1.3852   -1.6650    0.3277 H   0  0  0  0  0  0  0  0  0  0  0  0
   -0.5329   -1.8030    2.2399 H   0  0  0  0  0  0  0  0  0  0  0  0
    0.2616   -2.0465   -1.2460 H   0  0  0  0  0  0  0  0  0  0  0  0
    1.2910   -2.1592    0.2058 H   0  0  0  0  0  0  0  0  0  0  0  0
  1  2  1  0
  2  3  1  0
  3  4  2  0
  4  5  1  0
  5  6  1  0
  4  7  1  0
  7  8  1  0
  7  9  1  0
  9  2  1  0
  1 10  1  0
  1 11  1  0
  1 12  1  0
  2 13  1  0
  3 14  1  0
  5 15  1  0
  5 16  1  0
  6 17  1  0
  7 18  1  0
  8 19  1  0
  9 20  1  0
  9 21  1  0
M  END
