
     RDKit          3D

 21 22  0  0  0  0  0  0  0  0999 V2000
    2.6303    0.2148   -0.0162 C   0  0  0  0  0  0  0  0  0  0  0  0
    1.1903    0.5513   -0.0236 C   0  0  0  0  0  0  0  0  0  0  0  0
    0.4210    0.1285   -1.2870 C   0  0  0  0  0  0  0  0  0  0  0  0
   -0.6806   -0.1894   -0.3679 C   0  0  0  0  0  0  0  0  0  0  0  0
   -1.7598    0.8146   -0.2079 C   0  0  0  0  0  0  0  0  0  0  0  0
   -1.9765   -0.6734   -0.5824 C   0  0  0  0  0  0  0  0  0  0  0  0
   -2.6642   -1.3897    0.3817 O   0  0  0  0  0  0  0  0  0  0  0  0
    0.2785   -0.4308    0.7297 C   0  0  0  0  0  0  0  0  0  0  0  0
   -0.0659    0.0281    1.9943 O   0  0  0  0  0  0  0  0  0  0  0  0
    2.9805   -0.4559   -0.7980 H   0  0  0  0  0  0  0  0  0  0  0  0
    2.8774   -0.2628    0.9718 H   0  0  0  0  0  0  0  0  0  0  0  0
    3.2083    1.1854   -0.0100 H   0  0  0  0  0  0  0  0  0  0  0  0
    0.8953    1.5831    0.2217 H   0  0  0  0  0  0  0  0  0  0  0  0
    0.9161   -0.7102   -1.8192 H   0  0  0  0  0  0  0  0  0  0  0  0
    0.2322    0.9551   -1.9908 H   0  0  0  0  0  0  0  0  0  0  0  0
   -1.9665    1.0965    0.8470 H   0  0  0  0  0  0  0  0  0  0  0  0
   -1.9225    1.5604   -0.9946 H   0  0  0  0  0  0  0  0  0  0  0  0
   -2.3705   -0.8362   -1.6103 H   0  0  0  0  0  0  0  0  0  0  0  0
   -2.6159   -0.9359    1.2723 H   0  0  0  0  0  0  0  0  0  0  0  0
    0.6978   -1.4747    0.7541 H   0  0  0  0  0  0  0  0  0  0  0  0
   -0.3053   -0.7586    2.5351 H   0  0  0  0  0  0  0  0  0  0  0  0
  1  2  1  0
  2  3  1  0
  3  4  1  0
  4  5  1  0
  5  6  1  0
  6  7  1  0
  4  8  1  0
  8  9  1  0
  8  2  1  0
  6  4  1  0
  1 10  1  0
  1 11  1  0
  1 12  1  0
  2 13  1  0
  3 14  1  0
  3 15  1  0
  5 16  1  0
  5 17  1  0
  6 18  1  0
  7 19  1  0
  8 20  1  0
  9 21  1  0
M  END
