
     RDKit          3D

 25 25  0  0  0  0  0  0  0  0999 V2000
    2.3584    0.4415   -0.4870 C   0  0  0  0  0  0  0  0  0  0  0  0
    0.8881    0.3014   -0.8586 C   0  0  0  0  0  0  0  0  0  0  0  0
    0.1358    1.5381   -0.3815 C   0  0  0  0  0  0  0  0  0  0  0  0
   -0.7887    0.6065    0.3897 C   0  0  0  0  0  0  0  0  0  0  0  0
   -2.1542    0.6141   -0.2667 C   0  0  0  0  0  0  0  0  0  0  0  0
   -0.8455    0.8615    1.7534 O   0  0  0  0  0  0  0  0  0  0  0  0
    0.0829   -0.5661    0.0535 C   0  0  0  0  0  0  0  0  0  0  0  0
    0.8360   -1.1348    1.2477 C   0  0  0  0  0  0  0  0  0  0  0  0
   -0.7200   -1.6608   -0.6043 C   0  0  0  0  0  0  0  0  0  0  0  0
    2.8443    1.0698   -1.2527 H   0  0  0  0  0  0  0  0  0  0  0  0
    2.3843    0.9387    0.4961 H   0  0  0  0  0  0  0  0  0  0  0  0
    2.8480   -0.5475   -0.3533 H   0  0  0  0  0  0  0  0  0  0  0  0
    0.7413    0.1272   -1.9537 H   0  0  0  0  0  0  0  0  0  0  0  0
    0.7188    2.2256    0.2485 H   0  0  0  0  0  0  0  0  0  0  0  0
   -0.3351    2.0920   -1.2053 H   0  0  0  0  0  0  0  0  0  0  0  0
   -2.5326    1.6689   -0.1705 H   0  0  0  0  0  0  0  0  0  0  0  0
   -1.9667    0.4849   -1.3649 H   0  0  0  0  0  0  0  0  0  0  0  0
   -2.8473   -0.1137    0.1482 H   0  0  0  0  0  0  0  0  0  0  0  0
   -1.7625    0.7358    2.1151 H   0  0  0  0  0  0  0  0  0  0  0  0
    0.0737   -1.5349    1.9534 H   0  0  0  0  0  0  0  0  0  0  0  0
    1.3909   -0.3559    1.7897 H   0  0  0  0  0  0  0  0  0  0  0  0
    1.4645   -1.9738    0.9010 H   0  0  0  0  0  0  0  0  0  0  0  0
   -0.1795   -2.6391   -0.5561 H   0  0  0  0  0  0  0  0  0  0  0  0
   -0.9829   -1.4037   -1.6489 H   0  0  0  0  0  0  0  0  0  0  0  0
   -1.6520   -1.7755    0.0071 H   0  0  0  0  0  0  0  0  0  0  0  0
  1  2  1  0
  2  3  1  0
  3  4  1  0
  4  5  1  0
  4  6  1  0
  4  7  1  0
  7  8  1  0
  7  9  1  0
  7  2  1  0
  1 10  1  0
  1 11  1  0
  1 12  1  0
  2 13  1  0
  3 14  1  0
  3 15  1  0
  5 16  1  0
  5 17  1  0
  5 18  1  0
  6 19  1  0
  8 20  1  0
  8 21  1  0
  8 22  1  0
  9 23  1  0
  9 24  1  0
  9 25  1  0
M  END
