
     RDKit          3D

 19 19  0  0  0  0  0  0  0  0999 V2000
   -2.8336   -0.1255    0.1906 C   0  0  0  0  0  0  0  0  0  0  0  0
   -1.4736    0.4209   -0.1630 C   0  0  0  0  0  0  0  0  0  0  0  0
   -0.6904    0.8218    1.0254 C   0  0  0  0  0  0  0  0  0  0  0  0
    0.5896    0.6572    0.7070 C   0  0  0  0  0  0  0  0  0  0  0  0
    0.5979    0.1436   -0.7049 C   0  0  0  0  0  0  0  0  0  0  0  0
    1.6272   -0.9424   -0.7956 C   0  0  0  0  0  0  0  0  0  0  0  0
    2.9907   -0.4679   -0.4637 C   0  0  0  0  0  0  0  0  0  0  0  0
    3.1610    0.6880   -0.1827 O   0  0  0  0  0  0  0  0  0  0  0  0
   -0.6742   -0.4724   -0.8191 O   0  0  0  0  0  0  0  0  0  0  0  0
   -3.5243    0.7415    0.2473 H   0  0  0  0  0  0  0  0  0  0  0  0
   -2.7950   -0.5706    1.2234 H   0  0  0  0  0  0  0  0  0  0  0  0
   -3.1818   -0.9040   -0.5290 H   0  0  0  0  0  0  0  0  0  0  0  0
   -1.6265    1.3133   -0.8272 H   0  0  0  0  0  0  0  0  0  0  0  0
   -1.0810    1.1898    1.9987 H   0  0  0  0  0  0  0  0  0  0  0  0
    1.4251    0.8546    1.3393 H   0  0  0  0  0  0  0  0  0  0  0  0
    0.7172    0.9323   -1.4459 H   0  0  0  0  0  0  0  0  0  0  0  0
    1.3595   -1.7645   -0.0842 H   0  0  0  0  0  0  0  0  0  0  0  0
    1.5802   -1.3826   -1.8207 H   0  0  0  0  0  0  0  0  0  0  0  0
    3.8321   -1.1329   -0.4682 H   0  0  0  0  0  0  0  0  0  0  0  0
  1  2  1  0
  2  3  1  0
  3  4  2  0
  4  5  1  0
  5  6  1  0
  6  7  1  0
  7  8  2  0
  5  9  1  0
  9  2  1  0
  1 10  1  0
  1 11  1  0
  1 12  1  0
  2 13  1  0
  3 14  1  0
  4 15  1  0
  5 16  1  0
  6 17  1  0
  6 18  1  0
  7 19  1  0
M  END
