
     RDKit          3D

 23 24  0  0  0  0  0  0  0  0999 V2000
   -2.5622   -0.0909    0.0547 C   0  0  0  0  0  0  0  0  0  0  0  0
   -1.1107   -0.0945    0.5453 C   0  0  0  0  0  0  0  0  0  0  0  0
   -0.4292   -1.2279   -0.1172 C   0  0  0  0  0  0  0  0  0  0  0  0
    1.0181   -1.3936    0.2288 C   0  0  0  0  0  0  0  0  0  0  0  0
    1.7786   -0.4710   -0.7045 C   0  0  0  0  0  0  0  0  0  0  0  0
    1.8746    0.8350    0.0294 C   0  0  0  0  0  0  0  0  0  0  0  0
    0.6345    1.6627   -0.0257 C   0  0  0  0  0  0  0  0  0  0  0  0
   -0.2893    1.4739   -1.0432 O   0  0  0  0  0  0  0  0  0  0  0  0
   -0.5830    1.2513    0.4053 C   0  0  0  0  0  0  0  0  0  0  0  0
   -2.6270   -0.6087   -0.9451 H   0  0  0  0  0  0  0  0  0  0  0  0
   -3.2477   -0.5469    0.7647 H   0  0  0  0  0  0  0  0  0  0  0  0
   -2.9207    0.9423   -0.1386 H   0  0  0  0  0  0  0  0  0  0  0  0
   -1.1814   -0.3538    1.6449 H   0  0  0  0  0  0  0  0  0  0  0  0
   -0.4994   -1.1654   -1.2263 H   0  0  0  0  0  0  0  0  0  0  0  0
   -0.9469   -2.1714    0.1589 H   0  0  0  0  0  0  0  0  0  0  0  0
    1.3422   -2.4354    0.0522 H   0  0  0  0  0  0  0  0  0  0  0  0
    1.2477   -1.1747    1.2945 H   0  0  0  0  0  0  0  0  0  0  0  0
    1.2508   -0.3047   -1.6535 H   0  0  0  0  0  0  0  0  0  0  0  0
    2.7963   -0.8301   -0.9099 H   0  0  0  0  0  0  0  0  0  0  0  0
    2.7769    1.3594   -0.3419 H   0  0  0  0  0  0  0  0  0  0  0  0
    2.0988    0.5857    1.0981 H   0  0  0  0  0  0  0  0  0  0  0  0
    0.9157    2.7390    0.0670 H   0  0  0  0  0  0  0  0  0  0  0  0
   -1.3369    2.0196    0.7623 H   0  0  0  0  0  0  0  0  0  0  0  0
  1  2  1  0
  2  3  1  0
  3  4  1  0
  4  5  1  0
  5  6  1  0
  6  7  1  0
  7  8  1  0
  8  9  1  0
  9  2  1  0
  9  7  1  0
  1 10  1  0
  1 11  1  0
  1 12  1  0
  2 13  1  0
  3 14  1  0
  3 15  1  0
  4 16  1  0
  4 17  1  0
  5 18  1  0
  5 19  1  0
  6 20  1  0
  6 21  1  0
  7 22  1  0
  9 23  1  0
M  END
