
     RDKit          3D

 17 17  0  0  0  0  0  0  0  0999 V2000
   -1.8588    0.8333    0.5467 C   0  0  0  0  0  0  0  0  0  0  0  0
   -0.7910   -0.2193    0.4105 C   0  0  0  0  0  0  0  0  0  0  0  0
   -0.5899   -0.5810   -1.0319 C   0  0  0  0  0  0  0  0  0  0  0  0
    0.2337    0.5225   -1.1595 O   0  0  0  0  0  0  0  0  0  0  0  0
    0.5722    0.3732    0.1853 C   0  0  0  0  0  0  0  0  0  0  0  0
    1.7313   -0.5684    0.3295 C   0  0  0  0  0  0  0  0  0  0  0  0
    2.8568   -0.1063   -0.3474 O   0  0  0  0  0  0  0  0  0  0  0  0
   -1.4487    1.8103    0.2147 H   0  0  0  0  0  0  0  0  0  0  0  0
   -2.3001    0.8757    1.5662 H   0  0  0  0  0  0  0  0  0  0  0  0
   -2.6800    0.6002   -0.1938 H   0  0  0  0  0  0  0  0  0  0  0  0
   -0.8481   -1.0582    1.1249 H   0  0  0  0  0  0  0  0  0  0  0  0
   -0.1303   -1.5682   -1.1366 H   0  0  0  0  0  0  0  0  0  0  0  0
   -1.5336   -0.5354   -1.6232 H   0  0  0  0  0  0  0  0  0  0  0  0
    0.6679    1.3164    0.7523 H   0  0  0  0  0  0  0  0  0  0  0  0
    2.0178   -0.5598    1.4218 H   0  0  0  0  0  0  0  0  0  0  0  0
    1.5128   -1.5977    0.0673 H   0  0  0  0  0  0  0  0  0  0  0  0
    2.5881    0.4626   -1.1269 H   0  0  0  0  0  0  0  0  0  0  0  0
  1  2  1  0
  2  3  1  0
  3  4  1  0
  4  5  1  0
  5  6  1  0
  6  7  1  0
  5  2  1  0
  1  8  1  0
  1  9  1  0
  1 10  1  0
  2 11  1  0
  3 12  1  0
  3 13  1  0
  5 14  1  0
  6 15  1  0
  6 16  1  0
  7 17  1  0
M  END
