
     RDKit          3D

 21 21  0  0  0  0  0  0  0  0999 V2000
    2.4213    0.2144    0.7710 C   0  0  0  0  0  0  0  0  0  0  0  0
    1.3541    0.2848   -0.3063 C   0  0  0  0  0  0  0  0  0  0  0  0
    0.3927    1.3847   -0.0598 C   0  0  0  0  0  0  0  0  0  0  0  0
   -0.8810    1.2239    0.2078 C   0  0  0  0  0  0  0  0  0  0  0  0
   -1.4391   -0.1392    0.2781 C   0  0  0  0  0  0  0  0  0  0  0  0
   -2.9131   -0.1644    0.1039 C   0  0  0  0  0  0  0  0  0  0  0  0
   -3.4785    0.9039   -0.1314 O   0  0  0  0  0  0  0  0  0  0  0  0
   -0.7441   -0.9303   -0.8387 C   0  0  0  0  0  0  0  0  0  0  0  0
    0.7078   -1.0572   -0.4033 C   0  0  0  0  0  0  0  0  0  0  0  0
    2.1227   -0.5665    1.5276 H   0  0  0  0  0  0  0  0  0  0  0  0
    3.3906   -0.0887    0.3228 H   0  0  0  0  0  0  0  0  0  0  0  0
    2.5021    1.1545    1.3425 H   0  0  0  0  0  0  0  0  0  0  0  0
    1.8595    0.4888   -1.2756 H   0  0  0  0  0  0  0  0  0  0  0  0
    0.7729    2.3997   -0.1046 H   0  0  0  0  0  0  0  0  0  0  0  0
   -1.5078    2.0714    0.3732 H   0  0  0  0  0  0  0  0  0  0  0  0
   -1.1270   -0.5717    1.2572 H   0  0  0  0  0  0  0  0  0  0  0  0
   -3.4296   -1.0909    0.1862 H   0  0  0  0  0  0  0  0  0  0  0  0
   -0.7257   -0.3059   -1.7682 H   0  0  0  0  0  0  0  0  0  0  0  0
   -1.2134   -1.8932   -1.0089 H   0  0  0  0  0  0  0  0  0  0  0  0
    0.6791   -1.5659    0.5985 H   0  0  0  0  0  0  0  0  0  0  0  0
    1.2564   -1.7523   -1.0719 H   0  0  0  0  0  0  0  0  0  0  0  0
  1  2  1  0
  2  3  1  0
  3  4  2  0
  4  5  1  0
  5  6  1  0
  6  7  2  0
  5  8  1  0
  8  9  1  0
  9  2  1  0
  1 10  1  0
  1 11  1  0
  1 12  1  0
  2 13  1  0
  3 14  1  0
  4 15  1  0
  5 16  1  0
  6 17  1  0
  8 18  1  0
  8 19  1  0
  9 20  1  0
  9 21  1  0
M  END
