
     RDKit          3D

 23 24  0  0  0  0  0  0  0  0999 V2000
   -1.3016    1.4684   -1.1153 C   0  0  0  0  0  0  0  0  0  0  0  0
   -0.1429    0.6433   -0.7412 C   0  0  0  0  0  0  0  0  0  0  0  0
    0.6038    1.0690    0.5310 C   0  0  0  0  0  0  0  0  0  0  0  0
   -0.4207    0.2474    1.2764 C   0  0  0  0  0  0  0  0  0  0  0  0
   -0.3738   -0.6241    0.0220 C   0  0  0  0  0  0  0  0  0  0  0  0
   -1.4677   -1.5011   -0.2723 C   0  0  0  0  0  0  0  0  0  0  0  0
    1.0434   -1.1754    0.1226 C   0  0  0  0  0  0  0  0  0  0  0  0
    1.7788    0.1352    0.4739 C   0  0  0  0  0  0  0  0  0  0  0  0
    2.5940    0.5326   -0.5679 O   0  0  0  0  0  0  0  0  0  0  0  0
   -0.9972    2.1290   -1.9806 H   0  0  0  0  0  0  0  0  0  0  0  0
   -1.5399    2.1680   -0.2734 H   0  0  0  0  0  0  0  0  0  0  0  0
   -2.1752    0.9002   -1.4637 H   0  0  0  0  0  0  0  0  0  0  0  0
    0.6015    0.4987   -1.5387 H   0  0  0  0  0  0  0  0  0  0  0  0
    0.7199    2.0935    0.7271 H   0  0  0  0  0  0  0  0  0  0  0  0
   -1.3731    0.7157    1.4922 H   0  0  0  0  0  0  0  0  0  0  0  0
    0.0010   -0.3554    2.1198 H   0  0  0  0  0  0  0  0  0  0  0  0
   -1.1119   -2.4019   -0.8507 H   0  0  0  0  0  0  0  0  0  0  0  0
   -1.8872   -1.9487    0.6764 H   0  0  0  0  0  0  0  0  0  0  0  0
   -2.2959   -1.0223   -0.7927 H   0  0  0  0  0  0  0  0  0  0  0  0
    1.1484   -1.9149    0.9144 H   0  0  0  0  0  0  0  0  0  0  0  0
    1.3165   -1.5245   -0.8860 H   0  0  0  0  0  0  0  0  0  0  0  0
    2.2707    0.0730    1.4441 H   0  0  0  0  0  0  0  0  0  0  0  0
    3.0093   -0.2058   -1.0617 H   0  0  0  0  0  0  0  0  0  0  0  0
  1  2  1  0
  2  3  1  0
  3  4  1  0
  4  5  1  0
  5  6  1  0
  5  7  1  0
  7  8  1  0
  8  9  1  0
  5  2  1  0
  8  3  1  0
  1 10  1  0
  1 11  1  0
  1 12  1  0
  2 13  1  0
  3 14  1  0
  4 15  1  0
  4 16  1  0
  6 17  1  0
  6 18  1  0
  6 19  1  0
  7 20  1  0
  7 21  1  0
  8 22  1  0
  9 23  1  0
M  END
