
     RDKit          3D

 21 22  0  0  0  0  0  0  0  0999 V2000
    1.9411   -0.5156    0.4170 C   0  0  0  0  0  0  0  0  0  0  0  0
    0.7501   -0.5335   -0.4760 C   0  0  0  0  0  0  0  0  0  0  0  0
    0.4714    0.8560   -1.0910 C   0  0  0  0  0  0  0  0  0  0  0  0
   -0.7214    1.4012   -0.2707 C   0  0  0  0  0  0  0  0  0  0  0  0
   -0.5043    0.6327    0.9632 C   0  0  0  0  0  0  0  0  0  0  0  0
   -0.9959   -0.5565    1.5238 C   0  0  0  0  0  0  0  0  0  0  0  0
   -0.5464   -0.7556    0.1992 C   0  0  0  0  0  0  0  0  0  0  0  0
   -1.6215   -0.9296   -0.8170 C   0  0  0  0  0  0  0  0  0  0  0  0
   -1.3668   -1.6317   -1.7737 O   0  0  0  0  0  0  0  0  0  0  0  0
    2.7396   -1.1879   -0.0151 H   0  0  0  0  0  0  0  0  0  0  0  0
    2.4039    0.5145    0.4254 H   0  0  0  0  0  0  0  0  0  0  0  0
    1.7715   -0.8643    1.4375 H   0  0  0  0  0  0  0  0  0  0  0  0
    0.8965   -1.2272   -1.3155 H   0  0  0  0  0  0  0  0  0  0  0  0
    1.3441    1.4966   -0.8726 H   0  0  0  0  0  0  0  0  0  0  0  0
    0.2169    0.7772   -2.1540 H   0  0  0  0  0  0  0  0  0  0  0  0
   -0.5107    2.4940   -0.0712 H   0  0  0  0  0  0  0  0  0  0  0  0
   -1.6673    1.2894   -0.7938 H   0  0  0  0  0  0  0  0  0  0  0  0
    0.5227    0.9303    1.3613 H   0  0  0  0  0  0  0  0  0  0  0  0
   -2.0867   -0.6288    1.7542 H   0  0  0  0  0  0  0  0  0  0  0  0
   -0.4319   -1.0752    2.3437 H   0  0  0  0  0  0  0  0  0  0  0  0
   -2.6050   -0.4862   -0.7746 H   0  0  0  0  0  0  0  0  0  0  0  0
  1  2  1  0
  2  3  1  0
  3  4  1  0
  4  5  1  0
  5  6  1  0
  6  7  1  0
  7  8  1  0
  8  9  2  0
  7  2  1  0
  7  5  1  0
  1 10  1  0
  1 11  1  0
  1 12  1  0
  2 13  1  0
  3 14  1  0
  3 15  1  0
  4 16  1  0
  4 17  1  0
  5 18  1  0
  6 19  1  0
  6 20  1  0
  8 21  1  0
M  END
