
     RDKit          3D

 18 19  0  0  0  0  0  0  0  0999 V2000
    2.2905   -0.2640    0.8194 C   0  0  0  0  0  0  0  0  0  0  0  0
    1.2978   -0.4284   -0.2983 C   0  0  0  0  0  0  0  0  0  0  0  0
    0.6608    0.8184   -0.8569 C   0  0  0  0  0  0  0  0  0  0  0  0
   -0.1250   -0.1585   -0.0835 C   0  0  0  0  0  0  0  0  0  0  0  0
   -0.6763    0.3054    1.2012 C   0  0  0  0  0  0  0  0  0  0  0  0
   -1.9876    0.1545    1.1771 C   0  0  0  0  0  0  0  0  0  0  0  0
   -2.3184   -0.4221   -0.1518 C   0  0  0  0  0  0  0  0  0  0  0  0
   -1.1257   -0.9258   -0.6648 O   0  0  0  0  0  0  0  0  0  0  0  0
    3.2458    0.1914    0.4853 H   0  0  0  0  0  0  0  0  0  0  0  0
    2.5375   -1.2845    1.2240 H   0  0  0  0  0  0  0  0  0  0  0  0
    1.8658    0.4015    1.5766 H   0  0  0  0  0  0  0  0  0  0  0  0
    1.5725   -1.2236   -1.0298 H   0  0  0  0  0  0  0  0  0  0  0  0
    0.4925    0.8959   -1.9547 H   0  0  0  0  0  0  0  0  0  0  0  0
    0.9021    1.8052   -0.4029 H   0  0  0  0  0  0  0  0  0  0  0  0
   -0.0972    0.7087    2.0385 H   0  0  0  0  0  0  0  0  0  0  0  0
   -2.7119    0.4032    1.9810 H   0  0  0  0  0  0  0  0  0  0  0  0
   -3.0207   -1.2902    0.0002 H   0  0  0  0  0  0  0  0  0  0  0  0
   -2.8023    0.3131   -0.8069 H   0  0  0  0  0  0  0  0  0  0  0  0
  1  2  1  0
  2  3  1  0
  3  4  1  0
  4  5  1  0
  5  6  2  0
  6  7  1  0
  7  8  1  0
  4  2  1  0
  8  4  1  0
  1  9  1  0
  1 10  1  0
  1 11  1  0
  2 12  1  0
  3 13  1  0
  3 14  1  0
  5 15  1  0
  6 16  1  0
  7 17  1  0
  7 18  1  0
M  END
