
     RDKit          3D

 19 20  0  0  0  0  0  0  0  0999 V2000
   -2.3841    0.4797    0.4825 C   0  0  0  0  0  0  0  0  0  0  0  0
   -1.4430   -0.4147   -0.2448 C   0  0  0  0  0  0  0  0  0  0  0  0
   -0.7587    0.1952   -1.4602 C   0  0  0  0  0  0  0  0  0  0  0  0
    0.4932   -0.4948   -0.9908 C   0  0  0  0  0  0  0  0  0  0  0  0
    1.0768    0.0692    0.2563 C   0  0  0  0  0  0  0  0  0  0  0  0
    2.2846   -0.5404    0.6622 O   0  0  0  0  0  0  0  0  0  0  0  0
    3.3529    0.2343    1.0814 C   0  0  0  0  0  0  0  0  0  0  0  0
    3.1908    1.4824    1.0803 O   0  0  0  0  0  0  0  0  0  0  0  0
   -0.1459   -0.7399    0.3961 C   0  0  0  0  0  0  0  0  0  0  0  0
   -1.9462    1.0190    1.3380 H   0  0  0  0  0  0  0  0  0  0  0  0
   -3.2348   -0.1224    0.9088 H   0  0  0  0  0  0  0  0  0  0  0  0
   -2.8899    1.1772   -0.2475 H   0  0  0  0  0  0  0  0  0  0  0  0
   -1.9838   -1.3432   -0.5921 H   0  0  0  0  0  0  0  0  0  0  0  0
   -0.6567    1.2950   -1.3025 H   0  0  0  0  0  0  0  0  0  0  0  0
   -1.1605   -0.1236   -2.4269 H   0  0  0  0  0  0  0  0  0  0  0  0
    0.8751   -1.3876   -1.4792 H   0  0  0  0  0  0  0  0  0  0  0  0
    1.0798    1.1644    0.3074 H   0  0  0  0  0  0  0  0  0  0  0  0
    4.3040   -0.2148    1.4025 H   0  0  0  0  0  0  0  0  0  0  0  0
   -0.0536   -1.7352    0.8283 H   0  0  0  0  0  0  0  0  0  0  0  0
  1  2  1  0
  2  3  1  0
  3  4  1  0
  4  5  1  0
  5  6  1  0
  6  7  1  0
  7  8  2  0
  5  9  1  0
  9  2  1  0
  9  4  1  0
  1 10  1  0
  1 11  1  0
  1 12  1  0
  2 13  1  0
  3 14  1  0
  3 15  1  0
  4 16  1  0
  5 17  1  0
  7 18  1  0
  9 19  1  0
M  END
