
     RDKit          3D

 19 20  0  0  0  0  0  0  0  0999 V2000
   -1.9253    1.3637    0.0339 C   0  0  0  0  0  0  0  0  0  0  0  0
   -0.9406    0.4014   -0.5508 C   0  0  0  0  0  0  0  0  0  0  0  0
   -0.4190   -0.7441    0.3035 C   0  0  0  0  0  0  0  0  0  0  0  0
   -0.2857   -2.0784   -0.3859 C   0  0  0  0  0  0  0  0  0  0  0  0
    0.4273    0.3687   -0.1019 C   0  0  0  0  0  0  0  0  0  0  0  0
    1.0135    1.2562    0.7665 O   0  0  0  0  0  0  0  0  0  0  0  0
    2.2627    0.7599    0.3252 C   0  0  0  0  0  0  0  0  0  0  0  0
    1.6172    0.2804   -0.9176 C   0  0  0  0  0  0  0  0  0  0  0  0
    1.8991   -0.0336   -2.0471 O   0  0  0  0  0  0  0  0  0  0  0  0
   -2.9217    1.3007   -0.4875 H   0  0  0  0  0  0  0  0  0  0  0  0
   -2.0783    1.1667    1.1034 H   0  0  0  0  0  0  0  0  0  0  0  0
   -1.5060    2.3870   -0.0655 H   0  0  0  0  0  0  0  0  0  0  0  0
   -1.1436    0.1533   -1.6223 H   0  0  0  0  0  0  0  0  0  0  0  0
   -0.7414   -0.7860    1.3796 H   0  0  0  0  0  0  0  0  0  0  0  0
    0.3209   -1.9654   -1.2860 H   0  0  0  0  0  0  0  0  0  0  0  0
   -1.3123   -2.3880   -0.6834 H   0  0  0  0  0  0  0  0  0  0  0  0
    0.1679   -2.8131    0.2977 H   0  0  0  0  0  0  0  0  0  0  0  0
    2.5145   -0.1306    0.9641 H   0  0  0  0  0  0  0  0  0  0  0  0
    3.0508    1.5015    0.2287 H   0  0  0  0  0  0  0  0  0  0  0  0
  1  2  1  0
  2  3  1  0
  3  4  1  0
  3  5  1  0
  5  6  1  0
  6  7  1  0
  7  8  1  0
  8  9  2  0
  5  2  1  0
  8  5  1  0
  1 10  1  0
  1 11  1  0
  1 12  1  0
  2 13  1  0
  3 14  1  0
  4 15  1  0
  4 16  1  0
  4 17  1  0
  7 18  1  0
  7 19  1  0
M  END
