
     RDKit          3D

 21 22  0  0  0  0  0  0  0  0999 V2000
    1.0287   -1.7433   -0.1181 C   0  0  0  0  0  0  0  0  0  0  0  0
    0.7809   -0.3526    0.4123 C   0  0  0  0  0  0  0  0  0  0  0  0
    1.5610    0.6940   -0.3571 C   0  0  0  0  0  0  0  0  0  0  0  0
    0.9098    1.9420    0.1048 C   0  0  0  0  0  0  0  0  0  0  0  0
    1.4543    3.0125    0.2122 O   0  0  0  0  0  0  0  0  0  0  0  0
   -0.5038    1.6108    0.3976 C   0  0  0  0  0  0  0  0  0  0  0  0
   -0.6188    0.1186    0.2236 C   0  0  0  0  0  0  0  0  0  0  0  0
   -1.8042   -0.6100    0.6443 C   0  0  0  0  0  0  0  0  0  0  0  0
   -1.4409   -0.4549   -0.8544 C   0  0  0  0  0  0  0  0  0  0  0  0
    0.1968   -2.3783    0.2531 H   0  0  0  0  0  0  0  0  0  0  0  0
    1.0415   -1.7139   -1.2373 H   0  0  0  0  0  0  0  0  0  0  0  0
    1.9784   -2.1157    0.2987 H   0  0  0  0  0  0  0  0  0  0  0  0
    1.1328   -0.2977    1.4696 H   0  0  0  0  0  0  0  0  0  0  0  0
    1.3358    0.5138   -1.4377 H   0  0  0  0  0  0  0  0  0  0  0  0
    2.6413    0.6549   -0.1514 H   0  0  0  0  0  0  0  0  0  0  0  0
   -0.8341    1.9027    1.3999 H   0  0  0  0  0  0  0  0  0  0  0  0
   -1.1614    2.0674   -0.3945 H   0  0  0  0  0  0  0  0  0  0  0  0
   -2.6810    0.0137    0.9756 H   0  0  0  0  0  0  0  0  0  0  0  0
   -1.8202   -1.6379    0.9946 H   0  0  0  0  0  0  0  0  0  0  0  0
   -1.0848   -1.3757   -1.3663 H   0  0  0  0  0  0  0  0  0  0  0  0
   -2.1122    0.1499   -1.4695 H   0  0  0  0  0  0  0  0  0  0  0  0
  1  2  1  0
  2  3  1  0
  3  4  1  0
  4  5  2  0
  4  6  1  0
  6  7  1  0
  7  8  1  0
  8  9  1  0
  7  2  1  0
  9  7  1  0
  1 10  1  0
  1 11  1  0
  1 12  1  0
  2 13  1  0
  3 14  1  0
  3 15  1  0
  6 16  1  0
  6 17  1  0
  8 18  1  0
  8 19  1  0
  9 20  1  0
  9 21  1  0
M  END
