
     RDKit          3D

 16 16  0  0  0  0  0  0  0  0999 V2000
   -1.7599   -0.2745    0.2937 C   0  0  0  0  0  0  0  0  0  0  0  0
   -0.2832   -0.4142    0.5417 C   0  0  0  0  0  0  0  0  0  0  0  0
    0.5615   -0.7172   -0.6466 C   0  0  0  0  0  0  0  0  0  0  0  0
    1.6592   -1.5388   -0.5541 O   0  0  0  0  0  0  0  0  0  0  0  0
    0.6841    0.6192    0.1331 C   0  0  0  0  0  0  0  0  0  0  0  0
    1.8261    0.7518    0.9238 O   0  0  0  0  0  0  0  0  0  0  0  0
    0.3323    1.7779   -0.6835 C   0  0  0  0  0  0  0  0  0  0  0  0
   -0.6256    1.8485   -1.4337 O   0  0  0  0  0  0  0  0  0  0  0  0
   -2.0885   -0.9470   -0.5342 H   0  0  0  0  0  0  0  0  0  0  0  0
   -2.3548   -0.5822    1.2001 H   0  0  0  0  0  0  0  0  0  0  0  0
   -2.0666    0.7367    0.0329 H   0  0  0  0  0  0  0  0  0  0  0  0
   -0.0344   -1.0028    1.4469 H   0  0  0  0  0  0  0  0  0  0  0  0
    0.0766   -0.7052   -1.6263 H   0  0  0  0  0  0  0  0  0  0  0  0
    1.3882   -2.4325   -0.2244 H   0  0  0  0  0  0  0  0  0  0  0  0
    1.7317    0.2164    1.7727 H   0  0  0  0  0  0  0  0  0  0  0  0
    0.9535    2.6639   -0.6421 H   0  0  0  0  0  0  0  0  0  0  0  0
  1  2  1  0
  2  3  1  0
  3  4  1  0
  3  5  1  0
  5  6  1  0
  5  7  1  0
  7  8  2  0
  5  2  1  0
  1  9  1  0
  1 10  1  0
  1 11  1  0
  2 12  1  0
  3 13  1  0
  4 14  1  0
  6 15  1  0
  7 16  1  0
M  END
