
     RDKit          3D

 21 22  0  0  0  0  0  0  0  0999 V2000
   -2.5155   -0.2425   -0.1996 C   0  0  0  0  0  0  0  0  0  0  0  0
   -1.0347   -0.0724   -0.4789 C   0  0  0  0  0  0  0  0  0  0  0  0
   -0.6421    1.2346    0.0546 C   0  0  0  0  0  0  0  0  0  0  0  0
    0.5946    1.6964    0.1288 C   0  0  0  0  0  0  0  0  0  0  0  0
    1.8366    1.0563   -0.2820 C   0  0  0  0  0  0  0  0  0  0  0  0
    2.0385   -0.3591    0.0867 C   0  0  0  0  0  0  0  0  0  0  0  0
    1.6596   -0.6593    1.3928 O   0  0  0  0  0  0  0  0  0  0  0  0
    1.0927   -1.3279    0.1603 C   0  0  0  0  0  0  0  0  0  0  0  0
   -0.3508   -1.2325    0.1802 C   0  0  0  0  0  0  0  0  0  0  0  0
   -3.0552    0.7361   -0.2137 H   0  0  0  0  0  0  0  0  0  0  0  0
   -2.9982   -0.9253   -0.9287 H   0  0  0  0  0  0  0  0  0  0  0  0
   -2.6462   -0.6387    0.8350 H   0  0  0  0  0  0  0  0  0  0  0  0
   -0.9018   -0.1338   -1.5983 H   0  0  0  0  0  0  0  0  0  0  0  0
   -1.4532    1.8789    0.4212 H   0  0  0  0  0  0  0  0  0  0  0  0
    0.6654    2.6880    0.5569 H   0  0  0  0  0  0  0  0  0  0  0  0
    2.0349    1.1394   -1.3865 H   0  0  0  0  0  0  0  0  0  0  0  0
    2.6936    1.6451    0.1685 H   0  0  0  0  0  0  0  0  0  0  0  0
    3.1219   -0.6596   -0.0912 H   0  0  0  0  0  0  0  0  0  0  0  0
    1.4497   -2.4040    0.2753 H   0  0  0  0  0  0  0  0  0  0  0  0
   -0.7680   -1.2799    1.2309 H   0  0  0  0  0  0  0  0  0  0  0  0
   -0.8221   -2.1397   -0.3123 H   0  0  0  0  0  0  0  0  0  0  0  0
  1  2  1  0
  2  3  1  0
  3  4  2  0
  4  5  1  0
  5  6  1  0
  6  7  1  0
  7  8  1  0
  8  9  1  0
  9  2  1  0
  8  6  1  0
  1 10  1  0
  1 11  1  0
  1 12  1  0
  2 13  1  0
  3 14  1  0
  4 15  1  0
  5 16  1  0
  5 17  1  0
  6 18  1  0
  8 19  1  0
  9 20  1  0
  9 21  1  0
M  END
