
     RDKit          3D

 17 19  0  0  0  0  0  0  0  0999 V2000
   -1.8688   -0.0706   -0.1615 C   0  0  0  0  0  0  0  0  0  0  0  0
   -0.7172    0.1423    0.8297 C   0  0  0  0  0  0  0  0  0  0  0  0
    0.0412    1.3599    0.4672 C   0  0  0  0  0  0  0  0  0  0  0  0
   -0.1195    2.4559    0.9419 O   0  0  0  0  0  0  0  0  0  0  0  0
    1.0120    0.9436   -0.5772 C   0  0  0  0  0  0  0  0  0  0  0  0
    2.1973    0.5725    0.0451 O   0  0  0  0  0  0  0  0  0  0  0  0
    1.6964   -0.6779    0.2849 C   0  0  0  0  0  0  0  0  0  0  0  0
    0.2699   -0.9671    0.5096 C   0  0  0  0  0  0  0  0  0  0  0  0
    0.7487   -0.5225   -0.7932 C   0  0  0  0  0  0  0  0  0  0  0  0
   -1.9690   -1.1513   -0.4248 H   0  0  0  0  0  0  0  0  0  0  0  0
   -2.8221    0.2839    0.2245 H   0  0  0  0  0  0  0  0  0  0  0  0
   -1.5793    0.4272   -1.1332 H   0  0  0  0  0  0  0  0  0  0  0  0
   -1.0635    0.1212    1.8675 H   0  0  0  0  0  0  0  0  0  0  0  0
    1.0821    1.5651   -1.4600 H   0  0  0  0  0  0  0  0  0  0  0  0
    2.4003   -1.5003    0.3361 H   0  0  0  0  0  0  0  0  0  0  0  0
    0.0015   -1.9837    0.7752 H   0  0  0  0  0  0  0  0  0  0  0  0
    0.6899   -0.9982   -1.7317 H   0  0  0  0  0  0  0  0  0  0  0  0
  1  2  1  0
  2  3  1  0
  3  4  2  0
  3  5  1  0
  5  6  1  0
  6  7  1  0
  7  8  1  0
  8  9  1  0
  8  2  1  0
  9  5  1  0
  9  7  1  0
  1 10  1  0
  1 11  1  0
  1 12  1  0
  2 13  1  0
  5 14  1  0
  7 15  1  0
  8 16  1  0
  9 17  1  0
M  END
