
     RDKit          3D

 25 25  0  0  0  0  0  0  0  0999 V2000
    1.0526    1.6223    0.3885 C   0  0  0  0  0  0  0  0  0  0  0  0
    0.7265    0.6507   -0.7000 C   0  0  0  0  0  0  0  0  0  0  0  0
   -0.6364    0.9547   -1.2731 C   0  0  0  0  0  0  0  0  0  0  0  0
   -1.7673    0.5571   -0.4058 C   0  0  0  0  0  0  0  0  0  0  0  0
   -1.6005   -0.7175    0.3417 C   0  0  0  0  0  0  0  0  0  0  0  0
   -2.5766   -0.7886    1.3264 O   0  0  0  0  0  0  0  0  0  0  0  0
   -0.2128   -0.9305    0.8924 C   0  0  0  0  0  0  0  0  0  0  0  0
    0.7400   -0.7735   -0.2736 C   0  0  0  0  0  0  0  0  0  0  0  0
    2.1043   -1.3271    0.0053 C   0  0  0  0  0  0  0  0  0  0  0  0
    1.9220    1.2766    0.9835 H   0  0  0  0  0  0  0  0  0  0  0  0
    0.1941    1.7791    1.0818 H   0  0  0  0  0  0  0  0  0  0  0  0
    1.3117    2.5970   -0.0916 H   0  0  0  0  0  0  0  0  0  0  0  0
    1.4741    0.7966   -1.5176 H   0  0  0  0  0  0  0  0  0  0  0  0
   -0.6720    0.4764   -2.2804 H   0  0  0  0  0  0  0  0  0  0  0  0
   -0.7420    2.0591   -1.4861 H   0  0  0  0  0  0  0  0  0  0  0  0
   -2.6767    0.4379   -1.0657 H   0  0  0  0  0  0  0  0  0  0  0  0
   -2.0207    1.3907    0.2866 H   0  0  0  0  0  0  0  0  0  0  0  0
   -1.7974   -1.5886   -0.3493 H   0  0  0  0  0  0  0  0  0  0  0  0
   -2.3265   -0.3676    2.1689 H   0  0  0  0  0  0  0  0  0  0  0  0
   -0.1316   -1.9816    1.2278 H   0  0  0  0  0  0  0  0  0  0  0  0
    0.0289   -0.2183    1.7092 H   0  0  0  0  0  0  0  0  0  0  0  0
    0.3041   -1.3815   -1.1093 H   0  0  0  0  0  0  0  0  0  0  0  0
    1.9765   -2.4240    0.1973 H   0  0  0  0  0  0  0  0  0  0  0  0
    2.6207   -0.8596    0.8449 H   0  0  0  0  0  0  0  0  0  0  0  0
    2.7049   -1.2398   -0.9018 H   0  0  0  0  0  0  0  0  0  0  0  0
  1  2  1  0
  2  3  1  0
  3  4  1  0
  4  5  1  0
  5  6  1  0
  5  7  1  0
  7  8  1  0
  8  9  1  0
  8  2  1  0
  1 10  1  0
  1 11  1  0
  1 12  1  0
  2 13  1  0
  3 14  1  0
  3 15  1  0
  4 16  1  0
  4 17  1  0
  5 18  1  0
  6 19  1  0
  7 20  1  0
  7 21  1  0
  8 22  1  0
  9 23  1  0
  9 24  1  0
  9 25  1  0
M  END
