
     RDKit          3D

 17 17  0  0  0  0  0  0  0  0999 V2000
    1.2177   -1.5435    0.0815 C   0  0  0  0  0  0  0  0  0  0  0  0
    0.6672   -0.1626    0.0009 C   0  0  0  0  0  0  0  0  0  0  0  0
    1.3535    1.0337   -0.0857 C   0  0  0  0  0  0  0  0  0  0  0  0
    2.7399    1.1090   -0.1104 O   0  0  0  0  0  0  0  0  0  0  0  0
    0.4613    1.9951   -0.1345 O   0  0  0  0  0  0  0  0  0  0  0  0
   -0.7586    1.4996   -0.0852 C   0  0  0  0  0  0  0  0  0  0  0  0
   -1.9686    2.2121   -0.1135 O   0  0  0  0  0  0  0  0  0  0  0  0
   -0.6824    0.1231    0.0019 C   0  0  0  0  0  0  0  0  0  0  0  0
   -1.7763   -0.8612    0.0807 C   0  0  0  0  0  0  0  0  0  0  0  0
    0.4872   -2.2660   -0.2774 H   0  0  0  0  0  0  0  0  0  0  0  0
    2.1769   -1.5390   -0.4655 H   0  0  0  0  0  0  0  0  0  0  0  0
    1.4361   -1.8090    1.1536 H   0  0  0  0  0  0  0  0  0  0  0  0
    3.2094    1.0566   -1.0265 H   0  0  0  0  0  0  0  0  0  0  0  0
   -2.2870    2.6048    0.7818 H   0  0  0  0  0  0  0  0  0  0  0  0
   -2.7428   -0.4282   -0.2969 H   0  0  0  0  0  0  0  0  0  0  0  0
   -1.5848   -1.7530   -0.5855 H   0  0  0  0  0  0  0  0  0  0  0  0
   -1.9488   -1.2715    1.0806 H   0  0  0  0  0  0  0  0  0  0  0  0
  1  2  1  0
  2  3  2  0
  3  4  1  0
  3  5  1  0
  5  6  1  0
  6  7  1  0
  6  8  2  0
  8  9  1  0
  8  2  1  0
  1 10  1  0
  1 11  1  0
  1 12  1  0
  4 13  1  0
  7 14  1  0
  9 15  1  0
  9 16  1  0
  9 17  1  0
M  END
