
     RDKit          3D

 19 21  0  0  0  0  0  0  0  0999 V2000
   -2.5440    0.2472   -0.1074 C   0  0  0  0  0  0  0  0  0  0  0  0
   -1.1592   -0.2248   -0.3954 C   0  0  0  0  0  0  0  0  0  0  0  0
   -0.1027    0.7381   -0.4042 C   0  0  0  0  0  0  0  0  0  0  0  0
    1.2614    0.1703   -0.8356 C   0  0  0  0  0  0  0  0  0  0  0  0
    1.1262   -0.9865   -1.5638 O   0  0  0  0  0  0  0  0  0  0  0  0
    2.4625    0.0741   -0.0085 C   0  0  0  0  0  0  0  0  0  0  0  0
    1.2646    0.1604    0.7306 C   0  0  0  0  0  0  0  0  0  0  0  0
   -0.0843   -0.4386    0.5918 C   0  0  0  0  0  0  0  0  0  0  0  0
   -0.7190   -0.3502    1.8593 O   0  0  0  0  0  0  0  0  0  0  0  0
   -3.1408   -0.5217    0.4161 H   0  0  0  0  0  0  0  0  0  0  0  0
   -3.0090    0.6609   -1.0032 H   0  0  0  0  0  0  0  0  0  0  0  0
   -2.4679    1.1039    0.6246 H   0  0  0  0  0  0  0  0  0  0  0  0
   -1.1475   -0.9918   -1.2314 H   0  0  0  0  0  0  0  0  0  0  0  0
   -0.1361    1.7515    0.0148 H   0  0  0  0  0  0  0  0  0  0  0  0
    1.9473   -1.4015   -1.8642 H   0  0  0  0  0  0  0  0  0  0  0  0
    3.1820    0.9149   -0.1953 H   0  0  0  0  0  0  0  0  0  0  0  0
    3.0630   -0.8727    0.1367 H   0  0  0  0  0  0  0  0  0  0  0  0
    1.1541    1.2296    1.1403 H   0  0  0  0  0  0  0  0  0  0  0  0
   -0.9506   -1.2630    2.0947 H   0  0  0  0  0  0  0  0  0  0  0  0
  1  2  1  0
  2  3  1  0
  3  4  1  0
  4  5  1  0
  4  6  1  0
  6  7  1  0
  7  8  1  0
  8  9  1  0
  8  2  1  0
  8  3  1  0
  7  4  1  0
  1 10  1  0
  1 11  1  0
  1 12  1  0
  2 13  1  0
  3 14  1  0
  5 15  1  0
  6 16  1  0
  6 17  1  0
  7 18  1  0
  9 19  1  0
M  END
