
     RDKit          3D

 16 16  0  0  0  0  0  0  0  0999 V2000
   -1.9168   -0.0533    0.1087 C   0  0  0  0  0  0  0  0  0  0  0  0
   -0.5314   -0.1604    0.7066 C   0  0  0  0  0  0  0  0  0  0  0  0
    0.2835   -1.2245    0.0834 C   0  0  0  0  0  0  0  0  0  0  0  0
   -0.0354   -2.3756   -0.0697 O   0  0  0  0  0  0  0  0  0  0  0  0
    1.5671   -0.5942   -0.3140 C   0  0  0  0  0  0  0  0  0  0  0  0
    1.1370    0.8095   -0.6662 C   0  0  0  0  0  0  0  0  0  0  0  0
    0.1691    1.1232    0.4044 C   0  0  0  0  0  0  0  0  0  0  0  0
   -0.0523    2.1793    0.9570 O   0  0  0  0  0  0  0  0  0  0  0  0
   -2.5957    0.2480    0.9357 H   0  0  0  0  0  0  0  0  0  0  0  0
   -1.9816    0.7605   -0.6549 H   0  0  0  0  0  0  0  0  0  0  0  0
   -2.2372   -0.9847   -0.3838 H   0  0  0  0  0  0  0  0  0  0  0  0
   -0.5910   -0.3359    1.8029 H   0  0  0  0  0  0  0  0  0  0  0  0
    2.0493   -1.1159   -1.1564 H   0  0  0  0  0  0  0  0  0  0  0  0
    2.2014   -0.5578    0.5945 H   0  0  0  0  0  0  0  0  0  0  0  0
    0.5541    0.7662   -1.6224 H   0  0  0  0  0  0  0  0  0  0  0  0
    1.9800    1.5156   -0.7260 H   0  0  0  0  0  0  0  0  0  0  0  0
  1  2  1  0
  2  3  1  0
  3  4  2  0
  3  5  1  0
  5  6  1  0
  6  7  1  0
  7  8  2  0
  7  2  1  0
  1  9  1  0
  1 10  1  0
  1 11  1  0
  2 12  1  0
  5 13  1  0
  5 14  1  0
  6 15  1  0
  6 16  1  0
M  END
