
     RDKit          3D

 19 19  0  0  0  0  0  0  0  0999 V2000
   -2.4471   -0.6693   -0.3901 C   0  0  0  0  0  0  0  0  0  0  0  0
   -1.2101   -0.3108    0.3717 C   0  0  0  0  0  0  0  0  0  0  0  0
    0.0552   -0.5753   -0.4037 C   0  0  0  0  0  0  0  0  0  0  0  0
    1.0252    0.3226    0.2514 C   0  0  0  0  0  0  0  0  0  0  0  0
    2.4953    0.0762    0.2210 C   0  0  0  0  0  0  0  0  0  0  0  0
    2.9238    0.0673   -1.1028 O   0  0  0  0  0  0  0  0  0  0  0  0
    0.3648    1.3115    0.8243 C   0  0  0  0  0  0  0  0  0  0  0  0
   -1.0702    1.1506    0.6004 C   0  0  0  0  0  0  0  0  0  0  0  0
   -1.8899    2.0875    0.6197 O   0  0  0  0  0  0  0  0  0  0  0  0
   -2.2153   -1.5979   -0.9797 H   0  0  0  0  0  0  0  0  0  0  0  0
   -2.7885    0.1561   -1.0132 H   0  0  0  0  0  0  0  0  0  0  0  0
   -3.2194   -1.0118    0.3575 H   0  0  0  0  0  0  0  0  0  0  0  0
   -1.1409   -0.8562    1.3385 H   0  0  0  0  0  0  0  0  0  0  0  0
    0.3598   -1.6369   -0.3753 H   0  0  0  0  0  0  0  0  0  0  0  0
   -0.1586   -0.2414   -1.4536 H   0  0  0  0  0  0  0  0  0  0  0  0
    2.9891    0.8715    0.7959 H   0  0  0  0  0  0  0  0  0  0  0  0
    2.7717   -0.8906    0.6672 H   0  0  0  0  0  0  0  0  0  0  0  0
    2.2936   -0.3727   -1.7089 H   0  0  0  0  0  0  0  0  0  0  0  0
    0.8615    2.1196    1.3795 H   0  0  0  0  0  0  0  0  0  0  0  0
  1  2  1  0
  2  3  1  0
  3  4  1  0
  4  5  1  0
  5  6  1  0
  4  7  2  0
  7  8  1  0
  8  9  2  0
  8  2  1  0
  1 10  1  0
  1 11  1  0
  1 12  1  0
  2 13  1  0
  3 14  1  0
  3 15  1  0
  5 16  1  0
  5 17  1  0
  6 18  1  0
  7 19  1  0
M  END
