
     RDKit          3D

 16 16  0  0  0  0  0  0  0  0999 V2000
    2.0044    0.1221   -0.1611 C   0  0  0  0  0  0  0  0  0  0  0  0
    0.5571    0.0406    0.3372 C   0  0  0  0  0  0  0  0  0  0  0  0
   -0.1006   -1.0667   -0.4709 C   0  0  0  0  0  0  0  0  0  0  0  0
   -1.5564   -0.9741   -0.2189 C   0  0  0  0  0  0  0  0  0  0  0  0
   -2.2329   -2.0256   -0.1580 O   0  0  0  0  0  0  0  0  0  0  0  0
   -2.1023    0.2725   -0.0623 O   0  0  0  0  0  0  0  0  0  0  0  0
   -1.3410    1.3685    0.3985 C   0  0  0  0  0  0  0  0  0  0  0  0
   -0.0082    1.2639    0.1575 O   0  0  0  0  0  0  0  0  0  0  0  0
    2.0984   -0.3126   -1.1773 H   0  0  0  0  0  0  0  0  0  0  0  0
    2.3351    1.1744   -0.2270 H   0  0  0  0  0  0  0  0  0  0  0  0
    2.6705   -0.4826    0.5057 H   0  0  0  0  0  0  0  0  0  0  0  0
    0.5976   -0.3064    1.3979 H   0  0  0  0  0  0  0  0  0  0  0  0
    0.0937   -0.8478   -1.5372 H   0  0  0  0  0  0  0  0  0  0  0  0
    0.3206   -2.0256   -0.1411 H   0  0  0  0  0  0  0  0  0  0  0  0
   -1.6103    1.5199    1.4762 H   0  0  0  0  0  0  0  0  0  0  0  0
   -1.7256    2.2796   -0.1191 H   0  0  0  0  0  0  0  0  0  0  0  0
  1  2  1  0
  2  3  1  0
  3  4  1  0
  4  5  2  0
  4  6  1  0
  6  7  1  0
  7  8  1  0
  8  2  1  0
  1  9  1  0
  1 10  1  0
  1 11  1  0
  2 12  1  0
  3 13  1  0
  3 14  1  0
  7 15  1  0
  7 16  1  0
M  END
