
     RDKit          3D

 21 22  0  0  0  0  0  0  0  0999 V2000
    2.3089    0.2691    0.3596 C   0  0  0  0  0  0  0  0  0  0  0  0
    1.0234    0.1553   -0.4196 C   0  0  0  0  0  0  0  0  0  0  0  0
    0.0650    1.2864   -0.0592 C   0  0  0  0  0  0  0  0  0  0  0  0
   -1.1149    0.6422    0.6510 C   0  0  0  0  0  0  0  0  0  0  0  0
   -1.9760   -0.0707   -0.3727 C   0  0  0  0  0  0  0  0  0  0  0  0
   -0.9865   -1.0878   -0.9272 C   0  0  0  0  0  0  0  0  0  0  0  0
    0.2192   -1.0609   -0.0154 C   0  0  0  0  0  0  0  0  0  0  0  0
   -0.4134   -0.5423    1.2319 C   0  0  0  0  0  0  0  0  0  0  0  0
   -0.4234   -0.8806    2.3686 O   0  0  0  0  0  0  0  0  0  0  0  0
    2.1277    0.6052    1.3813 H   0  0  0  0  0  0  0  0  0  0  0  0
    2.9465    1.0128   -0.1542 H   0  0  0  0  0  0  0  0  0  0  0  0
    2.8284   -0.7101    0.3200 H   0  0  0  0  0  0  0  0  0  0  0  0
    1.2105    0.0921   -1.5014 H   0  0  0  0  0  0  0  0  0  0  0  0
   -0.2783    1.8137   -0.9692 H   0  0  0  0  0  0  0  0  0  0  0  0
    0.5546    2.0257    0.5900 H   0  0  0  0  0  0  0  0  0  0  0  0
   -1.6308    1.2650    1.3497 H   0  0  0  0  0  0  0  0  0  0  0  0
   -2.7317   -0.6553    0.1989 H   0  0  0  0  0  0  0  0  0  0  0  0
   -2.3916    0.5854   -1.1331 H   0  0  0  0  0  0  0  0  0  0  0  0
   -1.4227   -2.0830   -1.0533 H   0  0  0  0  0  0  0  0  0  0  0  0
   -0.6764   -0.6867   -1.9264 H   0  0  0  0  0  0  0  0  0  0  0  0
    0.7614   -1.9755    0.0806 H   0  0  0  0  0  0  0  0  0  0  0  0
  1  2  1  0
  2  3  1  0
  3  4  1  0
  4  5  1  0
  5  6  1  0
  6  7  1  0
  7  8  1  0
  8  9  2  0
  7  2  1  0
  8  4  1  0
  1 10  1  0
  1 11  1  0
  1 12  1  0
  2 13  1  0
  3 14  1  0
  3 15  1  0
  4 16  1  0
  5 17  1  0
  5 18  1  0
  6 19  1  0
  6 20  1  0
  7 21  1  0
M  END
