
     RDKit          3D

 21 23  0  0  0  0  0  0  0  0999 V2000
    2.8710   -0.1197    1.0510 C   0  0  0  0  0  0  0  0  0  0  0  0
    1.7989    0.0425    0.0127 C   0  0  0  0  0  0  0  0  0  0  0  0
    0.6113   -0.7895    0.1396 C   0  0  0  0  0  0  0  0  0  0  0  0
   -0.6379   -0.6291   -0.6569 C   0  0  0  0  0  0  0  0  0  0  0  0
   -1.8846   -0.6956    0.2138 C   0  0  0  0  0  0  0  0  0  0  0  0
   -2.5471    0.6126   -0.0944 C   0  0  0  0  0  0  0  0  0  0  0  0
   -1.5980    1.4931   -0.5328 O   0  0  0  0  0  0  0  0  0  0  0  0
   -0.4385    0.8447   -0.8036 C   0  0  0  0  0  0  0  0  0  0  0  0
    0.5613    0.7465    0.3560 C   0  0  0  0  0  0  0  0  0  0  0  0
    3.8856    0.1677    0.6799 H   0  0  0  0  0  0  0  0  0  0  0  0
    2.6802    0.4824    1.9728 H   0  0  0  0  0  0  0  0  0  0  0  0
    2.9629   -1.1952    1.3441 H   0  0  0  0  0  0  0  0  0  0  0  0
    2.2211    0.2884   -1.0056 H   0  0  0  0  0  0  0  0  0  0  0  0
    0.5130   -1.4241    1.0366 H   0  0  0  0  0  0  0  0  0  0  0  0
   -0.7334   -1.2258   -1.5661 H   0  0  0  0  0  0  0  0  0  0  0  0
   -2.5408   -1.5447   -0.0583 H   0  0  0  0  0  0  0  0  0  0  0  0
   -1.6246   -0.6804    1.2994 H   0  0  0  0  0  0  0  0  0  0  0  0
   -3.0372    1.0690    0.8154 H   0  0  0  0  0  0  0  0  0  0  0  0
   -3.3812    0.4658   -0.8174 H   0  0  0  0  0  0  0  0  0  0  0  0
    0.0682    1.0636   -1.7733 H   0  0  0  0  0  0  0  0  0  0  0  0
    0.2498    1.0277    1.3564 H   0  0  0  0  0  0  0  0  0  0  0  0
  1  2  1  0
  2  3  1  0
  3  4  1  0
  4  5  1  0
  5  6  1  0
  6  7  1  0
  7  8  1  0
  8  9  1  0
  9  2  1  0
  9  3  1  0
  8  4  1  0
  1 10  1  0
  1 11  1  0
  1 12  1  0
  2 13  1  0
  3 14  1  0
  4 15  1  0
  5 16  1  0
  5 17  1  0
  6 18  1  0
  6 19  1  0
  8 20  1  0
  9 21  1  0
M  END
