
     RDKit          3D

 23 23  0  0  0  0  0  0  0  0999 V2000
   -2.2278   -1.3101   -0.0006 C   0  0  0  0  0  0  0  0  0  0  0  0
   -0.9843   -0.4924    0.3011 C   0  0  0  0  0  0  0  0  0  0  0  0
   -1.3775    0.9690    0.0685 C   0  0  0  0  0  0  0  0  0  0  0  0
   -0.2324    1.8320    0.5584 C   0  0  0  0  0  0  0  0  0  0  0  0
    0.9501    1.6479   -0.3547 C   0  0  0  0  0  0  0  0  0  0  0  0
    1.8939    0.7567   -0.5609 C   0  0  0  0  0  0  0  0  0  0  0  0
    2.2361   -0.5429    0.0498 C   0  0  0  0  0  0  0  0  0  0  0  0
    1.0523   -1.4770   -0.1982 C   0  0  0  0  0  0  0  0  0  0  0  0
   -0.0463   -0.7811   -0.6641 O   0  0  0  0  0  0  0  0  0  0  0  0
   -3.1429   -0.6976    0.1243 H   0  0  0  0  0  0  0  0  0  0  0  0
   -2.3208   -2.2026    0.6232 H   0  0  0  0  0  0  0  0  0  0  0  0
   -2.2136   -1.6317   -1.0777 H   0  0  0  0  0  0  0  0  0  0  0  0
   -0.6173   -0.6541    1.3244 H   0  0  0  0  0  0  0  0  0  0  0  0
   -2.2960    1.2257    0.6191 H   0  0  0  0  0  0  0  0  0  0  0  0
   -1.5110    1.0577   -1.0392 H   0  0  0  0  0  0  0  0  0  0  0  0
    0.0164    1.4940    1.5939 H   0  0  0  0  0  0  0  0  0  0  0  0
   -0.5186    2.8875    0.5661 H   0  0  0  0  0  0  0  0  0  0  0  0
    1.0502    2.5025   -1.0429 H   0  0  0  0  0  0  0  0  0  0  0  0
    2.5742    1.0224   -1.3472 H   0  0  0  0  0  0  0  0  0  0  0  0
    3.1780   -0.9618   -0.3489 H   0  0  0  0  0  0  0  0  0  0  0  0
    2.3162   -0.4108    1.1544 H   0  0  0  0  0  0  0  0  0  0  0  0
    1.3865   -2.1393   -1.0468 H   0  0  0  0  0  0  0  0  0  0  0  0
    0.8347   -2.0941    0.6983 H   0  0  0  0  0  0  0  0  0  0  0  0
  1  2  1  0
  2  3  1  0
  3  4  1  0
  4  5  1  0
  5  6  2  3
  6  7  1  0
  7  8  1  0
  8  9  1  0
  9  2  1  0
  1 10  1  0
  1 11  1  0
  1 12  1  0
  2 13  1  0
  3 14  1  0
  3 15  1  0
  4 16  1  0
  4 17  1  0
  5 18  1  0
  6 19  1  0
  7 20  1  0
  7 21  1  0
  8 22  1  0
  8 23  1  0
M  END
