
     RDKit          3D

 17 18  0  0  0  0  0  0  0  0999 V2000
    1.8485   -0.2667    0.2226 C   0  0  0  0  0  0  0  0  0  0  0  0
    0.4440   -0.6560   -0.0359 C   0  0  0  0  0  0  0  0  0  0  0  0
   -0.1065   -0.0586   -1.3426 C   0  0  0  0  0  0  0  0  0  0  0  0
   -1.4460   -0.4293   -1.2400 O   0  0  0  0  0  0  0  0  0  0  0  0
   -1.8079   -0.3332    0.0989 C   0  0  0  0  0  0  0  0  0  0  0  0
   -0.5503    0.1377    0.8258 C   0  0  0  0  0  0  0  0  0  0  0  0
   -0.2733    1.4988    0.3254 C   0  0  0  0  0  0  0  0  0  0  0  0
   -0.2534    2.6085    0.9152 O   0  0  0  0  0  0  0  0  0  0  0  0
   -0.0123    1.3188   -1.0504 O   0  0  0  0  0  0  0  0  0  0  0  0
    2.0247   -0.3062    1.3270 H   0  0  0  0  0  0  0  0  0  0  0  0
    2.1198    0.7096   -0.2163 H   0  0  0  0  0  0  0  0  0  0  0  0
    2.5114   -1.0326   -0.2161 H   0  0  0  0  0  0  0  0  0  0  0  0
    0.2573   -1.7226   -0.0149 H   0  0  0  0  0  0  0  0  0  0  0  0
    0.3965   -0.3974   -2.2180 H   0  0  0  0  0  0  0  0  0  0  0  0
   -2.6515    0.3396    0.2749 H   0  0  0  0  0  0  0  0  0  0  0  0
   -1.9952   -1.3690    0.4843 H   0  0  0  0  0  0  0  0  0  0  0  0
   -0.5057   -0.0415    1.8601 H   0  0  0  0  0  0  0  0  0  0  0  0
  1  2  1  0
  2  3  1  0
  3  4  1  0
  4  5  1  0
  5  6  1  0
  6  7  1  0
  7  8  2  0
  7  9  1  0
  6  2  1  0
  9  3  1  0
  1 10  1  0
  1 11  1  0
  1 12  1  0
  2 13  1  0
  3 14  1  0
  5 15  1  0
  5 16  1  0
  6 17  1  0
M  END
