
     RDKit          3D

 19 19  0  0  0  0  0  0  0  0999 V2000
    2.2719    0.8341   -0.3608 C   0  0  0  0  0  0  0  0  0  0  0  0
    1.1666   -0.1874   -0.5974 C   0  0  0  0  0  0  0  0  0  0  0  0
    1.1087   -1.0999    0.5892 C   0  0  0  0  0  0  0  0  0  0  0  0
   -0.2758   -0.8331    1.1094 C   0  0  0  0  0  0  0  0  0  0  0  0
   -0.6950   -1.0083    2.2169 O   0  0  0  0  0  0  0  0  0  0  0  0
   -1.0107   -0.2931   -0.0927 C   0  0  0  0  0  0  0  0  0  0  0  0
   -2.1342    0.5592    0.4497 C   0  0  0  0  0  0  0  0  0  0  0  0
   -2.7991    1.2688   -0.5190 O   0  0  0  0  0  0  0  0  0  0  0  0
   -0.0437    0.4346   -0.7375 O   0  0  0  0  0  0  0  0  0  0  0  0
    2.0432    1.4642    0.5365 H   0  0  0  0  0  0  0  0  0  0  0  0
    3.2201    0.3036   -0.1338 H   0  0  0  0  0  0  0  0  0  0  0  0
    2.3757    1.4595   -1.2543 H   0  0  0  0  0  0  0  0  0  0  0  0
    1.4840   -0.7859   -1.4759 H   0  0  0  0  0  0  0  0  0  0  0  0
    1.1026   -2.1838    0.2767 H   0  0  0  0  0  0  0  0  0  0  0  0
    1.8678   -0.9183    1.3502 H   0  0  0  0  0  0  0  0  0  0  0  0
   -1.3766   -1.1000   -0.7308 H   0  0  0  0  0  0  0  0  0  0  0  0
   -2.8651   -0.0946    0.9680 H   0  0  0  0  0  0  0  0  0  0  0  0
   -1.6847    1.2102    1.2413 H   0  0  0  0  0  0  0  0  0  0  0  0
   -3.7556    0.9703   -0.6208 H   0  0  0  0  0  0  0  0  0  0  0  0
  1  2  1  0
  2  3  1  0
  3  4  1  0
  4  5  2  0
  4  6  1  0
  6  7  1  0
  7  8  1  0
  6  9  1  0
  9  2  1  0
  1 10  1  0
  1 11  1  0
  1 12  1  0
  2 13  1  0
  3 14  1  0
  3 15  1  0
  6 16  1  0
  7 17  1  0
  7 18  1  0
  8 19  1  0
M  END
