
     RDKit          3D

 23 24  0  0  0  0  0  0  0  0999 V2000
   -2.3694    0.8409   -0.5368 C   0  0  0  0  0  0  0  0  0  0  0  0
   -1.4259   -0.0757    0.1691 C   0  0  0  0  0  0  0  0  0  0  0  0
   -1.0320   -1.2595   -0.6098 C   0  0  0  0  0  0  0  0  0  0  0  0
    0.2717   -1.3172   -0.8448 C   0  0  0  0  0  0  0  0  0  0  0  0
    0.9088   -0.1531   -0.2360 C   0  0  0  0  0  0  0  0  0  0  0  0
    1.7008    0.6623   -1.2164 C   0  0  0  0  0  0  0  0  0  0  0  0
    1.6967   -0.3841    1.0254 C   0  0  0  0  0  0  0  0  0  0  0  0
    0.4265   -0.1208    1.8109 C   0  0  0  0  0  0  0  0  0  0  0  0
   -0.1258    0.5612    0.5572 C   0  0  0  0  0  0  0  0  0  0  0  0
   -2.8703    1.4687    0.2388 H   0  0  0  0  0  0  0  0  0  0  0  0
   -1.9176    1.5032   -1.2721 H   0  0  0  0  0  0  0  0  0  0  0  0
   -3.1759    0.1979   -0.9860 H   0  0  0  0  0  0  0  0  0  0  0  0
   -1.9587   -0.4526    1.0861 H   0  0  0  0  0  0  0  0  0  0  0  0
   -1.7257   -2.0153   -0.9621 H   0  0  0  0  0  0  0  0  0  0  0  0
    0.7813   -2.0982   -1.3969 H   0  0  0  0  0  0  0  0  0  0  0  0
    1.1183    1.0573   -2.0519 H   0  0  0  0  0  0  0  0  0  0  0  0
    2.3239    1.4371   -0.7119 H   0  0  0  0  0  0  0  0  0  0  0  0
    2.4546   -0.0443   -1.6755 H   0  0  0  0  0  0  0  0  0  0  0  0
    2.4153    0.4578    1.1970 H   0  0  0  0  0  0  0  0  0  0  0  0
    2.1100   -1.3891    1.1257 H   0  0  0  0  0  0  0  0  0  0  0  0
   -0.0621   -1.0904    2.0358 H   0  0  0  0  0  0  0  0  0  0  0  0
    0.5434    0.5581    2.6760 H   0  0  0  0  0  0  0  0  0  0  0  0
   -0.0881    1.6559    0.5781 H   0  0  0  0  0  0  0  0  0  0  0  0
  1  2  1  0
  2  3  1  0
  3  4  2  0
  4  5  1  0
  5  6  1  0
  5  7  1  0
  7  8  1  0
  8  9  1  0
  9  2  1  0
  9  5  1  0
  1 10  1  0
  1 11  1  0
  1 12  1  0
  2 13  1  0
  3 14  1  0
  4 15  1  0
  6 16  1  0
  6 17  1  0
  6 18  1  0
  7 19  1  0
  7 20  1  0
  8 21  1  0
  8 22  1  0
  9 23  1  0
M  END
