
     RDKit          3D

 21 22  0  0  0  0  0  0  0  0999 V2000
    2.1451    0.3721    0.5968 C   0  0  0  0  0  0  0  0  0  0  0  0
    0.9343    0.0174   -0.1685 C   0  0  0  0  0  0  0  0  0  0  0  0
    0.4607   -1.4108    0.0488 C   0  0  0  0  0  0  0  0  0  0  0  0
   -0.8392   -1.3879   -0.6922 C   0  0  0  0  0  0  0  0  0  0  0  0
   -2.1151   -1.0176   -0.0545 C   0  0  0  0  0  0  0  0  0  0  0  0
   -1.3319    0.0875   -0.6051 C   0  0  0  0  0  0  0  0  0  0  0  0
   -0.3234    0.7506    0.3186 C   0  0  0  0  0  0  0  0  0  0  0  0
   -0.2336    2.1913    0.1458 C   0  0  0  0  0  0  0  0  0  0  0  0
   -0.6981    2.7231   -0.8720 O   0  0  0  0  0  0  0  0  0  0  0  0
    2.4767   -0.3562    1.3477 H   0  0  0  0  0  0  0  0  0  0  0  0
    2.9707    0.5955   -0.1418 H   0  0  0  0  0  0  0  0  0  0  0  0
    1.9594    1.3718    1.0888 H   0  0  0  0  0  0  0  0  0  0  0  0
    0.9882    0.1703   -1.2577 H   0  0  0  0  0  0  0  0  0  0  0  0
    1.1962   -2.1195   -0.3182 H   0  0  0  0  0  0  0  0  0  0  0  0
    0.3133   -1.5100    1.1562 H   0  0  0  0  0  0  0  0  0  0  0  0
   -0.8400   -1.8566   -1.6796 H   0  0  0  0  0  0  0  0  0  0  0  0
   -2.2666   -1.0244    1.0416 H   0  0  0  0  0  0  0  0  0  0  0  0
   -3.0355   -1.3447   -0.6065 H   0  0  0  0  0  0  0  0  0  0  0  0
   -1.4996    0.5396   -1.5947 H   0  0  0  0  0  0  0  0  0  0  0  0
   -0.4941    0.4115    1.3525 H   0  0  0  0  0  0  0  0  0  0  0  0
    0.2324    2.7970    0.8941 H   0  0  0  0  0  0  0  0  0  0  0  0
  1  2  1  0
  2  3  1  0
  3  4  1  0
  4  5  1  0
  5  6  1  0
  6  7  1  0
  7  8  1  0
  8  9  2  0
  7  2  1  0
  6  4  1  0
  1 10  1  0
  1 11  1  0
  1 12  1  0
  2 13  1  0
  3 14  1  0
  3 15  1  0
  4 16  1  0
  5 17  1  0
  5 18  1  0
  6 19  1  0
  7 20  1  0
  8 21  1  0
M  END
