
     RDKit          3D

 23 24  0  0  0  0  0  0  0  0999 V2000
   -1.4372    1.8249    0.3598 C   0  0  0  0  0  0  0  0  0  0  0  0
   -0.9127    0.5206    0.8765 C   0  0  0  0  0  0  0  0  0  0  0  0
   -1.6683   -0.6129    0.2340 C   0  0  0  0  0  0  0  0  0  0  0  0
   -0.7943   -1.4718   -0.6440 C   0  0  0  0  0  0  0  0  0  0  0  0
    0.6319   -1.3217   -0.2417 C   0  0  0  0  0  0  0  0  0  0  0  0
    0.8258   -0.9937    1.0828 O   0  0  0  0  0  0  0  0  0  0  0  0
    0.5633    0.3635    0.7793 C   0  0  0  0  0  0  0  0  0  0  0  0
    1.0804    0.0996   -0.5940 C   0  0  0  0  0  0  0  0  0  0  0  0
    2.5740    0.1313   -0.6711 C   0  0  0  0  0  0  0  0  0  0  0  0
   -2.5554    1.7585    0.3850 H   0  0  0  0  0  0  0  0  0  0  0  0
   -1.1899    2.6935    1.0181 H   0  0  0  0  0  0  0  0  0  0  0  0
   -1.1726    2.0067   -0.6948 H   0  0  0  0  0  0  0  0  0  0  0  0
   -1.1709    0.4865    1.9757 H   0  0  0  0  0  0  0  0  0  0  0  0
   -2.5171   -0.2546   -0.3886 H   0  0  0  0  0  0  0  0  0  0  0  0
   -2.1293   -1.3002    0.9891 H   0  0  0  0  0  0  0  0  0  0  0  0
   -0.9472   -1.1869   -1.7139 H   0  0  0  0  0  0  0  0  0  0  0  0
   -1.0741   -2.5494   -0.5816 H   0  0  0  0  0  0  0  0  0  0  0  0
    1.2837   -2.1174   -0.6303 H   0  0  0  0  0  0  0  0  0  0  0  0
    1.1073    1.0836    1.4024 H   0  0  0  0  0  0  0  0  0  0  0  0
    0.5528    0.5553   -1.4368 H   0  0  0  0  0  0  0  0  0  0  0  0
    3.0149    0.3672    0.3144 H   0  0  0  0  0  0  0  0  0  0  0  0
    2.9541    0.8033   -1.4790 H   0  0  0  0  0  0  0  0  0  0  0  0
    2.9808   -0.8862   -0.9448 H   0  0  0  0  0  0  0  0  0  0  0  0
  1  2  1  0
  2  3  1  0
  3  4  1  0
  4  5  1  0
  5  6  1  0
  6  7  1  0
  7  8  1  0
  8  9  1  0
  7  2  1  0
  8  5  1  0
  1 10  1  0
  1 11  1  0
  1 12  1  0
  2 13  1  0
  3 14  1  0
  3 15  1  0
  4 16  1  0
  4 17  1  0
  5 18  1  0
  7 19  1  0
  8 20  1  0
  9 21  1  0
  9 22  1  0
  9 23  1  0
M  END
