
     RDKit          3D

 19 21  0  0  0  0  0  0  0  0999 V2000
    1.4123   -1.2615    0.9269 C   0  0  0  0  0  0  0  0  0  0  0  0
    0.9877    0.0725    0.4530 C   0  0  0  0  0  0  0  0  0  0  0  0
   -0.3869    0.5458    0.8557 C   0  0  0  0  0  0  0  0  0  0  0  0
   -0.2960    1.4084   -0.4133 C   0  0  0  0  0  0  0  0  0  0  0  0
   -1.5296    1.6314   -0.9538 O   0  0  0  0  0  0  0  0  0  0  0  0
    0.4386    0.1699   -0.9467 C   0  0  0  0  0  0  0  0  0  0  0  0
   -0.6677   -0.8383   -0.9715 C   0  0  0  0  0  0  0  0  0  0  0  0
   -0.8062   -1.7715    0.0361 O   0  0  0  0  0  0  0  0  0  0  0  0
   -1.3076   -0.5440    0.4011 C   0  0  0  0  0  0  0  0  0  0  0  0
    0.7966   -1.6117    1.7896 H   0  0  0  0  0  0  0  0  0  0  0  0
    2.4531   -1.1572    1.3550 H   0  0  0  0  0  0  0  0  0  0  0  0
    1.5141   -2.0347    0.1353 H   0  0  0  0  0  0  0  0  0  0  0  0
    1.7210    0.8985    0.6130 H   0  0  0  0  0  0  0  0  0  0  0  0
   -0.5308    1.0405    1.7785 H   0  0  0  0  0  0  0  0  0  0  0  0
    0.3568    2.2640   -0.2184 H   0  0  0  0  0  0  0  0  0  0  0  0
   -1.5291    2.2645   -1.6850 H   0  0  0  0  0  0  0  0  0  0  0  0
    1.0888    0.2961   -1.7695 H   0  0  0  0  0  0  0  0  0  0  0  0
   -1.3233   -0.9615   -1.8354 H   0  0  0  0  0  0  0  0  0  0  0  0
   -2.3915   -0.4111    0.4496 H   0  0  0  0  0  0  0  0  0  0  0  0
  1  2  1  0
  2  3  1  0
  3  4  1  0
  4  5  1  0
  4  6  1  0
  6  7  1  0
  7  8  1  0
  8  9  1  0
  6  2  1  0
  9  7  1  0
  9  3  1  0
  1 10  1  0
  1 11  1  0
  1 12  1  0
  2 13  1  0
  3 14  1  0
  4 15  1  0
  5 16  1  0
  6 17  1  0
  7 18  1  0
  9 19  1  0
M  END
