
     RDKit          3D

 25 25  0  0  0  0  0  0  0  0999 V2000
    2.6121   -0.7908   -0.6352 C   0  0  0  0  0  0  0  0  0  0  0  0
    1.3439   -0.4058    0.0433 C   0  0  0  0  0  0  0  0  0  0  0  0
    1.1701    1.0658    0.2472 C   0  0  0  0  0  0  0  0  0  0  0  0
   -0.3313    1.2253    0.4169 C   0  0  0  0  0  0  0  0  0  0  0  0
   -0.6282    1.5494    1.7384 O   0  0  0  0  0  0  0  0  0  0  0  0
   -0.9645   -0.0585   -0.0095 C   0  0  0  0  0  0  0  0  0  0  0  0
   -1.3878   -0.9186    1.1631 C   0  0  0  0  0  0  0  0  0  0  0  0
   -2.1494    0.1062   -0.9078 C   0  0  0  0  0  0  0  0  0  0  0  0
    0.1334   -0.7326   -0.8247 C   0  0  0  0  0  0  0  0  0  0  0  0
    2.7258   -1.9026   -0.5246 H   0  0  0  0  0  0  0  0  0  0  0  0
    2.6223   -0.5333   -1.7011 H   0  0  0  0  0  0  0  0  0  0  0  0
    3.4812   -0.3468   -0.1381 H   0  0  0  0  0  0  0  0  0  0  0  0
    1.2402   -0.9271    1.0177 H   0  0  0  0  0  0  0  0  0  0  0  0
    1.7471    1.4447    1.0880 H   0  0  0  0  0  0  0  0  0  0  0  0
    1.4494    1.6131   -0.6900 H   0  0  0  0  0  0  0  0  0  0  0  0
   -0.7160    2.0404   -0.2300 H   0  0  0  0  0  0  0  0  0  0  0  0
   -0.6951    2.5338    1.8109 H   0  0  0  0  0  0  0  0  0  0  0  0
   -0.6434   -1.7218    1.3376 H   0  0  0  0  0  0  0  0  0  0  0  0
   -2.3563   -1.4429    0.9585 H   0  0  0  0  0  0  0  0  0  0  0  0
   -1.5283   -0.3120    2.0967 H   0  0  0  0  0  0  0  0  0  0  0  0
   -2.0553   -0.4831   -1.8624 H   0  0  0  0  0  0  0  0  0  0  0  0
   -2.1783    1.1726   -1.2280 H   0  0  0  0  0  0  0  0  0  0  0  0
   -3.0942   -0.2334   -0.4488 H   0  0  0  0  0  0  0  0  0  0  0  0
   -0.0229   -1.7981   -0.9616 H   0  0  0  0  0  0  0  0  0  0  0  0
    0.2255   -0.1440   -1.7565 H   0  0  0  0  0  0  0  0  0  0  0  0
  1  2  1  0
  2  3  1  0
  3  4  1  0
  4  5  1  0
  4  6  1  0
  6  7  1  0
  6  8  1  0
  6  9  1  0
  9  2  1  0
  1 10  1  0
  1 11  1  0
  1 12  1  0
  2 13  1  0
  3 14  1  0
  3 15  1  0
  4 16  1  0
  5 17  1  0
  7 18  1  0
  7 19  1  0
  7 20  1  0
  8 21  1  0
  8 22  1  0
  8 23  1  0
  9 24  1  0
  9 25  1  0
M  END
