
     RDKit          3D

 27 27  0  0  0  0  0  0  0  0999 V2000
    1.8261   -1.1112   -0.5248 C   0  0  0  0  0  0  0  0  0  0  0  0
    1.4910   -0.2544    0.6447 C   0  0  0  0  0  0  0  0  0  0  0  0
    2.0126    1.1672    0.3905 C   0  0  0  0  0  0  0  0  0  0  0  0
    0.6033    1.6469    0.6901 C   0  0  0  0  0  0  0  0  0  0  0  0
    0.1283    0.2514    0.8333 C   0  0  0  0  0  0  0  0  0  0  0  0
   -0.9806   -0.1811   -0.0607 C   0  0  0  0  0  0  0  0  0  0  0  0
   -2.2381    0.5525    0.4413 C   0  0  0  0  0  0  0  0  0  0  0  0
   -0.8347    0.1734   -1.5007 C   0  0  0  0  0  0  0  0  0  0  0  0
   -1.2948   -1.6488    0.0365 C   0  0  0  0  0  0  0  0  0  0  0  0
    2.8573   -1.5295   -0.3592 H   0  0  0  0  0  0  0  0  0  0  0  0
    1.1800   -1.9661   -0.6971 H   0  0  0  0  0  0  0  0  0  0  0  0
    1.9588   -0.4838   -1.4552 H   0  0  0  0  0  0  0  0  0  0  0  0
    1.9874   -0.6362    1.5691 H   0  0  0  0  0  0  0  0  0  0  0  0
    2.7829    1.5112    1.0798 H   0  0  0  0  0  0  0  0  0  0  0  0
    2.3279    1.3561   -0.6526 H   0  0  0  0  0  0  0  0  0  0  0  0
    0.6319    2.2568    1.6370 H   0  0  0  0  0  0  0  0  0  0  0  0
    0.2370    2.2709   -0.1151 H   0  0  0  0  0  0  0  0  0  0  0  0
   -0.2122    0.0869    1.9035 H   0  0  0  0  0  0  0  0  0  0  0  0
   -3.0628    0.2524   -0.2438 H   0  0  0  0  0  0  0  0  0  0  0  0
   -2.4763    0.0856    1.4255 H   0  0  0  0  0  0  0  0  0  0  0  0
   -2.0807    1.6352    0.4944 H   0  0  0  0  0  0  0  0  0  0  0  0
   -0.3476   -0.6300   -2.0975 H   0  0  0  0  0  0  0  0  0  0  0  0
   -0.4026    1.1676   -1.6993 H   0  0  0  0  0  0  0  0  0  0  0  0
   -1.8826    0.2279   -1.9282 H   0  0  0  0  0  0  0  0  0  0  0  0
   -1.1953   -2.1718   -0.9612 H   0  0  0  0  0  0  0  0  0  0  0  0
   -0.6704   -2.1698    0.8158 H   0  0  0  0  0  0  0  0  0  0  0  0
   -2.3457   -1.8593    0.3340 H   0  0  0  0  0  0  0  0  0  0  0  0
  1  2  1  0
  2  3  1  0
  3  4  1  0
  4  5  1  0
  5  6  1  0
  6  7  1  0
  6  8  1  0
  6  9  1  0
  5  2  1  0
  1 10  1  0
  1 11  1  0
  1 12  1  0
  2 13  1  0
  3 14  1  0
  3 15  1  0
  4 16  1  0
  4 17  1  0
  5 18  1  0
  7 19  1  0
  7 20  1  0
  7 21  1  0
  8 22  1  0
  8 23  1  0
  8 24  1  0
  9 25  1  0
  9 26  1  0
  9 27  1  0
M  END
