
     RDKit          3D

 18 19  0  0  0  0  0  0  0  0999 V2000
    1.9401    0.4996    1.0604 C   0  0  0  0  0  0  0  0  0  0  0  0
    1.0091    0.4739   -0.1116 C   0  0  0  0  0  0  0  0  0  0  0  0
    0.4469   -0.9556   -0.2747 C   0  0  0  0  0  0  0  0  0  0  0  0
   -0.9558   -0.6768    0.1227 C   0  0  0  0  0  0  0  0  0  0  0  0
   -0.9940   -0.4958    1.5346 O   0  0  0  0  0  0  0  0  0  0  0  0
   -2.0887   -0.2208   -0.5627 C   0  0  0  0  0  0  0  0  0  0  0  0
   -1.0153    0.6677   -0.7170 C   0  0  0  0  0  0  0  0  0  0  0  0
   -0.1382    1.2831    0.1241 O   0  0  0  0  0  0  0  0  0  0  0  0
    2.5298    1.4142    1.0917 H   0  0  0  0  0  0  0  0  0  0  0  0
    1.3623    0.3261    1.9866 H   0  0  0  0  0  0  0  0  0  0  0  0
    2.6379   -0.3538    0.9555 H   0  0  0  0  0  0  0  0  0  0  0  0
    1.4381    0.8398   -1.0434 H   0  0  0  0  0  0  0  0  0  0  0  0
    0.9404   -1.6424    0.4288 H   0  0  0  0  0  0  0  0  0  0  0  0
    0.4955   -1.2842   -1.3195 H   0  0  0  0  0  0  0  0  0  0  0  0
   -1.6429    0.2059    1.7829 H   0  0  0  0  0  0  0  0  0  0  0  0
   -2.4540   -0.8324   -1.4408 H   0  0  0  0  0  0  0  0  0  0  0  0
   -2.9910    0.1219    0.0069 H   0  0  0  0  0  0  0  0  0  0  0  0
   -0.5203    0.6297   -1.7394 H   0  0  0  0  0  0  0  0  0  0  0  0
  1  2  1  0
  2  3  1  0
  3  4  1  0
  4  5  1  0
  4  6  1  0
  6  7  1  0
  7  8  1  0
  8  2  1  0
  7  4  1  0
  1  9  1  0
  1 10  1  0
  1 11  1  0
  2 12  1  0
  3 13  1  0
  3 14  1  0
  5 15  1  0
  6 16  1  0
  6 17  1  0
  7 18  1  0
M  END
