
     RDKit          3D

 27 27  0  0  0  0  0  0  0  0999 V2000
    2.5169    0.9026    0.5183 C   0  0  0  0  0  0  0  0  0  0  0  0
    1.7331    0.2722   -0.5626 C   0  0  0  0  0  0  0  0  0  0  0  0
    1.1454   -1.0779   -0.2005 C   0  0  0  0  0  0  0  0  0  0  0  0
    0.0601   -1.2952    0.7071 C   0  0  0  0  0  0  0  0  0  0  0  0
   -1.4118   -1.3454    0.2615 C   0  0  0  0  0  0  0  0  0  0  0  0
   -1.8072    0.0190   -0.4234 C   0  0  0  0  0  0  0  0  0  0  0  0
   -2.6784    0.7684    0.5969 C   0  0  0  0  0  0  0  0  0  0  0  0
   -0.5855    0.6070   -0.7642 C   0  0  0  0  0  0  0  0  0  0  0  0
    0.6216    1.2438   -1.1056 C   0  0  0  0  0  0  0  0  0  0  0  0
    2.1012    0.8067    1.5300 H   0  0  0  0  0  0  0  0  0  0  0  0
    2.6393    1.9820    0.2894 H   0  0  0  0  0  0  0  0  0  0  0  0
    3.5630    0.4784    0.4865 H   0  0  0  0  0  0  0  0  0  0  0  0
    2.4086    0.0674   -1.4190 H   0  0  0  0  0  0  0  0  0  0  0  0
    2.0682   -1.5525    0.2893 H   0  0  0  0  0  0  0  0  0  0  0  0
    1.0519   -1.7644   -1.0942 H   0  0  0  0  0  0  0  0  0  0  0  0
    0.1560   -0.7681    1.7044 H   0  0  0  0  0  0  0  0  0  0  0  0
    0.1625   -2.3788    1.0677 H   0  0  0  0  0  0  0  0  0  0  0  0
   -1.9899   -1.4788    1.1724 H   0  0  0  0  0  0  0  0  0  0  0  0
   -1.5461   -2.1613   -0.4466 H   0  0  0  0  0  0  0  0  0  0  0  0
   -2.5158   -0.2161   -1.2548 H   0  0  0  0  0  0  0  0  0  0  0  0
   -2.5973    1.8675    0.4171 H   0  0  0  0  0  0  0  0  0  0  0  0
   -2.3931    0.4920    1.6350 H   0  0  0  0  0  0  0  0  0  0  0  0
   -3.7441    0.5103    0.4891 H   0  0  0  0  0  0  0  0  0  0  0  0
   -0.2970    0.6378    0.3398 H   0  0  0  0  0  0  0  0  0  0  0  0
   -0.2968   -0.3073   -1.3850 H   0  0  0  0  0  0  0  0  0  0  0  0
    0.8313    2.2552   -0.6533 H   0  0  0  0  0  0  0  0  0  0  0  0
    0.8037    1.4353   -2.1952 H   0  0  0  0  0  0  0  0  0  0  0  0
  1  2  1  0
  2  3  1  0
  3  4  1  0
  4  5  1  0
  5  6  1  0
  6  7  1  0
  6  8  1  0
  8  9  1  0
  9  2  1  0
  1 10  1  0
  1 11  1  0
  1 12  1  0
  2 13  1  0
  3 14  1  0
  3 15  1  0
  4 16  1  0
  4 17  1  0
  5 18  1  0
  5 19  1  0
  6 20  1  0
  7 21  1  0
  7 22  1  0
  7 23  1  0
  8 24  1  0
  8 25  1  0
  9 26  1  0
  9 27  1  0
M  END
