
     RDKit          3D

 19 20  0  0  0  0  0  0  0  0999 V2000
    1.8631   -0.4866    0.4847 C   0  0  0  0  0  0  0  0  0  0  0  0
    0.8098    0.1587   -0.3848 C   0  0  0  0  0  0  0  0  0  0  0  0
    0.7737    1.6009   -0.0389 C   0  0  0  0  0  0  0  0  0  0  0  0
    1.4440    2.5673   -0.4558 O   0  0  0  0  0  0  0  0  0  0  0  0
   -0.2766    1.7086    0.9652 C   0  0  0  0  0  0  0  0  0  0  0  0
   -1.0467    0.6418    0.9454 C   0  0  0  0  0  0  0  0  0  0  0  0
   -0.5733   -0.2678   -0.0765 C   0  0  0  0  0  0  0  0  0  0  0  0
   -1.4222   -0.5782   -1.2851 C   0  0  0  0  0  0  0  0  0  0  0  0
   -1.0836   -1.6255   -0.2920 C   0  0  0  0  0  0  0  0  0  0  0  0
    1.8436   -1.5821    0.4613 H   0  0  0  0  0  0  0  0  0  0  0  0
    1.7618   -0.1333    1.5415 H   0  0  0  0  0  0  0  0  0  0  0  0
    2.8436   -0.0947    0.1343 H   0  0  0  0  0  0  0  0  0  0  0  0
    1.0786    0.0256   -1.4514 H   0  0  0  0  0  0  0  0  0  0  0  0
   -0.4132    2.5595    1.6481 H   0  0  0  0  0  0  0  0  0  0  0  0
   -1.9025    0.4949    1.6095 H   0  0  0  0  0  0  0  0  0  0  0  0
   -2.4246   -0.0636   -1.2385 H   0  0  0  0  0  0  0  0  0  0  0  0
   -0.9499   -0.5500   -2.2875 H   0  0  0  0  0  0  0  0  0  0  0  0
   -1.9163   -1.9491    0.3717 H   0  0  0  0  0  0  0  0  0  0  0  0
   -0.4093   -2.4263   -0.6511 H   0  0  0  0  0  0  0  0  0  0  0  0
  1  2  1  0
  2  3  1  0
  3  4  2  0
  3  5  1  0
  5  6  2  0
  6  7  1  0
  7  8  1  0
  8  9  1  0
  7  2  1  0
  9  7  1  0
  1 10  1  0
  1 11  1  0
  1 12  1  0
  2 13  1  0
  5 14  1  0
  6 15  1  0
  8 16  1  0
  8 17  1  0
  9 18  1  0
  9 19  1  0
M  END
