
     RDKit          3D

 18 19  0  0  0  0  0  0  0  0999 V2000
   -1.4878   -1.3064    0.0216 C   0  0  0  0  0  0  0  0  0  0  0  0
   -0.8182    0.0106   -0.1571 C   0  0  0  0  0  0  0  0  0  0  0  0
   -0.6288    0.8415    1.0751 C   0  0  0  0  0  0  0  0  0  0  0  0
    0.0550    2.0621    0.5042 C   0  0  0  0  0  0  0  0  0  0  0  0
    0.9829    1.4809   -0.2599 C   0  0  0  0  0  0  0  0  0  0  0  0
    0.6838    0.0303   -0.0188 C   0  0  0  0  0  0  0  0  0  0  0  0
    1.4958   -0.9827   -0.6276 C   0  0  0  0  0  0  0  0  0  0  0  0
    0.4678    0.0303    1.3686 O   0  0  0  0  0  0  0  0  0  0  0  0
   -2.4652   -1.2782   -0.5431 H   0  0  0  0  0  0  0  0  0  0  0  0
   -1.7513   -1.5597    1.0541 H   0  0  0  0  0  0  0  0  0  0  0  0
   -0.8999   -2.1144   -0.4896 H   0  0  0  0  0  0  0  0  0  0  0  0
   -1.1297    0.6279   -1.0185 H   0  0  0  0  0  0  0  0  0  0  0  0
   -1.4004    0.9755    1.7773 H   0  0  0  0  0  0  0  0  0  0  0  0
   -0.1723    3.1034    0.6872 H   0  0  0  0  0  0  0  0  0  0  0  0
    1.7565    1.8891   -0.8942 H   0  0  0  0  0  0  0  0  0  0  0  0
    2.3433   -0.5279   -1.2136 H   0  0  0  0  0  0  0  0  0  0  0  0
    1.9984   -1.6475    0.1167 H   0  0  0  0  0  0  0  0  0  0  0  0
    0.9700   -1.6350   -1.3825 H   0  0  0  0  0  0  0  0  0  0  0  0
  1  2  1  0
  2  3  1  0
  3  4  1  0
  4  5  2  0
  5  6  1  0
  6  7  1  0
  6  8  1  0
  6  2  1  0
  8  3  1  0
  1  9  1  0
  1 10  1  0
  1 11  1  0
  2 12  1  0
  3 13  1  0
  4 14  1  0
  5 15  1  0
  7 16  1  0
  7 17  1  0
  7 18  1  0
M  END
