
     RDKit          3D

 21 22  0  0  0  0  0  0  0  0999 V2000
    2.0283    0.5104   -0.4323 C   0  0  0  0  0  0  0  0  0  0  0  0
    1.4328   -0.5461    0.4253 C   0  0  0  0  0  0  0  0  0  0  0  0
    0.5716   -1.4262   -0.4586 C   0  0  0  0  0  0  0  0  0  0  0  0
   -0.6992   -1.0912   -0.3680 C   0  0  0  0  0  0  0  0  0  0  0  0
   -2.1802   -0.9249   -0.4520 C   0  0  0  0  0  0  0  0  0  0  0  0
   -2.0602   -0.3843    0.8672 O   0  0  0  0  0  0  0  0  0  0  0  0
   -0.8432    0.1407    0.5184 C   0  0  0  0  0  0  0  0  0  0  0  0
   -0.9635    1.4204   -0.2639 C   0  0  0  0  0  0  0  0  0  0  0  0
    0.3539   -0.0070    1.3873 C   0  0  0  0  0  0  0  0  0  0  0  0
    3.1427    0.3456   -0.5061 H   0  0  0  0  0  0  0  0  0  0  0  0
    1.8516    1.5425   -0.0596 H   0  0  0  0  0  0  0  0  0  0  0  0
    1.6654    0.4637   -1.4972 H   0  0  0  0  0  0  0  0  0  0  0  0
    2.1764   -1.1568    0.9413 H   0  0  0  0  0  0  0  0  0  0  0  0
    0.9422   -2.2349   -1.0921 H   0  0  0  0  0  0  0  0  0  0  0  0
   -2.7758   -1.8322   -0.4852 H   0  0  0  0  0  0  0  0  0  0  0  0
   -2.4567   -0.1991   -1.2117 H   0  0  0  0  0  0  0  0  0  0  0  0
   -0.5565    1.3433   -1.2744 H   0  0  0  0  0  0  0  0  0  0  0  0
   -2.0499    1.7082   -0.3604 H   0  0  0  0  0  0  0  0  0  0  0  0
   -0.4244    2.2279    0.2720 H   0  0  0  0  0  0  0  0  0  0  0  0
    0.6845    0.8933    1.9082 H   0  0  0  0  0  0  0  0  0  0  0  0
    0.1601   -0.7934    2.1419 H   0  0  0  0  0  0  0  0  0  0  0  0
  1  2  1  0
  2  3  1  0
  3  4  2  0
  4  5  1  0
  5  6  1  0
  6  7  1  0
  7  8  1  0
  7  9  1  0
  9  2  1  0
  7  4  1  0
  1 10  1  0
  1 11  1  0
  1 12  1  0
  2 13  1  0
  3 14  1  0
  5 15  1  0
  5 16  1  0
  8 17  1  0
  8 18  1  0
  8 19  1  0
  9 20  1  0
  9 21  1  0
M  END
