
     RDKit          3D

 15 15  0  0  0  0  0  0  0  0999 V2000
   -2.3492   -0.0027    0.1884 C   0  0  0  0  0  0  0  0  0  0  0  0
   -0.8719   -0.0457    0.0227 C   0  0  0  0  0  0  0  0  0  0  0  0
   -0.2291   -1.2312   -0.2750 C   0  0  0  0  0  0  0  0  0  0  0  0
    1.0728   -1.2935   -0.4258 O   0  0  0  0  0  0  0  0  0  0  0  0
    1.8683   -0.2667   -0.3121 C   0  0  0  0  0  0  0  0  0  0  0  0
    3.2566   -0.3694   -0.4799 O   0  0  0  0  0  0  0  0  0  0  0  0
    1.2965    0.9537   -0.0153 C   0  0  0  0  0  0  0  0  0  0  0  0
   -0.0680    1.0727    0.1531 C   0  0  0  0  0  0  0  0  0  0  0  0
   -0.6231    2.1549    0.4215 O   0  0  0  0  0  0  0  0  0  0  0  0
   -2.7182   -0.9191    0.7322 H   0  0  0  0  0  0  0  0  0  0  0  0
   -2.6892    0.8543    0.7735 H   0  0  0  0  0  0  0  0  0  0  0  0
   -2.8771   -0.0329   -0.7999 H   0  0  0  0  0  0  0  0  0  0  0  0
   -0.8789   -2.1070   -0.3750 H   0  0  0  0  0  0  0  0  0  0  0  0
    3.8710   -0.5848    0.3083 H   0  0  0  0  0  0  0  0  0  0  0  0
    1.9394    1.8174    0.0832 H   0  0  0  0  0  0  0  0  0  0  0  0
  1  2  1  0
  2  3  2  0
  3  4  1  0
  4  5  1  0
  5  6  1  0
  5  7  2  0
  7  8  1  0
  8  9  2  0
  8  2  1  0
  1 10  1  0
  1 11  1  0
  1 12  1  0
  3 13  1  0
  6 14  1  0
  7 15  1  0
M  END
