
     RDKit          3D

 22 23  0  0  0  0  0  0  0  0999 V2000
   -2.1844    0.4300    1.0483 C   0  0  0  0  0  0  0  0  0  0  0  0
   -0.8323    0.3816    0.3350 C   0  0  0  0  0  0  0  0  0  0  0  0
   -0.8435   -0.7716   -0.6911 C   0  0  0  0  0  0  0  0  0  0  0  0
    0.5925   -1.3432   -0.6376 C   0  0  0  0  0  0  0  0  0  0  0  0
    1.2687   -0.1795   -0.0134 C   0  0  0  0  0  0  0  0  0  0  0  0
    1.2262    1.0260   -0.9701 C   0  0  0  0  0  0  0  0  0  0  0  0
    1.6359    0.1269    1.3042 C   0  0  0  0  0  0  0  0  0  0  0  0
    0.2553   -0.1117    1.2041 C   0  0  0  0  0  0  0  0  0  0  0  0
   -2.1260    1.3075    1.7292 H   0  0  0  0  0  0  0  0  0  0  0  0
   -2.3711   -0.4464    1.6623 H   0  0  0  0  0  0  0  0  0  0  0  0
   -2.9707    0.6502    0.3037 H   0  0  0  0  0  0  0  0  0  0  0  0
   -0.6988    1.3509   -0.1314 H   0  0  0  0  0  0  0  0  0  0  0  0
   -1.1015   -0.4244   -1.6886 H   0  0  0  0  0  0  0  0  0  0  0  0
   -1.5176   -1.5801   -0.3197 H   0  0  0  0  0  0  0  0  0  0  0  0
    0.9007   -1.5092   -1.6969 H   0  0  0  0  0  0  0  0  0  0  0  0
    0.6323   -2.2686   -0.0648 H   0  0  0  0  0  0  0  0  0  0  0  0
    1.2190    1.9830   -0.4140 H   0  0  0  0  0  0  0  0  0  0  0  0
    2.2278    0.9943   -1.4813 H   0  0  0  0  0  0  0  0  0  0  0  0
    0.4751    0.9488   -1.7471 H   0  0  0  0  0  0  0  0  0  0  0  0
    2.3044   -0.6047    1.8454 H   0  0  0  0  0  0  0  0  0  0  0  0
    1.9811    1.1593    1.5699 H   0  0  0  0  0  0  0  0  0  0  0  0
   -0.0730   -1.1191    1.6168 H   0  0  0  0  0  0  0  0  0  0  0  0
  1  2  1  0
  2  3  1  0
  3  4  1  0
  4  5  1  0
  5  6  1  0
  5  7  1  0
  7  8  1  0
  8  2  1  0
  8  5  1  0
  1  9  1  0
  1 10  1  0
  1 11  1  0
  2 12  1  0
  3 13  1  0
  3 14  1  0
  4 15  1  0
  4 16  1  0
  6 17  1  0
  6 18  1  0
  6 19  1  0
  7 20  1  0
  7 21  1  0
  8 22  1  0
M  END
