
     RDKit          3D

 25 26  0  0  0  0  0  0  0  0999 V2000
    2.3385   -0.5738    0.0170 C   0  0  0  0  0  0  0  0  0  0  0  0
    1.0483   -0.0417   -0.5235 C   0  0  0  0  0  0  0  0  0  0  0  0
    0.1080   -0.9999   -1.1448 C   0  0  0  0  0  0  0  0  0  0  0  0
   -0.9479   -1.7176   -0.3977 C   0  0  0  0  0  0  0  0  0  0  0  0
   -1.0109   -0.2275   -0.3848 C   0  0  0  0  0  0  0  0  0  0  0  0
   -1.9808    0.5391   -1.1999 C   0  0  0  0  0  0  0  0  0  0  0  0
    0.0318    0.4126    0.4717 C   0  0  0  0  0  0  0  0  0  0  0  0
   -0.0188    1.8885    0.6320 C   0  0  0  0  0  0  0  0  0  0  0  0
    0.0655   -0.2758    1.8199 C   0  0  0  0  0  0  0  0  0  0  0  0
    3.0208   -0.7285   -0.8586 H   0  0  0  0  0  0  0  0  0  0  0  0
    2.8149    0.2534    0.6056 H   0  0  0  0  0  0  0  0  0  0  0  0
    2.2711   -1.5157    0.5491 H   0  0  0  0  0  0  0  0  0  0  0  0
    1.2823    0.7955   -1.2353 H   0  0  0  0  0  0  0  0  0  0  0  0
    0.0459   -1.0227   -2.2364 H   0  0  0  0  0  0  0  0  0  0  0  0
   -1.7537   -2.1927   -0.9852 H   0  0  0  0  0  0  0  0  0  0  0  0
   -0.6928   -2.2741    0.5236 H   0  0  0  0  0  0  0  0  0  0  0  0
   -1.5634    0.8596   -2.1990 H   0  0  0  0  0  0  0  0  0  0  0  0
   -2.3839    1.4248   -0.7104 H   0  0  0  0  0  0  0  0  0  0  0  0
   -2.8478   -0.1329   -1.4121 H   0  0  0  0  0  0  0  0  0  0  0  0
    0.9959    2.3095    0.3795 H   0  0  0  0  0  0  0  0  0  0  0  0
   -0.7307    2.4043   -0.0096 H   0  0  0  0  0  0  0  0  0  0  0  0
   -0.2049    2.1960    1.6977 H   0  0  0  0  0  0  0  0  0  0  0  0
    0.2293    0.4405    2.6538 H   0  0  0  0  0  0  0  0  0  0  0  0
    0.8120   -1.0598    1.9003 H   0  0  0  0  0  0  0  0  0  0  0  0
   -0.9287   -0.7610    2.0472 H   0  0  0  0  0  0  0  0  0  0  0  0
  1  2  1  0
  2  3  1  0
  3  4  1  0
  4  5  1  0
  5  6  1  0
  5  7  1  0
  7  8  1  0
  7  9  1  0
  7  2  1  0
  5  3  1  0
  1 10  1  0
  1 11  1  0
  1 12  1  0
  2 13  1  0
  3 14  1  0
  4 15  1  0
  4 16  1  0
  6 17  1  0
  6 18  1  0
  6 19  1  0
  8 20  1  0
  8 21  1  0
  8 22  1  0
  9 23  1  0
  9 24  1  0
  9 25  1  0
M  END
