
     RDKit          3D

 19 20  0  0  0  0  0  0  0  0999 V2000
   -1.3491   -1.4302   -0.4528 C   0  0  0  0  0  0  0  0  0  0  0  0
   -0.5380   -0.4784    0.3635 C   0  0  0  0  0  0  0  0  0  0  0  0
   -0.4888    0.9474   -0.1204 C   0  0  0  0  0  0  0  0  0  0  0  0
   -1.3116    1.9155    0.6160 C   0  0  0  0  0  0  0  0  0  0  0  0
   -0.8630    2.9884    0.9294 O   0  0  0  0  0  0  0  0  0  0  0  0
    0.9888    0.9437    0.2318 C   0  0  0  0  0  0  0  0  0  0  0  0
    1.8107    0.0764   -0.6238 C   0  0  0  0  0  0  0  0  0  0  0  0
    0.9401   -0.6173    0.3238 C   0  0  0  0  0  0  0  0  0  0  0  0
    1.5189   -1.1774    1.4580 O   0  0  0  0  0  0  0  0  0  0  0  0
   -0.8928   -1.7396   -1.3958 H   0  0  0  0  0  0  0  0  0  0  0  0
   -2.3468   -0.9594   -0.6223 H   0  0  0  0  0  0  0  0  0  0  0  0
   -1.5531   -2.3367    0.1783 H   0  0  0  0  0  0  0  0  0  0  0  0
   -0.9348   -0.4779    1.4215 H   0  0  0  0  0  0  0  0  0  0  0  0
   -0.5757    1.0032   -1.2370 H   0  0  0  0  0  0  0  0  0  0  0  0
   -2.3186    1.6615    0.8747 H   0  0  0  0  0  0  0  0  0  0  0  0
    1.3370    1.4215    1.1465 H   0  0  0  0  0  0  0  0  0  0  0  0
    2.8890    0.0577   -0.4274 H   0  0  0  0  0  0  0  0  0  0  0  0
    1.5730    0.1227   -1.7206 H   0  0  0  0  0  0  0  0  0  0  0  0
    2.1148   -1.9212    1.1230 H   0  0  0  0  0  0  0  0  0  0  0  0
  1  2  1  0
  2  3  1  0
  3  4  1  0
  4  5  2  0
  3  6  1  0
  6  7  1  0
  7  8  1  0
  8  9  1  0
  8  2  1  0
  8  6  1  0
  1 10  1  0
  1 11  1  0
  1 12  1  0
  2 13  1  0
  3 14  1  0
  4 15  1  0
  6 16  1  0
  7 17  1  0
  7 18  1  0
  9 19  1  0
M  END
