
     RDKit          3D

 19 20  0  0  0  0  0  0  0  0999 V2000
   -1.4872    1.1900    0.1982 C   0  0  0  0  0  0  0  0  0  0  0  0
   -0.8663   -0.0649   -0.2420 C   0  0  0  0  0  0  0  0  0  0  0  0
    0.2523    0.0116   -1.2569 C   0  0  0  0  0  0  0  0  0  0  0  0
    0.4828   -1.3456   -1.4870 O   0  0  0  0  0  0  0  0  0  0  0  0
    0.5084   -1.9158   -0.1853 C   0  0  0  0  0  0  0  0  0  0  0  0
    0.2380   -0.6426    0.6142 C   0  0  0  0  0  0  0  0  0  0  0  0
    0.1559   -0.6737    1.9187 O   0  0  0  0  0  0  0  0  0  0  0  0
    1.1835    0.2859   -0.1077 C   0  0  0  0  0  0  0  0  0  0  0  0
    1.3138    1.5434    0.3446 O   0  0  0  0  0  0  0  0  0  0  0  0
   -1.1119    1.6149    1.1495 H   0  0  0  0  0  0  0  0  0  0  0  0
   -1.4907    1.9577   -0.6234 H   0  0  0  0  0  0  0  0  0  0  0  0
   -2.5854    0.9958    0.3844 H   0  0  0  0  0  0  0  0  0  0  0  0
   -1.5887   -0.8437   -0.5802 H   0  0  0  0  0  0  0  0  0  0  0  0
    0.1871    0.6747   -2.0669 H   0  0  0  0  0  0  0  0  0  0  0  0
   -0.2909   -2.6550   -0.0530 H   0  0  0  0  0  0  0  0  0  0  0  0
    1.5183   -2.2967    0.0575 H   0  0  0  0  0  0  0  0  0  0  0  0
    0.5914    0.1390    2.3332 H   0  0  0  0  0  0  0  0  0  0  0  0
    2.1567   -0.2302   -0.2954 H   0  0  0  0  0  0  0  0  0  0  0  0
    0.8330    2.2552   -0.1027 H   0  0  0  0  0  0  0  0  0  0  0  0
  1  2  1  0
  2  3  1  0
  3  4  1  0
  4  5  1  0
  5  6  1  0
  6  7  1  0
  6  8  1  0
  8  9  1  0
  6  2  1  0
  8  3  1  0
  1 10  1  0
  1 11  1  0
  1 12  1  0
  2 13  1  0
  3 14  1  0
  5 15  1  0
  5 16  1  0
  7 17  1  0
  8 18  1  0
  9 19  1  0
M  END
