
     RDKit          3D

 21 21  0  0  0  0  0  0  0  0999 V2000
   -2.5116    0.1613   -0.4194 C   0  0  0  0  0  0  0  0  0  0  0  0
   -1.0221    0.0624   -0.3833 C   0  0  0  0  0  0  0  0  0  0  0  0
   -0.5647   -0.8605    0.6886 C   0  0  0  0  0  0  0  0  0  0  0  0
    0.8746   -0.9905    0.9207 C   0  0  0  0  0  0  0  0  0  0  0  0
    1.7960   -0.8368   -0.2339 C   0  0  0  0  0  0  0  0  0  0  0  0
    2.0767    0.6368   -0.3880 C   0  0  0  0  0  0  0  0  0  0  0  0
    1.1070    1.5403   -0.3706 C   0  0  0  0  0  0  0  0  0  0  0  0
   -0.3557    1.3800   -0.2136 C   0  0  0  0  0  0  0  0  0  0  0  0
   -1.0170    2.3952    0.0680 O   0  0  0  0  0  0  0  0  0  0  0  0
   -2.9079   -0.7804   -0.8607 H   0  0  0  0  0  0  0  0  0  0  0  0
   -2.9523    0.4069    0.5572 H   0  0  0  0  0  0  0  0  0  0  0  0
   -2.7849    0.9780   -1.1340 H   0  0  0  0  0  0  0  0  0  0  0  0
   -0.6957   -0.3858   -1.3677 H   0  0  0  0  0  0  0  0  0  0  0  0
   -1.0494   -1.8724    0.5393 H   0  0  0  0  0  0  0  0  0  0  0  0
   -1.0428   -0.4991    1.6503 H   0  0  0  0  0  0  0  0  0  0  0  0
    1.0742   -2.0081    1.3710 H   0  0  0  0  0  0  0  0  0  0  0  0
    1.2295   -0.2799    1.7248 H   0  0  0  0  0  0  0  0  0  0  0  0
    1.4377   -1.2702   -1.1794 H   0  0  0  0  0  0  0  0  0  0  0  0
    2.7775   -1.2906    0.0358 H   0  0  0  0  0  0  0  0  0  0  0  0
    3.0978    0.9490   -0.5148 H   0  0  0  0  0  0  0  0  0  0  0  0
    1.4330    2.5642   -0.4903 H   0  0  0  0  0  0  0  0  0  0  0  0
  1  2  1  0
  2  3  1  0
  3  4  1  0
  4  5  1  0
  5  6  1  0
  6  7  2  0
  7  8  1  0
  8  9  2  0
  8  2  1  0
  1 10  1  0
  1 11  1  0
  1 12  1  0
  2 13  1  0
  3 14  1  0
  3 15  1  0
  4 16  1  0
  4 17  1  0
  5 18  1  0
  5 19  1  0
  6 20  1  0
  7 21  1  0
M  END
