
     RDKit          3D

 21 21  0  0  0  0  0  0  0  0999 V2000
    2.2114   -0.5353   -0.4667 C   0  0  0  0  0  0  0  0  0  0  0  0
    1.0787   -0.4943    0.5332 C   0  0  0  0  0  0  0  0  0  0  0  0
    0.9009    0.6790    1.4207 C   0  0  0  0  0  0  0  0  0  0  0  0
   -0.1149    0.3171    0.3478 C   0  0  0  0  0  0  0  0  0  0  0  0
   -0.2567    1.3645   -0.7166 C   0  0  0  0  0  0  0  0  0  0  0  0
   -1.4488   -0.2718    0.7976 C   0  0  0  0  0  0  0  0  0  0  0  0
   -2.4928    0.6055    0.5619 O   0  0  0  0  0  0  0  0  0  0  0  0
   -1.6505   -1.5081    0.0006 C   0  0  0  0  0  0  0  0  0  0  0  0
   -2.6308   -1.5964   -0.7083 O   0  0  0  0  0  0  0  0  0  0  0  0
    2.3042    0.3648   -1.0698 H   0  0  0  0  0  0  0  0  0  0  0  0
    2.0377   -1.4263   -1.1230 H   0  0  0  0  0  0  0  0  0  0  0  0
    3.1850   -0.7326    0.0432 H   0  0  0  0  0  0  0  0  0  0  0  0
    0.9393   -1.4833    1.0428 H   0  0  0  0  0  0  0  0  0  0  0  0
    0.5191    0.5936    2.4411 H   0  0  0  0  0  0  0  0  0  0  0  0
    1.5878    1.5272    1.2421 H   0  0  0  0  0  0  0  0  0  0  0  0
    0.6478    1.5309   -1.3108 H   0  0  0  0  0  0  0  0  0  0  0  0
   -0.4564    2.3423   -0.1858 H   0  0  0  0  0  0  0  0  0  0  0  0
   -1.1438    1.2095   -1.3697 H   0  0  0  0  0  0  0  0  0  0  0  0
   -1.3326   -0.4978    1.8792 H   0  0  0  0  0  0  0  0  0  0  0  0
   -2.9270    0.3493   -0.2924 H   0  0  0  0  0  0  0  0  0  0  0  0
   -0.9573   -2.3379    0.0250 H   0  0  0  0  0  0  0  0  0  0  0  0
  1  2  1  0
  2  3  1  0
  3  4  1  0
  4  5  1  0
  4  6  1  0
  6  7  1  0
  6  8  1  0
  8  9  2  0
  4  2  1  0
  1 10  1  0
  1 11  1  0
  1 12  1  0
  2 13  1  0
  3 14  1  0
  3 15  1  0
  5 16  1  0
  5 17  1  0
  5 18  1  0
  6 19  1  0
  7 20  1  0
  8 21  1  0
M  END
