
     RDKit          3D

 21 21  0  0  0  0  0  0  0  0999 V2000
    2.2422   -0.4977   -0.9928 C   0  0  0  0  0  0  0  0  0  0  0  0
    1.4448   -0.2060    0.2879 C   0  0  0  0  0  0  0  0  0  0  0  0
    1.0062    1.1758    0.2166 C   0  0  0  0  0  0  0  0  0  0  0  0
   -0.1088    1.8809    0.1075 C   0  0  0  0  0  0  0  0  0  0  0  0
   -1.5226    1.5470    0.0009 C   0  0  0  0  0  0  0  0  0  0  0  0
   -2.2099    0.4919   -0.3795 C   0  0  0  0  0  0  0  0  0  0  0  0
   -1.7882   -0.8364   -0.8731 C   0  0  0  0  0  0  0  0  0  0  0  0
   -0.8148   -1.5058   -0.0228 C   0  0  0  0  0  0  0  0  0  0  0  0
    0.4054   -1.2217    0.3885 C   0  0  0  0  0  0  0  0  0  0  0  0
    1.5397   -0.6853   -1.8156 H   0  0  0  0  0  0  0  0  0  0  0  0
    2.8865   -1.3924   -0.8606 H   0  0  0  0  0  0  0  0  0  0  0  0
    2.8029    0.4170   -1.2233 H   0  0  0  0  0  0  0  0  0  0  0  0
    2.2060   -0.3061    1.1126 H   0  0  0  0  0  0  0  0  0  0  0  0
    1.8474    1.8557    0.2677 H   0  0  0  0  0  0  0  0  0  0  0  0
    0.0717    2.9671    0.0944 H   0  0  0  0  0  0  0  0  0  0  0  0
   -2.1388    2.3787    0.3141 H   0  0  0  0  0  0  0  0  0  0  0  0
   -3.2685    0.6648   -0.3037 H   0  0  0  0  0  0  0  0  0  0  0  0
   -2.7205   -1.4536   -0.9094 H   0  0  0  0  0  0  0  0  0  0  0  0
   -1.4722   -0.7754   -1.9497 H   0  0  0  0  0  0  0  0  0  0  0  0
   -1.1699   -2.4532    0.3612 H   0  0  0  0  0  0  0  0  0  0  0  0
    0.7613   -2.0453    1.0360 H   0  0  0  0  0  0  0  0  0  0  0  0
  1  2  1  0
  2  3  1  0
  3  4  2  3
  4  5  1  0
  5  6  2  3
  6  7  1  0
  7  8  1  0
  8  9  2  3
  9  2  1  0
  1 10  1  0
  1 11  1  0
  1 12  1  0
  2 13  1  0
  3 14  1  0
  4 15  1  0
  5 16  1  0
  6 17  1  0
  7 18  1  0
  7 19  1  0
  8 20  1  0
  9 21  1  0
M  END
