
     RDKit          3D

 19 20  0  0  0  0  0  0  0  0999 V2000
    2.3940    0.5326    0.1029 C   0  0  0  0  0  0  0  0  0  0  0  0
    0.9207    0.3515   -0.0372 C   0  0  0  0  0  0  0  0  0  0  0  0
    0.4644   -1.0561    0.2938 C   0  0  0  0  0  0  0  0  0  0  0  0
   -0.9796   -0.9753   -0.2148 C   0  0  0  0  0  0  0  0  0  0  0  0
   -1.8460   -0.1660    0.6943 C   0  0  0  0  0  0  0  0  0  0  0  0
   -1.6275    1.0192   -0.1915 C   0  0  0  0  0  0  0  0  0  0  0  0
   -1.9525    2.1898   -0.0687 O   0  0  0  0  0  0  0  0  0  0  0  0
   -0.9041    0.1671   -1.1791 C   0  0  0  0  0  0  0  0  0  0  0  0
    0.4460    0.5057   -1.3172 O   0  0  0  0  0  0  0  0  0  0  0  0
    3.0046   -0.2023   -0.4467 H   0  0  0  0  0  0  0  0  0  0  0  0
    2.6619    1.5306   -0.2610 H   0  0  0  0  0  0  0  0  0  0  0  0
    2.6340    0.5157    1.1925 H   0  0  0  0  0  0  0  0  0  0  0  0
    0.4173    1.0285    0.6708 H   0  0  0  0  0  0  0  0  0  0  0  0
    0.4332   -1.2527    1.3705 H   0  0  0  0  0  0  0  0  0  0  0  0
    1.0031   -1.8239   -0.2936 H   0  0  0  0  0  0  0  0  0  0  0  0
   -1.3823   -1.8955   -0.6195 H   0  0  0  0  0  0  0  0  0  0  0  0
   -1.3742    0.0426    1.6979 H   0  0  0  0  0  0  0  0  0  0  0  0
   -2.8782   -0.5118    0.7397 H   0  0  0  0  0  0  0  0  0  0  0  0
   -1.4348    0.0003   -2.1332 H   0  0  0  0  0  0  0  0  0  0  0  0
  1  2  1  0
  2  3  1  0
  3  4  1  0
  4  5  1  0
  5  6  1  0
  6  7  2  0
  6  8  1  0
  8  9  1  0
  9  2  1  0
  8  4  1  0
  1 10  1  0
  1 11  1  0
  1 12  1  0
  2 13  1  0
  3 14  1  0
  3 15  1  0
  4 16  1  0
  5 17  1  0
  5 18  1  0
  8 19  1  0
M  END
