
     RDKit          3D

 25 26  0  0  0  0  0  0  0  0999 V2000
    3.1943    0.3860    0.1105 C   0  0  0  0  0  0  0  0  0  0  0  0
    1.7515    0.8291    0.0690 C   0  0  0  0  0  0  0  0  0  0  0  0
    0.8367   -0.0619   -0.7448 C   0  0  0  0  0  0  0  0  0  0  0  0
    0.2019   -0.5877    0.5219 C   0  0  0  0  0  0  0  0  0  0  0  0
   -1.2906   -0.5408    0.5671 C   0  0  0  0  0  0  0  0  0  0  0  0
   -1.9910   -1.3263   -0.5101 C   0  0  0  0  0  0  0  0  0  0  0  0
   -2.5445   -0.0490   -1.0795 C   0  0  0  0  0  0  0  0  0  0  0  0
   -1.9639    0.6989    0.1144 C   0  0  0  0  0  0  0  0  0  0  0  0
    0.9634    0.4042    1.2985 C   0  0  0  0  0  0  0  0  0  0  0  0
    3.8207    1.2587    0.3813 H   0  0  0  0  0  0  0  0  0  0  0  0
    3.2974   -0.3447    0.9317 H   0  0  0  0  0  0  0  0  0  0  0  0
    3.5246   -0.0876   -0.8399 H   0  0  0  0  0  0  0  0  0  0  0  0
    1.6637    1.8990   -0.1959 H   0  0  0  0  0  0  0  0  0  0  0  0
    1.4621   -0.8033   -1.2985 H   0  0  0  0  0  0  0  0  0  0  0  0
    0.1942    0.5225   -1.4068 H   0  0  0  0  0  0  0  0  0  0  0  0
    0.5643   -1.6258    0.7061 H   0  0  0  0  0  0  0  0  0  0  0  0
   -1.6537   -0.8611    1.5657 H   0  0  0  0  0  0  0  0  0  0  0  0
   -2.8429   -1.9577   -0.1432 H   0  0  0  0  0  0  0  0  0  0  0  0
   -1.3598   -1.9186   -1.1755 H   0  0  0  0  0  0  0  0  0  0  0  0
   -3.6555    0.0223   -1.1153 H   0  0  0  0  0  0  0  0  0  0  0  0
   -2.1294    0.2728   -2.0522 H   0  0  0  0  0  0  0  0  0  0  0  0
   -2.7782    1.0532    0.8097 H   0  0  0  0  0  0  0  0  0  0  0  0
   -1.3530    1.5503   -0.1824 H   0  0  0  0  0  0  0  0  0  0  0  0
    1.6517   -0.0035    2.0932 H   0  0  0  0  0  0  0  0  0  0  0  0
    0.4360    1.2710    1.7239 H   0  0  0  0  0  0  0  0  0  0  0  0
  1  2  1  0
  2  3  1  0
  3  4  1  0
  4  5  1  0
  5  6  1  0
  6  7  1  0
  7  8  1  0
  4  9  1  0
  9  2  1  0
  8  5  1  0
  1 10  1  0
  1 11  1  0
  1 12  1  0
  2 13  1  0
  3 14  1  0
  3 15  1  0
  4 16  1  0
  5 17  1  0
  6 18  1  0
  6 19  1  0
  7 20  1  0
  7 21  1  0
  8 22  1  0
  8 23  1  0
  9 24  1  0
  9 25  1  0
M  END
