
     RDKit          3D

 23 25  0  0  0  0  0  0  0  0999 V2000
    2.4086    1.2135    0.5539 C   0  0  0  0  0  0  0  0  0  0  0  0
    1.8470   -0.0088   -0.1355 C   0  0  0  0  0  0  0  0  0  0  0  0
    0.9587   -0.8539    0.7782 C   0  0  0  0  0  0  0  0  0  0  0  0
   -0.1978   -0.4385   -0.0328 C   0  0  0  0  0  0  0  0  0  0  0  0
    0.6209    0.3919   -0.9675 C   0  0  0  0  0  0  0  0  0  0  0  0
   -1.1039   -1.4493   -0.6002 C   0  0  0  0  0  0  0  0  0  0  0  0
   -2.2977   -0.6497   -0.2046 C   0  0  0  0  0  0  0  0  0  0  0  0
   -2.3563    0.8173   -0.3019 C   0  0  0  0  0  0  0  0  0  0  0  0
   -1.3478    0.2265    0.6455 C   0  0  0  0  0  0  0  0  0  0  0  0
    3.4037    1.0280    0.9975 H   0  0  0  0  0  0  0  0  0  0  0  0
    1.7107    1.5720    1.3227 H   0  0  0  0  0  0  0  0  0  0  0  0
    2.5504    2.0365   -0.1918 H   0  0  0  0  0  0  0  0  0  0  0  0
    2.6005   -0.5781   -0.7006 H   0  0  0  0  0  0  0  0  0  0  0  0
    1.2234   -1.9127    0.8363 H   0  0  0  0  0  0  0  0  0  0  0  0
    0.9014   -0.4137    1.8113 H   0  0  0  0  0  0  0  0  0  0  0  0
    0.6581   -0.0774   -1.9704 H   0  0  0  0  0  0  0  0  0  0  0  0
    0.3823    1.4633   -0.9311 H   0  0  0  0  0  0  0  0  0  0  0  0
   -1.0970   -2.4446   -0.1007 H   0  0  0  0  0  0  0  0  0  0  0  0
   -1.0949   -1.5757   -1.7223 H   0  0  0  0  0  0  0  0  0  0  0  0
   -3.1102   -1.1721    0.3062 H   0  0  0  0  0  0  0  0  0  0  0  0
   -3.2581    1.3072    0.0500 H   0  0  0  0  0  0  0  0  0  0  0  0
   -1.8655    1.3723   -1.1537 H   0  0  0  0  0  0  0  0  0  0  0  0
   -1.5364    0.1461    1.7115 H   0  0  0  0  0  0  0  0  0  0  0  0
  1  2  1  0
  2  3  1  0
  3  4  1  0
  4  5  1  0
  4  6  1  0
  6  7  1  0
  7  8  1  0
  8  9  1  0
  5  2  1  0
  9  7  1  0
  9  4  1  0
  1 10  1  0
  1 11  1  0
  1 12  1  0
  2 13  1  0
  3 14  1  0
  3 15  1  0
  5 16  1  0
  5 17  1  0
  6 18  1  0
  6 19  1  0
  7 20  1  0
  8 21  1  0
  8 22  1  0
  9 23  1  0
M  END
