
     RDKit          3D

 21 21  0  0  0  0  0  0  0  0999 V2000
    2.2162    0.2247    0.4607 C   0  0  0  0  0  0  0  0  0  0  0  0
    1.0690    0.3780   -0.5459 C   0  0  0  0  0  0  0  0  0  0  0  0
    0.5223   -0.9748   -0.8393 C   0  0  0  0  0  0  0  0  0  0  0  0
   -0.3383   -1.5198    0.2786 C   0  0  0  0  0  0  0  0  0  0  0  0
   -1.7277   -1.0422    0.0736 C   0  0  0  0  0  0  0  0  0  0  0  0
   -2.1180    0.2223    0.0179 C   0  0  0  0  0  0  0  0  0  0  0  0
   -1.3434    1.4572    0.1348 C   0  0  0  0  0  0  0  0  0  0  0  0
    0.1092    1.3251    0.0544 C   0  0  0  0  0  0  0  0  0  0  0  0
    0.6955    2.2488    0.6435 O   0  0  0  0  0  0  0  0  0  0  0  0
    1.7835   -0.1939    1.3780 H   0  0  0  0  0  0  0  0  0  0  0  0
    2.5078    1.2839    0.7205 H   0  0  0  0  0  0  0  0  0  0  0  0
    3.0572   -0.3348    0.0444 H   0  0  0  0  0  0  0  0  0  0  0  0
    1.5048    0.8046   -1.4626 H   0  0  0  0  0  0  0  0  0  0  0  0
   -0.0236   -1.0520   -1.7862 H   0  0  0  0  0  0  0  0  0  0  0  0
    1.3941   -1.6772   -0.9266 H   0  0  0  0  0  0  0  0  0  0  0  0
   -0.3360   -2.6246    0.1735 H   0  0  0  0  0  0  0  0  0  0  0  0
    0.0328   -1.2365    1.2770 H   0  0  0  0  0  0  0  0  0  0  0  0
   -2.5116   -1.8096   -0.0438 H   0  0  0  0  0  0  0  0  0  0  0  0
   -3.1793    0.3827   -0.1392 H   0  0  0  0  0  0  0  0  0  0  0  0
   -1.6192    1.9297    1.1170 H   0  0  0  0  0  0  0  0  0  0  0  0
   -1.6954    2.2083   -0.6304 H   0  0  0  0  0  0  0  0  0  0  0  0
  1  2  1  0
  2  3  1  0
  3  4  1  0
  4  5  1  0
  5  6  2  0
  6  7  1  0
  7  8  1  0
  8  9  2  0
  8  2  1  0
  1 10  1  0
  1 11  1  0
  1 12  1  0
  2 13  1  0
  3 14  1  0
  3 15  1  0
  4 16  1  0
  4 17  1  0
  5 18  1  0
  6 19  1  0
  7 20  1  0
  7 21  1  0
M  END
