
     RDKit          3D

 15 16  0  0  0  0  0  0  0  0999 V2000
   -2.1470    0.5971    0.4325 C   0  0  0  0  0  0  0  0  0  0  0  0
   -1.0047   -0.1447   -0.1521 C   0  0  0  0  0  0  0  0  0  0  0  0
   -1.0380   -1.3142   -0.8744 C   0  0  0  0  0  0  0  0  0  0  0  0
    0.2032   -1.6086   -1.1920 O   0  0  0  0  0  0  0  0  0  0  0  0
    1.0192   -0.7041   -0.7192 C   0  0  0  0  0  0  0  0  0  0  0  0
    0.3112    0.2661   -0.0401 C   0  0  0  0  0  0  0  0  0  0  0  0
    1.2391    1.1713    0.4205 O   0  0  0  0  0  0  0  0  0  0  0  0
    2.4996    0.5371    0.4522 C   0  0  0  0  0  0  0  0  0  0  0  0
    2.3620   -0.3667   -0.6552 O   0  0  0  0  0  0  0  0  0  0  0  0
   -3.0962    0.0116    0.2812 H   0  0  0  0  0  0  0  0  0  0  0  0
   -2.0363    0.7092    1.5509 H   0  0  0  0  0  0  0  0  0  0  0  0
   -2.2850    1.6021   -0.0401 H   0  0  0  0  0  0  0  0  0  0  0  0
   -1.9407   -1.8852   -1.1307 H   0  0  0  0  0  0  0  0  0  0  0  0
    3.3452    1.2174    0.3043 H   0  0  0  0  0  0  0  0  0  0  0  0
    2.5683   -0.0884    1.3621 H   0  0  0  0  0  0  0  0  0  0  0  0
  1  2  1  0
  2  3  2  0
  3  4  1  0
  4  5  1  0
  5  6  2  0
  6  7  1  0
  7  8  1  0
  8  9  1  0
  6  2  1  0
  9  5  1  0
  1 10  1  0
  1 11  1  0
  1 12  1  0
  3 13  1  0
  8 14  1  0
  8 15  1  0
M  END
