
     RDKit          3D

 21 21  0  0  0  0  0  0  0  0999 V2000
   -2.5537   -0.4920   -0.0349 C   0  0  0  0  0  0  0  0  0  0  0  0
   -1.2908   -0.1002    0.6859 C   0  0  0  0  0  0  0  0  0  0  0  0
   -0.7571    1.1462   -0.0280 C   0  0  0  0  0  0  0  0  0  0  0  0
    0.7113    1.0372    0.2505 C   0  0  0  0  0  0  0  0  0  0  0  0
    1.4606    1.9243   -0.4792 O   0  0  0  0  0  0  0  0  0  0  0  0
    0.9361   -0.4160   -0.1900 C   0  0  0  0  0  0  0  0  0  0  0  0
    2.2736   -0.9299    0.1864 C   0  0  0  0  0  0  0  0  0  0  0  0
   -0.1971   -1.0883    0.4742 C   0  0  0  0  0  0  0  0  0  0  0  0
   -0.2153   -2.2604    0.7894 O   0  0  0  0  0  0  0  0  0  0  0  0
   -2.2609   -1.0291   -0.9597 H   0  0  0  0  0  0  0  0  0  0  0  0
   -3.1220    0.4227   -0.3060 H   0  0  0  0  0  0  0  0  0  0  0  0
   -3.2146   -1.1386    0.5773 H   0  0  0  0  0  0  0  0  0  0  0  0
   -1.4441    0.1615    1.7334 H   0  0  0  0  0  0  0  0  0  0  0  0
   -0.9041    0.9284   -1.1212 H   0  0  0  0  0  0  0  0  0  0  0  0
   -1.2291    2.0596    0.2993 H   0  0  0  0  0  0  0  0  0  0  0  0
    0.8441    1.1336    1.3547 H   0  0  0  0  0  0  0  0  0  0  0  0
    2.2901    2.2255   -0.0007 H   0  0  0  0  0  0  0  0  0  0  0  0
    0.7303   -0.4230   -1.2805 H   0  0  0  0  0  0  0  0  0  0  0  0
    2.6265   -1.6067   -0.6367 H   0  0  0  0  0  0  0  0  0  0  0  0
    3.0166   -0.0815    0.1856 H   0  0  0  0  0  0  0  0  0  0  0  0
    2.2996   -1.4733    1.1345 H   0  0  0  0  0  0  0  0  0  0  0  0
  1  2  1  0
  2  3  1  0
  3  4  1  0
  4  5  1  0
  4  6  1  0
  6  7  1  0
  6  8  1  0
  8  9  2  0
  8  2  1  0
  1 10  1  0
  1 11  1  0
  1 12  1  0
  2 13  1  0
  3 14  1  0
  3 15  1  0
  4 16  1  0
  5 17  1  0
  6 18  1  0
  7 19  1  0
  7 20  1  0
  7 21  1  0
M  END
