
     RDKit          3D

 19 19  0  0  0  0  0  0  0  0999 V2000
    2.3934   -0.1691    0.1692 C   0  0  0  0  0  0  0  0  0  0  0  0
    1.2291   -0.3245   -0.7991 C   0  0  0  0  0  0  0  0  0  0  0  0
    0.2263   -1.2901   -0.2995 C   0  0  0  0  0  0  0  0  0  0  0  0
   -0.9036   -0.6345   -0.1490 C   0  0  0  0  0  0  0  0  0  0  0  0
   -2.1432   -1.2589    0.3338 C   0  0  0  0  0  0  0  0  0  0  0  0
   -2.1727   -2.4671    0.6275 O   0  0  0  0  0  0  0  0  0  0  0  0
   -0.6938    0.7764   -0.5395 C   0  0  0  0  0  0  0  0  0  0  0  0
   -0.9838    1.7267    0.6111 C   0  0  0  0  0  0  0  0  0  0  0  0
    0.6079    0.8735   -0.9223 O   0  0  0  0  0  0  0  0  0  0  0  0
    3.1782    0.4055   -0.4029 H   0  0  0  0  0  0  0  0  0  0  0  0
    2.8277   -1.1304    0.4536 H   0  0  0  0  0  0  0  0  0  0  0  0
    2.1041    0.4698    1.0124 H   0  0  0  0  0  0  0  0  0  0  0  0
    1.6299   -0.7380   -1.7573 H   0  0  0  0  0  0  0  0  0  0  0  0
    0.3959   -2.3665   -0.0909 H   0  0  0  0  0  0  0  0  0  0  0  0
   -3.0626   -0.6868    0.4471 H   0  0  0  0  0  0  0  0  0  0  0  0
   -1.4189    0.9721   -1.3832 H   0  0  0  0  0  0  0  0  0  0  0  0
   -0.0381    2.1498    1.0101 H   0  0  0  0  0  0  0  0  0  0  0  0
   -1.4981    1.1809    1.4347 H   0  0  0  0  0  0  0  0  0  0  0  0
   -1.6778    2.5111    0.2440 H   0  0  0  0  0  0  0  0  0  0  0  0
  1  2  1  0
  2  3  1  0
  3  4  2  0
  4  5  1  0
  5  6  2  0
  4  7  1  0
  7  8  1  0
  7  9  1  0
  9  2  1  0
  1 10  1  0
  1 11  1  0
  1 12  1  0
  2 13  1  0
  3 14  1  0
  5 15  1  0
  7 16  1  0
  8 17  1  0
  8 18  1  0
  8 19  1  0
M  END
