
     RDKit          3D

 21 21  0  0  0  0  0  0  0  0999 V2000
   -2.7131    0.2344    0.0494 C   0  0  0  0  0  0  0  0  0  0  0  0
   -1.4329    0.4683   -0.7474 C   0  0  0  0  0  0  0  0  0  0  0  0
   -0.9504   -0.8697   -1.1734 C   0  0  0  0  0  0  0  0  0  0  0  0
    0.1790   -1.1826   -0.5492 C   0  0  0  0  0  0  0  0  0  0  0  0
    0.6048   -0.1046    0.3741 C   0  0  0  0  0  0  0  0  0  0  0  0
    1.9900    0.3949    0.0678 C   0  0  0  0  0  0  0  0  0  0  0  0
    3.0192   -0.6595    0.1668 C   0  0  0  0  0  0  0  0  0  0  0  0
    4.1692   -0.3431   -0.0652 O   0  0  0  0  0  0  0  0  0  0  0  0
   -0.3574    1.0304    0.1165 C   0  0  0  0  0  0  0  0  0  0  0  0
   -3.0805    1.1422    0.5340 H   0  0  0  0  0  0  0  0  0  0  0  0
   -2.4960   -0.5716    0.7604 H   0  0  0  0  0  0  0  0  0  0  0  0
   -3.4683   -0.1250   -0.7098 H   0  0  0  0  0  0  0  0  0  0  0  0
   -1.6183    1.0600   -1.6579 H   0  0  0  0  0  0  0  0  0  0  0  0
   -1.4893   -1.4751   -1.9054 H   0  0  0  0  0  0  0  0  0  0  0  0
    0.7251   -2.1158   -0.6972 H   0  0  0  0  0  0  0  0  0  0  0  0
    0.5261   -0.4696    1.4249 H   0  0  0  0  0  0  0  0  0  0  0  0
    2.2260    1.1898    0.7969 H   0  0  0  0  0  0  0  0  0  0  0  0
    1.9911    0.7610   -0.9789 H   0  0  0  0  0  0  0  0  0  0  0  0
    2.8132   -1.6852    0.4305 H   0  0  0  0  0  0  0  0  0  0  0  0
   -0.7638    1.4205    1.0735 H   0  0  0  0  0  0  0  0  0  0  0  0
    0.1263    1.9002   -0.3815 H   0  0  0  0  0  0  0  0  0  0  0  0
  1  2  1  0
  2  3  1  0
  3  4  2  0
  4  5  1  0
  5  6  1  0
  6  7  1  0
  7  8  2  0
  5  9  1  0
  9  2  1  0
  1 10  1  0
  1 11  1  0
  1 12  1  0
  2 13  1  0
  3 14  1  0
  4 15  1  0
  5 16  1  0
  6 17  1  0
  6 18  1  0
  7 19  1  0
  9 20  1  0
  9 21  1  0
M  END
