
     RDKit          3D

 23 24  0  0  0  0  0  0  0  0999 V2000
    2.3729    0.2090   -0.0634 C   0  0  0  0  0  0  0  0  0  0  0  0
    1.1695   -0.4066    0.5840 C   0  0  0  0  0  0  0  0  0  0  0  0
    0.3683   -1.2671   -0.3532 C   0  0  0  0  0  0  0  0  0  0  0  0
   -0.8327   -0.4151   -0.0825 C   0  0  0  0  0  0  0  0  0  0  0  0
   -1.9928   -1.0846    0.5900 C   0  0  0  0  0  0  0  0  0  0  0  0
   -1.1535    0.4600   -1.2572 C   0  0  0  0  0  0  0  0  0  0  0  0
   -0.9448    1.7678   -0.8925 O   0  0  0  0  0  0  0  0  0  0  0  0
   -0.0273    1.7994    0.1358 C   0  0  0  0  0  0  0  0  0  0  0  0
   -0.0103    0.4702    0.8036 C   0  0  0  0  0  0  0  0  0  0  0  0
    3.2265   -0.5052    0.1023 H   0  0  0  0  0  0  0  0  0  0  0  0
    2.6706    1.1708    0.4055 H   0  0  0  0  0  0  0  0  0  0  0  0
    2.2834    0.2885   -1.1741 H   0  0  0  0  0  0  0  0  0  0  0  0
    1.4397   -0.9318    1.5392 H   0  0  0  0  0  0  0  0  0  0  0  0
    0.6995   -1.2475   -1.4210 H   0  0  0  0  0  0  0  0  0  0  0  0
    0.2513   -2.3149   -0.0413 H   0  0  0  0  0  0  0  0  0  0  0  0
   -1.8869   -0.9079    1.6871 H   0  0  0  0  0  0  0  0  0  0  0  0
   -2.0762   -2.1599    0.3385 H   0  0  0  0  0  0  0  0  0  0  0  0
   -2.9545   -0.5885    0.3060 H   0  0  0  0  0  0  0  0  0  0  0  0
   -2.2257    0.2755   -1.5163 H   0  0  0  0  0  0  0  0  0  0  0  0
   -0.5504    0.1793   -2.1595 H   0  0  0  0  0  0  0  0  0  0  0  0
    0.9795    2.1243   -0.2215 H   0  0  0  0  0  0  0  0  0  0  0  0
   -0.3822    2.5860    0.8569 H   0  0  0  0  0  0  0  0  0  0  0  0
   -0.4242    0.4983    1.8334 H   0  0  0  0  0  0  0  0  0  0  0  0
  1  2  1  0
  2  3  1  0
  3  4  1  0
  4  5  1  0
  4  6  1  0
  6  7  1  0
  7  8  1  0
  8  9  1  0
  9  2  1  0
  9  4  1  0
  1 10  1  0
  1 11  1  0
  1 12  1  0
  2 13  1  0
  3 14  1  0
  3 15  1  0
  5 16  1  0
  5 17  1  0
  5 18  1  0
  6 19  1  0
  6 20  1  0
  8 21  1  0
  8 22  1  0
  9 23  1  0
M  END
