
     RDKit          3D

 21 23  0  0  0  0  0  0  0  0999 V2000
    2.2471    0.0319   -0.8752 C   0  0  0  0  0  0  0  0  0  0  0  0
    1.3565    0.2242    0.3057 C   0  0  0  0  0  0  0  0  0  0  0  0
    0.8676   -0.9743    1.0960 C   0  0  0  0  0  0  0  0  0  0  0  0
   -0.0430   -0.1435    0.3476 C   0  0  0  0  0  0  0  0  0  0  0  0
   -1.0095    0.8374    1.0355 C   0  0  0  0  0  0  0  0  0  0  0  0
   -2.2823    0.3859    0.4128 C   0  0  0  0  0  0  0  0  0  0  0  0
   -2.9470    0.7395   -0.6495 O   0  0  0  0  0  0  0  0  0  0  0  0
   -1.7343    0.5036   -1.0467 C   0  0  0  0  0  0  0  0  0  0  0  0
   -0.7950   -0.6445   -0.8882 C   0  0  0  0  0  0  0  0  0  0  0  0
    1.7090    0.0046   -1.8493 H   0  0  0  0  0  0  0  0  0  0  0  0
    2.9971    0.8677   -0.9911 H   0  0  0  0  0  0  0  0  0  0  0  0
    2.8588   -0.8923   -0.8336 H   0  0  0  0  0  0  0  0  0  0  0  0
    1.6891    1.0710    0.9761 H   0  0  0  0  0  0  0  0  0  0  0  0
    1.1469   -1.9705    0.6805 H   0  0  0  0  0  0  0  0  0  0  0  0
    0.8350   -0.9134    2.2062 H   0  0  0  0  0  0  0  0  0  0  0  0
   -0.6951    1.8554    0.7683 H   0  0  0  0  0  0  0  0  0  0  0  0
   -1.0238    0.6257    2.1120 H   0  0  0  0  0  0  0  0  0  0  0  0
   -2.5293   -0.6675    0.7529 H   0  0  0  0  0  0  0  0  0  0  0  0
   -1.1487    1.4502   -1.2675 H   0  0  0  0  0  0  0  0  0  0  0  0
   -1.3537   -1.5531   -0.5604 H   0  0  0  0  0  0  0  0  0  0  0  0
   -0.1453   -0.8381   -1.7321 H   0  0  0  0  0  0  0  0  0  0  0  0
  1  2  1  0
  2  3  1  0
  3  4  1  0
  4  5  1  0
  5  6  1  0
  6  7  1  0
  7  8  1  0
  8  9  1  0
  4  2  1  0
  8  6  1  0
  9  4  1  0
  1 10  1  0
  1 11  1  0
  1 12  1  0
  2 13  1  0
  3 14  1  0
  3 15  1  0
  5 16  1  0
  5 17  1  0
  6 18  1  0
  8 19  1  0
  9 20  1  0
  9 21  1  0
M  END
