
     RDKit          3D

 21 21  0  0  0  0  0  0  0  0999 V2000
    2.6745    0.2208    0.1133 C   0  0  0  0  0  0  0  0  0  0  0  0
    1.3824   -0.1104   -0.6446 C   0  0  0  0  0  0  0  0  0  0  0  0
    0.5624    1.1109   -0.6391 C   0  0  0  0  0  0  0  0  0  0  0  0
   -0.7225    1.1871   -0.4303 C   0  0  0  0  0  0  0  0  0  0  0  0
   -1.4794   -0.0644   -0.1662 C   0  0  0  0  0  0  0  0  0  0  0  0
   -2.8028    0.1892    0.4965 C   0  0  0  0  0  0  0  0  0  0  0  0
   -0.5871   -0.9360    0.6323 C   0  0  0  0  0  0  0  0  0  0  0  0
   -0.9679   -1.3187    1.7153 O   0  0  0  0  0  0  0  0  0  0  0  0
    0.7245   -1.2800    0.0379 C   0  0  0  0  0  0  0  0  0  0  0  0
    3.3722    0.7464   -0.5432 H   0  0  0  0  0  0  0  0  0  0  0  0
    2.4304    0.8866    0.9570 H   0  0  0  0  0  0  0  0  0  0  0  0
    3.0833   -0.7388    0.4831 H   0  0  0  0  0  0  0  0  0  0  0  0
    1.6661   -0.4036   -1.6680 H   0  0  0  0  0  0  0  0  0  0  0  0
    1.0935    2.0570   -0.8318 H   0  0  0  0  0  0  0  0  0  0  0  0
   -1.2345    2.1434   -0.4479 H   0  0  0  0  0  0  0  0  0  0  0  0
   -1.6494   -0.5550   -1.1446 H   0  0  0  0  0  0  0  0  0  0  0  0
   -2.9787   -0.5832    1.2695 H   0  0  0  0  0  0  0  0  0  0  0  0
   -2.8718    1.1865    0.9509 H   0  0  0  0  0  0  0  0  0  0  0  0
   -3.6302    0.0767   -0.2490 H   0  0  0  0  0  0  0  0  0  0  0  0
    0.5537   -2.1130   -0.7055 H   0  0  0  0  0  0  0  0  0  0  0  0
    1.3814   -1.7015    0.8145 H   0  0  0  0  0  0  0  0  0  0  0  0
  1  2  1  0
  2  3  1  0
  3  4  2  0
  4  5  1  0
  5  6  1  0
  5  7  1  0
  7  8  2  0
  7  9  1  0
  9  2  1  0
  1 10  1  0
  1 11  1  0
  1 12  1  0
  2 13  1  0
  3 14  1  0
  4 15  1  0
  5 16  1  0
  6 17  1  0
  6 18  1  0
  6 19  1  0
  9 20  1  0
  9 21  1  0
M  END
