
     RDKit          3D

 19 21  0  0  0  0  0  0  0  0999 V2000
   -2.2895    0.0037   -0.0055 C   0  0  0  0  0  0  0  0  0  0  0  0
   -0.9131    0.4641   -0.0880 C   0  0  0  0  0  0  0  0  0  0  0  0
    0.0210    0.2382    1.0634 C   0  0  0  0  0  0  0  0  0  0  0  0
    0.0383   -1.2070    0.6637 C   0  0  0  0  0  0  0  0  0  0  0  0
    0.1403   -0.4458   -0.6593 C   0  0  0  0  0  0  0  0  0  0  0  0
    0.1746   -0.9646   -1.7969 O   0  0  0  0  0  0  0  0  0  0  0  0
    1.0798    0.4418    0.0406 C   0  0  0  0  0  0  0  0  0  0  0  0
    2.4020    0.6333    0.0697 C   0  0  0  0  0  0  0  0  0  0  0  0
    1.4570    1.6818   -0.4126 O   0  0  0  0  0  0  0  0  0  0  0  0
   -2.4972   -1.0541   -0.1688 H   0  0  0  0  0  0  0  0  0  0  0  0
   -2.7415    0.3164    0.9769 H   0  0  0  0  0  0  0  0  0  0  0  0
   -2.8977    0.5616   -0.7744 H   0  0  0  0  0  0  0  0  0  0  0  0
   -0.8472    1.5324   -0.4078 H   0  0  0  0  0  0  0  0  0  0  0  0
   -0.0461    0.6181    1.9884 H   0  0  0  0  0  0  0  0  0  0  0  0
   -0.8642   -1.7891    0.8068 H   0  0  0  0  0  0  0  0  0  0  0  0
    0.9351   -1.7818    0.9198 H   0  0  0  0  0  0  0  0  0  0  0  0
    0.7803   -0.5999   -2.4641 H   0  0  0  0  0  0  0  0  0  0  0  0
    2.9516    1.0368    0.9659 H   0  0  0  0  0  0  0  0  0  0  0  0
    3.1163    0.3143   -0.7176 H   0  0  0  0  0  0  0  0  0  0  0  0
  1  2  1  0
  2  3  1  0
  3  4  1  0
  4  5  1  0
  5  6  1  0
  5  7  1  0
  7  8  1  0
  8  9  1  0
  5  2  1  0
  9  7  1  0
  7  3  1  0
  1 10  1  0
  1 11  1  0
  1 12  1  0
  2 13  1  0
  3 14  1  0
  4 15  1  0
  4 16  1  0
  6 17  1  0
  8 18  1  0
  8 19  1  0
M  END
