
     RDKit          3D

 21 22  0  0  0  0  0  0  0  0999 V2000
    2.3077    0.4281    0.5641 C   0  0  0  0  0  0  0  0  0  0  0  0
    1.2064   -0.4961    0.1437 C   0  0  0  0  0  0  0  0  0  0  0  0
    1.4070   -1.1535   -1.2045 C   0  0  0  0  0  0  0  0  0  0  0  0
    0.1439   -0.7106   -1.6460 O   0  0  0  0  0  0  0  0  0  0  0  0
    0.0502    0.1572   -0.5398 C   0  0  0  0  0  0  0  0  0  0  0  0
   -1.2643    0.0695    0.2030 C   0  0  0  0  0  0  0  0  0  0  0  0
   -1.6366    1.3311    0.9535 C   0  0  0  0  0  0  0  0  0  0  0  0
   -2.3813   -0.7001   -0.3520 C   0  0  0  0  0  0  0  0  0  0  0  0
   -1.5895   -1.1645    0.7446 O   0  0  0  0  0  0  0  0  0  0  0  0
    1.8515    1.3641    0.9503 H   0  0  0  0  0  0  0  0  0  0  0  0
    2.9182    0.0062    1.3980 H   0  0  0  0  0  0  0  0  0  0  0  0
    2.9843    0.7048   -0.2748 H   0  0  0  0  0  0  0  0  0  0  0  0
    0.9818   -1.2447    0.9131 H   0  0  0  0  0  0  0  0  0  0  0  0
    2.2548   -0.7119   -1.7619 H   0  0  0  0  0  0  0  0  0  0  0  0
    1.3852   -2.2634   -1.1752 H   0  0  0  0  0  0  0  0  0  0  0  0
    0.2826    1.1862   -0.8828 H   0  0  0  0  0  0  0  0  0  0  0  0
   -2.1825    1.9761    0.2097 H   0  0  0  0  0  0  0  0  0  0  0  0
   -0.7098    1.8002    1.3036 H   0  0  0  0  0  0  0  0  0  0  0  0
   -2.3528    1.1035    1.7702 H   0  0  0  0  0  0  0  0  0  0  0  0
   -2.2488   -1.2204   -1.3116 H   0  0  0  0  0  0  0  0  0  0  0  0
   -3.4081   -0.4616   -0.0051 H   0  0  0  0  0  0  0  0  0  0  0  0
  1  2  1  0
  2  3  1  0
  3  4  1  0
  4  5  1  0
  5  6  1  0
  6  7  1  0
  6  8  1  0
  8  9  1  0
  5  2  1  0
  9  6  1  0
  1 10  1  0
  1 11  1  0
  1 12  1  0
  2 13  1  0
  3 14  1  0
  3 15  1  0
  5 16  1  0
  7 17  1  0
  7 18  1  0
  7 19  1  0
  8 20  1  0
  8 21  1  0
M  END
