
     RDKit          3D

 23 24  0  0  0  0  0  0  0  0999 V2000
    2.1010    1.0976    0.2054 C   0  0  0  0  0  0  0  0  0  0  0  0
    1.1174    0.0068    0.4121 C   0  0  0  0  0  0  0  0  0  0  0  0
    0.8862   -0.8168   -0.8585 C   0  0  0  0  0  0  0  0  0  0  0  0
   -0.2951   -1.6675   -0.4007 C   0  0  0  0  0  0  0  0  0  0  0  0
   -1.1478   -0.6504    0.3008 C   0  0  0  0  0  0  0  0  0  0  0  0
   -1.9515   -1.1977    1.2764 O   0  0  0  0  0  0  0  0  0  0  0  0
   -1.7986    0.2830   -0.6701 C   0  0  0  0  0  0  0  0  0  0  0  0
   -0.9471    1.4074   -0.1131 C   0  0  0  0  0  0  0  0  0  0  0  0
   -0.2521    0.4438    0.7940 C   0  0  0  0  0  0  0  0  0  0  0  0
    2.7994    0.8141   -0.6301 H   0  0  0  0  0  0  0  0  0  0  0  0
    2.7556    1.1643    1.1068 H   0  0  0  0  0  0  0  0  0  0  0  0
    1.6561    2.0565   -0.0862 H   0  0  0  0  0  0  0  0  0  0  0  0
    1.4875   -0.7009    1.1667 H   0  0  0  0  0  0  0  0  0  0  0  0
    1.7964   -1.4166   -1.0176 H   0  0  0  0  0  0  0  0  0  0  0  0
    0.5931   -0.1914   -1.7096 H   0  0  0  0  0  0  0  0  0  0  0  0
    0.1035   -2.4255    0.2997 H   0  0  0  0  0  0  0  0  0  0  0  0
   -0.8267   -2.0827   -1.2644 H   0  0  0  0  0  0  0  0  0  0  0  0
   -1.3655   -1.3565    2.0748 H   0  0  0  0  0  0  0  0  0  0  0  0
   -1.5128    0.1235   -1.7380 H   0  0  0  0  0  0  0  0  0  0  0  0
   -2.8888    0.4206   -0.5713 H   0  0  0  0  0  0  0  0  0  0  0  0
   -0.2553    1.8801   -0.8184 H   0  0  0  0  0  0  0  0  0  0  0  0
   -1.6179    2.1495    0.3754 H   0  0  0  0  0  0  0  0  0  0  0  0
   -0.4369    0.6588    1.8658 H   0  0  0  0  0  0  0  0  0  0  0  0
  1  2  1  0
  2  3  1  0
  3  4  1  0
  4  5  1  0
  5  6  1  0
  5  7  1  0
  7  8  1  0
  8  9  1  0
  9  2  1  0
  9  5  1  0
  1 10  1  0
  1 11  1  0
  1 12  1  0
  2 13  1  0
  3 14  1  0
  3 15  1  0
  4 16  1  0
  4 17  1  0
  6 18  1  0
  7 19  1  0
  7 20  1  0
  8 21  1  0
  8 22  1  0
  9 23  1  0
M  END
