
     RDKit          3D

 17 17  0  0  0  0  0  0  0  0999 V2000
   -0.7114   -1.5930    0.0660 C   0  0  0  0  0  0  0  0  0  0  0  0
   -0.5527   -0.2105   -0.5066 C   0  0  0  0  0  0  0  0  0  0  0  0
   -0.9227    0.8306    0.5409 C   0  0  0  0  0  0  0  0  0  0  0  0
   -0.2186    2.0192    0.0048 C   0  0  0  0  0  0  0  0  0  0  0  0
   -0.5352    3.2139    0.2134 O   0  0  0  0  0  0  0  0  0  0  0  0
    0.8449    1.5843   -0.7632 O   0  0  0  0  0  0  0  0  0  0  0  0
    0.8742    0.1483   -0.7797 C   0  0  0  0  0  0  0  0  0  0  0  0
    1.8112   -0.2866    0.2765 C   0  0  0  0  0  0  0  0  0  0  0  0
    1.9933   -1.4741    0.4436 O   0  0  0  0  0  0  0  0  0  0  0  0
   -0.2527   -1.7113    1.0662 H   0  0  0  0  0  0  0  0  0  0  0  0
   -0.3938   -2.3396   -0.6654 H   0  0  0  0  0  0  0  0  0  0  0  0
   -1.8157   -1.7407    0.2275 H   0  0  0  0  0  0  0  0  0  0  0  0
   -1.1519   -0.1386   -1.4129 H   0  0  0  0  0  0  0  0  0  0  0  0
   -0.5380    0.5225    1.5208 H   0  0  0  0  0  0  0  0  0  0  0  0
   -2.0106    0.9694    0.6224 H   0  0  0  0  0  0  0  0  0  0  0  0
    1.2336   -0.1981   -1.7662 H   0  0  0  0  0  0  0  0  0  0  0  0
    2.3460    0.4045    0.9119 H   0  0  0  0  0  0  0  0  0  0  0  0
  1  2  1  0
  2  3  1  0
  3  4  1  0
  4  5  2  0
  4  6  1  0
  6  7  1  0
  7  8  1  0
  8  9  2  0
  7  2  1  0
  1 10  1  0
  1 11  1  0
  1 12  1  0
  2 13  1  0
  3 14  1  0
  3 15  1  0
  7 16  1  0
  8 17  1  0
M  END
