
     RDKit          3D

 19 20  0  0  0  0  0  0  0  0999 V2000
   -2.2200   -0.8898    0.1209 C   0  0  0  0  0  0  0  0  0  0  0  0
   -0.9751   -0.1480    0.5253 C   0  0  0  0  0  0  0  0  0  0  0  0
    0.2283   -0.9985    0.5122 C   0  0  0  0  0  0  0  0  0  0  0  0
    1.2185   -0.4226   -0.1505 C   0  0  0  0  0  0  0  0  0  0  0  0
    2.5244   -1.0550   -0.3131 C   0  0  0  0  0  0  0  0  0  0  0  0
    2.8098   -2.1835    0.1574 O   0  0  0  0  0  0  0  0  0  0  0  0
    0.8262    0.8879   -0.6742 C   0  0  0  0  0  0  0  0  0  0  0  0
    0.3399    1.9728    0.2147 C   0  0  0  0  0  0  0  0  0  0  0  0
   -0.6201    0.9801   -0.3855 C   0  0  0  0  0  0  0  0  0  0  0  0
   -1.9188   -1.7885   -0.4784 H   0  0  0  0  0  0  0  0  0  0  0  0
   -2.8531   -0.2348   -0.4977 H   0  0  0  0  0  0  0  0  0  0  0  0
   -2.7273   -1.2125    1.0564 H   0  0  0  0  0  0  0  0  0  0  0  0
   -1.0920    0.2608    1.5498 H   0  0  0  0  0  0  0  0  0  0  0  0
    0.2611   -1.9761    0.9996 H   0  0  0  0  0  0  0  0  0  0  0  0
    3.3345   -0.5624   -0.8663 H   0  0  0  0  0  0  0  0  0  0  0  0
    1.2623    1.1835   -1.6374 H   0  0  0  0  0  0  0  0  0  0  0  0
    0.5833    1.9346    1.2899 H   0  0  0  0  0  0  0  0  0  0  0  0
    0.2950    2.9749   -0.2095 H   0  0  0  0  0  0  0  0  0  0  0  0
   -1.2770    1.2773   -1.2137 H   0  0  0  0  0  0  0  0  0  0  0  0
  1  2  1  0
  2  3  1  0
  3  4  2  0
  4  5  1  0
  5  6  2  0
  4  7  1  0
  7  8  1  0
  8  9  1  0
  9  2  1  0
  9  7  1  0
  1 10  1  0
  1 11  1  0
  1 12  1  0
  2 13  1  0
  3 14  1  0
  5 15  1  0
  7 16  1  0
  8 17  1  0
  8 18  1  0
  9 19  1  0
M  END
