
     RDKit          3D

 23 24  0  0  0  0  0  0  0  0999 V2000
    2.2722   -0.9240    0.4195 C   0  0  0  0  0  0  0  0  0  0  0  0
    0.9374   -0.2671    0.4840 C   0  0  0  0  0  0  0  0  0  0  0  0
    1.0374    1.2640    0.4478 C   0  0  0  0  0  0  0  0  0  0  0  0
    0.1006    1.5358   -0.7089 C   0  0  0  0  0  0  0  0  0  0  0  0
   -1.3009    1.1641   -0.2568 C   0  0  0  0  0  0  0  0  0  0  0  0
   -1.3281   -0.3186   -0.6019 C   0  0  0  0  0  0  0  0  0  0  0  0
   -2.0200   -1.1460    0.4143 C   0  0  0  0  0  0  0  0  0  0  0  0
    0.1351   -0.5953   -0.7553 C   0  0  0  0  0  0  0  0  0  0  0  0
    0.4956    0.4971   -1.5868 O   0  0  0  0  0  0  0  0  0  0  0  0
    2.5225   -1.0959   -0.6475 H   0  0  0  0  0  0  0  0  0  0  0  0
    2.1751   -1.9422    0.8723 H   0  0  0  0  0  0  0  0  0  0  0  0
    3.0847   -0.3618    0.9023 H   0  0  0  0  0  0  0  0  0  0  0  0
    0.4495   -0.5281    1.4168 H   0  0  0  0  0  0  0  0  0  0  0  0
    2.0885    1.5038    0.1807 H   0  0  0  0  0  0  0  0  0  0  0  0
    0.7060    1.7216    1.3795 H   0  0  0  0  0  0  0  0  0  0  0  0
    0.1862    2.5158   -1.1402 H   0  0  0  0  0  0  0  0  0  0  0  0
   -1.4054    1.2869    0.8513 H   0  0  0  0  0  0  0  0  0  0  0  0
   -2.0316    1.7275   -0.8337 H   0  0  0  0  0  0  0  0  0  0  0  0
   -1.7941   -0.4025   -1.6013 H   0  0  0  0  0  0  0  0  0  0  0  0
   -1.4492   -1.2679    1.3298 H   0  0  0  0  0  0  0  0  0  0  0  0
   -2.9909   -0.6876    0.6772 H   0  0  0  0  0  0  0  0  0  0  0  0
   -2.2536   -2.1330   -0.0348 H   0  0  0  0  0  0  0  0  0  0  0  0
    0.3830   -1.5465   -1.2083 H   0  0  0  0  0  0  0  0  0  0  0  0
  1  2  1  0
  2  3  1  0
  3  4  1  0
  4  5  1  0
  5  6  1  0
  6  7  1  0
  6  8  1  0
  8  9  1  0
  8  2  1  0
  9  4  1  0
  1 10  1  0
  1 11  1  0
  1 12  1  0
  2 13  1  0
  3 14  1  0
  3 15  1  0
  4 16  1  0
  5 17  1  0
  5 18  1  0
  6 19  1  0
  7 20  1  0
  7 21  1  0
  7 22  1  0
  8 23  1  0
M  END
