
     RDKit          3D

 19 20  0  0  0  0  0  0  0  0999 V2000
    2.3169   -0.2032    0.2112 C   0  0  0  0  0  0  0  0  0  0  0  0
    0.8329   -0.0127    0.4129 C   0  0  0  0  0  0  0  0  0  0  0  0
    0.3631    1.3220   -0.0347 C   0  0  0  0  0  0  0  0  0  0  0  0
    0.9720    2.3834    0.0326 O   0  0  0  0  0  0  0  0  0  0  0  0
   -1.0041    1.2256   -0.6060 C   0  0  0  0  0  0  0  0  0  0  0  0
   -1.2627   -0.2434   -0.7244 C   0  0  0  0  0  0  0  0  0  0  0  0
   -1.7197   -0.8002    0.6133 C   0  0  0  0  0  0  0  0  0  0  0  0
   -0.7939   -1.8197    0.4452 O   0  0  0  0  0  0  0  0  0  0  0  0
   -0.0033   -0.9715   -0.3646 C   0  0  0  0  0  0  0  0  0  0  0  0
    2.6417   -0.1094   -0.8273 H   0  0  0  0  0  0  0  0  0  0  0  0
    2.8351    0.5535    0.8368 H   0  0  0  0  0  0  0  0  0  0  0  0
    2.5887   -1.1872    0.6139 H   0  0  0  0  0  0  0  0  0  0  0  0
    0.6417   -0.0994    1.4982 H   0  0  0  0  0  0  0  0  0  0  0  0
   -1.7224    1.6661    0.1421 H   0  0  0  0  0  0  0  0  0  0  0  0
   -1.1189    1.7014   -1.5773 H   0  0  0  0  0  0  0  0  0  0  0  0
   -1.8322   -0.5982   -1.5780 H   0  0  0  0  0  0  0  0  0  0  0  0
   -2.7786   -1.0813    0.5689 H   0  0  0  0  0  0  0  0  0  0  0  0
   -1.4347   -0.1596    1.4785 H   0  0  0  0  0  0  0  0  0  0  0  0
    0.4786   -1.5665   -1.1415 H   0  0  0  0  0  0  0  0  0  0  0  0
  1  2  1  0
  2  3  1  0
  3  4  2  0
  3  5  1  0
  5  6  1  0
  6  7  1  0
  7  8  1  0
  8  9  1  0
  9  2  1  0
  9  6  1  0
  1 10  1  0
  1 11  1  0
  1 12  1  0
  2 13  1  0
  5 14  1  0
  5 15  1  0
  6 16  1  0
  7 17  1  0
  7 18  1  0
  9 19  1  0
M  END
