
     RDKit          3D

 21 22  0  0  0  0  0  0  0  0999 V2000
    2.6072    0.0614   -0.6287 C   0  0  0  0  0  0  0  0  0  0  0  0
    1.1227   -0.0510   -0.7894 C   0  0  0  0  0  0  0  0  0  0  0  0
    0.3515    0.6473    0.3288 C   0  0  0  0  0  0  0  0  0  0  0  0
   -0.9954    1.1442   -0.0935 C   0  0  0  0  0  0  0  0  0  0  0  0
   -0.8271    2.0520   -1.1643 O   0  0  0  0  0  0  0  0  0  0  0  0
   -1.7128   -0.0586   -0.6924 C   0  0  0  0  0  0  0  0  0  0  0  0
   -1.0590   -1.1987    0.0521 C   0  0  0  0  0  0  0  0  0  0  0  0
   -1.2995   -2.4307   -0.4951 O   0  0  0  0  0  0  0  0  0  0  0  0
    0.3772   -0.8352    0.1974 C   0  0  0  0  0  0  0  0  0  0  0  0
    2.8589    1.0181   -0.0813 H   0  0  0  0  0  0  0  0  0  0  0  0
    3.1285    0.1842   -1.6222 H   0  0  0  0  0  0  0  0  0  0  0  0
    3.0230   -0.7451   -0.0263 H   0  0  0  0  0  0  0  0  0  0  0  0
    0.7678    0.0875   -1.8264 H   0  0  0  0  0  0  0  0  0  0  0  0
    0.8861    1.0599    1.1814 H   0  0  0  0  0  0  0  0  0  0  0  0
   -1.5304    1.5975    0.7366 H   0  0  0  0  0  0  0  0  0  0  0  0
   -0.6562    2.9626   -0.8498 H   0  0  0  0  0  0  0  0  0  0  0  0
   -2.7844    0.0679   -0.4333 H   0  0  0  0  0  0  0  0  0  0  0  0
   -1.5315   -0.1596   -1.7760 H   0  0  0  0  0  0  0  0  0  0  0  0
   -1.5094   -1.1832    1.0878 H   0  0  0  0  0  0  0  0  0  0  0  0
   -2.1874   -2.7484   -0.1333 H   0  0  0  0  0  0  0  0  0  0  0  0
    0.9701   -1.4720    0.8770 H   0  0  0  0  0  0  0  0  0  0  0  0
  1  2  1  0
  2  3  1  0
  3  4  1  0
  4  5  1  0
  4  6  1  0
  6  7  1  0
  7  8  1  0
  7  9  1  0
  9  2  1  0
  9  3  1  0
  1 10  1  0
  1 11  1  0
  1 12  1  0
  2 13  1  0
  3 14  1  0
  4 15  1  0
  5 16  1  0
  6 17  1  0
  6 18  1  0
  7 19  1  0
  8 20  1  0
  9 21  1  0
M  END
