
     RDKit          3D

 21 23  0  0  0  0  0  0  0  0999 V2000
    2.3628   -0.0323    0.2675 C   0  0  0  0  0  0  0  0  0  0  0  0
    1.1173    0.1289   -0.5784 C   0  0  0  0  0  0  0  0  0  0  0  0
    0.3860    1.4071   -0.2588 C   0  0  0  0  0  0  0  0  0  0  0  0
   -0.8404    0.9961    0.5224 C   0  0  0  0  0  0  0  0  0  0  0  0
   -1.9314    0.5047   -0.4396 C   0  0  0  0  0  0  0  0  0  0  0  0
   -1.2814   -0.8390   -0.4009 C   0  0  0  0  0  0  0  0  0  0  0  0
   -2.0154   -1.9813   -0.5488 O   0  0  0  0  0  0  0  0  0  0  0  0
    0.1754   -0.9959   -0.1877 C   0  0  0  0  0  0  0  0  0  0  0  0
   -0.6333   -0.4483    0.8737 C   0  0  0  0  0  0  0  0  0  0  0  0
    2.7056    0.9092    0.7100 H   0  0  0  0  0  0  0  0  0  0  0  0
    3.1189   -0.5269   -0.3838 H   0  0  0  0  0  0  0  0  0  0  0  0
    2.1990   -0.7472    1.1159 H   0  0  0  0  0  0  0  0  0  0  0  0
    1.3194    0.0114   -1.6632 H   0  0  0  0  0  0  0  0  0  0  0  0
    0.0922    1.9660   -1.1804 H   0  0  0  0  0  0  0  0  0  0  0  0
    0.9942    2.1001    0.3640 H   0  0  0  0  0  0  0  0  0  0  0  0
   -1.1783    1.6663    1.3044 H   0  0  0  0  0  0  0  0  0  0  0  0
   -1.9808    1.0285   -1.3893 H   0  0  0  0  0  0  0  0  0  0  0  0
   -2.8895    0.4738    0.1454 H   0  0  0  0  0  0  0  0  0  0  0  0
   -1.4276   -2.7570   -0.6772 H   0  0  0  0  0  0  0  0  0  0  0  0
    0.5698   -2.0023   -0.1001 H   0  0  0  0  0  0  0  0  0  0  0  0
   -0.8624   -0.8619    1.8349 H   0  0  0  0  0  0  0  0  0  0  0  0
  1  2  1  0
  2  3  1  0
  3  4  1  0
  4  5  1  0
  5  6  1  0
  6  7  1  0
  6  8  1  0
  8  9  1  0
  8  2  1  0
  9  4  1  0
  9  6  1  0
  1 10  1  0
  1 11  1  0
  1 12  1  0
  2 13  1  0
  3 14  1  0
  3 15  1  0
  4 16  1  0
  5 17  1  0
  5 18  1  0
  7 19  1  0
  8 20  1  0
  9 21  1  0
M  END
