
     RDKit          3D

 23 24  0  0  0  0  0  0  0  0999 V2000
    2.5293   -0.4086    0.0728 C   0  0  0  0  0  0  0  0  0  0  0  0
    1.0218   -0.2771    0.3011 C   0  0  0  0  0  0  0  0  0  0  0  0
    0.6417    1.1699    0.2785 C   0  0  0  0  0  0  0  0  0  0  0  0
   -0.7083    1.2973    0.9694 C   0  0  0  0  0  0  0  0  0  0  0  0
   -1.7527    0.8764   -0.0423 C   0  0  0  0  0  0  0  0  0  0  0  0
   -2.0085   -0.6118    0.0632 C   0  0  0  0  0  0  0  0  0  0  0  0
   -1.0443   -0.7032   -1.0652 C   0  0  0  0  0  0  0  0  0  0  0  0
    0.3268   -1.1245   -0.6875 C   0  0  0  0  0  0  0  0  0  0  0  0
   -1.2047    0.6398   -1.3014 O   0  0  0  0  0  0  0  0  0  0  0  0
    2.7876   -1.3859   -0.3783 H   0  0  0  0  0  0  0  0  0  0  0  0
    3.0674   -0.3802    1.0550 H   0  0  0  0  0  0  0  0  0  0  0  0
    2.9058    0.4331   -0.5409 H   0  0  0  0  0  0  0  0  0  0  0  0
    0.8458   -0.6472    1.3417 H   0  0  0  0  0  0  0  0  0  0  0  0
    0.5038    1.4495   -0.8073 H   0  0  0  0  0  0  0  0  0  0  0  0
    1.3953    1.8466    0.6747 H   0  0  0  0  0  0  0  0  0  0  0  0
   -0.8940    2.3224    1.3421 H   0  0  0  0  0  0  0  0  0  0  0  0
   -0.7367    0.5977    1.8501 H   0  0  0  0  0  0  0  0  0  0  0  0
   -2.6857    1.4613   -0.0296 H   0  0  0  0  0  0  0  0  0  0  0  0
   -3.0471   -0.8499   -0.2927 H   0  0  0  0  0  0  0  0  0  0  0  0
   -1.7369   -1.0620    1.0204 H   0  0  0  0  0  0  0  0  0  0  0  0
   -1.4207   -1.2927   -1.9236 H   0  0  0  0  0  0  0  0  0  0  0  0
    0.9426   -1.1829   -1.6084 H   0  0  0  0  0  0  0  0  0  0  0  0
    0.2717   -2.1679   -0.2916 H   0  0  0  0  0  0  0  0  0  0  0  0
  1  2  1  0
  2  3  1  0
  3  4  1  0
  4  5  1  0
  5  6  1  0
  6  7  1  0
  7  8  1  0
  7  9  1  0
  8  2  1  0
  9  5  1  0
  1 10  1  0
  1 11  1  0
  1 12  1  0
  2 13  1  0
  3 14  1  0
  3 15  1  0
  4 16  1  0
  4 17  1  0
  5 18  1  0
  6 19  1  0
  6 20  1  0
  7 21  1  0
  8 22  1  0
  8 23  1  0
M  END
