
     RDKit          3D

 23 23  0  0  0  0  0  0  0  0999 V2000
    0.0859    2.0762   -0.1451 C   0  0  0  0  0  0  0  0  0  0  0  0
   -0.1809    0.6944   -0.6390 C   0  0  0  0  0  0  0  0  0  0  0  0
   -1.1289   -0.0716    0.2468 C   0  0  0  0  0  0  0  0  0  0  0  0
   -2.2816   -0.6749   -0.4977 C   0  0  0  0  0  0  0  0  0  0  0  0
   -3.0955   -1.3582    0.4041 O   0  0  0  0  0  0  0  0  0  0  0  0
   -0.0330   -1.0855    0.4923 C   0  0  0  0  0  0  0  0  0  0  0  0
    0.8855   -0.3253   -0.4403 C   0  0  0  0  0  0  0  0  0  0  0  0
    2.1226    0.1108    0.2850 C   0  0  0  0  0  0  0  0  0  0  0  0
    2.9749   -1.0104    0.3505 O   0  0  0  0  0  0  0  0  0  0  0  0
    0.1804    2.0639    0.9608 H   0  0  0  0  0  0  0  0  0  0  0  0
    0.9552    2.5630   -0.6034 H   0  0  0  0  0  0  0  0  0  0  0  0
   -0.8035    2.7001   -0.3865 H   0  0  0  0  0  0  0  0  0  0  0  0
   -0.5420    0.7220   -1.7079 H   0  0  0  0  0  0  0  0  0  0  0  0
   -1.4313    0.5016    1.1431 H   0  0  0  0  0  0  0  0  0  0  0  0
   -1.8740   -1.3748   -1.2495 H   0  0  0  0  0  0  0  0  0  0  0  0
   -2.9197    0.0831   -1.0125 H   0  0  0  0  0  0  0  0  0  0  0  0
   -2.5893   -2.1166    0.7796 H   0  0  0  0  0  0  0  0  0  0  0  0
    0.2809   -1.0439    1.5698 H   0  0  0  0  0  0  0  0  0  0  0  0
   -0.2275   -2.1041    0.1583 H   0  0  0  0  0  0  0  0  0  0  0  0
    1.1608   -0.9327   -1.3254 H   0  0  0  0  0  0  0  0  0  0  0  0
    1.8959    0.4333    1.3352 H   0  0  0  0  0  0  0  0  0  0  0  0
    2.6693    0.9280   -0.2646 H   0  0  0  0  0  0  0  0  0  0  0  0
    3.8957   -0.7783    0.5465 H   0  0  0  0  0  0  0  0  0  0  0  0
  1  2  1  0
  2  3  1  0
  3  4  1  0
  4  5  1  0
  3  6  1  0
  6  7  1  0
  7  8  1  0
  8  9  1  0
  7  2  1  0
  1 10  1  0
  1 11  1  0
  1 12  1  0
  2 13  1  0
  3 14  1  0
  4 15  1  0
  4 16  1  0
  5 17  1  0
  6 18  1  0
  6 19  1  0
  7 20  1  0
  8 21  1  0
  8 22  1  0
  9 23  1  0
M  END
