
     RDKit          3D

 25 26  0  0  0  0  0  0  0  0999 V2000
    2.2631   -0.9417    0.2624 C   0  0  0  0  0  0  0  0  0  0  0  0
    0.9788   -0.4057    0.8230 C   0  0  0  0  0  0  0  0  0  0  0  0
   -0.2011   -1.3338    0.7716 C   0  0  0  0  0  0  0  0  0  0  0  0
   -0.9453   -0.2819   -0.0115 C   0  0  0  0  0  0  0  0  0  0  0  0
   -1.6206   -0.7165   -1.2419 C   0  0  0  0  0  0  0  0  0  0  0  0
   -1.7241    0.7112    0.8138 C   0  0  0  0  0  0  0  0  0  0  0  0
   -0.4925    1.5817    0.8464 C   0  0  0  0  0  0  0  0  0  0  0  0
    0.2299    0.5706   -0.0277 C   0  0  0  0  0  0  0  0  0  0  0  0
    0.8470    1.0676   -1.2540 C   0  0  0  0  0  0  0  0  0  0  0  0
    2.2127   -1.2472   -0.7849 H   0  0  0  0  0  0  0  0  0  0  0  0
    3.0316   -0.1463    0.3847 H   0  0  0  0  0  0  0  0  0  0  0  0
    2.5574   -1.8122    0.9087 H   0  0  0  0  0  0  0  0  0  0  0  0
    1.1415   -0.0717    1.8729 H   0  0  0  0  0  0  0  0  0  0  0  0
   -0.6463   -1.6272    1.7315 H   0  0  0  0  0  0  0  0  0  0  0  0
   -0.0118   -2.2141    0.1072 H   0  0  0  0  0  0  0  0  0  0  0  0
   -1.3786   -1.7913   -1.4283 H   0  0  0  0  0  0  0  0  0  0  0  0
   -2.7361   -0.6626   -1.0706 H   0  0  0  0  0  0  0  0  0  0  0  0
   -1.4275   -0.1462   -2.1483 H   0  0  0  0  0  0  0  0  0  0  0  0
   -2.5118    1.1835    0.1830 H   0  0  0  0  0  0  0  0  0  0  0  0
   -2.0723    0.3201    1.7792 H   0  0  0  0  0  0  0  0  0  0  0  0
   -0.5957    2.5716    0.3774 H   0  0  0  0  0  0  0  0  0  0  0  0
   -0.1014    1.6176    1.8883 H   0  0  0  0  0  0  0  0  0  0  0  0
    0.2983    0.9414   -2.1896 H   0  0  0  0  0  0  0  0  0  0  0  0
    1.0245    2.1782   -1.1491 H   0  0  0  0  0  0  0  0  0  0  0  0
    1.8801    0.6549   -1.4441 H   0  0  0  0  0  0  0  0  0  0  0  0
  1  2  1  0
  2  3  1  0
  3  4  1  0
  4  5  1  0
  4  6  1  0
  6  7  1  0
  7  8  1  0
  8  9  1  0
  8  2  1  0
  8  4  1  0
  1 10  1  0
  1 11  1  0
  1 12  1  0
  2 13  1  0
  3 14  1  0
  3 15  1  0
  5 16  1  0
  5 17  1  0
  5 18  1  0
  6 19  1  0
  6 20  1  0
  7 21  1  0
  7 22  1  0
  9 23  1  0
  9 24  1  0
  9 25  1  0
M  END
