
     RDKit          3D

 17 17  0  0  0  0  0  0  0  0999 V2000
    1.9039   -0.8627    0.1281 C   0  0  0  0  0  0  0  0  0  0  0  0
    0.8647    0.1082   -0.4026 C   0  0  0  0  0  0  0  0  0  0  0  0
    0.4243    1.0611    0.6319 C   0  0  0  0  0  0  0  0  0  0  0  0
   -0.8898    1.2229    0.6707 C   0  0  0  0  0  0  0  0  0  0  0  0
   -1.5270    0.3668   -0.3726 C   0  0  0  0  0  0  0  0  0  0  0  0
   -2.5486   -0.4053    0.1484 O   0  0  0  0  0  0  0  0  0  0  0  0
   -0.4052   -0.5905   -0.7905 C   0  0  0  0  0  0  0  0  0  0  0  0
    1.5871   -1.2349    1.1322 H   0  0  0  0  0  0  0  0  0  0  0  0
    2.0418   -1.6774   -0.6035 H   0  0  0  0  0  0  0  0  0  0  0  0
    2.8538   -0.3395    0.2400 H   0  0  0  0  0  0  0  0  0  0  0  0
    1.2944    0.6508   -1.2600 H   0  0  0  0  0  0  0  0  0  0  0  0
    1.1115    1.5956    1.3153 H   0  0  0  0  0  0  0  0  0  0  0  0
   -1.4072    1.8919    1.3744 H   0  0  0  0  0  0  0  0  0  0  0  0
   -1.8278    1.0049   -1.2176 H   0  0  0  0  0  0  0  0  0  0  0  0
   -2.4856   -0.5001    1.1504 H   0  0  0  0  0  0  0  0  0  0  0  0
   -0.4858   -1.5626   -0.2616 H   0  0  0  0  0  0  0  0  0  0  0  0
   -0.5045   -0.7294   -1.8829 H   0  0  0  0  0  0  0  0  0  0  0  0
  1  2  1  0
  2  3  1  0
  3  4  2  0
  4  5  1  0
  5  6  1  0
  5  7  1  0
  7  2  1  0
  1  8  1  0
  1  9  1  0
  1 10  1  0
  2 11  1  0
  3 12  1  0
  4 13  1  0
  5 14  1  0
  6 15  1  0
  7 16  1  0
  7 17  1  0
M  END
