
     RDKit          3D

 23 25  0  0  0  0  0  0  0  0999 V2000
    2.4961   -0.5386   -0.3990 C   0  0  0  0  0  0  0  0  0  0  0  0
    1.0134   -0.4959   -0.7574 C   0  0  0  0  0  0  0  0  0  0  0  0
    0.3638    0.8037   -0.4962 C   0  0  0  0  0  0  0  0  0  0  0  0
   -1.0423    1.1096   -0.9066 C   0  0  0  0  0  0  0  0  0  0  0  0
   -1.7790    0.9534    0.4331 C   0  0  0  0  0  0  0  0  0  0  0  0
   -1.3938   -0.5221    0.2303 C   0  0  0  0  0  0  0  0  0  0  0  0
   -1.6864   -0.2182   -1.2385 C   0  0  0  0  0  0  0  0  0  0  0  0
    0.0805   -0.4789    0.3679 C   0  0  0  0  0  0  0  0  0  0  0  0
    0.6488   -0.4750    1.7568 C   0  0  0  0  0  0  0  0  0  0  0  0
    2.8165   -1.5427   -0.0954 H   0  0  0  0  0  0  0  0  0  0  0  0
    2.7640    0.2657    0.3005 H   0  0  0  0  0  0  0  0  0  0  0  0
    3.0428   -0.3082   -1.3554 H   0  0  0  0  0  0  0  0  0  0  0  0
    0.8142   -1.0492   -1.7098 H   0  0  0  0  0  0  0  0  0  0  0  0
    0.8772    1.6013    0.0610 H   0  0  0  0  0  0  0  0  0  0  0  0
   -1.2693    1.9626   -1.4930 H   0  0  0  0  0  0  0  0  0  0  0  0
   -1.3008    1.4416    1.2758 H   0  0  0  0  0  0  0  0  0  0  0  0
   -2.8517    1.1611    0.2528 H   0  0  0  0  0  0  0  0  0  0  0  0
   -1.9891   -1.2515    0.7193 H   0  0  0  0  0  0  0  0  0  0  0  0
   -2.7872   -0.0503   -1.3907 H   0  0  0  0  0  0  0  0  0  0  0  0
   -1.1972   -0.8455   -1.9663 H   0  0  0  0  0  0  0  0  0  0  0  0
    1.4759    0.2596    1.8865 H   0  0  0  0  0  0  0  0  0  0  0  0
   -0.1075   -0.2625    2.5392 H   0  0  0  0  0  0  0  0  0  0  0  0
    1.0111   -1.5198    1.9850 H   0  0  0  0  0  0  0  0  0  0  0  0
  1  2  1  0
  2  3  1  0
  3  4  1  0
  4  5  1  0
  5  6  1  0
  6  7  1  0
  6  8  1  0
  8  9  1  0
  8  2  1  0
  8  3  1  0
  7  4  1  0
  1 10  1  0
  1 11  1  0
  1 12  1  0
  2 13  1  0
  3 14  1  0
  4 15  1  0
  5 16  1  0
  5 17  1  0
  6 18  1  0
  7 19  1  0
  7 20  1  0
  9 21  1  0
  9 22  1  0
  9 23  1  0
M  END
