
     RDKit          3D

 21 22  0  0  0  0  0  0  0  0999 V2000
   -0.2178    1.9777    0.1340 C   0  0  0  0  0  0  0  0  0  0  0  0
   -0.1902    0.5381   -0.2344 C   0  0  0  0  0  0  0  0  0  0  0  0
    0.8504   -0.2710    0.4581 C   0  0  0  0  0  0  0  0  0  0  0  0
    2.2474    0.0851    0.1884 C   0  0  0  0  0  0  0  0  0  0  0  0
    0.4569   -1.6712    0.0588 C   0  0  0  0  0  0  0  0  0  0  0  0
   -0.3011   -1.8360   -1.1095 O   0  0  0  0  0  0  0  0  0  0  0  0
   -1.0342   -1.6212    0.0746 C   0  0  0  0  0  0  0  0  0  0  0  0
   -1.4495   -0.1865    0.2622 C   0  0  0  0  0  0  0  0  0  0  0  0
   -2.5055    0.2007   -0.5187 O   0  0  0  0  0  0  0  0  0  0  0  0
    0.7689    2.4262   -0.0182 H   0  0  0  0  0  0  0  0  0  0  0  0
   -0.9847    2.4818   -0.4842 H   0  0  0  0  0  0  0  0  0  0  0  0
   -0.5046    2.1649    1.1925 H   0  0  0  0  0  0  0  0  0  0  0  0
   -0.1912    0.4310   -1.3273 H   0  0  0  0  0  0  0  0  0  0  0  0
    0.6539   -0.1959    1.5614 H   0  0  0  0  0  0  0  0  0  0  0  0
    2.6862   -0.2729   -0.7429 H   0  0  0  0  0  0  0  0  0  0  0  0
    2.3689    1.1826    0.2278 H   0  0  0  0  0  0  0  0  0  0  0  0
    2.8873   -0.3097    1.0314 H   0  0  0  0  0  0  0  0  0  0  0  0
    1.0225   -2.5383    0.3873 H   0  0  0  0  0  0  0  0  0  0  0  0
   -1.6445   -2.4424    0.4637 H   0  0  0  0  0  0  0  0  0  0  0  0
   -1.5862    0.0538    1.3521 H   0  0  0  0  0  0  0  0  0  0  0  0
   -3.3330   -0.1966   -0.1490 H   0  0  0  0  0  0  0  0  0  0  0  0
  1  2  1  0
  2  3  1  0
  3  4  1  0
  3  5  1  0
  5  6  1  0
  6  7  1  0
  7  8  1  0
  8  9  1  0
  8  2  1  0
  7  5  1  0
  1 10  1  0
  1 11  1  0
  1 12  1  0
  2 13  1  0
  3 14  1  0
  4 15  1  0
  4 16  1  0
  4 17  1  0
  5 18  1  0
  7 19  1  0
  8 20  1  0
  9 21  1  0
M  END
