
     RDKit          3D

 23 25  0  0  0  0  0  0  0  0999 V2000
    2.3644   -0.3747   -0.6892 C   0  0  0  0  0  0  0  0  0  0  0  0
    0.8722   -0.2058   -0.6130 C   0  0  0  0  0  0  0  0  0  0  0  0
    0.5489    1.0576    0.1862 C   0  0  0  0  0  0  0  0  0  0  0  0
   -0.8589    1.4570   -0.0869 C   0  0  0  0  0  0  0  0  0  0  0  0
   -1.8267    0.3702    0.2121 C   0  0  0  0  0  0  0  0  0  0  0  0
   -2.0313   -0.7678   -0.7379 C   0  0  0  0  0  0  0  0  0  0  0  0
   -1.2443   -0.9626    0.4737 C   0  0  0  0  0  0  0  0  0  0  0  0
    0.2494   -0.9805    0.5110 C   0  0  0  0  0  0  0  0  0  0  0  0
    0.6712    0.1717    1.4344 C   0  0  0  0  0  0  0  0  0  0  0  0
    2.7251   -0.4065   -1.7587 H   0  0  0  0  0  0  0  0  0  0  0  0
    2.9216    0.4876   -0.2416 H   0  0  0  0  0  0  0  0  0  0  0  0
    2.7193   -1.2712   -0.1677 H   0  0  0  0  0  0  0  0  0  0  0  0
    0.3719   -0.2953   -1.5716 H   0  0  0  0  0  0  0  0  0  0  0  0
    1.3055    1.8364    0.1608 H   0  0  0  0  0  0  0  0  0  0  0  0
   -1.0786    2.3766    0.4795 H   0  0  0  0  0  0  0  0  0  0  0  0
   -0.9222    1.7264   -1.1797 H   0  0  0  0  0  0  0  0  0  0  0  0
   -2.7275    0.7016    0.7906 H   0  0  0  0  0  0  0  0  0  0  0  0
   -3.0620   -1.2308   -0.7378 H   0  0  0  0  0  0  0  0  0  0  0  0
   -1.6143   -0.7214   -1.7546 H   0  0  0  0  0  0  0  0  0  0  0  0
   -1.7127   -1.5141    1.3316 H   0  0  0  0  0  0  0  0  0  0  0  0
    0.6821   -1.9471    0.7531 H   0  0  0  0  0  0  0  0  0  0  0  0
    1.7143    0.0624    1.7438 H   0  0  0  0  0  0  0  0  0  0  0  0
   -0.0673    0.4304    2.1978 H   0  0  0  0  0  0  0  0  0  0  0  0
  1  2  1  0
  2  3  1  0
  3  4  1  0
  4  5  1  0
  5  6  1  0
  6  7  1  0
  7  8  1  0
  8  9  1  0
  8  2  1  0
  9  3  1  0
  7  5  1  0
  1 10  1  0
  1 11  1  0
  1 12  1  0
  2 13  1  0
  3 14  1  0
  4 15  1  0
  4 16  1  0
  5 17  1  0
  6 18  1  0
  6 19  1  0
  7 20  1  0
  8 21  1  0
  9 22  1  0
  9 23  1  0
M  END
