
     RDKit          3D

 19 19  0  0  0  0  0  0  0  0999 V2000
    2.5598    0.5135   -0.0441 C   0  0  0  0  0  0  0  0  0  0  0  0
    1.3574   -0.3232    0.2730 C   0  0  0  0  0  0  0  0  0  0  0  0
    0.7291    0.0897    1.5456 C   0  0  0  0  0  0  0  0  0  0  0  0
   -0.5685   -0.0661    1.4411 C   0  0  0  0  0  0  0  0  0  0  0  0
   -0.9525   -0.5936    0.1034 C   0  0  0  0  0  0  0  0  0  0  0  0
   -2.2117    0.0567   -0.3979 C   0  0  0  0  0  0  0  0  0  0  0  0
   -2.5395   -0.4637   -1.6536 O   0  0  0  0  0  0  0  0  0  0  0  0
    0.2552   -0.1588   -0.6948 C   0  0  0  0  0  0  0  0  0  0  0  0
    0.2518    0.2205   -1.8429 O   0  0  0  0  0  0  0  0  0  0  0  0
    2.3430    1.5580    0.1723 H   0  0  0  0  0  0  0  0  0  0  0  0
    2.9310    0.3098   -1.0548 H   0  0  0  0  0  0  0  0  0  0  0  0
    3.3664    0.1982    0.6720 H   0  0  0  0  0  0  0  0  0  0  0  0
    1.5802   -1.4033    0.3471 H   0  0  0  0  0  0  0  0  0  0  0  0
    1.2198    0.4703    2.4569 H   0  0  0  0  0  0  0  0  0  0  0  0
   -1.2918    0.1518    2.2099 H   0  0  0  0  0  0  0  0  0  0  0  0
   -0.9818   -1.6796    0.0554 H   0  0  0  0  0  0  0  0  0  0  0  0
   -2.1648    1.1419   -0.4328 H   0  0  0  0  0  0  0  0  0  0  0  0
   -3.0254   -0.2614    0.2861 H   0  0  0  0  0  0  0  0  0  0  0  0
   -2.8580    0.2391   -2.2581 H   0  0  0  0  0  0  0  0  0  0  0  0
  1  2  1  0
  2  3  1  0
  3  4  2  0
  4  5  1  0
  5  6  1  0
  6  7  1  0
  5  8  1  0
  8  9  2  0
  8  2  1  0
  1 10  1  0
  1 11  1  0
  1 12  1  0
  2 13  1  0
  3 14  1  0
  4 15  1  0
  5 16  1  0
  6 17  1  0
  6 18  1  0
  7 19  1  0
M  END
