
     RDKit          3D

 21 21  0  0  0  0  0  0  0  0999 V2000
    1.6136   -0.4670   -0.6371 C   0  0  0  0  0  0  0  0  0  0  0  0
    0.7116   -0.4063    0.5569 C   0  0  0  0  0  0  0  0  0  0  0  0
    1.0272    0.8814    1.2998 C   0  0  0  0  0  0  0  0  0  0  0  0
    0.4108    2.0001    0.7553 O   0  0  0  0  0  0  0  0  0  0  0  0
   -0.6337    2.0085   -0.1366 C   0  0  0  0  0  0  0  0  0  0  0  0
   -1.2974    3.0478   -0.4006 O   0  0  0  0  0  0  0  0  0  0  0  0
   -0.9935    0.7329   -0.8181 C   0  0  0  0  0  0  0  0  0  0  0  0
   -0.7510   -0.3671    0.2056 C   0  0  0  0  0  0  0  0  0  0  0  0
   -1.3121   -1.6822   -0.2140 C   0  0  0  0  0  0  0  0  0  0  0  0
    2.4146   -1.2284   -0.4288 H   0  0  0  0  0  0  0  0  0  0  0  0
    1.1202   -0.7697   -1.5680 H   0  0  0  0  0  0  0  0  0  0  0  0
    2.1395    0.5064   -0.8341 H   0  0  0  0  0  0  0  0  0  0  0  0
    0.8991   -1.2563    1.2435 H   0  0  0  0  0  0  0  0  0  0  0  0
    0.7486    0.7486    2.3707 H   0  0  0  0  0  0  0  0  0  0  0  0
    2.1286    1.0596    1.2990 H   0  0  0  0  0  0  0  0  0  0  0  0
   -0.4241    0.5713   -1.7411 H   0  0  0  0  0  0  0  0  0  0  0  0
   -2.0835    0.6878   -1.0632 H   0  0  0  0  0  0  0  0  0  0  0  0
   -1.2933   -0.0457    1.1262 H   0  0  0  0  0  0  0  0  0  0  0  0
   -1.2683   -1.7887   -1.3257 H   0  0  0  0  0  0  0  0  0  0  0  0
   -2.4087   -1.7216    0.0492 H   0  0  0  0  0  0  0  0  0  0  0  0
   -0.7481   -2.5112    0.2610 H   0  0  0  0  0  0  0  0  0  0  0  0
  1  2  1  0
  2  3  1  0
  3  4  1  0
  4  5  1  0
  5  6  2  0
  5  7  1  0
  7  8  1  0
  8  9  1  0
  8  2  1  0
  1 10  1  0
  1 11  1  0
  1 12  1  0
  2 13  1  0
  3 14  1  0
  3 15  1  0
  7 16  1  0
  7 17  1  0
  8 18  1  0
  9 19  1  0
  9 20  1  0
  9 21  1  0
M  END
