
     RDKit          3D

 19 19  0  0  0  0  0  0  0  0999 V2000
    1.6390    1.1801    0.1180 C   0  0  0  0  0  0  0  0  0  0  0  0
    0.4302    0.3987    0.5180 C   0  0  0  0  0  0  0  0  0  0  0  0
   -0.7441    0.6024   -0.3983 C   0  0  0  0  0  0  0  0  0  0  0  0
   -1.3288    1.8382   -0.2971 O   0  0  0  0  0  0  0  0  0  0  0  0
   -1.6714   -0.5095    0.1181 C   0  0  0  0  0  0  0  0  0  0  0  0
   -0.7391   -1.6200    0.4411 C   0  0  0  0  0  0  0  0  0  0  0  0
   -1.0769   -2.7478    0.7317 O   0  0  0  0  0  0  0  0  0  0  0  0
    0.6423   -1.1116    0.3460 C   0  0  0  0  0  0  0  0  0  0  0  0
    1.2203   -1.2956   -0.8944 O   0  0  0  0  0  0  0  0  0  0  0  0
    2.5539    0.5438    0.1463 H   0  0  0  0  0  0  0  0  0  0  0  0
    1.5232    1.6720   -0.8790 H   0  0  0  0  0  0  0  0  0  0  0  0
    1.8023    1.9725    0.8898 H   0  0  0  0  0  0  0  0  0  0  0  0
    0.0955    0.5856    1.5508 H   0  0  0  0  0  0  0  0  0  0  0  0
   -0.5194    0.3256   -1.4487 H   0  0  0  0  0  0  0  0  0  0  0  0
   -1.2584    2.3422   -1.1473 H   0  0  0  0  0  0  0  0  0  0  0  0
   -2.0551   -0.1231    1.0953 H   0  0  0  0  0  0  0  0  0  0  0  0
   -2.4475   -0.7660   -0.5966 H   0  0  0  0  0  0  0  0  0  0  0  0
    1.2794   -1.4282    1.1816 H   0  0  0  0  0  0  0  0  0  0  0  0
    0.6547   -1.8592   -1.4756 H   0  0  0  0  0  0  0  0  0  0  0  0
  1  2  1  0
  2  3  1  0
  3  4  1  0
  3  5  1  0
  5  6  1  0
  6  7  2  0
  6  8  1  0
  8  9  1  0
  8  2  1  0
  1 10  1  0
  1 11  1  0
  1 12  1  0
  2 13  1  0
  3 14  1  0
  4 15  1  0
  5 16  1  0
  5 17  1  0
  8 18  1  0
  9 19  1  0
M  END
