
     RDKit          3D

 19 19  0  0  0  0  0  0  0  0999 V2000
    1.1818    1.3779   -0.5607 C   0  0  0  0  0  0  0  0  0  0  0  0
    0.6093    0.3127    0.3025 C   0  0  0  0  0  0  0  0  0  0  0  0
    1.0083   -1.1197   -0.0781 C   0  0  0  0  0  0  0  0  0  0  0  0
    2.0374   -1.6444    0.6749 O   0  0  0  0  0  0  0  0  0  0  0  0
   -0.3612   -1.5118    0.3241 C   0  0  0  0  0  0  0  0  0  0  0  0
   -0.8830   -2.4951    0.7817 O   0  0  0  0  0  0  0  0  0  0  0  0
   -0.7974   -0.1587   -0.0873 C   0  0  0  0  0  0  0  0  0  0  0  0
   -1.8991    0.4590    0.7031 C   0  0  0  0  0  0  0  0  0  0  0  0
   -1.0105   -0.1342   -1.4664 O   0  0  0  0  0  0  0  0  0  0  0  0
    1.5382    2.2043    0.1205 H   0  0  0  0  0  0  0  0  0  0  0  0
    2.0834    0.9755   -1.0655 H   0  0  0  0  0  0  0  0  0  0  0  0
    0.4374    1.7803   -1.2681 H   0  0  0  0  0  0  0  0  0  0  0  0
    0.6600    0.4384    1.3894 H   0  0  0  0  0  0  0  0  0  0  0  0
    1.1777   -1.1343   -1.1857 H   0  0  0  0  0  0  0  0  0  0  0  0
    2.8656   -1.1317    0.4043 H   0  0  0  0  0  0  0  0  0  0  0  0
   -2.6053    0.9639   -0.0163 H   0  0  0  0  0  0  0  0  0  0  0  0
   -1.5352    1.3078    1.3539 H   0  0  0  0  0  0  0  0  0  0  0  0
   -2.5167   -0.2555    1.2664 H   0  0  0  0  0  0  0  0  0  0  0  0
   -1.9908   -0.2345   -1.5928 H   0  0  0  0  0  0  0  0  0  0  0  0
  1  2  1  0
  2  3  1  0
  3  4  1  0
  3  5  1  0
  5  6  2  0
  5  7  1  0
  7  8  1  0
  7  9  1  0
  7  2  1  0
  1 10  1  0
  1 11  1  0
  1 12  1  0
  2 13  1  0
  3 14  1  0
  4 15  1  0
  8 16  1  0
  8 17  1  0
  8 18  1  0
  9 19  1  0
M  END
