
     RDKit          3D

 19 20  0  0  0  0  0  0  0  0999 V2000
    1.8806    0.6731   -0.5820 C   0  0  0  0  0  0  0  0  0  0  0  0
    0.8578    0.0491    0.3170 C   0  0  0  0  0  0  0  0  0  0  0  0
    0.7305   -1.4312    0.2858 C   0  0  0  0  0  0  0  0  0  0  0  0
   -0.7924   -1.2396    0.2355 C   0  0  0  0  0  0  0  0  0  0  0  0
   -1.2849   -0.6251   -1.0088 C   0  0  0  0  0  0  0  0  0  0  0  0
   -0.5431    0.2634   -0.1186 C   0  0  0  0  0  0  0  0  0  0  0  0
   -1.3211    1.2738    0.6907 C   0  0  0  0  0  0  0  0  0  0  0  0
    1.8620    1.7810   -0.3624 H   0  0  0  0  0  0  0  0  0  0  0  0
    2.9034    0.3485   -0.3060 H   0  0  0  0  0  0  0  0  0  0  0  0
    1.6525    0.5835   -1.6517 H   0  0  0  0  0  0  0  0  0  0  0  0
    1.0432    0.3922    1.3743 H   0  0  0  0  0  0  0  0  0  0  0  0
    1.0881   -1.9860    1.1598 H   0  0  0  0  0  0  0  0  0  0  0  0
    1.0267   -1.9282   -0.6728 H   0  0  0  0  0  0  0  0  0  0  0  0
   -1.3791   -1.3771    1.1368 H   0  0  0  0  0  0  0  0  0  0  0  0
   -0.8542   -1.0483   -1.9500 H   0  0  0  0  0  0  0  0  0  0  0  0
   -2.3715   -0.4568   -1.0906 H   0  0  0  0  0  0  0  0  0  0  0  0
   -0.7914    1.5405    1.6265 H   0  0  0  0  0  0  0  0  0  0  0  0
   -2.3683    0.9725    0.8388 H   0  0  0  0  0  0  0  0  0  0  0  0
   -1.3389    2.2147    0.0777 H   0  0  0  0  0  0  0  0  0  0  0  0
  1  2  1  0
  2  3  1  0
  3  4  1  0
  4  5  1  0
  5  6  1  0
  6  7  1  0
  6  2  1  0
  6  4  1  0
  1  8  1  0
  1  9  1  0
  1 10  1  0
  2 11  1  0
  3 12  1  0
  3 13  1  0
  4 14  1  0
  5 15  1  0
  5 16  1  0
  7 17  1  0
  7 18  1  0
  7 19  1  0
M  END
