
     RDKit          3D

 20 20  0  0  0  0  0  0  0  0999 V2000
    2.1940   -0.1295    0.3119 C   0  0  0  0  0  0  0  0  0  0  0  0
    0.8766   -0.2597   -0.4206 C   0  0  0  0  0  0  0  0  0  0  0  0
   -0.0383   -1.2510    0.2933 C   0  0  0  0  0  0  0  0  0  0  0  0
   -1.4110   -0.6905   -0.0890 C   0  0  0  0  0  0  0  0  0  0  0  0
   -2.4276   -1.2735    0.6116 O   0  0  0  0  0  0  0  0  0  0  0  0
   -1.1917    0.7790    0.3037 C   0  0  0  0  0  0  0  0  0  0  0  0
    0.1063    1.0217   -0.4734 C   0  0  0  0  0  0  0  0  0  0  0  0
    0.7823    2.1260   -0.0517 O   0  0  0  0  0  0  0  0  0  0  0  0
    2.6917    0.8343    0.1478 H   0  0  0  0  0  0  0  0  0  0  0  0
    2.0269   -0.2976    1.3940 H   0  0  0  0  0  0  0  0  0  0  0  0
    2.8797   -0.9214   -0.0744 H   0  0  0  0  0  0  0  0  0  0  0  0
    1.0389   -0.7036   -1.4428 H   0  0  0  0  0  0  0  0  0  0  0  0
    0.0580   -1.1398    1.3853 H   0  0  0  0  0  0  0  0  0  0  0  0
    0.0798   -2.2729   -0.0596 H   0  0  0  0  0  0  0  0  0  0  0  0
   -1.5506   -0.6754   -1.1897 H   0  0  0  0  0  0  0  0  0  0  0  0
   -3.1709   -1.5198   -0.0042 H   0  0  0  0  0  0  0  0  0  0  0  0
   -1.0453    0.8346    1.3859 H   0  0  0  0  0  0  0  0  0  0  0  0
   -1.9978    1.4244   -0.0811 H   0  0  0  0  0  0  0  0  0  0  0  0
   -0.1996    1.1822   -1.5326 H   0  0  0  0  0  0  0  0  0  0  0  0
    0.2986    2.9324   -0.4142 H   0  0  0  0  0  0  0  0  0  0  0  0
  1  2  1  0
  2  3  1  0
  3  4  1  0
  4  5  1  0
  4  6  1  0
  6  7  1  0
  7  8  1  0
  7  2  1  0
  1  9  1  0
  1 10  1  0
  1 11  1  0
  2 12  1  0
  3 13  1  0
  3 14  1  0
  4 15  1  0
  5 16  1  0
  6 17  1  0
  6 18  1  0
  7 19  1  0
  8 20  1  0
M  END
