
     RDKit          3D

 24 24  0  0  0  0  0  0  0  0999 V2000
   -2.7041   -0.5209   -0.3172 C   0  0  0  0  0  0  0  0  0  0  0  0
   -1.5484    0.0837    0.4062 C   0  0  0  0  0  0  0  0  0  0  0  0
   -1.1441    1.4889    0.2379 C   0  0  0  0  0  0  0  0  0  0  0  0
   -0.3658    0.4963   -0.4870 C   0  0  0  0  0  0  0  0  0  0  0  0
    0.9629   -0.0223   -0.0492 C   0  0  0  0  0  0  0  0  0  0  0  0
    0.8780   -1.5477   -0.0548 C   0  0  0  0  0  0  0  0  0  0  0  0
    2.0081    0.4021   -1.0291 C   0  0  0  0  0  0  0  0  0  0  0  0
    1.3565    0.3910    1.3381 C   0  0  0  0  0  0  0  0  0  0  0  0
   -3.6714   -0.0613   -0.0293 H   0  0  0  0  0  0  0  0  0  0  0  0
   -2.7671   -1.6059   -0.0333 H   0  0  0  0  0  0  0  0  0  0  0  0
   -2.5852   -0.5109   -1.4146 H   0  0  0  0  0  0  0  0  0  0  0  0
   -1.3139   -0.3782    1.3868 H   0  0  0  0  0  0  0  0  0  0  0  0
   -1.7659    2.1898   -0.3915 H   0  0  0  0  0  0  0  0  0  0  0  0
   -0.7224    2.0236    1.1175 H   0  0  0  0  0  0  0  0  0  0  0  0
   -0.5229    0.3930   -1.5986 H   0  0  0  0  0  0  0  0  0  0  0  0
    1.3660   -1.9331   -0.9901 H   0  0  0  0  0  0  0  0  0  0  0  0
   -0.1808   -1.8756   -0.0412 H   0  0  0  0  0  0  0  0  0  0  0  0
    1.3797   -1.9922    0.8042 H   0  0  0  0  0  0  0  0  0  0  0  0
    2.2028   -0.3857   -1.7791 H   0  0  0  0  0  0  0  0  0  0  0  0
    2.9729    0.6826   -0.5647 H   0  0  0  0  0  0  0  0  0  0  0  0
    1.6688    1.3067   -1.6058 H   0  0  0  0  0  0  0  0  0  0  0  0
    1.7736    1.4038    1.3494 H   0  0  0  0  0  0  0  0  0  0  0  0
    0.5575    0.2963    2.0809 H   0  0  0  0  0  0  0  0  0  0  0  0
    2.1651   -0.3241    1.6648 H   0  0  0  0  0  0  0  0  0  0  0  0
  1  2  1  0
  2  3  1  0
  3  4  1  0
  4  5  1  0
  5  6  1  0
  5  7  1  0
  5  8  1  0
  4  2  1  0
  1  9  1  0
  1 10  1  0
  1 11  1  0
  2 12  1  0
  3 13  1  0
  3 14  1  0
  4 15  1  0
  6 16  1  0
  6 17  1  0
  6 18  1  0
  7 19  1  0
  7 20  1  0
  7 21  1  0
  8 22  1  0
  8 23  1  0
  8 24  1  0
M  END
