
     RDKit          3D

 21 21  0  0  0  0  0  0  0  0999 V2000
    2.4182   -0.6710    0.1655 C   0  0  0  0  0  0  0  0  0  0  0  0
    1.2088    0.2115    0.2765 C   0  0  0  0  0  0  0  0  0  0  0  0
    1.4274    1.5744   -0.3508 C   0  0  0  0  0  0  0  0  0  0  0  0
    0.5990    1.1786   -1.3953 O   0  0  0  0  0  0  0  0  0  0  0  0
    0.1466    0.0230   -0.7566 C   0  0  0  0  0  0  0  0  0  0  0  0
   -1.2684    0.1824   -0.3343 C   0  0  0  0  0  0  0  0  0  0  0  0
   -1.4358    1.2463    0.5519 O   0  0  0  0  0  0  0  0  0  0  0  0
   -1.8591   -1.0497    0.3034 C   0  0  0  0  0  0  0  0  0  0  0  0
   -3.2169   -0.8521    0.5593 O   0  0  0  0  0  0  0  0  0  0  0  0
    3.1945   -0.2389    0.8533 H   0  0  0  0  0  0  0  0  0  0  0  0
    2.1817   -1.6706    0.5745 H   0  0  0  0  0  0  0  0  0  0  0  0
    2.8337   -0.7281   -0.8545 H   0  0  0  0  0  0  0  0  0  0  0  0
    0.9051    0.3217    1.3135 H   0  0  0  0  0  0  0  0  0  0  0  0
    2.4875    1.7239   -0.6317 H   0  0  0  0  0  0  0  0  0  0  0  0
    1.0388    2.4258    0.2612 H   0  0  0  0  0  0  0  0  0  0  0  0
    0.2835   -0.8369   -1.4452 H   0  0  0  0  0  0  0  0  0  0  0  0
   -1.9060    0.4240   -1.2181 H   0  0  0  0  0  0  0  0  0  0  0  0
   -2.3184    1.6736    0.4566 H   0  0  0  0  0  0  0  0  0  0  0  0
   -1.7948   -1.9413   -0.3464 H   0  0  0  0  0  0  0  0  0  0  0  0
   -1.3320   -1.2442    1.2797 H   0  0  0  0  0  0  0  0  0  0  0  0
   -3.5935   -1.7524    0.7375 H   0  0  0  0  0  0  0  0  0  0  0  0
  1  2  1  0
  2  3  1  0
  3  4  1  0
  4  5  1  0
  5  6  1  0
  6  7  1  0
  6  8  1  0
  8  9  1  0
  5  2  1  0
  1 10  1  0
  1 11  1  0
  1 12  1  0
  2 13  1  0
  3 14  1  0
  3 15  1  0
  5 16  1  0
  6 17  1  0
  7 18  1  0
  8 19  1  0
  8 20  1  0
  9 21  1  0
M  END
