
     RDKit          3D

 21 23  0  0  0  0  0  0  0  0999 V2000
   -1.8589    1.1943   -0.2513 C   0  0  0  0  0  0  0  0  0  0  0  0
   -1.2848   -0.1616   -0.1052 C   0  0  0  0  0  0  0  0  0  0  0  0
   -0.8596   -0.5882    1.2744 C   0  0  0  0  0  0  0  0  0  0  0  0
    0.4946   -0.9903    0.7168 C   0  0  0  0  0  0  0  0  0  0  0  0
    0.5534   -1.8395   -0.4925 C   0  0  0  0  0  0  0  0  0  0  0  0
    0.0864   -0.4248   -0.5946 C   0  0  0  0  0  0  0  0  0  0  0  0
    1.0928    0.5996   -0.8989 C   0  0  0  0  0  0  0  0  0  0  0  0
    1.9396    0.6768    0.3421 C   0  0  0  0  0  0  0  0  0  0  0  0
    1.6254   -0.3736    1.1541 O   0  0  0  0  0  0  0  0  0  0  0  0
   -2.7058    1.1937   -0.9996 H   0  0  0  0  0  0  0  0  0  0  0  0
   -2.3463    1.5775    0.6925 H   0  0  0  0  0  0  0  0  0  0  0  0
   -1.1756    1.9799   -0.5755 H   0  0  0  0  0  0  0  0  0  0  0  0
   -1.9959   -0.9395   -0.5154 H   0  0  0  0  0  0  0  0  0  0  0  0
   -1.3591   -1.5046    1.6696 H   0  0  0  0  0  0  0  0  0  0  0  0
   -0.8316    0.1872    2.0396 H   0  0  0  0  0  0  0  0  0  0  0  0
    1.5343   -2.0802   -0.8935 H   0  0  0  0  0  0  0  0  0  0  0  0
   -0.2293   -2.6004   -0.6985 H   0  0  0  0  0  0  0  0  0  0  0  0
    1.7559    0.2197   -1.7268 H   0  0  0  0  0  0  0  0  0  0  0  0
    0.7442    1.5952   -1.1475 H   0  0  0  0  0  0  0  0  0  0  0  0
    1.7819    1.6316    0.9052 H   0  0  0  0  0  0  0  0  0  0  0  0
    3.0385    0.6471    0.1048 H   0  0  0  0  0  0  0  0  0  0  0  0
  1  2  1  0
  2  3  1  0
  3  4  1  0
  4  5  1  0
  5  6  1  0
  6  7  1  0
  7  8  1  0
  8  9  1  0
  6  2  1  0
  6  4  1  0
  9  4  1  0
  1 10  1  0
  1 11  1  0
  1 12  1  0
  2 13  1  0
  3 14  1  0
  3 15  1  0
  5 16  1  0
  5 17  1  0
  7 18  1  0
  7 19  1  0
  8 20  1  0
  8 21  1  0
M  END
