
     RDKit          3D

 19 21  0  0  0  0  0  0  0  0999 V2000
   -2.3543    0.3609   -0.1690 C   0  0  0  0  0  0  0  0  0  0  0  0
   -1.0458   -0.3775    0.0050 C   0  0  0  0  0  0  0  0  0  0  0  0
    0.2020    0.1887   -0.5567 C   0  0  0  0  0  0  0  0  0  0  0  0
    1.3733   -0.6642   -0.8157 C   0  0  0  0  0  0  0  0  0  0  0  0
    1.7457   -1.3076    0.4556 C   0  0  0  0  0  0  0  0  0  0  0  0
    0.9692   -0.8733    1.4122 C   0  0  0  0  0  0  0  0  0  0  0  0
   -0.0290    0.1071    0.9623 C   0  0  0  0  0  0  0  0  0  0  0  0
    0.3487    1.4291    1.0249 O   0  0  0  0  0  0  0  0  0  0  0  0
    0.3543    1.6847   -0.3485 C   0  0  0  0  0  0  0  0  0  0  0  0
   -3.1010   -0.1844    0.4646 H   0  0  0  0  0  0  0  0  0  0  0  0
   -2.6842    0.2160   -1.2112 H   0  0  0  0  0  0  0  0  0  0  0  0
   -2.3016    1.4101    0.1444 H   0  0  0  0  0  0  0  0  0  0  0  0
   -1.1532   -1.4735   -0.0947 H   0  0  0  0  0  0  0  0  0  0  0  0
    1.1278   -1.4361   -1.6110 H   0  0  0  0  0  0  0  0  0  0  0  0
    2.2408   -0.1132   -1.2648 H   0  0  0  0  0  0  0  0  0  0  0  0
    2.5776   -2.0573    0.5608 H   0  0  0  0  0  0  0  0  0  0  0  0
    1.0378   -1.1973    2.4642 H   0  0  0  0  0  0  0  0  0  0  0  0
    1.2832    2.0962   -0.7568 H   0  0  0  0  0  0  0  0  0  0  0  0
   -0.5913    2.1914   -0.6655 H   0  0  0  0  0  0  0  0  0  0  0  0
  1  2  1  0
  2  3  1  0
  3  4  1  0
  4  5  1  0
  5  6  2  0
  6  7  1  0
  7  8  1  0
  8  9  1  0
  7  2  1  0
  7  3  1  0
  9  3  1  0
  1 10  1  0
  1 11  1  0
  1 12  1  0
  2 13  1  0
  4 14  1  0
  4 15  1  0
  5 16  1  0
  6 17  1  0
  9 18  1  0
  9 19  1  0
M  END
