
     RDKit          3D

 21 22  0  0  0  0  0  0  0  0999 V2000
    2.4362   -0.2334    0.6764 C   0  0  0  0  0  0  0  0  0  0  0  0
    1.2869   -0.1073   -0.2645 C   0  0  0  0  0  0  0  0  0  0  0  0
    0.6048    1.2345    0.0348 C   0  0  0  0  0  0  0  0  0  0  0  0
   -0.8560    1.0336   -0.3946 C   0  0  0  0  0  0  0  0  0  0  0  0
   -1.6134    0.2992    0.6634 C   0  0  0  0  0  0  0  0  0  0  0  0
   -1.9320   -1.0274   -0.0411 C   0  0  0  0  0  0  0  0  0  0  0  0
   -0.6873   -1.0867   -0.9429 C   0  0  0  0  0  0  0  0  0  0  0  0
    0.3987   -1.1690   -0.0951 O   0  0  0  0  0  0  0  0  0  0  0  0
   -0.7971    0.1994   -1.5200 O   0  0  0  0  0  0  0  0  0  0  0  0
    2.7657   -1.2860    0.7073 H   0  0  0  0  0  0  0  0  0  0  0  0
    3.2454    0.4586    0.3137 H   0  0  0  0  0  0  0  0  0  0  0  0
    2.1312    0.1563    1.6610 H   0  0  0  0  0  0  0  0  0  0  0  0
    1.6011   -0.1420   -1.3372 H   0  0  0  0  0  0  0  0  0  0  0  0
    1.0049    2.0003   -0.6758 H   0  0  0  0  0  0  0  0  0  0  0  0
    0.6883    1.5181    1.0840 H   0  0  0  0  0  0  0  0  0  0  0  0
   -1.3006    2.0213   -0.6450 H   0  0  0  0  0  0  0  0  0  0  0  0
   -0.9112    0.0258    1.4846 H   0  0  0  0  0  0  0  0  0  0  0  0
   -2.5270    0.7827    1.0065 H   0  0  0  0  0  0  0  0  0  0  0  0
   -2.8109   -0.9260   -0.6939 H   0  0  0  0  0  0  0  0  0  0  0  0
   -1.9626   -1.8677    0.6554 H   0  0  0  0  0  0  0  0  0  0  0  0
   -0.7651   -1.8842   -1.6769 H   0  0  0  0  0  0  0  0  0  0  0  0
  1  2  1  0
  2  3  1  0
  3  4  1  0
  4  5  1  0
  5  6  1  0
  6  7  1  0
  7  8  1  0
  7  9  1  0
  8  2  1  0
  9  4  1  0
  1 10  1  0
  1 11  1  0
  1 12  1  0
  2 13  1  0
  3 14  1  0
  3 15  1  0
  4 16  1  0
  5 17  1  0
  5 18  1  0
  6 19  1  0
  6 20  1  0
  7 21  1  0
M  END
