
     RDKit          3D

 25 25  0  0  0  0  0  0  0  0999 V2000
    2.9367    0.4672    0.4761 C   0  0  0  0  0  0  0  0  0  0  0  0
    1.5433    0.5979   -0.0527 C   0  0  0  0  0  0  0  0  0  0  0  0
    1.0128   -0.5544   -0.8410 C   0  0  0  0  0  0  0  0  0  0  0  0
   -0.2886   -0.4307   -0.0459 C   0  0  0  0  0  0  0  0  0  0  0  0
   -0.8539   -1.7765    0.3570 C   0  0  0  0  0  0  0  0  0  0  0  0
   -1.3277    0.3921   -0.7419 C   0  0  0  0  0  0  0  0  0  0  0  0
   -2.5592    0.4407    0.1364 C   0  0  0  0  0  0  0  0  0  0  0  0
   -0.9324    1.6818   -1.0149 O   0  0  0  0  0  0  0  0  0  0  0  0
    0.4995    0.2829    1.0164 C   0  0  0  0  0  0  0  0  0  0  0  0
    3.1219    1.3654    1.1276 H   0  0  0  0  0  0  0  0  0  0  0  0
    3.0805   -0.4085    1.1423 H   0  0  0  0  0  0  0  0  0  0  0  0
    3.6774    0.5142   -0.3470 H   0  0  0  0  0  0  0  0  0  0  0  0
    1.3968    1.5544   -0.5627 H   0  0  0  0  0  0  0  0  0  0  0  0
    1.4771   -1.5398   -0.6399 H   0  0  0  0  0  0  0  0  0  0  0  0
    0.8079   -0.4010   -1.9007 H   0  0  0  0  0  0  0  0  0  0  0  0
   -0.2873   -2.2495    1.1785 H   0  0  0  0  0  0  0  0  0  0  0  0
   -0.8369   -2.4808   -0.5159 H   0  0  0  0  0  0  0  0  0  0  0  0
   -1.9278   -1.6209    0.6027 H   0  0  0  0  0  0  0  0  0  0  0  0
   -1.5533   -0.1284   -1.7193 H   0  0  0  0  0  0  0  0  0  0  0  0
   -2.2880    0.2927    1.2113 H   0  0  0  0  0  0  0  0  0  0  0  0
   -3.2873   -0.3208   -0.2114 H   0  0  0  0  0  0  0  0  0  0  0  0
   -3.0565    1.4467    0.0178 H   0  0  0  0  0  0  0  0  0  0  0  0
   -1.3570    1.9881   -1.8590 H   0  0  0  0  0  0  0  0  0  0  0  0
    0.0703    1.2333    1.3840 H   0  0  0  0  0  0  0  0  0  0  0  0
    0.9315   -0.3460    1.8021 H   0  0  0  0  0  0  0  0  0  0  0  0
  1  2  1  0
  2  3  1  0
  3  4  1  0
  4  5  1  0
  4  6  1  0
  6  7  1  0
  6  8  1  0
  4  9  1  0
  9  2  1  0
  1 10  1  0
  1 11  1  0
  1 12  1  0
  2 13  1  0
  3 14  1  0
  3 15  1  0
  5 16  1  0
  5 17  1  0
  5 18  1  0
  6 19  1  0
  7 20  1  0
  7 21  1  0
  7 22  1  0
  8 23  1  0
  9 24  1  0
  9 25  1  0
M  END
