
     RDKit          3D

 24 24  0  0  0  0  0  0  0  0999 V2000
   -1.6515   -1.2517    0.4608 C   0  0  0  0  0  0  0  0  0  0  0  0
   -0.7964   -0.0220    0.5736 C   0  0  0  0  0  0  0  0  0  0  0  0
   -1.4031    1.0064   -0.3891 C   0  0  0  0  0  0  0  0  0  0  0  0
   -0.2021    1.9404   -0.5306 C   0  0  0  0  0  0  0  0  0  0  0  0
    0.8558    0.9087   -0.9397 C   0  0  0  0  0  0  0  0  0  0  0  0
    0.5954   -0.1968    0.0677 C   0  0  0  0  0  0  0  0  0  0  0  0
    0.8185   -1.5572   -0.5350 C   0  0  0  0  0  0  0  0  0  0  0  0
    1.6268   -0.0210    1.1725 C   0  0  0  0  0  0  0  0  0  0  0  0
   -1.6314   -1.8393    1.4025 H   0  0  0  0  0  0  0  0  0  0  0  0
   -2.7170   -0.8856    0.3763 H   0  0  0  0  0  0  0  0  0  0  0  0
   -1.4685   -1.8398   -0.4424 H   0  0  0  0  0  0  0  0  0  0  0  0
   -0.7890    0.3466    1.6106 H   0  0  0  0  0  0  0  0  0  0  0  0
   -1.5461    0.4916   -1.3465 H   0  0  0  0  0  0  0  0  0  0  0  0
   -2.2784    1.4965    0.0260 H   0  0  0  0  0  0  0  0  0  0  0  0
   -0.3564    2.7063   -1.2816 H   0  0  0  0  0  0  0  0  0  0  0  0
    0.0526    2.3273    0.4842 H   0  0  0  0  0  0  0  0  0  0  0  0
    0.5652    0.5967   -1.9759 H   0  0  0  0  0  0  0  0  0  0  0  0
    1.8696    1.3183   -0.8778 H   0  0  0  0  0  0  0  0  0  0  0  0
    0.4240   -2.3240    0.1463 H   0  0  0  0  0  0  0  0  0  0  0  0
    1.9079   -1.7432   -0.6688 H   0  0  0  0  0  0  0  0  0  0  0  0
    0.3271   -1.5807   -1.5375 H   0  0  0  0  0  0  0  0  0  0  0  0
    1.5802   -0.7947    1.9360 H   0  0  0  0  0  0  0  0  0  0  0  0
    1.5877    1.0200    1.5816 H   0  0  0  0  0  0  0  0  0  0  0  0
    2.6292   -0.1026    0.6868 H   0  0  0  0  0  0  0  0  0  0  0  0
  1  2  1  0
  2  3  1  0
  3  4  1  0
  4  5  1  0
  5  6  1  0
  6  7  1  0
  6  8  1  0
  6  2  1  0
  1  9  1  0
  1 10  1  0
  1 11  1  0
  2 12  1  0
  3 13  1  0
  3 14  1  0
  4 15  1  0
  4 16  1  0
  5 17  1  0
  5 18  1  0
  7 19  1  0
  7 20  1  0
  7 21  1  0
  8 22  1  0
  8 23  1  0
  8 24  1  0
M  END
