
     RDKit          3D

 21 21  0  0  0  0  0  0  0  0999 V2000
   -1.8339    0.1703   -0.8904 C   0  0  0  0  0  0  0  0  0  0  0  0
   -0.5827    0.6994   -0.2510 C   0  0  0  0  0  0  0  0  0  0  0  0
   -0.7902    0.9522    1.2345 C   0  0  0  0  0  0  0  0  0  0  0  0
   -0.2243   -0.3841    1.4990 C   0  0  0  0  0  0  0  0  0  0  0  0
   -0.2038   -1.2569    2.3487 O   0  0  0  0  0  0  0  0  0  0  0  0
    0.4324   -0.3223    0.1623 C   0  0  0  0  0  0  0  0  0  0  0  0
    0.3609   -1.6489   -0.5384 C   0  0  0  0  0  0  0  0  0  0  0  0
    1.8167    0.2487    0.1687 C   0  0  0  0  0  0  0  0  0  0  0  0
    2.1419    0.6957   -1.0976 O   0  0  0  0  0  0  0  0  0  0  0  0
   -1.6205   -0.3667   -1.8252 H   0  0  0  0  0  0  0  0  0  0  0  0
   -2.4533    1.0567   -1.1723 H   0  0  0  0  0  0  0  0  0  0  0  0
   -2.4607   -0.4144   -0.1773 H   0  0  0  0  0  0  0  0  0  0  0  0
   -0.1631    1.5847   -0.7266 H   0  0  0  0  0  0  0  0  0  0  0  0
   -1.8522    1.0989    1.5044 H   0  0  0  0  0  0  0  0  0  0  0  0
   -0.1612    1.7341    1.6702 H   0  0  0  0  0  0  0  0  0  0  0  0
   -0.5554   -2.2226   -0.2835 H   0  0  0  0  0  0  0  0  0  0  0  0
    1.2156   -2.2613   -0.1449 H   0  0  0  0  0  0  0  0  0  0  0  0
    0.5312   -1.5821   -1.6327 H   0  0  0  0  0  0  0  0  0  0  0  0
    2.5358   -0.5399    0.4744 H   0  0  0  0  0  0  0  0  0  0  0  0
    1.8242    1.0970    0.9068 H   0  0  0  0  0  0  0  0  0  0  0  0
    2.0427    1.6614   -1.2290 H   0  0  0  0  0  0  0  0  0  0  0  0
  1  2  1  0
  2  3  1  0
  3  4  1  0
  4  5  2  0
  4  6  1  0
  6  7  1  0
  6  8  1  0
  8  9  1  0
  6  2  1  0
  1 10  1  0
  1 11  1  0
  1 12  1  0
  2 13  1  0
  3 14  1  0
  3 15  1  0
  7 16  1  0
  7 17  1  0
  7 18  1  0
  8 19  1  0
  8 20  1  0
  9 21  1  0
M  END
