
     RDKit          3D

 17 18  0  0  0  0  0  0  0  0999 V2000
    2.1306    0.2431    0.2837 C   0  0  0  0  0  0  0  0  0  0  0  0
    0.8976   -0.0683   -0.5792 C   0  0  0  0  0  0  0  0  0  0  0  0
   -0.1029   -0.8990   -0.0588 C   0  0  0  0  0  0  0  0  0  0  0  0
   -1.5389   -1.1563   -0.3838 C   0  0  0  0  0  0  0  0  0  0  0  0
   -2.1364   -0.2058    0.5298 O   0  0  0  0  0  0  0  0  0  0  0  0
   -1.1818    0.8002    0.8042 C   0  0  0  0  0  0  0  0  0  0  0  0
   -1.2470    1.5461    1.8104 O   0  0  0  0  0  0  0  0  0  0  0  0
   -0.2723    0.6590   -0.3184 C   0  0  0  0  0  0  0  0  0  0  0  0
   -1.0244    0.9859   -1.4902 O   0  0  0  0  0  0  0  0  0  0  0  0
    2.2768    1.3282    0.3963 H   0  0  0  0  0  0  0  0  0  0  0  0
    1.9491   -0.1653    1.3212 H   0  0  0  0  0  0  0  0  0  0  0  0
    3.0301   -0.2656   -0.0965 H   0  0  0  0  0  0  0  0  0  0  0  0
    1.2299   -0.2464   -1.6390 H   0  0  0  0  0  0  0  0  0  0  0  0
    0.0381   -1.1872    1.0308 H   0  0  0  0  0  0  0  0  0  0  0  0
   -1.8042   -0.8834   -1.4150 H   0  0  0  0  0  0  0  0  0  0  0  0
   -1.7930   -2.1788   -0.1016 H   0  0  0  0  0  0  0  0  0  0  0  0
   -0.4513    1.6936   -1.9219 H   0  0  0  0  0  0  0  0  0  0  0  0
  1  2  1  0
  2  3  1  0
  3  4  1  0
  4  5  1  0
  5  6  1  0
  6  7  2  0
  6  8  1  0
  8  9  1  0
  8  2  1  0
  8  3  1  0
  1 10  1  0
  1 11  1  0
  1 12  1  0
  2 13  1  0
  3 14  1  0
  4 15  1  0
  4 16  1  0
  9 17  1  0
M  END
