
     RDKit          3D

 17 18  0  0  0  0  0  0  0  0999 V2000
    1.7068   -0.7977    0.2048 C   0  0  0  0  0  0  0  0  0  0  0  0
    0.6730    0.1084   -0.3970 C   0  0  0  0  0  0  0  0  0  0  0  0
    0.4247    1.3934    0.4012 C   0  0  0  0  0  0  0  0  0  0  0  0
   -1.0181    1.2604   -0.1185 C   0  0  0  0  0  0  0  0  0  0  0  0
   -0.7458   -0.2040   -0.1075 C   0  0  0  0  0  0  0  0  0  0  0  0
   -1.5358   -1.2770   -0.3122 C   0  0  0  0  0  0  0  0  0  0  0  0
   -1.0563   -0.9283    1.0174 O   0  0  0  0  0  0  0  0  0  0  0  0
    2.7083   -0.4222   -0.0867 H   0  0  0  0  0  0  0  0  0  0  0  0
    1.6028   -1.7887   -0.3049 H   0  0  0  0  0  0  0  0  0  0  0  0
    1.5932   -0.9418    1.2881 H   0  0  0  0  0  0  0  0  0  0  0  0
    0.9170    0.3006   -1.4646 H   0  0  0  0  0  0  0  0  0  0  0  0
    0.4231    1.1786    1.4710 H   0  0  0  0  0  0  0  0  0  0  0  0
    0.9573    2.2710    0.0379 H   0  0  0  0  0  0  0  0  0  0  0  0
   -1.7775    1.6545    0.5520 H   0  0  0  0  0  0  0  0  0  0  0  0
   -1.0272    1.6478   -1.1630 H   0  0  0  0  0  0  0  0  0  0  0  0
   -2.6560   -1.1789   -0.4280 H   0  0  0  0  0  0  0  0  0  0  0  0
   -1.1894   -2.2764   -0.5900 H   0  0  0  0  0  0  0  0  0  0  0  0
  1  2  1  0
  2  3  1  0
  3  4  1  0
  4  5  1  0
  5  6  1  0
  6  7  1  0
  5  2  1  0
  7  5  1  0
  1  8  1  0
  1  9  1  0
  1 10  1  0
  2 11  1  0
  3 12  1  0
  3 13  1  0
  4 14  1  0
  4 15  1  0
  6 16  1  0
  6 17  1  0
M  END
