
     RDKit          3D

 21 21  0  0  0  0  0  0  0  0999 V2000
   -2.1396   -1.0903    0.2607 C   0  0  0  0  0  0  0  0  0  0  0  0
   -0.7126   -0.6199    0.3280 C   0  0  0  0  0  0  0  0  0  0  0  0
    0.2394   -1.2307   -0.6398 C   0  0  0  0  0  0  0  0  0  0  0  0
    0.7572    0.1669   -0.9227 C   0  0  0  0  0  0  0  0  0  0  0  0
    1.9942    0.4481   -0.1051 C   0  0  0  0  0  0  0  0  0  0  0  0
    1.7414    0.3571    1.2645 O   0  0  0  0  0  0  0  0  0  0  0  0
   -0.5281    0.7002   -0.3911 C   0  0  0  0  0  0  0  0  0  0  0  0
   -0.4769    1.8956    0.4520 C   0  0  0  0  0  0  0  0  0  0  0  0
   -1.0181    2.9340    0.0711 O   0  0  0  0  0  0  0  0  0  0  0  0
   -2.6944   -0.6053   -0.5755 H   0  0  0  0  0  0  0  0  0  0  0  0
   -2.2231   -2.1928    0.1138 H   0  0  0  0  0  0  0  0  0  0  0  0
   -2.6672   -0.8355    1.2052 H   0  0  0  0  0  0  0  0  0  0  0  0
   -0.3876   -0.5980    1.4000 H   0  0  0  0  0  0  0  0  0  0  0  0
   -0.3058   -1.6440   -1.5236 H   0  0  0  0  0  0  0  0  0  0  0  0
    1.0226   -1.8957   -0.2350 H   0  0  0  0  0  0  0  0  0  0  0  0
    0.9223    0.3000   -1.9894 H   0  0  0  0  0  0  0  0  0  0  0  0
    2.7068   -0.3959   -0.3336 H   0  0  0  0  0  0  0  0  0  0  0  0
    2.4903    1.3836   -0.3705 H   0  0  0  0  0  0  0  0  0  0  0  0
    2.5452    0.2162    1.7868 H   0  0  0  0  0  0  0  0  0  0  0  0
   -1.2806    0.7802   -1.2013 H   0  0  0  0  0  0  0  0  0  0  0  0
    0.0147    1.9261    1.4056 H   0  0  0  0  0  0  0  0  0  0  0  0
  1  2  1  0
  2  3  1  0
  3  4  1  0
  4  5  1  0
  5  6  1  0
  4  7  1  0
  7  8  1  0
  8  9  2  0
  7  2  1  0
  1 10  1  0
  1 11  1  0
  1 12  1  0
  2 13  1  0
  3 14  1  0
  3 15  1  0
  4 16  1  0
  5 17  1  0
  5 18  1  0
  6 19  1  0
  7 20  1  0
  8 21  1  0
M  END
