
     RDKit          3D

 18 19  0  0  0  0  0  0  0  0999 V2000
    2.2285   -0.2094   -0.0940 C   0  0  0  0  0  0  0  0  0  0  0  0
    0.8255    0.1499   -0.5225 C   0  0  0  0  0  0  0  0  0  0  0  0
    0.3225    1.2147    0.3641 C   0  0  0  0  0  0  0  0  0  0  0  0
   -0.9475    1.2683    0.6931 C   0  0  0  0  0  0  0  0  0  0  0  0
   -1.9415    0.2987    0.2173 C   0  0  0  0  0  0  0  0  0  0  0  0
   -1.3641   -0.9768   -0.2802 C   0  0  0  0  0  0  0  0  0  0  0  0
   -0.4778   -1.5464    0.7721 O   0  0  0  0  0  0  0  0  0  0  0  0
   -0.0021   -1.1115   -0.4574 C   0  0  0  0  0  0  0  0  0  0  0  0
    2.9211    0.3739   -0.7450 H   0  0  0  0  0  0  0  0  0  0  0  0
    2.3956    0.1152    0.9624 H   0  0  0  0  0  0  0  0  0  0  0  0
    2.4263   -1.3145   -0.2035 H   0  0  0  0  0  0  0  0  0  0  0  0
    0.7743    0.5183   -1.5688 H   0  0  0  0  0  0  0  0  0  0  0  0
    1.0537    1.9490    0.7294 H   0  0  0  0  0  0  0  0  0  0  0  0
   -1.2941    2.0668    1.3510 H   0  0  0  0  0  0  0  0  0  0  0  0
   -2.5602    0.7758   -0.5692 H   0  0  0  0  0  0  0  0  0  0  0  0
   -2.6639    0.0727    1.0566 H   0  0  0  0  0  0  0  0  0  0  0  0
   -2.1129   -1.7228   -0.6162 H   0  0  0  0  0  0  0  0  0  0  0  0
    0.4166   -1.9219   -1.0893 H   0  0  0  0  0  0  0  0  0  0  0  0
  1  2  1  0
  2  3  1  0
  3  4  2  0
  4  5  1  0
  5  6  1  0
  6  7  1  0
  7  8  1  0
  8  2  1  0
  8  6  1  0
  1  9  1  0
  1 10  1  0
  1 11  1  0
  2 12  1  0
  3 13  1  0
  4 14  1  0
  5 15  1  0
  5 16  1  0
  6 17  1  0
  8 18  1  0
M  END
