
     RDKit          3D

 21 23  0  0  0  0  0  0  0  0999 V2000
   -2.3715   -0.4103   -0.7128 C   0  0  0  0  0  0  0  0  0  0  0  0
   -1.3581    0.2009    0.1875 C   0  0  0  0  0  0  0  0  0  0  0  0
   -0.1392    0.7579   -0.4940 C   0  0  0  0  0  0  0  0  0  0  0  0
    0.2764   -0.6548   -0.7346 C   0  0  0  0  0  0  0  0  0  0  0  0
    1.7729   -0.7273   -0.5904 C   0  0  0  0  0  0  0  0  0  0  0  0
    1.9635    0.2303    0.6007 C   0  0  0  0  0  0  0  0  0  0  0  0
    0.5332    0.5926    0.8444 C   0  0  0  0  0  0  0  0  0  0  0  0
    0.2123    1.4295    1.8433 O   0  0  0  0  0  0  0  0  0  0  0  0
   -0.2473   -0.6805    0.6722 C   0  0  0  0  0  0  0  0  0  0  0  0
   -2.2198   -1.4972   -0.7519 H   0  0  0  0  0  0  0  0  0  0  0  0
   -3.3823   -0.1432   -0.3207 H   0  0  0  0  0  0  0  0  0  0  0  0
   -2.3027    0.0795   -1.7192 H   0  0  0  0  0  0  0  0  0  0  0  0
   -1.7391    0.8291    1.0243 H   0  0  0  0  0  0  0  0  0  0  0  0
   -0.0847    1.5441   -1.1056 H   0  0  0  0  0  0  0  0  0  0  0  0
   -0.2074   -1.2397   -1.4880 H   0  0  0  0  0  0  0  0  0  0  0  0
    2.2151   -0.2531   -1.4792 H   0  0  0  0  0  0  0  0  0  0  0  0
    2.1354   -1.7324   -0.3674 H   0  0  0  0  0  0  0  0  0  0  0  0
    2.6105    1.0725    0.3460 H   0  0  0  0  0  0  0  0  0  0  0  0
    2.3962   -0.3177    1.4559 H   0  0  0  0  0  0  0  0  0  0  0  0
    0.2340    2.3766    1.4919 H   0  0  0  0  0  0  0  0  0  0  0  0
   -0.2975   -1.4569    1.2974 H   0  0  0  0  0  0  0  0  0  0  0  0
  1  2  1  0
  2  3  1  0
  3  4  1  0
  4  5  1  0
  5  6  1  0
  6  7  1  0
  7  8  1  0
  7  9  1  0
  9  2  1  0
  7  3  1  0
  9  4  1  0
  1 10  1  0
  1 11  1  0
  1 12  1  0
  2 13  1  0
  3 14  1  0
  4 15  1  0
  5 16  1  0
  5 17  1  0
  6 18  1  0
  6 19  1  0
  8 20  1  0
  9 21  1  0
M  END
