
     RDKit          3D

 21 23  0  0  0  0  0  0  0  0999 V2000
    1.6053    1.2339    0.2430 C   0  0  0  0  0  0  0  0  0  0  0  0
    0.5483    0.6198   -0.5991 C   0  0  0  0  0  0  0  0  0  0  0  0
    0.7317   -0.8649   -0.9127 C   0  0  0  0  0  0  0  0  0  0  0  0
   -0.8001   -0.8511   -1.0623 C   0  0  0  0  0  0  0  0  0  0  0  0
   -0.6883    0.1208    0.1118 C   0  0  0  0  0  0  0  0  0  0  0  0
   -1.7886    1.0315    0.3591 C   0  0  0  0  0  0  0  0  0  0  0  0
   -0.2049   -0.7977    1.2000 C   0  0  0  0  0  0  0  0  0  0  0  0
    1.1242   -0.8182    1.5564 O   0  0  0  0  0  0  0  0  0  0  0  0
    0.8832   -1.5460    0.4006 C   0  0  0  0  0  0  0  0  0  0  0  0
    1.2697    1.5162    1.2659 H   0  0  0  0  0  0  0  0  0  0  0  0
    2.5391    0.6283    0.3051 H   0  0  0  0  0  0  0  0  0  0  0  0
    1.9164    2.1976   -0.2362 H   0  0  0  0  0  0  0  0  0  0  0  0
    0.2780    1.1377   -1.5416 H   0  0  0  0  0  0  0  0  0  0  0  0
    1.3033   -1.1355   -1.7595 H   0  0  0  0  0  0  0  0  0  0  0  0
   -1.2113   -1.8420   -0.7898 H   0  0  0  0  0  0  0  0  0  0  0  0
   -1.1583   -0.4058   -1.9932 H   0  0  0  0  0  0  0  0  0  0  0  0
   -1.7094    1.9280   -0.2914 H   0  0  0  0  0  0  0  0  0  0  0  0
   -2.7643    0.5075    0.2375 H   0  0  0  0  0  0  0  0  0  0  0  0
   -1.7397    1.3943    1.4056 H   0  0  0  0  0  0  0  0  0  0  0  0
   -0.9487   -1.4225    1.6886 H   0  0  0  0  0  0  0  0  0  0  0  0
    0.8142   -2.6318    0.4123 H   0  0  0  0  0  0  0  0  0  0  0  0
  1  2  1  0
  2  3  1  0
  3  4  1  0
  4  5  1  0
  5  6  1  0
  5  7  1  0
  7  8  1  0
  8  9  1  0
  5  2  1  0
  9  7  1  0
  9  3  1  0
  1 10  1  0
  1 11  1  0
  1 12  1  0
  2 13  1  0
  3 14  1  0
  4 15  1  0
  4 16  1  0
  6 17  1  0
  6 18  1  0
  6 19  1  0
  7 20  1  0
  9 21  1  0
M  END
