
     RDKit          3D

 21 21  0  0  0  0  0  0  0  0999 V2000
   -2.1304   -1.2533    0.2030 C   0  0  0  0  0  0  0  0  0  0  0  0
   -1.5239    0.1210    0.0149 C   0  0  0  0  0  0  0  0  0  0  0  0
   -2.1955    1.2901   -0.1112 C   0  0  0  0  0  0  0  0  0  0  0  0
   -1.3709    2.2875   -0.2151 O   0  0  0  0  0  0  0  0  0  0  0  0
   -0.1286    1.8376   -0.1792 C   0  0  0  0  0  0  0  0  0  0  0  0
   -0.1857    0.4692   -0.0280 C   0  0  0  0  0  0  0  0  0  0  0  0
    0.8920   -0.5347    0.0257 C   0  0  0  0  0  0  0  0  0  0  0  0
    1.8533   -0.0514    1.1226 C   0  0  0  0  0  0  0  0  0  0  0  0
    1.6975   -0.4625   -1.2775 C   0  0  0  0  0  0  0  0  0  0  0  0
   -1.3823   -1.8724    0.7949 H   0  0  0  0  0  0  0  0  0  0  0  0
   -3.0662   -1.1569    0.7507 H   0  0  0  0  0  0  0  0  0  0  0  0
   -2.1930   -1.7273   -0.7786 H   0  0  0  0  0  0  0  0  0  0  0  0
   -3.3206    1.3896   -0.1330 H   0  0  0  0  0  0  0  0  0  0  0  0
    0.8288    2.4143   -0.2597 H   0  0  0  0  0  0  0  0  0  0  0  0
    0.6039   -1.5260    0.2146 H   0  0  0  0  0  0  0  0  0  0  0  0
    1.3200   -0.4802    2.0663 H   0  0  0  0  0  0  0  0  0  0  0  0
    1.8046    1.0351    1.2761 H   0  0  0  0  0  0  0  0  0  0  0  0
    2.7896   -0.5341    1.1226 H   0  0  0  0  0  0  0  0  0  0  0  0
    2.5957   -1.1272   -1.0901 H   0  0  0  0  0  0  0  0  0  0  0  0
    1.0605   -0.7191   -2.1044 H   0  0  0  0  0  0  0  0  0  0  0  0
    2.0514    0.6004   -1.4146 H   0  0  0  0  0  0  0  0  0  0  0  0
  1  2  1  0
  2  3  2  0
  3  4  1  0
  4  5  1  0
  5  6  2  0
  6  7  1  0
  7  8  1  0
  7  9  1  0
  6  2  1  0
  1 10  1  0
  1 11  1  0
  1 12  1  0
  3 13  1  0
  5 14  1  0
  7 15  1  0
  8 16  1  0
  8 17  1  0
  8 18  1  0
  9 19  1  0
  9 20  1  0
  9 21  1  0
M  END
