
     RDKit          3D

 19 20  0  0  0  0  0  0  0  0999 V2000
    2.1460    0.3672    0.2845 C   0  0  0  0  0  0  0  0  0  0  0  0
    1.0173   -0.2055   -0.5324 C   0  0  0  0  0  0  0  0  0  0  0  0
    0.7317   -1.5964   -0.0962 C   0  0  0  0  0  0  0  0  0  0  0  0
    1.2806   -2.6796   -0.1182 O   0  0  0  0  0  0  0  0  0  0  0  0
   -0.5650   -1.1421    0.4132 C   0  0  0  0  0  0  0  0  0  0  0  0
   -1.5039   -0.5716   -0.6079 C   0  0  0  0  0  0  0  0  0  0  0  0
   -2.7830   -0.3374   -0.1326 O   0  0  0  0  0  0  0  0  0  0  0  0
   -0.3631    0.2190   -0.1279 C   0  0  0  0  0  0  0  0  0  0  0  0
   -0.6165    1.4558    0.6392 C   0  0  0  0  0  0  0  0  0  0  0  0
    2.2681   -0.1370    1.2583 H   0  0  0  0  0  0  0  0  0  0  0  0
    3.0927    0.2080   -0.3053 H   0  0  0  0  0  0  0  0  0  0  0  0
    2.0613    1.4559    0.4197 H   0  0  0  0  0  0  0  0  0  0  0  0
    1.1659   -0.1242   -1.6234 H   0  0  0  0  0  0  0  0  0  0  0  0
   -0.8879   -1.3224    1.4394 H   0  0  0  0  0  0  0  0  0  0  0  0
   -1.4059   -0.9532   -1.6635 H   0  0  0  0  0  0  0  0  0  0  0  0
   -3.4176   -0.0853   -0.8462 H   0  0  0  0  0  0  0  0  0  0  0  0
    0.2195    1.8606    1.2012 H   0  0  0  0  0  0  0  0  0  0  0  0
   -0.9431    2.2597   -0.0794 H   0  0  0  0  0  0  0  0  0  0  0  0
   -1.4971    1.3285    1.3284 H   0  0  0  0  0  0  0  0  0  0  0  0
  1  2  1  0
  2  3  1  0
  3  4  2  0
  3  5  1  0
  5  6  1  0
  6  7  1  0
  6  8  1  0
  8  9  1  0
  8  2  1  0
  8  5  1  0
  1 10  1  0
  1 11  1  0
  1 12  1  0
  2 13  1  0
  5 14  1  0
  6 15  1  0
  7 16  1  0
  9 17  1  0
  9 18  1  0
  9 19  1  0
M  END
