
     RDKit          3D

 21 22  0  0  0  0  0  0  0  0999 V2000
    2.0029   -0.3525   -0.7764 C   0  0  0  0  0  0  0  0  0  0  0  0
    0.9513    0.2416    0.1011 C   0  0  0  0  0  0  0  0  0  0  0  0
   -0.0458   -0.7640    0.6773 C   0  0  0  0  0  0  0  0  0  0  0  0
    0.3948   -1.9235    1.1319 O   0  0  0  0  0  0  0  0  0  0  0  0
   -0.9440    0.1130    1.4996 C   0  0  0  0  0  0  0  0  0  0  0  0
   -1.0954    1.2936    0.5176 C   0  0  0  0  0  0  0  0  0  0  0  0
   -0.2777    0.7723   -0.6215 C   0  0  0  0  0  0  0  0  0  0  0  0
   -0.1381    1.4460   -1.7490 O   0  0  0  0  0  0  0  0  0  0  0  0
   -0.7243   -0.6949   -0.6845 C   0  0  0  0  0  0  0  0  0  0  0  0
    2.5037   -1.2172   -0.2508 H   0  0  0  0  0  0  0  0  0  0  0  0
    1.6604   -0.6261   -1.7863 H   0  0  0  0  0  0  0  0  0  0  0  0
    2.8219    0.4129   -0.8722 H   0  0  0  0  0  0  0  0  0  0  0  0
    1.3112    0.9619    0.8375 H   0  0  0  0  0  0  0  0  0  0  0  0
   -0.2683   -2.6276    1.0908 H   0  0  0  0  0  0  0  0  0  0  0  0
   -0.5331    0.4273    2.4557 H   0  0  0  0  0  0  0  0  0  0  0  0
   -1.9350   -0.3690    1.5449 H   0  0  0  0  0  0  0  0  0  0  0  0
   -0.5778    2.1443    0.9961 H   0  0  0  0  0  0  0  0  0  0  0  0
   -2.1424    1.4907    0.2866 H   0  0  0  0  0  0  0  0  0  0  0  0
   -0.9093    1.3407   -2.3511 H   0  0  0  0  0  0  0  0  0  0  0  0
   -1.8088   -0.7889   -0.5736 H   0  0  0  0  0  0  0  0  0  0  0  0
   -0.2461   -1.2804   -1.4737 H   0  0  0  0  0  0  0  0  0  0  0  0
  1  2  1  0
  2  3  1  0
  3  4  1  0
  3  5  1  0
  5  6  1  0
  6  7  1  0
  7  8  1  0
  7  9  1  0
  7  2  1  0
  9  3  1  0
  1 10  1  0
  1 11  1  0
  1 12  1  0
  2 13  1  0
  4 14  1  0
  5 15  1  0
  5 16  1  0
  6 17  1  0
  6 18  1  0
  8 19  1  0
  9 20  1  0
  9 21  1  0
M  END
