
     RDKit          3D

 15 16  0  0  0  0  0  0  0  0999 V2000
    1.3815   -0.1964    0.5460 C   0  0  0  0  0  0  0  0  0  0  0  0
    0.4934    0.4041   -0.4637 C   0  0  0  0  0  0  0  0  0  0  0  0
   -0.8084   -0.3421   -0.7831 C   0  0  0  0  0  0  0  0  0  0  0  0
   -0.7001   -1.6906   -0.9191 O   0  0  0  0  0  0  0  0  0  0  0  0
   -1.1776    0.1107    0.6008 C   0  0  0  0  0  0  0  0  0  0  0  0
   -1.3002    1.3306    1.0915 O   0  0  0  0  0  0  0  0  0  0  0  0
   -0.4954    1.4065    0.0638 C   0  0  0  0  0  0  0  0  0  0  0  0
    2.4401   -0.0061    0.2448 H   0  0  0  0  0  0  0  0  0  0  0  0
    1.2984   -1.2965    0.6672 H   0  0  0  0  0  0  0  0  0  0  0  0
    1.3099    0.2943    1.5621 H   0  0  0  0  0  0  0  0  0  0  0  0
    0.9797    0.6869   -1.3911 H   0  0  0  0  0  0  0  0  0  0  0  0
   -1.3244    0.1357   -1.6211 H   0  0  0  0  0  0  0  0  0  0  0  0
   -0.5059   -2.1849   -0.0876 H   0  0  0  0  0  0  0  0  0  0  0  0
   -0.5501   -0.5077    1.3192 H   0  0  0  0  0  0  0  0  0  0  0  0
   -1.0411    1.8555   -0.8298 H   0  0  0  0  0  0  0  0  0  0  0  0
  1  2  1  0
  2  3  1  0
  3  4  1  0
  3  5  1  0
  5  6  1  0
  6  7  1  0
  7  2  1  0
  7  5  1  0
  1  8  1  0
  1  9  1  0
  1 10  1  0
  2 11  1  0
  3 12  1  0
  4 13  1  0
  5 14  1  0
  7 15  1  0
M  END
