
     RDKit          3D

 25 25  0  0  0  0  0  0  0  0999 V2000
   -0.8806    1.7801   -0.3104 C   0  0  0  0  0  0  0  0  0  0  0  0
   -0.4063    0.6430    0.5896 C   0  0  0  0  0  0  0  0  0  0  0  0
   -1.5715   -0.2679    0.8185 C   0  0  0  0  0  0  0  0  0  0  0  0
   -1.7594   -1.2106   -0.3723 C   0  0  0  0  0  0  0  0  0  0  0  0
   -0.5344   -2.0344   -0.4465 C   0  0  0  0  0  0  0  0  0  0  0  0
    0.6344   -1.4646   -0.2405 C   0  0  0  0  0  0  0  0  0  0  0  0
    0.8146   -0.0224    0.0679 C   0  0  0  0  0  0  0  0  0  0  0  0
    1.9255    0.0637    1.1147 C   0  0  0  0  0  0  0  0  0  0  0  0
    1.3714    0.6350   -1.1717 C   0  0  0  0  0  0  0  0  0  0  0  0
   -1.6655    2.3212    0.2814 H   0  0  0  0  0  0  0  0  0  0  0  0
   -1.3428    1.4232   -1.2336 H   0  0  0  0  0  0  0  0  0  0  0  0
   -0.0534    2.4687   -0.5763 H   0  0  0  0  0  0  0  0  0  0  0  0
   -0.1924    1.1373    1.5835 H   0  0  0  0  0  0  0  0  0  0  0  0
   -1.3594   -0.9310    1.6953 H   0  0  0  0  0  0  0  0  0  0  0  0
   -2.4771    0.3533    0.9899 H   0  0  0  0  0  0  0  0  0  0  0  0
   -2.6762   -1.7995   -0.2350 H   0  0  0  0  0  0  0  0  0  0  0  0
   -1.8794   -0.5553   -1.2577 H   0  0  0  0  0  0  0  0  0  0  0  0
   -0.6026   -3.0815   -0.6656 H   0  0  0  0  0  0  0  0  0  0  0  0
    1.5130   -2.1049   -0.3038 H   0  0  0  0  0  0  0  0  0  0  0  0
    2.2781    1.1309    1.2254 H   0  0  0  0  0  0  0  0  0  0  0  0
    1.4802   -0.2981    2.0737 H   0  0  0  0  0  0  0  0  0  0  0  0
    2.7331   -0.6062    0.8204 H   0  0  0  0  0  0  0  0  0  0  0  0
    0.6140    0.8341   -1.9401 H   0  0  0  0  0  0  0  0  0  0  0  0
    2.1780   -0.0247   -1.5649 H   0  0  0  0  0  0  0  0  0  0  0  0
    1.8587    1.6105   -0.9419 H   0  0  0  0  0  0  0  0  0  0  0  0
  1  2  1  0
  2  3  1  0
  3  4  1  0
  4  5  1  0
  5  6  2  0
  6  7  1  0
  7  8  1  0
  7  9  1  0
  7  2  1  0
  1 10  1  0
  1 11  1  0
  1 12  1  0
  2 13  1  0
  3 14  1  0
  3 15  1  0
  4 16  1  0
  4 17  1  0
  5 18  1  0
  6 19  1  0
  8 20  1  0
  8 21  1  0
  8 22  1  0
  9 23  1  0
  9 24  1  0
  9 25  1  0
M  END
