
     RDKit          3D

 19 20  0  0  0  0  0  0  0  0999 V2000
   -1.4511   -1.4658    0.2839 C   0  0  0  0  0  0  0  0  0  0  0  0
   -0.8164   -0.1374    0.5035 C   0  0  0  0  0  0  0  0  0  0  0  0
   -1.0292    0.8332   -0.6546 C   0  0  0  0  0  0  0  0  0  0  0  0
   -0.6484    2.1964   -0.7406 C   0  0  0  0  0  0  0  0  0  0  0  0
    0.2492    1.4476    0.0658 C   0  0  0  0  0  0  0  0  0  0  0  0
    0.6234   -0.0260   -0.0532 C   0  0  0  0  0  0  0  0  0  0  0  0
    1.6104   -0.4057    0.8552 O   0  0  0  0  0  0  0  0  0  0  0  0
    2.6400   -1.2322    0.4913 C   0  0  0  0  0  0  0  0  0  0  0  0
    2.6917   -1.6565   -0.6938 O   0  0  0  0  0  0  0  0  0  0  0  0
   -0.7541   -2.1084   -0.2754 H   0  0  0  0  0  0  0  0  0  0  0  0
   -1.5971   -1.9428    1.2875 H   0  0  0  0  0  0  0  0  0  0  0  0
   -2.4325   -1.3483   -0.2309 H   0  0  0  0  0  0  0  0  0  0  0  0
   -0.9574    0.3550    1.4605 H   0  0  0  0  0  0  0  0  0  0  0  0
   -0.7713    0.2385   -1.5912 H   0  0  0  0  0  0  0  0  0  0  0  0
   -1.3649    2.9513   -0.2964 H   0  0  0  0  0  0  0  0  0  0  0  0
   -0.2183    2.6412   -1.6879 H   0  0  0  0  0  0  0  0  0  0  0  0
    0.0992    1.6233    1.1802 H   0  0  0  0  0  0  0  0  0  0  0  0
    0.6899   -0.4054   -1.0703 H   0  0  0  0  0  0  0  0  0  0  0  0
    3.4371   -1.5581    1.1662 H   0  0  0  0  0  0  0  0  0  0  0  0
  1  2  1  0
  2  3  1  0
  3  4  1  0
  4  5  1  0
  5  6  1  0
  6  7  1  0
  7  8  1  0
  8  9  2  0
  6  2  1  0
  5  3  1  0
  1 10  1  0
  1 11  1  0
  1 12  1  0
  2 13  1  0
  3 14  1  0
  4 15  1  0
  4 16  1  0
  5 17  1  0
  6 18  1  0
  8 19  1  0
M  END
