
     RDKit          3D

 23 24  0  0  0  0  0  0  0  0999 V2000
    2.1654    1.1983   -0.0836 C   0  0  0  0  0  0  0  0  0  0  0  0
    0.9263    0.5488    0.4160 C   0  0  0  0  0  0  0  0  0  0  0  0
    0.4748   -0.6948   -0.3421 C   0  0  0  0  0  0  0  0  0  0  0  0
    0.7407   -1.9929    0.3302 C   0  0  0  0  0  0  0  0  0  0  0  0
   -0.8937   -0.1237   -0.2539 C   0  0  0  0  0  0  0  0  0  0  0  0
   -1.9578   -0.5661    0.6105 C   0  0  0  0  0  0  0  0  0  0  0  0
   -2.0589   -0.5578   -0.9452 C   0  0  0  0  0  0  0  0  0  0  0  0
   -0.3011    1.2370   -0.2049 C   0  0  0  0  0  0  0  0  0  0  0  0
   -0.8220    2.1295    0.7092 O   0  0  0  0  0  0  0  0  0  0  0  0
    3.0842    0.7958    0.3892 H   0  0  0  0  0  0  0  0  0  0  0  0
    2.2025    1.1802   -1.1749 H   0  0  0  0  0  0  0  0  0  0  0  0
    2.1210    2.2806    0.2401 H   0  0  0  0  0  0  0  0  0  0  0  0
    0.8167    0.4548    1.4943 H   0  0  0  0  0  0  0  0  0  0  0  0
    0.8360   -0.6536   -1.4110 H   0  0  0  0  0  0  0  0  0  0  0  0
   -0.1269   -2.6957    0.2572 H   0  0  0  0  0  0  0  0  0  0  0  0
    1.0835   -1.9165    1.3693 H   0  0  0  0  0  0  0  0  0  0  0  0
    1.5598   -2.5086   -0.2521 H   0  0  0  0  0  0  0  0  0  0  0  0
   -1.9491   -1.5482    1.0999 H   0  0  0  0  0  0  0  0  0  0  0  0
   -2.5780    0.2366    1.1077 H   0  0  0  0  0  0  0  0  0  0  0  0
   -2.0997   -1.5915   -1.3824 H   0  0  0  0  0  0  0  0  0  0  0  0
   -2.8356    0.1100   -1.3669 H   0  0  0  0  0  0  0  0  0  0  0  0
   -0.0713    1.6912   -1.1941 H   0  0  0  0  0  0  0  0  0  0  0  0
   -0.3168    2.9866    0.5871 H   0  0  0  0  0  0  0  0  0  0  0  0
  1  2  1  0
  2  3  1  0
  3  4  1  0
  3  5  1  0
  5  6  1  0
  6  7  1  0
  5  8  1  0
  8  9  1  0
  8  2  1  0
  7  5  1  0
  1 10  1  0
  1 11  1  0
  1 12  1  0
  2 13  1  0
  3 14  1  0
  4 15  1  0
  4 16  1  0
  4 17  1  0
  6 18  1  0
  6 19  1  0
  7 20  1  0
  7 21  1  0
  8 22  1  0
  9 23  1  0
M  END
