
     RDKit          3D

 23 23  0  0  0  0  0  0  0  0999 V2000
    2.4826   -0.4514   -0.4142 C   0  0  0  0  0  0  0  0  0  0  0  0
    1.0123   -0.5863   -0.4178 C   0  0  0  0  0  0  0  0  0  0  0  0
    0.2247    0.7125   -0.6404 C   0  0  0  0  0  0  0  0  0  0  0  0
   -0.1377    0.9290   -1.9449 O   0  0  0  0  0  0  0  0  0  0  0  0
   -0.8596    0.0472    0.2204 C   0  0  0  0  0  0  0  0  0  0  0  0
   -1.7088   -0.8685   -0.6204 C   0  0  0  0  0  0  0  0  0  0  0  0
   -1.6252    0.9852    1.0939 C   0  0  0  0  0  0  0  0  0  0  0  0
    0.3132   -0.6621    0.9159 C   0  0  0  0  0  0  0  0  0  0  0  0
    0.7947    0.1694    1.9042 O   0  0  0  0  0  0  0  0  0  0  0  0
    2.9668   -0.4212    0.5674 H   0  0  0  0  0  0  0  0  0  0  0  0
    2.7517    0.4396   -1.0531 H   0  0  0  0  0  0  0  0  0  0  0  0
    2.9631   -1.3170   -0.9615 H   0  0  0  0  0  0  0  0  0  0  0  0
    0.6675   -1.4262   -1.0586 H   0  0  0  0  0  0  0  0  0  0  0  0
    0.6604    1.5351   -0.0775 H   0  0  0  0  0  0  0  0  0  0  0  0
   -0.6812    1.7276   -1.9964 H   0  0  0  0  0  0  0  0  0  0  0  0
   -1.2732   -1.1069   -1.6003 H   0  0  0  0  0  0  0  0  0  0  0  0
   -2.6581   -0.3112   -0.8330 H   0  0  0  0  0  0  0  0  0  0  0  0
   -2.0222   -1.7845   -0.0736 H   0  0  0  0  0  0  0  0  0  0  0  0
   -2.6702    0.5668    1.1822 H   0  0  0  0  0  0  0  0  0  0  0  0
   -1.2060    0.9010    2.1244 H   0  0  0  0  0  0  0  0  0  0  0  0
   -1.6966    2.0065    0.7220 H   0  0  0  0  0  0  0  0  0  0  0  0
    0.0688   -1.6969    1.2469 H   0  0  0  0  0  0  0  0  0  0  0  0
    1.6332    0.6122    1.7143 H   0  0  0  0  0  0  0  0  0  0  0  0
  1  2  1  0
  2  3  1  0
  3  4  1  0
  3  5  1  0
  5  6  1  0
  5  7  1  0
  5  8  1  0
  8  9  1  0
  8  2  1  0
  1 10  1  0
  1 11  1  0
  1 12  1  0
  2 13  1  0
  3 14  1  0
  4 15  1  0
  6 16  1  0
  6 17  1  0
  6 18  1  0
  7 19  1  0
  7 20  1  0
  7 21  1  0
  8 22  1  0
  9 23  1  0
M  END
