
     RDKit          3D

 21 22  0  0  0  0  0  0  0  0999 V2000
    2.5345   -0.6286    0.1013 C   0  0  0  0  0  0  0  0  0  0  0  0
    1.0465   -0.6536    0.2069 C   0  0  0  0  0  0  0  0  0  0  0  0
    0.2891    0.2267    1.1081 C   0  0  0  0  0  0  0  0  0  0  0  0
   -1.0384   -0.1646    1.6266 C   0  0  0  0  0  0  0  0  0  0  0  0
   -2.0343   -0.3699    0.8007 C   0  0  0  0  0  0  0  0  0  0  0  0
   -1.9642   -0.2448   -0.6647 C   0  0  0  0  0  0  0  0  0  0  0  0
   -0.7629    0.4420   -1.1788 C   0  0  0  0  0  0  0  0  0  0  0  0
    0.3641    0.6328   -0.2665 C   0  0  0  0  0  0  0  0  0  0  0  0
    1.2000    1.7267   -0.5660 O   0  0  0  0  0  0  0  0  0  0  0  0
    2.8965   -1.5907   -0.3184 H   0  0  0  0  0  0  0  0  0  0  0  0
    2.8855    0.1578   -0.6298 H   0  0  0  0  0  0  0  0  0  0  0  0
    3.0419   -0.3743    1.0573 H   0  0  0  0  0  0  0  0  0  0  0  0
    0.5387   -1.6197   -0.0502 H   0  0  0  0  0  0  0  0  0  0  0  0
    0.9035    0.7828    1.8647 H   0  0  0  0  0  0  0  0  0  0  0  0
   -1.2240   -0.2910    2.6882 H   0  0  0  0  0  0  0  0  0  0  0  0
   -3.0158   -0.6614    1.2115 H   0  0  0  0  0  0  0  0  0  0  0  0
   -2.8988    0.2856   -0.9922 H   0  0  0  0  0  0  0  0  0  0  0  0
   -2.0752   -1.2824   -1.0952 H   0  0  0  0  0  0  0  0  0  0  0  0
   -0.4008   -0.1306   -2.0844 H   0  0  0  0  0  0  0  0  0  0  0  0
   -1.0621    1.4405   -1.6019 H   0  0  0  0  0  0  0  0  0  0  0  0
    0.7763    2.3169   -1.2171 H   0  0  0  0  0  0  0  0  0  0  0  0
  1  2  1  0
  2  3  1  0
  3  4  1  0
  4  5  2  0
  5  6  1  0
  6  7  1  0
  7  8  1  0
  8  9  1  0
  8  2  1  0
  8  3  1  0
  1 10  1  0
  1 11  1  0
  1 12  1  0
  2 13  1  0
  3 14  1  0
  4 15  1  0
  5 16  1  0
  6 17  1  0
  6 18  1  0
  7 19  1  0
  7 20  1  0
  9 21  1  0
M  END
