
     RDKit          3D

 23 24  0  0  0  0  0  0  0  0999 V2000
    2.2879   -0.3982   -0.6362 C   0  0  0  0  0  0  0  0  0  0  0  0
    1.4813    0.2849    0.3982 C   0  0  0  0  0  0  0  0  0  0  0  0
    1.1537    1.7464    0.1474 C   0  0  0  0  0  0  0  0  0  0  0  0
   -0.0975    1.5221    0.7361 O   0  0  0  0  0  0  0  0  0  0  0  0
    0.0082    0.2005    0.3385 C   0  0  0  0  0  0  0  0  0  0  0  0
   -0.6793   -0.8097    1.1993 C   0  0  0  0  0  0  0  0  0  0  0  0
   -2.0954   -0.8283    0.6993 C   0  0  0  0  0  0  0  0  0  0  0  0
   -2.1049   -0.0954   -0.6309 C   0  0  0  0  0  0  0  0  0  0  0  0
   -0.6193   -0.0345   -1.0123 C   0  0  0  0  0  0  0  0  0  0  0  0
    3.1541   -0.9019   -0.1214 H   0  0  0  0  0  0  0  0  0  0  0  0
    1.7737   -1.1760   -1.2073 H   0  0  0  0  0  0  0  0  0  0  0  0
    2.7745    0.2932   -1.3746 H   0  0  0  0  0  0  0  0  0  0  0  0
    1.8412    0.1489    1.4519 H   0  0  0  0  0  0  0  0  0  0  0  0
    1.1307    2.0529   -0.9098 H   0  0  0  0  0  0  0  0  0  0  0  0
    1.7613    2.4381    0.7681 H   0  0  0  0  0  0  0  0  0  0  0  0
   -0.1908   -1.8025    0.9914 H   0  0  0  0  0  0  0  0  0  0  0  0
   -0.5786   -0.5641    2.2621 H   0  0  0  0  0  0  0  0  0  0  0  0
   -2.7809   -0.3091    1.4103 H   0  0  0  0  0  0  0  0  0  0  0  0
   -2.4347   -1.8753    0.4980 H   0  0  0  0  0  0  0  0  0  0  0  0
   -2.4119    0.9703   -0.4814 H   0  0  0  0  0  0  0  0  0  0  0  0
   -2.7061   -0.6011   -1.3901 H   0  0  0  0  0  0  0  0  0  0  0  0
   -0.4063    0.7415   -1.7414 H   0  0  0  0  0  0  0  0  0  0  0  0
   -0.2608   -1.0026   -1.3951 H   0  0  0  0  0  0  0  0  0  0  0  0
  1  2  1  0
  2  3  1  0
  3  4  1  0
  4  5  1  0
  5  6  1  0
  6  7  1  0
  7  8  1  0
  8  9  1  0
  5  2  1  0
  9  5  1  0
  1 10  1  0
  1 11  1  0
  1 12  1  0
  2 13  1  0
  3 14  1  0
  3 15  1  0
  6 16  1  0
  6 17  1  0
  7 18  1  0
  7 19  1  0
  8 20  1  0
  8 21  1  0
  9 22  1  0
  9 23  1  0
M  END
