
     RDKit          3D

 23 24  0  0  0  0  0  0  0  0999 V2000
    2.8238    0.5827    0.0330 C   0  0  0  0  0  0  0  0  0  0  0  0
    1.6830   -0.0766   -0.7239 C   0  0  0  0  0  0  0  0  0  0  0  0
    0.4101    0.6889   -0.5927 C   0  0  0  0  0  0  0  0  0  0  0  0
   -0.5673   -0.3168   -0.1059 C   0  0  0  0  0  0  0  0  0  0  0  0
   -1.8639   -0.4299   -0.8794 C   0  0  0  0  0  0  0  0  0  0  0  0
   -2.3544    0.7259   -0.0049 C   0  0  0  0  0  0  0  0  0  0  0  0
   -1.3706    0.2077    1.0567 C   0  0  0  0  0  0  0  0  0  0  0  0
    0.2103   -1.5483    0.0962 C   0  0  0  0  0  0  0  0  0  0  0  0
    1.5165   -1.3360   -0.2493 O   0  0  0  0  0  0  0  0  0  0  0  0
    2.9365    0.1008    1.0313 H   0  0  0  0  0  0  0  0  0  0  0  0
    2.7291    1.6719    0.0925 H   0  0  0  0  0  0  0  0  0  0  0  0
    3.7523    0.3485   -0.5455 H   0  0  0  0  0  0  0  0  0  0  0  0
    1.9171   -0.1456   -1.8197 H   0  0  0  0  0  0  0  0  0  0  0  0
    0.0422    1.1056   -1.5547 H   0  0  0  0  0  0  0  0  0  0  0  0
    0.5293    1.5388    0.1148 H   0  0  0  0  0  0  0  0  0  0  0  0
   -2.3383   -1.4056   -0.6489 H   0  0  0  0  0  0  0  0  0  0  0  0
   -1.7802   -0.1924   -1.9504 H   0  0  0  0  0  0  0  0  0  0  0  0
   -3.3859    0.6676    0.3197 H   0  0  0  0  0  0  0  0  0  0  0  0
   -1.9853    1.6671   -0.4367 H   0  0  0  0  0  0  0  0  0  0  0  0
   -0.8864    1.0190    1.6430 H   0  0  0  0  0  0  0  0  0  0  0  0
   -1.8854   -0.5667    1.6711 H   0  0  0  0  0  0  0  0  0  0  0  0
   -0.2056   -2.3458   -0.5810 H   0  0  0  0  0  0  0  0  0  0  0  0
    0.0732   -1.9607    1.1277 H   0  0  0  0  0  0  0  0  0  0  0  0
  1  2  1  0
  2  3  1  0
  3  4  1  0
  4  5  1  0
  5  6  1  0
  6  7  1  0
  4  8  1  0
  8  9  1  0
  9  2  1  0
  7  4  1  0
  1 10  1  0
  1 11  1  0
  1 12  1  0
  2 13  1  0
  3 14  1  0
  3 15  1  0
  5 16  1  0
  5 17  1  0
  6 18  1  0
  6 19  1  0
  7 20  1  0
  7 21  1  0
  8 22  1  0
  8 23  1  0
M  END
