
     RDKit          3D

 23 24  0  0  0  0  0  0  0  0999 V2000
   -0.8212    1.8782   -0.4761 C   0  0  0  0  0  0  0  0  0  0  0  0
   -0.3539    0.8180    0.4344 C   0  0  0  0  0  0  0  0  0  0  0  0
    0.9349    0.1124    0.0928 C   0  0  0  0  0  0  0  0  0  0  0  0
    2.1953    0.6421    0.0694 C   0  0  0  0  0  0  0  0  0  0  0  0
    0.1689   -0.5097   -1.0446 C   0  0  0  0  0  0  0  0  0  0  0  0
   -0.7822   -0.6013    0.1209 C   0  0  0  0  0  0  0  0  0  0  0  0
   -2.0494   -1.1062    0.1378 C   0  0  0  0  0  0  0  0  0  0  0  0
    0.3989   -0.9889    0.9592 C   0  0  0  0  0  0  0  0  0  0  0  0
    0.9104   -2.2285    0.8270 O   0  0  0  0  0  0  0  0  0  0  0  0
   -1.4985    1.5580   -1.2851 H   0  0  0  0  0  0  0  0  0  0  0  0
   -1.4243    2.6169    0.1322 H   0  0  0  0  0  0  0  0  0  0  0  0
    0.0622    2.4558   -0.8596 H   0  0  0  0  0  0  0  0  0  0  0  0
   -0.3928    1.0040    1.5253 H   0  0  0  0  0  0  0  0  0  0  0  0
    2.2269    1.7676   -0.0471 H   0  0  0  0  0  0  0  0  0  0  0  0
    2.8387    0.2871   -0.7923 H   0  0  0  0  0  0  0  0  0  0  0  0
    2.8233    0.4496    0.9666 H   0  0  0  0  0  0  0  0  0  0  0  0
   -0.0587    0.2158   -1.8202 H   0  0  0  0  0  0  0  0  0  0  0  0
    0.5486   -1.4433   -1.4529 H   0  0  0  0  0  0  0  0  0  0  0  0
   -2.1580   -2.1261    0.6147 H   0  0  0  0  0  0  0  0  0  0  0  0
   -2.8124   -0.4835    0.6928 H   0  0  0  0  0  0  0  0  0  0  0  0
   -2.5278   -1.2488   -0.8775 H   0  0  0  0  0  0  0  0  0  0  0  0
    0.2745   -0.6643    2.0055 H   0  0  0  0  0  0  0  0  0  0  0  0
    1.4965   -2.4049    0.0766 H   0  0  0  0  0  0  0  0  0  0  0  0
  1  2  1  0
  2  3  1  0
  3  4  1  0
  3  5  1  0
  5  6  1  0
  6  7  1  0
  6  8  1  0
  8  9  1  0
  6  2  1  0
  8  3  1  0
  1 10  1  0
  1 11  1  0
  1 12  1  0
  2 13  1  0
  4 14  1  0
  4 15  1  0
  4 16  1  0
  5 17  1  0
  5 18  1  0
  7 19  1  0
  7 20  1  0
  7 21  1  0
  8 22  1  0
  9 23  1  0
M  END
