
     RDKit          3D

 23 23  0  0  0  0  0  0  0  0999 V2000
    0.1819    2.1050   -0.3195 C   0  0  0  0  0  0  0  0  0  0  0  0
   -0.0591    0.7922    0.4174 C   0  0  0  0  0  0  0  0  0  0  0  0
   -1.5235    0.5519    0.4469 C   0  0  0  0  0  0  0  0  0  0  0  0
   -1.9256   -0.8847    0.5549 C   0  0  0  0  0  0  0  0  0  0  0  0
   -1.2655   -1.6525   -0.5577 C   0  0  0  0  0  0  0  0  0  0  0  0
    0.1835   -1.4374   -0.5760 C   0  0  0  0  0  0  0  0  0  0  0  0
    0.7408   -0.3091   -0.1259 C   0  0  0  0  0  0  0  0  0  0  0  0
    2.2075   -0.1974   -0.1907 C   0  0  0  0  0  0  0  0  0  0  0  0
    2.8024   -0.0138    1.0554 O   0  0  0  0  0  0  0  0  0  0  0  0
   -0.0855    2.9428    0.3727 H   0  0  0  0  0  0  0  0  0  0  0  0
   -0.5263    2.1411   -1.1742 H   0  0  0  0  0  0  0  0  0  0  0  0
    1.1974    2.1965   -0.7091 H   0  0  0  0  0  0  0  0  0  0  0  0
    0.2884    0.9637    1.4733 H   0  0  0  0  0  0  0  0  0  0  0  0
   -1.9636    1.1854    1.2548 H   0  0  0  0  0  0  0  0  0  0  0  0
   -1.9744    0.9420   -0.5098 H   0  0  0  0  0  0  0  0  0  0  0  0
   -1.7531   -1.3288    1.5472 H   0  0  0  0  0  0  0  0  0  0  0  0
   -3.0342   -0.9247    0.3452 H   0  0  0  0  0  0  0  0  0  0  0  0
   -1.5346   -2.7215   -0.4501 H   0  0  0  0  0  0  0  0  0  0  0  0
   -1.6763   -1.2304   -1.5191 H   0  0  0  0  0  0  0  0  0  0  0  0
    0.8115   -2.2398   -0.9754 H   0  0  0  0  0  0  0  0  0  0  0  0
    2.6865   -1.1077   -0.6275 H   0  0  0  0  0  0  0  0  0  0  0  0
    2.5123    0.6427   -0.8400 H   0  0  0  0  0  0  0  0  0  0  0  0
    3.7097   -0.4153    1.1073 H   0  0  0  0  0  0  0  0  0  0  0  0
  1  2  1  0
  2  3  1  0
  3  4  1  0
  4  5  1  0
  5  6  1  0
  6  7  2  0
  7  8  1  0
  8  9  1  0
  7  2  1  0
  1 10  1  0
  1 11  1  0
  1 12  1  0
  2 13  1  0
  3 14  1  0
  3 15  1  0
  4 16  1  0
  4 17  1  0
  5 18  1  0
  5 19  1  0
  6 20  1  0
  8 21  1  0
  8 22  1  0
  9 23  1  0
M  END
