
     RDKit          3D

 19 21  0  0  0  0  0  0  0  0999 V2000
   -2.6058    0.0820    0.6259 C   0  0  0  0  0  0  0  0  0  0  0  0
   -1.3762   -0.5931    0.0067 C   0  0  0  0  0  0  0  0  0  0  0  0
   -0.4164    0.2205   -0.7188 C   0  0  0  0  0  0  0  0  0  0  0  0
   -0.1055   -0.5038    0.6460 C   0  0  0  0  0  0  0  0  0  0  0  0
    1.2714   -0.4643    0.0541 C   0  0  0  0  0  0  0  0  0  0  0  0
    1.3138   -1.3291   -1.0363 O   0  0  0  0  0  0  0  0  0  0  0  0
    2.1320    0.6791   -0.1341 C   0  0  0  0  0  0  0  0  0  0  0  0
    2.9421    1.0111    0.9798 O   0  0  0  0  0  0  0  0  0  0  0  0
    0.7458    1.0050   -0.1830 C   0  0  0  0  0  0  0  0  0  0  0  0
   -3.4402    0.1405   -0.0649 H   0  0  0  0  0  0  0  0  0  0  0  0
   -2.3205    1.0229    1.1121 H   0  0  0  0  0  0  0  0  0  0  0  0
   -2.9214   -0.6090    1.4600 H   0  0  0  0  0  0  0  0  0  0  0  0
   -1.6825   -1.6220   -0.3574 H   0  0  0  0  0  0  0  0  0  0  0  0
   -0.1044   -0.2423   -1.6592 H   0  0  0  0  0  0  0  0  0  0  0  0
   -0.1053    0.1815    1.5491 H   0  0  0  0  0  0  0  0  0  0  0  0
    1.1925   -2.2396   -0.6742 H   0  0  0  0  0  0  0  0  0  0  0  0
    2.7251    0.8646   -1.0794 H   0  0  0  0  0  0  0  0  0  0  0  0
    2.3599    0.8573    1.7729 H   0  0  0  0  0  0  0  0  0  0  0  0
    0.3957    1.5388    0.7528 H   0  0  0  0  0  0  0  0  0  0  0  0
  1  2  1  0
  2  3  1  0
  3  4  1  0
  4  5  1  0
  5  6  1  0
  5  7  1  0
  7  8  1  0
  7  9  1  0
  4  2  1  0
  9  5  1  0
  9  3  1  0
  1 10  1  0
  1 11  1  0
  1 12  1  0
  2 13  1  0
  3 14  1  0
  4 15  1  0
  6 16  1  0
  7 17  1  0
  8 18  1  0
  9 19  1  0
M  END
