
     RDKit          3D

 19 21  0  0  0  0  0  0  0  0999 V2000
    2.7312    0.0597    0.0893 C   0  0  0  0  0  0  0  0  0  0  0  0
    1.3318   -0.4181    0.4866 C   0  0  0  0  0  0  0  0  0  0  0  0
    0.4701   -1.0198   -0.5641 C   0  0  0  0  0  0  0  0  0  0  0  0
   -0.5658   -1.8115   -0.1345 O   0  0  0  0  0  0  0  0  0  0  0  0
   -1.6836   -1.0319    0.0417 C   0  0  0  0  0  0  0  0  0  0  0  0
   -1.1745    0.3047    0.4483 C   0  0  0  0  0  0  0  0  0  0  0  0
   -2.0872    1.4844    0.2139 C   0  0  0  0  0  0  0  0  0  0  0  0
   -1.6736    1.0176    1.4859 O   0  0  0  0  0  0  0  0  0  0  0  0
    0.2254    0.3802   -0.0238 C   0  0  0  0  0  0  0  0  0  0  0  0
    3.1430   -0.5935   -0.6988 H   0  0  0  0  0  0  0  0  0  0  0  0
    3.3846    0.1662    0.9728 H   0  0  0  0  0  0  0  0  0  0  0  0
    2.6713    1.0818   -0.3662 H   0  0  0  0  0  0  0  0  0  0  0  0
    1.3312   -0.9385    1.4539 H   0  0  0  0  0  0  0  0  0  0  0  0
    0.7925   -1.0603   -1.6225 H   0  0  0  0  0  0  0  0  0  0  0  0
   -2.3850   -1.4697    0.7824 H   0  0  0  0  0  0  0  0  0  0  0  0
   -2.2252   -1.0134   -0.9424 H   0  0  0  0  0  0  0  0  0  0  0  0
   -3.1473    1.2674   -0.0118 H   0  0  0  0  0  0  0  0  0  0  0  0
   -1.5840    2.3678   -0.2065 H   0  0  0  0  0  0  0  0  0  0  0  0
    0.4453    1.2269   -0.7109 H   0  0  0  0  0  0  0  0  0  0  0  0
  1  2  1  0
  2  3  1  0
  3  4  1  0
  4  5  1  0
  5  6  1  0
  6  7  1  0
  7  8  1  0
  6  9  1  0
  9  2  1  0
  9  3  1  0
  8  6  1  0
  1 10  1  0
  1 11  1  0
  1 12  1  0
  2 13  1  0
  3 14  1  0
  5 15  1  0
  5 16  1  0
  7 17  1  0
  7 18  1  0
  9 19  1  0
M  END
