
     RDKit          3D

 21 23  0  0  0  0  0  0  0  0999 V2000
    1.5850   -1.2442   -0.0531 C   0  0  0  0  0  0  0  0  0  0  0  0
    0.5211   -0.4015   -0.6911 C   0  0  0  0  0  0  0  0  0  0  0  0
   -0.8671   -0.9712   -0.5255 C   0  0  0  0  0  0  0  0  0  0  0  0
   -1.7074    0.2486   -0.9282 C   0  0  0  0  0  0  0  0  0  0  0  0
   -1.1270    0.8147    0.3753 C   0  0  0  0  0  0  0  0  0  0  0  0
   -1.2315   -0.6288    0.8901 C   0  0  0  0  0  0  0  0  0  0  0  0
    0.3213    0.9135    0.0812 C   0  0  0  0  0  0  0  0  0  0  0  0
    1.3182    1.5456    0.7656 C   0  0  0  0  0  0  0  0  0  0  0  0
    0.8408    2.0691   -0.5425 O   0  0  0  0  0  0  0  0  0  0  0  0
    1.4487   -1.3539    1.0375 H   0  0  0  0  0  0  0  0  0  0  0  0
    1.5486   -2.2417   -0.5348 H   0  0  0  0  0  0  0  0  0  0  0  0
    2.5633   -0.8014   -0.3209 H   0  0  0  0  0  0  0  0  0  0  0  0
    0.7941   -0.1925   -1.7324 H   0  0  0  0  0  0  0  0  0  0  0  0
   -1.1168   -1.9075   -0.9423 H   0  0  0  0  0  0  0  0  0  0  0  0
   -1.2724    0.6776   -1.8390 H   0  0  0  0  0  0  0  0  0  0  0  0
   -2.7882    0.0813   -0.9109 H   0  0  0  0  0  0  0  0  0  0  0  0
   -1.6667    1.5634    0.8790 H   0  0  0  0  0  0  0  0  0  0  0  0
   -2.2658   -0.9194    1.1364 H   0  0  0  0  0  0  0  0  0  0  0  0
   -0.4690   -0.8137    1.6597 H   0  0  0  0  0  0  0  0  0  0  0  0
    2.3983    1.2302    0.6900 H   0  0  0  0  0  0  0  0  0  0  0  0
    1.1723    2.3317    1.5061 H   0  0  0  0  0  0  0  0  0  0  0  0
  1  2  1  0
  2  3  1  0
  3  4  1  0
  4  5  1  0
  5  6  1  0
  5  7  1  0
  7  8  1  0
  8  9  1  0
  7  2  1  0
  6  3  1  0
  9  7  1  0
  1 10  1  0
  1 11  1  0
  1 12  1  0
  2 13  1  0
  3 14  1  0
  4 15  1  0
  4 16  1  0
  5 17  1  0
  6 18  1  0
  6 19  1  0
  8 20  1  0
  8 21  1  0
M  END
