
     RDKit          3D

 15 16  0  0  0  0  0  0  0  0999 V2000
    1.7664    0.0666   -0.2378 C   0  0  0  0  0  0  0  0  0  0  0  0
    0.3408    0.4594   -0.4437 C   0  0  0  0  0  0  0  0  0  0  0  0
   -0.6531   -0.6490   -0.6018 C   0  0  0  0  0  0  0  0  0  0  0  0
   -1.6580    0.3317   -0.0528 C   0  0  0  0  0  0  0  0  0  0  0  0
   -0.4591    0.4685    0.8408 C   0  0  0  0  0  0  0  0  0  0  0  0
   -0.3668   -0.9789    0.7956 C   0  0  0  0  0  0  0  0  0  0  0  0
   -0.1781   -1.9921    1.4228 O   0  0  0  0  0  0  0  0  0  0  0  0
    2.2913   -0.0736   -1.1973 H   0  0  0  0  0  0  0  0  0  0  0  0
    2.2736    0.9082    0.3045 H   0  0  0  0  0  0  0  0  0  0  0  0
    1.8855   -0.8425    0.3517 H   0  0  0  0  0  0  0  0  0  0  0  0
    0.2045    1.3080   -1.1115 H   0  0  0  0  0  0  0  0  0  0  0  0
   -0.7748   -1.2624   -1.3814 H   0  0  0  0  0  0  0  0  0  0  0  0
   -2.5607   -0.0955    0.3775 H   0  0  0  0  0  0  0  0  0  0  0  0
   -1.7710    1.2473   -0.6694 H   0  0  0  0  0  0  0  0  0  0  0  0
   -0.3403    1.1042    1.6029 H   0  0  0  0  0  0  0  0  0  0  0  0
  1  2  1  0
  2  3  1  0
  3  4  1  0
  4  5  1  0
  5  6  1  0
  6  7  2  0
  5  2  1  0
  6  3  1  0
  1  8  1  0
  1  9  1  0
  1 10  1  0
  2 11  1  0
  3 12  1  0
  4 13  1  0
  4 14  1  0
  5 15  1  0
M  END
