
     RDKit          3D

 20 20  0  0  0  0  0  0  0  0999 V2000
   -1.7786   -0.5150   -0.8850 C   0  0  0  0  0  0  0  0  0  0  0  0
   -0.4369   -0.7096   -0.2331 C   0  0  0  0  0  0  0  0  0  0  0  0
   -0.5444   -0.8486    1.2431 C   0  0  0  0  0  0  0  0  0  0  0  0
   -0.1378    0.2729    1.8148 C   0  0  0  0  0  0  0  0  0  0  0  0
    0.2811    1.2701    0.7764 C   0  0  0  0  0  0  0  0  0  0  0  0
    0.5265    0.3908   -0.4474 C   0  0  0  0  0  0  0  0  0  0  0  0
    1.9419   -0.1787   -0.2833 C   0  0  0  0  0  0  0  0  0  0  0  0
    0.3782    1.1035   -1.6053 O   0  0  0  0  0  0  0  0  0  0  0  0
   -1.9752    0.5336   -1.1737 H   0  0  0  0  0  0  0  0  0  0  0  0
   -1.9253   -1.1589   -1.7827 H   0  0  0  0  0  0  0  0  0  0  0  0
   -2.5539   -0.7747   -0.1280 H   0  0  0  0  0  0  0  0  0  0  0  0
   -0.0116   -1.6595   -0.6695 H   0  0  0  0  0  0  0  0  0  0  0  0
   -0.8977   -1.7215    1.7953 H   0  0  0  0  0  0  0  0  0  0  0  0
   -0.1024    0.4700    2.8904 H   0  0  0  0  0  0  0  0  0  0  0  0
    1.1864    1.8202    1.0821 H   0  0  0  0  0  0  0  0  0  0  0  0
   -0.5133    2.0155    0.5807 H   0  0  0  0  0  0  0  0  0  0  0  0
    1.9078   -0.9069    0.5639 H   0  0  0  0  0  0  0  0  0  0  0  0
    2.2465   -0.7480   -1.1816 H   0  0  0  0  0  0  0  0  0  0  0  0
    2.6663    0.6347   -0.0969 H   0  0  0  0  0  0  0  0  0  0  0  0
   -0.2576    0.7099   -2.2601 H   0  0  0  0  0  0  0  0  0  0  0  0
  1  2  1  0
  2  3  1  0
  3  4  2  0
  4  5  1  0
  5  6  1  0
  6  7  1  0
  6  8  1  0
  6  2  1  0
  1  9  1  0
  1 10  1  0
  1 11  1  0
  2 12  1  0
  3 13  1  0
  4 14  1  0
  5 15  1  0
  5 16  1  0
  7 17  1  0
  7 18  1  0
  7 19  1  0
  8 20  1  0
M  END
