
     RDKit          3D

 19 20  0  0  0  0  0  0  0  0999 V2000
    2.0576   -0.2329   -0.0565 C   0  0  0  0  0  0  0  0  0  0  0  0
    0.6396   -0.0841    0.4662 C   0  0  0  0  0  0  0  0  0  0  0  0
   -0.0951   -1.3847    0.5371 C   0  0  0  0  0  0  0  0  0  0  0  0
   -1.4068   -1.1542   -0.1812 C   0  0  0  0  0  0  0  0  0  0  0  0
   -1.2623   -1.0913   -1.5706 O   0  0  0  0  0  0  0  0  0  0  0  0
   -1.3691    0.0805   -0.8704 C   0  0  0  0  0  0  0  0  0  0  0  0
   -0.1617    0.8376   -0.4079 C   0  0  0  0  0  0  0  0  0  0  0  0
   -0.6562    1.9942    0.3954 C   0  0  0  0  0  0  0  0  0  0  0  0
   -1.6957    2.5303    0.0373 O   0  0  0  0  0  0  0  0  0  0  0  0
    2.4948    0.7988   -0.0515 H   0  0  0  0  0  0  0  0  0  0  0  0
    2.1002   -0.6467   -1.0714 H   0  0  0  0  0  0  0  0  0  0  0  0
    2.6595   -0.8320    0.6290 H   0  0  0  0  0  0  0  0  0  0  0  0
    0.7342    0.3004    1.5104 H   0  0  0  0  0  0  0  0  0  0  0  0
   -0.2631   -1.7616    1.5455 H   0  0  0  0  0  0  0  0  0  0  0  0
    0.5025   -2.1334   -0.0412 H   0  0  0  0  0  0  0  0  0  0  0  0
   -2.3450   -1.5321    0.2551 H   0  0  0  0  0  0  0  0  0  0  0  0
   -2.2328    0.7026   -1.1224 H   0  0  0  0  0  0  0  0  0  0  0  0
    0.4399    1.2535   -1.2530 H   0  0  0  0  0  0  0  0  0  0  0  0
   -0.1406    2.3552    1.2502 H   0  0  0  0  0  0  0  0  0  0  0  0
  1  2  1  0
  2  3  1  0
  3  4  1  0
  4  5  1  0
  5  6  1  0
  6  7  1  0
  7  8  1  0
  8  9  2  0
  7  2  1  0
  6  4  1  0
  1 10  1  0
  1 11  1  0
  1 12  1  0
  2 13  1  0
  3 14  1  0
  3 15  1  0
  4 16  1  0
  6 17  1  0
  7 18  1  0
  8 19  1  0
M  END
