
     RDKit          3D

 20 20  0  0  0  0  0  0  0  0999 V2000
   -2.2019    1.0988   -0.0614 C   0  0  0  0  0  0  0  0  0  0  0  0
   -1.1861    0.1781   -0.6796 C   0  0  0  0  0  0  0  0  0  0  0  0
    0.1638    0.7534   -0.4063 C   0  0  0  0  0  0  0  0  0  0  0  0
    1.0158   -0.2056   -0.0676 C   0  0  0  0  0  0  0  0  0  0  0  0
    2.4425    0.0235    0.2689 C   0  0  0  0  0  0  0  0  0  0  0  0
    2.7516    1.3776    0.1777 O   0  0  0  0  0  0  0  0  0  0  0  0
    0.3276   -1.5193   -0.0784 C   0  0  0  0  0  0  0  0  0  0  0  0
   -1.1598   -1.1863   -0.0650 C   0  0  0  0  0  0  0  0  0  0  0  0
   -1.8626    2.1446   -0.2829 H   0  0  0  0  0  0  0  0  0  0  0  0
   -2.1566    0.9808    1.0239 H   0  0  0  0  0  0  0  0  0  0  0  0
   -3.2236    0.9364   -0.4335 H   0  0  0  0  0  0  0  0  0  0  0  0
   -1.2977    0.0952   -1.7846 H   0  0  0  0  0  0  0  0  0  0  0  0
    0.3509    1.8261   -0.4934 H   0  0  0  0  0  0  0  0  0  0  0  0
    3.1239   -0.5657   -0.4121 H   0  0  0  0  0  0  0  0  0  0  0  0
    2.6778   -0.3411    1.2883 H   0  0  0  0  0  0  0  0  0  0  0  0
    2.3889    1.7299   -0.6697 H   0  0  0  0  0  0  0  0  0  0  0  0
    0.5738   -2.0514   -1.0134 H   0  0  0  0  0  0  0  0  0  0  0  0
    0.5472   -2.1301    0.8140 H   0  0  0  0  0  0  0  0  0  0  0  0
   -1.6926   -1.9275   -0.7087 H   0  0  0  0  0  0  0  0  0  0  0  0
   -1.5825   -1.2174    0.9472 H   0  0  0  0  0  0  0  0  0  0  0  0
  1  2  1  0
  2  3  1  0
  3  4  2  0
  4  5  1  0
  5  6  1  0
  4  7  1  0
  7  8  1  0
  8  2  1  0
  1  9  1  0
  1 10  1  0
  1 11  1  0
  2 12  1  0
  3 13  1  0
  5 14  1  0
  5 15  1  0
  6 16  1  0
  7 17  1  0
  7 18  1  0
  8 19  1  0
  8 20  1  0
M  END
