
     RDKit          3D

 21 22  0  0  0  0  0  0  0  0999 V2000
    2.4257    0.8580    0.1895 C   0  0  0  0  0  0  0  0  0  0  0  0
    1.2901   -0.0705   -0.1706 C   0  0  0  0  0  0  0  0  0  0  0  0
    0.6826    0.2388   -1.4684 C   0  0  0  0  0  0  0  0  0  0  0  0
   -0.6253    0.2015   -1.3549 C   0  0  0  0  0  0  0  0  0  0  0  0
   -1.1122   -0.1223   -0.0273 C   0  0  0  0  0  0  0  0  0  0  0  0
   -2.2726    0.7300    0.4607 C   0  0  0  0  0  0  0  0  0  0  0  0
   -0.7314   -1.2862    0.7773 C   0  0  0  0  0  0  0  0  0  0  0  0
   -0.1417   -2.4096    0.2514 O   0  0  0  0  0  0  0  0  0  0  0  0
    0.1804   -0.0651    0.8015 C   0  0  0  0  0  0  0  0  0  0  0  0
    2.6742    0.7129    1.2594 H   0  0  0  0  0  0  0  0  0  0  0  0
    3.3204    0.5159   -0.3908 H   0  0  0  0  0  0  0  0  0  0  0  0
    2.2368    1.9069   -0.0861 H   0  0  0  0  0  0  0  0  0  0  0  0
    1.7342   -1.0999   -0.2672 H   0  0  0  0  0  0  0  0  0  0  0  0
    1.2392    0.4739   -2.4224 H   0  0  0  0  0  0  0  0  0  0  0  0
   -1.3200    0.3993   -2.1970 H   0  0  0  0  0  0  0  0  0  0  0  0
   -2.7342    1.3086   -0.3742 H   0  0  0  0  0  0  0  0  0  0  0  0
   -1.9307    1.4678    1.2061 H   0  0  0  0  0  0  0  0  0  0  0  0
   -3.0650    0.0945    0.8816 H   0  0  0  0  0  0  0  0  0  0  0  0
   -1.2929   -1.4114    1.7338 H   0  0  0  0  0  0  0  0  0  0  0  0
   -0.7394   -3.0304   -0.1970 H   0  0  0  0  0  0  0  0  0  0  0  0
    0.1818    0.5872    1.6929 H   0  0  0  0  0  0  0  0  0  0  0  0
  1  2  1  0
  2  3  1  0
  3  4  2  0
  4  5  1  0
  5  6  1  0
  5  7  1  0
  7  8  1  0
  7  9  1  0
  9  2  1  0
  9  5  1  0
  1 10  1  0
  1 11  1  0
  1 12  1  0
  2 13  1  0
  3 14  1  0
  4 15  1  0
  6 16  1  0
  6 17  1  0
  6 18  1  0
  7 19  1  0
  8 20  1  0
  9 21  1  0
M  END
