
     RDKit          3D

 21 22  0  0  0  0  0  0  0  0999 V2000
    2.8437    0.3650    0.3021 C   0  0  0  0  0  0  0  0  0  0  0  0
    1.6222   -0.3608   -0.2713 C   0  0  0  0  0  0  0  0  0  0  0  0
    0.6426   -0.7193    0.8245 C   0  0  0  0  0  0  0  0  0  0  0  0
   -0.3176    0.2784    0.9855 O   0  0  0  0  0  0  0  0  0  0  0  0
   -1.1498    0.2573   -0.1095 C   0  0  0  0  0  0  0  0  0  0  0  0
   -2.3786   -0.5720   -0.1495 C   0  0  0  0  0  0  0  0  0  0  0  0
   -2.4534    0.9212    0.0006 C   0  0  0  0  0  0  0  0  0  0  0  0
   -0.3224    0.2738   -1.3536 C   0  0  0  0  0  0  0  0  0  0  0  0
    1.0166    0.5029   -1.1461 O   0  0  0  0  0  0  0  0  0  0  0  0
    3.3566   -0.2238    1.0656 H   0  0  0  0  0  0  0  0  0  0  0  0
    3.4996    0.5779   -0.5828 H   0  0  0  0  0  0  0  0  0  0  0  0
    2.5375    1.3771    0.6770 H   0  0  0  0  0  0  0  0  0  0  0  0
    2.0190   -1.2672   -0.7946 H   0  0  0  0  0  0  0  0  0  0  0  0
    0.0809   -1.6324    0.5022 H   0  0  0  0  0  0  0  0  0  0  0  0
    1.1430   -0.9797    1.7787 H   0  0  0  0  0  0  0  0  0  0  0  0
   -2.6227   -1.2363    0.7011 H   0  0  0  0  0  0  0  0  0  0  0  0
   -2.7503   -0.9408   -1.1304 H   0  0  0  0  0  0  0  0  0  0  0  0
   -2.7286    1.3406    1.0081 H   0  0  0  0  0  0  0  0  0  0  0  0
   -2.8805    1.5411   -0.8214 H   0  0  0  0  0  0  0  0  0  0  0  0
   -0.7002    1.1269   -1.9843 H   0  0  0  0  0  0  0  0  0  0  0  0
   -0.4576   -0.6297   -1.9916 H   0  0  0  0  0  0  0  0  0  0  0  0
  1  2  1  0
  2  3  1  0
  3  4  1  0
  4  5  1  0
  5  6  1  0
  6  7  1  0
  5  8  1  0
  8  9  1  0
  9  2  1  0
  7  5  1  0
  1 10  1  0
  1 11  1  0
  1 12  1  0
  2 13  1  0
  3 14  1  0
  3 15  1  0
  6 16  1  0
  6 17  1  0
  7 18  1  0
  7 19  1  0
  8 20  1  0
  8 21  1  0
M  END
