
     RDKit          3D

 18 18  0  0  0  0  0  0  0  0999 V2000
   -1.4410    1.0116    0.5846 C   0  0  0  0  0  0  0  0  0  0  0  0
   -1.1423   -0.2786   -0.0851 C   0  0  0  0  0  0  0  0  0  0  0  0
   -0.3086   -0.1297   -1.3802 C   0  0  0  0  0  0  0  0  0  0  0  0
    0.2096   -0.8544   -0.2196 C   0  0  0  0  0  0  0  0  0  0  0  0
    0.1777   -2.2750   -0.4279 O   0  0  0  0  0  0  0  0  0  0  0  0
    1.3715   -0.4436    0.6046 C   0  0  0  0  0  0  0  0  0  0  0  0
    1.7955    0.9575    0.5452 C   0  0  0  0  0  0  0  0  0  0  0  0
    1.3110    1.8440   -0.0984 O   0  0  0  0  0  0  0  0  0  0  0  0
   -2.5065    0.9765    0.9472 H   0  0  0  0  0  0  0  0  0  0  0  0
   -1.4219    1.9045   -0.0730 H   0  0  0  0  0  0  0  0  0  0  0  0
   -0.8253    1.2259    1.4863 H   0  0  0  0  0  0  0  0  0  0  0  0
   -2.0296   -0.9700   -0.1847 H   0  0  0  0  0  0  0  0  0  0  0  0
   -0.7417   -0.6625   -2.2659 H   0  0  0  0  0  0  0  0  0  0  0  0
    0.0638    0.8502   -1.6570 H   0  0  0  0  0  0  0  0  0  0  0  0
   -0.5649   -2.5162   -1.0106 H   0  0  0  0  0  0  0  0  0  0  0  0
    2.2484   -1.1441    0.3847 H   0  0  0  0  0  0  0  0  0  0  0  0
    1.1426   -0.7336    1.6875 H   0  0  0  0  0  0  0  0  0  0  0  0
    2.6616    1.2376    1.1621 H   0  0  0  0  0  0  0  0  0  0  0  0
  1  2  1  0
  2  3  1  0
  3  4  1  0
  4  5  1  0
  4  6  1  0
  6  7  1  0
  7  8  2  0
  4  2  1  0
  1  9  1  0
  1 10  1  0
  1 11  1  0
  2 12  1  0
  3 13  1  0
  3 14  1  0
  5 15  1  0
  6 16  1  0
  6 17  1  0
  7 18  1  0
M  END
