
     RDKit          3D

 21 22  0  0  0  0  0  0  0  0999 V2000
   -1.1649   -1.8598   -0.0355 C   0  0  0  0  0  0  0  0  0  0  0  0
   -0.5514   -0.6129    0.5515 C   0  0  0  0  0  0  0  0  0  0  0  0
   -1.5429    0.4909    0.7636 C   0  0  0  0  0  0  0  0  0  0  0  0
   -1.2556    1.4635   -0.3386 C   0  0  0  0  0  0  0  0  0  0  0  0
    0.0778    1.2880   -0.6401 O   0  0  0  0  0  0  0  0  0  0  0  0
    0.3978   -0.0375   -0.4577 C   0  0  0  0  0  0  0  0  0  0  0  0
    1.7952   -0.2004    0.0490 C   0  0  0  0  0  0  0  0  0  0  0  0
    2.7462    0.8423    0.0606 C   0  0  0  0  0  0  0  0  0  0  0  0
    2.0046    0.4559    1.3152 O   0  0  0  0  0  0  0  0  0  0  0  0
   -0.6926   -2.7707    0.3888 H   0  0  0  0  0  0  0  0  0  0  0  0
   -2.2508   -1.9355    0.1341 H   0  0  0  0  0  0  0  0  0  0  0  0
   -1.0176   -1.8877   -1.1372 H   0  0  0  0  0  0  0  0  0  0  0  0
   -0.0824   -0.8617    1.5170 H   0  0  0  0  0  0  0  0  0  0  0  0
   -2.5936    0.1421    0.7243 H   0  0  0  0  0  0  0  0  0  0  0  0
   -1.3674    1.0109    1.7274 H   0  0  0  0  0  0  0  0  0  0  0  0
   -1.9086    1.2845   -1.2342 H   0  0  0  0  0  0  0  0  0  0  0  0
   -1.3935    2.5166    0.0172 H   0  0  0  0  0  0  0  0  0  0  0  0
    0.3086   -0.5426   -1.4491 H   0  0  0  0  0  0  0  0  0  0  0  0
    2.1373   -1.2651    0.1379 H   0  0  0  0  0  0  0  0  0  0  0  0
    3.8396    0.5904    0.1750 H   0  0  0  0  0  0  0  0  0  0  0  0
    2.5142    1.8887   -0.1317 H   0  0  0  0  0  0  0  0  0  0  0  0
  1  2  1  0
  2  3  1  0
  3  4  1  0
  4  5  1  0
  5  6  1  0
  6  7  1  0
  7  8  1  0
  8  9  1  0
  6  2  1  0
  9  7  1  0
  1 10  1  0
  1 11  1  0
  1 12  1  0
  2 13  1  0
  3 14  1  0
  3 15  1  0
  4 16  1  0
  4 17  1  0
  6 18  1  0
  7 19  1  0
  8 20  1  0
  8 21  1  0
M  END
