
     RDKit          3D

 23 23  0  0  0  0  0  0  0  0999 V2000
   -2.3667   -0.5126    0.2793 C   0  0  0  0  0  0  0  0  0  0  0  0
   -0.9756   -0.4762   -0.3553 C   0  0  0  0  0  0  0  0  0  0  0  0
   -0.0482   -1.3263    0.4433 C   0  0  0  0  0  0  0  0  0  0  0  0
    1.3040   -1.3111   -0.2682 C   0  0  0  0  0  0  0  0  0  0  0  0
    2.0822   -0.2037    0.3474 C   0  0  0  0  0  0  0  0  0  0  0  0
    1.6120    1.0042    0.6412 C   0  0  0  0  0  0  0  0  0  0  0  0
    0.2459    1.5745    0.4524 C   0  0  0  0  0  0  0  0  0  0  0  0
   -0.5095    0.8902   -0.6509 C   0  0  0  0  0  0  0  0  0  0  0  0
    0.2759    0.9905   -1.8086 O   0  0  0  0  0  0  0  0  0  0  0  0
   -2.9349   -1.4016   -0.0846 H   0  0  0  0  0  0  0  0  0  0  0  0
   -2.2733   -0.6518    1.3926 H   0  0  0  0  0  0  0  0  0  0  0  0
   -2.9009    0.3974    0.0023 H   0  0  0  0  0  0  0  0  0  0  0  0
   -1.1064   -1.0048   -1.3466 H   0  0  0  0  0  0  0  0  0  0  0  0
    0.0765   -1.0143    1.4868 H   0  0  0  0  0  0  0  0  0  0  0  0
   -0.4368   -2.3628    0.4374 H   0  0  0  0  0  0  0  0  0  0  0  0
    1.7598   -2.2919   -0.1389 H   0  0  0  0  0  0  0  0  0  0  0  0
    1.1491   -1.1336   -1.3732 H   0  0  0  0  0  0  0  0  0  0  0  0
    3.1056   -0.3920    0.5736 H   0  0  0  0  0  0  0  0  0  0  0  0
    2.3317    1.6847    1.0887 H   0  0  0  0  0  0  0  0  0  0  0  0
    0.4090    2.6314    0.1044 H   0  0  0  0  0  0  0  0  0  0  0  0
   -0.3187    1.6587    1.3943 H   0  0  0  0  0  0  0  0  0  0  0  0
   -1.4114    1.5327   -0.8591 H   0  0  0  0  0  0  0  0  0  0  0  0
    0.9306    1.7182   -1.7581 H   0  0  0  0  0  0  0  0  0  0  0  0
  1  2  1  0
  2  3  1  0
  3  4  1  0
  4  5  1  0
  5  6  2  0
  6  7  1  0
  7  8  1  0
  8  9  1  0
  8  2  1  0
  1 10  1  0
  1 11  1  0
  1 12  1  0
  2 13  1  0
  3 14  1  0
  3 15  1  0
  4 16  1  0
  4 17  1  0
  5 18  1  0
  6 19  1  0
  7 20  1  0
  7 21  1  0
  8 22  1  0
  9 23  1  0
M  END
