
     RDKit          3D

 21 22  0  0  0  0  0  0  0  0999 V2000
   -2.1053    0.0436   -0.1813 C   0  0  0  0  0  0  0  0  0  0  0  0
   -0.7220    0.3301    0.3048 C   0  0  0  0  0  0  0  0  0  0  0  0
   -0.3225    1.7658   -0.0269 C   0  0  0  0  0  0  0  0  0  0  0  0
    0.9422    1.9779    0.5326 O   0  0  0  0  0  0  0  0  0  0  0  0
    1.8643    1.1523   -0.0755 C   0  0  0  0  0  0  0  0  0  0  0  0
    1.2926    0.1823   -0.8843 O   0  0  0  0  0  0  0  0  0  0  0  0
    0.3306   -0.5711   -0.2091 C   0  0  0  0  0  0  0  0  0  0  0  0
    0.8313   -1.6516    0.7208 C   0  0  0  0  0  0  0  0  0  0  0  0
    0.1455   -1.9655   -0.5777 C   0  0  0  0  0  0  0  0  0  0  0  0
   -2.4887   -0.8909    0.2408 H   0  0  0  0  0  0  0  0  0  0  0  0
   -2.7680    0.8587    0.2155 H   0  0  0  0  0  0  0  0  0  0  0  0
   -2.2012    0.1015   -1.2829 H   0  0  0  0  0  0  0  0  0  0  0  0
   -0.7364    0.2688    1.4155 H   0  0  0  0  0  0  0  0  0  0  0  0
   -1.0770    2.4357    0.4025 H   0  0  0  0  0  0  0  0  0  0  0  0
   -0.2737    1.9130   -1.1197 H   0  0  0  0  0  0  0  0  0  0  0  0
    2.4713    1.8056   -0.7619 H   0  0  0  0  0  0  0  0  0  0  0  0
    2.5714    0.7381    0.6676 H   0  0  0  0  0  0  0  0  0  0  0  0
    0.2995   -1.8628    1.6631 H   0  0  0  0  0  0  0  0  0  0  0  0
    1.9251   -1.7206    0.8085 H   0  0  0  0  0  0  0  0  0  0  0  0
   -0.7953   -2.5292   -0.4807 H   0  0  0  0  0  0  0  0  0  0  0  0
    0.8165   -2.3817   -1.3716 H   0  0  0  0  0  0  0  0  0  0  0  0
  1  2  1  0
  2  3  1  0
  3  4  1  0
  4  5  1  0
  5  6  1  0
  6  7  1  0
  7  8  1  0
  8  9  1  0
  7  2  1  0
  9  7  1  0
  1 10  1  0
  1 11  1  0
  1 12  1  0
  2 13  1  0
  3 14  1  0
  3 15  1  0
  5 16  1  0
  5 17  1  0
  8 18  1  0
  8 19  1  0
  9 20  1  0
  9 21  1  0
M  END
