
     RDKit          3D

 21 23  0  0  0  0  0  0  0  0999 V2000
    2.1286   -0.0466   -0.3607 C   0  0  0  0  0  0  0  0  0  0  0  0
    0.9540    0.1209    0.5596 C   0  0  0  0  0  0  0  0  0  0  0  0
    0.2168   -1.1644    0.9012 C   0  0  0  0  0  0  0  0  0  0  0  0
    0.1594   -1.9877   -0.1922 O   0  0  0  0  0  0  0  0  0  0  0  0
   -0.8368   -1.6002   -1.0429 C   0  0  0  0  0  0  0  0  0  0  0  0
   -1.3790   -0.2692   -0.5114 C   0  0  0  0  0  0  0  0  0  0  0  0
   -1.0337   -0.3557    0.8987 C   0  0  0  0  0  0  0  0  0  0  0  0
   -0.3056    0.6390   -0.0356 C   0  0  0  0  0  0  0  0  0  0  0  0
   -0.6774    2.0837    0.0576 C   0  0  0  0  0  0  0  0  0  0  0  0
    2.8500   -0.7282    0.1801 H   0  0  0  0  0  0  0  0  0  0  0  0
    1.8714   -0.4516   -1.3427 H   0  0  0  0  0  0  0  0  0  0  0  0
    2.6485    0.9340   -0.4011 H   0  0  0  0  0  0  0  0  0  0  0  0
    1.2306    0.6598    1.4685 H   0  0  0  0  0  0  0  0  0  0  0  0
    0.4656   -1.6052    1.8714 H   0  0  0  0  0  0  0  0  0  0  0  0
   -1.7120   -2.3091   -1.0459 H   0  0  0  0  0  0  0  0  0  0  0  0
   -0.5363   -1.5029   -2.1021 H   0  0  0  0  0  0  0  0  0  0  0  0
   -2.3339    0.1059   -0.8223 H   0  0  0  0  0  0  0  0  0  0  0  0
   -1.4815    0.1139    1.7405 H   0  0  0  0  0  0  0  0  0  0  0  0
   -1.5416    2.2613    0.7501 H   0  0  0  0  0  0  0  0  0  0  0  0
    0.2169    2.6724    0.4100 H   0  0  0  0  0  0  0  0  0  0  0  0
   -0.9040    2.4299   -0.9805 H   0  0  0  0  0  0  0  0  0  0  0  0
  1  2  1  0
  2  3  1  0
  3  4  1  0
  4  5  1  0
  5  6  1  0
  6  7  1  0
  7  8  1  0
  8  9  1  0
  8  2  1  0
  7  3  1  0
  8  6  1  0
  1 10  1  0
  1 11  1  0
  1 12  1  0
  2 13  1  0
  3 14  1  0
  5 15  1  0
  5 16  1  0
  6 17  1  0
  7 18  1  0
  9 19  1  0
  9 20  1  0
  9 21  1  0
M  END
