
     RDKit          3D

 23 24  0  0  0  0  0  0  0  0999 V2000
   -2.5925   -0.1002    0.1320 C   0  0  0  0  0  0  0  0  0  0  0  0
   -1.3525   -0.5047   -0.6024 C   0  0  0  0  0  0  0  0  0  0  0  0
   -0.5672   -1.5117    0.2251 C   0  0  0  0  0  0  0  0  0  0  0  0
    0.5267   -0.5013    0.3375 C   0  0  0  0  0  0  0  0  0  0  0  0
    1.0877   -0.1470    1.5223 O   0  0  0  0  0  0  0  0  0  0  0  0
    1.8549   -0.7599    0.4796 C   0  0  0  0  0  0  0  0  0  0  0  0
    2.9157    0.1358   -0.1638 C   0  0  0  0  0  0  0  0  0  0  0  0
   -0.1969    0.4523   -0.5449 C   0  0  0  0  0  0  0  0  0  0  0  0
   -0.4829    1.8152    0.0004 C   0  0  0  0  0  0  0  0  0  0  0  0
   -3.3906    0.0621   -0.6288 H   0  0  0  0  0  0  0  0  0  0  0  0
   -2.9389   -0.9637    0.7506 H   0  0  0  0  0  0  0  0  0  0  0  0
   -2.4626    0.7421    0.8222 H   0  0  0  0  0  0  0  0  0  0  0  0
   -1.5241   -0.9087   -1.6180 H   0  0  0  0  0  0  0  0  0  0  0  0
   -1.0252   -1.8006    1.1784 H   0  0  0  0  0  0  0  0  0  0  0  0
   -0.2353   -2.4052   -0.3533 H   0  0  0  0  0  0  0  0  0  0  0  0
    2.2768   -1.7709    0.7169 H   0  0  0  0  0  0  0  0  0  0  0  0
    3.3189   -0.4482   -1.0155 H   0  0  0  0  0  0  0  0  0  0  0  0
    2.4038    1.0196   -0.6263 H   0  0  0  0  0  0  0  0  0  0  0  0
    3.6691    0.4568    0.5618 H   0  0  0  0  0  0  0  0  0  0  0  0
    0.3437    0.5436   -1.5291 H   0  0  0  0  0  0  0  0  0  0  0  0
   -1.4455    2.2023   -0.3902 H   0  0  0  0  0  0  0  0  0  0  0  0
   -0.4895    1.8675    1.1071 H   0  0  0  0  0  0  0  0  0  0  0  0
    0.3066    2.5249   -0.3615 H   0  0  0  0  0  0  0  0  0  0  0  0
  1  2  1  0
  2  3  1  0
  3  4  1  0
  4  5  1  0
  5  6  1  0
  6  7  1  0
  4  8  1  0
  8  9  1  0
  8  2  1  0
  6  4  1  0
  1 10  1  0
  1 11  1  0
  1 12  1  0
  2 13  1  0
  3 14  1  0
  3 15  1  0
  6 16  1  0
  7 17  1  0
  7 18  1  0
  7 19  1  0
  8 20  1  0
  9 21  1  0
  9 22  1  0
  9 23  1  0
M  END
