
     RDKit          3D

 17 17  0  0  0  0  0  0  0  0999 V2000
   -2.4485   -0.9477   -0.3402 C   0  0  0  0  0  0  0  0  0  0  0  0
   -1.0003   -0.9371    0.0078 C   0  0  0  0  0  0  0  0  0  0  0  0
   -0.6840   -0.4212    1.3000 O   0  0  0  0  0  0  0  0  0  0  0  0
   -0.1818    0.2619    0.1074 C   0  0  0  0  0  0  0  0  0  0  0  0
   -0.7173    1.6497    0.0356 C   0  0  0  0  0  0  0  0  0  0  0  0
    1.2756    0.1095   -0.0416 C   0  0  0  0  0  0  0  0  0  0  0  0
    2.4684   -0.0336   -0.1681 C   0  0  0  0  0  0  0  0  0  0  0  0
    3.8928   -0.1975   -0.2973 C   0  0  0  0  0  0  0  0  0  0  0  0
    4.4118   -0.8478   -1.2502 O   0  0  0  0  0  0  0  0  0  0  0  0
   -2.8788   -1.9121    0.0302 H   0  0  0  0  0  0  0  0  0  0  0  0
   -2.6499   -0.8995   -1.4148 H   0  0  0  0  0  0  0  0  0  0  0  0
   -3.0201   -0.1451    0.1609 H   0  0  0  0  0  0  0  0  0  0  0  0
   -0.4741   -1.8933   -0.1840 H   0  0  0  0  0  0  0  0  0  0  0  0
   -0.3462    2.2058    0.9256 H   0  0  0  0  0  0  0  0  0  0  0  0
   -1.8401    1.5997    0.0777 H   0  0  0  0  0  0  0  0  0  0  0  0
   -0.3658    2.1707   -0.8657 H   0  0  0  0  0  0  0  0  0  0  0  0
    4.5583    0.2376    0.4272 H   0  0  0  0  0  0  0  0  0  0  0  0
  1  2  1  0
  2  3  1  0
  3  4  1  0
  4  5  1  0
  4  6  1  0
  6  7  3  0
  7  8  1  0
  8  9  2  0
  4  2  1  0
  1 10  1  0
  1 11  1  0
  1 12  1  0
  2 13  1  0
  5 14  1  0
  5 15  1  0
  5 16  1  0
  8 17  1  0
M  END
