
     RDKit          3D

 21 22  0  0  0  0  0  0  0  0999 V2000
   -1.6867   -2.0751    0.1647 C   0  0  0  0  0  0  0  0  0  0  0  0
   -0.9802   -0.9886   -0.6324 C   0  0  0  0  0  0  0  0  0  0  0  0
   -1.6606    0.2133   -0.6915 O   0  0  0  0  0  0  0  0  0  0  0  0
   -0.8680    0.7255    0.3072 C   0  0  0  0  0  0  0  0  0  0  0  0
   -0.3045    2.1017    0.0495 C   0  0  0  0  0  0  0  0  0  0  0  0
    0.1262   -0.3984    0.1806 C   0  0  0  0  0  0  0  0  0  0  0  0
    1.3621   -0.0978   -0.5987 C   0  0  0  0  0  0  0  0  0  0  0  0
    2.4978    0.4970    0.1843 C   0  0  0  0  0  0  0  0  0  0  0  0
    2.4884   -0.8494   -0.2059 O   0  0  0  0  0  0  0  0  0  0  0  0
   -2.2888   -2.6686   -0.5214 H   0  0  0  0  0  0  0  0  0  0  0  0
   -2.2615   -1.5690    0.9683 H   0  0  0  0  0  0  0  0  0  0  0  0
   -0.8884   -2.6674    0.6741 H   0  0  0  0  0  0  0  0  0  0  0  0
   -0.6842   -1.3337   -1.6546 H   0  0  0  0  0  0  0  0  0  0  0  0
   -1.3811    0.7008    1.2862 H   0  0  0  0  0  0  0  0  0  0  0  0
    0.3734    2.3380    0.9001 H   0  0  0  0  0  0  0  0  0  0  0  0
   -1.1555    2.8117    0.1074 H   0  0  0  0  0  0  0  0  0  0  0  0
    0.2005    2.1790   -0.9290 H   0  0  0  0  0  0  0  0  0  0  0  0
    0.3285   -0.8987    1.1502 H   0  0  0  0  0  0  0  0  0  0  0  0
    1.3012    0.0582   -1.6845 H   0  0  0  0  0  0  0  0  0  0  0  0
    2.3265    0.7101    1.2619 H   0  0  0  0  0  0  0  0  0  0  0  0
    3.1549    1.2115   -0.3166 H   0  0  0  0  0  0  0  0  0  0  0  0
  1  2  1  0
  2  3  1  0
  3  4  1  0
  4  5  1  0
  4  6  1  0
  6  7  1  0
  7  8  1  0
  8  9  1  0
  6  2  1  0
  9  7  1  0
  1 10  1  0
  1 11  1  0
  1 12  1  0
  2 13  1  0
  4 14  1  0
  5 15  1  0
  5 16  1  0
  5 17  1  0
  6 18  1  0
  7 19  1  0
  8 20  1  0
  8 21  1  0
M  END
