
     RDKit          3D

 17 17  0  0  0  0  0  0  0  0999 V2000
    2.0071   -0.1725    0.4452 C   0  0  0  0  0  0  0  0  0  0  0  0
    0.7273    0.3858   -0.0677 C   0  0  0  0  0  0  0  0  0  0  0  0
   -0.1284    0.8283    0.9684 O   0  0  0  0  0  0  0  0  0  0  0  0
   -1.3063    1.0594    0.2658 C   0  0  0  0  0  0  0  0  0  0  0  0
   -1.4374   -0.0637   -0.7442 C   0  0  0  0  0  0  0  0  0  0  0  0
   -0.1219   -0.7934   -0.5636 C   0  0  0  0  0  0  0  0  0  0  0  0
   -0.2426   -1.6597    0.5153 O   0  0  0  0  0  0  0  0  0  0  0  0
    2.2929   -1.0281   -0.2213 H   0  0  0  0  0  0  0  0  0  0  0  0
    1.8469   -0.6149    1.4440 H   0  0  0  0  0  0  0  0  0  0  0  0
    2.8424    0.5652    0.4239 H   0  0  0  0  0  0  0  0  0  0  0  0
    0.8288    1.1654   -0.8351 H   0  0  0  0  0  0  0  0  0  0  0  0
   -1.1994    2.0515   -0.2170 H   0  0  0  0  0  0  0  0  0  0  0  0
   -2.1575    1.0416    0.9818 H   0  0  0  0  0  0  0  0  0  0  0  0
   -2.2723   -0.7361   -0.4724 H   0  0  0  0  0  0  0  0  0  0  0  0
   -1.5385    0.3417   -1.7843 H   0  0  0  0  0  0  0  0  0  0  0  0
    0.2682   -1.2406   -1.4684 H   0  0  0  0  0  0  0  0  0  0  0  0
   -0.4093   -1.1299    1.3296 H   0  0  0  0  0  0  0  0  0  0  0  0
  1  2  1  0
  2  3  1  0
  3  4  1  0
  4  5  1  0
  5  6  1  0
  6  7  1  0
  6  2  1  0
  1  8  1  0
  1  9  1  0
  1 10  1  0
  2 11  1  0
  4 12  1  0
  4 13  1  0
  5 14  1  0
  5 15  1  0
  6 16  1  0
  7 17  1  0
M  END
