
     RDKit          3D

 21 22  0  0  0  0  0  0  0  0999 V2000
    2.4793    1.0772    0.1510 C   0  0  0  0  0  0  0  0  0  0  0  0
    1.2785    0.2278   -0.1502 C   0  0  0  0  0  0  0  0  0  0  0  0
    1.5751   -1.1233   -0.2526 O   0  0  0  0  0  0  0  0  0  0  0  0
    0.4102   -1.8436   -0.3796 C   0  0  0  0  0  0  0  0  0  0  0  0
   -0.7938   -1.0003   -0.7116 C   0  0  0  0  0  0  0  0  0  0  0  0
   -1.8179   -0.9378    0.4056 C   0  0  0  0  0  0  0  0  0  0  0  0
   -0.9378    0.2119    0.1431 C   0  0  0  0  0  0  0  0  0  0  0  0
   -1.5625    1.4676   -0.3631 C   0  0  0  0  0  0  0  0  0  0  0  0
    0.2682    0.3852    0.8267 O   0  0  0  0  0  0  0  0  0  0  0  0
    3.1022    0.6310    0.9517 H   0  0  0  0  0  0  0  0  0  0  0  0
    3.0936    1.1887   -0.7434 H   0  0  0  0  0  0  0  0  0  0  0  0
    2.1262    2.0868    0.4384 H   0  0  0  0  0  0  0  0  0  0  0  0
    0.9014    0.5400   -1.1598 H   0  0  0  0  0  0  0  0  0  0  0  0
    0.2771   -2.4108    0.5855 H   0  0  0  0  0  0  0  0  0  0  0  0
    0.4767   -2.6309   -1.1616 H   0  0  0  0  0  0  0  0  0  0  0  0
   -1.1337   -0.9116   -1.7636 H   0  0  0  0  0  0  0  0  0  0  0  0
   -2.8510   -0.8574    0.0396 H   0  0  0  0  0  0  0  0  0  0  0  0
   -1.6716   -1.5921    1.3027 H   0  0  0  0  0  0  0  0  0  0  0  0
   -0.8377    2.2042   -0.7725 H   0  0  0  0  0  0  0  0  0  0  0  0
   -2.3262    1.3183   -1.1476 H   0  0  0  0  0  0  0  0  0  0  0  0
   -2.0562    1.9692    0.5131 H   0  0  0  0  0  0  0  0  0  0  0  0
  1  2  1  0
  2  3  1  0
  3  4  1  0
  4  5  1  0
  5  6  1  0
  6  7  1  0
  7  8  1  0
  7  9  1  0
  9  2  1  0
  7  5  1  0
  1 10  1  0
  1 11  1  0
  1 12  1  0
  2 13  1  0
  4 14  1  0
  4 15  1  0
  5 16  1  0
  6 17  1  0
  6 18  1  0
  8 19  1  0
  8 20  1  0
  8 21  1  0
M  END
