
     RDKit          3D

 19 20  0  0  0  0  0  0  0  0999 V2000
    2.4305   -0.1260   -0.6445 C   0  0  0  0  0  0  0  0  0  0  0  0
    1.3802    0.4489    0.2921 C   0  0  0  0  0  0  0  0  0  0  0  0
    1.1195   -0.4101    1.4222 O   0  0  0  0  0  0  0  0  0  0  0  0
    0.1232   -0.1166    0.5153 C   0  0  0  0  0  0  0  0  0  0  0  0
   -0.4817   -1.2524   -0.2365 C   0  0  0  0  0  0  0  0  0  0  0  0
   -1.6783   -0.7200   -0.7399 O   0  0  0  0  0  0  0  0  0  0  0  0
   -2.2204   -0.0710    0.3813 C   0  0  0  0  0  0  0  0  0  0  0  0
   -1.0479    0.7204    0.9488 C   0  0  0  0  0  0  0  0  0  0  0  0
   -0.9777    1.9790    0.3783 O   0  0  0  0  0  0  0  0  0  0  0  0
    2.1033   -1.1043   -1.0427 H   0  0  0  0  0  0  0  0  0  0  0  0
    3.3776   -0.2036   -0.0552 H   0  0  0  0  0  0  0  0  0  0  0  0
    2.5244    0.6062   -1.4836 H   0  0  0  0  0  0  0  0  0  0  0  0
    1.6298    1.4714    0.6462 H   0  0  0  0  0  0  0  0  0  0  0  0
   -0.7551   -2.0748    0.4855 H   0  0  0  0  0  0  0  0  0  0  0  0
    0.1437   -1.6769   -1.0266 H   0  0  0  0  0  0  0  0  0  0  0  0
   -2.5515   -0.8532    1.0740 H   0  0  0  0  0  0  0  0  0  0  0  0
   -2.9851    0.6599    0.0996 H   0  0  0  0  0  0  0  0  0  0  0  0
   -1.1129    0.8495    2.0365 H   0  0  0  0  0  0  0  0  0  0  0  0
   -1.0218    1.8735   -0.6062 H   0  0  0  0  0  0  0  0  0  0  0  0
  1  2  1  0
  2  3  1  0
  3  4  1  0
  4  5  1  0
  5  6  1  0
  6  7  1  0
  7  8  1  0
  8  9  1  0
  4  2  1  0
  8  4  1  0
  1 10  1  0
  1 11  1  0
  1 12  1  0
  2 13  1  0
  5 14  1  0
  5 15  1  0
  7 16  1  0
  7 17  1  0
  8 18  1  0
  9 19  1  0
M  END
