
     RDKit          3D

 18 19  0  0  0  0  0  0  0  0999 V2000
    2.9108   -0.1539    0.2644 C   0  0  0  0  0  0  0  0  0  0  0  0
    1.7823   -0.0887   -0.7341 C   0  0  0  0  0  0  0  0  0  0  0  0
    1.2184    1.1123   -1.0783 O   0  0  0  0  0  0  0  0  0  0  0  0
    0.4192    0.3558   -0.2542 C   0  0  0  0  0  0  0  0  0  0  0  0
   -0.7279   -0.4264   -0.7751 C   0  0  0  0  0  0  0  0  0  0  0  0
   -1.6984    0.4225   -1.4179 O   0  0  0  0  0  0  0  0  0  0  0  0
   -2.0521   -0.4367   -0.2561 C   0  0  0  0  0  0  0  0  0  0  0  0
   -2.5007    0.4121    0.9014 C   0  0  0  0  0  0  0  0  0  0  0  0
    2.7697    0.6752    0.9983 H   0  0  0  0  0  0  0  0  0  0  0  0
    3.8488    0.0654   -0.2823 H   0  0  0  0  0  0  0  0  0  0  0  0
    2.9922   -1.1405    0.7362 H   0  0  0  0  0  0  0  0  0  0  0  0
    1.8463   -0.8685   -1.5207 H   0  0  0  0  0  0  0  0  0  0  0  0
    0.3651    0.5966    0.8359 H   0  0  0  0  0  0  0  0  0  0  0  0
   -0.4510   -1.2413   -1.4826 H   0  0  0  0  0  0  0  0  0  0  0  0
   -2.7369   -1.2593   -0.5254 H   0  0  0  0  0  0  0  0  0  0  0  0
   -3.2546   -0.1450    1.5094 H   0  0  0  0  0  0  0  0  0  0  0  0
   -1.6729    0.8066    1.5099 H   0  0  0  0  0  0  0  0  0  0  0  0
   -3.0580    1.3137    0.5186 H   0  0  0  0  0  0  0  0  0  0  0  0
  1  2  1  0
  2  3  1  0
  3  4  1  0
  4  5  1  0
  5  6  1  0
  6  7  1  0
  7  8  1  0
  4  2  1  0
  7  5  1  0
  1  9  1  0
  1 10  1  0
  1 11  1  0
  2 12  1  0
  4 13  1  0
  5 14  1  0
  7 15  1  0
  8 16  1  0
  8 17  1  0
  8 18  1  0
M  END
