
     RDKit          3D

 20 21  0  0  0  0  0  0  0  0999 V2000
    1.9230   -0.4786    0.8304 C   0  0  0  0  0  0  0  0  0  0  0  0
    1.0329   -0.1473   -0.3130 C   0  0  0  0  0  0  0  0  0  0  0  0
    1.1141    1.2216   -0.6832 O   0  0  0  0  0  0  0  0  0  0  0  0
   -0.1905    1.5990   -0.7602 C   0  0  0  0  0  0  0  0  0  0  0  0
   -0.9466    0.3921   -1.3358 C   0  0  0  0  0  0  0  0  0  0  0  0
   -0.4163   -0.2584   -0.0498 C   0  0  0  0  0  0  0  0  0  0  0  0
   -1.0497   -1.4403    0.4481 C   0  0  0  0  0  0  0  0  0  0  0  0
   -0.7335    1.0967    0.5866 C   0  0  0  0  0  0  0  0  0  0  0  0
    2.7803   -1.0907    0.4322 H   0  0  0  0  0  0  0  0  0  0  0  0
    1.4629   -1.0785    1.6250 H   0  0  0  0  0  0  0  0  0  0  0  0
    2.3814    0.4699    1.1955 H   0  0  0  0  0  0  0  0  0  0  0  0
    1.3180   -0.6993   -1.2427 H   0  0  0  0  0  0  0  0  0  0  0  0
   -0.4914    2.5615   -1.0784 H   0  0  0  0  0  0  0  0  0  0  0  0
   -2.0272    0.4813   -1.3113 H   0  0  0  0  0  0  0  0  0  0  0  0
   -0.4639    0.0178   -2.2327 H   0  0  0  0  0  0  0  0  0  0  0  0
   -1.5158   -2.0321   -0.3934 H   0  0  0  0  0  0  0  0  0  0  0  0
   -0.3570   -2.0654    1.0357 H   0  0  0  0  0  0  0  0  0  0  0  0
   -1.8964   -1.1812    1.1458 H   0  0  0  0  0  0  0  0  0  0  0  0
   -0.1126    1.3515    1.4507 H   0  0  0  0  0  0  0  0  0  0  0  0
   -1.8118    1.2806    0.6505 H   0  0  0  0  0  0  0  0  0  0  0  0
  1  2  1  0
  2  3  1  0
  3  4  1  0
  4  5  1  0
  5  6  1  0
  6  7  1  0
  6  8  1  0
  6  2  1  0
  8  4  1  0
  1  9  1  0
  1 10  1  0
  1 11  1  0
  2 12  1  0
  4 13  1  0
  5 14  1  0
  5 15  1  0
  7 16  1  0
  7 17  1  0
  7 18  1  0
  8 19  1  0
  8 20  1  0
M  END
