
     RDKit          3D

 19 19  0  0  0  0  0  0  0  0999 V2000
   -1.7884   -0.5867    0.5143 C   0  0  0  0  0  0  0  0  0  0  0  0
   -0.7247   -0.5640   -0.5164 C   0  0  0  0  0  0  0  0  0  0  0  0
   -0.1628   -1.8529   -0.6605 O   0  0  0  0  0  0  0  0  0  0  0  0
    1.0317   -1.2121   -0.9894 C   0  0  0  0  0  0  0  0  0  0  0  0
    0.6055   -0.0209   -0.1636 C   0  0  0  0  0  0  0  0  0  0  0  0
    1.0170   -0.0652    1.2773 C   0  0  0  0  0  0  0  0  0  0  0  0
    1.0114    1.1704   -0.7919 O   0  0  0  0  0  0  0  0  0  0  0  0
    0.2498    2.3002   -0.6172 C   0  0  0  0  0  0  0  0  0  0  0  0
   -0.8014    2.3562    0.0728 O   0  0  0  0  0  0  0  0  0  0  0  0
   -2.0109   -1.6284    0.8867 H   0  0  0  0  0  0  0  0  0  0  0  0
   -2.7391   -0.2242    0.0234 H   0  0  0  0  0  0  0  0  0  0  0  0
   -1.6311    0.0811    1.3761 H   0  0  0  0  0  0  0  0  0  0  0  0
   -1.0303   -0.2173   -1.5394 H   0  0  0  0  0  0  0  0  0  0  0  0
    1.9423   -1.7321   -0.6485 H   0  0  0  0  0  0  0  0  0  0  0  0
    1.0054   -0.9504   -2.0695 H   0  0  0  0  0  0  0  0  0  0  0  0
    1.2140   -1.0907    1.6454 H   0  0  0  0  0  0  0  0  0  0  0  0
    0.2935    0.4702    1.9279 H   0  0  0  0  0  0  0  0  0  0  0  0
    1.9732    0.5300    1.3674 H   0  0  0  0  0  0  0  0  0  0  0  0
    0.5450    3.2367   -1.0951 H   0  0  0  0  0  0  0  0  0  0  0  0
  1  2  1  0
  2  3  1  0
  3  4  1  0
  4  5  1  0
  5  6  1  0
  5  7  1  0
  7  8  1  0
  8  9  2  0
  5  2  1  0
  1 10  1  0
  1 11  1  0
  1 12  1  0
  2 13  1  0
  4 14  1  0
  4 15  1  0
  6 16  1  0
  6 17  1  0
  6 18  1  0
  8 19  1  0
M  END
