
     RDKit          3D

 21 22  0  0  0  0  0  0  0  0999 V2000
    2.2876   -0.4205    0.6202 C   0  0  0  0  0  0  0  0  0  0  0  0
    1.0391    0.1526    0.0210 C   0  0  0  0  0  0  0  0  0  0  0  0
    0.4102    0.9764    0.9576 O   0  0  0  0  0  0  0  0  0  0  0  0
   -0.5388    1.7111    0.2125 C   0  0  0  0  0  0  0  0  0  0  0  0
   -1.6176    0.6930   -0.1804 C   0  0  0  0  0  0  0  0  0  0  0  0
   -0.9749   -0.1428   -1.2998 C   0  0  0  0  0  0  0  0  0  0  0  0
    0.0455   -0.8791   -0.4154 C   0  0  0  0  0  0  0  0  0  0  0  0
   -0.8958   -1.2169    0.7456 C   0  0  0  0  0  0  0  0  0  0  0  0
   -1.7604   -0.1630    0.8818 O   0  0  0  0  0  0  0  0  0  0  0  0
    2.8914   -0.9153   -0.1733 H   0  0  0  0  0  0  0  0  0  0  0  0
    2.8949    0.4327    0.9951 H   0  0  0  0  0  0  0  0  0  0  0  0
    2.0794   -1.1160    1.4643 H   0  0  0  0  0  0  0  0  0  0  0  0
    1.3360    0.7340   -0.8767 H   0  0  0  0  0  0  0  0  0  0  0  0
   -0.9703    2.5311    0.8260 H   0  0  0  0  0  0  0  0  0  0  0  0
   -0.0807    2.1802   -0.6747 H   0  0  0  0  0  0  0  0  0  0  0  0
   -2.5310    1.1792   -0.5248 H   0  0  0  0  0  0  0  0  0  0  0  0
   -0.4998    0.4734   -2.0562 H   0  0  0  0  0  0  0  0  0  0  0  0
   -1.7142   -0.8640   -1.6482 H   0  0  0  0  0  0  0  0  0  0  0  0
    0.4590   -1.7561   -0.8963 H   0  0  0  0  0  0  0  0  0  0  0  0
   -1.5078   -2.0908    0.3709 H   0  0  0  0  0  0  0  0  0  0  0  0
   -0.3520   -1.4992    1.6507 H   0  0  0  0  0  0  0  0  0  0  0  0
  1  2  1  0
  2  3  1  0
  3  4  1  0
  4  5  1  0
  5  6  1  0
  6  7  1  0
  7  8  1  0
  8  9  1  0
  7  2  1  0
  9  5  1  0
  1 10  1  0
  1 11  1  0
  1 12  1  0
  2 13  1  0
  4 14  1  0
  4 15  1  0
  5 16  1  0
  6 17  1  0
  6 18  1  0
  7 19  1  0
  8 20  1  0
  8 21  1  0
M  END
