
     RDKit          3D

 19 20  0  0  0  0  0  0  0  0999 V2000
   -0.8141    1.7944   -0.9001 C   0  0  0  0  0  0  0  0  0  0  0  0
    0.0169    0.9317    0.0123 C   0  0  0  0  0  0  0  0  0  0  0  0
    1.2969    0.8455   -0.4786 O   0  0  0  0  0  0  0  0  0  0  0  0
    1.9165   -0.3794   -0.3807 C   0  0  0  0  0  0  0  0  0  0  0  0
    1.6192   -1.0823    0.9275 C   0  0  0  0  0  0  0  0  0  0  0  0
    0.3353   -1.0782    1.2335 C   0  0  0  0  0  0  0  0  0  0  0  0
   -0.5704   -0.4069    0.2751 C   0  0  0  0  0  0  0  0  0  0  0  0
   -1.8880   -0.8262    0.1220 C   0  0  0  0  0  0  0  0  0  0  0  0
   -0.8944   -1.2231   -0.8480 O   0  0  0  0  0  0  0  0  0  0  0  0
   -1.1336    1.2229   -1.7991 H   0  0  0  0  0  0  0  0  0  0  0  0
   -0.1577    2.6201   -1.2504 H   0  0  0  0  0  0  0  0  0  0  0  0
   -1.6597    2.2513   -0.3536 H   0  0  0  0  0  0  0  0  0  0  0  0
    0.0274    1.4707    1.0058 H   0  0  0  0  0  0  0  0  0  0  0  0
    1.5397   -1.0694   -1.1832 H   0  0  0  0  0  0  0  0  0  0  0  0
    3.0168   -0.2188   -0.4746 H   0  0  0  0  0  0  0  0  0  0  0  0
    2.3882   -1.5255    1.5192 H   0  0  0  0  0  0  0  0  0  0  0  0
   -0.0359   -1.5278    2.1140 H   0  0  0  0  0  0  0  0  0  0  0  0
   -2.3142   -1.6493    0.7330 H   0  0  0  0  0  0  0  0  0  0  0  0
   -2.6889   -0.1499   -0.2742 H   0  0  0  0  0  0  0  0  0  0  0  0
  1  2  1  0
  2  3  1  0
  3  4  1  0
  4  5  1  0
  5  6  2  0
  6  7  1  0
  7  8  1  0
  8  9  1  0
  7  2  1  0
  9  7  1  0
  1 10  1  0
  1 11  1  0
  1 12  1  0
  2 13  1  0
  4 14  1  0
  4 15  1  0
  5 16  1  0
  6 17  1  0
  8 18  1  0
  8 19  1  0
M  END
