
     RDKit          3D

 17 18  0  0  0  0  0  0  0  0999 V2000
    1.7849   -0.8955    0.2596 C   0  0  0  0  0  0  0  0  0  0  0  0
    1.2269    0.5080    0.1837 C   0  0  0  0  0  0  0  0  0  0  0  0
    0.6116    1.0178    1.3742 O   0  0  0  0  0  0  0  0  0  0  0  0
   -0.1660    0.8110    0.2161 C   0  0  0  0  0  0  0  0  0  0  0  0
   -0.6034    2.0358   -0.5108 C   0  0  0  0  0  0  0  0  0  0  0  0
   -0.6391    3.1173    0.1914 O   0  0  0  0  0  0  0  0  0  0  0  0
   -1.2433   -0.2250    0.2908 C   0  0  0  0  0  0  0  0  0  0  0  0
   -1.3318   -1.5162   -0.2600 C   0  0  0  0  0  0  0  0  0  0  0  0
   -1.8733   -0.3905   -1.0558 O   0  0  0  0  0  0  0  0  0  0  0  0
    2.8506   -0.7909    0.6234 H   0  0  0  0  0  0  0  0  0  0  0  0
    1.8006   -1.3038   -0.7767 H   0  0  0  0  0  0  0  0  0  0  0  0
    1.2663   -1.5557    0.9722 H   0  0  0  0  0  0  0  0  0  0  0  0
    1.9302    1.2037   -0.3072 H   0  0  0  0  0  0  0  0  0  0  0  0
   -0.8596    2.0553   -1.5337 H   0  0  0  0  0  0  0  0  0  0  0  0
   -2.0548    0.1007    1.0270 H   0  0  0  0  0  0  0  0  0  0  0  0
   -0.4897   -2.0400   -0.7166 H   0  0  0  0  0  0  0  0  0  0  0  0
   -2.2101   -2.1318    0.0225 H   0  0  0  0  0  0  0  0  0  0  0  0
  1  2  1  0
  2  3  1  0
  3  4  1  0
  4  5  1  0
  5  6  2  0
  4  7  1  0
  7  8  1  0
  8  9  1  0
  4  2  1  0
  9  7  1  0
  1 10  1  0
  1 11  1  0
  1 12  1  0
  2 13  1  0
  5 14  1  0
  7 15  1  0
  8 16  1  0
  8 17  1  0
M  END
