
     RDKit          3D

 19 19  0  0  0  0  0  0  0  0999 V2000
    1.9917   -0.3940   -0.4799 C   0  0  0  0  0  0  0  0  0  0  0  0
    0.9931    0.1762    0.4575 C   0  0  0  0  0  0  0  0  0  0  0  0
    0.7760   -0.6227    1.5777 O   0  0  0  0  0  0  0  0  0  0  0  0
   -0.6006   -0.7423    1.3209 C   0  0  0  0  0  0  0  0  0  0  0  0
   -0.4373    0.1318    0.1084 C   0  0  0  0  0  0  0  0  0  0  0  0
   -1.1265    1.4730    0.1742 C   0  0  0  0  0  0  0  0  0  0  0  0
   -0.8413   -0.6033   -1.1349 C   0  0  0  0  0  0  0  0  0  0  0  0
    2.6153    0.4264   -0.9372 H   0  0  0  0  0  0  0  0  0  0  0  0
    1.5543   -0.9403   -1.3235 H   0  0  0  0  0  0  0  0  0  0  0  0
    2.7506   -1.0622    0.0197 H   0  0  0  0  0  0  0  0  0  0  0  0
    1.3074    1.1959    0.8120 H   0  0  0  0  0  0  0  0  0  0  0  0
   -0.8021   -1.8210    1.0782 H   0  0  0  0  0  0  0  0  0  0  0  0
   -1.2498   -0.3517    2.1198 H   0  0  0  0  0  0  0  0  0  0  0  0
   -0.3551    2.2685    0.3116 H   0  0  0  0  0  0  0  0  0  0  0  0
   -1.6703    1.7079   -0.7780 H   0  0  0  0  0  0  0  0  0  0  0  0
   -1.8455    1.5552    1.0005 H   0  0  0  0  0  0  0  0  0  0  0  0
   -0.7387    0.0084   -2.0513 H   0  0  0  0  0  0  0  0  0  0  0  0
   -1.9471   -0.8050   -1.0390 H   0  0  0  0  0  0  0  0  0  0  0  0
   -0.3740   -1.6008   -1.2368 H   0  0  0  0  0  0  0  0  0  0  0  0
  1  2  1  0
  2  3  1  0
  3  4  1  0
  4  5  1  0
  5  6  1  0
  5  7  1  0
  5  2  1  0
  1  8  1  0
  1  9  1  0
  1 10  1  0
  2 11  1  0
  4 12  1  0
  4 13  1  0
  6 14  1  0
  6 15  1  0
  6 16  1  0
  7 17  1  0
  7 18  1  0
  7 19  1  0
M  END
