
     RDKit          3D

 19 20  0  0  0  0  0  0  0  0999 V2000
    2.1699   -0.1138   -0.1684 C   0  0  0  0  0  0  0  0  0  0  0  0
    0.8826   -0.0873    0.6673 C   0  0  0  0  0  0  0  0  0  0  0  0
    0.3977   -1.3507    0.8440 O   0  0  0  0  0  0  0  0  0  0  0  0
   -0.9348   -1.3809    0.5032 C   0  0  0  0  0  0  0  0  0  0  0  0
   -1.0722   -0.3304   -0.6065 C   0  0  0  0  0  0  0  0  0  0  0  0
   -0.7149   -0.8388   -1.8359 O   0  0  0  0  0  0  0  0  0  0  0  0
   -0.1216    0.7004   -0.0739 C   0  0  0  0  0  0  0  0  0  0  0  0
   -0.7295    1.9463    0.4408 C   0  0  0  0  0  0  0  0  0  0  0  0
    0.0998    1.8850   -0.6676 O   0  0  0  0  0  0  0  0  0  0  0  0
    1.9717   -0.8615   -0.9745 H   0  0  0  0  0  0  0  0  0  0  0  0
    3.0472   -0.3665    0.4315 H   0  0  0  0  0  0  0  0  0  0  0  0
    2.2978    0.8878   -0.6725 H   0  0  0  0  0  0  0  0  0  0  0  0
    1.1288    0.4261    1.6213 H   0  0  0  0  0  0  0  0  0  0  0  0
   -1.5191   -1.0419    1.3803 H   0  0  0  0  0  0  0  0  0  0  0  0
   -1.3019   -2.3589    0.1977 H   0  0  0  0  0  0  0  0  0  0  0  0
   -2.1046    0.0624   -0.6630 H   0  0  0  0  0  0  0  0  0  0  0  0
   -1.3163   -1.6082   -2.0200 H   0  0  0  0  0  0  0  0  0  0  0  0
   -1.8062    2.1306    0.1895 H   0  0  0  0  0  0  0  0  0  0  0  0
   -0.3744    2.3004    1.4067 H   0  0  0  0  0  0  0  0  0  0  0  0
  1  2  1  0
  2  3  1  0
  3  4  1  0
  4  5  1  0
  5  6  1  0
  5  7  1  0
  7  8  1  0
  8  9  1  0
  7  2  1  0
  9  7  1  0
  1 10  1  0
  1 11  1  0
  1 12  1  0
  2 13  1  0
  4 14  1  0
  4 15  1  0
  5 16  1  0
  6 17  1  0
  8 18  1  0
  8 19  1  0
M  END
