
     RDKit          3D

 21 22  0  0  0  0  0  0  0  0999 V2000
    2.8912   -0.3393   -0.3953 C   0  0  0  0  0  0  0  0  0  0  0  0
    1.7090    0.4852   -0.8098 C   0  0  0  0  0  0  0  0  0  0  0  0
    1.1475    1.1423    0.4070 O   0  0  0  0  0  0  0  0  0  0  0  0
    0.3477    0.2365   -0.3687 C   0  0  0  0  0  0  0  0  0  0  0  0
   -0.7655    0.9304   -1.0954 C   0  0  0  0  0  0  0  0  0  0  0  0
   -2.1014    0.7783   -0.3629 C   0  0  0  0  0  0  0  0  0  0  0  0
   -2.2617   -0.6782   -0.0414 C   0  0  0  0  0  0  0  0  0  0  0  0
   -1.2857   -1.0070    0.9036 O   0  0  0  0  0  0  0  0  0  0  0  0
   -0.0601   -1.0452    0.2742 C   0  0  0  0  0  0  0  0  0  0  0  0
    2.5214   -1.2815    0.0581 H   0  0  0  0  0  0  0  0  0  0  0  0
    3.4746    0.1871    0.4113 H   0  0  0  0  0  0  0  0  0  0  0  0
    3.6199   -0.5064   -1.2141 H   0  0  0  0  0  0  0  0  0  0  0  0
    1.9075    1.1982   -1.6157 H   0  0  0  0  0  0  0  0  0  0  0  0
   -0.5963    2.0384   -1.1508 H   0  0  0  0  0  0  0  0  0  0  0  0
   -0.8633    0.6067   -2.1612 H   0  0  0  0  0  0  0  0  0  0  0  0
   -1.9911    1.3489    0.5895 H   0  0  0  0  0  0  0  0  0  0  0  0
   -2.8999    1.1845   -0.9809 H   0  0  0  0  0  0  0  0  0  0  0  0
   -3.2843   -0.8566    0.3135 H   0  0  0  0  0  0  0  0  0  0  0  0
   -2.0796   -1.2623   -0.9735 H   0  0  0  0  0  0  0  0  0  0  0  0
    0.6980   -1.3120    1.0463 H   0  0  0  0  0  0  0  0  0  0  0  0
   -0.1279   -1.8479   -0.5111 H   0  0  0  0  0  0  0  0  0  0  0  0
  1  2  1  0
  2  3  1  0
  3  4  1  0
  4  5  1  0
  5  6  1  0
  6  7  1  0
  7  8  1  0
  8  9  1  0
  4  2  1  0
  9  4  1  0
  1 10  1  0
  1 11  1  0
  1 12  1  0
  2 13  1  0
  5 14  1  0
  5 15  1  0
  6 16  1  0
  6 17  1  0
  7 18  1  0
  7 19  1  0
  9 20  1  0
  9 21  1  0
M  END
