
     RDKit          3D

 13 13  0  0  0  0  0  0  0  0999 V2000
    1.8872    0.0194    0.1013 C   0  0  0  0  0  0  0  0  0  0  0  0
    0.6124   -0.1344   -0.6751 C   0  0  0  0  0  0  0  0  0  0  0  0
   -0.0490    0.9383   -1.1975 O   0  0  0  0  0  0  0  0  0  0  0  0
   -0.5850    0.5004   -0.0107 C   0  0  0  0  0  0  0  0  0  0  0  0
   -1.8645   -0.2517    0.0562 C   0  0  0  0  0  0  0  0  0  0  0  0
    2.5695   -0.8510   -0.0470 H   0  0  0  0  0  0  0  0  0  0  0  0
    1.6259   -0.0157    1.1987 H   0  0  0  0  0  0  0  0  0  0  0  0
    2.4123    0.9586   -0.0792 H   0  0  0  0  0  0  0  0  0  0  0  0
    0.3868   -1.1079   -1.1787 H   0  0  0  0  0  0  0  0  0  0  0  0
   -0.4240    1.2109    0.8387 H   0  0  0  0  0  0  0  0  0  0  0  0
   -1.8185   -1.1829   -0.5260 H   0  0  0  0  0  0  0  0  0  0  0  0
   -2.0689   -0.5163    1.1074 H   0  0  0  0  0  0  0  0  0  0  0  0
   -2.6842    0.4322   -0.2601 H   0  0  0  0  0  0  0  0  0  0  0  0
  1  2  1  0
  2  3  1  0
  3  4  1  0
  4  5  1  0
  4  2  1  0
  1  6  1  0
  1  7  1  0
  1  8  1  0
  2  9  1  0
  4 10  1  0
  5 11  1  0
  5 12  1  0
  5 13  1  0
M  END
