
     RDKit          3D

 23 23  0  0  0  0  0  0  0  0999 V2000
    2.8736   -0.9930    0.1866 C   0  0  0  0  0  0  0  0  0  0  0  0
    1.4857   -0.5820   -0.2690 C   0  0  0  0  0  0  0  0  0  0  0  0
    1.3089    0.8090   -0.1652 O   0  0  0  0  0  0  0  0  0  0  0  0
    0.0816    1.0756   -0.8164 C   0  0  0  0  0  0  0  0  0  0  0  0
   -0.9765    0.3844    0.0373 C   0  0  0  0  0  0  0  0  0  0  0  0
   -1.9868    1.3790    0.5235 C   0  0  0  0  0  0  0  0  0  0  0  0
   -1.6535   -0.7294   -0.7723 C   0  0  0  0  0  0  0  0  0  0  0  0
   -0.2405   -0.3087    1.1586 C   0  0  0  0  0  0  0  0  0  0  0  0
    0.5815   -1.2772    0.5326 O   0  0  0  0  0  0  0  0  0  0  0  0
    2.8475   -1.8518    0.8890 H   0  0  0  0  0  0  0  0  0  0  0  0
    3.4679   -1.2717   -0.6874 H   0  0  0  0  0  0  0  0  0  0  0  0
    3.2814   -0.1232    0.7503 H   0  0  0  0  0  0  0  0  0  0  0  0
    1.3413   -0.8082   -1.3582 H   0  0  0  0  0  0  0  0  0  0  0  0
   -0.1376    2.1447   -0.8676 H   0  0  0  0  0  0  0  0  0  0  0  0
    0.1577    0.6153   -1.8087 H   0  0  0  0  0  0  0  0  0  0  0  0
   -2.4161    1.8809   -0.3604 H   0  0  0  0  0  0  0  0  0  0  0  0
   -1.4664    2.1402    1.1136 H   0  0  0  0  0  0  0  0  0  0  0  0
   -2.7403    0.8416    1.1182 H   0  0  0  0  0  0  0  0  0  0  0  0
   -2.0430   -0.2911   -1.6946 H   0  0  0  0  0  0  0  0  0  0  0  0
   -0.9073   -1.5266   -0.9163 H   0  0  0  0  0  0  0  0  0  0  0  0
   -2.4518   -1.1286   -0.1008 H   0  0  0  0  0  0  0  0  0  0  0  0
   -0.8881   -0.7898    1.8895 H   0  0  0  0  0  0  0  0  0  0  0  0
    0.4807    0.4105    1.6176 H   0  0  0  0  0  0  0  0  0  0  0  0
  1  2  1  0
  2  3  1  0
  3  4  1  0
  4  5  1  0
  5  6  1  0
  5  7  1  0
  5  8  1  0
  8  9  1  0
  9  2  1  0
  1 10  1  0
  1 11  1  0
  1 12  1  0
  2 13  1  0
  4 14  1  0
  4 15  1  0
  6 16  1  0
  6 17  1  0
  6 18  1  0
  7 19  1  0
  7 20  1  0
  7 21  1  0
  8 22  1  0
  8 23  1  0
M  END
