
     RDKit          3D

 21 21  0  0  0  0  0  0  0  0999 V2000
   -1.0814    2.3450   -0.1298 C   0  0  0  0  0  0  0  0  0  0  0  0
   -0.1618    1.3051   -0.7288 C   0  0  0  0  0  0  0  0  0  0  0  0
   -0.8144    0.2607   -1.3761 O   0  0  0  0  0  0  0  0  0  0  0  0
   -0.9932   -0.3324   -0.1321 C   0  0  0  0  0  0  0  0  0  0  0  0
   -1.0323   -1.8400   -0.1561 C   0  0  0  0  0  0  0  0  0  0  0  0
    0.2934    0.2869    0.3208 C   0  0  0  0  0  0  0  0  0  0  0  0
    1.5395   -0.3903   -0.1418 C   0  0  0  0  0  0  0  0  0  0  0  0
    2.0130   -1.3927    0.8609 C   0  0  0  0  0  0  0  0  0  0  0  0
    1.3746   -1.5349    1.8722 O   0  0  0  0  0  0  0  0  0  0  0  0
   -2.1362    2.0713   -0.1821 H   0  0  0  0  0  0  0  0  0  0  0  0
   -0.8606    3.3554   -0.5571 H   0  0  0  0  0  0  0  0  0  0  0  0
   -0.7786    2.4289    0.9538 H   0  0  0  0  0  0  0  0  0  0  0  0
    0.6995    1.7405   -1.2384 H   0  0  0  0  0  0  0  0  0  0  0  0
   -1.8697    0.0767    0.3670 H   0  0  0  0  0  0  0  0  0  0  0  0
   -1.8069   -2.1971   -0.8645 H   0  0  0  0  0  0  0  0  0  0  0  0
   -0.0235   -2.2324   -0.3902 H   0  0  0  0  0  0  0  0  0  0  0  0
   -1.3229   -2.2133    0.8427 H   0  0  0  0  0  0  0  0  0  0  0  0
    0.3033    0.7298    1.3167 H   0  0  0  0  0  0  0  0  0  0  0  0
    1.3815   -0.8561   -1.1189 H   0  0  0  0  0  0  0  0  0  0  0  0
    2.3731    0.3692   -0.2114 H   0  0  0  0  0  0  0  0  0  0  0  0
    2.9036   -1.9803    0.6934 H   0  0  0  0  0  0  0  0  0  0  0  0
  1  2  1  0
  2  3  1  0
  3  4  1  0
  4  5  1  0
  4  6  1  0
  6  7  1  0
  7  8  1  0
  8  9  2  0
  6  2  1  0
  1 10  1  0
  1 11  1  0
  1 12  1  0
  2 13  1  0
  4 14  1  0
  5 15  1  0
  5 16  1  0
  5 17  1  0
  6 18  1  0
  7 19  1  0
  7 20  1  0
  8 21  1  0
M  END
