
     RDKit          3D

 23 23  0  0  0  0  0  0  0  0999 V2000
    0.8810    1.8804    0.6945 C   0  0  0  0  0  0  0  0  0  0  0  0
    0.1011    1.1371   -0.4088 C   0  0  0  0  0  0  0  0  0  0  0  0
   -1.2041    1.4242   -0.2118 O   0  0  0  0  0  0  0  0  0  0  0  0
   -2.1245    0.4597   -0.4149 C   0  0  0  0  0  0  0  0  0  0  0  0
   -1.7554   -0.7333    0.4770 C   0  0  0  0  0  0  0  0  0  0  0  0
   -0.5098   -1.2997   -0.1779 C   0  0  0  0  0  0  0  0  0  0  0  0
    0.5094   -0.2731   -0.5150 C   0  0  0  0  0  0  0  0  0  0  0  0
    1.7623   -0.5871    0.3202 C   0  0  0  0  0  0  0  0  0  0  0  0
    2.0126   -1.9622    0.1074 O   0  0  0  0  0  0  0  0  0  0  0  0
    0.3628    2.8788    0.8056 H   0  0  0  0  0  0  0  0  0  0  0  0
    0.7971    1.3869    1.6576 H   0  0  0  0  0  0  0  0  0  0  0  0
    1.9042    2.1182    0.3669 H   0  0  0  0  0  0  0  0  0  0  0  0
    0.4334    1.7032   -1.3334 H   0  0  0  0  0  0  0  0  0  0  0  0
   -3.1203    0.8203   -0.1507 H   0  0  0  0  0  0  0  0  0  0  0  0
   -2.1156    0.0775   -1.4538 H   0  0  0  0  0  0  0  0  0  0  0  0
   -2.5711   -1.4678    0.4145 H   0  0  0  0  0  0  0  0  0  0  0  0
   -1.5427   -0.4001    1.5122 H   0  0  0  0  0  0  0  0  0  0  0  0
   -0.8863   -1.8464   -1.0935 H   0  0  0  0  0  0  0  0  0  0  0  0
   -0.1015   -2.1219    0.4697 H   0  0  0  0  0  0  0  0  0  0  0  0
    0.8527   -0.4949   -1.5710 H   0  0  0  0  0  0  0  0  0  0  0  0
    1.5670   -0.4841    1.3950 H   0  0  0  0  0  0  0  0  0  0  0  0
    2.6432   -0.0519   -0.0490 H   0  0  0  0  0  0  0  0  0  0  0  0
    2.1046   -2.1638   -0.8410 H   0  0  0  0  0  0  0  0  0  0  0  0
  1  2  1  0
  2  3  1  0
  3  4  1  0
  4  5  1  0
  5  6  1  0
  6  7  1  0
  7  8  1  0
  8  9  1  0
  7  2  1  0
  1 10  1  0
  1 11  1  0
  1 12  1  0
  2 13  1  0
  4 14  1  0
  4 15  1  0
  5 16  1  0
  5 17  1  0
  6 18  1  0
  6 19  1  0
  7 20  1  0
  8 21  1  0
  8 22  1  0
  9 23  1  0
M  END
