
     RDKit          3D

 21 22  0  0  0  0  0  0  0  0999 V2000
    2.0713   -0.6290    0.2591 C   0  0  0  0  0  0  0  0  0  0  0  0
    1.1981    0.0271   -0.7645 C   0  0  0  0  0  0  0  0  0  0  0  0
    1.1906    1.3982   -0.4978 O   0  0  0  0  0  0  0  0  0  0  0  0
    0.0484    1.6611    0.2401 C   0  0  0  0  0  0  0  0  0  0  0  0
   -0.9898    0.8329   -0.4452 C   0  0  0  0  0  0  0  0  0  0  0  0
   -1.9629    0.2807    0.5685 C   0  0  0  0  0  0  0  0  0  0  0  0
   -1.1356   -0.6005    1.2867 O   0  0  0  0  0  0  0  0  0  0  0  0
   -0.5975   -1.4008    0.2595 C   0  0  0  0  0  0  0  0  0  0  0  0
   -0.2023   -0.4351   -0.7941 C   0  0  0  0  0  0  0  0  0  0  0  0
    3.1135   -0.2280    0.0951 H   0  0  0  0  0  0  0  0  0  0  0  0
    1.8178   -0.3425    1.3007 H   0  0  0  0  0  0  0  0  0  0  0  0
    2.1604   -1.7186    0.1544 H   0  0  0  0  0  0  0  0  0  0  0  0
    1.6593   -0.1748   -1.7657 H   0  0  0  0  0  0  0  0  0  0  0  0
    0.1226    1.3277    1.2973 H   0  0  0  0  0  0  0  0  0  0  0  0
   -0.1978    2.7276    0.1285 H   0  0  0  0  0  0  0  0  0  0  0  0
   -1.4565    1.2896   -1.3137 H   0  0  0  0  0  0  0  0  0  0  0  0
   -2.2798    1.1041    1.2094 H   0  0  0  0  0  0  0  0  0  0  0  0
   -2.7896   -0.2637    0.0698 H   0  0  0  0  0  0  0  0  0  0  0  0
   -1.4274   -2.0681   -0.0978 H   0  0  0  0  0  0  0  0  0  0  0  0
    0.2017   -2.0583    0.6121 H   0  0  0  0  0  0  0  0  0  0  0  0
   -0.5445   -0.7296   -1.8025 H   0  0  0  0  0  0  0  0  0  0  0  0
  1  2  1  0
  2  3  1  0
  3  4  1  0
  4  5  1  0
  5  6  1  0
  6  7  1  0
  7  8  1  0
  8  9  1  0
  9  2  1  0
  9  5  1  0
  1 10  1  0
  1 11  1  0
  1 12  1  0
  2 13  1  0
  4 14  1  0
  4 15  1  0
  5 16  1  0
  6 17  1  0
  6 18  1  0
  8 19  1  0
  8 20  1  0
  9 21  1  0
M  END
