
     RDKit          3D

 19 21  0  0  0  0  0  0  0  0999 V2000
    2.2053    0.6073    0.4644 C   0  0  0  0  0  0  0  0  0  0  0  0
    1.3454   -0.3051   -0.3579 C   0  0  0  0  0  0  0  0  0  0  0  0
    0.7627    0.2950   -1.4453 O   0  0  0  0  0  0  0  0  0  0  0  0
   -0.5826    0.0054   -1.4554 C   0  0  0  0  0  0  0  0  0  0  0  0
   -1.1352   -1.2195   -0.8261 C   0  0  0  0  0  0  0  0  0  0  0  0
   -0.3090   -1.9727    0.0330 O   0  0  0  0  0  0  0  0  0  0  0  0
    0.2289   -0.8100    0.5447 C   0  0  0  0  0  0  0  0  0  0  0  0
   -0.9279   -0.0565   -0.0272 C   0  0  0  0  0  0  0  0  0  0  0  0
   -1.8267    0.8012    0.6948 C   0  0  0  0  0  0  0  0  0  0  0  0
    2.8186    1.2685   -0.1807 H   0  0  0  0  0  0  0  0  0  0  0  0
    2.8729   -0.0532    1.0875 H   0  0  0  0  0  0  0  0  0  0  0  0
    1.6232    1.1973    1.2119 H   0  0  0  0  0  0  0  0  0  0  0  0
    1.9671   -1.1494   -0.7296 H   0  0  0  0  0  0  0  0  0  0  0  0
   -1.1846    0.5027   -2.2049 H   0  0  0  0  0  0  0  0  0  0  0  0
   -2.0577   -1.6462   -1.1987 H   0  0  0  0  0  0  0  0  0  0  0  0
    0.3903   -0.7339    1.6105 H   0  0  0  0  0  0  0  0  0  0  0  0
   -1.5170    1.8816    0.5814 H   0  0  0  0  0  0  0  0  0  0  0  0
   -2.8931    0.7778    0.4110 H   0  0  0  0  0  0  0  0  0  0  0  0
   -1.7805    0.6097    1.7865 H   0  0  0  0  0  0  0  0  0  0  0  0
  1  2  1  0
  2  3  1  0
  3  4  1  0
  4  5  1  0
  5  6  1  0
  6  7  1  0
  7  8  1  0
  8  9  1  0
  7  2  1  0
  8  4  1  0
  8  5  1  0
  1 10  1  0
  1 11  1  0
  1 12  1  0
  2 13  1  0
  4 14  1  0
  5 15  1  0
  7 16  1  0
  9 17  1  0
  9 18  1  0
  9 19  1  0
M  END
