
     RDKit          3D

 21 21  0  0  0  0  0  0  0  0999 V2000
   -2.1092    1.3647   -0.3139 C   0  0  0  0  0  0  0  0  0  0  0  0
   -1.2984    0.1388   -0.6889 C   0  0  0  0  0  0  0  0  0  0  0  0
   -0.2151    0.4059   -1.5165 O   0  0  0  0  0  0  0  0  0  0  0  0
    0.6741   -0.2564   -0.6536 C   0  0  0  0  0  0  0  0  0  0  0  0
    1.8482    0.6560   -0.3865 C   0  0  0  0  0  0  0  0  0  0  0  0
    2.8467    0.0666    0.5072 C   0  0  0  0  0  0  0  0  0  0  0  0
    3.8369    0.7053    0.7962 O   0  0  0  0  0  0  0  0  0  0  0  0
   -0.3663   -0.3108    0.4139 C   0  0  0  0  0  0  0  0  0  0  0  0
   -0.7599   -1.6809    0.8954 C   0  0  0  0  0  0  0  0  0  0  0  0
   -1.4872    2.2539   -0.5168 H   0  0  0  0  0  0  0  0  0  0  0  0
   -2.4262    1.3058    0.7644 H   0  0  0  0  0  0  0  0  0  0  0  0
   -3.0355    1.3722   -0.9189 H   0  0  0  0  0  0  0  0  0  0  0  0
   -1.9020   -0.6864   -1.1423 H   0  0  0  0  0  0  0  0  0  0  0  0
    0.9441   -1.2628   -1.0478 H   0  0  0  0  0  0  0  0  0  0  0  0
    2.3095    0.8787   -1.3879 H   0  0  0  0  0  0  0  0  0  0  0  0
    1.4272    1.6109   -0.0065 H   0  0  0  0  0  0  0  0  0  0  0  0
    2.6971   -0.9222    0.8992 H   0  0  0  0  0  0  0  0  0  0  0  0
   -0.2719    0.4298    1.2141 H   0  0  0  0  0  0  0  0  0  0  0  0
   -1.3513   -1.5388    1.8265 H   0  0  0  0  0  0  0  0  0  0  0  0
    0.0828   -2.3433    1.1029 H   0  0  0  0  0  0  0  0  0  0  0  0
   -1.4435   -2.1869    0.1598 H   0  0  0  0  0  0  0  0  0  0  0  0
  1  2  1  0
  2  3  1  0
  3  4  1  0
  4  5  1  0
  5  6  1  0
  6  7  2  0
  4  8  1  0
  8  9  1  0
  8  2  1  0
  1 10  1  0
  1 11  1  0
  1 12  1  0
  2 13  1  0
  4 14  1  0
  5 15  1  0
  5 16  1  0
  6 17  1  0
  8 18  1  0
  9 19  1  0
  9 20  1  0
  9 21  1  0
M  END
