
     RDKit          3D

 16 16  0  0  0  0  0  0  0  0999 V2000
   -2.0043    0.2370    0.1621 C   0  0  0  0  0  0  0  0  0  0  0  0
   -1.1817   -1.0215   -0.0027 C   0  0  0  0  0  0  0  0  0  0  0  0
   -0.6144   -1.3023   -1.2269 O   0  0  0  0  0  0  0  0  0  0  0  0
    0.2425   -0.9860   -0.0477 C   0  0  0  0  0  0  0  0  0  0  0  0
    1.0813    0.1977   -0.3971 C   0  0  0  0  0  0  0  0  0  0  0  0
    0.3683    1.3245   -0.7130 O   0  0  0  0  0  0  0  0  0  0  0  0
    2.0626    0.4205    0.6890 C   0  0  0  0  0  0  0  0  0  0  0  0
    2.1400    1.5257    1.1742 O   0  0  0  0  0  0  0  0  0  0  0  0
   -2.9883    0.0562    0.6204 H   0  0  0  0  0  0  0  0  0  0  0  0
   -2.1661    0.7784   -0.7816 H   0  0  0  0  0  0  0  0  0  0  0  0
   -1.4696    0.9396    0.8628 H   0  0  0  0  0  0  0  0  0  0  0  0
   -1.6546   -1.9071    0.4764 H   0  0  0  0  0  0  0  0  0  0  0  0
    0.8418   -1.8872    0.2358 H   0  0  0  0  0  0  0  0  0  0  0  0
    1.6804   -0.0969   -1.3043 H   0  0  0  0  0  0  0  0  0  0  0  0
    0.9600    2.0921   -0.8004 H   0  0  0  0  0  0  0  0  0  0  0  0
    2.7022   -0.3707    1.0530 H   0  0  0  0  0  0  0  0  0  0  0  0
  1  2  1  0
  2  3  1  0
  3  4  1  0
  4  5  1  0
  5  6  1  0
  5  7  1  0
  7  8  2  0
  4  2  1  0
  1  9  1  0
  1 10  1  0
  1 11  1  0
  2 12  1  0
  4 13  1  0
  5 14  1  0
  6 15  1  0
  7 16  1  0
M  END
