
     RDKit          3D

 23 24  0  0  0  0  0  0  0  0999 V2000
    2.6582    0.4008    0.8547 C   0  0  0  0  0  0  0  0  0  0  0  0
    1.5150    0.4652   -0.1471 C   0  0  0  0  0  0  0  0  0  0  0  0
    1.8049   -0.5307   -1.1030 O   0  0  0  0  0  0  0  0  0  0  0  0
    0.5825   -1.1653   -1.4272 C   0  0  0  0  0  0  0  0  0  0  0  0
   -0.3981   -0.1402   -1.0186 C   0  0  0  0  0  0  0  0  0  0  0  0
    0.2365   -0.0152    0.4284 C   0  0  0  0  0  0  0  0  0  0  0  0
   -1.1315    0.1177    0.1504 C   0  0  0  0  0  0  0  0  0  0  0  0
   -2.1371   -0.9936    0.5171 C   0  0  0  0  0  0  0  0  0  0  0  0
   -1.8097    1.4821    0.3306 C   0  0  0  0  0  0  0  0  0  0  0  0
    2.3086    0.6402    1.8683 H   0  0  0  0  0  0  0  0  0  0  0  0
    3.0817   -0.6404    0.8945 H   0  0  0  0  0  0  0  0  0  0  0  0
    3.4941    1.0456    0.5359 H   0  0  0  0  0  0  0  0  0  0  0  0
    1.4744    1.4362   -0.6532 H   0  0  0  0  0  0  0  0  0  0  0  0
    0.5239   -2.1198   -0.8550 H   0  0  0  0  0  0  0  0  0  0  0  0
    0.5725   -1.3797   -2.5144 H   0  0  0  0  0  0  0  0  0  0  0  0
   -0.2487    0.7670   -1.6836 H   0  0  0  0  0  0  0  0  0  0  0  0
    0.4789   -1.0062    0.9351 H   0  0  0  0  0  0  0  0  0  0  0  0
   -2.1693   -1.0892    1.6276 H   0  0  0  0  0  0  0  0  0  0  0  0
   -3.1058   -0.7329    0.0930 H   0  0  0  0  0  0  0  0  0  0  0  0
   -1.8016   -1.9679    0.1153 H   0  0  0  0  0  0  0  0  0  0  0  0
   -2.3445    1.6917   -0.6206 H   0  0  0  0  0  0  0  0  0  0  0  0
   -1.0541    2.2737    0.5199 H   0  0  0  0  0  0  0  0  0  0  0  0
   -2.5306    1.4610    1.1519 H   0  0  0  0  0  0  0  0  0  0  0  0
  1  2  1  0
  2  3  1  0
  3  4  1  0
  4  5  1  0
  5  6  1  0
  6  7  1  0
  7  8  1  0
  7  9  1  0
  6  2  1  0
  7  5  1  0
  1 10  1  0
  1 11  1  0
  1 12  1  0
  2 13  1  0
  4 14  1  0
  4 15  1  0
  5 16  1  0
  6 17  1  0
  8 18  1  0
  8 19  1  0
  8 20  1  0
  9 21  1  0
  9 22  1  0
  9 23  1  0
M  END
