
     RDKit          3D

 19 21  0  0  0  0  0  0  0  0999 V2000
    2.4584   -0.0551    0.0808 C   0  0  0  0  0  0  0  0  0  0  0  0
    1.0534    0.1813    0.6454 C   0  0  0  0  0  0  0  0  0  0  0  0
    0.7446    1.4915    0.4391 O   0  0  0  0  0  0  0  0  0  0  0  0
   -0.5521    1.5679   -0.0554 C   0  0  0  0  0  0  0  0  0  0  0  0
   -0.7879    0.3889   -0.9212 C   0  0  0  0  0  0  0  0  0  0  0  0
   -1.9939   -0.5105   -0.6137 C   0  0  0  0  0  0  0  0  0  0  0  0
   -1.0995   -1.2360    0.3592 C   0  0  0  0  0  0  0  0  0  0  0  0
    0.1222   -0.6499   -0.2460 C   0  0  0  0  0  0  0  0  0  0  0  0
    0.2065   -0.2873   -1.5679 O   0  0  0  0  0  0  0  0  0  0  0  0
    2.6782   -1.1241    0.2719 H   0  0  0  0  0  0  0  0  0  0  0  0
    3.1980    0.6335    0.5225 H   0  0  0  0  0  0  0  0  0  0  0  0
    2.4469    0.0703   -1.0244 H   0  0  0  0  0  0  0  0  0  0  0  0
    1.0588   -0.1636    1.6769 H   0  0  0  0  0  0  0  0  0  0  0  0
   -1.2247    1.4657    0.8462 H   0  0  0  0  0  0  0  0  0  0  0  0
   -0.7541    2.5413   -0.5002 H   0  0  0  0  0  0  0  0  0  0  0  0
   -2.8369    0.0391   -0.1995 H   0  0  0  0  0  0  0  0  0  0  0  0
   -2.2391   -1.1734   -1.4596 H   0  0  0  0  0  0  0  0  0  0  0  0
   -1.3362   -0.8521    1.3964 H   0  0  0  0  0  0  0  0  0  0  0  0
   -1.1425   -2.3273    0.3495 H   0  0  0  0  0  0  0  0  0  0  0  0
  1  2  1  0
  2  3  1  0
  3  4  1  0
  4  5  1  0
  5  6  1  0
  6  7  1  0
  7  8  1  0
  8  9  1  0
  8  2  1  0
  8  5  1  0
  9  5  1  0
  1 10  1  0
  1 11  1  0
  1 12  1  0
  2 13  1  0
  4 14  1  0
  4 15  1  0
  6 16  1  0
  6 17  1  0
  7 18  1  0
  7 19  1  0
M  END
