
     RDKit          3D

 21 23  0  0  0  0  0  0  0  0999 V2000
   -2.7964   -0.3443   -0.0569 C   0  0  0  0  0  0  0  0  0  0  0  0
   -1.4267    0.0339   -0.5610 C   0  0  0  0  0  0  0  0  0  0  0  0
   -1.1132    1.3767   -0.5218 O   0  0  0  0  0  0  0  0  0  0  0  0
   -0.0345    1.1991    0.3576 C   0  0  0  0  0  0  0  0  0  0  0  0
    1.3227    1.3169   -0.2514 C   0  0  0  0  0  0  0  0  0  0  0  0
    1.9371   -0.0194   -0.3600 C   0  0  0  0  0  0  0  0  0  0  0  0
    2.0377   -0.9990    0.7116 C   0  0  0  0  0  0  0  0  0  0  0  0
    0.8388   -0.9791   -0.1538 C   0  0  0  0  0  0  0  0  0  0  0  0
   -0.3463   -0.2573    0.4208 C   0  0  0  0  0  0  0  0  0  0  0  0
   -3.0972    0.2662    0.8130 H   0  0  0  0  0  0  0  0  0  0  0  0
   -3.4951   -0.2194   -0.9292 H   0  0  0  0  0  0  0  0  0  0  0  0
   -2.7963   -1.4358    0.1703 H   0  0  0  0  0  0  0  0  0  0  0  0
   -1.2316   -0.4848   -1.5215 H   0  0  0  0  0  0  0  0  0  0  0  0
   -0.1625    1.7876    1.2829 H   0  0  0  0  0  0  0  0  0  0  0  0
    1.1763    1.7189   -1.2968 H   0  0  0  0  0  0  0  0  0  0  0  0
    1.9181    2.0821    0.2712 H   0  0  0  0  0  0  0  0  0  0  0  0
    2.6466   -0.1397   -1.2260 H   0  0  0  0  0  0  0  0  0  0  0  0
    1.9124   -0.7300    1.8008 H   0  0  0  0  0  0  0  0  0  0  0  0
    2.7197   -1.8474    0.5800 H   0  0  0  0  0  0  0  0  0  0  0  0
    0.6702   -1.7076   -0.9625 H   0  0  0  0  0  0  0  0  0  0  0  0
   -0.6798   -0.6178    1.4326 H   0  0  0  0  0  0  0  0  0  0  0  0
  1  2  1  0
  2  3  1  0
  3  4  1  0
  4  5  1  0
  5  6  1  0
  6  7  1  0
  7  8  1  0
  8  9  1  0
  9  2  1  0
  9  4  1  0
  8  6  1  0
  1 10  1  0
  1 11  1  0
  1 12  1  0
  2 13  1  0
  4 14  1  0
  5 15  1  0
  5 16  1  0
  6 17  1  0
  7 18  1  0
  7 19  1  0
  8 20  1  0
  9 21  1  0
M  END
