
     RDKit          3D

 15 16  0  0  0  0  0  0  0  0999 V2000
    2.2790   -0.8970    0.0767 C   0  0  0  0  0  0  0  0  0  0  0  0
    1.1930    0.1439    0.0277 C   0  0  0  0  0  0  0  0  0  0  0  0
    1.3061    1.4322   -0.0605 O   0  0  0  0  0  0  0  0  0  0  0  0
    0.1493    2.0262   -0.0784 C   0  0  0  0  0  0  0  0  0  0  0  0
   -0.8212    1.0463    0.0053 C   0  0  0  0  0  0  0  0  0  0  0  0
   -0.1389   -0.1531    0.0725 C   0  0  0  0  0  0  0  0  0  0  0  0
   -1.0615   -1.1953    0.1595 O   0  0  0  0  0  0  0  0  0  0  0  0
   -2.3638   -0.6602   -0.0087 C   0  0  0  0  0  0  0  0  0  0  0  0
   -2.1817    0.7435    0.0511 O   0  0  0  0  0  0  0  0  0  0  0  0
    2.4179   -1.2978    1.0920 H   0  0  0  0  0  0  0  0  0  0  0  0
    3.1879   -0.5110   -0.3921 H   0  0  0  0  0  0  0  0  0  0  0  0
    1.9276   -1.7460   -0.5576 H   0  0  0  0  0  0  0  0  0  0  0  0
   -0.0971    3.0893   -0.1447 H   0  0  0  0  0  0  0  0  0  0  0  0
   -3.0763   -1.0181    0.7588 H   0  0  0  0  0  0  0  0  0  0  0  0
   -2.7204   -1.0032   -1.0015 H   0  0  0  0  0  0  0  0  0  0  0  0
  1  2  1  0
  2  3  1  0
  3  4  1  0
  4  5  2  0
  5  6  1  0
  6  7  1  0
  7  8  1  0
  8  9  1  0
  6  2  2  0
  9  5  1  0
  1 10  1  0
  1 11  1  0
  1 12  1  0
  4 13  1  0
  8 14  1  0
  8 15  1  0
M  END
