
     RDKit          3D

 19 20  0  0  0  0  0  0  0  0999 V2000
    1.7992    0.5621    0.8010 C   0  0  0  0  0  0  0  0  0  0  0  0
    1.1464   -0.6150    0.1722 C   0  0  0  0  0  0  0  0  0  0  0  0
    0.1754   -1.2173    0.9954 O   0  0  0  0  0  0  0  0  0  0  0  0
   -0.9183   -1.4764    0.1835 C   0  0  0  0  0  0  0  0  0  0  0  0
   -1.7597   -0.1960    0.0982 C   0  0  0  0  0  0  0  0  0  0  0  0
   -0.7639    0.6990   -0.6565 C   0  0  0  0  0  0  0  0  0  0  0  0
   -0.3476    1.6624    0.2492 O   0  0  0  0  0  0  0  0  0  0  0  0
    0.3058   -0.2697   -1.0410 C   0  0  0  0  0  0  0  0  0  0  0  0
   -0.4207   -1.4836   -1.1432 O   0  0  0  0  0  0  0  0  0  0  0  0
    2.8473    0.2565    1.0908 H   0  0  0  0  0  0  0  0  0  0  0  0
    1.3304    0.9392    1.7071 H   0  0  0  0  0  0  0  0  0  0  0  0
    1.9554    1.3424    0.0116 H   0  0  0  0  0  0  0  0  0  0  0  0
    1.9063   -1.3900   -0.1293 H   0  0  0  0  0  0  0  0  0  0  0  0
   -1.4911   -2.3505    0.4317 H   0  0  0  0  0  0  0  0  0  0  0  0
   -2.0124    0.2025    1.0797 H   0  0  0  0  0  0  0  0  0  0  0  0
   -2.6161   -0.3730   -0.5734 H   0  0  0  0  0  0  0  0  0  0  0  0
   -1.2399    1.2111   -1.4955 H   0  0  0  0  0  0  0  0  0  0  0  0
   -0.7656    2.5319    0.1460 H   0  0  0  0  0  0  0  0  0  0  0  0
    0.8691   -0.0357   -1.9275 H   0  0  0  0  0  0  0  0  0  0  0  0
  1  2  1  0
  2  3  1  0
  3  4  1  0
  4  5  1  0
  5  6  1  0
  6  7  1  0
  6  8  1  0
  8  9  1  0
  8  2  1  0
  9  4  1  0
  1 10  1  0
  1 11  1  0
  1 12  1  0
  2 13  1  0
  4 14  1  0
  5 15  1  0
  5 16  1  0
  6 17  1  0
  7 18  1  0
  8 19  1  0
M  END
