
     RDKit          3D

 21 22  0  0  0  0  0  0  0  0999 V2000
    2.7123    1.0005    0.0739 C   0  0  0  0  0  0  0  0  0  0  0  0
    1.7576   -0.1345    0.2949 C   0  0  0  0  0  0  0  0  0  0  0  0
    0.8070    0.1197    1.3263 O   0  0  0  0  0  0  0  0  0  0  0  0
    0.0475   -0.8413    0.6755 C   0  0  0  0  0  0  0  0  0  0  0  0
    0.5988   -0.2164   -0.5975 C   0  0  0  0  0  0  0  0  0  0  0  0
   -0.3700   -0.2423   -1.4742 C   0  0  0  0  0  0  0  0  0  0  0  0
   -1.6301   -0.8263   -0.9201 C   0  0  0  0  0  0  0  0  0  0  0  0
   -1.4400   -0.5967    0.5739 C   0  0  0  0  0  0  0  0  0  0  0  0
   -1.7617    0.7987    0.9919 C   0  0  0  0  0  0  0  0  0  0  0  0
    3.5255    0.6391   -0.5709 H   0  0  0  0  0  0  0  0  0  0  0  0
    3.1673    1.2435    1.0634 H   0  0  0  0  0  0  0  0  0  0  0  0
    2.1898    1.8856   -0.2882 H   0  0  0  0  0  0  0  0  0  0  0  0
    2.2143   -1.1057    0.4899 H   0  0  0  0  0  0  0  0  0  0  0  0
    0.3726   -1.8735    0.7674 H   0  0  0  0  0  0  0  0  0  0  0  0
   -0.3397    0.1087   -2.5250 H   0  0  0  0  0  0  0  0  0  0  0  0
   -1.7286   -1.8991   -1.1367 H   0  0  0  0  0  0  0  0  0  0  0  0
   -2.5155   -0.2698   -1.2310 H   0  0  0  0  0  0  0  0  0  0  0  0
   -1.9919   -1.3064    1.1906 H   0  0  0  0  0  0  0  0  0  0  0  0
   -2.3070    1.3732    0.2109 H   0  0  0  0  0  0  0  0  0  0  0  0
   -2.4567    0.8032    1.8822 H   0  0  0  0  0  0  0  0  0  0  0  0
   -0.8514    1.3397    1.3508 H   0  0  0  0  0  0  0  0  0  0  0  0
  1  2  1  0
  2  3  1  0
  3  4  1  0
  4  5  1  0
  5  6  2  0
  6  7  1  0
  7  8  1  0
  8  9  1  0
  5  2  1  0
  8  4  1  0
  1 10  1  0
  1 11  1  0
  1 12  1  0
  2 13  1  0
  4 14  1  0
  6 15  1  0
  7 16  1  0
  7 17  1  0
  8 18  1  0
  9 19  1  0
  9 20  1  0
  9 21  1  0
M  END
