
     RDKit          3D

 21 23  0  0  0  0  0  0  0  0999 V2000
    2.5309    0.4351    0.6515 C   0  0  0  0  0  0  0  0  0  0  0  0
    1.1362    0.4522    0.1252 C   0  0  0  0  0  0  0  0  0  0  0  0
    0.1900    0.0176    1.0759 O   0  0  0  0  0  0  0  0  0  0  0  0
   -0.9720    0.0469    0.3369 C   0  0  0  0  0  0  0  0  0  0  0  0
   -1.8099    1.2522    0.4461 C   0  0  0  0  0  0  0  0  0  0  0  0
   -2.3072   -0.1307    0.9129 C   0  0  0  0  0  0  0  0  0  0  0  0
   -0.6468   -0.5691   -1.0076 C   0  0  0  0  0  0  0  0  0  0  0  0
    0.2506   -1.7528   -0.9498 C   0  0  0  0  0  0  0  0  0  0  0  0
    0.9113   -0.4337   -1.0626 C   0  0  0  0  0  0  0  0  0  0  0  0
    3.1674   -0.3630    0.2344 H   0  0  0  0  0  0  0  0  0  0  0  0
    3.0183    1.4148    0.3810 H   0  0  0  0  0  0  0  0  0  0  0  0
    2.5232    0.4384    1.7742 H   0  0  0  0  0  0  0  0  0  0  0  0
    0.8401    1.4947   -0.1955 H   0  0  0  0  0  0  0  0  0  0  0  0
   -1.6661    1.9667    1.2700 H   0  0  0  0  0  0  0  0  0  0  0  0
   -2.3001    1.6925   -0.4453 H   0  0  0  0  0  0  0  0  0  0  0  0
   -2.5054   -0.2629    1.9887 H   0  0  0  0  0  0  0  0  0  0  0  0
   -3.0695   -0.5917    0.2203 H   0  0  0  0  0  0  0  0  0  0  0  0
   -1.1957   -0.2774   -1.9022 H   0  0  0  0  0  0  0  0  0  0  0  0
    0.2952   -2.3209    0.0123 H   0  0  0  0  0  0  0  0  0  0  0  0
    0.2678   -2.3802   -1.8456 H   0  0  0  0  0  0  0  0  0  0  0  0
    1.3417   -0.1286   -2.0210 H   0  0  0  0  0  0  0  0  0  0  0  0
  1  2  1  0
  2  3  1  0
  3  4  1  0
  4  5  1  0
  5  6  1  0
  4  7  1  0
  7  8  1  0
  8  9  1  0
  9  2  1  0
  6  4  1  0
  9  7  1  0
  1 10  1  0
  1 11  1  0
  1 12  1  0
  2 13  1  0
  5 14  1  0
  5 15  1  0
  6 16  1  0
  6 17  1  0
  7 18  1  0
  8 19  1  0
  8 20  1  0
  9 21  1  0
M  END
