
     RDKit          3D

 20 20  0  0  0  0  0  0  0  0999 V2000
    2.1977   -0.5554   -0.1776 C   0  0  0  0  0  0  0  0  0  0  0  0
    1.1320   -0.2387    0.8479 C   0  0  0  0  0  0  0  0  0  0  0  0
    0.0552   -1.1365    0.8344 O   0  0  0  0  0  0  0  0  0  0  0  0
   -0.7485   -0.2527    0.1317 C   0  0  0  0  0  0  0  0  0  0  0  0
   -2.0782    0.0632    0.8132 C   0  0  0  0  0  0  0  0  0  0  0  0
   -0.9944   -0.6172   -1.3021 C   0  0  0  0  0  0  0  0  0  0  0  0
    0.2215    0.8596    0.3800 C   0  0  0  0  0  0  0  0  0  0  0  0
    0.6446    1.5538   -0.7507 O   0  0  0  0  0  0  0  0  0  0  0  0
    1.9329   -1.4573   -0.7734 H   0  0  0  0  0  0  0  0  0  0  0  0
    3.1762   -0.7631    0.2817 H   0  0  0  0  0  0  0  0  0  0  0  0
    2.3015    0.3199   -0.8530 H   0  0  0  0  0  0  0  0  0  0  0  0
    1.5939   -0.0936    1.8464 H   0  0  0  0  0  0  0  0  0  0  0  0
   -2.6936    0.5844    0.0438 H   0  0  0  0  0  0  0  0  0  0  0  0
   -1.9267    0.7851    1.6532 H   0  0  0  0  0  0  0  0  0  0  0  0
   -2.5477   -0.8762    1.1572 H   0  0  0  0  0  0  0  0  0  0  0  0
   -1.6414   -1.5275   -1.3033 H   0  0  0  0  0  0  0  0  0  0  0  0
   -1.5337    0.2204   -1.7883 H   0  0  0  0  0  0  0  0  0  0  0  0
   -0.0874   -0.8000   -1.8887 H   0  0  0  0  0  0  0  0  0  0  0  0
   -0.0376    1.5188    1.2542 H   0  0  0  0  0  0  0  0  0  0  0  0
    1.0341    2.4131   -0.4064 H   0  0  0  0  0  0  0  0  0  0  0  0
  1  2  1  0
  2  3  1  0
  3  4  1  0
  4  5  1  0
  4  6  1  0
  4  7  1  0
  7  8  1  0
  7  2  1  0
  1  9  1  0
  1 10  1  0
  1 11  1  0
  2 12  1  0
  5 13  1  0
  5 14  1  0
  5 15  1  0
  6 16  1  0
  6 17  1  0
  6 18  1  0
  7 19  1  0
  8 20  1  0
M  END
