
     RDKit          3D

 17 18  0  0  0  0  0  0  0  0999 V2000
   -1.9978   -0.2388   -0.7810 C   0  0  0  0  0  0  0  0  0  0  0  0
   -1.1924    0.4520    0.2737 C   0  0  0  0  0  0  0  0  0  0  0  0
   -0.8624   -0.3586    1.3328 O   0  0  0  0  0  0  0  0  0  0  0  0
    0.4029   -0.8781    1.1037 C   0  0  0  0  0  0  0  0  0  0  0  0
    1.1421    0.2332    0.4329 C   0  0  0  0  0  0  0  0  0  0  0  0
    2.4557   -0.0631   -0.1754 C   0  0  0  0  0  0  0  0  0  0  0  0
    3.2924    0.7786   -0.3831 O   0  0  0  0  0  0  0  0  0  0  0  0
    0.9188    1.5504    0.7572 O   0  0  0  0  0  0  0  0  0  0  0  0
    0.1073    1.0119   -0.2545 C   0  0  0  0  0  0  0  0  0  0  0  0
   -2.7319   -0.9272   -0.3231 H   0  0  0  0  0  0  0  0  0  0  0  0
   -1.2900   -0.8114   -1.4289 H   0  0  0  0  0  0  0  0  0  0  0  0
   -2.5084    0.5668   -1.3792 H   0  0  0  0  0  0  0  0  0  0  0  0
   -1.7706    1.3336    0.6803 H   0  0  0  0  0  0  0  0  0  0  0  0
    0.2774   -1.6968    0.3507 H   0  0  0  0  0  0  0  0  0  0  0  0
    0.8552   -1.2244    2.0383 H   0  0  0  0  0  0  0  0  0  0  0  0
    2.7027   -1.0893   -0.4589 H   0  0  0  0  0  0  0  0  0  0  0  0
    0.1991    1.3614   -1.2793 H   0  0  0  0  0  0  0  0  0  0  0  0
  1  2  1  0
  2  3  1  0
  3  4  1  0
  4  5  1  0
  5  6  1  0
  6  7  2  0
  5  8  1  0
  8  9  1  0
  9  2  1  0
  9  5  1  0
  1 10  1  0
  1 11  1  0
  1 12  1  0
  2 13  1  0
  4 14  1  0
  4 15  1  0
  6 16  1  0
  9 17  1  0
M  END
