
     RDKit          3D

 17 18  0  0  0  0  0  0  0  0999 V2000
   -2.2131   -0.7870   -0.0390 C   0  0  0  0  0  0  0  0  0  0  0  0
   -0.7016   -0.8446   -0.1694 C   0  0  0  0  0  0  0  0  0  0  0  0
   -0.3796   -0.1957   -1.4871 O   0  0  0  0  0  0  0  0  0  0  0  0
    0.0779    0.2567   -0.2967 C   0  0  0  0  0  0  0  0  0  0  0  0
   -0.0324    1.6471    0.1783 C   0  0  0  0  0  0  0  0  0  0  0  0
    1.1368    1.4360    0.9495 O   0  0  0  0  0  0  0  0  0  0  0  0
    1.5080    0.4907    0.0124 C   0  0  0  0  0  0  0  0  0  0  0  0
    2.2306   -0.6870    0.5131 C   0  0  0  0  0  0  0  0  0  0  0  0
    2.5684   -1.5346   -0.2965 O   0  0  0  0  0  0  0  0  0  0  0  0
   -2.6168   -1.3953   -0.8909 H   0  0  0  0  0  0  0  0  0  0  0  0
   -2.5993    0.2327   -0.1911 H   0  0  0  0  0  0  0  0  0  0  0  0
   -2.5517   -1.2663    0.8853 H   0  0  0  0  0  0  0  0  0  0  0  0
   -0.3121   -1.8862   -0.1310 H   0  0  0  0  0  0  0  0  0  0  0  0
   -0.8752    1.9168    0.8144 H   0  0  0  0  0  0  0  0  0  0  0  0
    0.2296    2.4433   -0.5769 H   0  0  0  0  0  0  0  0  0  0  0  0
    2.0717    0.9833   -0.8208 H   0  0  0  0  0  0  0  0  0  0  0  0
    2.4589   -0.8098    1.5464 H   0  0  0  0  0  0  0  0  0  0  0  0
  1  2  1  0
  2  3  1  0
  3  4  1  0
  4  5  1  0
  5  6  1  0
  6  7  1  0
  7  8  1  0
  8  9  2  0
  4  2  1  0
  7  4  1  0
  1 10  1  0
  1 11  1  0
  1 12  1  0
  2 13  1  0
  5 14  1  0
  5 15  1  0
  7 16  1  0
  8 17  1  0
M  END
