
     RDKit          3D

 21 23  0  0  0  0  0  0  0  0999 V2000
    2.4158   -0.7717    0.2420 C   0  0  0  0  0  0  0  0  0  0  0  0
    1.2325    0.1485    0.1781 C   0  0  0  0  0  0  0  0  0  0  0  0
    1.3464    1.1679   -0.7130 O   0  0  0  0  0  0  0  0  0  0  0  0
    0.1790    1.3402   -1.3946 C   0  0  0  0  0  0  0  0  0  0  0  0
   -0.8248    0.3440   -0.9342 C   0  0  0  0  0  0  0  0  0  0  0  0
   -1.5125    0.6294    0.3768 C   0  0  0  0  0  0  0  0  0  0  0  0
   -2.3974   -0.4635    0.8399 C   0  0  0  0  0  0  0  0  0  0  0  0
   -0.9533   -0.7125    0.9566 C   0  0  0  0  0  0  0  0  0  0  0  0
    0.0033   -0.6614   -0.1766 C   0  0  0  0  0  0  0  0  0  0  0  0
    2.3268   -1.6182   -0.4489 H   0  0  0  0  0  0  0  0  0  0  0  0
    3.3720   -0.2152    0.1058 H   0  0  0  0  0  0  0  0  0  0  0  0
    2.4819   -1.2150    1.2721 H   0  0  0  0  0  0  0  0  0  0  0  0
    1.1320    0.6059    1.2057 H   0  0  0  0  0  0  0  0  0  0  0  0
    0.3838    1.1341   -2.4751 H   0  0  0  0  0  0  0  0  0  0  0  0
   -0.2062    2.3969   -1.3578 H   0  0  0  0  0  0  0  0  0  0  0  0
   -1.4628   -0.0646   -1.7332 H   0  0  0  0  0  0  0  0  0  0  0  0
   -1.2775    1.5124    0.9638 H   0  0  0  0  0  0  0  0  0  0  0  0
   -3.0160   -0.9560    0.0503 H   0  0  0  0  0  0  0  0  0  0  0  0
   -2.9504   -0.3520    1.7926 H   0  0  0  0  0  0  0  0  0  0  0  0
   -0.4893   -0.6431    1.9611 H   0  0  0  0  0  0  0  0  0  0  0  0
    0.2167   -1.6060   -0.7113 H   0  0  0  0  0  0  0  0  0  0  0  0
  1  2  1  0
  2  3  1  0
  3  4  1  0
  4  5  1  0
  5  6  1  0
  6  7  1  0
  7  8  1  0
  8  9  1  0
  9  2  1  0
  9  5  1  0
  8  6  1  0
  1 10  1  0
  1 11  1  0
  1 12  1  0
  2 13  1  0
  4 14  1  0
  4 15  1  0
  5 16  1  0
  6 17  1  0
  7 18  1  0
  7 19  1  0
  8 20  1  0
  9 21  1  0
M  END
