
     RDKit          3D

 19 19  0  0  0  0  0  0  0  0999 V2000
    2.7066   -0.3162   -0.3399 C   0  0  0  0  0  0  0  0  0  0  0  0
    1.4947   -0.4004    0.5641 C   0  0  0  0  0  0  0  0  0  0  0  0
    1.0479    0.7383    1.2049 O   0  0  0  0  0  0  0  0  0  0  0  0
    0.2416    0.1597    0.0939 C   0  0  0  0  0  0  0  0  0  0  0  0
    0.1420    1.1717   -0.9647 C   0  0  0  0  0  0  0  0  0  0  0  0
    1.1153    1.7015   -1.4331 O   0  0  0  0  0  0  0  0  0  0  0  0
   -1.0259   -0.4451    0.6115 C   0  0  0  0  0  0  0  0  0  0  0  0
   -2.1932    0.2688    0.0082 C   0  0  0  0  0  0  0  0  0  0  0  0
   -3.3521   -0.3480    0.5411 O   0  0  0  0  0  0  0  0  0  0  0  0
    2.3587   -0.4706   -1.3842 H   0  0  0  0  0  0  0  0  0  0  0  0
    3.1917    0.6744   -0.2891 H   0  0  0  0  0  0  0  0  0  0  0  0
    3.4684   -1.0660   -0.0616 H   0  0  0  0  0  0  0  0  0  0  0  0
    1.4537   -1.3197    1.1705 H   0  0  0  0  0  0  0  0  0  0  0  0
   -0.8252    1.4568   -1.3415 H   0  0  0  0  0  0  0  0  0  0  0  0
   -1.1270   -0.3937    1.7138 H   0  0  0  0  0  0  0  0  0  0  0  0
   -1.1009   -1.5232    0.3321 H   0  0  0  0  0  0  0  0  0  0  0  0
   -2.1844    1.3518    0.2021 H   0  0  0  0  0  0  0  0  0  0  0  0
   -2.2674    0.0496   -1.0971 H   0  0  0  0  0  0  0  0  0  0  0  0
   -3.1445   -1.2897    0.7700 H   0  0  0  0  0  0  0  0  0  0  0  0
  1  2  1  0
  2  3  1  0
  3  4  1  0
  4  5  1  0
  5  6  2  0
  4  7  1  0
  7  8  1  0
  8  9  1  0
  4  2  1  0
  1 10  1  0
  1 11  1  0
  1 12  1  0
  2 13  1  0
  5 14  1  0
  7 15  1  0
  7 16  1  0
  8 17  1  0
  8 18  1  0
  9 19  1  0
M  END
