
     RDKit          3D

 17 17  0  0  0  0  0  0  0  0999 V2000
   -2.0434   -0.7934   -0.0720 C   0  0  0  0  0  0  0  0  0  0  0  0
   -0.9503    0.0909    0.4638 C   0  0  0  0  0  0  0  0  0  0  0  0
   -1.2304    1.4639    0.4883 O   0  0  0  0  0  0  0  0  0  0  0  0
    0.0735    1.6938    0.1202 C   0  0  0  0  0  0  0  0  0  0  0  0
    0.8886    2.5994    0.3347 O   0  0  0  0  0  0  0  0  0  0  0  0
    0.0465    0.4181   -0.6143 C   0  0  0  0  0  0  0  0  0  0  0  0
    1.2974   -0.3952   -0.6106 C   0  0  0  0  0  0  0  0  0  0  0  0
    2.1074   -0.3012    0.6080 C   0  0  0  0  0  0  0  0  0  0  0  0
    1.7353    0.4202    1.5134 O   0  0  0  0  0  0  0  0  0  0  0  0
   -1.7897   -1.8338    0.1966 H   0  0  0  0  0  0  0  0  0  0  0  0
   -3.0301   -0.5784    0.4011 H   0  0  0  0  0  0  0  0  0  0  0  0
   -2.1325   -0.6194   -1.1604 H   0  0  0  0  0  0  0  0  0  0  0  0
   -0.4732   -0.2264    1.3850 H   0  0  0  0  0  0  0  0  0  0  0  0
   -0.4159    0.5691   -1.6188 H   0  0  0  0  0  0  0  0  0  0  0  0
    1.9062   -0.2055   -1.5130 H   0  0  0  0  0  0  0  0  0  0  0  0
    0.9790   -1.4721   -0.7014 H   0  0  0  0  0  0  0  0  0  0  0  0
    3.0316   -0.8300    0.7795 H   0  0  0  0  0  0  0  0  0  0  0  0
  1  2  1  0
  2  3  1  0
  3  4  1  0
  4  5  2  0
  4  6  1  0
  6  7  1  0
  7  8  1  0
  8  9  2  0
  6  2  1  0
  1 10  1  0
  1 11  1  0
  1 12  1  0
  2 13  1  0
  6 14  1  0
  7 15  1  0
  7 16  1  0
  8 17  1  0
M  END
