
     RDKit          3D

 19 21  0  0  0  0  0  0  0  0999 V2000
    2.5129    0.6760    0.5195 C   0  0  0  0  0  0  0  0  0  0  0  0
    1.0337    0.4650    0.1948 C   0  0  0  0  0  0  0  0  0  0  0  0
    0.8282    0.4767   -1.2057 O   0  0  0  0  0  0  0  0  0  0  0  0
   -0.3181   -0.2073   -0.8679 C   0  0  0  0  0  0  0  0  0  0  0  0
   -1.4633    0.6207   -0.6038 C   0  0  0  0  0  0  0  0  0  0  0  0
   -2.3184    0.3412    0.6414 C   0  0  0  0  0  0  0  0  0  0  0  0
   -1.7207    1.5921    0.2908 O   0  0  0  0  0  0  0  0  0  0  0  0
   -0.5198   -1.5873   -0.5647 C   0  0  0  0  0  0  0  0  0  0  0  0
    0.5915   -0.9568    0.0591 C   0  0  0  0  0  0  0  0  0  0  0  0
    2.7043    1.7531    0.5041 H   0  0  0  0  0  0  0  0  0  0  0  0
    3.1691    0.1511   -0.2053 H   0  0  0  0  0  0  0  0  0  0  0  0
    2.7231    0.2099    1.5104 H   0  0  0  0  0  0  0  0  0  0  0  0
    0.4721    1.1500    0.7971 H   0  0  0  0  0  0  0  0  0  0  0  0
   -2.1376    0.7145   -1.5180 H   0  0  0  0  0  0  0  0  0  0  0  0
   -1.8038   -0.0606    1.5399 H   0  0  0  0  0  0  0  0  0  0  0  0
   -3.4050    0.3553    0.5766 H   0  0  0  0  0  0  0  0  0  0  0  0
   -0.5339   -2.2770   -1.4609 H   0  0  0  0  0  0  0  0  0  0  0  0
   -1.3282   -1.9291    0.1469 H   0  0  0  0  0  0  0  0  0  0  0  0
    1.5139   -1.4876   -0.3542 H   0  0  0  0  0  0  0  0  0  0  0  0
  1  2  1  0
  2  3  1  0
  3  4  1  0
  4  5  1  0
  5  6  1  0
  6  7  1  0
  4  8  1  0
  8  9  1  0
  9  2  1  0
  9  4  1  0
  7  5  1  0
  1 10  1  0
  1 11  1  0
  1 12  1  0
  2 13  1  0
  5 14  1  0
  6 15  1  0
  6 16  1  0
  8 17  1  0
  8 18  1  0
  9 19  1  0
M  END
