
     RDKit          3D

 21 22  0  0  0  0  0  0  0  0999 V2000
    3.3501    0.0570    0.1194 C   0  0  0  0  0  0  0  0  0  0  0  0
    1.8976   -0.2454   -0.0894 C   0  0  0  0  0  0  0  0  0  0  0  0
    1.1574    1.0021   -0.3735 O   0  0  0  0  0  0  0  0  0  0  0  0
    0.8938    0.2541    0.8494 C   0  0  0  0  0  0  0  0  0  0  0  0
   -0.4653   -0.3434    0.9726 C   0  0  0  0  0  0  0  0  0  0  0  0
   -1.2605   -0.2864   -0.3160 C   0  0  0  0  0  0  0  0  0  0  0  0
   -2.6253   -0.8756   -0.2292 C   0  0  0  0  0  0  0  0  0  0  0  0
   -3.2526    0.3437   -0.4146 O   0  0  0  0  0  0  0  0  0  0  0  0
   -2.0467    0.9993   -0.4520 C   0  0  0  0  0  0  0  0  0  0  0  0
    3.4627    1.0436    0.6016 H   0  0  0  0  0  0  0  0  0  0  0  0
    3.8314   -0.7210    0.7558 H   0  0  0  0  0  0  0  0  0  0  0  0
    3.9398    0.0695   -0.8261 H   0  0  0  0  0  0  0  0  0  0  0  0
    1.6001   -0.9754   -0.8725 H   0  0  0  0  0  0  0  0  0  0  0  0
    1.3008    0.8787    1.6986 H   0  0  0  0  0  0  0  0  0  0  0  0
   -0.4854   -1.3726    1.3270 H   0  0  0  0  0  0  0  0  0  0  0  0
   -1.0351    0.2632    1.7306 H   0  0  0  0  0  0  0  0  0  0  0  0
   -0.6732   -0.4743   -1.2186 H   0  0  0  0  0  0  0  0  0  0  0  0
   -2.9210   -1.5582   -1.0767 H   0  0  0  0  0  0  0  0  0  0  0  0
   -2.9012   -1.3030    0.7677 H   0  0  0  0  0  0  0  0  0  0  0  0
   -1.9439    1.6390    0.4660 H   0  0  0  0  0  0  0  0  0  0  0  0
   -1.8235    1.6049   -1.3400 H   0  0  0  0  0  0  0  0  0  0  0  0
  1  2  1  0
  2  3  1  0
  3  4  1  0
  4  5  1  0
  5  6  1  0
  6  7  1  0
  7  8  1  0
  8  9  1  0
  4  2  1  0
  9  6  1  0
  1 10  1  0
  1 11  1  0
  1 12  1  0
  2 13  1  0
  4 14  1  0
  5 15  1  0
  5 16  1  0
  6 17  1  0
  7 18  1  0
  7 19  1  0
  9 20  1  0
  9 21  1  0
M  END
