
     RDKit          3D

 17 18  0  0  0  0  0  0  0  0999 V2000
    2.6341    0.0823   -0.7575 C   0  0  0  0  0  0  0  0  0  0  0  0
    1.3610   -0.5689   -0.2839 C   0  0  0  0  0  0  0  0  0  0  0  0
    0.4398   -1.0439   -1.1847 O   0  0  0  0  0  0  0  0  0  0  0  0
    0.0908    0.1702   -0.5371 C   0  0  0  0  0  0  0  0  0  0  0  0
   -0.9374    0.0921    0.5665 C   0  0  0  0  0  0  0  0  0  0  0  0
   -2.1655    0.8815    0.1767 C   0  0  0  0  0  0  0  0  0  0  0  0
   -2.5376   -0.2801   -0.5704 O   0  0  0  0  0  0  0  0  0  0  0  0
   -1.8594   -1.0255    0.3832 C   0  0  0  0  0  0  0  0  0  0  0  0
   -1.9676   -2.1683    0.8901 O   0  0  0  0  0  0  0  0  0  0  0  0
    3.0238   -0.3471   -1.6960 H   0  0  0  0  0  0  0  0  0  0  0  0
    2.4261    1.1679   -0.9338 H   0  0  0  0  0  0  0  0  0  0  0  0
    3.4087    0.0504    0.0359 H   0  0  0  0  0  0  0  0  0  0  0  0
    1.4414   -1.1574    0.6616 H   0  0  0  0  0  0  0  0  0  0  0  0
    0.0868    1.0138   -1.2363 H   0  0  0  0  0  0  0  0  0  0  0  0
   -0.5870    0.3173    1.5747 H   0  0  0  0  0  0  0  0  0  0  0  0
   -2.0004    1.7291   -0.4878 H   0  0  0  0  0  0  0  0  0  0  0  0
   -2.8574    1.0864    1.0418 H   0  0  0  0  0  0  0  0  0  0  0  0
  1  2  1  0
  2  3  1  0
  3  4  1  0
  4  5  1  0
  5  6  1  0
  6  7  1  0
  7  8  1  0
  8  9  2  0
  4  2  1  0
  8  5  1  0
  1 10  1  0
  1 11  1  0
  1 12  1  0
  2 13  1  0
  4 14  1  0
  5 15  1  0
  6 16  1  0
  6 17  1  0
M  END
