
     RDKit          3D

 19 21  0  0  0  0  0  0  0  0999 V2000
    2.4120   -0.2554    0.2104 C   0  0  0  0  0  0  0  0  0  0  0  0
    1.0059   -0.7705    0.2547 C   0  0  0  0  0  0  0  0  0  0  0  0
    0.4933   -0.8270   -1.0610 O   0  0  0  0  0  0  0  0  0  0  0  0
   -0.3718    0.2277   -0.9698 C   0  0  0  0  0  0  0  0  0  0  0  0
   -1.8408   -0.1624   -1.0396 C   0  0  0  0  0  0  0  0  0  0  0  0
   -1.9744   -0.9983    0.0349 O   0  0  0  0  0  0  0  0  0  0  0  0
   -1.3532   -0.3289    1.0882 C   0  0  0  0  0  0  0  0  0  0  0  0
   -0.0661    0.2307    0.5651 C   0  0  0  0  0  0  0  0  0  0  0  0
   -0.0559    1.4708   -0.2361 C   0  0  0  0  0  0  0  0  0  0  0  0
    2.9987   -0.4609    1.1207 H   0  0  0  0  0  0  0  0  0  0  0  0
    2.5160    0.7967   -0.0306 H   0  0  0  0  0  0  0  0  0  0  0  0
    2.9353   -0.8251   -0.6126 H   0  0  0  0  0  0  0  0  0  0  0  0
    0.8735   -1.6792    0.8433 H   0  0  0  0  0  0  0  0  0  0  0  0
   -2.0024   -0.6193   -2.0199 H   0  0  0  0  0  0  0  0  0  0  0  0
   -2.4491    0.7659   -0.8921 H   0  0  0  0  0  0  0  0  0  0  0  0
   -2.0066    0.3943    1.5776 H   0  0  0  0  0  0  0  0  0  0  0  0
   -1.1151   -1.1289    1.8496 H   0  0  0  0  0  0  0  0  0  0  0  0
   -0.9039    2.1705   -0.0872 H   0  0  0  0  0  0  0  0  0  0  0  0
    0.9045    1.9994   -0.3740 H   0  0  0  0  0  0  0  0  0  0  0  0
  1  2  1  0
  2  3  1  0
  3  4  1  0
  4  5  1  0
  5  6  1  0
  6  7  1  0
  7  8  1  0
  8  9  1  0
  8  2  1  0
  8  4  1  0
  9  4  1  0
  1 10  1  0
  1 11  1  0
  1 12  1  0
  2 13  1  0
  5 14  1  0
  5 15  1  0
  7 16  1  0
  7 17  1  0
  9 18  1  0
  9 19  1  0
M  END
