
     RDKit          3D

 21 23  0  0  0  0  0  0  0  0999 V2000
    2.4491   -0.6164    0.3832 C   0  0  0  0  0  0  0  0  0  0  0  0
    1.3501   -0.4603   -0.6675 C   0  0  0  0  0  0  0  0  0  0  0  0
    0.2978   -1.3736   -0.4104 O   0  0  0  0  0  0  0  0  0  0  0  0
   -0.7328   -0.5256   -0.0819 C   0  0  0  0  0  0  0  0  0  0  0  0
   -2.0432   -1.0854    0.2671 C   0  0  0  0  0  0  0  0  0  0  0  0
   -0.6836    0.6576   -1.0077 C   0  0  0  0  0  0  0  0  0  0  0  0
   -1.1948    1.4760    0.1410 C   0  0  0  0  0  0  0  0  0  0  0  0
   -0.1779    0.5811    0.7723 C   0  0  0  0  0  0  0  0  0  0  0  0
    0.6829    0.8406   -0.4298 C   0  0  0  0  0  0  0  0  0  0  0  0
    2.1083   -1.2186    1.2477 H   0  0  0  0  0  0  0  0  0  0  0  0
    3.3715   -1.0260   -0.0762 H   0  0  0  0  0  0  0  0  0  0  0  0
    2.7370    0.3961    0.7711 H   0  0  0  0  0  0  0  0  0  0  0  0
    1.7636   -0.6077   -1.6747 H   0  0  0  0  0  0  0  0  0  0  0  0
   -2.8117   -0.8702   -0.5196 H   0  0  0  0  0  0  0  0  0  0  0  0
   -2.4464   -0.8138    1.2568 H   0  0  0  0  0  0  0  0  0  0  0  0
   -1.9535   -2.2115    0.2824 H   0  0  0  0  0  0  0  0  0  0  0  0
   -0.9647    0.6943   -1.9649 H   0  0  0  0  0  0  0  0  0  0  0  0
   -2.2383    1.3480    0.4226 H   0  0  0  0  0  0  0  0  0  0  0  0
   -0.8123    2.5240    0.0896 H   0  0  0  0  0  0  0  0  0  0  0  0
    0.1043    0.5284    1.7290 H   0  0  0  0  0  0  0  0  0  0  0  0
    1.1946    1.7631   -0.5301 H   0  0  0  0  0  0  0  0  0  0  0  0
  1  2  1  0
  2  3  1  0
  3  4  1  0
  4  5  1  0
  4  6  1  0
  6  7  1  0
  7  8  1  0
  8  9  1  0
  9  2  1  0
  8  4  1  0
  9  6  1  0
  1 10  1  0
  1 11  1  0
  1 12  1  0
  2 13  1  0
  5 14  1  0
  5 15  1  0
  5 16  1  0
  6 17  1  0
  7 18  1  0
  7 19  1  0
  8 20  1  0
  9 21  1  0
M  END
