
     RDKit          3D

 18 18  0  0  0  0  0  0  0  0999 V2000
    2.1720   -0.3147   -0.1388 C   0  0  0  0  0  0  0  0  0  0  0  0
    1.0700    0.3276    0.6748 C   0  0  0  0  0  0  0  0  0  0  0  0
    0.1191   -0.6417    1.0018 O   0  0  0  0  0  0  0  0  0  0  0  0
   -0.5080   -0.3480   -0.2139 C   0  0  0  0  0  0  0  0  0  0  0  0
   -2.0151   -0.4841   -0.0231 C   0  0  0  0  0  0  0  0  0  0  0  0
   -2.2337   -1.8118    0.3653 O   0  0  0  0  0  0  0  0  0  0  0  0
    0.0191    1.0516   -0.1021 C   0  0  0  0  0  0  0  0  0  0  0  0
    0.4635    1.6315   -1.2808 O   0  0  0  0  0  0  0  0  0  0  0  0
    3.0944    0.2968   -0.1731 H   0  0  0  0  0  0  0  0  0  0  0  0
    2.4608   -1.2468    0.4279 H   0  0  0  0  0  0  0  0  0  0  0  0
    1.8844   -0.5468   -1.1640 H   0  0  0  0  0  0  0  0  0  0  0  0
    1.4497    0.9296    1.5062 H   0  0  0  0  0  0  0  0  0  0  0  0
   -0.1220   -0.9061   -1.0815 H   0  0  0  0  0  0  0  0  0  0  0  0
   -2.5875   -0.1835   -0.8971 H   0  0  0  0  0  0  0  0  0  0  0  0
   -2.2582    0.1710    0.8549 H   0  0  0  0  0  0  0  0  0  0  0  0
   -2.1770   -1.8755    1.3508 H   0  0  0  0  0  0  0  0  0  0  0  0
   -0.5702    1.7284    0.5196 H   0  0  0  0  0  0  0  0  0  0  0  0
   -0.2612    2.2226   -1.6270 H   0  0  0  0  0  0  0  0  0  0  0  0
  1  2  1  0
  2  3  1  0
  3  4  1  0
  4  5  1  0
  5  6  1  0
  4  7  1  0
  7  8  1  0
  7  2  1  0
  1  9  1  0
  1 10  1  0
  1 11  1  0
  2 12  1  0
  4 13  1  0
  5 14  1  0
  5 15  1  0
  6 16  1  0
  7 17  1  0
  8 18  1  0
M  END
