
     RDKit          3D

 19 19  0  0  0  0  0  0  0  0999 V2000
   -2.0461    0.5268   -0.3217 C   0  0  0  0  0  0  0  0  0  0  0  0
   -1.1373   -0.6251   -0.5728 C   0  0  0  0  0  0  0  0  0  0  0  0
   -1.2939   -1.5872    0.4525 O   0  0  0  0  0  0  0  0  0  0  0  0
   -0.3163   -0.8662    1.1602 C   0  0  0  0  0  0  0  0  0  0  0  0
    0.2823   -0.4988   -0.1804 C   0  0  0  0  0  0  0  0  0  0  0  0
    1.0977   -1.4846   -0.6755 O   0  0  0  0  0  0  0  0  0  0  0  0
    0.9169    0.8310   -0.1436 C   0  0  0  0  0  0  0  0  0  0  0  0
    2.3334    0.7100    0.2748 C   0  0  0  0  0  0  0  0  0  0  0  0
    3.0806    1.6873    0.3820 O   0  0  0  0  0  0  0  0  0  0  0  0
   -1.6455    1.2854    0.3621 H   0  0  0  0  0  0  0  0  0  0  0  0
   -2.3741    1.0495   -1.2430 H   0  0  0  0  0  0  0  0  0  0  0  0
   -2.9774    0.1286    0.1712 H   0  0  0  0  0  0  0  0  0  0  0  0
   -1.3000   -1.1227   -1.5500 H   0  0  0  0  0  0  0  0  0  0  0  0
   -0.8056   -0.0411    1.6957 H   0  0  0  0  0  0  0  0  0  0  0  0
    0.3952   -1.4800    1.7256 H   0  0  0  0  0  0  0  0  0  0  0  0
    1.7545   -1.0688   -1.2809 H   0  0  0  0  0  0  0  0  0  0  0  0
    0.9394    1.2362   -1.1959 H   0  0  0  0  0  0  0  0  0  0  0  0
    0.3711    1.5940    0.4458 H   0  0  0  0  0  0  0  0  0  0  0  0
    2.7250   -0.2740    0.4941 H   0  0  0  0  0  0  0  0  0  0  0  0
  1  2  1  0
  2  3  1  0
  3  4  1  0
  4  5  1  0
  5  6  1  0
  5  7  1  0
  7  8  1  0
  8  9  2  0
  5  2  1  0
  1 10  1  0
  1 11  1  0
  1 12  1  0
  2 13  1  0
  4 14  1  0
  4 15  1  0
  6 16  1  0
  7 17  1  0
  7 18  1  0
  8 19  1  0
M  END
