
     RDKit          3D

 17 18  0  0  0  0  0  0  0  0999 V2000
    2.2428   -0.2835    0.4972 C   0  0  0  0  0  0  0  0  0  0  0  0
    1.0979    0.6370    0.1438 C   0  0  0  0  0  0  0  0  0  0  0  0
    0.5481    0.3821   -1.1059 O   0  0  0  0  0  0  0  0  0  0  0  0
   -0.7007    0.1998   -0.5195 C   0  0  0  0  0  0  0  0  0  0  0  0
   -1.7699    1.1592   -0.8098 C   0  0  0  0  0  0  0  0  0  0  0  0
   -1.5861    2.1039   -1.5481 O   0  0  0  0  0  0  0  0  0  0  0  0
   -0.8861   -0.9902    0.3059 C   0  0  0  0  0  0  0  0  0  0  0  0
   -2.1072   -1.2601    0.8995 O   0  0  0  0  0  0  0  0  0  0  0  0
   -0.1614    0.1804    0.8544 C   0  0  0  0  0  0  0  0  0  0  0  0
    3.1130    0.2685    0.9063 H   0  0  0  0  0  0  0  0  0  0  0  0
    2.6130   -0.8520   -0.3970 H   0  0  0  0  0  0  0  0  0  0  0  0
    1.9453   -1.0666    1.2381 H   0  0  0  0  0  0  0  0  0  0  0  0
    1.2696    1.7103    0.3827 H   0  0  0  0  0  0  0  0  0  0  0  0
   -2.7394    1.0328   -0.3653 H   0  0  0  0  0  0  0  0  0  0  0  0
   -0.2688   -1.8869    0.0065 H   0  0  0  0  0  0  0  0  0  0  0  0
   -2.0253   -2.0978    1.4472 H   0  0  0  0  0  0  0  0  0  0  0  0
   -0.5847    0.7630    1.6702 H   0  0  0  0  0  0  0  0  0  0  0  0
  1  2  1  0
  2  3  1  0
  3  4  1  0
  4  5  1  0
  5  6  2  0
  4  7  1  0
  7  8  1  0
  7  9  1  0
  9  2  1  0
  9  4  1  0
  1 10  1  0
  1 11  1  0
  1 12  1  0
  2 13  1  0
  5 14  1  0
  7 15  1  0
  8 16  1  0
  9 17  1  0
M  END
