
     RDKit          3D

 17 17  0  0  0  0  0  0  0  0999 V2000
    2.5866   -0.2828    0.0087 C   0  0  0  0  0  0  0  0  0  0  0  0
    1.1322    0.0765   -0.2573 C   0  0  0  0  0  0  0  0  0  0  0  0
    0.7623    1.2867    0.4304 O   0  0  0  0  0  0  0  0  0  0  0  0
    0.2180   -0.0333    0.8257 C   0  0  0  0  0  0  0  0  0  0  0  0
   -1.2744    0.0156    0.7228 C   0  0  0  0  0  0  0  0  0  0  0  0
   -1.8144    1.2599    0.1582 C   0  0  0  0  0  0  0  0  0  0  0  0
   -2.9471    1.2935   -0.2554 O   0  0  0  0  0  0  0  0  0  0  0  0
   -1.8415   -1.1339    0.0189 C   0  0  0  0  0  0  0  0  0  0  0  0
   -2.9364   -1.0527   -0.4844 O   0  0  0  0  0  0  0  0  0  0  0  0
    2.7596   -1.3515   -0.2631 H   0  0  0  0  0  0  0  0  0  0  0  0
    2.8383   -0.1928    1.0819 H   0  0  0  0  0  0  0  0  0  0  0  0
    3.2794    0.3945   -0.5401 H   0  0  0  0  0  0  0  0  0  0  0  0
    0.8234    0.0219   -1.3159 H   0  0  0  0  0  0  0  0  0  0  0  0
    0.6014   -0.3572    1.8139 H   0  0  0  0  0  0  0  0  0  0  0  0
   -1.6818   -0.0270    1.7821 H   0  0  0  0  0  0  0  0  0  0  0  0
   -1.2028    2.1378    0.1134 H   0  0  0  0  0  0  0  0  0  0  0  0
   -1.3028   -2.0553   -0.0613 H   0  0  0  0  0  0  0  0  0  0  0  0
  1  2  1  0
  2  3  1  0
  3  4  1  0
  4  5  1  0
  5  6  1  0
  6  7  2  0
  5  8  1  0
  8  9  2  0
  4  2  1  0
  1 10  1  0
  1 11  1  0
  1 12  1  0
  2 13  1  0
  4 14  1  0
  5 15  1  0
  6 16  1  0
  8 17  1  0
M  END
