
     RDKit          3D

 21 22  0  0  0  0  0  0  0  0999 V2000
   -2.7011   -0.9713    0.0142 C   0  0  0  0  0  0  0  0  0  0  0  0
   -1.6219   -0.1001   -0.6420 C   0  0  0  0  0  0  0  0  0  0  0  0
   -1.8619    1.2661   -0.4295 O   0  0  0  0  0  0  0  0  0  0  0  0
   -0.6532    1.5452    0.1828 C   0  0  0  0  0  0  0  0  0  0  0  0
   -0.4413    0.0330    0.2821 C   0  0  0  0  0  0  0  0  0  0  0  0
    0.8829   -0.4097   -0.2794 C   0  0  0  0  0  0  0  0  0  0  0  0
    1.9670   -0.2118    0.7735 C   0  0  0  0  0  0  0  0  0  0  0  0
    2.7352    0.1085   -0.4812 C   0  0  0  0  0  0  0  0  0  0  0  0
    1.5466    0.5856   -1.0321 O   0  0  0  0  0  0  0  0  0  0  0  0
   -3.0018   -0.4056    0.9333 H   0  0  0  0  0  0  0  0  0  0  0  0
   -3.5529   -1.1433   -0.6533 H   0  0  0  0  0  0  0  0  0  0  0  0
   -2.2407   -1.9131    0.3961 H   0  0  0  0  0  0  0  0  0  0  0  0
   -1.3516   -0.3857   -1.6565 H   0  0  0  0  0  0  0  0  0  0  0  0
   -0.6894    2.0627    1.1477 H   0  0  0  0  0  0  0  0  0  0  0  0
    0.1026    2.0447   -0.4790 H   0  0  0  0  0  0  0  0  0  0  0  0
   -0.6218   -0.3094    1.3109 H   0  0  0  0  0  0  0  0  0  0  0  0
    0.9031   -1.3655   -0.8055 H   0  0  0  0  0  0  0  0  0  0  0  0
    1.7413    0.6595    1.3913 H   0  0  0  0  0  0  0  0  0  0  0  0
    2.2510   -1.1470    1.2931 H   0  0  0  0  0  0  0  0  0  0  0  0
    3.5047    0.8700   -0.2681 H   0  0  0  0  0  0  0  0  0  0  0  0
    3.1031   -0.8128   -0.9985 H   0  0  0  0  0  0  0  0  0  0  0  0
  1  2  1  0
  2  3  1  0
  3  4  1  0
  4  5  1  0
  5  6  1  0
  6  7  1  0
  7  8  1  0
  8  9  1  0
  5  2  1  0
  9  6  1  0
  1 10  1  0
  1 11  1  0
  1 12  1  0
  2 13  1  0
  4 14  1  0
  4 15  1  0
  5 16  1  0
  6 17  1  0
  7 18  1  0
  7 19  1  0
  8 20  1  0
  8 21  1  0
M  END
