
     RDKit          3D

 21 22  0  0  0  0  0  0  0  0999 V2000
   -3.0855   -0.8408    0.0266 C   0  0  0  0  0  0  0  0  0  0  0  0
   -1.8568   -0.1139    0.5013 C   0  0  0  0  0  0  0  0  0  0  0  0
   -1.5859    0.9976   -0.3112 O   0  0  0  0  0  0  0  0  0  0  0  0
   -0.2440    1.2519    0.0622 C   0  0  0  0  0  0  0  0  0  0  0  0
    0.3353   -0.1179    0.0585 C   0  0  0  0  0  0  0  0  0  0  0  0
    1.1779   -0.5537   -1.0675 C   0  0  0  0  0  0  0  0  0  0  0  0
    1.7006   -0.4597    0.3827 C   0  0  0  0  0  0  0  0  0  0  0  0
    2.8184    0.5137    0.5454 C   0  0  0  0  0  0  0  0  0  0  0  0
   -0.7208   -0.9251    0.4362 O   0  0  0  0  0  0  0  0  0  0  0  0
   -2.8589   -1.7248   -0.5957 H   0  0  0  0  0  0  0  0  0  0  0  0
   -3.6772   -0.1521   -0.6276 H   0  0  0  0  0  0  0  0  0  0  0  0
   -3.7485   -1.1096    0.8846 H   0  0  0  0  0  0  0  0  0  0  0  0
   -2.0152    0.1960    1.5654 H   0  0  0  0  0  0  0  0  0  0  0  0
   -0.2982    1.7389    1.0434 H   0  0  0  0  0  0  0  0  0  0  0  0
    0.1852    1.9067   -0.7365 H   0  0  0  0  0  0  0  0  0  0  0  0
    1.0114   -1.5565   -1.4821 H   0  0  0  0  0  0  0  0  0  0  0  0
    1.5099    0.2091   -1.7835 H   0  0  0  0  0  0  0  0  0  0  0  0
    1.8774   -1.4480    0.8772 H   0  0  0  0  0  0  0  0  0  0  0  0
    2.5480    1.5651    0.3619 H   0  0  0  0  0  0  0  0  0  0  0  0
    3.5953    0.2596   -0.2224 H   0  0  0  0  0  0  0  0  0  0  0  0
    3.3314    0.3633    1.5267 H   0  0  0  0  0  0  0  0  0  0  0  0
  1  2  1  0
  2  3  1  0
  3  4  1  0
  4  5  1  0
  5  6  1  0
  6  7  1  0
  7  8  1  0
  5  9  1  0
  9  2  1  0
  7  5  1  0
  1 10  1  0
  1 11  1  0
  1 12  1  0
  2 13  1  0
  4 14  1  0
  4 15  1  0
  6 16  1  0
  6 17  1  0
  7 18  1  0
  8 19  1  0
  8 20  1  0
  8 21  1  0
M  END
