
     RDKit          3D

 21 21  0  0  0  0  0  0  0  0999 V2000
    2.4833    0.4431   -0.5959 C   0  0  0  0  0  0  0  0  0  0  0  0
    1.0430    0.6847   -0.1514 C   0  0  0  0  0  0  0  0  0  0  0  0
    0.1895    0.2613   -1.1899 O   0  0  0  0  0  0  0  0  0  0  0  0
   -0.6605   -0.3088   -0.2265 C   0  0  0  0  0  0  0  0  0  0  0  0
   -1.1763   -1.6792   -0.5929 C   0  0  0  0  0  0  0  0  0  0  0  0
   -1.7818    0.6278    0.0770 C   0  0  0  0  0  0  0  0  0  0  0  0
   -1.3703    1.8524    0.5737 O   0  0  0  0  0  0  0  0  0  0  0  0
    0.4708   -0.3769    0.7261 C   0  0  0  0  0  0  0  0  0  0  0  0
    0.2487   -0.0718    2.0371 O   0  0  0  0  0  0  0  0  0  0  0  0
    3.1990    0.7804    0.1913 H   0  0  0  0  0  0  0  0  0  0  0  0
    2.6175   -0.6215   -0.8589 H   0  0  0  0  0  0  0  0  0  0  0  0
    2.6239    1.0798   -1.4976 H   0  0  0  0  0  0  0  0  0  0  0  0
    0.9246    1.7249    0.1483 H   0  0  0  0  0  0  0  0  0  0  0  0
   -1.4520   -2.1896    0.3569 H   0  0  0  0  0  0  0  0  0  0  0  0
   -2.0899   -1.5795   -1.2446 H   0  0  0  0  0  0  0  0  0  0  0  0
   -0.3964   -2.2971   -1.0706 H   0  0  0  0  0  0  0  0  0  0  0  0
   -2.5334    0.2184    0.7702 H   0  0  0  0  0  0  0  0  0  0  0  0
   -2.3213    0.8270   -0.8824 H   0  0  0  0  0  0  0  0  0  0  0  0
   -1.9306    2.5843    0.2185 H   0  0  0  0  0  0  0  0  0  0  0  0
    1.0328   -1.3451    0.6015 H   0  0  0  0  0  0  0  0  0  0  0  0
    0.8793   -0.6147    2.6100 H   0  0  0  0  0  0  0  0  0  0  0  0
  1  2  1  0
  2  3  1  0
  3  4  1  0
  4  5  1  0
  4  6  1  0
  6  7  1  0
  4  8  1  0
  8  9  1  0
  8  2  1  0
  1 10  1  0
  1 11  1  0
  1 12  1  0
  2 13  1  0
  5 14  1  0
  5 15  1  0
  5 16  1  0
  6 17  1  0
  6 18  1  0
  7 19  1  0
  8 20  1  0
  9 21  1  0
M  END
