
     RDKit          3D

 23 24  0  0  0  0  0  0  0  0999 V2000
    2.5596    0.2139    0.2316 C   0  0  0  0  0  0  0  0  0  0  0  0
    1.2682   -0.4417   -0.0958 C   0  0  0  0  0  0  0  0  0  0  0  0
    0.9130   -1.4575    0.8073 O   0  0  0  0  0  0  0  0  0  0  0  0
   -0.3534   -1.8137    0.2883 C   0  0  0  0  0  0  0  0  0  0  0  0
   -1.0470   -0.4529    0.2439 C   0  0  0  0  0  0  0  0  0  0  0  0
   -2.3127   -0.4126   -0.5272 C   0  0  0  0  0  0  0  0  0  0  0  0
   -0.7077    0.5051    1.3074 C   0  0  0  0  0  0  0  0  0  0  0  0
    0.0674    0.4811    0.0530 C   0  0  0  0  0  0  0  0  0  0  0  0
    0.0190    1.6775   -0.8181 C   0  0  0  0  0  0  0  0  0  0  0  0
    3.2869   -0.0471   -0.5882 H   0  0  0  0  0  0  0  0  0  0  0  0
    3.0365   -0.1308    1.1663 H   0  0  0  0  0  0  0  0  0  0  0  0
    2.5261    1.3108    0.2675 H   0  0  0  0  0  0  0  0  0  0  0  0
    1.2633   -0.9417   -1.1049 H   0  0  0  0  0  0  0  0  0  0  0  0
   -0.8657   -2.5317    0.9250 H   0  0  0  0  0  0  0  0  0  0  0  0
   -0.1450   -2.1795   -0.7432 H   0  0  0  0  0  0  0  0  0  0  0  0
   -2.1713   -0.7396   -1.5840 H   0  0  0  0  0  0  0  0  0  0  0  0
   -2.8396    0.5416   -0.4481 H   0  0  0  0  0  0  0  0  0  0  0  0
   -3.0053   -1.1851   -0.0847 H   0  0  0  0  0  0  0  0  0  0  0  0
   -0.2626    0.1535    2.2795 H   0  0  0  0  0  0  0  0  0  0  0  0
   -1.3893    1.3499    1.4485 H   0  0  0  0  0  0  0  0  0  0  0  0
   -0.0037    1.4854   -1.8970 H   0  0  0  0  0  0  0  0  0  0  0  0
    0.9641    2.2682   -0.6359 H   0  0  0  0  0  0  0  0  0  0  0  0
   -0.8006    2.3468   -0.4912 H   0  0  0  0  0  0  0  0  0  0  0  0
  1  2  1  0
  2  3  1  0
  3  4  1  0
  4  5  1  0
  5  6  1  0
  5  7  1  0
  7  8  1  0
  8  9  1  0
  8  2  1  0
  8  5  1  0
  1 10  1  0
  1 11  1  0
  1 12  1  0
  2 13  1  0
  4 14  1  0
  4 15  1  0
  6 16  1  0
  6 17  1  0
  6 18  1  0
  7 19  1  0
  7 20  1  0
  9 21  1  0
  9 22  1  0
  9 23  1  0
M  END
