
     RDKit          3D

 14 15  0  0  0  0  0  0  0  0999 V2000
    1.6808    0.4667    0.1393 C   0  0  0  0  0  0  0  0  0  0  0  0
    0.6750   -0.5245   -0.3374 C   0  0  0  0  0  0  0  0  0  0  0  0
    0.3818   -1.5825    0.5853 O   0  0  0  0  0  0  0  0  0  0  0  0
   -0.9178   -1.5426    0.1132 C   0  0  0  0  0  0  0  0  0  0  0  0
   -1.8259   -2.3846    0.0034 O   0  0  0  0  0  0  0  0  0  0  0  0
   -0.7471   -0.1359   -0.1819 C   0  0  0  0  0  0  0  0  0  0  0  0
   -1.3488    0.9862    0.2936 C   0  0  0  0  0  0  0  0  0  0  0  0
   -1.4484    0.5404   -1.1290 O   0  0  0  0  0  0  0  0  0  0  0  0
    2.5635   -0.0261    0.5719 H   0  0  0  0  0  0  0  0  0  0  0  0
    1.2015    1.1892    0.8311 H   0  0  0  0  0  0  0  0  0  0  0  0
    2.0269    1.0536   -0.7322 H   0  0  0  0  0  0  0  0  0  0  0  0
    0.9237   -1.0129   -1.3242 H   0  0  0  0  0  0  0  0  0  0  0  0
   -0.8282    1.9780    0.3708 H   0  0  0  0  0  0  0  0  0  0  0  0
   -2.3370    0.9948    0.7962 H   0  0  0  0  0  0  0  0  0  0  0  0
  1  2  1  0
  2  3  1  0
  3  4  1  0
  4  5  2  0
  4  6  1  0
  6  7  1  0
  7  8  1  0
  6  2  1  0
  8  6  1  0
  1  9  1  0
  1 10  1  0
  1 11  1  0
  2 12  1  0
  7 13  1  0
  7 14  1  0
M  END
