
     RDKit          3D

 21 22  0  0  0  0  0  0  0  0999 V2000
   -2.3164   -0.4525   -0.2142 C   0  0  0  0  0  0  0  0  0  0  0  0
   -0.8364   -0.7698   -0.2767 C   0  0  0  0  0  0  0  0  0  0  0  0
   -0.4747   -1.4147    0.9269 O   0  0  0  0  0  0  0  0  0  0  0  0
    0.5754   -0.5139    1.0849 C   0  0  0  0  0  0  0  0  0  0  0  0
    1.8286   -1.1824    0.5989 C   0  0  0  0  0  0  0  0  0  0  0  0
    2.2078   -0.5957   -0.5198 C   0  0  0  0  0  0  0  0  0  0  0  0
    1.2799    0.5048   -0.9056 C   0  0  0  0  0  0  0  0  0  0  0  0
    0.0909    0.3559   -0.0123 C   0  0  0  0  0  0  0  0  0  0  0  0
   -0.5490    1.6538    0.3584 C   0  0  0  0  0  0  0  0  0  0  0  0
   -2.7221   -0.5260    0.8198 H   0  0  0  0  0  0  0  0  0  0  0  0
   -2.5055    0.5955   -0.5370 H   0  0  0  0  0  0  0  0  0  0  0  0
   -2.8564   -1.1857   -0.8554 H   0  0  0  0  0  0  0  0  0  0  0  0
   -0.5588   -1.3628   -1.1893 H   0  0  0  0  0  0  0  0  0  0  0  0
    0.6775   -0.0721    2.0922 H   0  0  0  0  0  0  0  0  0  0  0  0
    2.3096   -2.0073    1.1120 H   0  0  0  0  0  0  0  0  0  0  0  0
    3.0971   -0.9062   -1.0666 H   0  0  0  0  0  0  0  0  0  0  0  0
    1.7887    1.4578   -0.6527 H   0  0  0  0  0  0  0  0  0  0  0  0
    1.0507    0.3923   -1.9755 H   0  0  0  0  0  0  0  0  0  0  0  0
   -1.0441    2.0771   -0.5504 H   0  0  0  0  0  0  0  0  0  0  0  0
    0.2575    2.3824    0.6129 H   0  0  0  0  0  0  0  0  0  0  0  0
   -1.3003    1.5696    1.1495 H   0  0  0  0  0  0  0  0  0  0  0  0
  1  2  1  0
  2  3  1  0
  3  4  1  0
  4  5  1  0
  5  6  2  0
  6  7  1  0
  7  8  1  0
  8  9  1  0
  8  2  1  0
  8  4  1  0
  1 10  1  0
  1 11  1  0
  1 12  1  0
  2 13  1  0
  4 14  1  0
  5 15  1  0
  6 16  1  0
  7 17  1  0
  7 18  1  0
  9 19  1  0
  9 20  1  0
  9 21  1  0
M  END
