
     RDKit          3D

 21 21  0  0  0  0  0  0  0  0999 V2000
    1.9759   -0.8980   -0.4298 C   0  0  0  0  0  0  0  0  0  0  0  0
    0.5743   -0.5607    0.1488 C   0  0  0  0  0  0  0  0  0  0  0  0
   -0.2859   -1.0644   -0.7166 O   0  0  0  0  0  0  0  0  0  0  0  0
   -1.5401   -1.5681   -0.3917 C   0  0  0  0  0  0  0  0  0  0  0  0
   -2.4269   -0.4782    0.0003 O   0  0  0  0  0  0  0  0  0  0  0  0
   -1.6457    0.5134    0.2900 C   0  0  0  0  0  0  0  0  0  0  0  0
   -0.7590    1.5480    0.6187 C   0  0  0  0  0  0  0  0  0  0  0  0
    0.6745    0.9737    0.3335 C   0  0  0  0  0  0  0  0  0  0  0  0
    1.2424    1.5879   -0.7406 O   0  0  0  0  0  0  0  0  0  0  0  0
    2.2602   -1.9392   -0.1330 H   0  0  0  0  0  0  0  0  0  0  0  0
    1.9405   -0.8902   -1.5266 H   0  0  0  0  0  0  0  0  0  0  0  0
    2.7419   -0.2398    0.0064 H   0  0  0  0  0  0  0  0  0  0  0  0
    0.6377   -1.0620    1.1630 H   0  0  0  0  0  0  0  0  0  0  0  0
   -1.9634   -2.0047   -1.2860 H   0  0  0  0  0  0  0  0  0  0  0  0
   -1.4189   -2.2460    0.4610 H   0  0  0  0  0  0  0  0  0  0  0  0
   -1.2720    0.5070   -0.7858 H   0  0  0  0  0  0  0  0  0  0  0  0
   -1.1639   -0.1533    1.0779 H   0  0  0  0  0  0  0  0  0  0  0  0
   -0.8602    2.5079    0.0332 H   0  0  0  0  0  0  0  0  0  0  0  0
   -0.7902    1.9320    1.6787 H   0  0  0  0  0  0  0  0  0  0  0  0
    1.2756    1.1247    1.2377 H   0  0  0  0  0  0  0  0  0  0  0  0
    0.8031    2.4099   -1.0390 H   0  0  0  0  0  0  0  0  0  0  0  0
  1  2  1  0
  2  3  1  0
  3  4  1  0
  4  5  1  0
  5  6  1  0
  6  7  1  0
  7  8  1  0
  8  9  1  0
  8  2  1  0
  1 10  1  0
  1 11  1  0
  1 12  1  0
  2 13  1  0
  4 14  1  0
  4 15  1  0
  6 16  1  0
  6 17  1  0
  7 18  1  0
  7 19  1  0
  8 20  1  0
  9 21  1  0
M  END
