
     RDKit          3D

 19 20  0  0  0  0  0  0  0  0999 V2000
    3.1695   -0.2244    0.3691 C   0  0  0  0  0  0  0  0  0  0  0  0
    1.8744   -0.3533   -0.3556 C   0  0  0  0  0  0  0  0  0  0  0  0
    1.4505    0.9556   -0.9369 O   0  0  0  0  0  0  0  0  0  0  0  0
    0.6485    0.2313    0.0829 C   0  0  0  0  0  0  0  0  0  0  0  0
   -0.6484   -0.1900   -0.5797 C   0  0  0  0  0  0  0  0  0  0  0  0
   -1.5484   -0.8906    0.3314 C   0  0  0  0  0  0  0  0  0  0  0  0
   -2.7015   -0.2374    0.3613 C   0  0  0  0  0  0  0  0  0  0  0  0
   -2.5931    0.9371   -0.5480 C   0  0  0  0  0  0  0  0  0  0  0  0
   -1.2839    0.9660   -1.0032 O   0  0  0  0  0  0  0  0  0  0  0  0
    3.9426   -0.9371   -0.0353 H   0  0  0  0  0  0  0  0  0  0  0  0
    3.6427    0.7919    0.2618 H   0  0  0  0  0  0  0  0  0  0  0  0
    3.1183   -0.4184    1.4508 H   0  0  0  0  0  0  0  0  0  0  0  0
    1.8546   -1.1335   -1.1434 H   0  0  0  0  0  0  0  0  0  0  0  0
    0.5415    0.8446    0.9810 H   0  0  0  0  0  0  0  0  0  0  0  0
   -0.4370   -0.8081   -1.4653 H   0  0  0  0  0  0  0  0  0  0  0  0
   -1.3479   -1.7807    0.8960 H   0  0  0  0  0  0  0  0  0  0  0  0
   -3.5706   -0.4815    0.9241 H   0  0  0  0  0  0  0  0  0  0  0  0
   -2.7699    1.8326    0.0572 H   0  0  0  0  0  0  0  0  0  0  0  0
   -3.3420    0.8962   -1.3638 H   0  0  0  0  0  0  0  0  0  0  0  0
  1  2  1  0
  2  3  1  0
  3  4  1  0
  4  5  1  0
  5  6  1  0
  6  7  2  0
  7  8  1  0
  8  9  1  0
  4  2  1  0
  9  5  1  0
  1 10  1  0
  1 11  1  0
  1 12  1  0
  2 13  1  0
  4 14  1  0
  5 15  1  0
  6 16  1  0
  7 17  1  0
  8 18  1  0
  8 19  1  0
M  END
