
     RDKit          3D

 18 19  0  0  0  0  0  0  0  0999 V2000
    2.3607    0.5479    0.3484 C   0  0  0  0  0  0  0  0  0  0  0  0
    1.1143   -0.0305   -0.2921 C   0  0  0  0  0  0  0  0  0  0  0  0
    0.3278    0.8966   -0.9720 O   0  0  0  0  0  0  0  0  0  0  0  0
   -0.5945    1.0312    0.0493 C   0  0  0  0  0  0  0  0  0  0  0  0
   -1.9644    0.5866   -0.2258 C   0  0  0  0  0  0  0  0  0  0  0  0
   -2.1274   -0.7121   -0.0252 C   0  0  0  0  0  0  0  0  0  0  0  0
   -0.8566   -1.3394    0.4246 C   0  0  0  0  0  0  0  0  0  0  0  0
    0.0235   -0.1657    0.7248 C   0  0  0  0  0  0  0  0  0  0  0  0
    2.9192    1.0617   -0.4536 H   0  0  0  0  0  0  0  0  0  0  0  0
    2.9102   -0.2951    0.8006 H   0  0  0  0  0  0  0  0  0  0  0  0
    2.0018    1.2891    1.1053 H   0  0  0  0  0  0  0  0  0  0  0  0
    1.3223   -0.9584   -0.8416 H   0  0  0  0  0  0  0  0  0  0  0  0
   -0.4760    1.9972    0.5797 H   0  0  0  0  0  0  0  0  0  0  0  0
   -2.7611    1.2433   -0.5571 H   0  0  0  0  0  0  0  0  0  0  0  0
   -3.0423   -1.2801   -0.1582 H   0  0  0  0  0  0  0  0  0  0  0  0
   -0.4632   -1.9486   -0.4128 H   0  0  0  0  0  0  0  0  0  0  0  0
   -0.9773   -1.9437    1.3244 H   0  0  0  0  0  0  0  0  0  0  0  0
    0.2832    0.0200    1.7646 H   0  0  0  0  0  0  0  0  0  0  0  0
  1  2  1  0
  2  3  1  0
  3  4  1  0
  4  5  1  0
  5  6  2  0
  6  7  1  0
  7  8  1  0
  8  2  1  0
  8  4  1  0
  1  9  1  0
  1 10  1  0
  1 11  1  0
  2 12  1  0
  4 13  1  0
  5 14  1  0
  6 15  1  0
  7 16  1  0
  7 17  1  0
  8 18  1  0
M  END
