
     RDKit          3D

 21 22  0  0  0  0  0  0  0  0999 V2000
    1.9733    1.0298    0.3897 C   0  0  0  0  0  0  0  0  0  0  0  0
    1.4589    0.2307   -0.7607 C   0  0  0  0  0  0  0  0  0  0  0  0
    1.7517   -1.1234   -0.5014 O   0  0  0  0  0  0  0  0  0  0  0  0
    0.5870   -1.7028    0.0481 C   0  0  0  0  0  0  0  0  0  0  0  0
   -0.1688   -0.5172    0.5098 C   0  0  0  0  0  0  0  0  0  0  0  0
   -0.0121    0.1890   -0.9018 C   0  0  0  0  0  0  0  0  0  0  0  0
   -1.1151    0.3514   -0.0484 C   0  0  0  0  0  0  0  0  0  0  0  0
   -2.4798   -0.2748   -0.3863 C   0  0  0  0  0  0  0  0  0  0  0  0
   -1.3174    1.6469    0.4776 O   0  0  0  0  0  0  0  0  0  0  0  0
    2.4222    0.3822    1.1968 H   0  0  0  0  0  0  0  0  0  0  0  0
    2.8444    1.6293    0.0119 H   0  0  0  0  0  0  0  0  0  0  0  0
    1.2559    1.7602    0.7992 H   0  0  0  0  0  0  0  0  0  0  0  0
    1.8970    0.5469   -1.7467 H   0  0  0  0  0  0  0  0  0  0  0  0
    0.0329   -2.2733   -0.7253 H   0  0  0  0  0  0  0  0  0  0  0  0
    0.9154   -2.3263    0.8940 H   0  0  0  0  0  0  0  0  0  0  0  0
    0.4332   -0.0452    1.3500 H   0  0  0  0  0  0  0  0  0  0  0  0
   -0.2414   -0.4779   -1.7942 H   0  0  0  0  0  0  0  0  0  0  0  0
   -3.1879   -0.0227    0.4172 H   0  0  0  0  0  0  0  0  0  0  0  0
   -2.3683   -1.3637   -0.5110 H   0  0  0  0  0  0  0  0  0  0  0  0
   -2.7684    0.1948   -1.3655 H   0  0  0  0  0  0  0  0  0  0  0  0
   -1.9124    2.1659   -0.1133 H   0  0  0  0  0  0  0  0  0  0  0  0
  1  2  1  0
  2  3  1  0
  3  4  1  0
  4  5  1  0
  5  6  1  0
  6  7  1  0
  7  8  1  0
  7  9  1  0
  6  2  1  0
  7  5  1  0
  1 10  1  0
  1 11  1  0
  1 12  1  0
  2 13  1  0
  4 14  1  0
  4 15  1  0
  5 16  1  0
  6 17  1  0
  8 18  1  0
  8 19  1  0
  8 20  1  0
  9 21  1  0
M  END
