
     RDKit          3D

 16 17  0  0  0  0  0  0  0  0999 V2000
    2.2310   -0.3414   -0.4466 C   0  0  0  0  0  0  0  0  0  0  0  0
    1.0514    0.6150   -0.5480 C   0  0  0  0  0  0  0  0  0  0  0  0
    0.7872    1.1856    0.8069 O   0  0  0  0  0  0  0  0  0  0  0  0
   -0.1087    0.3993    0.1291 C   0  0  0  0  0  0  0  0  0  0  0  0
   -1.5110    0.8403   -0.1317 C   0  0  0  0  0  0  0  0  0  0  0  0
   -1.9649   -0.5839    0.2161 C   0  0  0  0  0  0  0  0  0  0  0  0
   -0.5862   -0.8778    0.6862 C   0  0  0  0  0  0  0  0  0  0  0  0
   -0.0375   -1.7810    1.2837 O   0  0  0  0  0  0  0  0  0  0  0  0
    2.1701   -0.9048    0.5301 H   0  0  0  0  0  0  0  0  0  0  0  0
    2.1665   -1.1140   -1.2296 H   0  0  0  0  0  0  0  0  0  0  0  0
    3.1941    0.1866   -0.4191 H   0  0  0  0  0  0  0  0  0  0  0  0
    1.2237    1.4448   -1.2658 H   0  0  0  0  0  0  0  0  0  0  0  0
   -1.7848    1.0978   -1.1581 H   0  0  0  0  0  0  0  0  0  0  0  0
   -1.8362    1.5689    0.6598 H   0  0  0  0  0  0  0  0  0  0  0  0
   -2.7406   -0.5793    1.0050 H   0  0  0  0  0  0  0  0  0  0  0  0
   -2.2539   -1.1560   -0.7104 H   0  0  0  0  0  0  0  0  0  0  0  0
  1  2  1  0
  2  3  1  0
  3  4  1  0
  4  5  1  0
  5  6  1  0
  6  7  1  0
  7  8  2  0
  4  2  1  0
  7  4  1  0
  1  9  1  0
  1 10  1  0
  1 11  1  0
  2 12  1  0
  5 13  1  0
  5 14  1  0
  6 15  1  0
  6 16  1  0
M  END
