
     RDKit          3D

 20 21  0  0  0  0  0  0  0  0999 V2000
    2.2641   -0.2349   -0.4721 C   0  0  0  0  0  0  0  0  0  0  0  0
    0.7576   -0.2141   -0.6338 C   0  0  0  0  0  0  0  0  0  0  0  0
    0.2791    1.1228   -0.6850 O   0  0  0  0  0  0  0  0  0  0  0  0
   -0.5189    1.2001    0.4283 C   0  0  0  0  0  0  0  0  0  0  0  0
    0.2433    0.4553    1.5368 C   0  0  0  0  0  0  0  0  0  0  0  0
    0.0277   -0.7127    0.5629 C   0  0  0  0  0  0  0  0  0  0  0  0
   -1.3546   -0.0892    0.3597 C   0  0  0  0  0  0  0  0  0  0  0  0
   -1.9373   -0.3294   -1.0059 C   0  0  0  0  0  0  0  0  0  0  0  0
    2.5536   -1.1645    0.0935 H   0  0  0  0  0  0  0  0  0  0  0  0
    2.7403   -0.2387   -1.4896 H   0  0  0  0  0  0  0  0  0  0  0  0
    2.6480    0.6660    0.0374 H   0  0  0  0  0  0  0  0  0  0  0  0
    0.5247   -0.7333   -1.5734 H   0  0  0  0  0  0  0  0  0  0  0  0
   -1.0210    2.0926    0.6962 H   0  0  0  0  0  0  0  0  0  0  0  0
   -0.3692    0.2820    2.4235 H   0  0  0  0  0  0  0  0  0  0  0  0
    1.2788    0.7632    1.6635 H   0  0  0  0  0  0  0  0  0  0  0  0
    0.1038   -1.6921    0.9216 H   0  0  0  0  0  0  0  0  0  0  0  0
   -2.0280   -0.1655    1.2113 H   0  0  0  0  0  0  0  0  0  0  0  0
   -2.0081   -1.3968   -1.2767 H   0  0  0  0  0  0  0  0  0  0  0  0
   -2.9064    0.1831   -1.0506 H   0  0  0  0  0  0  0  0  0  0  0  0
   -1.2776    0.2060   -1.7475 H   0  0  0  0  0  0  0  0  0  0  0  0
  1  2  1  0
  2  3  1  0
  3  4  1  0
  4  5  1  0
  5  6  1  0
  6  7  1  0
  7  8  1  0
  6  2  1  0
  7  4  1  0
  1  9  1  0
  1 10  1  0
  1 11  1  0
  2 12  1  0
  4 13  1  0
  5 14  1  0
  5 15  1  0
  6 16  1  0
  7 17  1  0
  8 18  1  0
  8 19  1  0
  8 20  1  0
M  END
