
     RDKit          3D

 23 24  0  0  0  0  0  0  0  0999 V2000
   -2.9236    0.5366   -0.7255 C   0  0  0  0  0  0  0  0  0  0  0  0
   -1.4895    0.1553   -0.9233 C   0  0  0  0  0  0  0  0  0  0  0  0
   -1.0684   -1.1215   -0.5733 O   0  0  0  0  0  0  0  0  0  0  0  0
   -0.5580   -0.0061    0.2234 C   0  0  0  0  0  0  0  0  0  0  0  0
   -1.0792   -0.0508    1.6201 C   0  0  0  0  0  0  0  0  0  0  0  0
    0.8663    0.3580   -0.0162 C   0  0  0  0  0  0  0  0  0  0  0  0
    1.5702   -0.4300   -1.1126 C   0  0  0  0  0  0  0  0  0  0  0  0
    2.8173   -0.2918   -0.2472 C   0  0  0  0  0  0  0  0  0  0  0  0
    1.8714   -0.2553    0.9471 C   0  0  0  0  0  0  0  0  0  0  0  0
   -3.1177    1.4885   -1.2815 H   0  0  0  0  0  0  0  0  0  0  0  0
   -3.6081   -0.2134   -1.2023 H   0  0  0  0  0  0  0  0  0  0  0  0
   -3.1954    0.7397    0.3228 H   0  0  0  0  0  0  0  0  0  0  0  0
   -1.0538    0.4957   -1.8951 H   0  0  0  0  0  0  0  0  0  0  0  0
   -2.1169   -0.4027    1.6242 H   0  0  0  0  0  0  0  0  0  0  0  0
   -0.9600    0.9729    2.0636 H   0  0  0  0  0  0  0  0  0  0  0  0
   -0.4664   -0.8001    2.1930 H   0  0  0  0  0  0  0  0  0  0  0  0
    1.0618    1.4342   -0.1076 H   0  0  0  0  0  0  0  0  0  0  0  0
    1.2618   -1.4870   -1.1763 H   0  0  0  0  0  0  0  0  0  0  0  0
    1.5976    0.1229   -2.0584 H   0  0  0  0  0  0  0  0  0  0  0  0
    3.2413    0.7273   -0.4128 H   0  0  0  0  0  0  0  0  0  0  0  0
    3.5139   -1.1207   -0.2827 H   0  0  0  0  0  0  0  0  0  0  0  0
    1.6224   -1.2769    1.2695 H   0  0  0  0  0  0  0  0  0  0  0  0
    2.2130    0.4253    1.7511 H   0  0  0  0  0  0  0  0  0  0  0  0
  1  2  1  0
  2  3  1  0
  3  4  1  0
  4  5  1  0
  4  6  1  0
  6  7  1  0
  7  8  1  0
  8  9  1  0
  4  2  1  0
  9  6  1  0
  1 10  1  0
  1 11  1  0
  1 12  1  0
  2 13  1  0
  5 14  1  0
  5 15  1  0
  5 16  1  0
  6 17  1  0
  7 18  1  0
  7 19  1  0
  8 20  1  0
  8 21  1  0
  9 22  1  0
  9 23  1  0
M  END
