
     RDKit          3D

 21 22  0  0  0  0  0  0  0  0999 V2000
   -2.3254   -0.7006   -0.7596 C   0  0  0  0  0  0  0  0  0  0  0  0
   -0.8456   -0.3754   -0.5046 C   0  0  0  0  0  0  0  0  0  0  0  0
   -0.4383   -1.3864    0.3891 O   0  0  0  0  0  0  0  0  0  0  0  0
    0.9232   -1.4699    0.5144 C   0  0  0  0  0  0  0  0  0  0  0  0
    1.5347   -0.1026    0.5016 C   0  0  0  0  0  0  0  0  0  0  0  0
    1.9978    0.1365   -0.7980 O   0  0  0  0  0  0  0  0  0  0  0  0
    0.5806    0.9867    0.9182 C   0  0  0  0  0  0  0  0  0  0  0  0
    0.2228    1.9706   -0.1081 C   0  0  0  0  0  0  0  0  0  0  0  0
   -0.7419    0.9200    0.2099 C   0  0  0  0  0  0  0  0  0  0  0  0
   -2.7901    0.0073   -1.4413 H   0  0  0  0  0  0  0  0  0  0  0  0
   -2.3353   -1.7554   -1.1015 H   0  0  0  0  0  0  0  0  0  0  0  0
   -2.7880   -0.7166    0.2619 H   0  0  0  0  0  0  0  0  0  0  0  0
   -0.3311   -0.4334   -1.4682 H   0  0  0  0  0  0  0  0  0  0  0  0
    1.4026   -2.0924   -0.2769 H   0  0  0  0  0  0  0  0  0  0  0  0
    1.1327   -1.9372    1.5169 H   0  0  0  0  0  0  0  0  0  0  0  0
    2.4103   -0.0404    1.1922 H   0  0  0  0  0  0  0  0  0  0  0  0
    2.7702   -0.4038   -1.0360 H   0  0  0  0  0  0  0  0  0  0  0  0
    0.4731    1.1766    2.0092 H   0  0  0  0  0  0  0  0  0  0  0  0
   -0.0033    2.9969    0.2583 H   0  0  0  0  0  0  0  0  0  0  0  0
    0.8280    1.9904   -1.0401 H   0  0  0  0  0  0  0  0  0  0  0  0
   -1.6770    1.2290    0.7625 H   0  0  0  0  0  0  0  0  0  0  0  0
  1  2  1  0
  2  3  1  0
  3  4  1  0
  4  5  1  0
  5  6  1  0
  5  7  1  0
  7  8  1  0
  8  9  1  0
  9  2  1  0
  9  7  1  0
  1 10  1  0
  1 11  1  0
  1 12  1  0
  2 13  1  0
  4 14  1  0
  4 15  1  0
  5 16  1  0
  6 17  1  0
  7 18  1  0
  8 19  1  0
  8 20  1  0
  9 21  1  0
M  END
