
     RDKit          3D

 19 21  0  0  0  0  0  0  0  0999 V2000
    2.6635    0.4170    0.8705 C   0  0  0  0  0  0  0  0  0  0  0  0
    1.8830   -0.2363   -0.2304 C   0  0  0  0  0  0  0  0  0  0  0  0
    1.5162    0.6235   -1.2779 O   0  0  0  0  0  0  0  0  0  0  0  0
    0.2994   -0.0283   -1.3053 C   0  0  0  0  0  0  0  0  0  0  0  0
    0.4676   -0.5811    0.0830 C   0  0  0  0  0  0  0  0  0  0  0  0
   -0.6570    0.3381   -0.2066 C   0  0  0  0  0  0  0  0  0  0  0  0
   -2.0483   -0.1667   -0.4263 C   0  0  0  0  0  0  0  0  0  0  0  0
   -3.0435    0.1811    0.6581 C   0  0  0  0  0  0  0  0  0  0  0  0
   -2.5891   -1.1085    0.4450 O   0  0  0  0  0  0  0  0  0  0  0  0
    3.3851   -0.3496    1.2670 H   0  0  0  0  0  0  0  0  0  0  0  0
    3.1842    1.3151    0.4893 H   0  0  0  0  0  0  0  0  0  0  0  0
    1.9662    0.7345    1.6526 H   0  0  0  0  0  0  0  0  0  0  0  0
    2.4060   -1.1198   -0.7033 H   0  0  0  0  0  0  0  0  0  0  0  0
    0.0089   -0.6831   -2.1275 H   0  0  0  0  0  0  0  0  0  0  0  0
    0.2644   -1.6329    0.2970 H   0  0  0  0  0  0  0  0  0  0  0  0
   -0.5399    1.3775    0.1833 H   0  0  0  0  0  0  0  0  0  0  0  0
   -2.4332   -0.2884   -1.4690 H   0  0  0  0  0  0  0  0  0  0  0  0
   -2.6857    0.7292    1.5413 H   0  0  0  0  0  0  0  0  0  0  0  0
   -4.0480    0.4788    0.2593 H   0  0  0  0  0  0  0  0  0  0  0  0
  1  2  1  0
  2  3  1  0
  3  4  1  0
  4  5  1  0
  5  6  1  0
  6  7  1  0
  7  8  1  0
  8  9  1  0
  5  2  1  0
  9  7  1  0
  6  4  1  0
  1 10  1  0
  1 11  1  0
  1 12  1  0
  2 13  1  0
  4 14  1  0
  5 15  1  0
  6 16  1  0
  7 17  1  0
  8 18  1  0
  8 19  1  0
M  END
