
     RDKit          3D

 23 23  0  0  0  0  0  0  0  0999 V2000
    2.4189    0.7998    0.8444 C   0  0  0  0  0  0  0  0  0  0  0  0
    1.2352   -0.0509    0.4487 C   0  0  0  0  0  0  0  0  0  0  0  0
    0.0934    0.5865    0.8909 O   0  0  0  0  0  0  0  0  0  0  0  0
   -0.9835    0.0573    0.1963 C   0  0  0  0  0  0  0  0  0  0  0  0
   -1.5064   -1.2019    0.7888 C   0  0  0  0  0  0  0  0  0  0  0  0
   -2.1432    1.0535    0.1376 C   0  0  0  0  0  0  0  0  0  0  0  0
   -0.4409   -0.0850   -1.1926 C   0  0  0  0  0  0  0  0  0  0  0  0
    1.0709   -0.0461   -1.0543 C   0  0  0  0  0  0  0  0  0  0  0  0
    1.6972   -1.0916   -1.6801 O   0  0  0  0  0  0  0  0  0  0  0  0
    2.2255    1.2678    1.8421 H   0  0  0  0  0  0  0  0  0  0  0  0
    2.6303    1.6098    0.1133 H   0  0  0  0  0  0  0  0  0  0  0  0
    3.3527    0.2275    0.9545 H   0  0  0  0  0  0  0  0  0  0  0  0
    1.3764   -1.0616    0.8393 H   0  0  0  0  0  0  0  0  0  0  0  0
   -2.3361   -0.9471    1.5130 H   0  0  0  0  0  0  0  0  0  0  0  0
   -1.9508   -1.9057    0.0723 H   0  0  0  0  0  0  0  0  0  0  0  0
   -0.7424   -1.7183    1.4281 H   0  0  0  0  0  0  0  0  0  0  0  0
   -2.6643    0.8354   -0.8331 H   0  0  0  0  0  0  0  0  0  0  0  0
   -1.7830    2.0937    0.1541 H   0  0  0  0  0  0  0  0  0  0  0  0
   -2.8820    0.8249    0.9342 H   0  0  0  0  0  0  0  0  0  0  0  0
   -0.8085   -0.9784   -1.6943 H   0  0  0  0  0  0  0  0  0  0  0  0
   -0.7105    0.8179   -1.7982 H   0  0  0  0  0  0  0  0  0  0  0  0
    1.5111    0.8940   -1.4233 H   0  0  0  0  0  0  0  0  0  0  0  0
    1.3399   -1.9816   -1.4817 H   0  0  0  0  0  0  0  0  0  0  0  0
  1  2  1  0
  2  3  1  0
  3  4  1  0
  4  5  1  0
  4  6  1  0
  4  7  1  0
  7  8  1  0
  8  9  1  0
  8  2  1  0
  1 10  1  0
  1 11  1  0
  1 12  1  0
  2 13  1  0
  5 14  1  0
  5 15  1  0
  5 16  1  0
  6 17  1  0
  6 18  1  0
  6 19  1  0
  7 20  1  0
  7 21  1  0
  8 22  1  0
  9 23  1  0
M  END
