
     RDKit          3D

 23 24  0  0  0  0  0  0  0  0999 V2000
    2.5149   -0.2146   -0.1790 C   0  0  0  0  0  0  0  0  0  0  0  0
    1.1691   -0.6217   -0.7141 C   0  0  0  0  0  0  0  0  0  0  0  0
    0.7163   -1.7564   -0.0003 O   0  0  0  0  0  0  0  0  0  0  0  0
   -0.5922   -1.2523   -0.1960 C   0  0  0  0  0  0  0  0  0  0  0  0
   -1.5530   -1.5567    0.9050 C   0  0  0  0  0  0  0  0  0  0  0  0
   -0.0136    0.0977   -0.2709 C   0  0  0  0  0  0  0  0  0  0  0  0
   -0.0065    0.9805    0.8930 C   0  0  0  0  0  0  0  0  0  0  0  0
   -1.0628    1.8434    0.1890 C   0  0  0  0  0  0  0  0  0  0  0  0
   -0.6483    1.1319   -1.1021 C   0  0  0  0  0  0  0  0  0  0  0  0
    2.9496    0.6289   -0.7622 H   0  0  0  0  0  0  0  0  0  0  0  0
    2.4269    0.0066    0.8969 H   0  0  0  0  0  0  0  0  0  0  0  0
    3.2037   -1.0778   -0.3584 H   0  0  0  0  0  0  0  0  0  0  0  0
    1.2181   -0.8696   -1.7869 H   0  0  0  0  0  0  0  0  0  0  0  0
   -0.9355   -1.6088   -1.2050 H   0  0  0  0  0  0  0  0  0  0  0  0
   -1.0712   -1.9162    1.8405 H   0  0  0  0  0  0  0  0  0  0  0  0
   -2.1945   -0.6850    1.1869 H   0  0  0  0  0  0  0  0  0  0  0  0
   -2.2670   -2.3428    0.5481 H   0  0  0  0  0  0  0  0  0  0  0  0
    0.9269    1.5968    0.9584 H   0  0  0  0  0  0  0  0  0  0  0  0
   -0.3119    0.5980    1.8752 H   0  0  0  0  0  0  0  0  0  0  0  0
   -2.0983    1.6278    0.5095 H   0  0  0  0  0  0  0  0  0  0  0  0
   -0.8578    2.9205    0.2074 H   0  0  0  0  0  0  0  0  0  0  0  0
   -1.5139    0.7154   -1.6767 H   0  0  0  0  0  0  0  0  0  0  0  0
    0.0009    1.7545   -1.7583 H   0  0  0  0  0  0  0  0  0  0  0  0
  1  2  1  0
  2  3  1  0
  3  4  1  0
  4  5  1  0
  4  6  1  0
  6  7  1  0
  7  8  1  0
  8  9  1  0
  6  2  1  0
  9  6  1  0
  1 10  1  0
  1 11  1  0
  1 12  1  0
  2 13  1  0
  4 14  1  0
  5 15  1  0
  5 16  1  0
  5 17  1  0
  7 18  1  0
  7 19  1  0
  8 20  1  0
  8 21  1  0
  9 22  1  0
  9 23  1  0
M  END
