
     RDKit          3D

 19 19  0  0  0  0  0  0  0  0999 V2000
   -2.6529    0.7978    0.3554 C   0  0  0  0  0  0  0  0  0  0  0  0
   -1.6350   -0.2835    0.0774 C   0  0  0  0  0  0  0  0  0  0  0  0
   -1.2810   -0.2957   -1.3598 O   0  0  0  0  0  0  0  0  0  0  0  0
   -0.3116    0.0924   -0.2709 C   0  0  0  0  0  0  0  0  0  0  0  0
    0.8715   -0.7944   -0.3905 C   0  0  0  0  0  0  0  0  0  0  0  0
    0.5800   -2.1418   -0.2576 O   0  0  0  0  0  0  0  0  0  0  0  0
    1.9480   -0.3455    0.5718 C   0  0  0  0  0  0  0  0  0  0  0  0
    2.3490    1.0473    0.2564 C   0  0  0  0  0  0  0  0  0  0  0  0
    1.7813    2.0428    0.6338 O   0  0  0  0  0  0  0  0  0  0  0  0
   -3.3578    0.5150    1.1665 H   0  0  0  0  0  0  0  0  0  0  0  0
   -2.1399    1.7670    0.5882 H   0  0  0  0  0  0  0  0  0  0  0  0
   -3.2634    1.0086   -0.5587 H   0  0  0  0  0  0  0  0  0  0  0  0
   -1.9302   -1.2729    0.4438 H   0  0  0  0  0  0  0  0  0  0  0  0
   -0.0878    1.1748   -0.4400 H   0  0  0  0  0  0  0  0  0  0  0  0
    1.3010   -0.6567   -1.4204 H   0  0  0  0  0  0  0  0  0  0  0  0
    0.2977   -2.4892   -1.1486 H   0  0  0  0  0  0  0  0  0  0  0  0
    1.4700   -0.3294    1.5813 H   0  0  0  0  0  0  0  0  0  0  0  0
    2.8228   -1.0368    0.5466 H   0  0  0  0  0  0  0  0  0  0  0  0
    3.2385    1.2001   -0.3747 H   0  0  0  0  0  0  0  0  0  0  0  0
  1  2  1  0
  2  3  1  0
  3  4  1  0
  4  5  1  0
  5  6  1  0
  5  7  1  0
  7  8  1  0
  8  9  2  0
  4  2  1  0
  1 10  1  0
  1 11  1  0
  1 12  1  0
  2 13  1  0
  4 14  1  0
  5 15  1  0
  6 16  1  0
  7 17  1  0
  7 18  1  0
  8 19  1  0
M  END
