
     RDKit          3D

 21 21  0  0  0  0  0  0  0  0999 V2000
   -2.1921   -0.0489   -0.9856 C   0  0  0  0  0  0  0  0  0  0  0  0
   -0.8515    0.1880   -0.3379 C   0  0  0  0  0  0  0  0  0  0  0  0
   -0.8500    1.1795    0.6020 O   0  0  0  0  0  0  0  0  0  0  0  0
    0.4064    1.6398    0.8841 C   0  0  0  0  0  0  0  0  0  0  0  0
    1.4633    1.1995   -0.0254 C   0  0  0  0  0  0  0  0  0  0  0  0
    1.7318   -0.0288   -0.4278 C   0  0  0  0  0  0  0  0  0  0  0  0
    1.0498   -1.2915   -0.0783 C   0  0  0  0  0  0  0  0  0  0  0  0
   -0.3800   -1.0818    0.3389 C   0  0  0  0  0  0  0  0  0  0  0  0
   -0.5040   -0.9869    1.7242 O   0  0  0  0  0  0  0  0  0  0  0  0
   -2.4535    0.9066   -1.5162 H   0  0  0  0  0  0  0  0  0  0  0  0
   -2.9716   -0.3741   -0.2851 H   0  0  0  0  0  0  0  0  0  0  0  0
   -2.0165   -0.7866   -1.8147 H   0  0  0  0  0  0  0  0  0  0  0  0
   -0.1579    0.5044   -1.1614 H   0  0  0  0  0  0  0  0  0  0  0  0
    0.3427    2.7685    0.8676 H   0  0  0  0  0  0  0  0  0  0  0  0
    0.7203    1.4000    1.9370 H   0  0  0  0  0  0  0  0  0  0  0  0
    2.1194    1.9939   -0.4263 H   0  0  0  0  0  0  0  0  0  0  0  0
    2.5628   -0.1464   -1.1080 H   0  0  0  0  0  0  0  0  0  0  0  0
    1.0107   -1.9328   -1.0083 H   0  0  0  0  0  0  0  0  0  0  0  0
    1.6271   -1.9075    0.6544 H   0  0  0  0  0  0  0  0  0  0  0  0
   -1.0054   -1.9263    0.0007 H   0  0  0  0  0  0  0  0  0  0  0  0
    0.3482   -1.2686    2.1661 H   0  0  0  0  0  0  0  0  0  0  0  0
  1  2  1  0
  2  3  1  0
  3  4  1  0
  4  5  1  0
  5  6  2  0
  6  7  1  0
  7  8  1  0
  8  9  1  0
  8  2  1  0
  1 10  1  0
  1 11  1  0
  1 12  1  0
  2 13  1  0
  4 14  1  0
  4 15  1  0
  5 16  1  0
  6 17  1  0
  7 18  1  0
  7 19  1  0
  8 20  1  0
  9 21  1  0
M  END
