
     RDKit          3D

 17 18  0  0  0  0  0  0  0  0999 V2000
    2.5892   -0.2597   -0.2874 C   0  0  0  0  0  0  0  0  0  0  0  0
    1.3040    0.4831   -0.0496 C   0  0  0  0  0  0  0  0  0  0  0  0
    1.1614    1.7686    0.1631 O   0  0  0  0  0  0  0  0  0  0  0  0
   -0.1001    2.0689    0.3301 C   0  0  0  0  0  0  0  0  0  0  0  0
   -0.8658    0.9059    0.2231 C   0  0  0  0  0  0  0  0  0  0  0  0
    0.0335   -0.0988   -0.0184 C   0  0  0  0  0  0  0  0  0  0  0  0
   -0.7429   -1.3462   -0.1374 C   0  0  0  0  0  0  0  0  0  0  0  0
   -2.1491   -0.9638    0.0561 C   0  0  0  0  0  0  0  0  0  0  0  0
   -2.2052    0.3344    0.2625 C   0  0  0  0  0  0  0  0  0  0  0  0
    3.2858    0.1028    0.4978 H   0  0  0  0  0  0  0  0  0  0  0  0
    2.4355   -1.3318   -0.1012 H   0  0  0  0  0  0  0  0  0  0  0  0
    2.9672   -0.1174   -1.3085 H   0  0  0  0  0  0  0  0  0  0  0  0
   -0.4842    3.0533    0.5193 H   0  0  0  0  0  0  0  0  0  0  0  0
   -0.6731   -1.7335   -1.1917 H   0  0  0  0  0  0  0  0  0  0  0  0
   -0.4021   -2.1334    0.5676 H   0  0  0  0  0  0  0  0  0  0  0  0
   -3.0274   -1.6441    0.0346 H   0  0  0  0  0  0  0  0  0  0  0  0
   -3.1266    0.9116    0.4399 H   0  0  0  0  0  0  0  0  0  0  0  0
  1  2  1  0
  2  3  1  0
  3  4  1  0
  4  5  2  0
  5  6  1  0
  6  7  1  0
  7  8  1  0
  8  9  2  0
  6  2  2  0
  9  5  1  0
  1 10  1  0
  1 11  1  0
  1 12  1  0
  4 13  1  0
  7 14  1  0
  7 15  1  0
  8 16  1  0
  9 17  1  0
M  END
