
     RDKit          3D

 19 21  0  0  0  0  0  0  0  0999 V2000
    1.9776   -0.4905    1.2493 C   0  0  0  0  0  0  0  0  0  0  0  0
    1.0725   -0.5333    0.0662 C   0  0  0  0  0  0  0  0  0  0  0  0
    1.6467   -0.0960   -1.1464 O   0  0  0  0  0  0  0  0  0  0  0  0
    0.3620    0.4199   -1.4344 C   0  0  0  0  0  0  0  0  0  0  0  0
    0.0984    1.7268   -0.8038 C   0  0  0  0  0  0  0  0  0  0  0  0
   -0.0089    0.4794   -0.0221 C   0  0  0  0  0  0  0  0  0  0  0  0
   -1.3696    0.1400    0.4973 C   0  0  0  0  0  0  0  0  0  0  0  0
   -2.1516   -0.9700   -0.0293 C   0  0  0  0  0  0  0  0  0  0  0  0
   -2.4709    0.3992   -0.3089 O   0  0  0  0  0  0  0  0  0  0  0  0
    3.0226   -0.7358    0.9159 H   0  0  0  0  0  0  0  0  0  0  0  0
    1.9182    0.5336    1.6892 H   0  0  0  0  0  0  0  0  0  0  0  0
    1.6258   -1.2644    1.9754 H   0  0  0  0  0  0  0  0  0  0  0  0
    0.6508   -1.5617   -0.1358 H   0  0  0  0  0  0  0  0  0  0  0  0
   -0.2285   -0.0131   -2.2322 H   0  0  0  0  0  0  0  0  0  0  0  0
    0.9094    2.4342   -0.5457 H   0  0  0  0  0  0  0  0  0  0  0  0
   -0.8382    2.2285   -1.1102 H   0  0  0  0  0  0  0  0  0  0  0  0
   -1.4732    0.3269    1.6071 H   0  0  0  0  0  0  0  0  0  0  0  0
   -2.9324   -1.4331    0.6274 H   0  0  0  0  0  0  0  0  0  0  0  0
   -1.8107   -1.5906   -0.8589 H   0  0  0  0  0  0  0  0  0  0  0  0
  1  2  1  0
  2  3  1  0
  3  4  1  0
  4  5  1  0
  5  6  1  0
  6  7  1  0
  7  8  1  0
  8  9  1  0
  6  2  1  0
  9  7  1  0
  6  4  1  0
  1 10  1  0
  1 11  1  0
  1 12  1  0
  2 13  1  0
  4 14  1  0
  5 15  1  0
  5 16  1  0
  7 17  1  0
  8 18  1  0
  8 19  1  0
M  END
