
     RDKit          3D

 21 21  0  0  0  0  0  0  0  0999 V2000
    2.8243    0.1589    0.2349 C   0  0  0  0  0  0  0  0  0  0  0  0
    1.3381    0.3599    0.5087 C   0  0  0  0  0  0  0  0  0  0  0  0
    0.7082    1.0254   -0.5050 O   0  0  0  0  0  0  0  0  0  0  0  0
   -0.6004    0.6293   -0.5786 C   0  0  0  0  0  0  0  0  0  0  0  0
   -1.5850    1.7192   -0.2277 C   0  0  0  0  0  0  0  0  0  0  0  0
   -0.7734   -0.5870    0.3032 C   0  0  0  0  0  0  0  0  0  0  0  0
   -1.5324   -1.6896   -0.3871 C   0  0  0  0  0  0  0  0  0  0  0  0
    0.6315   -0.9276    0.5725 C   0  0  0  0  0  0  0  0  0  0  0  0
    1.1005   -2.0004    0.7933 O   0  0  0  0  0  0  0  0  0  0  0  0
    3.0833   -0.9207    0.2059 H   0  0  0  0  0  0  0  0  0  0  0  0
    3.4509    0.6514    0.9848 H   0  0  0  0  0  0  0  0  0  0  0  0
    3.0082    0.5343   -0.8026 H   0  0  0  0  0  0  0  0  0  0  0  0
    1.2572    0.9386    1.4664 H   0  0  0  0  0  0  0  0  0  0  0  0
   -0.8597    0.3002   -1.6185 H   0  0  0  0  0  0  0  0  0  0  0  0
   -1.5204    2.0457    0.8176 H   0  0  0  0  0  0  0  0  0  0  0  0
   -1.3921    2.5601   -0.9302 H   0  0  0  0  0  0  0  0  0  0  0  0
   -2.6018    1.3257   -0.4367 H   0  0  0  0  0  0  0  0  0  0  0  0
   -1.2476   -0.3305    1.2753 H   0  0  0  0  0  0  0  0  0  0  0  0
   -2.4688   -1.9141    0.1866 H   0  0  0  0  0  0  0  0  0  0  0  0
   -0.9364   -2.6041   -0.5029 H   0  0  0  0  0  0  0  0  0  0  0  0
   -1.8843   -1.2746   -1.3599 H   0  0  0  0  0  0  0  0  0  0  0  0
  1  2  1  0
  2  3  1  0
  3  4  1  0
  4  5  1  0
  4  6  1  0
  6  7  1  0
  6  8  1  0
  8  9  2  0
  8  2  1  0
  1 10  1  0
  1 11  1  0
  1 12  1  0
  2 13  1  0
  4 14  1  0
  5 15  1  0
  5 16  1  0
  5 17  1  0
  6 18  1  0
  7 19  1  0
  7 20  1  0
  7 21  1  0
M  END
