
     RDKit          3D

 21 23  0  0  0  0  0  0  0  0999 V2000
    2.2745   -0.6632   -0.2874 C   0  0  0  0  0  0  0  0  0  0  0  0
    1.1290    0.2738   -0.2024 C   0  0  0  0  0  0  0  0  0  0  0  0
    0.4730    0.4695   -1.4307 O   0  0  0  0  0  0  0  0  0  0  0  0
   -0.4998    1.4146   -1.0281 C   0  0  0  0  0  0  0  0  0  0  0  0
   -1.1711    0.6398    0.0998 C   0  0  0  0  0  0  0  0  0  0  0  0
   -1.7400   -0.6697   -0.3165 C   0  0  0  0  0  0  0  0  0  0  0  0
   -0.7245   -1.4183    0.5059 C   0  0  0  0  0  0  0  0  0  0  0  0
    0.0279   -0.1415    0.7099 C   0  0  0  0  0  0  0  0  0  0  0  0
   -0.6856    0.9212    1.4583 C   0  0  0  0  0  0  0  0  0  0  0  0
    2.5417   -0.7824   -1.3697 H   0  0  0  0  0  0  0  0  0  0  0  0
    3.1858   -0.2573    0.2054 H   0  0  0  0  0  0  0  0  0  0  0  0
    2.1067   -1.6615    0.1397 H   0  0  0  0  0  0  0  0  0  0  0  0
    1.4760    1.2810    0.1118 H   0  0  0  0  0  0  0  0  0  0  0  0
   -1.2726    1.5361   -1.8165 H   0  0  0  0  0  0  0  0  0  0  0  0
   -0.0531    2.3537   -0.6926 H   0  0  0  0  0  0  0  0  0  0  0  0
   -1.5872   -0.9362   -1.3998 H   0  0  0  0  0  0  0  0  0  0  0  0
   -2.8021   -0.8604   -0.0688 H   0  0  0  0  0  0  0  0  0  0  0  0
   -1.2013   -1.7797    1.4419 H   0  0  0  0  0  0  0  0  0  0  0  0
   -0.1261   -2.1710   -0.0141 H   0  0  0  0  0  0  0  0  0  0  0  0
   -0.1274    1.8603    1.5967 H   0  0  0  0  0  0  0  0  0  0  0  0
   -1.2238    0.5911    2.3571 H   0  0  0  0  0  0  0  0  0  0  0  0
  1  2  1  0
  2  3  1  0
  3  4  1  0
  4  5  1  0
  5  6  1  0
  6  7  1  0
  7  8  1  0
  8  9  1  0
  8  2  1  0
  8  5  1  0
  9  5  1  0
  1 10  1  0
  1 11  1  0
  1 12  1  0
  2 13  1  0
  4 14  1  0
  4 15  1  0
  6 16  1  0
  6 17  1  0
  7 18  1  0
  7 19  1  0
  9 20  1  0
  9 21  1  0
M  END
