
     RDKit          3D

 19 20  0  0  0  0  0  0  0  0999 V2000
    2.1610   -0.4857   -0.0775 C   0  0  0  0  0  0  0  0  0  0  0  0
    1.1073    0.5582    0.0505 C   0  0  0  0  0  0  0  0  0  0  0  0
    0.9747    1.2488   -1.1763 O   0  0  0  0  0  0  0  0  0  0  0  0
   -0.4005    1.3357   -0.9544 C   0  0  0  0  0  0  0  0  0  0  0  0
   -0.2908    0.2136   -0.0081 C   0  0  0  0  0  0  0  0  0  0  0  0
   -1.1538    0.1842    1.1917 C   0  0  0  0  0  0  0  0  0  0  0  0
   -1.9796   -0.8298    0.4897 C   0  0  0  0  0  0  0  0  0  0  0  0
   -3.1033   -1.2714    0.5338 O   0  0  0  0  0  0  0  0  0  0  0  0
   -0.7907   -1.1141   -0.3573 C   0  0  0  0  0  0  0  0  0  0  0  0
    2.7230   -0.5589    0.8748 H   0  0  0  0  0  0  0  0  0  0  0  0
    1.6940   -1.4468   -0.3451 H   0  0  0  0  0  0  0  0  0  0  0  0
    2.8615   -0.2502   -0.9329 H   0  0  0  0  0  0  0  0  0  0  0  0
    1.3444    1.3372    0.8299 H   0  0  0  0  0  0  0  0  0  0  0  0
   -1.0183    1.2075   -1.8619 H   0  0  0  0  0  0  0  0  0  0  0  0
   -0.6061    2.3127   -0.4310 H   0  0  0  0  0  0  0  0  0  0  0  0
   -1.6380    1.1379    1.4142 H   0  0  0  0  0  0  0  0  0  0  0  0
   -0.6508   -0.3149    2.0698 H   0  0  0  0  0  0  0  0  0  0  0  0
   -0.2246   -1.9634    0.1168 H   0  0  0  0  0  0  0  0  0  0  0  0
   -1.0094   -1.3006   -1.4267 H   0  0  0  0  0  0  0  0  0  0  0  0
  1  2  1  0
  2  3  1  0
  3  4  1  0
  4  5  1  0
  5  6  1  0
  6  7  1  0
  7  8  2  0
  7  9  1  0
  5  2  1  0
  9  5  1  0
  1 10  1  0
  1 11  1  0
  1 12  1  0
  2 13  1  0
  4 14  1  0
  4 15  1  0
  6 16  1  0
  6 17  1  0
  9 18  1  0
  9 19  1  0
M  END
