
     RDKit          3D

 23 24  0  0  0  0  0  0  0  0999 V2000
   -2.3935   -0.4511   -0.7310 C   0  0  0  0  0  0  0  0  0  0  0  0
   -1.2967   -0.4864    0.2622 C   0  0  0  0  0  0  0  0  0  0  0  0
   -1.5175    0.2808    1.3979 O   0  0  0  0  0  0  0  0  0  0  0  0
   -0.2953    0.0822    2.0811 C   0  0  0  0  0  0  0  0  0  0  0  0
    0.7876    0.2947    1.0768 C   0  0  0  0  0  0  0  0  0  0  0  0
    1.2119   -0.7001    0.1019 C   0  0  0  0  0  0  0  0  0  0  0  0
    2.4542   -0.4349   -0.6852 C   0  0  0  0  0  0  0  0  0  0  0  0
    0.0118    0.0826   -0.2418 C   0  0  0  0  0  0  0  0  0  0  0  0
    0.0230    1.2685   -1.1326 C   0  0  0  0  0  0  0  0  0  0  0  0
   -2.9263   -1.4459   -0.7966 H   0  0  0  0  0  0  0  0  0  0  0  0
   -2.0878   -0.2236   -1.7682 H   0  0  0  0  0  0  0  0  0  0  0  0
   -3.1951    0.2545   -0.3679 H   0  0  0  0  0  0  0  0  0  0  0  0
   -1.1632   -1.5340    0.6061 H   0  0  0  0  0  0  0  0  0  0  0  0
   -0.2628    0.8823    2.8528 H   0  0  0  0  0  0  0  0  0  0  0  0
   -0.2635   -0.8755    2.6037 H   0  0  0  0  0  0  0  0  0  0  0  0
    1.3893    1.2024    1.1818 H   0  0  0  0  0  0  0  0  0  0  0  0
    1.0522   -1.7934    0.3188 H   0  0  0  0  0  0  0  0  0  0  0  0
    2.4402   -1.1281   -1.5752 H   0  0  0  0  0  0  0  0  0  0  0  0
    3.3180   -0.7794   -0.0743 H   0  0  0  0  0  0  0  0  0  0  0  0
    2.5756    0.5966   -1.0083 H   0  0  0  0  0  0  0  0  0  0  0  0
    0.1884    2.2091   -0.5290 H   0  0  0  0  0  0  0  0  0  0  0  0
   -0.9027    1.4358   -1.7003 H   0  0  0  0  0  0  0  0  0  0  0  0
    0.8523    1.2629   -1.8729 H   0  0  0  0  0  0  0  0  0  0  0  0
  1  2  1  0
  2  3  1  0
  3  4  1  0
  4  5  1  0
  5  6  1  0
  6  7  1  0
  6  8  1  0
  8  9  1  0
  8  2  1  0
  8  5  1  0
  1 10  1  0
  1 11  1  0
  1 12  1  0
  2 13  1  0
  4 14  1  0
  4 15  1  0
  5 16  1  0
  6 17  1  0
  7 18  1  0
  7 19  1  0
  7 20  1  0
  9 21  1  0
  9 22  1  0
  9 23  1  0
M  END
