
     RDKit          3D

 23 24  0  0  0  0  0  0  0  0999 V2000
   -1.6371    1.2079    1.0647 C   0  0  0  0  0  0  0  0  0  0  0  0
   -1.2287    0.7735   -0.3056 C   0  0  0  0  0  0  0  0  0  0  0  0
   -2.1474   -0.1001   -0.9253 O   0  0  0  0  0  0  0  0  0  0  0  0
   -1.0504   -0.6305   -1.6060 C   0  0  0  0  0  0  0  0  0  0  0  0
   -0.2225   -0.3499   -0.3728 C   0  0  0  0  0  0  0  0  0  0  0  0
   -0.3821   -1.4048    0.7014 C   0  0  0  0  0  0  0  0  0  0  0  0
    1.1766    0.0302   -0.6943 C   0  0  0  0  0  0  0  0  0  0  0  0
    1.9752    0.9531    0.1372 C   0  0  0  0  0  0  0  0  0  0  0  0
    2.2077   -0.5211    0.2798 C   0  0  0  0  0  0  0  0  0  0  0  0
   -2.7109    0.9486    1.2876 H   0  0  0  0  0  0  0  0  0  0  0  0
   -1.6333    2.3376    1.0650 H   0  0  0  0  0  0  0  0  0  0  0  0
   -0.9662    0.9039    1.8692 H   0  0  0  0  0  0  0  0  0  0  0  0
   -0.9690    1.5695   -1.0130 H   0  0  0  0  0  0  0  0  0  0  0  0
   -0.7760    0.0727   -2.4274 H   0  0  0  0  0  0  0  0  0  0  0  0
   -1.1302   -1.6853   -1.8905 H   0  0  0  0  0  0  0  0  0  0  0  0
   -0.2457   -0.9983    1.7029 H   0  0  0  0  0  0  0  0  0  0  0  0
   -1.3942   -1.8873    0.6085 H   0  0  0  0  0  0  0  0  0  0  0  0
    0.3887   -2.1821    0.5073 H   0  0  0  0  0  0  0  0  0  0  0  0
    1.4894   -0.1150   -1.7530 H   0  0  0  0  0  0  0  0  0  0  0  0
    2.7932    1.4967   -0.3811 H   0  0  0  0  0  0  0  0  0  0  0  0
    1.5049    1.5095    0.9801 H   0  0  0  0  0  0  0  0  0  0  0  0
    3.1196   -0.9874   -0.0887 H   0  0  0  0  0  0  0  0  0  0  0  0
    1.8384   -0.9414    1.2539 H   0  0  0  0  0  0  0  0  0  0  0  0
  1  2  1  0
  2  3  1  0
  3  4  1  0
  4  5  1  0
  5  6  1  0
  5  7  1  0
  7  8  1  0
  8  9  1  0
  5  2  1  0
  9  7  1  0
  1 10  1  0
  1 11  1  0
  1 12  1  0
  2 13  1  0
  4 14  1  0
  4 15  1  0
  6 16  1  0
  6 17  1  0
  6 18  1  0
  7 19  1  0
  8 20  1  0
  8 21  1  0
  9 22  1  0
  9 23  1  0
M  END
