
     RDKit          3D

 16 16  0  0  0  0  0  0  0  0999 V2000
    2.0449    0.2178    0.4339 C   0  0  0  0  0  0  0  0  0  0  0  0
    0.7857   -0.6048    0.6280 C   0  0  0  0  0  0  0  0  0  0  0  0
    0.4982   -1.4192   -0.4364 O   0  0  0  0  0  0  0  0  0  0  0  0
   -0.7243   -1.0036   -0.9735 C   0  0  0  0  0  0  0  0  0  0  0  0
   -0.7432    0.4491   -0.4732 C   0  0  0  0  0  0  0  0  0  0  0  0
   -2.0927    1.0224   -0.4860 C   0  0  0  0  0  0  0  0  0  0  0  0
   -2.6231    1.2671    0.5857 O   0  0  0  0  0  0  0  0  0  0  0  0
   -0.2607    0.2671    0.8225 O   0  0  0  0  0  0  0  0  0  0  0  0
    2.8740   -0.1491    1.0516 H   0  0  0  0  0  0  0  0  0  0  0  0
    1.8722    1.2860    0.7525 H   0  0  0  0  0  0  0  0  0  0  0  0
    2.3349    0.2923   -0.6423 H   0  0  0  0  0  0  0  0  0  0  0  0
    0.9476   -1.2768    1.5211 H   0  0  0  0  0  0  0  0  0  0  0  0
   -0.7573   -1.0325   -2.0628 H   0  0  0  0  0  0  0  0  0  0  0  0
   -1.5751   -1.5137   -0.4773 H   0  0  0  0  0  0  0  0  0  0  0  0
   -0.0149    0.9914   -1.1116 H   0  0  0  0  0  0  0  0  0  0  0  0
   -2.5662    1.2066   -1.4406 H   0  0  0  0  0  0  0  0  0  0  0  0
  1  2  1  0
  2  3  1  0
  3  4  1  0
  4  5  1  0
  5  6  1  0
  6  7  2  0
  5  8  1  0
  8  2  1  0
  1  9  1  0
  1 10  1  0
  1 11  1  0
  2 12  1  0
  4 13  1  0
  4 14  1  0
  5 15  1  0
  6 16  1  0
M  END
