
     RDKit          3D

 15 15  0  0  0  0  0  0  0  0999 V2000
    1.8046    0.6167    0.7339 C   0  0  0  0  0  0  0  0  0  0  0  0
    0.6379    0.4247   -0.2325 C   0  0  0  0  0  0  0  0  0  0  0  0
   -0.4375    1.2945    0.1560 O   0  0  0  0  0  0  0  0  0  0  0  0
   -1.6753    1.0391   -0.3943 C   0  0  0  0  0  0  0  0  0  0  0  0
   -2.4961    1.9362   -0.7170 O   0  0  0  0  0  0  0  0  0  0  0  0
   -2.0418   -0.2700   -0.6060 O   0  0  0  0  0  0  0  0  0  0  0  0
   -1.2358   -1.3164   -0.1420 C   0  0  0  0  0  0  0  0  0  0  0  0
    0.1953   -0.9838   -0.2543 C   0  0  0  0  0  0  0  0  0  0  0  0
    1.0162   -1.8598   -0.3649 O   0  0  0  0  0  0  0  0  0  0  0  0
    2.6183   -0.0351    0.4061 H   0  0  0  0  0  0  0  0  0  0  0  0
    2.1235    1.6759    0.6122 H   0  0  0  0  0  0  0  0  0  0  0  0
    1.5014    0.4263    1.7746 H   0  0  0  0  0  0  0  0  0  0  0  0
    0.9877    0.7876   -1.2254 H   0  0  0  0  0  0  0  0  0  0  0  0
   -1.4807   -1.4849    0.9254 H   0  0  0  0  0  0  0  0  0  0  0  0
   -1.5178   -2.2509   -0.6718 H   0  0  0  0  0  0  0  0  0  0  0  0
  1  2  1  0
  2  3  1  0
  3  4  1  0
  4  5  2  0
  4  6  1  0
  6  7  1  0
  7  8  1  0
  8  9  2  0
  8  2  1  0
  1 10  1  0
  1 11  1  0
  1 12  1  0
  2 13  1  0
  7 14  1  0
  7 15  1  0
M  END
