
     RDKit          3D

 19 21  0  0  0  0  0  0  0  0999 V2000
    2.5670    0.4914   -0.7475 C   0  0  0  0  0  0  0  0  0  0  0  0
    1.4373    0.4678    0.2148 C   0  0  0  0  0  0  0  0  0  0  0  0
    0.5348    1.4828    0.0945 O   0  0  0  0  0  0  0  0  0  0  0  0
   -0.7306    1.0030    0.5079 C   0  0  0  0  0  0  0  0  0  0  0  0
   -0.5601   -0.3803    0.9420 C   0  0  0  0  0  0  0  0  0  0  0  0
    0.6186   -0.8285    0.1316 C   0  0  0  0  0  0  0  0  0  0  0  0
   -0.2257   -0.8693   -0.9783 O   0  0  0  0  0  0  0  0  0  0  0  0
   -1.2108   -0.1404   -0.3371 C   0  0  0  0  0  0  0  0  0  0  0  0
   -2.6478   -0.4929   -0.4409 C   0  0  0  0  0  0  0  0  0  0  0  0
    2.6072    1.3996   -1.3915 H   0  0  0  0  0  0  0  0  0  0  0  0
    3.5394    0.5106   -0.1722 H   0  0  0  0  0  0  0  0  0  0  0  0
    2.6499   -0.4498   -1.3674 H   0  0  0  0  0  0  0  0  0  0  0  0
    1.8151    0.4838    1.2796 H   0  0  0  0  0  0  0  0  0  0  0  0
   -1.4286    1.7223    0.9481 H   0  0  0  0  0  0  0  0  0  0  0  0
   -0.9332   -0.8637    1.8054 H   0  0  0  0  0  0  0  0  0  0  0  0
    1.1312   -1.7342    0.4118 H   0  0  0  0  0  0  0  0  0  0  0  0
   -3.2991    0.3846   -0.2876 H   0  0  0  0  0  0  0  0  0  0  0  0
   -2.9364   -1.2356    0.3587 H   0  0  0  0  0  0  0  0  0  0  0  0
   -2.9282   -0.9512   -1.3935 H   0  0  0  0  0  0  0  0  0  0  0  0
  1  2  1  0
  2  3  1  0
  3  4  1  0
  4  5  1  0
  5  6  1  0
  6  7  1  0
  7  8  1  0
  8  9  1  0
  6  2  1  0
  8  4  1  0
  8  5  1  0
  1 10  1  0
  1 11  1  0
  1 12  1  0
  2 13  1  0
  4 14  1  0
  5 15  1  0
  6 16  1  0
  9 17  1  0
  9 18  1  0
  9 19  1  0
M  END
