
     RDKit          3D

 20 20  0  0  0  0  0  0  0  0999 V2000
   -2.6068    0.7313    0.4630 C   0  0  0  0  0  0  0  0  0  0  0  0
   -1.5257   -0.2915    0.3658 C   0  0  0  0  0  0  0  0  0  0  0  0
   -1.7428   -1.1161   -0.7476 O   0  0  0  0  0  0  0  0  0  0  0  0
   -0.5043   -0.8369   -1.2812 C   0  0  0  0  0  0  0  0  0  0  0  0
   -0.2068    0.1408   -0.1629 C   0  0  0  0  0  0  0  0  0  0  0  0
    1.0093   -0.3177    0.5941 C   0  0  0  0  0  0  0  0  0  0  0  0
    2.2351    0.2299   -0.1090 C   0  0  0  0  0  0  0  0  0  0  0  0
    3.4068   -0.1597    0.5446 O   0  0  0  0  0  0  0  0  0  0  0  0
   -2.2330    1.7846    0.3703 H   0  0  0  0  0  0  0  0  0  0  0  0
   -3.2037    0.5956    1.4068 H   0  0  0  0  0  0  0  0  0  0  0  0
   -3.3769    0.6345   -0.3568 H   0  0  0  0  0  0  0  0  0  0  0  0
   -1.4097   -0.8426    1.3208 H   0  0  0  0  0  0  0  0  0  0  0  0
   -0.5272   -0.3299   -2.2873 H   0  0  0  0  0  0  0  0  0  0  0  0
    0.1224   -1.7572   -1.2807 H   0  0  0  0  0  0  0  0  0  0  0  0
   -0.1248    1.1815   -0.5359 H   0  0  0  0  0  0  0  0  0  0  0  0
    1.0744   -1.4239    0.5375 H   0  0  0  0  0  0  0  0  0  0  0  0
    1.0450    0.0594    1.6334 H   0  0  0  0  0  0  0  0  0  0  0  0
    2.2202    1.3220   -0.2213 H   0  0  0  0  0  0  0  0  0  0  0  0
    2.2949   -0.1906   -1.1509 H   0  0  0  0  0  0  0  0  0  0  0  0
    4.0536    0.5864    0.6140 H   0  0  0  0  0  0  0  0  0  0  0  0
  1  2  1  0
  2  3  1  0
  3  4  1  0
  4  5  1  0
  5  6  1  0
  6  7  1  0
  7  8  1  0
  5  2  1  0
  1  9  1  0
  1 10  1  0
  1 11  1  0
  2 12  1  0
  4 13  1  0
  4 14  1  0
  5 15  1  0
  6 16  1  0
  6 17  1  0
  7 18  1  0
  7 19  1  0
  8 20  1  0
M  END
