
     RDKit          3D

 21 22  0  0  0  0  0  0  0  0999 V2000
    2.7554    0.4317    0.2127 C   0  0  0  0  0  0  0  0  0  0  0  0
    1.2592    0.3553    0.5067 C   0  0  0  0  0  0  0  0  0  0  0  0
    0.6470    1.5005   -0.0163 O   0  0  0  0  0  0  0  0  0  0  0  0
   -0.2623    0.7159   -0.6701 C   0  0  0  0  0  0  0  0  0  0  0  0
   -1.6087    0.5424    0.0335 C   0  0  0  0  0  0  0  0  0  0  0  0
   -2.5975    1.3137   -0.5148 O   0  0  0  0  0  0  0  0  0  0  0  0
   -1.8208   -0.9558   -0.2265 C   0  0  0  0  0  0  0  0  0  0  0  0
   -0.4978   -1.4813    0.3321 C   0  0  0  0  0  0  0  0  0  0  0  0
    0.4813   -0.5594   -0.3773 C   0  0  0  0  0  0  0  0  0  0  0  0
    3.3350   -0.2704    0.8334 H   0  0  0  0  0  0  0  0  0  0  0  0
    3.0841    1.4608    0.4995 H   0  0  0  0  0  0  0  0  0  0  0  0
    2.9644    0.3173   -0.8682 H   0  0  0  0  0  0  0  0  0  0  0  0
    1.0847    0.1726    1.5732 H   0  0  0  0  0  0  0  0  0  0  0  0
   -0.4371    0.9279   -1.7424 H   0  0  0  0  0  0  0  0  0  0  0  0
   -1.4520    0.7010    1.1232 H   0  0  0  0  0  0  0  0  0  0  0  0
   -2.6801    2.1393    0.0512 H   0  0  0  0  0  0  0  0  0  0  0  0
   -1.7714   -1.0870   -1.3101 H   0  0  0  0  0  0  0  0  0  0  0  0
   -2.6886   -1.3534    0.2766 H   0  0  0  0  0  0  0  0  0  0  0  0
   -0.4884   -1.3188    1.4356 H   0  0  0  0  0  0  0  0  0  0  0  0
   -0.3173   -2.5282    0.0634 H   0  0  0  0  0  0  0  0  0  0  0  0
    1.0111   -1.0241   -1.2152 H   0  0  0  0  0  0  0  0  0  0  0  0
  1  2  1  0
  2  3  1  0
  3  4  1  0
  4  5  1  0
  5  6  1  0
  5  7  1  0
  7  8  1  0
  8  9  1  0
  9  2  1  0
  9  4  1  0
  1 10  1  0
  1 11  1  0
  1 12  1  0
  2 13  1  0
  4 14  1  0
  5 15  1  0
  6 16  1  0
  7 17  1  0
  7 18  1  0
  8 19  1  0
  8 20  1  0
  9 21  1  0
M  END
