
     RDKit          3D

 15 16  0  0  0  0  0  0  0  0999 V2000
    1.5558   -0.9057   -0.5171 C   0  0  0  0  0  0  0  0  0  0  0  0
    0.8176    0.2070    0.1470 C   0  0  0  0  0  0  0  0  0  0  0  0
    0.6275    1.3516   -0.6388 O   0  0  0  0  0  0  0  0  0  0  0  0
   -0.5464    1.5737    0.1197 C   0  0  0  0  0  0  0  0  0  0  0  0
   -0.6270    0.1086    0.3262 C   0  0  0  0  0  0  0  0  0  0  0  0
   -1.6043   -0.7506   -0.0381 C   0  0  0  0  0  0  0  0  0  0  0  0
   -1.2576   -0.4696    1.3820 O   0  0  0  0  0  0  0  0  0  0  0  0
    1.1133   -1.2149   -1.4665 H   0  0  0  0  0  0  0  0  0  0  0  0
    1.6804   -1.7231    0.1965 H   0  0  0  0  0  0  0  0  0  0  0  0
    2.5950   -0.5381   -0.7524 H   0  0  0  0  0  0  0  0  0  0  0  0
    1.3690    0.5263    1.0750 H   0  0  0  0  0  0  0  0  0  0  0  0
   -0.2367    2.0924    1.0584 H   0  0  0  0  0  0  0  0  0  0  0  0
   -1.3710    2.0335   -0.4365 H   0  0  0  0  0  0  0  0  0  0  0  0
   -1.4485   -1.8346   -0.2884 H   0  0  0  0  0  0  0  0  0  0  0  0
   -2.6671   -0.4563   -0.1669 H   0  0  0  0  0  0  0  0  0  0  0  0
  1  2  1  0
  2  3  1  0
  3  4  1  0
  4  5  1  0
  5  6  1  0
  6  7  1  0
  5  2  1  0
  7  5  1  0
  1  8  1  0
  1  9  1  0
  1 10  1  0
  2 11  1  0
  4 12  1  0
  4 13  1  0
  6 14  1  0
  6 15  1  0
M  END
