
     RDKit          3D

 19 20  0  0  0  0  0  0  0  0999 V2000
    1.8304   -0.3282    0.8454 C   0  0  0  0  0  0  0  0  0  0  0  0
    1.0936   -0.0084   -0.4254 C   0  0  0  0  0  0  0  0  0  0  0  0
    1.1100    1.4059   -0.5740 O   0  0  0  0  0  0  0  0  0  0  0  0
    0.0017    1.9758    0.0142 C   0  0  0  0  0  0  0  0  0  0  0  0
   -0.1264    3.1019    0.5623 O   0  0  0  0  0  0  0  0  0  0  0  0
   -1.0952    0.9761   -0.1118 C   0  0  0  0  0  0  0  0  0  0  0  0
   -1.2453    0.2714   -1.4159 C   0  0  0  0  0  0  0  0  0  0  0  0
   -0.3784   -0.3003   -0.3237 C   0  0  0  0  0  0  0  0  0  0  0  0
   -0.8534   -1.5048    0.4532 C   0  0  0  0  0  0  0  0  0  0  0  0
    2.8405    0.1007    0.8182 H   0  0  0  0  0  0  0  0  0  0  0  0
    1.9020   -1.4063    1.0613 H   0  0  0  0  0  0  0  0  0  0  0  0
    1.2694    0.1461    1.6767 H   0  0  0  0  0  0  0  0  0  0  0  0
    1.5404   -0.4723   -1.3161 H   0  0  0  0  0  0  0  0  0  0  0  0
   -1.9149    0.9632    0.6178 H   0  0  0  0  0  0  0  0  0  0  0  0
   -0.7285    0.6981   -2.3140 H   0  0  0  0  0  0  0  0  0  0  0  0
   -2.1828   -0.2929   -1.5786 H   0  0  0  0  0  0  0  0  0  0  0  0
   -0.4547   -1.4572    1.5013 H   0  0  0  0  0  0  0  0  0  0  0  0
   -1.9697   -1.4084    0.5436 H   0  0  0  0  0  0  0  0  0  0  0  0
   -0.6388   -2.4606   -0.0343 H   0  0  0  0  0  0  0  0  0  0  0  0
  1  2  1  0
  2  3  1  0
  3  4  1  0
  4  5  2  0
  4  6  1  0
  6  7  1  0
  7  8  1  0
  8  9  1  0
  8  2  1  0
  8  6  1  0
  1 10  1  0
  1 11  1  0
  1 12  1  0
  2 13  1  0
  6 14  1  0
  7 15  1  0
  7 16  1  0
  9 17  1  0
  9 18  1  0
  9 19  1  0
M  END
