
     RDKit          3D

 21 23  0  0  0  0  0  0  0  0999 V2000
    2.8214   -0.2646   -0.0040 C   0  0  0  0  0  0  0  0  0  0  0  0
    1.4073   -0.8636   -0.0476 C   0  0  0  0  0  0  0  0  0  0  0  0
    0.7976   -0.8838    1.3142 O   0  0  0  0  0  0  0  0  0  0  0  0
    0.3276   -0.1183    0.2805 C   0  0  0  0  0  0  0  0  0  0  0  0
    0.3737    1.4034    0.3800 C   0  0  0  0  0  0  0  0  0  0  0  0
   -1.1305    1.4397    0.0805 C   0  0  0  0  0  0  0  0  0  0  0  0
   -1.0648   -0.0310   -0.1240 C   0  0  0  0  0  0  0  0  0  0  0  0
   -2.1747   -0.8518    0.3580 C   0  0  0  0  0  0  0  0  0  0  0  0
   -1.7749   -0.7963   -1.1073 C   0  0  0  0  0  0  0  0  0  0  0  0
    3.1379   -0.0385    1.0213 H   0  0  0  0  0  0  0  0  0  0  0  0
    3.5358   -0.9349   -0.5133 H   0  0  0  0  0  0  0  0  0  0  0  0
    2.7193    0.7273   -0.5209 H   0  0  0  0  0  0  0  0  0  0  0  0
    1.3607   -1.8791   -0.5263 H   0  0  0  0  0  0  0  0  0  0  0  0
    0.6597    1.7781    1.3603 H   0  0  0  0  0  0  0  0  0  0  0  0
    0.9737    1.7930   -0.4764 H   0  0  0  0  0  0  0  0  0  0  0  0
   -1.7233    1.6704    1.0072 H   0  0  0  0  0  0  0  0  0  0  0  0
   -1.3827    2.0662   -0.7982 H   0  0  0  0  0  0  0  0  0  0  0  0
   -1.9244   -1.7357    0.9593 H   0  0  0  0  0  0  0  0  0  0  0  0
   -3.1150   -0.3129    0.6415 H   0  0  0  0  0  0  0  0  0  0  0  0
   -1.3147   -1.7635   -1.4513 H   0  0  0  0  0  0  0  0  0  0  0  0
   -2.5099   -0.4041   -1.8334 H   0  0  0  0  0  0  0  0  0  0  0  0
  1  2  1  0
  2  3  1  0
  3  4  1  0
  4  5  1  0
  5  6  1  0
  6  7  1  0
  7  8  1  0
  8  9  1  0
  4  2  1  0
  9  7  1  0
  7  4  1  0
  1 10  1  0
  1 11  1  0
  1 12  1  0
  2 13  1  0
  5 14  1  0
  5 15  1  0
  6 16  1  0
  6 17  1  0
  8 18  1  0
  8 19  1  0
  9 20  1  0
  9 21  1  0
M  END
