
     RDKit          3D

 20 21  0  0  0  0  0  0  0  0999 V2000
    2.3309   -0.2071   -0.2619 C   0  0  0  0  0  0  0  0  0  0  0  0
    1.0320    0.2221    0.4082 C   0  0  0  0  0  0  0  0  0  0  0  0
    0.5481    1.3033   -0.2887 O   0  0  0  0  0  0  0  0  0  0  0  0
   -0.6966    1.7356    0.1305 C   0  0  0  0  0  0  0  0  0  0  0  0
   -1.6936    0.6725   -0.2684 C   0  0  0  0  0  0  0  0  0  0  0  0
   -1.3300   -0.6349    0.3394 C   0  0  0  0  0  0  0  0  0  0  0  0
   -0.5681   -1.6072   -0.5266 C   0  0  0  0  0  0  0  0  0  0  0  0
    0.0721   -0.8923    0.5993 C   0  0  0  0  0  0  0  0  0  0  0  0
    3.2186    0.0324    0.3664 H   0  0  0  0  0  0  0  0  0  0  0  0
    2.4975    0.3438   -1.2218 H   0  0  0  0  0  0  0  0  0  0  0  0
    2.3300   -1.2735   -0.5173 H   0  0  0  0  0  0  0  0  0  0  0  0
    1.3152    0.6020    1.4326 H   0  0  0  0  0  0  0  0  0  0  0  0
   -0.9378    2.6437   -0.4843 H   0  0  0  0  0  0  0  0  0  0  0  0
   -0.7409    2.0019    1.1942 H   0  0  0  0  0  0  0  0  0  0  0  0
   -1.6479    0.5883   -1.3818 H   0  0  0  0  0  0  0  0  0  0  0  0
   -2.7014    1.0444    0.0066 H   0  0  0  0  0  0  0  0  0  0  0  0
   -2.1234   -1.0487    1.0243 H   0  0  0  0  0  0  0  0  0  0  0  0
   -0.7920   -2.6960   -0.4594 H   0  0  0  0  0  0  0  0  0  0  0  0
   -0.4135   -1.2902   -1.5874 H   0  0  0  0  0  0  0  0  0  0  0  0
    0.3007   -1.5403    1.4962 H   0  0  0  0  0  0  0  0  0  0  0  0
  1  2  1  0
  2  3  1  0
  3  4  1  0
  4  5  1  0
  5  6  1  0
  6  7  1  0
  7  8  1  0
  8  2  1  0
  8  6  1  0
  1  9  1  0
  1 10  1  0
  1 11  1  0
  2 12  1  0
  4 13  1  0
  4 14  1  0
  5 15  1  0
  5 16  1  0
  6 17  1  0
  7 18  1  0
  7 19  1  0
  8 20  1  0
M  END
