
     RDKit          3D

 19 19  0  0  0  0  0  0  0  0999 V2000
    2.3101    0.6719   -0.6708 C   0  0  0  0  0  0  0  0  0  0  0  0
    0.8852    0.7108   -0.1998 C   0  0  0  0  0  0  0  0  0  0  0  0
   -0.0785    0.5277   -1.1894 O   0  0  0  0  0  0  0  0  0  0  0  0
   -0.9009    0.0058   -0.1917 C   0  0  0  0  0  0  0  0  0  0  0  0
   -1.8283   -1.0951   -0.6658 C   0  0  0  0  0  0  0  0  0  0  0  0
   -1.5392    1.0738    0.5918 C   0  0  0  0  0  0  0  0  0  0  0  0
   -2.3108    0.8486    1.5293 O   0  0  0  0  0  0  0  0  0  0  0  0
    0.3748   -0.5578    0.4376 C   0  0  0  0  0  0  0  0  0  0  0  0
    0.7670   -1.7011   -0.2089 O   0  0  0  0  0  0  0  0  0  0  0  0
    2.6603   -0.3582   -0.9240 H   0  0  0  0  0  0  0  0  0  0  0  0
    2.9460    1.0195    0.1739 H   0  0  0  0  0  0  0  0  0  0  0  0
    2.4218    1.3710   -1.5253 H   0  0  0  0  0  0  0  0  0  0  0  0
    0.6604    1.6235    0.3665 H   0  0  0  0  0  0  0  0  0  0  0  0
   -2.8108   -0.6768   -0.9101 H   0  0  0  0  0  0  0  0  0  0  0  0
   -1.9427   -1.8123    0.1815 H   0  0  0  0  0  0  0  0  0  0  0  0
   -1.3583   -1.6557   -1.4925 H   0  0  0  0  0  0  0  0  0  0  0  0
   -1.3476    2.1026    0.3652 H   0  0  0  0  0  0  0  0  0  0  0  0
    0.3704   -0.5738    1.5365 H   0  0  0  0  0  0  0  0  0  0  0  0
    0.7213   -1.5243   -1.1851 H   0  0  0  0  0  0  0  0  0  0  0  0
  1  2  1  0
  2  3  1  0
  3  4  1  0
  4  5  1  0
  4  6  1  0
  6  7  2  0
  4  8  1  0
  8  9  1  0
  8  2  1  0
  1 10  1  0
  1 11  1  0
  1 12  1  0
  2 13  1  0
  5 14  1  0
  5 15  1  0
  5 16  1  0
  6 17  1  0
  8 18  1  0
  9 19  1  0
M  END
