
     RDKit          3D

 19 21  0  0  0  0  0  0  0  0999 V2000
    2.2799    0.7357   -0.4412 C   0  0  0  0  0  0  0  0  0  0  0  0
    1.9193   -0.5307    0.2877 C   0  0  0  0  0  0  0  0  0  0  0  0
    1.4572   -0.3909    1.6218 O   0  0  0  0  0  0  0  0  0  0  0  0
    0.5805   -0.9564    0.5599 C   0  0  0  0  0  0  0  0  0  0  0  0
   -0.6357   -0.1129    0.4301 C   0  0  0  0  0  0  0  0  0  0  0  0
   -1.9603   -0.7163    0.8417 C   0  0  0  0  0  0  0  0  0  0  0  0
   -1.6838   -0.3401   -0.5587 C   0  0  0  0  0  0  0  0  0  0  0  0
   -1.6106    1.1540   -0.8234 C   0  0  0  0  0  0  0  0  0  0  0  0
   -0.5706    1.2181    0.0997 O   0  0  0  0  0  0  0  0  0  0  0  0
    1.7389    1.5702    0.0254 H   0  0  0  0  0  0  0  0  0  0  0  0
    2.0691    0.5871   -1.5091 H   0  0  0  0  0  0  0  0  0  0  0  0
    3.3776    0.9481   -0.3224 H   0  0  0  0  0  0  0  0  0  0  0  0
    2.7089   -1.3128    0.2190 H   0  0  0  0  0  0  0  0  0  0  0  0
    0.3847   -2.0295    0.7507 H   0  0  0  0  0  0  0  0  0  0  0  0
   -1.9370   -1.7797    1.0826 H   0  0  0  0  0  0  0  0  0  0  0  0
   -2.5872   -0.0269    1.4651 H   0  0  0  0  0  0  0  0  0  0  0  0
   -1.6000   -1.0523   -1.3784 H   0  0  0  0  0  0  0  0  0  0  0  0
   -2.5686    1.6150   -0.4925 H   0  0  0  0  0  0  0  0  0  0  0  0
   -1.3622    1.4203   -1.8579 H   0  0  0  0  0  0  0  0  0  0  0  0
  1  2  1  0
  2  3  1  0
  3  4  1  0
  4  5  1  0
  5  6  1  0
  6  7  1  0
  7  8  1  0
  8  9  1  0
  4  2  1  0
  7  5  1  0
  9  5  1  0
  1 10  1  0
  1 11  1  0
  1 12  1  0
  2 13  1  0
  4 14  1  0
  6 15  1  0
  6 16  1  0
  7 17  1  0
  8 18  1  0
  8 19  1  0
M  END
