
     RDKit          3D

 22 22  0  0  0  0  0  0  0  0999 V2000
   -1.6079    1.8700    0.0826 C   0  0  0  0  0  0  0  0  0  0  0  0
   -0.3393    1.2220   -0.3421 C   0  0  0  0  0  0  0  0  0  0  0  0
    0.7381    1.3380    0.5377 O   0  0  0  0  0  0  0  0  0  0  0  0
    1.2368    0.2083   -0.0781 C   0  0  0  0  0  0  0  0  0  0  0  0
    2.1443   -0.6724    0.6696 C   0  0  0  0  0  0  0  0  0  0  0  0
   -0.2220   -0.2543   -0.1854 C   0  0  0  0  0  0  0  0  0  0  0  0
   -0.7436   -0.8665    1.0647 C   0  0  0  0  0  0  0  0  0  0  0  0
   -0.3912   -1.0939   -1.4046 C   0  0  0  0  0  0  0  0  0  0  0  0
   -2.0769    1.4270    0.9788 H   0  0  0  0  0  0  0  0  0  0  0  0
   -1.3808    2.9631    0.2553 H   0  0  0  0  0  0  0  0  0  0  0  0
   -2.3173    1.8470   -0.7531 H   0  0  0  0  0  0  0  0  0  0  0  0
   -0.0438    1.5392   -1.3525 H   0  0  0  0  0  0  0  0  0  0  0  0
    1.5976    0.4715   -1.0997 H   0  0  0  0  0  0  0  0  0  0  0  0
    2.6633   -1.3402   -0.0789 H   0  0  0  0  0  0  0  0  0  0  0  0
    2.9680   -0.0955    1.1450 H   0  0  0  0  0  0  0  0  0  0  0  0
    1.7041   -1.3327    1.4139 H   0  0  0  0  0  0  0  0  0  0  0  0
   -0.1388   -0.6562    1.9688 H   0  0  0  0  0  0  0  0  0  0  0  0
   -0.7466   -1.9774    0.9222 H   0  0  0  0  0  0  0  0  0  0  0  0
   -1.7882   -0.5633    1.3211 H   0  0  0  0  0  0  0  0  0  0  0  0
    0.0800   -0.6077   -2.2619 H   0  0  0  0  0  0  0  0  0  0  0  0
   -1.4594   -1.3520   -1.5716 H   0  0  0  0  0  0  0  0  0  0  0  0
    0.1236   -2.0740   -1.2318 H   0  0  0  0  0  0  0  0  0  0  0  0
  1  2  1  0
  2  3  1  0
  3  4  1  0
  4  5  1  0
  4  6  1  0
  6  7  1  0
  6  8  1  0
  6  2  1  0
  1  9  1  0
  1 10  1  0
  1 11  1  0
  2 12  1  0
  4 13  1  0
  5 14  1  0
  5 15  1  0
  5 16  1  0
  7 17  1  0
  7 18  1  0
  7 19  1  0
  8 20  1  0
  8 21  1  0
  8 22  1  0
M  END
