
     RDKit          3D

 21 21  0  0  0  0  0  0  0  0999 V2000
    2.4778   -0.5359    0.3029 C   0  0  0  0  0  0  0  0  0  0  0  0
    1.1658    0.0650   -0.1550 C   0  0  0  0  0  0  0  0  0  0  0  0
    0.7611    1.0640    0.7587 O   0  0  0  0  0  0  0  0  0  0  0  0
   -0.5361    0.7441    0.4414 C   0  0  0  0  0  0  0  0  0  0  0  0
   -0.9687    1.4407   -0.8179 C   0  0  0  0  0  0  0  0  0  0  0  0
   -1.5374    0.7682    1.5043 C   0  0  0  0  0  0  0  0  0  0  0  0
   -2.6850    0.4840    1.2176 O   0  0  0  0  0  0  0  0  0  0  0  0
   -0.0510   -0.6944    0.2265 C   0  0  0  0  0  0  0  0  0  0  0  0
   -0.7728   -1.4747   -0.7933 C   0  0  0  0  0  0  0  0  0  0  0  0
    3.3022    0.0512   -0.1928 H   0  0  0  0  0  0  0  0  0  0  0  0
    2.6078   -1.5832   -0.0409 H   0  0  0  0  0  0  0  0  0  0  0  0
    2.6325   -0.4196    1.3947 H   0  0  0  0  0  0  0  0  0  0  0  0
    1.2487    0.4089   -1.1868 H   0  0  0  0  0  0  0  0  0  0  0  0
   -0.1103    1.9329   -1.3451 H   0  0  0  0  0  0  0  0  0  0  0  0
   -1.6402    2.2811   -0.5150 H   0  0  0  0  0  0  0  0  0  0  0  0
   -1.5624    0.7928   -1.4858 H   0  0  0  0  0  0  0  0  0  0  0  0
   -1.3432    1.0201    2.5360 H   0  0  0  0  0  0  0  0  0  0  0  0
    0.0540   -1.2023    1.1915 H   0  0  0  0  0  0  0  0  0  0  0  0
   -0.6191   -2.5698   -0.5699 H   0  0  0  0  0  0  0  0  0  0  0  0
   -0.5460   -1.2523   -1.8377 H   0  0  0  0  0  0  0  0  0  0  0  0
   -1.8777   -1.3208   -0.6335 H   0  0  0  0  0  0  0  0  0  0  0  0
  1  2  1  0
  2  3  1  0
  3  4  1  0
  4  5  1  0
  4  6  1  0
  6  7  2  0
  4  8  1  0
  8  9  1  0
  8  2  1  0
  1 10  1  0
  1 11  1  0
  1 12  1  0
  2 13  1  0
  5 14  1  0
  5 15  1  0
  5 16  1  0
  6 17  1  0
  8 18  1  0
  9 19  1  0
  9 20  1  0
  9 21  1  0
M  END
