
     RDKit          3D

 25 25  0  0  0  0  0  0  0  0999 V2000
   -0.1950    2.1313   -0.7418 C   0  0  0  0  0  0  0  0  0  0  0  0
    0.3931    0.8079   -0.3560 C   0  0  0  0  0  0  0  0  0  0  0  0
    1.2234    0.9258    0.7826 O   0  0  0  0  0  0  0  0  0  0  0  0
    2.1561   -0.1159    0.6538 C   0  0  0  0  0  0  0  0  0  0  0  0
    1.5217   -1.4429    0.4164 C   0  0  0  0  0  0  0  0  0  0  0  0
    0.0393   -1.4606    0.5035 C   0  0  0  0  0  0  0  0  0  0  0  0
   -0.6368   -0.2338   -0.0206 C   0  0  0  0  0  0  0  0  0  0  0  0
   -1.5516    0.2974    1.0672 C   0  0  0  0  0  0  0  0  0  0  0  0
   -1.4753   -0.4902   -1.2506 C   0  0  0  0  0  0  0  0  0  0  0  0
   -0.1215    2.2756   -1.8412 H   0  0  0  0  0  0  0  0  0  0  0  0
    0.4393    2.9230   -0.2701 H   0  0  0  0  0  0  0  0  0  0  0  0
   -1.2340    2.2657   -0.3729 H   0  0  0  0  0  0  0  0  0  0  0  0
    1.0204    0.4291   -1.2051 H   0  0  0  0  0  0  0  0  0  0  0  0
    2.7597    0.1523   -0.2601 H   0  0  0  0  0  0  0  0  0  0  0  0
    2.8900   -0.1145    1.4868 H   0  0  0  0  0  0  0  0  0  0  0  0
    1.8741   -1.9018   -0.5450 H   0  0  0  0  0  0  0  0  0  0  0  0
    1.9176   -2.1426    1.2103 H   0  0  0  0  0  0  0  0  0  0  0  0
   -0.2868   -1.7160    1.5472 H   0  0  0  0  0  0  0  0  0  0  0  0
   -0.3301   -2.3244   -0.1166 H   0  0  0  0  0  0  0  0  0  0  0  0
   -1.0738    1.1076    1.6609 H   0  0  0  0  0  0  0  0  0  0  0  0
   -2.4566    0.7681    0.6061 H   0  0  0  0  0  0  0  0  0  0  0  0
   -1.8826   -0.4921    1.7680 H   0  0  0  0  0  0  0  0  0  0  0  0
   -0.8065   -0.8604   -2.0673 H   0  0  0  0  0  0  0  0  0  0  0  0
   -2.2599   -1.2505   -1.0910 H   0  0  0  0  0  0  0  0  0  0  0  0
   -1.9240    0.4618   -1.5642 H   0  0  0  0  0  0  0  0  0  0  0  0
  1  2  1  0
  2  3  1  0
  3  4  1  0
  4  5  1  0
  5  6  1  0
  6  7  1  0
  7  8  1  0
  7  9  1  0
  7  2  1  0
  1 10  1  0
  1 11  1  0
  1 12  1  0
  2 13  1  0
  4 14  1  0
  4 15  1  0
  5 16  1  0
  5 17  1  0
  6 18  1  0
  6 19  1  0
  8 20  1  0
  8 21  1  0
  8 22  1  0
  9 23  1  0
  9 24  1  0
  9 25  1  0
M  END
