
     RDKit          3D

 21 22  0  0  0  0  0  0  0  0999 V2000
    2.4469    0.6367    0.2421 C   0  0  0  0  0  0  0  0  0  0  0  0
    1.1547    0.0253    0.7553 C   0  0  0  0  0  0  0  0  0  0  0  0
    0.0979    0.9501    0.6974 O   0  0  0  0  0  0  0  0  0  0  0  0
   -0.7681    0.5189   -0.2774 C   0  0  0  0  0  0  0  0  0  0  0  0
   -1.5733    1.5694   -0.9333 C   0  0  0  0  0  0  0  0  0  0  0  0
   -1.6298   -0.6579    0.2002 C   0  0  0  0  0  0  0  0  0  0  0  0
   -0.5263   -1.7008    0.4200 C   0  0  0  0  0  0  0  0  0  0  0  0
    0.6524   -1.0356   -0.2085 C   0  0  0  0  0  0  0  0  0  0  0  0
    0.0674   -0.1865   -1.1798 O   0  0  0  0  0  0  0  0  0  0  0  0
    3.2679   -0.0549    0.5289 H   0  0  0  0  0  0  0  0  0  0  0  0
    2.6405    1.6046    0.7104 H   0  0  0  0  0  0  0  0  0  0  0  0
    2.4590    0.7563   -0.8462 H   0  0  0  0  0  0  0  0  0  0  0  0
    1.2766   -0.3714    1.7581 H   0  0  0  0  0  0  0  0  0  0  0  0
   -1.8292    1.2138   -1.9644 H   0  0  0  0  0  0  0  0  0  0  0  0
   -2.5138    1.7415   -0.3413 H   0  0  0  0  0  0  0  0  0  0  0  0
   -1.0444    2.5343   -0.9373 H   0  0  0  0  0  0  0  0  0  0  0  0
   -2.2132   -1.0156   -0.6576 H   0  0  0  0  0  0  0  0  0  0  0  0
   -2.1863   -0.4349    1.1002 H   0  0  0  0  0  0  0  0  0  0  0  0
   -0.7898   -2.6701   -0.0019 H   0  0  0  0  0  0  0  0  0  0  0  0
   -0.4048   -1.7444    1.5404 H   0  0  0  0  0  0  0  0  0  0  0  0
    1.4156   -1.6786   -0.6052 H   0  0  0  0  0  0  0  0  0  0  0  0
  1  2  1  0
  2  3  1  0
  3  4  1  0
  4  5  1  0
  4  6  1  0
  6  7  1  0
  7  8  1  0
  8  9  1  0
  8  2  1  0
  9  4  1  0
  1 10  1  0
  1 11  1  0
  1 12  1  0
  2 13  1  0
  5 14  1  0
  5 15  1  0
  5 16  1  0
  6 17  1  0
  6 18  1  0
  7 19  1  0
  7 20  1  0
  8 21  1  0
M  END
