
     RDKit          3D

 21 23  0  0  0  0  0  0  0  0999 V2000
    2.6748   -0.3446    0.3346 C   0  0  0  0  0  0  0  0  0  0  0  0
    1.6334    0.3069   -0.5430 C   0  0  0  0  0  0  0  0  0  0  0  0
    1.1712    1.5615    0.1537 O   0  0  0  0  0  0  0  0  0  0  0  0
    0.3508    0.4656   -0.1762 C   0  0  0  0  0  0  0  0  0  0  0  0
   -0.4985   -0.0125    0.9223 C   0  0  0  0  0  0  0  0  0  0  0  0
   -1.1716   -1.2280    0.3350 C   0  0  0  0  0  0  0  0  0  0  0  0
   -1.5136   -0.6612   -1.0592 C   0  0  0  0  0  0  0  0  0  0  0  0
   -0.9207    0.7091   -0.9090 C   0  0  0  0  0  0  0  0  0  0  0  0
   -1.4910    1.0801    0.4747 C   0  0  0  0  0  0  0  0  0  0  0  0
    3.2969   -1.0369   -0.2714 H   0  0  0  0  0  0  0  0  0  0  0  0
    3.3730    0.4724    0.6553 H   0  0  0  0  0  0  0  0  0  0  0  0
    2.2740   -0.8557    1.2046 H   0  0  0  0  0  0  0  0  0  0  0  0
    2.0468    0.6514   -1.5129 H   0  0  0  0  0  0  0  0  0  0  0  0
   -0.2012   -0.0076    1.9375 H   0  0  0  0  0  0  0  0  0  0  0  0
   -0.5112   -2.0977    0.2630 H   0  0  0  0  0  0  0  0  0  0  0  0
   -2.1068   -1.4535    0.8879 H   0  0  0  0  0  0  0  0  0  0  0  0
   -1.0660   -1.2618   -1.8511 H   0  0  0  0  0  0  0  0  0  0  0  0
   -2.6228   -0.6053   -1.1747 H   0  0  0  0  0  0  0  0  0  0  0  0
   -1.0003    1.4290   -1.6778 H   0  0  0  0  0  0  0  0  0  0  0  0
   -2.5370    0.7986    0.6119 H   0  0  0  0  0  0  0  0  0  0  0  0
   -1.1801    2.0901    0.7307 H   0  0  0  0  0  0  0  0  0  0  0  0
  1  2  1  0
  2  3  1  0
  3  4  1  0
  4  5  1  0
  5  6  1  0
  6  7  1  0
  7  8  1  0
  8  9  1  0
  4  2  1  0
  9  5  1  0
  8  4  1  0
  1 10  1  0
  1 11  1  0
  1 12  1  0
  2 13  1  0
  5 14  1  0
  6 15  1  0
  6 16  1  0
  7 17  1  0
  7 18  1  0
  8 19  1  0
  9 20  1  0
  9 21  1  0
M  END
