
     RDKit          3D

 19 20  0  0  0  0  0  0  0  0999 V2000
    1.9270   -0.6646   -1.0943 C   0  0  0  0  0  0  0  0  0  0  0  0
    1.4588    0.0136    0.1765 C   0  0  0  0  0  0  0  0  0  0  0  0
    1.0349   -1.0282    1.1641 O   0  0  0  0  0  0  0  0  0  0  0  0
    0.2235   -0.0214    0.7274 C   0  0  0  0  0  0  0  0  0  0  0  0
   -0.3067    1.0254    1.6718 C   0  0  0  0  0  0  0  0  0  0  0  0
   -1.4569    1.1752    0.7464 C   0  0  0  0  0  0  0  0  0  0  0  0
   -2.2851    2.0147    0.4910 O   0  0  0  0  0  0  0  0  0  0  0  0
   -1.1468   -0.1871    0.2535 C   0  0  0  0  0  0  0  0  0  0  0  0
   -1.3942   -0.4214   -1.2070 C   0  0  0  0  0  0  0  0  0  0  0  0
    2.6502    0.0210   -1.6046 H   0  0  0  0  0  0  0  0  0  0  0  0
    1.1313   -0.9043   -1.7922 H   0  0  0  0  0  0  0  0  0  0  0  0
    2.4892   -1.5903   -0.8506 H   0  0  0  0  0  0  0  0  0  0  0  0
    2.3148    0.5539    0.6828 H   0  0  0  0  0  0  0  0  0  0  0  0
    0.3251    1.9122    1.8149 H   0  0  0  0  0  0  0  0  0  0  0  0
   -0.6303    0.5140    2.6232 H   0  0  0  0  0  0  0  0  0  0  0  0
   -1.7167   -0.9304    0.8528 H   0  0  0  0  0  0  0  0  0  0  0  0
   -0.9370    0.3090   -1.8725 H   0  0  0  0  0  0  0  0  0  0  0  0
   -1.1707   -1.4737   -1.4277 H   0  0  0  0  0  0  0  0  0  0  0  0
   -2.5104   -0.3176   -1.3558 H   0  0  0  0  0  0  0  0  0  0  0  0
  1  2  1  0
  2  3  1  0
  3  4  1  0
  4  5  1  0
  5  6  1  0
  6  7  2  0
  6  8  1  0
  8  9  1  0
  4  2  1  0
  8  4  1  0
  1 10  1  0
  1 11  1  0
  1 12  1  0
  2 13  1  0
  5 14  1  0
  5 15  1  0
  8 16  1  0
  9 17  1  0
  9 18  1  0
  9 19  1  0
M  END
