
     RDKit          3D

 17 18  0  0  0  0  0  0  0  0999 V2000
    2.2242   -0.1776   -0.1714 C   0  0  0  0  0  0  0  0  0  0  0  0
    0.7127   -0.2025   -0.4001 C   0  0  0  0  0  0  0  0  0  0  0  0
    0.2059   -1.0762    0.5901 O   0  0  0  0  0  0  0  0  0  0  0  0
   -1.1186   -1.3492    0.1769 C   0  0  0  0  0  0  0  0  0  0  0  0
   -1.8875   -0.1011    0.3996 C   0  0  0  0  0  0  0  0  0  0  0  0
   -3.0729   -0.0815    0.7039 O   0  0  0  0  0  0  0  0  0  0  0  0
   -1.1902    1.1992    0.2476 C   0  0  0  0  0  0  0  0  0  0  0  0
   -0.9627    1.5312   -1.0880 O   0  0  0  0  0  0  0  0  0  0  0  0
    0.1262    1.1630   -0.3050 C   0  0  0  0  0  0  0  0  0  0  0  0
    2.5877   -1.2172   -0.0817 H   0  0  0  0  0  0  0  0  0  0  0  0
    2.3582    0.3452    0.8103 H   0  0  0  0  0  0  0  0  0  0  0  0
    2.7471    0.4143   -0.9429 H   0  0  0  0  0  0  0  0  0  0  0  0
    0.4817   -0.6464   -1.3905 H   0  0  0  0  0  0  0  0  0  0  0  0
   -1.0349   -1.6068   -0.9063 H   0  0  0  0  0  0  0  0  0  0  0  0
   -1.5629   -2.1828    0.7322 H   0  0  0  0  0  0  0  0  0  0  0  0
   -1.4399    1.9979    0.9686 H   0  0  0  0  0  0  0  0  0  0  0  0
    0.8258    1.9904   -0.1091 H   0  0  0  0  0  0  0  0  0  0  0  0
  1  2  1  0
  2  3  1  0
  3  4  1  0
  4  5  1  0
  5  6  2  0
  5  7  1  0
  7  8  1  0
  8  9  1  0
  9  2  1  0
  9  7  1  0
  1 10  1  0
  1 11  1  0
  1 12  1  0
  2 13  1  0
  4 14  1  0
  4 15  1  0
  7 16  1  0
  9 17  1  0
M  END
