
     RDKit          3D

 18 19  0  0  0  0  0  0  0  0999 V2000
   -2.3061    0.7784    0.3488 C   0  0  0  0  0  0  0  0  0  0  0  0
   -1.3498   -0.3603    0.4750 C   0  0  0  0  0  0  0  0  0  0  0  0
   -0.2577   -0.1657    1.3102 O   0  0  0  0  0  0  0  0  0  0  0  0
    0.6903   -0.3967    0.3464 C   0  0  0  0  0  0  0  0  0  0  0  0
    1.9285    0.4026    0.2347 C   0  0  0  0  0  0  0  0  0  0  0  0
    1.7341    1.7574    0.0186 O   0  0  0  0  0  0  0  0  0  0  0  0
    0.5712   -1.6255   -0.5515 C   0  0  0  0  0  0  0  0  0  0  0  0
   -0.3510   -0.4837   -0.6712 C   0  0  0  0  0  0  0  0  0  0  0  0
   -3.1253    0.6050    1.0981 H   0  0  0  0  0  0  0  0  0  0  0  0
   -2.7523    0.7165   -0.6856 H   0  0  0  0  0  0  0  0  0  0  0  0
   -1.8681    1.7536    0.5492 H   0  0  0  0  0  0  0  0  0  0  0  0
   -1.8271   -1.3378    0.7326 H   0  0  0  0  0  0  0  0  0  0  0  0
    2.5795   -0.0259   -0.5446 H   0  0  0  0  0  0  0  0  0  0  0  0
    2.5032    0.3110    1.1941 H   0  0  0  0  0  0  0  0  0  0  0  0
    2.6574    2.1557   -0.0548 H   0  0  0  0  0  0  0  0  0  0  0  0
    0.2563   -2.5263    0.0214 H   0  0  0  0  0  0  0  0  0  0  0  0
    1.3506   -1.7174   -1.3145 H   0  0  0  0  0  0  0  0  0  0  0  0
   -0.4339    0.1593   -1.5419 H   0  0  0  0  0  0  0  0  0  0  0  0
  1  2  1  0
  2  3  1  0
  3  4  1  0
  4  5  1  0
  5  6  1  0
  4  7  1  0
  7  8  1  0
  8  2  1  0
  8  4  1  0
  1  9  1  0
  1 10  1  0
  1 11  1  0
  2 12  1  0
  5 13  1  0
  5 14  1  0
  6 15  1  0
  7 16  1  0
  7 17  1  0
  8 18  1  0
M  END
