
     RDKit          3D

 21 23  0  0  0  0  0  0  0  0999 V2000
    3.1426    0.1637    0.1573 C   0  0  0  0  0  0  0  0  0  0  0  0
    1.8275   -0.4205   -0.3146 C   0  0  0  0  0  0  0  0  0  0  0  0
    1.4164    0.1279   -1.5445 O   0  0  0  0  0  0  0  0  0  0  0  0
    0.6728    0.3970   -0.2821 C   0  0  0  0  0  0  0  0  0  0  0  0
   -0.7386   -0.0221   -0.4627 C   0  0  0  0  0  0  0  0  0  0  0  0
   -1.7794    1.0667   -0.3803 C   0  0  0  0  0  0  0  0  0  0  0  0
   -2.3456    0.4230    0.8605 C   0  0  0  0  0  0  0  0  0  0  0  0
   -1.3547   -0.6970    0.7538 C   0  0  0  0  0  0  0  0  0  0  0  0
   -1.1730   -1.4267   -0.5268 C   0  0  0  0  0  0  0  0  0  0  0  0
    3.2926   -0.1811    1.2138 H   0  0  0  0  0  0  0  0  0  0  0  0
    3.0968    1.2780    0.2259 H   0  0  0  0  0  0  0  0  0  0  0  0
    3.9917   -0.1405   -0.4648 H   0  0  0  0  0  0  0  0  0  0  0  0
    1.8100   -1.5276   -0.2704 H   0  0  0  0  0  0  0  0  0  0  0  0
    0.8067    1.4736   -0.0236 H   0  0  0  0  0  0  0  0  0  0  0  0
   -1.3714    2.0818   -0.2283 H   0  0  0  0  0  0  0  0  0  0  0  0
   -2.5048    1.0964   -1.2216 H   0  0  0  0  0  0  0  0  0  0  0  0
   -2.1565    1.0028    1.8052 H   0  0  0  0  0  0  0  0  0  0  0  0
   -3.3922    0.1161    0.7315 H   0  0  0  0  0  0  0  0  0  0  0  0
   -0.7177   -0.9504    1.6057 H   0  0  0  0  0  0  0  0  0  0  0  0
   -2.1113   -1.6616   -1.0652 H   0  0  0  0  0  0  0  0  0  0  0  0
   -0.4117   -2.1994   -0.5686 H   0  0  0  0  0  0  0  0  0  0  0  0
  1  2  1  0
  2  3  1  0
  3  4  1  0
  4  5  1  0
  5  6  1  0
  6  7  1  0
  7  8  1  0
  8  9  1  0
  4  2  1  0
  8  5  1  0
  9  5  1  0
  1 10  1  0
  1 11  1  0
  1 12  1  0
  2 13  1  0
  4 14  1  0
  6 15  1  0
  6 16  1  0
  7 17  1  0
  7 18  1  0
  8 19  1  0
  9 20  1  0
  9 21  1  0
M  END
