
     RDKit          3D

 21 22  0  0  0  0  0  0  0  0999 V2000
    2.4129    0.4446   -0.0257 C   0  0  0  0  0  0  0  0  0  0  0  0
    0.9537    0.6663    0.1664 C   0  0  0  0  0  0  0  0  0  0  0  0
    0.4769    0.0991    1.3773 O   0  0  0  0  0  0  0  0  0  0  0  0
   -0.4576   -0.8041    0.9473 C   0  0  0  0  0  0  0  0  0  0  0  0
    0.2767   -1.5272   -0.1951 C   0  0  0  0  0  0  0  0  0  0  0  0
    0.1897   -0.1448   -0.8243 C   0  0  0  0  0  0  0  0  0  0  0  0
   -1.2116   -0.1166   -0.1995 C   0  0  0  0  0  0  0  0  0  0  0  0
   -1.6950    1.2552    0.0923 C   0  0  0  0  0  0  0  0  0  0  0  0
   -2.1155   -0.9762   -0.7801 O   0  0  0  0  0  0  0  0  0  0  0  0
    2.7863    1.2747   -0.6949 H   0  0  0  0  0  0  0  0  0  0  0  0
    3.0057    0.5394    0.9051 H   0  0  0  0  0  0  0  0  0  0  0  0
    2.6723   -0.5118   -0.5150 H   0  0  0  0  0  0  0  0  0  0  0  0
    0.7168    1.7332    0.1773 H   0  0  0  0  0  0  0  0  0  0  0  0
   -1.0189   -1.3992    1.6188 H   0  0  0  0  0  0  0  0  0  0  0  0
   -0.4089   -2.2441   -0.6538 H   0  0  0  0  0  0  0  0  0  0  0  0
    1.2689   -1.8652    0.0885 H   0  0  0  0  0  0  0  0  0  0  0  0
    0.2877   -0.0295   -1.8595 H   0  0  0  0  0  0  0  0  0  0  0  0
   -1.5102    1.5919    1.1314 H   0  0  0  0  0  0  0  0  0  0  0  0
   -2.7847    1.3916   -0.1462 H   0  0  0  0  0  0  0  0  0  0  0  0
   -1.1666    1.9670   -0.5840 H   0  0  0  0  0  0  0  0  0  0  0  0
   -2.6786   -1.3445   -0.0262 H   0  0  0  0  0  0  0  0  0  0  0  0
  1  2  1  0
  2  3  1  0
  3  4  1  0
  4  5  1  0
  5  6  1  0
  6  7  1  0
  7  8  1  0
  7  9  1  0
  6  2  1  0
  7  4  1  0
  1 10  1  0
  1 11  1  0
  1 12  1  0
  2 13  1  0
  4 14  1  0
  5 15  1  0
  5 16  1  0
  6 17  1  0
  8 18  1  0
  8 19  1  0
  8 20  1  0
  9 21  1  0
M  END
