
     RDKit          3D

 18 19  0  0  0  0  0  0  0  0999 V2000
    2.6862   -0.0116    0.0536 C   0  0  0  0  0  0  0  0  0  0  0  0
    1.2961    0.3680    0.5249 C   0  0  0  0  0  0  0  0  0  0  0  0
    0.8274    1.3561   -0.3079 O   0  0  0  0  0  0  0  0  0  0  0  0
   -0.5107    1.1351   -0.5440 C   0  0  0  0  0  0  0  0  0  0  0  0
   -0.7873   -0.2310   -0.0173 C   0  0  0  0  0  0  0  0  0  0  0  0
   -1.7171   -1.1680   -0.6558 C   0  0  0  0  0  0  0  0  0  0  0  0
   -2.0802   -0.4707    0.6327 C   0  0  0  0  0  0  0  0  0  0  0  0
    0.4083   -0.6873    0.4883 O   0  0  0  0  0  0  0  0  0  0  0  0
    2.7089   -0.9879   -0.4675 H   0  0  0  0  0  0  0  0  0  0  0  0
    3.4227   -0.0374    0.8712 H   0  0  0  0  0  0  0  0  0  0  0  0
    3.0806    0.7321   -0.6927 H   0  0  0  0  0  0  0  0  0  0  0  0
    1.3026    0.7454    1.5783 H   0  0  0  0  0  0  0  0  0  0  0  0
   -0.7655    1.2861   -1.6010 H   0  0  0  0  0  0  0  0  0  0  0  0
   -1.0785    1.8743    0.0793 H   0  0  0  0  0  0  0  0  0  0  0  0
   -2.3076   -0.9344   -1.5540 H   0  0  0  0  0  0  0  0  0  0  0  0
   -1.5177   -2.2638   -0.5095 H   0  0  0  0  0  0  0  0  0  0  0  0
   -2.1011   -1.0306    1.5774 H   0  0  0  0  0  0  0  0  0  0  0  0
   -2.8670    0.3258    0.5437 H   0  0  0  0  0  0  0  0  0  0  0  0
  1  2  1  0
  2  3  1  0
  3  4  1  0
  4  5  1  0
  5  6  1  0
  6  7  1  0
  5  8  1  0
  8  2  1  0
  7  5  1  0
  1  9  1  0
  1 10  1  0
  1 11  1  0
  2 12  1  0
  4 13  1  0
  4 14  1  0
  6 15  1  0
  6 16  1  0
  7 17  1  0
  7 18  1  0
M  END
