
     RDKit          3D

 21 22  0  0  0  0  0  0  0  0999 V2000
    2.4063   -0.4054   -0.0047 C   0  0  0  0  0  0  0  0  0  0  0  0
    0.9755   -0.8158   -0.0818 C   0  0  0  0  0  0  0  0  0  0  0  0
    0.4061   -0.8415    1.1791 O   0  0  0  0  0  0  0  0  0  0  0  0
   -0.7697   -0.3867    0.6108 C   0  0  0  0  0  0  0  0  0  0  0  0
   -1.7821   -1.4052    0.2757 C   0  0  0  0  0  0  0  0  0  0  0  0
   -0.8389    1.0259    0.2572 C   0  0  0  0  0  0  0  0  0  0  0  0
   -0.0705    2.0523    1.0494 C   0  0  0  0  0  0  0  0  0  0  0  0
   -0.0030    0.1652   -0.6159 C   0  0  0  0  0  0  0  0  0  0  0  0
   -0.5678   -0.1023   -1.8724 O   0  0  0  0  0  0  0  0  0  0  0  0
    2.6734    0.0310    0.9936 H   0  0  0  0  0  0  0  0  0  0  0  0
    3.0395   -1.3272   -0.0841 H   0  0  0  0  0  0  0  0  0  0  0  0
    2.6350    0.3062   -0.8138 H   0  0  0  0  0  0  0  0  0  0  0  0
    0.8533   -1.8052   -0.6138 H   0  0  0  0  0  0  0  0  0  0  0  0
   -1.9103   -2.0780    1.1692 H   0  0  0  0  0  0  0  0  0  0  0  0
   -1.3858   -2.0833   -0.5341 H   0  0  0  0  0  0  0  0  0  0  0  0
   -2.7481   -1.0300   -0.0564 H   0  0  0  0  0  0  0  0  0  0  0  0
   -1.8087    1.4043   -0.1145 H   0  0  0  0  0  0  0  0  0  0  0  0
    0.3200    2.8013    0.3038 H   0  0  0  0  0  0  0  0  0  0  0  0
   -0.7119    2.6217    1.7492 H   0  0  0  0  0  0  0  0  0  0  0  0
    0.7760    1.6186    1.5647 H   0  0  0  0  0  0  0  0  0  0  0  0
   -1.4883    0.2541   -1.9524 H   0  0  0  0  0  0  0  0  0  0  0  0
  1  2  1  0
  2  3  1  0
  3  4  1  0
  4  5  1  0
  4  6  1  0
  6  7  1  0
  6  8  1  0
  8  9  1  0
  8  2  1  0
  8  4  1  0
  1 10  1  0
  1 11  1  0
  1 12  1  0
  2 13  1  0
  5 14  1  0
  5 15  1  0
  5 16  1  0
  6 17  1  0
  7 18  1  0
  7 19  1  0
  7 20  1  0
  9 21  1  0
M  END
