
     RDKit          3D

 18 19  0  0  0  0  0  0  0  0999 V2000
    1.8611   -0.9573    0.1006 C   0  0  0  0  0  0  0  0  0  0  0  0
    1.0072    0.1259   -0.4738 C   0  0  0  0  0  0  0  0  0  0  0  0
    1.4261    1.4193   -0.1199 O   0  0  0  0  0  0  0  0  0  0  0  0
    0.0825    1.8339    0.0345 C   0  0  0  0  0  0  0  0  0  0  0  0
   -0.2919    0.4091    0.1623 C   0  0  0  0  0  0  0  0  0  0  0  0
   -1.5034   -0.0810   -0.5345 C   0  0  0  0  0  0  0  0  0  0  0  0
   -1.6059   -0.8873    0.7276 C   0  0  0  0  0  0  0  0  0  0  0  0
   -0.6057   -0.1112    1.3616 O   0  0  0  0  0  0  0  0  0  0  0  0
    2.3978   -0.6486    1.0300 H   0  0  0  0  0  0  0  0  0  0  0  0
    2.6812   -1.1544   -0.6492 H   0  0  0  0  0  0  0  0  0  0  0  0
    1.3475   -1.9167    0.2340 H   0  0  0  0  0  0  0  0  0  0  0  0
    0.8925    0.0383   -1.5885 H   0  0  0  0  0  0  0  0  0  0  0  0
   -0.0336    2.4050    0.9727 H   0  0  0  0  0  0  0  0  0  0  0  0
   -0.3207    2.3402   -0.8714 H   0  0  0  0  0  0  0  0  0  0  0  0
   -2.3043    0.6327   -0.7424 H   0  0  0  0  0  0  0  0  0  0  0  0
   -1.2398   -0.6853   -1.4284 H   0  0  0  0  0  0  0  0  0  0  0  0
   -1.2010   -1.9213    0.5934 H   0  0  0  0  0  0  0  0  0  0  0  0
   -2.5897   -0.8415    1.1914 H   0  0  0  0  0  0  0  0  0  0  0  0
  1  2  1  0
  2  3  1  0
  3  4  1  0
  4  5  1  0
  5  6  1  0
  6  7  1  0
  7  8  1  0
  5  2  1  0
  8  5  1  0
  1  9  1  0
  1 10  1  0
  1 11  1  0
  2 12  1  0
  4 13  1  0
  4 14  1  0
  6 15  1  0
  6 16  1  0
  7 17  1  0
  7 18  1  0
M  END
