
     RDKit          3D

 19 20  0  0  0  0  0  0  0  0999 V2000
    2.6017   -0.7655    0.3165 C   0  0  0  0  0  0  0  0  0  0  0  0
    1.5555    0.0506   -0.4044 C   0  0  0  0  0  0  0  0  0  0  0  0
    1.1463    1.1969    0.3484 O   0  0  0  0  0  0  0  0  0  0  0  0
   -0.0224    1.0993   -0.3813 C   0  0  0  0  0  0  0  0  0  0  0  0
   -1.3186    1.4715    0.3090 C   0  0  0  0  0  0  0  0  0  0  0  0
   -2.3640    0.6790   -0.1371 O   0  0  0  0  0  0  0  0  0  0  0  0
   -2.2758   -0.6561    0.0361 C   0  0  0  0  0  0  0  0  0  0  0  0
   -0.8836   -1.1604   -0.0498 C   0  0  0  0  0  0  0  0  0  0  0  0
    0.1717   -0.4075   -0.2260 C   0  0  0  0  0  0  0  0  0  0  0  0
    2.9846   -0.2795    1.2123 H   0  0  0  0  0  0  0  0  0  0  0  0
    2.1475   -1.7750    0.5222 H   0  0  0  0  0  0  0  0  0  0  0  0
    3.4401   -0.9098   -0.4069 H   0  0  0  0  0  0  0  0  0  0  0  0
    1.7840    0.3756   -1.4159 H   0  0  0  0  0  0  0  0  0  0  0  0
    0.0811    1.4073   -1.4232 H   0  0  0  0  0  0  0  0  0  0  0  0
   -1.5495    2.5116   -0.0029 H   0  0  0  0  0  0  0  0  0  0  0  0
   -1.2109    1.4789    1.4088 H   0  0  0  0  0  0  0  0  0  0  0  0
   -2.9123   -1.1243   -0.7789 H   0  0  0  0  0  0  0  0  0  0  0  0
   -2.7186   -0.9517    1.0391 H   0  0  0  0  0  0  0  0  0  0  0  0
   -0.6568   -2.2408    0.0339 H   0  0  0  0  0  0  0  0  0  0  0  0
  1  2  1  0
  2  3  1  0
  3  4  1  0
  4  5  1  0
  5  6  1  0
  6  7  1  0
  7  8  1  0
  8  9  2  0
  9  2  1  0
  9  4  1  0
  1 10  1  0
  1 11  1  0
  1 12  1  0
  2 13  1  0
  4 14  1  0
  5 15  1  0
  5 16  1  0
  7 17  1  0
  7 18  1  0
  8 19  1  0
M  END
