
     RDKit          3D

 21 22  0  0  0  0  0  0  0  0999 V2000
    2.1454   -0.9859    0.5088 C   0  0  0  0  0  0  0  0  0  0  0  0
    1.3923   -0.0161   -0.3570 C   0  0  0  0  0  0  0  0  0  0  0  0
    0.7978   -0.6955   -1.4211 O   0  0  0  0  0  0  0  0  0  0  0  0
   -0.4095   -0.1364   -1.1078 C   0  0  0  0  0  0  0  0  0  0  0  0
   -1.4673   -1.0950   -0.5722 C   0  0  0  0  0  0  0  0  0  0  0  0
   -1.7891   -0.3797    0.7485 C   0  0  0  0  0  0  0  0  0  0  0  0
   -0.4732   -0.1835    1.2237 O   0  0  0  0  0  0  0  0  0  0  0  0
    0.0963    0.4906    0.1612 C   0  0  0  0  0  0  0  0  0  0  0  0
   -0.0704    1.9810    0.2558 C   0  0  0  0  0  0  0  0  0  0  0  0
    1.5274   -1.9148    0.5960 H   0  0  0  0  0  0  0  0  0  0  0  0
    2.3925   -0.6031    1.5064 H   0  0  0  0  0  0  0  0  0  0  0  0
    3.0493   -1.3001   -0.0746 H   0  0  0  0  0  0  0  0  0  0  0  0
    2.0048    0.8215   -0.7737 H   0  0  0  0  0  0  0  0  0  0  0  0
   -0.7686    0.5934   -1.8401 H   0  0  0  0  0  0  0  0  0  0  0  0
   -1.0130   -2.0654   -0.2795 H   0  0  0  0  0  0  0  0  0  0  0  0
   -2.3369   -1.1773   -1.2218 H   0  0  0  0  0  0  0  0  0  0  0  0
   -2.2361    0.5901    0.4492 H   0  0  0  0  0  0  0  0  0  0  0  0
   -2.3961   -0.9827    1.4134 H   0  0  0  0  0  0  0  0  0  0  0  0
   -0.6790    2.3155   -0.6002 H   0  0  0  0  0  0  0  0  0  0  0  0
    0.8956    2.5158    0.2140 H   0  0  0  0  0  0  0  0  0  0  0  0
   -0.6623    2.2277    1.1712 H   0  0  0  0  0  0  0  0  0  0  0  0
  1  2  1  0
  2  3  1  0
  3  4  1  0
  4  5  1  0
  5  6  1  0
  6  7  1  0
  7  8  1  0
  8  9  1  0
  8  2  1  0
  8  4  1  0
  1 10  1  0
  1 11  1  0
  1 12  1  0
  2 13  1  0
  4 14  1  0
  5 15  1  0
  5 16  1  0
  6 17  1  0
  6 18  1  0
  9 19  1  0
  9 20  1  0
  9 21  1  0
M  END
