
     RDKit          3D

 19 20  0  0  0  0  0  0  0  0999 V2000
    2.8198    0.8532   -0.1900 C   0  0  0  0  0  0  0  0  0  0  0  0
    1.6867   -0.0478    0.1791 C   0  0  0  0  0  0  0  0  0  0  0  0
    0.5303    0.6182    0.6521 O   0  0  0  0  0  0  0  0  0  0  0  0
   -0.1980   -0.2539   -0.0962 C   0  0  0  0  0  0  0  0  0  0  0  0
   -1.0124   -1.3442    0.4434 C   0  0  0  0  0  0  0  0  0  0  0  0
   -1.5981   -0.1830   -0.4151 C   0  0  0  0  0  0  0  0  0  0  0  0
   -2.5868    0.6997    0.2928 C   0  0  0  0  0  0  0  0  0  0  0  0
    0.9022   -0.4202   -1.0301 C   0  0  0  0  0  0  0  0  0  0  0  0
    1.0481   -0.7153   -2.1967 O   0  0  0  0  0  0  0  0  0  0  0  0
    2.4443    1.7262   -0.7659 H   0  0  0  0  0  0  0  0  0  0  0  0
    3.4903    0.2723   -0.8902 H   0  0  0  0  0  0  0  0  0  0  0  0
    3.4013    1.2120    0.6780 H   0  0  0  0  0  0  0  0  0  0  0  0
    1.9666   -0.9083    0.7902 H   0  0  0  0  0  0  0  0  0  0  0  0
   -1.3563   -1.3794    1.5034 H   0  0  0  0  0  0  0  0  0  0  0  0
   -0.9804   -2.3386   -0.0283 H   0  0  0  0  0  0  0  0  0  0  0  0
   -1.9246   -0.5124   -1.4271 H   0  0  0  0  0  0  0  0  0  0  0  0
   -2.4992    1.7575    0.0212 H   0  0  0  0  0  0  0  0  0  0  0  0
   -3.6203    0.3824   -0.0316 H   0  0  0  0  0  0  0  0  0  0  0  0
   -2.5133    0.5815    1.3936 H   0  0  0  0  0  0  0  0  0  0  0  0
  1  2  1  0
  2  3  1  0
  3  4  1  0
  4  5  1  0
  5  6  1  0
  6  7  1  0
  4  8  1  0
  8  9  2  0
  8  2  1  0
  6  4  1  0
  1 10  1  0
  1 11  1  0
  1 12  1  0
  2 13  1  0
  5 14  1  0
  5 15  1  0
  6 16  1  0
  7 17  1  0
  7 18  1  0
  7 19  1  0
M  END
