
     RDKit          3D

 19 21  0  0  0  0  0  0  0  0999 V2000
   -2.2839   -0.0672   -0.2944 C   0  0  0  0  0  0  0  0  0  0  0  0
   -1.2157   -0.9164    0.2709 C   0  0  0  0  0  0  0  0  0  0  0  0
   -0.4942   -1.6319   -0.7619 O   0  0  0  0  0  0  0  0  0  0  0  0
    0.8182   -1.1848   -0.7093 C   0  0  0  0  0  0  0  0  0  0  0  0
    1.5965    0.0220   -0.7268 C   0  0  0  0  0  0  0  0  0  0  0  0
    1.8778    1.0280    0.4270 C   0  0  0  0  0  0  0  0  0  0  0  0
    0.7094    0.7520    1.3657 C   0  0  0  0  0  0  0  0  0  0  0  0
   -0.1639   -0.0299    0.8119 C   0  0  0  0  0  0  0  0  0  0  0  0
    0.2652    0.2485   -0.7093 C   0  0  0  0  0  0  0  0  0  0  0  0
   -3.2995   -0.3577    0.0794 H   0  0  0  0  0  0  0  0  0  0  0  0
   -2.1421    0.9918   -0.0141 H   0  0  0  0  0  0  0  0  0  0  0  0
   -2.3323   -0.1414   -1.3992 H   0  0  0  0  0  0  0  0  0  0  0  0
   -1.6100   -1.6395    1.0001 H   0  0  0  0  0  0  0  0  0  0  0  0
    1.1988   -1.7405    0.1674 H   0  0  0  0  0  0  0  0  0  0  0  0
    2.3040    0.1895   -1.5452 H   0  0  0  0  0  0  0  0  0  0  0  0
    2.7687    0.6832    0.9580 H   0  0  0  0  0  0  0  0  0  0  0  0
    1.8809    2.0500    0.0702 H   0  0  0  0  0  0  0  0  0  0  0  0
    0.5657    1.1262    2.3768 H   0  0  0  0  0  0  0  0  0  0  0  0
   -0.4436    0.6179   -1.3670 H   0  0  0  0  0  0  0  0  0  0  0  0
  1  2  1  0
  2  3  1  0
  3  4  1  0
  4  5  1  0
  5  6  1  0
  6  7  1  0
  7  8  2  0
  8  9  1  0
  8  2  1  0
  9  4  1  0
  9  5  1  0
  1 10  1  0
  1 11  1  0
  1 12  1  0
  2 13  1  0
  4 14  1  0
  5 15  1  0
  6 16  1  0
  6 17  1  0
  7 18  1  0
  9 19  1  0
M  END
