
     RDKit          3D

 23 23  0  0  0  0  0  0  0  0999 V2000
    1.5597   -1.1380    0.6053 C   0  0  0  0  0  0  0  0  0  0  0  0
    0.6242   -0.6757   -0.4724 C   0  0  0  0  0  0  0  0  0  0  0  0
    1.1925    0.2621   -1.2863 O   0  0  0  0  0  0  0  0  0  0  0  0
    1.3704    1.5000   -0.7553 C   0  0  0  0  0  0  0  0  0  0  0  0
    0.5217    1.8076    0.4138 C   0  0  0  0  0  0  0  0  0  0  0  0
   -0.4657    1.0338    0.8350 C   0  0  0  0  0  0  0  0  0  0  0  0
   -0.7102   -0.2099    0.0664 C   0  0  0  0  0  0  0  0  0  0  0  0
   -1.4069   -1.2738    0.8450 C   0  0  0  0  0  0  0  0  0  0  0  0
   -1.5666    0.1584   -1.1273 C   0  0  0  0  0  0  0  0  0  0  0  0
    2.5987   -0.7847    0.4446 H   0  0  0  0  0  0  0  0  0  0  0  0
    1.2456   -0.7860    1.6105 H   0  0  0  0  0  0  0  0  0  0  0  0
    1.6250   -2.2599    0.6692 H   0  0  0  0  0  0  0  0  0  0  0  0
    0.3971   -1.5747   -1.1160 H   0  0  0  0  0  0  0  0  0  0  0  0
    2.4386    1.6549   -0.4531 H   0  0  0  0  0  0  0  0  0  0  0  0
    1.2009    2.2587   -1.5744 H   0  0  0  0  0  0  0  0  0  0  0  0
    0.7372    2.7340    0.9503 H   0  0  0  0  0  0  0  0  0  0  0  0
   -1.0786    1.2651    1.6868 H   0  0  0  0  0  0  0  0  0  0  0  0
   -0.7150   -1.8818    1.4620 H   0  0  0  0  0  0  0  0  0  0  0  0
   -1.8682   -1.9799    0.0933 H   0  0  0  0  0  0  0  0  0  0  0  0
   -2.2425   -0.8391    1.4023 H   0  0  0  0  0  0  0  0  0  0  0  0
   -2.3909   -0.5775   -1.2534 H   0  0  0  0  0  0  0  0  0  0  0  0
   -2.0720    1.1482   -0.9683 H   0  0  0  0  0  0  0  0  0  0  0  0
   -0.9950    0.1584   -2.0778 H   0  0  0  0  0  0  0  0  0  0  0  0
  1  2  1  0
  2  3  1  0
  3  4  1  0
  4  5  1  0
  5  6  2  0
  6  7  1  0
  7  8  1  0
  7  9  1  0
  7  2  1  0
  1 10  1  0
  1 11  1  0
  1 12  1  0
  2 13  1  0
  4 14  1  0
  4 15  1  0
  5 16  1  0
  6 17  1  0
  8 18  1  0
  8 19  1  0
  8 20  1  0
  9 21  1  0
  9 22  1  0
  9 23  1  0
M  END
