
     RDKit          3D

 21 21  0  0  0  0  0  0  0  0999 V2000
   -2.4589    0.9440    0.1793 C   0  0  0  0  0  0  0  0  0  0  0  0
   -2.2799   -0.5346    0.1230 C   0  0  0  0  0  0  0  0  0  0  0  0
   -2.0106   -1.0761   -1.1828 O   0  0  0  0  0  0  0  0  0  0  0  0
   -1.0280   -1.1252   -0.2011 C   0  0  0  0  0  0  0  0  0  0  0  0
    0.2365   -0.4196   -0.5848 C   0  0  0  0  0  0  0  0  0  0  0  0
    0.1082    0.9185   -0.8581 O   0  0  0  0  0  0  0  0  0  0  0  0
    1.2566   -0.6178    0.5160 C   0  0  0  0  0  0  0  0  0  0  0  0
    2.5639    0.0562    0.2147 C   0  0  0  0  0  0  0  0  0  0  0  0
    2.4901    1.4167    0.0436 O   0  0  0  0  0  0  0  0  0  0  0  0
   -3.5484    1.2238    0.3036 H   0  0  0  0  0  0  0  0  0  0  0  0
   -2.1610    1.4194   -0.7717 H   0  0  0  0  0  0  0  0  0  0  0  0
   -1.9158    1.3622    1.0689 H   0  0  0  0  0  0  0  0  0  0  0  0
   -3.0265   -1.1382    0.6820 H   0  0  0  0  0  0  0  0  0  0  0  0
   -0.8170   -2.1565    0.2175 H   0  0  0  0  0  0  0  0  0  0  0  0
    0.6008   -0.9189   -1.5226 H   0  0  0  0  0  0  0  0  0  0  0  0
    0.1687    1.5247   -0.0881 H   0  0  0  0  0  0  0  0  0  0  0  0
    0.8481   -0.2979    1.4829 H   0  0  0  0  0  0  0  0  0  0  0  0
    1.4690   -1.7073    0.6024 H   0  0  0  0  0  0  0  0  0  0  0  0
    2.9256   -0.3735   -0.7603 H   0  0  0  0  0  0  0  0  0  0  0  0
    3.2608   -0.1836    1.0420 H   0  0  0  0  0  0  0  0  0  0  0  0
    3.3176    1.6839   -0.4676 H   0  0  0  0  0  0  0  0  0  0  0  0
  1  2  1  0
  2  3  1  0
  3  4  1  0
  4  5  1  0
  5  6  1  0
  5  7  1  0
  7  8  1  0
  8  9  1  0
  4  2  1  0
  1 10  1  0
  1 11  1  0
  1 12  1  0
  2 13  1  0
  4 14  1  0
  5 15  1  0
  6 16  1  0
  7 17  1  0
  7 18  1  0
  8 19  1  0
  8 20  1  0
  9 21  1  0
M  END
