
     RDKit          3D

 23 24  0  0  0  0  0  0  0  0999 V2000
    2.7731    0.3627   -0.4629 C   0  0  0  0  0  0  0  0  0  0  0  0
    1.5475   -0.2130    0.1558 C   0  0  0  0  0  0  0  0  0  0  0  0
    1.1715   -1.4763   -0.2184 O   0  0  0  0  0  0  0  0  0  0  0  0
   -0.1565   -1.0343   -0.0370 C   0  0  0  0  0  0  0  0  0  0  0  0
   -0.9090   -1.5034    1.1646 C   0  0  0  0  0  0  0  0  0  0  0  0
   -0.7312   -0.2969   -1.1413 C   0  0  0  0  0  0  0  0  0  0  0  0
   -2.1953    0.1263   -0.9785 C   0  0  0  0  0  0  0  0  0  0  0  0
    0.2355    0.3500   -0.2642 C   0  0  0  0  0  0  0  0  0  0  0  0
   -0.2496    1.5046    0.5666 C   0  0  0  0  0  0  0  0  0  0  0  0
    3.6312   -0.3137   -0.4622 H   0  0  0  0  0  0  0  0  0  0  0  0
    3.0768    1.2481    0.1707 H   0  0  0  0  0  0  0  0  0  0  0  0
    2.6102    0.7954   -1.4788 H   0  0  0  0  0  0  0  0  0  0  0  0
    1.6271   -0.1697    1.2825 H   0  0  0  0  0  0  0  0  0  0  0  0
   -1.8728   -0.9780    1.1966 H   0  0  0  0  0  0  0  0  0  0  0  0
   -1.1132   -2.5840    1.0619 H   0  0  0  0  0  0  0  0  0  0  0  0
   -0.3134   -1.3860    2.0940 H   0  0  0  0  0  0  0  0  0  0  0  0
   -0.5131   -0.6186   -2.1780 H   0  0  0  0  0  0  0  0  0  0  0  0
   -2.3024    0.7367   -0.0370 H   0  0  0  0  0  0  0  0  0  0  0  0
   -2.5407    0.7221   -1.8389 H   0  0  0  0  0  0  0  0  0  0  0  0
   -2.7978   -0.7873   -0.8035 H   0  0  0  0  0  0  0  0  0  0  0  0
   -0.8798    1.2280    1.4082 H   0  0  0  0  0  0  0  0  0  0  0  0
   -0.7442    2.2270   -0.1433 H   0  0  0  0  0  0  0  0  0  0  0  0
    0.6460    2.0604    0.9431 H   0  0  0  0  0  0  0  0  0  0  0  0
  1  2  1  0
  2  3  1  0
  3  4  1  0
  4  5  1  0
  4  6  1  0
  6  7  1  0
  6  8  1  0
  8  9  1  0
  8  2  1  0
  8  4  1  0
  1 10  1  0
  1 11  1  0
  1 12  1  0
  2 13  1  0
  5 14  1  0
  5 15  1  0
  5 16  1  0
  6 17  1  0
  7 18  1  0
  7 19  1  0
  7 20  1  0
  9 21  1  0
  9 22  1  0
  9 23  1  0
M  END
