
     RDKit          3D

 21 21  0  0  0  0  0  0  0  0999 V2000
   -3.2260    0.2633    0.1194 C   0  0  0  0  0  0  0  0  0  0  0  0
   -2.1520   -0.6563    0.5829 C   0  0  0  0  0  0  0  0  0  0  0  0
   -1.4896   -1.2913   -0.5812 O   0  0  0  0  0  0  0  0  0  0  0  0
   -0.7570   -0.5163    0.3581 C   0  0  0  0  0  0  0  0  0  0  0  0
   -0.1062    0.7034   -0.2462 C   0  0  0  0  0  0  0  0  0  0  0  0
    0.7666    0.2680   -1.2341 O   0  0  0  0  0  0  0  0  0  0  0  0
    1.7602   -0.5689   -0.8246 C   0  0  0  0  0  0  0  0  0  0  0  0
    2.6797    0.0227    0.2081 C   0  0  0  0  0  0  0  0  0  0  0  0
    3.2706    1.1643   -0.3603 O   0  0  0  0  0  0  0  0  0  0  0  0
   -3.8707   -0.3182   -0.6026 H   0  0  0  0  0  0  0  0  0  0  0  0
   -3.8944    0.5106    0.9680 H   0  0  0  0  0  0  0  0  0  0  0  0
   -2.8755    1.1477   -0.4181 H   0  0  0  0  0  0  0  0  0  0  0  0
   -2.4996   -1.4131    1.3324 H   0  0  0  0  0  0  0  0  0  0  0  0
   -0.0582   -1.1510    0.9398 H   0  0  0  0  0  0  0  0  0  0  0  0
   -0.8596    1.4093   -0.6587 H   0  0  0  0  0  0  0  0  0  0  0  0
    0.4632    1.2577    0.5238 H   0  0  0  0  0  0  0  0  0  0  0  0
    2.3841   -0.7958   -1.7384 H   0  0  0  0  0  0  0  0  0  0  0  0
    1.3941   -1.5492   -0.4316 H   0  0  0  0  0  0  0  0  0  0  0  0
    3.5084   -0.7082    0.4410 H   0  0  0  0  0  0  0  0  0  0  0  0
    2.1523    0.3395    1.1115 H   0  0  0  0  0  0  0  0  0  0  0  0
    3.4098    1.8817    0.2800 H   0  0  0  0  0  0  0  0  0  0  0  0
  1  2  1  0
  2  3  1  0
  3  4  1  0
  4  5  1  0
  5  6  1  0
  6  7  1  0
  7  8  1  0
  8  9  1  0
  4  2  1  0
  1 10  1  0
  1 11  1  0
  1 12  1  0
  2 13  1  0
  4 14  1  0
  5 15  1  0
  5 16  1  0
  7 17  1  0
  7 18  1  0
  8 19  1  0
  8 20  1  0
  9 21  1  0
M  END
