
     RDKit          3D

 21 22  0  0  0  0  0  0  0  0999 V2000
   -1.1394    2.0409    0.3643 C   0  0  0  0  0  0  0  0  0  0  0  0
   -0.2606    1.2019   -0.4978 C   0  0  0  0  0  0  0  0  0  0  0  0
    1.1189    1.2579   -0.1809 O   0  0  0  0  0  0  0  0  0  0  0  0
    1.2158   -0.1087   -0.4972 C   0  0  0  0  0  0  0  0  0  0  0  0
    2.2153   -0.8616    0.3441 C   0  0  0  0  0  0  0  0  0  0  0  0
   -0.1910   -0.2454   -0.2316 C   0  0  0  0  0  0  0  0  0  0  0  0
   -0.7523   -0.8338    0.9684 C   0  0  0  0  0  0  0  0  0  0  0  0
   -1.9263   -1.1169    0.2303 O   0  0  0  0  0  0  0  0  0  0  0  0
   -1.0790   -1.1813   -0.9029 C   0  0  0  0  0  0  0  0  0  0  0  0
   -1.8068    1.4305    1.0369 H   0  0  0  0  0  0  0  0  0  0  0  0
   -1.8692    2.6325   -0.2636 H   0  0  0  0  0  0  0  0  0  0  0  0
   -0.6166    2.7546    1.0111 H   0  0  0  0  0  0  0  0  0  0  0  0
   -0.4520    1.3980   -1.5894 H   0  0  0  0  0  0  0  0  0  0  0  0
    1.4959   -0.2231   -1.5751 H   0  0  0  0  0  0  0  0  0  0  0  0
    1.9849   -0.8697    1.4126 H   0  0  0  0  0  0  0  0  0  0  0  0
    3.2277   -0.4246    0.2305 H   0  0  0  0  0  0  0  0  0  0  0  0
    2.2697   -1.8918   -0.0698 H   0  0  0  0  0  0  0  0  0  0  0  0
   -0.8915   -0.2053    1.8420 H   0  0  0  0  0  0  0  0  0  0  0  0
   -0.2866   -1.8115    1.2333 H   0  0  0  0  0  0  0  0  0  0  0  0
   -1.5491   -0.7313   -1.8213 H   0  0  0  0  0  0  0  0  0  0  0  0
   -0.7079   -2.2113   -1.0440 H   0  0  0  0  0  0  0  0  0  0  0  0
  1  2  1  0
  2  3  1  0
  3  4  1  0
  4  5  1  0
  4  6  1  0
  6  7  1  0
  7  8  1  0
  8  9  1  0
  6  2  1  0
  9  6  1  0
  1 10  1  0
  1 11  1  0
  1 12  1  0
  2 13  1  0
  4 14  1  0
  5 15  1  0
  5 16  1  0
  5 17  1  0
  7 18  1  0
  7 19  1  0
  9 20  1  0
  9 21  1  0
M  END
