
     RDKit          3D

 21 21  0  0  0  0  0  0  0  0999 V2000
    2.5135    0.6010   -0.1954 C   0  0  0  0  0  0  0  0  0  0  0  0
    1.6931   -0.4708    0.5257 C   0  0  0  0  0  0  0  0  0  0  0  0
    1.4561   -1.5427   -0.2882 O   0  0  0  0  0  0  0  0  0  0  0  0
    0.1078   -1.6485   -0.5234 C   0  0  0  0  0  0  0  0  0  0  0  0
   -0.5227   -0.5999    0.3410 C   0  0  0  0  0  0  0  0  0  0  0  0
   -1.2656    0.4508   -0.4741 C   0  0  0  0  0  0  0  0  0  0  0  0
   -1.8437    1.4227    0.5428 C   0  0  0  0  0  0  0  0  0  0  0  0
   -2.3378   -0.1010   -1.1704 O   0  0  0  0  0  0  0  0  0  0  0  0
    0.5089    0.0318    0.9877 O   0  0  0  0  0  0  0  0  0  0  0  0
    2.9419    1.3282    0.5098 H   0  0  0  0  0  0  0  0  0  0  0  0
    1.8948    1.1349   -0.9495 H   0  0  0  0  0  0  0  0  0  0  0  0
    3.3656    0.0966   -0.7024 H   0  0  0  0  0  0  0  0  0  0  0  0
    2.3092   -0.7638    1.4202 H   0  0  0  0  0  0  0  0  0  0  0  0
   -0.1156   -1.5411   -1.5999 H   0  0  0  0  0  0  0  0  0  0  0  0
   -0.1928   -2.6917   -0.2347 H   0  0  0  0  0  0  0  0  0  0  0  0
   -1.2102   -1.0164    1.1014 H   0  0  0  0  0  0  0  0  0  0  0  0
   -0.5703    0.9603   -1.1671 H   0  0  0  0  0  0  0  0  0  0  0  0
   -2.3174    0.8105    1.3271 H   0  0  0  0  0  0  0  0  0  0  0  0
   -2.5340    2.1280    0.0442 H   0  0  0  0  0  0  0  0  0  0  0  0
   -0.9582    1.9400    0.9982 H   0  0  0  0  0  0  0  0  0  0  0  0
   -2.9226   -0.5292   -0.4930 H   0  0  0  0  0  0  0  0  0  0  0  0
  1  2  1  0
  2  3  1  0
  3  4  1  0
  4  5  1  0
  5  6  1  0
  6  7  1  0
  6  8  1  0
  5  9  1  0
  9  2  1  0
  1 10  1  0
  1 11  1  0
  1 12  1  0
  2 13  1  0
  4 14  1  0
  4 15  1  0
  5 16  1  0
  6 17  1  0
  7 18  1  0
  7 19  1  0
  7 20  1  0
  8 21  1  0
M  END
