
     RDKit          3D

 17 17  0  0  0  0  0  0  0  0999 V2000
   -2.0168   -0.8586   -0.1466 C   0  0  0  0  0  0  0  0  0  0  0  0
   -1.0313    0.2324    0.1889 C   0  0  0  0  0  0  0  0  0  0  0  0
   -0.0735   -0.1819    1.1377 O   0  0  0  0  0  0  0  0  0  0  0  0
    0.6817   -0.6623    0.0949 C   0  0  0  0  0  0  0  0  0  0  0  0
    2.1664   -0.5192    0.2909 C   0  0  0  0  0  0  0  0  0  0  0  0
    2.5572   -0.0052    1.3264 O   0  0  0  0  0  0  0  0  0  0  0  0
    0.0850    0.4270   -0.7921 C   0  0  0  0  0  0  0  0  0  0  0  0
    0.7764    1.7153   -0.6086 C   0  0  0  0  0  0  0  0  0  0  0  0
    1.0053    2.5159   -1.4976 O   0  0  0  0  0  0  0  0  0  0  0  0
   -2.8003   -0.8281    0.6574 H   0  0  0  0  0  0  0  0  0  0  0  0
   -1.5875   -1.8634   -0.1184 H   0  0  0  0  0  0  0  0  0  0  0  0
   -2.5017   -0.7152   -1.1146 H   0  0  0  0  0  0  0  0  0  0  0  0
   -1.5444    1.1731    0.4304 H   0  0  0  0  0  0  0  0  0  0  0  0
    0.4321   -1.6462   -0.3086 H   0  0  0  0  0  0  0  0  0  0  0  0
    2.8406   -0.8715   -0.4819 H   0  0  0  0  0  0  0  0  0  0  0  0
   -0.0979    0.1126   -1.8266 H   0  0  0  0  0  0  0  0  0  0  0  0
    1.1090    1.9755    0.3927 H   0  0  0  0  0  0  0  0  0  0  0  0
  1  2  1  0
  2  3  1  0
  3  4  1  0
  4  5  1  0
  5  6  2  0
  4  7  1  0
  7  8  1  0
  8  9  2  0
  7  2  1  0
  1 10  1  0
  1 11  1  0
  1 12  1  0
  2 13  1  0
  4 14  1  0
  5 15  1  0
  7 16  1  0
  8 17  1  0
M  END
