
     RDKit          3D

 19 21  0  0  0  0  0  0  0  0999 V2000
    2.4990   -0.1045   -0.0346 C   0  0  0  0  0  0  0  0  0  0  0  0
    1.1845    0.4741   -0.5253 C   0  0  0  0  0  0  0  0  0  0  0  0
    0.4684   -0.4355   -1.3336 O   0  0  0  0  0  0  0  0  0  0  0  0
   -0.4884   -0.7638   -0.4186 C   0  0  0  0  0  0  0  0  0  0  0  0
   -1.9169   -0.3895   -0.5653 C   0  0  0  0  0  0  0  0  0  0  0  0
   -2.0441    0.9083    0.1331 C   0  0  0  0  0  0  0  0  0  0  0  0
   -0.9321    1.2622    0.7266 C   0  0  0  0  0  0  0  0  0  0  0  0
    0.1167    0.2654    0.5243 C   0  0  0  0  0  0  0  0  0  0  0  0
   -0.0514   -1.1421    0.9675 C   0  0  0  0  0  0  0  0  0  0  0  0
    3.3701    0.3530   -0.5435 H   0  0  0  0  0  0  0  0  0  0  0  0
    2.4492   -1.1868   -0.1537 H   0  0  0  0  0  0  0  0  0  0  0  0
    2.5854    0.1216    1.0396 H   0  0  0  0  0  0  0  0  0  0  0  0
    1.2186    1.4859   -0.9184 H   0  0  0  0  0  0  0  0  0  0  0  0
   -2.5483   -1.1722   -0.0564 H   0  0  0  0  0  0  0  0  0  0  0  0
   -2.2041   -0.3369   -1.6293 H   0  0  0  0  0  0  0  0  0  0  0  0
   -2.9457    1.5468    0.1819 H   0  0  0  0  0  0  0  0  0  0  0  0
   -0.7655    2.1740    1.3073 H   0  0  0  0  0  0  0  0  0  0  0  0
   -0.8454   -1.3002    1.7263 H   0  0  0  0  0  0  0  0  0  0  0  0
    0.8499   -1.7598    1.0620 H   0  0  0  0  0  0  0  0  0  0  0  0
  1  2  1  0
  2  3  1  0
  3  4  1  0
  4  5  1  0
  5  6  1  0
  6  7  2  0
  7  8  1  0
  8  9  1  0
  8  2  1  0
  8  4  1  0
  9  4  1  0
  1 10  1  0
  1 11  1  0
  1 12  1  0
  2 13  1  0
  5 14  1  0
  5 15  1  0
  6 16  1  0
  7 17  1  0
  9 18  1  0
  9 19  1  0
M  END
