
     RDKit          3D

 23 24  0  0  0  0  0  0  0  0999 V2000
   -0.7563   -2.0703    0.6706 C   0  0  0  0  0  0  0  0  0  0  0  0
   -0.9213   -1.1167   -0.4868 C   0  0  0  0  0  0  0  0  0  0  0  0
   -1.5996    0.0423   -0.1157 O   0  0  0  0  0  0  0  0  0  0  0  0
   -0.6674    1.0139    0.1166 C   0  0  0  0  0  0  0  0  0  0  0  0
   -1.2685    2.3926    0.0628 C   0  0  0  0  0  0  0  0  0  0  0  0
    0.3851    0.7803   -0.9108 C   0  0  0  0  0  0  0  0  0  0  0  0
    1.5158   -0.1848   -0.5724 C   0  0  0  0  0  0  0  0  0  0  0  0
    1.8947   -0.2135    0.8572 C   0  0  0  0  0  0  0  0  0  0  0  0
    0.3283   -0.7472   -1.1722 C   0  0  0  0  0  0  0  0  0  0  0  0
    0.2349   -2.5136    0.6307 H   0  0  0  0  0  0  0  0  0  0  0  0
   -0.9974   -1.5829    1.6570 H   0  0  0  0  0  0  0  0  0  0  0  0
   -1.4837   -2.9345    0.6259 H   0  0  0  0  0  0  0  0  0  0  0  0
   -1.6257   -1.6378   -1.2027 H   0  0  0  0  0  0  0  0  0  0  0  0
   -0.3015    0.8768    1.1730 H   0  0  0  0  0  0  0  0  0  0  0  0
   -0.5815    3.0602    0.6466 H   0  0  0  0  0  0  0  0  0  0  0  0
   -1.4548    2.7612   -0.9467 H   0  0  0  0  0  0  0  0  0  0  0  0
   -2.2191    2.3652    0.6336 H   0  0  0  0  0  0  0  0  0  0  0  0
    0.4724    1.4286   -1.7974 H   0  0  0  0  0  0  0  0  0  0  0  0
    2.4020   -0.0358   -1.2498 H   0  0  0  0  0  0  0  0  0  0  0  0
    2.3660    0.7840    1.1040 H   0  0  0  0  0  0  0  0  0  0  0  0
    1.1417   -0.5047    1.5745 H   0  0  0  0  0  0  0  0  0  0  0  0
    2.7531   -0.9397    0.9696 H   0  0  0  0  0  0  0  0  0  0  0  0
    0.3828   -1.0238   -2.2678 H   0  0  0  0  0  0  0  0  0  0  0  0
  1  2  1  0
  2  3  1  0
  3  4  1  0
  4  5  1  0
  4  6  1  0
  6  7  1  0
  7  8  1  0
  7  9  1  0
  9  2  1  0
  9  6  1  0
  1 10  1  0
  1 11  1  0
  1 12  1  0
  2 13  1  0
  4 14  1  0
  5 15  1  0
  5 16  1  0
  5 17  1  0
  6 18  1  0
  7 19  1  0
  8 20  1  0
  8 21  1  0
  8 22  1  0
  9 23  1  0
M  END
