
     RDKit          3D

 21 21  0  0  0  0  0  0  0  0999 V2000
    3.0600    0.3993   -0.1956 C   0  0  0  0  0  0  0  0  0  0  0  0
    1.8424   -0.2904    0.3152 C   0  0  0  0  0  0  0  0  0  0  0  0
    1.0692   -0.9512   -0.6674 O   0  0  0  0  0  0  0  0  0  0  0  0
   -0.0175   -0.6848    0.1655 C   0  0  0  0  0  0  0  0  0  0  0  0
   -1.3495   -0.5760   -0.5088 C   0  0  0  0  0  0  0  0  0  0  0  0
   -1.4402    0.4975   -1.5310 C   0  0  0  0  0  0  0  0  0  0  0  0
   -2.3685   -0.2776    0.5859 C   0  0  0  0  0  0  0  0  0  0  0  0
    0.6446    0.6036    0.5008 C   0  0  0  0  0  0  0  0  0  0  0  0
    0.3874    1.7449    0.7739 O   0  0  0  0  0  0  0  0  0  0  0  0
    2.9533    0.7385   -1.2434 H   0  0  0  0  0  0  0  0  0  0  0  0
    3.2300    1.3001    0.4528 H   0  0  0  0  0  0  0  0  0  0  0  0
    3.9076   -0.2884   -0.1404 H   0  0  0  0  0  0  0  0  0  0  0  0
    2.0413   -0.9651    1.1599 H   0  0  0  0  0  0  0  0  0  0  0  0
    0.0179   -1.3492    1.0514 H   0  0  0  0  0  0  0  0  0  0  0  0
   -1.6373   -1.5513   -0.9451 H   0  0  0  0  0  0  0  0  0  0  0  0
   -2.2214    0.1840   -2.2809 H   0  0  0  0  0  0  0  0  0  0  0  0
   -0.5193    0.6517   -2.1239 H   0  0  0  0  0  0  0  0  0  0  0  0
   -1.8003    1.4762   -1.1433 H   0  0  0  0  0  0  0  0  0  0  0  0
   -2.2370   -1.0286    1.4054 H   0  0  0  0  0  0  0  0  0  0  0  0
   -2.1686    0.7082    1.0509 H   0  0  0  0  0  0  0  0  0  0  0  0
   -3.3941   -0.3415    0.1682 H   0  0  0  0  0  0  0  0  0  0  0  0
  1  2  1  0
  2  3  1  0
  3  4  1  0
  4  5  1  0
  5  6  1  0
  5  7  1  0
  4  8  1  0
  8  9  2  0
  8  2  1  0
  1 10  1  0
  1 11  1  0
  1 12  1  0
  2 13  1  0
  4 14  1  0
  5 15  1  0
  6 16  1  0
  6 17  1  0
  6 18  1  0
  7 19  1  0
  7 20  1  0
  7 21  1  0
M  END
