
     RDKit          3D

 20 20  0  0  0  0  0  0  0  0999 V2000
   -2.1265    0.6990   -0.0393 C   0  0  0  0  0  0  0  0  0  0  0  0
   -0.9922   -0.2240    0.1654 C   0  0  0  0  0  0  0  0  0  0  0  0
   -0.7189   -1.0558   -0.9208 O   0  0  0  0  0  0  0  0  0  0  0  0
    0.3388   -1.8065   -0.3564 C   0  0  0  0  0  0  0  0  0  0  0  0
    1.3036   -0.6709   -0.0185 C   0  0  0  0  0  0  0  0  0  0  0  0
    2.1197   -0.9942    1.0421 O   0  0  0  0  0  0  0  0  0  0  0  0
    0.3327    0.4324    0.4032 C   0  0  0  0  0  0  0  0  0  0  0  0
    0.5470    1.6778   -0.3948 C   0  0  0  0  0  0  0  0  0  0  0  0
   -2.9730    0.1782   -0.5101 H   0  0  0  0  0  0  0  0  0  0  0  0
   -1.8914    1.6405   -0.5649 H   0  0  0  0  0  0  0  0  0  0  0  0
   -2.4976    1.0185    0.9794 H   0  0  0  0  0  0  0  0  0  0  0  0
   -1.2357   -0.9026    1.0164 H   0  0  0  0  0  0  0  0  0  0  0  0
   -0.0541   -2.2313    0.5922 H   0  0  0  0  0  0  0  0  0  0  0  0
    0.7565   -2.5322   -1.0456 H   0  0  0  0  0  0  0  0  0  0  0  0
    1.9027   -0.3884   -0.8929 H   0  0  0  0  0  0  0  0  0  0  0  0
    2.8472   -1.5887    0.7490 H   0  0  0  0  0  0  0  0  0  0  0  0
    0.4433    0.6582    1.4799 H   0  0  0  0  0  0  0  0  0  0  0  0
    0.2543    2.5695    0.2154 H   0  0  0  0  0  0  0  0  0  0  0  0
   -0.0068    1.7204   -1.3417 H   0  0  0  0  0  0  0  0  0  0  0  0
    1.6505    1.8001   -0.5581 H   0  0  0  0  0  0  0  0  0  0  0  0
  1  2  1  0
  2  3  1  0
  3  4  1  0
  4  5  1  0
  5  6  1  0
  5  7  1  0
  7  8  1  0
  7  2  1  0
  1  9  1  0
  1 10  1  0
  1 11  1  0
  2 12  1  0
  4 13  1  0
  4 14  1  0
  5 15  1  0
  6 16  1  0
  7 17  1  0
  8 18  1  0
  8 19  1  0
  8 20  1  0
M  END
