
     RDKit          3D

 17 17  0  0  0  0  0  0  0  0999 V2000
   -1.6273   -1.1701   -1.5352 C   0  0  0  0  0  0  0  0  0  0  0  0
   -0.9200   -0.3110   -0.5428 C   0  0  0  0  0  0  0  0  0  0  0  0
   -1.4607    0.0876    0.6518 O   0  0  0  0  0  0  0  0  0  0  0  0
   -0.6383   -0.9867    0.8000 C   0  0  0  0  0  0  0  0  0  0  0  0
    0.7878   -0.9434    1.1930 C   0  0  0  0  0  0  0  0  0  0  0  0
    1.1764    0.5000    1.2890 C   0  0  0  0  0  0  0  0  0  0  0  0
    1.4682    1.6577    1.3750 C   0  0  0  0  0  0  0  0  0  0  0  0
    1.7864    2.8694    1.4480 C   0  0  0  0  0  0  0  0  0  0  0  0
    1.6119    3.3981    0.0087 O   0  0  0  0  0  0  0  0  0  0  0  0
   -0.9367   -1.6426   -2.2761 H   0  0  0  0  0  0  0  0  0  0  0  0
   -2.4679   -0.6597   -2.0327 H   0  0  0  0  0  0  0  0  0  0  0  0
   -2.0491   -2.0541   -0.9744 H   0  0  0  0  0  0  0  0  0  0  0  0
   -0.0973    0.3357   -0.9540 H   0  0  0  0  0  0  0  0  0  0  0  0
   -1.0586   -2.0387    0.8763 H   0  0  0  0  0  0  0  0  0  0  0  0
    0.9240   -1.4559    2.1636 H   0  0  0  0  0  0  0  0  0  0  0  0
    1.4163   -1.4486    0.4221 H   0  0  0  0  0  0  0  0  0  0  0  0
    2.0849    3.8624    1.6901 H   0  0  0  0  0  0  0  0  0  0  0  0
  1  2  1  0
  2  3  1  0
  3  4  1  0
  4  5  1  0
  5  6  1  0
  6  7  3  0
  7  8  1  0
  8  9  2  0
  4  2  1  0
  1 10  1  0
  1 11  1  0
  1 12  1  0
  2 13  1  0
  4 14  1  0
  5 15  1  0
  5 16  1  0
  8 17  1  0
M  END
