
     RDKit          3D

 19 20  0  0  0  0  0  0  0  0999 V2000
    2.6237   -0.4878    0.2046 C   0  0  0  0  0  0  0  0  0  0  0  0
    1.2000   -0.8451   -0.0621 C   0  0  0  0  0  0  0  0  0  0  0  0
    0.3610   -0.6580    1.1354 O   0  0  0  0  0  0  0  0  0  0  0  0
    0.1566    0.2345    0.0155 C   0  0  0  0  0  0  0  0  0  0  0  0
    0.6909    1.5874    0.0404 C   0  0  0  0  0  0  0  0  0  0  0  0
    0.8018    2.2222    1.1429 O   0  0  0  0  0  0  0  0  0  0  0  0
   -1.0895   -0.1342   -0.7806 C   0  0  0  0  0  0  0  0  0  0  0  0
   -2.1703   -0.7396    0.1241 C   0  0  0  0  0  0  0  0  0  0  0  0
   -2.3853    0.5697   -0.5569 C   0  0  0  0  0  0  0  0  0  0  0  0
    2.7972    0.2514    0.9767 H   0  0  0  0  0  0  0  0  0  0  0  0
    3.1390   -1.4368    0.4299 H   0  0  0  0  0  0  0  0  0  0  0  0
    3.1323   -0.1238   -0.7365 H   0  0  0  0  0  0  0  0  0  0  0  0
    0.9854   -1.6979   -0.6827 H   0  0  0  0  0  0  0  0  0  0  0  0
    1.0087    2.0967   -0.8634 H   0  0  0  0  0  0  0  0  0  0  0  0
   -0.9540   -0.6527   -1.7425 H   0  0  0  0  0  0  0  0  0  0  0  0
   -2.7495   -1.6013   -0.1673 H   0  0  0  0  0  0  0  0  0  0  0  0
   -2.0081   -0.6709    1.2387 H   0  0  0  0  0  0  0  0  0  0  0  0
   -2.3758    1.4915    0.0983 H   0  0  0  0  0  0  0  0  0  0  0  0
   -3.1643    0.5948   -1.3264 H   0  0  0  0  0  0  0  0  0  0  0  0
  1  2  1  0
  2  3  1  0
  3  4  1  0
  4  5  1  0
  5  6  2  0
  4  7  1  0
  7  8  1  0
  8  9  1  0
  4  2  1  0
  9  7  1  0
  1 10  1  0
  1 11  1  0
  1 12  1  0
  2 13  1  0
  5 14  1  0
  7 15  1  0
  8 16  1  0
  8 17  1  0
  9 18  1  0
  9 19  1  0
M  END
