
     RDKit          3D

 21 22  0  0  0  0  0  0  0  0999 V2000
    2.9235   -0.4645   -0.2490 C   0  0  0  0  0  0  0  0  0  0  0  0
    1.8181    0.5804   -0.0653 C   0  0  0  0  0  0  0  0  0  0  0  0
    1.0244    0.4148    1.1125 O   0  0  0  0  0  0  0  0  0  0  0  0
    0.4811    0.2195   -0.1543 C   0  0  0  0  0  0  0  0  0  0  0  0
   -0.0329   -1.1438   -0.3863 C   0  0  0  0  0  0  0  0  0  0  0  0
   -1.3041   -1.3902   -0.1530 C   0  0  0  0  0  0  0  0  0  0  0  0
   -2.2875   -0.3910    0.3349 C   0  0  0  0  0  0  0  0  0  0  0  0
   -1.7564    1.0016    0.3861 C   0  0  0  0  0  0  0  0  0  0  0  0
   -0.6354    1.1806   -0.5855 C   0  0  0  0  0  0  0  0  0  0  0  0
    2.5459   -1.4894   -0.0831 H   0  0  0  0  0  0  0  0  0  0  0  0
    3.7411   -0.3071    0.4783 H   0  0  0  0  0  0  0  0  0  0  0  0
    3.2620   -0.3593   -1.3013 H   0  0  0  0  0  0  0  0  0  0  0  0
    2.1853    1.6017   -0.1906 H   0  0  0  0  0  0  0  0  0  0  0  0
    0.6580   -1.8948   -0.7417 H   0  0  0  0  0  0  0  0  0  0  0  0
   -1.6914   -2.3977   -0.3228 H   0  0  0  0  0  0  0  0  0  0  0  0
   -3.2415   -0.4284   -0.2673 H   0  0  0  0  0  0  0  0  0  0  0  0
   -2.6073   -0.7468    1.3582 H   0  0  0  0  0  0  0  0  0  0  0  0
   -1.3519    1.2006    1.4149 H   0  0  0  0  0  0  0  0  0  0  0  0
   -2.5222    1.7750    0.1634 H   0  0  0  0  0  0  0  0  0  0  0  0
   -0.2767    2.2120   -0.6522 H   0  0  0  0  0  0  0  0  0  0  0  0
   -0.9321    0.8266   -1.6069 H   0  0  0  0  0  0  0  0  0  0  0  0
  1  2  1  0
  2  3  1  0
  3  4  1  0
  4  5  1  0
  5  6  2  0
  6  7  1  0
  7  8  1  0
  8  9  1  0
  4  2  1  0
  9  4  1  0
  1 10  1  0
  1 11  1  0
  1 12  1  0
  2 13  1  0
  5 14  1  0
  6 15  1  0
  7 16  1  0
  7 17  1  0
  8 18  1  0
  8 19  1  0
  9 20  1  0
  9 21  1  0
M  END
