
     RDKit          3D

 19 20  0  0  0  0  0  0  0  0999 V2000
   -2.0930   -0.4118    0.6704 C   0  0  0  0  0  0  0  0  0  0  0  0
   -0.6387   -0.7050    0.9695 C   0  0  0  0  0  0  0  0  0  0  0  0
   -0.1865   -1.7085    0.0824 O   0  0  0  0  0  0  0  0  0  0  0  0
    0.2232   -0.6639   -0.7474 C   0  0  0  0  0  0  0  0  0  0  0  0
    1.5137   -0.0389   -0.3435 C   0  0  0  0  0  0  0  0  0  0  0  0
    2.4667   -0.8411    0.4493 C   0  0  0  0  0  0  0  0  0  0  0  0
    3.6566   -0.6749    0.2755 O   0  0  0  0  0  0  0  0  0  0  0  0
    0.2460    0.3133    0.3393 C   0  0  0  0  0  0  0  0  0  0  0  0
   -0.2123    1.7250    0.2027 C   0  0  0  0  0  0  0  0  0  0  0  0
   -2.4663   -0.9580   -0.2195 H   0  0  0  0  0  0  0  0  0  0  0  0
   -2.2655    0.6699    0.4510 H   0  0  0  0  0  0  0  0  0  0  0  0
   -2.7670   -0.6696    1.5030 H   0  0  0  0  0  0  0  0  0  0  0  0
   -0.4358   -0.9528    2.0331 H   0  0  0  0  0  0  0  0  0  0  0  0
   -0.2344   -0.5072   -1.7224 H   0  0  0  0  0  0  0  0  0  0  0  0
    1.9149    0.6922   -1.0747 H   0  0  0  0  0  0  0  0  0  0  0  0
    2.1508   -1.5717    1.1795 H   0  0  0  0  0  0  0  0  0  0  0  0
    0.6983    2.3848    0.3001 H   0  0  0  0  0  0  0  0  0  0  0  0
   -0.8518    2.0036    1.0739 H   0  0  0  0  0  0  0  0  0  0  0  0
   -0.7189    1.9146   -0.7643 H   0  0  0  0  0  0  0  0  0  0  0  0
  1  2  1  0
  2  3  1  0
  3  4  1  0
  4  5  1  0
  5  6  1  0
  6  7  2  0
  5  8  1  0
  8  9  1  0
  8  2  1  0
  8  4  1  0
  1 10  1  0
  1 11  1  0
  1 12  1  0
  2 13  1  0
  4 14  1  0
  5 15  1  0
  6 16  1  0
  9 17  1  0
  9 18  1  0
  9 19  1  0
M  END
