
     RDKit          3D

 19 21  0  0  0  0  0  0  0  0999 V2000
    2.4802   -0.4975    0.7915 C   0  0  0  0  0  0  0  0  0  0  0  0
    1.5700    0.3522   -0.0999 C   0  0  0  0  0  0  0  0  0  0  0  0
    0.8301    1.3749    0.7160 O   0  0  0  0  0  0  0  0  0  0  0  0
    0.2360    0.3536    0.0330 C   0  0  0  0  0  0  0  0  0  0  0  0
   -0.7350   -0.5929    0.6481 C   0  0  0  0  0  0  0  0  0  0  0  0
   -1.8620    0.3171    1.0171 C   0  0  0  0  0  0  0  0  0  0  0  0
   -1.9371    1.1205   -0.0624 C   0  0  0  0  0  0  0  0  0  0  0  0
   -0.8865    0.5979   -0.9452 C   0  0  0  0  0  0  0  0  0  0  0  0
   -1.1334   -0.9158   -0.8033 C   0  0  0  0  0  0  0  0  0  0  0  0
    1.9153   -1.3580    1.2098 H   0  0  0  0  0  0  0  0  0  0  0  0
    3.3062   -0.8817    0.1624 H   0  0  0  0  0  0  0  0  0  0  0  0
    2.8753    0.1257    1.6386 H   0  0  0  0  0  0  0  0  0  0  0  0
    2.1216    0.8487   -0.9402 H   0  0  0  0  0  0  0  0  0  0  0  0
   -0.4518   -1.3780    1.2777 H   0  0  0  0  0  0  0  0  0  0  0  0
   -2.4728    0.3448    1.9090 H   0  0  0  0  0  0  0  0  0  0  0  0
   -2.5925    1.9537   -0.2681 H   0  0  0  0  0  0  0  0  0  0  0  0
   -0.6999    0.9848   -1.8997 H   0  0  0  0  0  0  0  0  0  0  0  0
   -2.1805   -1.2066   -0.9000 H   0  0  0  0  0  0  0  0  0  0  0  0
   -0.3829   -1.5434   -1.2910 H   0  0  0  0  0  0  0  0  0  0  0  0
  1  2  1  0
  2  3  1  0
  3  4  1  0
  4  5  1  0
  5  6  1  0
  6  7  2  0
  7  8  1  0
  8  9  1  0
  4  2  1  0
  9  5  1  0
  8  4  1  0
  1 10  1  0
  1 11  1  0
  1 12  1  0
  2 13  1  0
  5 14  1  0
  6 15  1  0
  7 16  1  0
  8 17  1  0
  9 18  1  0
  9 19  1  0
M  END
