
     RDKit          3D

 18 18  0  0  0  0  0  0  0  0999 V2000
    2.1571    0.2105   -0.1519 C   0  0  0  0  0  0  0  0  0  0  0  0
    0.6918    0.3145    0.0808 C   0  0  0  0  0  0  0  0  0  0  0  0
    0.0901    1.3656   -0.6289 O   0  0  0  0  0  0  0  0  0  0  0  0
   -1.1359    1.5933    0.0316 C   0  0  0  0  0  0  0  0  0  0  0  0
   -1.4959    0.5272    0.8368 O   0  0  0  0  0  0  0  0  0  0  0  0
   -1.5231   -0.6622    0.0906 C   0  0  0  0  0  0  0  0  0  0  0  0
   -0.0712   -0.9376   -0.3234 C   0  0  0  0  0  0  0  0  0  0  0  0
    0.4257   -2.0802    0.2547 O   0  0  0  0  0  0  0  0  0  0  0  0
    2.4335    0.6479   -1.1296 H   0  0  0  0  0  0  0  0  0  0  0  0
    2.6656    0.7973    0.6683 H   0  0  0  0  0  0  0  0  0  0  0  0
    2.4962   -0.8344   -0.1435 H   0  0  0  0  0  0  0  0  0  0  0  0
    0.4846    0.4680    1.1565 H   0  0  0  0  0  0  0  0  0  0  0  0
   -1.9326    1.8064   -0.6923 H   0  0  0  0  0  0  0  0  0  0  0  0
   -0.9455    2.4758    0.6896 H   0  0  0  0  0  0  0  0  0  0  0  0
   -2.1427   -0.4259   -0.8113 H   0  0  0  0  0  0  0  0  0  0  0  0
   -1.9024   -1.4914    0.6842 H   0  0  0  0  0  0  0  0  0  0  0  0
   -0.0280   -0.9885   -1.4421 H   0  0  0  0  0  0  0  0  0  0  0  0
   -0.2672   -2.7864    0.1597 H   0  0  0  0  0  0  0  0  0  0  0  0
  1  2  1  0
  2  3  1  0
  3  4  1  0
  4  5  1  0
  5  6  1  0
  6  7  1  0
  7  8  1  0
  7  2  1  0
  1  9  1  0
  1 10  1  0
  1 11  1  0
  2 12  1  0
  4 13  1  0
  4 14  1  0
  6 15  1  0
  6 16  1  0
  7 17  1  0
  8 18  1  0
M  END
