
     RDKit          3D

 17 18  0  0  0  0  0  0  0  0999 V2000
    2.6585   -0.0005    0.6648 C   0  0  0  0  0  0  0  0  0  0  0  0
    1.4821   -0.3500   -0.1833 C   0  0  0  0  0  0  0  0  0  0  0  0
    0.3451   -0.7560    0.5568 O   0  0  0  0  0  0  0  0  0  0  0  0
   -0.4060   -0.2278   -0.4932 C   0  0  0  0  0  0  0  0  0  0  0  0
   -1.7498    0.3293   -0.0722 C   0  0  0  0  0  0  0  0  0  0  0  0
   -2.9582   -0.3079   -0.5083 C   0  0  0  0  0  0  0  0  0  0  0  0
   -2.4693    0.8583   -1.2142 O   0  0  0  0  0  0  0  0  0  0  0  0
    0.6650    0.7820   -0.6759 C   0  0  0  0  0  0  0  0  0  0  0  0
    0.7097    1.9234   -1.0488 O   0  0  0  0  0  0  0  0  0  0  0  0
    3.2765    0.8239    0.2465 H   0  0  0  0  0  0  0  0  0  0  0  0
    3.3260   -0.8871    0.7047 H   0  0  0  0  0  0  0  0  0  0  0  0
    2.3584    0.2775    1.6730 H   0  0  0  0  0  0  0  0  0  0  0  0
    1.6832   -1.1356   -0.9373 H   0  0  0  0  0  0  0  0  0  0  0  0
   -0.4659   -0.9863   -1.3130 H   0  0  0  0  0  0  0  0  0  0  0  0
   -1.6860    1.0643    0.7467 H   0  0  0  0  0  0  0  0  0  0  0  0
   -3.8894   -0.1430    0.0699 H   0  0  0  0  0  0  0  0  0  0  0  0
   -2.8800   -1.2645   -1.0726 H   0  0  0  0  0  0  0  0  0  0  0  0
  1  2  1  0
  2  3  1  0
  3  4  1  0
  4  5  1  0
  5  6  1  0
  6  7  1  0
  4  8  1  0
  8  9  2  0
  8  2  1  0
  7  5  1  0
  1 10  1  0
  1 11  1  0
  1 12  1  0
  2 13  1  0
  4 14  1  0
  5 15  1  0
  6 16  1  0
  6 17  1  0
M  END
