
     RDKit          3D

 17 18  0  0  0  0  0  0  0  0999 V2000
   -2.1830   -0.4156    0.3994 C   0  0  0  0  0  0  0  0  0  0  0  0
   -1.1590   -0.0059   -0.6157 C   0  0  0  0  0  0  0  0  0  0  0  0
   -1.1098    1.3873   -0.8375 O   0  0  0  0  0  0  0  0  0  0  0  0
    0.2360    1.5188   -0.4269 C   0  0  0  0  0  0  0  0  0  0  0  0
    0.2164    0.0975   -0.0481 C   0  0  0  0  0  0  0  0  0  0  0  0
    0.4178   -0.3595    1.2213 O   0  0  0  0  0  0  0  0  0  0  0  0
    1.1608   -0.8674    0.0845 C   0  0  0  0  0  0  0  0  0  0  0  0
    2.6108   -0.5723    0.2612 C   0  0  0  0  0  0  0  0  0  0  0  0
    2.9439    0.5708    0.5282 O   0  0  0  0  0  0  0  0  0  0  0  0
   -1.7683   -0.3060    1.4133 H   0  0  0  0  0  0  0  0  0  0  0  0
   -2.4527   -1.4725    0.2681 H   0  0  0  0  0  0  0  0  0  0  0  0
   -3.1012    0.2103    0.3509 H   0  0  0  0  0  0  0  0  0  0  0  0
   -1.2587   -0.5321   -1.5827 H   0  0  0  0  0  0  0  0  0  0  0  0
    0.3108    2.2879    0.3403 H   0  0  0  0  0  0  0  0  0  0  0  0
    0.8393    1.7243   -1.3590 H   0  0  0  0  0  0  0  0  0  0  0  0
    0.9325   -1.9473   -0.1609 H   0  0  0  0  0  0  0  0  0  0  0  0
    3.3644   -1.3182    0.1637 H   0  0  0  0  0  0  0  0  0  0  0  0
  1  2  1  0
  2  3  1  0
  3  4  1  0
  4  5  1  0
  5  6  1  0
  6  7  1  0
  7  8  1  0
  8  9  2  0
  5  2  1  0
  7  5  1  0
  1 10  1  0
  1 11  1  0
  1 12  1  0
  2 13  1  0
  4 14  1  0
  4 15  1  0
  7 16  1  0
  8 17  1  0
M  END
