
     RDKit          3D

 21 22  0  0  0  0  0  0  0  0999 V2000
   -0.6358    1.9389    0.5310 C   0  0  0  0  0  0  0  0  0  0  0  0
   -0.1306    0.9188   -0.4933 C   0  0  0  0  0  0  0  0  0  0  0  0
    1.1473    1.2168   -0.7915 O   0  0  0  0  0  0  0  0  0  0  0  0
    2.1015    0.2793   -0.5619 C   0  0  0  0  0  0  0  0  0  0  0  0
    1.7539   -1.0134   -0.8739 O   0  0  0  0  0  0  0  0  0  0  0  0
    0.6482   -1.4531   -0.1998 C   0  0  0  0  0  0  0  0  0  0  0  0
    0.2641   -0.9690    1.1404 C   0  0  0  0  0  0  0  0  0  0  0  0
   -0.4270   -0.4794   -0.0748 C   0  0  0  0  0  0  0  0  0  0  0  0
   -1.8299   -1.0064   -0.4119 C   0  0  0  0  0  0  0  0  0  0  0  0
   -0.6464    1.4443    1.5129 H   0  0  0  0  0  0  0  0  0  0  0  0
   -1.6093    2.3525    0.2710 H   0  0  0  0  0  0  0  0  0  0  0  0
    0.0731    2.8077    0.5927 H   0  0  0  0  0  0  0  0  0  0  0  0
   -0.7566    1.1220   -1.4132 H   0  0  0  0  0  0  0  0  0  0  0  0
    2.5439    0.3150    0.4743 H   0  0  0  0  0  0  0  0  0  0  0  0
    2.9785    0.5354   -1.2300 H   0  0  0  0  0  0  0  0  0  0  0  0
    0.3869   -2.5283   -0.4295 H   0  0  0  0  0  0  0  0  0  0  0  0
    0.9225   -0.2609    1.7138 H   0  0  0  0  0  0  0  0  0  0  0  0
   -0.3109   -1.6624    1.7944 H   0  0  0  0  0  0  0  0  0  0  0  0
   -2.3853   -1.2292    0.5114 H   0  0  0  0  0  0  0  0  0  0  0  0
   -2.3423   -0.3337   -1.1092 H   0  0  0  0  0  0  0  0  0  0  0  0
   -1.7457   -1.9949   -0.9528 H   0  0  0  0  0  0  0  0  0  0  0  0
  1  2  1  0
  2  3  1  0
  3  4  1  0
  4  5  1  0
  5  6  1  0
  6  7  1  0
  7  8  1  0
  8  9  1  0
  8  2  1  0
  8  6  1  0
  1 10  1  0
  1 11  1  0
  1 12  1  0
  2 13  1  0
  4 14  1  0
  4 15  1  0
  6 16  1  0
  7 17  1  0
  7 18  1  0
  9 19  1  0
  9 20  1  0
  9 21  1  0
M  END
