
     RDKit          3D

 20 21  0  0  0  0  0  0  0  0999 V2000
    1.5419   -1.4898    0.1460 C   0  0  0  0  0  0  0  0  0  0  0  0
    0.9898   -0.1141    0.1606 C   0  0  0  0  0  0  0  0  0  0  0  0
    1.4075    0.6605   -0.9464 O   0  0  0  0  0  0  0  0  0  0  0  0
    0.7372    1.8664   -0.6736 C   0  0  0  0  0  0  0  0  0  0  0  0
   -0.6947    1.4315   -0.3627 C   0  0  0  0  0  0  0  0  0  0  0  0
   -0.4865   -0.0080    0.0715 C   0  0  0  0  0  0  0  0  0  0  0  0
   -1.3807   -1.0240   -0.4385 C   0  0  0  0  0  0  0  0  0  0  0  0
   -1.4196   -0.5834    1.0423 C   0  0  0  0  0  0  0  0  0  0  0  0
    2.0034   -1.7038   -0.8525 H   0  0  0  0  0  0  0  0  0  0  0  0
    2.4006   -1.5325    0.8676 H   0  0  0  0  0  0  0  0  0  0  0  0
    0.8055   -2.2832    0.3288 H   0  0  0  0  0  0  0  0  0  0  0  0
    1.3369    0.4603    1.0638 H   0  0  0  0  0  0  0  0  0  0  0  0
    1.2297    2.2946    0.2305 H   0  0  0  0  0  0  0  0  0  0  0  0
    0.7514    2.5567   -1.5271 H   0  0  0  0  0  0  0  0  0  0  0  0
   -1.3633    1.5316   -1.2161 H   0  0  0  0  0  0  0  0  0  0  0  0
   -1.0038    2.0290    0.5267 H   0  0  0  0  0  0  0  0  0  0  0  0
   -1.1424   -2.0925   -0.5609 H   0  0  0  0  0  0  0  0  0  0  0  0
   -2.3100   -0.7471   -1.0095 H   0  0  0  0  0  0  0  0  0  0  0  0
   -1.1316   -1.3224    1.8033 H   0  0  0  0  0  0  0  0  0  0  0  0
   -2.2713    0.0701    1.3461 H   0  0  0  0  0  0  0  0  0  0  0  0
  1  2  1  0
  2  3  1  0
  3  4  1  0
  4  5  1  0
  5  6  1  0
  6  7  1  0
  7  8  1  0
  6  2  1  0
  8  6  1  0
  1  9  1  0
  1 10  1  0
  1 11  1  0
  2 12  1  0
  4 13  1  0
  4 14  1  0
  5 15  1  0
  5 16  1  0
  7 17  1  0
  7 18  1  0
  8 19  1  0
  8 20  1  0
M  END
