
     RDKit          3D

 21 22  0  0  0  0  0  0  0  0999 V2000
    2.2854   -0.4717   -0.5541 C   0  0  0  0  0  0  0  0  0  0  0  0
    0.8654   -0.6470   -0.1325 C   0  0  0  0  0  0  0  0  0  0  0  0
    0.0418   -1.1468   -1.1423 O   0  0  0  0  0  0  0  0  0  0  0  0
   -1.1774   -0.5218   -0.9413 C   0  0  0  0  0  0  0  0  0  0  0  0
   -1.6225   -0.8004    0.4802 C   0  0  0  0  0  0  0  0  0  0  0  0
   -0.8474    0.1891    1.3675 C   0  0  0  0  0  0  0  0  0  0  0  0
    0.2291    0.6097    0.3860 C   0  0  0  0  0  0  0  0  0  0  0  0
    1.0286    1.6035    0.7608 O   0  0  0  0  0  0  0  0  0  0  0  0
   -0.7027    0.9333   -0.7991 C   0  0  0  0  0  0  0  0  0  0  0  0
    2.8713   -0.1525    0.3104 H   0  0  0  0  0  0  0  0  0  0  0  0
    2.6479   -1.4343   -0.9550 H   0  0  0  0  0  0  0  0  0  0  0  0
    2.3359    0.3428   -1.3075 H   0  0  0  0  0  0  0  0  0  0  0  0
    0.8337   -1.4175    0.6859 H   0  0  0  0  0  0  0  0  0  0  0  0
   -1.9185   -0.6640   -1.6949 H   0  0  0  0  0  0  0  0  0  0  0  0
   -2.6963   -0.7344    0.6294 H   0  0  0  0  0  0  0  0  0  0  0  0
   -1.2537   -1.8321    0.7156 H   0  0  0  0  0  0  0  0  0  0  0  0
   -0.4612   -0.2865    2.2633 H   0  0  0  0  0  0  0  0  0  0  0  0
   -1.4885    1.0837    1.5831 H   0  0  0  0  0  0  0  0  0  0  0  0
    0.6651    2.4803    0.4159 H   0  0  0  0  0  0  0  0  0  0  0  0
   -1.4776    1.5855   -0.4037 H   0  0  0  0  0  0  0  0  0  0  0  0
   -0.1586    1.2811   -1.6675 H   0  0  0  0  0  0  0  0  0  0  0  0
  1  2  1  0
  2  3  1  0
  3  4  1  0
  4  5  1  0
  5  6  1  0
  6  7  1  0
  7  8  1  0
  7  9  1  0
  7  2  1  0
  9  4  1  0
  1 10  1  0
  1 11  1  0
  1 12  1  0
  2 13  1  0
  4 14  1  0
  5 15  1  0
  5 16  1  0
  6 17  1  0
  6 18  1  0
  8 19  1  0
  9 20  1  0
  9 21  1  0
M  END
