
     RDKit          3D

 19 20  0  0  0  0  0  0  0  0999 V2000
   -2.5708    0.0442   -0.2346 C   0  0  0  0  0  0  0  0  0  0  0  0
   -1.3905   -0.3765    0.6477 C   0  0  0  0  0  0  0  0  0  0  0  0
   -0.8098   -1.5367    0.2261 O   0  0  0  0  0  0  0  0  0  0  0  0
    0.3124   -1.2683   -0.5047 C   0  0  0  0  0  0  0  0  0  0  0  0
    0.6658    0.1916   -0.3060 C   0  0  0  0  0  0  0  0  0  0  0  0
    2.0861    0.6330   -0.4558 C   0  0  0  0  0  0  0  0  0  0  0  0
    2.9988   -0.2493    0.0786 O   0  0  0  0  0  0  0  0  0  0  0  0
   -0.2493    1.1270   -0.8693 O   0  0  0  0  0  0  0  0  0  0  0  0
   -0.3292    0.7249    0.5264 C   0  0  0  0  0  0  0  0  0  0  0  0
   -2.1299    0.1975   -1.2593 H   0  0  0  0  0  0  0  0  0  0  0  0
   -3.3604   -0.7103   -0.2302 H   0  0  0  0  0  0  0  0  0  0  0  0
   -2.8758    1.0431    0.1115 H   0  0  0  0  0  0  0  0  0  0  0  0
   -1.7879   -0.4426    1.6787 H   0  0  0  0  0  0  0  0  0  0  0  0
    1.1564   -1.8521   -0.0635 H   0  0  0  0  0  0  0  0  0  0  0  0
    0.1501   -1.5081   -1.5760 H   0  0  0  0  0  0  0  0  0  0  0  0
    2.1886    1.6222    0.0387 H   0  0  0  0  0  0  0  0  0  0  0  0
    2.3473    0.7860   -1.5440 H   0  0  0  0  0  0  0  0  0  0  0  0
    3.9039    0.0455   -0.2430 H   0  0  0  0  0  0  0  0  0  0  0  0
   -0.3059    1.5288    1.2576 H   0  0  0  0  0  0  0  0  0  0  0  0
  1  2  1  0
  2  3  1  0
  3  4  1  0
  4  5  1  0
  5  6  1  0
  6  7  1  0
  5  8  1  0
  8  9  1  0
  9  2  1  0
  9  5  1  0
  1 10  1  0
  1 11  1  0
  1 12  1  0
  2 13  1  0
  4 14  1  0
  4 15  1  0
  6 16  1  0
  6 17  1  0
  7 18  1  0
  9 19  1  0
M  END
