
     RDKit          3D

 23 24  0  0  0  0  0  0  0  0999 V2000
   -2.1741   -0.6954   -0.2185 C   0  0  0  0  0  0  0  0  0  0  0  0
   -0.7918   -0.7487    0.3625 C   0  0  0  0  0  0  0  0  0  0  0  0
   -0.1405   -1.8397   -0.1250 O   0  0  0  0  0  0  0  0  0  0  0  0
    0.9988   -1.4514   -0.7794 C   0  0  0  0  0  0  0  0  0  0  0  0
    2.1326   -1.0436    0.1700 C   0  0  0  0  0  0  0  0  0  0  0  0
    1.2913   -0.0341   -0.4831 C   0  0  0  0  0  0  0  0  0  0  0  0
    0.0227    0.4730    0.1335 C   0  0  0  0  0  0  0  0  0  0  0  0
    0.3369    1.2100    1.4311 C   0  0  0  0  0  0  0  0  0  0  0  0
   -0.5948    1.4685   -0.8037 C   0  0  0  0  0  0  0  0  0  0  0  0
   -2.5385    0.3215   -0.3680 H   0  0  0  0  0  0  0  0  0  0  0  0
   -2.1670   -1.2151   -1.2179 H   0  0  0  0  0  0  0  0  0  0  0  0
   -2.8541   -1.3287    0.4114 H   0  0  0  0  0  0  0  0  0  0  0  0
   -0.8896   -0.8799    1.4790 H   0  0  0  0  0  0  0  0  0  0  0  0
    1.2484   -1.8175   -1.7779 H   0  0  0  0  0  0  0  0  0  0  0  0
    3.1169   -1.2433   -0.2410 H   0  0  0  0  0  0  0  0  0  0  0  0
    2.0253   -1.2695    1.2425 H   0  0  0  0  0  0  0  0  0  0  0  0
    1.7756    0.6033   -1.2365 H   0  0  0  0  0  0  0  0  0  0  0  0
    0.8064    2.1734    1.1643 H   0  0  0  0  0  0  0  0  0  0  0  0
    1.0307    0.5954    2.0379 H   0  0  0  0  0  0  0  0  0  0  0  0
   -0.5619    1.4259    2.0190 H   0  0  0  0  0  0  0  0  0  0  0  0
   -0.9452    1.0072   -1.7530 H   0  0  0  0  0  0  0  0  0  0  0  0
   -1.3581    2.1154   -0.3296 H   0  0  0  0  0  0  0  0  0  0  0  0
    0.2299    2.1734   -1.1177 H   0  0  0  0  0  0  0  0  0  0  0  0
  1  2  1  0
  2  3  1  0
  3  4  1  0
  4  5  1  0
  5  6  1  0
  6  7  1  0
  7  8  1  0
  7  9  1  0
  7  2  1  0
  6  4  1  0
  1 10  1  0
  1 11  1  0
  1 12  1  0
  2 13  1  0
  4 14  1  0
  5 15  1  0
  5 16  1  0
  6 17  1  0
  8 18  1  0
  8 19  1  0
  8 20  1  0
  9 21  1  0
  9 22  1  0
  9 23  1  0
M  END
