
     RDKit          3D

 19 19  0  0  0  0  0  0  0  0999 V2000
   -2.2559    0.9951    0.0227 C   0  0  0  0  0  0  0  0  0  0  0  0
   -1.5988   -0.2723   -0.4288 C   0  0  0  0  0  0  0  0  0  0  0  0
   -1.3978   -1.1794    0.7250 O   0  0  0  0  0  0  0  0  0  0  0  0
   -0.2865   -0.6923   -0.0758 C   0  0  0  0  0  0  0  0  0  0  0  0
    0.3423   -1.8356   -0.8433 C   0  0  0  0  0  0  0  0  0  0  0  0
    0.7118    0.1430    0.6901 C   0  0  0  0  0  0  0  0  0  0  0  0
    1.7343    0.5506   -0.1984 O   0  0  0  0  0  0  0  0  0  0  0  0
    2.8032    1.3389    0.2253 C   0  0  0  0  0  0  0  0  0  0  0  0
    2.8314    1.6789    1.4281 O   0  0  0  0  0  0  0  0  0  0  0  0
   -1.5495    1.8194    0.2331 H   0  0  0  0  0  0  0  0  0  0  0  0
   -2.8530    0.8532    0.9696 H   0  0  0  0  0  0  0  0  0  0  0  0
   -2.9954    1.3950   -0.7117 H   0  0  0  0  0  0  0  0  0  0  0  0
   -2.1138   -0.7642   -1.2803 H   0  0  0  0  0  0  0  0  0  0  0  0
    1.3155   -1.4717   -1.2212 H   0  0  0  0  0  0  0  0  0  0  0  0
    0.5909   -2.6214   -0.0735 H   0  0  0  0  0  0  0  0  0  0  0  0
   -0.3215   -2.2256   -1.6325 H   0  0  0  0  0  0  0  0  0  0  0  0
    1.2011   -0.4349    1.5071 H   0  0  0  0  0  0  0  0  0  0  0  0
    0.2587    1.0712    1.1076 H   0  0  0  0  0  0  0  0  0  0  0  0
    3.5830    1.6522   -0.4429 H   0  0  0  0  0  0  0  0  0  0  0  0
  1  2  1  0
  2  3  1  0
  3  4  1  0
  4  5  1  0
  4  6  1  0
  6  7  1  0
  7  8  1  0
  8  9  2  0
  4  2  1  0
  1 10  1  0
  1 11  1  0
  1 12  1  0
  2 13  1  0
  5 14  1  0
  5 15  1  0
  5 16  1  0
  6 17  1  0
  6 18  1  0
  8 19  1  0
M  END
