
     RDKit          3D

 19 21  0  0  0  0  0  0  0  0999 V2000
    2.3934   -0.4517   -0.4886 C   0  0  0  0  0  0  0  0  0  0  0  0
    0.9919   -0.0407   -0.8761 C   0  0  0  0  0  0  0  0  0  0  0  0
    0.1487   -1.1018   -1.1993 O   0  0  0  0  0  0  0  0  0  0  0  0
   -0.7233   -0.9874   -0.1419 C   0  0  0  0  0  0  0  0  0  0  0  0
   -2.0385   -0.3685   -0.2800 C   0  0  0  0  0  0  0  0  0  0  0  0
   -2.0699    0.9239   -0.0255 C   0  0  0  0  0  0  0  0  0  0  0  0
   -0.7190    1.3716    0.3348 C   0  0  0  0  0  0  0  0  0  0  0  0
    0.1530    0.1739    0.3639 C   0  0  0  0  0  0  0  0  0  0  0  0
   -0.1574   -0.9704    1.2461 C   0  0  0  0  0  0  0  0  0  0  0  0
    3.1490   -0.1224   -1.2340 H   0  0  0  0  0  0  0  0  0  0  0  0
    2.4580   -1.5331   -0.2576 H   0  0  0  0  0  0  0  0  0  0  0  0
    2.6453    0.0769    0.4641 H   0  0  0  0  0  0  0  0  0  0  0  0
    0.9687    0.7789   -1.5957 H   0  0  0  0  0  0  0  0  0  0  0  0
   -2.9591   -0.9003   -0.5715 H   0  0  0  0  0  0  0  0  0  0  0  0
   -2.9509    1.5994   -0.0652 H   0  0  0  0  0  0  0  0  0  0  0  0
   -0.4125    2.0981   -0.4771 H   0  0  0  0  0  0  0  0  0  0  0  0
   -0.6944    1.9461    1.2944 H   0  0  0  0  0  0  0  0  0  0  0  0
    0.6370   -1.7255    1.4174 H   0  0  0  0  0  0  0  0  0  0  0  0
   -0.8198   -0.7670    2.0918 H   0  0  0  0  0  0  0  0  0  0  0  0
  1  2  1  0
  2  3  1  0
  3  4  1  0
  4  5  1  0
  5  6  2  0
  6  7  1  0
  7  8  1  0
  8  9  1  0
  8  2  1  0
  8  4  1  0
  9  4  1  0
  1 10  1  0
  1 11  1  0
  1 12  1  0
  2 13  1  0
  5 14  1  0
  6 15  1  0
  7 16  1  0
  7 17  1  0
  9 18  1  0
  9 19  1  0
M  END
