
     RDKit          3D

 18 18  0  0  0  0  0  0  0  0999 V2000
   -2.0183   -1.0274    0.0044 C   0  0  0  0  0  0  0  0  0  0  0  0
   -0.7198   -0.5563   -0.5402 C   0  0  0  0  0  0  0  0  0  0  0  0
    0.3389   -1.4641   -0.4821 O   0  0  0  0  0  0  0  0  0  0  0  0
    1.1827   -0.3546   -0.4558 C   0  0  0  0  0  0  0  0  0  0  0  0
    2.4715   -0.5299    0.1911 C   0  0  0  0  0  0  0  0  0  0  0  0
    2.7922   -1.5892    0.6816 O   0  0  0  0  0  0  0  0  0  0  0  0
    0.1055    0.3264    0.3913 C   0  0  0  0  0  0  0  0  0  0  0  0
   -0.1230    1.7726    0.0631 C   0  0  0  0  0  0  0  0  0  0  0  0
   -2.8398   -0.6646   -0.6679 H   0  0  0  0  0  0  0  0  0  0  0  0
   -2.1219   -2.1308    0.0418 H   0  0  0  0  0  0  0  0  0  0  0  0
   -2.1622   -0.6291    1.0310 H   0  0  0  0  0  0  0  0  0  0  0  0
   -0.7544   -0.0645   -1.5508 H   0  0  0  0  0  0  0  0  0  0  0  0
    1.1860    0.1520   -1.4551 H   0  0  0  0  0  0  0  0  0  0  0  0
    3.1671    0.2879    0.2442 H   0  0  0  0  0  0  0  0  0  0  0  0
    0.0923    0.0453    1.4436 H   0  0  0  0  0  0  0  0  0  0  0  0
    0.5942    2.1381   -0.6995 H   0  0  0  0  0  0  0  0  0  0  0  0
   -1.1695    1.8692   -0.3085 H   0  0  0  0  0  0  0  0  0  0  0  0
   -0.0216    2.4191    0.9413 H   0  0  0  0  0  0  0  0  0  0  0  0
  1  2  1  0
  2  3  1  0
  3  4  1  0
  4  5  1  0
  5  6  2  0
  4  7  1  0
  7  8  1  0
  7  2  1  0
  1  9  1  0
  1 10  1  0
  1 11  1  0
  2 12  1  0
  4 13  1  0
  5 14  1  0
  7 15  1  0
  8 16  1  0
  8 17  1  0
  8 18  1  0
M  END
