
     RDKit          3D

 19 21  0  0  0  0  0  0  0  0999 V2000
    2.1088    0.4030    1.1283 C   0  0  0  0  0  0  0  0  0  0  0  0
    1.4495    0.3427   -0.2194 C   0  0  0  0  0  0  0  0  0  0  0  0
    1.4038   -1.0584   -0.6679 O   0  0  0  0  0  0  0  0  0  0  0  0
    0.2780   -0.2898   -0.4690 C   0  0  0  0  0  0  0  0  0  0  0  0
   -0.5145   -0.0615   -1.7735 C   0  0  0  0  0  0  0  0  0  0  0  0
   -1.8809   -0.1902   -1.3951 O   0  0  0  0  0  0  0  0  0  0  0  0
   -1.8167    0.3472   -0.1435 C   0  0  0  0  0  0  0  0  0  0  0  0
   -1.8224   -0.1636    1.1604 C   0  0  0  0  0  0  0  0  0  0  0  0
   -0.8223   -0.7700    0.3845 C   0  0  0  0  0  0  0  0  0  0  0  0
    3.0542   -0.2094    1.0437 H   0  0  0  0  0  0  0  0  0  0  0  0
    2.4377    1.4097    1.4165 H   0  0  0  0  0  0  0  0  0  0  0  0
    1.4827   -0.1140    1.8626 H   0  0  0  0  0  0  0  0  0  0  0  0
    1.9868    0.9423   -0.9945 H   0  0  0  0  0  0  0  0  0  0  0  0
   -0.3915    0.9680   -2.1267 H   0  0  0  0  0  0  0  0  0  0  0  0
   -0.2845   -0.8389   -2.5181 H   0  0  0  0  0  0  0  0  0  0  0  0
   -1.3655    1.3842   -0.2465 H   0  0  0  0  0  0  0  0  0  0  0  0
   -2.7231   -0.7580    1.4927 H   0  0  0  0  0  0  0  0  0  0  0  0
   -1.5071    0.4843    2.0225 H   0  0  0  0  0  0  0  0  0  0  0  0
   -1.0729   -1.8275    0.0429 H   0  0  0  0  0  0  0  0  0  0  0  0
  1  2  1  0
  2  3  1  0
  3  4  1  0
  4  5  1  0
  5  6  1  0
  6  7  1  0
  7  8  1  0
  8  9  1  0
  4  2  1  0
  9  7  1  0
  9  4  1  0
  1 10  1  0
  1 11  1  0
  1 12  1  0
  2 13  1  0
  5 14  1  0
  5 15  1  0
  7 16  1  0
  8 17  1  0
  8 18  1  0
  9 19  1  0
M  END
