
     RDKit          3D

 21 21  0  0  0  0  0  0  0  0999 V2000
    0.2415    2.0301   -0.1511 C   0  0  0  0  0  0  0  0  0  0  0  0
   -0.5538    0.8374    0.1946 C   0  0  0  0  0  0  0  0  0  0  0  0
   -1.2262    0.2388   -0.8993 O   0  0  0  0  0  0  0  0  0  0  0  0
   -1.9617   -0.7296   -0.1737 C   0  0  0  0  0  0  0  0  0  0  0  0
   -0.9603   -1.3562    0.8007 C   0  0  0  0  0  0  0  0  0  0  0  0
    0.2061   -0.3542    0.6954 C   0  0  0  0  0  0  0  0  0  0  0  0
    1.1537   -0.9188   -0.3107 C   0  0  0  0  0  0  0  0  0  0  0  0
    2.2007    0.0250   -0.7582 C   0  0  0  0  0  0  0  0  0  0  0  0
    3.1966    0.2492   -0.0515 O   0  0  0  0  0  0  0  0  0  0  0  0
    0.3704    2.0615   -1.2578 H   0  0  0  0  0  0  0  0  0  0  0  0
   -0.3435    2.9294    0.1993 H   0  0  0  0  0  0  0  0  0  0  0  0
    1.1864    2.0468    0.3861 H   0  0  0  0  0  0  0  0  0  0  0  0
   -1.3670    1.0330    0.9416 H   0  0  0  0  0  0  0  0  0  0  0  0
   -2.7277   -0.1411    0.3845 H   0  0  0  0  0  0  0  0  0  0  0  0
   -2.4324   -1.4752   -0.8327 H   0  0  0  0  0  0  0  0  0  0  0  0
   -1.3891   -1.3317    1.8115 H   0  0  0  0  0  0  0  0  0  0  0  0
   -0.6354   -2.3582    0.4600 H   0  0  0  0  0  0  0  0  0  0  0  0
    0.6555   -0.2068    1.6921 H   0  0  0  0  0  0  0  0  0  0  0  0
    0.6013   -1.2893   -1.2109 H   0  0  0  0  0  0  0  0  0  0  0  0
    1.6096   -1.8559    0.1243 H   0  0  0  0  0  0  0  0  0  0  0  0
    2.1753    0.5659   -1.6963 H   0  0  0  0  0  0  0  0  0  0  0  0
  1  2  1  0
  2  3  1  0
  3  4  1  0
  4  5  1  0
  5  6  1  0
  6  7  1  0
  7  8  1  0
  8  9  2  0
  6  2  1  0
  1 10  1  0
  1 11  1  0
  1 12  1  0
  2 13  1  0
  4 14  1  0
  4 15  1  0
  5 16  1  0
  5 17  1  0
  6 18  1  0
  7 19  1  0
  7 20  1  0
  8 21  1  0
M  END
