
     RDKit          3D

 17 17  0  0  0  0  0  0  0  0999 V2000
   -1.4861    1.5051    1.0708 C   0  0  0  0  0  0  0  0  0  0  0  0
   -1.1414    0.5684   -0.0848 C   0  0  0  0  0  0  0  0  0  0  0  0
   -2.1650   -0.3917   -0.2412 O   0  0  0  0  0  0  0  0  0  0  0  0
   -1.2321   -1.3996   -0.3779 C   0  0  0  0  0  0  0  0  0  0  0  0
   -0.2583   -0.5337    0.4065 C   0  0  0  0  0  0  0  0  0  0  0  0
    1.0545   -0.4273   -0.2398 C   0  0  0  0  0  0  0  0  0  0  0  0
    2.1393   -0.3234   -0.7877 C   0  0  0  0  0  0  0  0  0  0  0  0
    3.4034   -0.2240   -1.4391 C   0  0  0  0  0  0  0  0  0  0  0  0
    3.7264   -1.0094   -2.3521 O   0  0  0  0  0  0  0  0  0  0  0  0
   -0.6202    1.7168    1.7088 H   0  0  0  0  0  0  0  0  0  0  0  0
   -2.2617    1.0227    1.7279 H   0  0  0  0  0  0  0  0  0  0  0  0
   -1.9034    2.4390    0.6802 H   0  0  0  0  0  0  0  0  0  0  0  0
   -0.8455    1.0793   -0.9964 H   0  0  0  0  0  0  0  0  0  0  0  0
   -0.8663   -1.5089   -1.4279 H   0  0  0  0  0  0  0  0  0  0  0  0
   -1.4108   -2.3342    0.1564 H   0  0  0  0  0  0  0  0  0  0  0  0
   -0.2373   -0.7113    1.4828 H   0  0  0  0  0  0  0  0  0  0  0  0
    4.1045    0.5321   -1.1548 H   0  0  0  0  0  0  0  0  0  0  0  0
  1  2  1  0
  2  3  1  0
  3  4  1  0
  4  5  1  0
  5  6  1  0
  6  7  3  0
  7  8  1  0
  8  9  2  0
  5  2  1  0
  1 10  1  0
  1 11  1  0
  1 12  1  0
  2 13  1  0
  4 14  1  0
  4 15  1  0
  5 16  1  0
  8 17  1  0
M  END
