
     RDKit          3D

 21 22  0  0  0  0  0  0  0  0999 V2000
    2.2866    0.5340   -0.2903 C   0  0  0  0  0  0  0  0  0  0  0  0
    1.2083    0.2031    0.6826 C   0  0  0  0  0  0  0  0  0  0  0  0
    0.1401    1.0987    0.7461 O   0  0  0  0  0  0  0  0  0  0  0  0
   -0.5851    0.3668   -0.1891 C   0  0  0  0  0  0  0  0  0  0  0  0
   -0.4083    0.8756   -1.5855 C   0  0  0  0  0  0  0  0  0  0  0  0
   -1.9620   -0.0285    0.2106 C   0  0  0  0  0  0  0  0  0  0  0  0
   -1.7243   -0.9839    1.3272 C   0  0  0  0  0  0  0  0  0  0  0  0
   -0.4869   -1.4448    1.3226 C   0  0  0  0  0  0  0  0  0  0  0  0
    0.2416   -0.8376    0.1880 C   0  0  0  0  0  0  0  0  0  0  0  0
    3.2354    0.0527    0.0882 H   0  0  0  0  0  0  0  0  0  0  0  0
    2.1344    0.0980   -1.2993 H   0  0  0  0  0  0  0  0  0  0  0  0
    2.4847    1.6189   -0.4052 H   0  0  0  0  0  0  0  0  0  0  0  0
    1.6009    0.0324    1.7118 H   0  0  0  0  0  0  0  0  0  0  0  0
   -1.3954    1.2285   -2.0021 H   0  0  0  0  0  0  0  0  0  0  0  0
    0.3215    1.7230   -1.5845 H   0  0  0  0  0  0  0  0  0  0  0  0
   -0.0478    0.1097   -2.2990 H   0  0  0  0  0  0  0  0  0  0  0  0
   -2.5931    0.8257    0.5350 H   0  0  0  0  0  0  0  0  0  0  0  0
   -2.4183   -0.6052   -0.6105 H   0  0  0  0  0  0  0  0  0  0  0  0
   -2.5166   -1.2378    2.0381 H   0  0  0  0  0  0  0  0  0  0  0  0
   -0.0871   -2.1409    2.0260 H   0  0  0  0  0  0  0  0  0  0  0  0
    0.5713   -1.4883   -0.6108 H   0  0  0  0  0  0  0  0  0  0  0  0
  1  2  1  0
  2  3  1  0
  3  4  1  0
  4  5  1  0
  4  6  1  0
  6  7  1  0
  7  8  2  0
  8  9  1  0
  9  2  1  0
  9  4  1  0
  1 10  1  0
  1 11  1  0
  1 12  1  0
  2 13  1  0
  5 14  1  0
  5 15  1  0
  5 16  1  0
  6 17  1  0
  6 18  1  0
  7 19  1  0
  8 20  1  0
  9 21  1  0
M  END
