
     RDKit          3D

 19 21  0  0  0  0  0  0  0  0999 V2000
    2.9642    0.4453   -0.3340 C   0  0  0  0  0  0  0  0  0  0  0  0
    1.8252   -0.2910    0.2755 C   0  0  0  0  0  0  0  0  0  0  0  0
    1.2167   -1.3514   -0.3456 O   0  0  0  0  0  0  0  0  0  0  0  0
    0.5243   -0.1860   -0.5215 C   0  0  0  0  0  0  0  0  0  0  0  0
   -0.6541    0.1771    0.3149 C   0  0  0  0  0  0  0  0  0  0  0  0
   -1.9669    0.3020   -0.3800 C   0  0  0  0  0  0  0  0  0  0  0  0
   -2.6264    0.0766    0.9463 C   0  0  0  0  0  0  0  0  0  0  0  0
   -1.5249   -0.9311    0.7955 C   0  0  0  0  0  0  0  0  0  0  0  0
   -1.9507   -1.0781   -0.5155 O   0  0  0  0  0  0  0  0  0  0  0  0
    3.7239    0.7139    0.4520 H   0  0  0  0  0  0  0  0  0  0  0  0
    2.6145    1.4415   -0.7240 H   0  0  0  0  0  0  0  0  0  0  0  0
    3.4942   -0.0698   -1.1316 H   0  0  0  0  0  0  0  0  0  0  0  0
    1.7748   -0.2949    1.3670 H   0  0  0  0  0  0  0  0  0  0  0  0
    0.5677    0.2387   -1.5348 H   0  0  0  0  0  0  0  0  0  0  0  0
   -0.4030    0.9733    1.0305 H   0  0  0  0  0  0  0  0  0  0  0  0
   -2.2325    0.9744   -1.0816 H   0  0  0  0  0  0  0  0  0  0  0  0
   -2.4443    0.9166    1.6297 H   0  0  0  0  0  0  0  0  0  0  0  0
   -3.6115   -0.3894    0.9493 H   0  0  0  0  0  0  0  0  0  0  0  0
   -1.2911   -1.6678    1.4413 H   0  0  0  0  0  0  0  0  0  0  0  0
  1  2  1  0
  2  3  1  0
  3  4  1  0
  4  5  1  0
  5  6  1  0
  6  7  1  0
  7  8  1  0
  8  9  1  0
  4  2  1  0
  8  5  1  0
  9  6  1  0
  1 10  1  0
  1 11  1  0
  1 12  1  0
  2 13  1  0
  4 14  1  0
  5 15  1  0
  6 16  1  0
  7 17  1  0
  7 18  1  0
  8 19  1  0
M  END
