
     RDKit          3D

 21 22  0  0  0  0  0  0  0  0999 V2000
   -2.9469    0.3215   -0.0868 C   0  0  0  0  0  0  0  0  0  0  0  0
   -1.5259   -0.1695    0.0123 C   0  0  0  0  0  0  0  0  0  0  0  0
   -0.9056    0.6532    0.9814 O   0  0  0  0  0  0  0  0  0  0  0  0
    0.2597   -0.0264    1.3418 C   0  0  0  0  0  0  0  0  0  0  0  0
    1.1509   -0.0269    0.1207 C   0  0  0  0  0  0  0  0  0  0  0  0
    2.2816    0.9692    0.1815 C   0  0  0  0  0  0  0  0  0  0  0  0
    1.2712   -1.3071   -0.5793 C   0  0  0  0  0  0  0  0  0  0  0  0
    0.4748   -0.1775   -1.1559 C   0  0  0  0  0  0  0  0  0  0  0  0
   -0.8776   -0.1676   -1.1845 O   0  0  0  0  0  0  0  0  0  0  0  0
   -2.9697    1.4251    0.1209 H   0  0  0  0  0  0  0  0  0  0  0  0
   -3.5025   -0.1430    0.7678 H   0  0  0  0  0  0  0  0  0  0  0  0
   -3.4074    0.1543   -1.0566 H   0  0  0  0  0  0  0  0  0  0  0  0
   -1.5344   -1.2301    0.3914 H   0  0  0  0  0  0  0  0  0  0  0  0
    0.0284   -1.0778    1.6555 H   0  0  0  0  0  0  0  0  0  0  0  0
    0.7187    0.5030    2.1890 H   0  0  0  0  0  0  0  0  0  0  0  0
    2.4382    1.4643   -0.8233 H   0  0  0  0  0  0  0  0  0  0  0  0
    3.1963    0.4941    0.5488 H   0  0  0  0  0  0  0  0  0  0  0  0
    1.9886    1.8082    0.8557 H   0  0  0  0  0  0  0  0  0  0  0  0
    2.2476   -1.5910   -0.9671 H   0  0  0  0  0  0  0  0  0  0  0  0
    0.6504   -2.1606   -0.2464 H   0  0  0  0  0  0  0  0  0  0  0  0
    0.9636    0.2845   -2.0593 H   0  0  0  0  0  0  0  0  0  0  0  0
  1  2  1  0
  2  3  1  0
  3  4  1  0
  4  5  1  0
  5  6  1  0
  5  7  1  0
  7  8  1  0
  8  9  1  0
  9  2  1  0
  8  5  1  0
  1 10  1  0
  1 11  1  0
  1 12  1  0
  2 13  1  0
  4 14  1  0
  4 15  1  0
  6 16  1  0
  6 17  1  0
  6 18  1  0
  7 19  1  0
  7 20  1  0
  8 21  1  0
M  END
