
     RDKit          3D

 21 22  0  0  0  0  0  0  0  0999 V2000
    1.9639   -1.2780    0.2554 C   0  0  0  0  0  0  0  0  0  0  0  0
    1.4459    0.0943   -0.1140 C   0  0  0  0  0  0  0  0  0  0  0  0
    0.5113    0.1023   -1.1569 O   0  0  0  0  0  0  0  0  0  0  0  0
   -0.4804    0.0228   -0.2171 C   0  0  0  0  0  0  0  0  0  0  0  0
   -1.8647    0.3956   -0.4142 C   0  0  0  0  0  0  0  0  0  0  0  0
   -1.4219   -1.0663   -0.1568 C   0  0  0  0  0  0  0  0  0  0  0  0
   -1.8918   -1.6597    0.9902 O   0  0  0  0  0  0  0  0  0  0  0  0
    0.3771    0.5037    0.8951 C   0  0  0  0  0  0  0  0  0  0  0  0
    0.3655    2.0129    1.0366 C   0  0  0  0  0  0  0  0  0  0  0  0
    2.4044   -1.1530    1.2873 H   0  0  0  0  0  0  0  0  0  0  0  0
    2.7900   -1.6049   -0.3829 H   0  0  0  0  0  0  0  0  0  0  0  0
    1.1135   -1.9892    0.3028 H   0  0  0  0  0  0  0  0  0  0  0  0
    2.2413    0.8199   -0.2774 H   0  0  0  0  0  0  0  0  0  0  0  0
   -2.3443    0.6171   -1.3774 H   0  0  0  0  0  0  0  0  0  0  0  0
   -2.3773    0.9098    0.4415 H   0  0  0  0  0  0  0  0  0  0  0  0
   -1.5101   -1.7314   -1.0627 H   0  0  0  0  0  0  0  0  0  0  0  0
   -2.7486   -2.1220    0.7460 H   0  0  0  0  0  0  0  0  0  0  0  0
    0.3832   -0.0663    1.8331 H   0  0  0  0  0  0  0  0  0  0  0  0
    1.0953    2.5035    0.3451 H   0  0  0  0  0  0  0  0  0  0  0  0
   -0.6488    2.3449    0.7164 H   0  0  0  0  0  0  0  0  0  0  0  0
    0.5966    2.3439    2.0710 H   0  0  0  0  0  0  0  0  0  0  0  0
  1  2  1  0
  2  3  1  0
  3  4  1  0
  4  5  1  0
  5  6  1  0
  6  7  1  0
  4  8  1  0
  8  9  1  0
  8  2  1  0
  6  4  1  0
  1 10  1  0
  1 11  1  0
  1 12  1  0
  2 13  1  0
  5 14  1  0
  5 15  1  0
  6 16  1  0
  7 17  1  0
  8 18  1  0
  9 19  1  0
  9 20  1  0
  9 21  1  0
M  END
