
     RDKit          3D

 19 21  0  0  0  0  0  0  0  0999 V2000
    2.4375   -0.0952    0.0319 C   0  0  0  0  0  0  0  0  0  0  0  0
    1.3423    0.0430   -0.9753 C   0  0  0  0  0  0  0  0  0  0  0  0
    0.7817   -1.0414   -1.5953 O   0  0  0  0  0  0  0  0  0  0  0  0
    0.0524   -0.5536   -0.6159 C   0  0  0  0  0  0  0  0  0  0  0  0
   -0.1580   -1.0614    0.7456 C   0  0  0  0  0  0  0  0  0  0  0  0
   -1.1082    0.1370    0.9182 C   0  0  0  0  0  0  0  0  0  0  0  0
   -2.3617    0.0294    0.1765 C   0  0  0  0  0  0  0  0  0  0  0  0
   -1.1514    0.2635   -0.6255 C   0  0  0  0  0  0  0  0  0  0  0  0
   -1.0147    1.5606   -1.1432 O   0  0  0  0  0  0  0  0  0  0  0  0
    2.6269   -1.1605    0.2107 H   0  0  0  0  0  0  0  0  0  0  0  0
    3.3751    0.4444   -0.2668 H   0  0  0  0  0  0  0  0  0  0  0  0
    2.1584    0.3398    1.0324 H   0  0  0  0  0  0  0  0  0  0  0  0
    1.2817    1.0584   -1.4565 H   0  0  0  0  0  0  0  0  0  0  0  0
   -0.7695   -1.9960    0.7545 H   0  0  0  0  0  0  0  0  0  0  0  0
    0.6789   -1.0715    1.4545 H   0  0  0  0  0  0  0  0  0  0  0  0
   -0.7355    1.0308    1.4114 H   0  0  0  0  0  0  0  0  0  0  0  0
   -3.0895    0.8461    0.2948 H   0  0  0  0  0  0  0  0  0  0  0  0
   -2.8600   -0.9793    0.2093 H   0  0  0  0  0  0  0  0  0  0  0  0
   -1.4865    2.2059   -0.5613 H   0  0  0  0  0  0  0  0  0  0  0  0
  1  2  1  0
  2  3  1  0
  3  4  1  0
  4  5  1  0
  5  6  1  0
  6  7  1  0
  7  8  1  0
  8  9  1  0
  4  2  1  0
  8  6  1  0
  8  4  1  0
  1 10  1  0
  1 11  1  0
  1 12  1  0
  2 13  1  0
  5 14  1  0
  5 15  1  0
  6 16  1  0
  7 17  1  0
  7 18  1  0
  9 19  1  0
M  END
