
     RDKit          3D

 19 20  0  0  0  0  0  0  0  0999 V2000
    2.6534   -0.1075    0.1137 C   0  0  0  0  0  0  0  0  0  0  0  0
    1.2115   -0.1706    0.5345 C   0  0  0  0  0  0  0  0  0  0  0  0
    0.5308   -1.3261    0.2495 O   0  0  0  0  0  0  0  0  0  0  0  0
   -0.4041   -0.7483   -0.5646 C   0  0  0  0  0  0  0  0  0  0  0  0
   -1.7288   -0.3964    0.0475 C   0  0  0  0  0  0  0  0  0  0  0  0
   -1.7940   -0.5633    1.4020 O   0  0  0  0  0  0  0  0  0  0  0  0
   -1.7803    1.1127   -0.2259 C   0  0  0  0  0  0  0  0  0  0  0  0
   -0.4846    1.4814    0.1130 O   0  0  0  0  0  0  0  0  0  0  0  0
    0.3485    0.5577   -0.4670 C   0  0  0  0  0  0  0  0  0  0  0  0
    2.9463    0.9827    0.1692 H   0  0  0  0  0  0  0  0  0  0  0  0
    2.7113   -0.3771   -0.9507 H   0  0  0  0  0  0  0  0  0  0  0  0
    3.3400   -0.6597    0.7537 H   0  0  0  0  0  0  0  0  0  0  0  0
    1.0769    0.1136    1.5900 H   0  0  0  0  0  0  0  0  0  0  0  0
   -0.4271   -1.2046   -1.5649 H   0  0  0  0  0  0  0  0  0  0  0  0
   -2.5707   -0.8592   -0.5100 H   0  0  0  0  0  0  0  0  0  0  0  0
   -1.9941   -1.5103    1.6631 H   0  0  0  0  0  0  0  0  0  0  0  0
   -1.8877    1.3142   -1.3186 H   0  0  0  0  0  0  0  0  0  0  0  0
   -2.5552    1.5567    0.3918 H   0  0  0  0  0  0  0  0  0  0  0  0
    0.8078    0.8040   -1.4264 H   0  0  0  0  0  0  0  0  0  0  0  0
  1  2  1  0
  2  3  1  0
  3  4  1  0
  4  5  1  0
  5  6  1  0
  5  7  1  0
  7  8  1  0
  8  9  1  0
  9  2  1  0
  9  4  1  0
  1 10  1  0
  1 11  1  0
  1 12  1  0
  2 13  1  0
  4 14  1  0
  5 15  1  0
  6 16  1  0
  7 17  1  0
  7 18  1  0
  9 19  1  0
M  END
