
     RDKit          3D

 20 21  0  0  0  0  0  0  0  0999 V2000
   -2.3435    0.6108   -0.3519 C   0  0  0  0  0  0  0  0  0  0  0  0
   -1.1639    0.4742    0.5433 C   0  0  0  0  0  0  0  0  0  0  0  0
   -0.0482    1.2231    0.0838 O   0  0  0  0  0  0  0  0  0  0  0  0
    0.9329    0.2817   -0.0414 C   0  0  0  0  0  0  0  0  0  0  0  0
    2.2784    0.6226   -0.4442 C   0  0  0  0  0  0  0  0  0  0  0  0
    0.2084   -0.8281   -0.8217 C   0  0  0  0  0  0  0  0  0  0  0  0
   -0.5882   -0.9086    0.4585 C   0  0  0  0  0  0  0  0  0  0  0  0
    0.7574   -0.6621    1.1594 C   0  0  0  0  0  0  0  0  0  0  0  0
   -3.1340    1.2467    0.1319 H   0  0  0  0  0  0  0  0  0  0  0  0
   -2.8085   -0.3946   -0.4732 H   0  0  0  0  0  0  0  0  0  0  0  0
   -2.0782    0.9718   -1.3636 H   0  0  0  0  0  0  0  0  0  0  0  0
   -1.3614    0.7442    1.6066 H   0  0  0  0  0  0  0  0  0  0  0  0
    2.6779   -0.1571   -1.1499 H   0  0  0  0  0  0  0  0  0  0  0  0
    2.3040    1.5779   -0.9855 H   0  0  0  0  0  0  0  0  0  0  0  0
    2.9708    0.6126    0.4192 H   0  0  0  0  0  0  0  0  0  0  0  0
    0.8432   -1.6760   -1.0546 H   0  0  0  0  0  0  0  0  0  0  0  0
   -0.4139   -0.4061   -1.6351 H   0  0  0  0  0  0  0  0  0  0  0  0
   -1.1379   -1.7626    0.7052 H   0  0  0  0  0  0  0  0  0  0  0  0
    0.6671   -0.0628    2.0607 H   0  0  0  0  0  0  0  0  0  0  0  0
    1.4378   -1.5077    1.1523 H   0  0  0  0  0  0  0  0  0  0  0  0
  1  2  1  0
  2  3  1  0
  3  4  1  0
  4  5  1  0
  4  6  1  0
  6  7  1  0
  7  8  1  0
  7  2  1  0
  8  4  1  0
  1  9  1  0
  1 10  1  0
  1 11  1  0
  2 12  1  0
  5 13  1  0
  5 14  1  0
  5 15  1  0
  6 16  1  0
  6 17  1  0
  7 18  1  0
  8 19  1  0
  8 20  1  0
M  END
