
     RDKit          3D

 17 17  0  0  0  0  0  0  0  0999 V2000
    2.2883   -0.2217    0.0684 C   0  0  0  0  0  0  0  0  0  0  0  0
    1.1432    0.7402   -0.1008 C   0  0  0  0  0  0  0  0  0  0  0  0
    0.2379    0.5676    0.9688 O   0  0  0  0  0  0  0  0  0  0  0  0
   -0.7986    0.1373    0.1374 C   0  0  0  0  0  0  0  0  0  0  0  0
   -1.2109   -1.2881    0.3602 C   0  0  0  0  0  0  0  0  0  0  0  0
   -1.9286    1.0980    0.2010 C   0  0  0  0  0  0  0  0  0  0  0  0
   -2.9273    0.8991   -0.4537 O   0  0  0  0  0  0  0  0  0  0  0  0
    0.0916    0.3230   -1.0452 C   0  0  0  0  0  0  0  0  0  0  0  0
   -0.1289    0.1520   -2.2324 O   0  0  0  0  0  0  0  0  0  0  0  0
    2.1305   -1.1902   -0.4244 H   0  0  0  0  0  0  0  0  0  0  0  0
    2.4747   -0.3337    1.1636 H   0  0  0  0  0  0  0  0  0  0  0  0
    3.2063    0.2990   -0.3217 H   0  0  0  0  0  0  0  0  0  0  0  0
    1.4096    1.7897   -0.2374 H   0  0  0  0  0  0  0  0  0  0  0  0
   -2.2935   -1.3730    0.0625 H   0  0  0  0  0  0  0  0  0  0  0  0
   -1.1207   -1.6318    1.3964 H   0  0  0  0  0  0  0  0  0  0  0  0
   -0.6654   -1.9606   -0.3614 H   0  0  0  0  0  0  0  0  0  0  0  0
   -1.9084    1.9933    0.8189 H   0  0  0  0  0  0  0  0  0  0  0  0
  1  2  1  0
  2  3  1  0
  3  4  1  0
  4  5  1  0
  4  6  1  0
  6  7  2  0
  4  8  1  0
  8  9  2  0
  8  2  1  0
  1 10  1  0
  1 11  1  0
  1 12  1  0
  2 13  1  0
  5 14  1  0
  5 15  1  0
  5 16  1  0
  6 17  1  0
M  END
