
     RDKit          3D

 17 18  0  0  0  0  0  0  0  0999 V2000
   -2.1548    0.9106   -0.0554 C   0  0  0  0  0  0  0  0  0  0  0  0
   -1.1602   -0.1050    0.4081 C   0  0  0  0  0  0  0  0  0  0  0  0
   -0.2805    0.2535    1.4149 O   0  0  0  0  0  0  0  0  0  0  0  0
    0.5452   -0.7804    0.9025 C   0  0  0  0  0  0  0  0  0  0  0  0
   -0.0432   -0.4450   -0.4972 C   0  0  0  0  0  0  0  0  0  0  0  0
    1.4133   -0.3693   -0.1567 C   0  0  0  0  0  0  0  0  0  0  0  0
    2.2646   -1.1708   -0.9151 O   0  0  0  0  0  0  0  0  0  0  0  0
    2.0631    0.9995    0.0455 C   0  0  0  0  0  0  0  0  0  0  0  0
    2.3205    1.3074    1.1658 O   0  0  0  0  0  0  0  0  0  0  0  0
   -3.0427    0.8449    0.6309 H   0  0  0  0  0  0  0  0  0  0  0  0
   -2.5440    0.6161   -1.0573 H   0  0  0  0  0  0  0  0  0  0  0  0
   -1.7592    1.9242   -0.1313 H   0  0  0  0  0  0  0  0  0  0  0  0
   -1.7240   -1.0314    0.7380 H   0  0  0  0  0  0  0  0  0  0  0  0
    0.2952   -1.8228    1.2351 H   0  0  0  0  0  0  0  0  0  0  0  0
   -0.2703   -1.3186   -1.1526 H   0  0  0  0  0  0  0  0  0  0  0  0
    1.7996   -1.4702   -1.7604 H   0  0  0  0  0  0  0  0  0  0  0  0
    2.2775    1.6574   -0.8148 H   0  0  0  0  0  0  0  0  0  0  0  0
  1  2  1  0
  2  3  1  0
  3  4  1  0
  4  5  1  0
  5  6  1  0
  6  7  1  0
  6  8  1  0
  8  9  2  0
  5  2  1  0
  6  4  1  0
  1 10  1  0
  1 11  1  0
  1 12  1  0
  2 13  1  0
  4 14  1  0
  5 15  1  0
  7 16  1  0
  8 17  1  0
M  END
