
     RDKit          3D

 19 20  0  0  0  0  0  0  0  0999 V2000
    2.0820    0.6494    0.6556 C   0  0  0  0  0  0  0  0  0  0  0  0
    1.2701    0.1185   -0.5157 C   0  0  0  0  0  0  0  0  0  0  0  0
    1.3927   -1.2898   -0.5224 O   0  0  0  0  0  0  0  0  0  0  0  0
    0.2550   -1.3629    0.3120 C   0  0  0  0  0  0  0  0  0  0  0  0
   -0.1655   -0.0459   -0.2135 C   0  0  0  0  0  0  0  0  0  0  0  0
   -1.1314   -0.0351   -1.3625 C   0  0  0  0  0  0  0  0  0  0  0  0
   -2.3581    0.0642   -0.6762 O   0  0  0  0  0  0  0  0  0  0  0  0
   -2.0836    0.5388    0.5794 C   0  0  0  0  0  0  0  0  0  0  0  0
   -0.7499    0.8414    0.6719 O   0  0  0  0  0  0  0  0  0  0  0  0
    3.1409    0.3194    0.4803 H   0  0  0  0  0  0  0  0  0  0  0  0
    2.0678    1.7355    0.6968 H   0  0  0  0  0  0  0  0  0  0  0  0
    1.7858    0.1874    1.6162 H   0  0  0  0  0  0  0  0  0  0  0  0
    1.5685    0.6076   -1.4438 H   0  0  0  0  0  0  0  0  0  0  0  0
    0.5028   -1.3876    1.4008 H   0  0  0  0  0  0  0  0  0  0  0  0
   -0.4157   -2.2035    0.0841 H   0  0  0  0  0  0  0  0  0  0  0  0
   -1.0197    0.9359   -1.9073 H   0  0  0  0  0  0  0  0  0  0  0  0
   -1.0850   -0.9124   -2.0047 H   0  0  0  0  0  0  0  0  0  0  0  0
   -2.3187   -0.1876    1.3954 H   0  0  0  0  0  0  0  0  0  0  0  0
   -2.7379    1.4265    0.7535 H   0  0  0  0  0  0  0  0  0  0  0  0
  1  2  1  0
  2  3  1  0
  3  4  1  0
  4  5  1  0
  5  6  1  0
  6  7  1  0
  7  8  1  0
  8  9  1  0
  5  2  1  0
  9  5  1  0
  1 10  1  0
  1 11  1  0
  1 12  1  0
  2 13  1  0
  4 14  1  0
  4 15  1  0
  6 16  1  0
  6 17  1  0
  8 18  1  0
  8 19  1  0
M  END
