
     RDKit          3D

 21 22  0  0  0  0  0  0  0  0999 V2000
    2.3037   -0.0238    0.6136 C   0  0  0  0  0  0  0  0  0  0  0  0
    1.2857    0.1813   -0.4784 C   0  0  0  0  0  0  0  0  0  0  0  0
    0.6616    1.3929   -0.3595 O   0  0  0  0  0  0  0  0  0  0  0  0
   -0.5043    1.3624    0.4014 C   0  0  0  0  0  0  0  0  0  0  0  0
   -1.5442    0.4369   -0.1248 C   0  0  0  0  0  0  0  0  0  0  0  0
   -1.5863   -0.7676    0.8204 C   0  0  0  0  0  0  0  0  0  0  0  0
   -0.2596   -1.1802    0.7588 O   0  0  0  0  0  0  0  0  0  0  0  0
    0.2357   -0.9209   -0.4900 C   0  0  0  0  0  0  0  0  0  0  0  0
   -0.9173   -0.3135   -1.3107 C   0  0  0  0  0  0  0  0  0  0  0  0
    1.8741    0.1814    1.6115 H   0  0  0  0  0  0  0  0  0  0  0  0
    2.7818   -1.0146    0.5372 H   0  0  0  0  0  0  0  0  0  0  0  0
    3.1060    0.7251    0.4499 H   0  0  0  0  0  0  0  0  0  0  0  0
    1.8056    0.1372   -1.4584 H   0  0  0  0  0  0  0  0  0  0  0  0
   -0.8652    2.4225    0.4608 H   0  0  0  0  0  0  0  0  0  0  0  0
   -0.1864    1.1203    1.4547 H   0  0  0  0  0  0  0  0  0  0  0  0
   -2.5073    0.8519   -0.3424 H   0  0  0  0  0  0  0  0  0  0  0  0
   -2.2630   -1.5122    0.3278 H   0  0  0  0  0  0  0  0  0  0  0  0
   -1.9174   -0.4983    1.8201 H   0  0  0  0  0  0  0  0  0  0  0  0
    0.6213   -1.8328   -0.9520 H   0  0  0  0  0  0  0  0  0  0  0  0
   -1.5786   -1.1157   -1.6679 H   0  0  0  0  0  0  0  0  0  0  0  0
   -0.5458    0.3673   -2.0720 H   0  0  0  0  0  0  0  0  0  0  0  0
  1  2  1  0
  2  3  1  0
  3  4  1  0
  4  5  1  0
  5  6  1  0
  6  7  1  0
  7  8  1  0
  8  9  1  0
  8  2  1  0
  9  5  1  0
  1 10  1  0
  1 11  1  0
  1 12  1  0
  2 13  1  0
  4 14  1  0
  4 15  1  0
  5 16  1  0
  6 17  1  0
  6 18  1  0
  8 19  1  0
  9 20  1  0
  9 21  1  0
M  END
