
     RDKit          3D

 19 21  0  0  0  0  0  0  0  0999 V2000
    2.8125   -0.4299   -0.0979 C   0  0  0  0  0  0  0  0  0  0  0  0
    1.6935    0.3869    0.4748 C   0  0  0  0  0  0  0  0  0  0  0  0
    1.3800    1.6195   -0.0784 O   0  0  0  0  0  0  0  0  0  0  0  0
    0.4568    0.6406   -0.3595 C   0  0  0  0  0  0  0  0  0  0  0  0
   -0.8280    0.5529    0.4402 C   0  0  0  0  0  0  0  0  0  0  0  0
   -2.0767    0.8116   -0.4143 C   0  0  0  0  0  0  0  0  0  0  0  0
   -2.3576   -0.6929   -0.2769 C   0  0  0  0  0  0  0  0  0  0  0  0
   -1.3282   -1.4585   -0.8346 O   0  0  0  0  0  0  0  0  0  0  0  0
   -1.2864   -0.8730    0.5204 C   0  0  0  0  0  0  0  0  0  0  0  0
    2.7583   -0.5747   -1.1805 H   0  0  0  0  0  0  0  0  0  0  0  0
    3.7721    0.0580    0.2166 H   0  0  0  0  0  0  0  0  0  0  0  0
    2.8036   -1.4240    0.3924 H   0  0  0  0  0  0  0  0  0  0  0  0
    1.5986    0.3126    1.5740 H   0  0  0  0  0  0  0  0  0  0  0  0
    0.4491    0.1340   -1.3385 H   0  0  0  0  0  0  0  0  0  0  0  0
   -0.8075    1.0722    1.3957 H   0  0  0  0  0  0  0  0  0  0  0  0
   -2.8729    1.3598    0.1257 H   0  0  0  0  0  0  0  0  0  0  0  0
   -1.8769    1.1180   -1.4392 H   0  0  0  0  0  0  0  0  0  0  0  0
   -3.3921   -1.0338   -0.3252 H   0  0  0  0  0  0  0  0  0  0  0  0
   -0.8982   -1.5792    1.2320 H   0  0  0  0  0  0  0  0  0  0  0  0
  1  2  1  0
  2  3  1  0
  3  4  1  0
  4  5  1  0
  5  6  1  0
  6  7  1  0
  7  8  1  0
  8  9  1  0
  4  2  1  0
  9  5  1  0
  9  7  1  0
  1 10  1  0
  1 11  1  0
  1 12  1  0
  2 13  1  0
  4 14  1  0
  5 15  1  0
  6 16  1  0
  6 17  1  0
  7 18  1  0
  9 19  1  0
M  END
