
     RDKit          3D

 19 20  0  0  0  0  0  0  0  0999 V2000
    2.6718   -0.6924   -0.5379 C   0  0  0  0  0  0  0  0  0  0  0  0
    1.2803   -0.5046   -0.0609 C   0  0  0  0  0  0  0  0  0  0  0  0
    1.1500    0.4547    0.9470 O   0  0  0  0  0  0  0  0  0  0  0  0
   -0.2490    0.3877    1.1542 C   0  0  0  0  0  0  0  0  0  0  0  0
   -0.7181    0.2730   -0.2910 C   0  0  0  0  0  0  0  0  0  0  0  0
   -1.9649   -0.5050   -0.5078 C   0  0  0  0  0  0  0  0  0  0  0  0
   -2.3808    0.4965   -1.4124 O   0  0  0  0  0  0  0  0  0  0  0  0
   -1.5418    1.4134   -0.7828 C   0  0  0  0  0  0  0  0  0  0  0  0
    0.3905   -0.0744   -1.0344 O   0  0  0  0  0  0  0  0  0  0  0  0
    2.9871    0.0052   -1.3415 H   0  0  0  0  0  0  0  0  0  0  0  0
    3.3540   -0.7092    0.3273 H   0  0  0  0  0  0  0  0  0  0  0  0
    2.7327   -1.7161   -1.0051 H   0  0  0  0  0  0  0  0  0  0  0  0
    0.9094   -1.4711    0.3372 H   0  0  0  0  0  0  0  0  0  0  0  0
   -0.6393    1.2622    1.6669 H   0  0  0  0  0  0  0  0  0  0  0  0
   -0.4024   -0.5740    1.7045 H   0  0  0  0  0  0  0  0  0  0  0  0
   -1.7803   -1.4312   -1.1038 H   0  0  0  0  0  0  0  0  0  0  0  0
   -2.6262   -0.6345    0.3635 H   0  0  0  0  0  0  0  0  0  0  0  0
   -1.0609    2.1572   -1.4257 H   0  0  0  0  0  0  0  0  0  0  0  0
   -2.1121    1.8626    0.0808 H   0  0  0  0  0  0  0  0  0  0  0  0
  1  2  1  0
  2  3  1  0
  3  4  1  0
  4  5  1  0
  5  6  1  0
  6  7  1  0
  7  8  1  0
  5  9  1  0
  9  2  1  0
  8  5  1  0
  1 10  1  0
  1 11  1  0
  1 12  1  0
  2 13  1  0
  4 14  1  0
  4 15  1  0
  6 16  1  0
  6 17  1  0
  8 18  1  0
  8 19  1  0
M  END
