
     RDKit          3D

 21 22  0  0  0  0  0  0  0  0999 V2000
    2.5212    0.1797   -0.5296 C   0  0  0  0  0  0  0  0  0  0  0  0
    1.0675    0.0873   -1.0158 C   0  0  0  0  0  0  0  0  0  0  0  0
    0.4064    1.1643   -0.5443 O   0  0  0  0  0  0  0  0  0  0  0  0
   -0.3944    1.0270    0.5322 C   0  0  0  0  0  0  0  0  0  0  0  0
   -1.8200    0.7714    0.0304 C   0  0  0  0  0  0  0  0  0  0  0  0
   -1.7676   -0.6625   -0.3934 C   0  0  0  0  0  0  0  0  0  0  0  0
   -0.4623   -1.2413    0.1219 C   0  0  0  0  0  0  0  0  0  0  0  0
   -0.1168   -0.2663    1.2569 C   0  0  0  0  0  0  0  0  0  0  0  0
    0.5346   -1.1428   -0.8005 O   0  0  0  0  0  0  0  0  0  0  0  0
    3.1900    0.6125   -1.2851 H   0  0  0  0  0  0  0  0  0  0  0  0
    2.5761    0.8800    0.3535 H   0  0  0  0  0  0  0  0  0  0  0  0
    2.8819   -0.7957   -0.1531 H   0  0  0  0  0  0  0  0  0  0  0  0
    1.1499    0.2095   -2.1399 H   0  0  0  0  0  0  0  0  0  0  0  0
   -0.4045    1.8472    1.2576 H   0  0  0  0  0  0  0  0  0  0  0  0
   -2.5746    1.0111    0.7749 H   0  0  0  0  0  0  0  0  0  0  0  0
   -1.9490    1.3969   -0.8929 H   0  0  0  0  0  0  0  0  0  0  0  0
   -1.8073   -0.7995   -1.5014 H   0  0  0  0  0  0  0  0  0  0  0  0
   -2.6486   -1.1884    0.0089 H   0  0  0  0  0  0  0  0  0  0  0  0
   -0.5745   -2.2322    0.5529 H   0  0  0  0  0  0  0  0  0  0  0  0
    0.9298   -0.4323    1.5032 H   0  0  0  0  0  0  0  0  0  0  0  0
   -0.7381   -0.4258    2.1345 H   0  0  0  0  0  0  0  0  0  0  0  0
  1  2  1  0
  2  3  1  0
  3  4  1  0
  4  5  1  0
  5  6  1  0
  6  7  1  0
  7  8  1  0
  7  9  1  0
  9  2  1  0
  8  4  1  0
  1 10  1  0
  1 11  1  0
  1 12  1  0
  2 13  1  0
  4 14  1  0
  5 15  1  0
  5 16  1  0
  6 17  1  0
  6 18  1  0
  7 19  1  0
  8 20  1  0
  8 21  1  0
M  END
