
     RDKit          3D

 19 21  0  0  0  0  0  0  0  0999 V2000
   -2.2921    0.6948   -0.7443 C   0  0  0  0  0  0  0  0  0  0  0  0
   -0.8721    0.6503   -0.2380 C   0  0  0  0  0  0  0  0  0  0  0  0
    0.0009    0.6493   -1.2972 O   0  0  0  0  0  0  0  0  0  0  0  0
    1.0546   -0.1891   -1.0015 C   0  0  0  0  0  0  0  0  0  0  0  0
    2.0784    0.4757   -0.0767 C   0  0  0  0  0  0  0  0  0  0  0  0
    1.5912    0.3667    1.1993 O   0  0  0  0  0  0  0  0  0  0  0  0
    0.7137   -0.6809    1.2669 C   0  0  0  0  0  0  0  0  0  0  0  0
   -0.6380   -0.5925    0.5705 C   0  0  0  0  0  0  0  0  0  0  0  0
    0.4990   -1.2504   -0.0791 C   0  0  0  0  0  0  0  0  0  0  0  0
   -3.0167    0.3864    0.0282 H   0  0  0  0  0  0  0  0  0  0  0  0
   -2.3701    0.1156   -1.6750 H   0  0  0  0  0  0  0  0  0  0  0  0
   -2.5088    1.7553   -0.9961 H   0  0  0  0  0  0  0  0  0  0  0  0
   -0.7318    1.5430    0.4248 H   0  0  0  0  0  0  0  0  0  0  0  0
    1.5126   -0.6261   -1.8892 H   0  0  0  0  0  0  0  0  0  0  0  0
    3.0283   -0.0873   -0.2468 H   0  0  0  0  0  0  0  0  0  0  0  0
    2.2064    1.5523   -0.3241 H   0  0  0  0  0  0  0  0  0  0  0  0
    0.6738   -1.3265    2.1804 H   0  0  0  0  0  0  0  0  0  0  0  0
   -1.4957   -1.1322    0.9805 H   0  0  0  0  0  0  0  0  0  0  0  0
    0.5663   -2.3043   -0.3202 H   0  0  0  0  0  0  0  0  0  0  0  0
  1  2  1  0
  2  3  1  0
  3  4  1  0
  4  5  1  0
  5  6  1  0
  6  7  1  0
  7  8  1  0
  8  9  1  0
  8  2  1  0
  9  4  1  0
  9  7  1  0
  1 10  1  0
  1 11  1  0
  1 12  1  0
  2 13  1  0
  4 14  1  0
  5 15  1  0
  5 16  1  0
  7 17  1  0
  8 18  1  0
  9 19  1  0
M  END
