
     RDKit          3D

 20 20  0  0  0  0  0  0  0  0999 V2000
    2.2193    0.0535    0.0896 C   0  0  0  0  0  0  0  0  0  0  0  0
    0.9752   -0.7077   -0.2031 C   0  0  0  0  0  0  0  0  0  0  0  0
    0.5942   -1.5085    0.8965 O   0  0  0  0  0  0  0  0  0  0  0  0
   -0.1493   -0.4179    1.3598 C   0  0  0  0  0  0  0  0  0  0  0  0
   -0.3262    0.0132   -0.0586 C   0  0  0  0  0  0  0  0  0  0  0  0
   -0.3001    1.4990   -0.2412 C   0  0  0  0  0  0  0  0  0  0  0  0
   -1.4429   -0.6606   -0.7996 C   0  0  0  0  0  0  0  0  0  0  0  0
   -2.5925    0.0873   -0.5976 O   0  0  0  0  0  0  0  0  0  0  0  0
    3.0313   -0.6936    0.3157 H   0  0  0  0  0  0  0  0  0  0  0  0
    2.1624    0.7044    0.9718 H   0  0  0  0  0  0  0  0  0  0  0  0
    2.5564    0.5930   -0.8101 H   0  0  0  0  0  0  0  0  0  0  0  0
    1.0969   -1.3369   -1.0997 H   0  0  0  0  0  0  0  0  0  0  0  0
    0.4185    0.3198    1.9579 H   0  0  0  0  0  0  0  0  0  0  0  0
   -1.0924   -0.6523    1.8570 H   0  0  0  0  0  0  0  0  0  0  0  0
   -0.8968    1.9560    0.5854 H   0  0  0  0  0  0  0  0  0  0  0  0
    0.6999    1.9392   -0.1956 H   0  0  0  0  0  0  0  0  0  0  0  0
   -0.8594    1.7547   -1.1770 H   0  0  0  0  0  0  0  0  0  0  0  0
   -1.2284   -0.6856   -1.8852 H   0  0  0  0  0  0  0  0  0  0  0  0
   -1.5206   -1.6976   -0.4137 H   0  0  0  0  0  0  0  0  0  0  0  0
   -3.3455   -0.5593   -0.5525 H   0  0  0  0  0  0  0  0  0  0  0  0
  1  2  1  0
  2  3  1  0
  3  4  1  0
  4  5  1  0
  5  6  1  0
  5  7  1  0
  7  8  1  0
  5  2  1  0
  1  9  1  0
  1 10  1  0
  1 11  1  0
  2 12  1  0
  4 13  1  0
  4 14  1  0
  6 15  1  0
  6 16  1  0
  6 17  1  0
  7 18  1  0
  7 19  1  0
  8 20  1  0
M  END
