
     RDKit          3D

 23 24  0  0  0  0  0  0  0  0999 V2000
    3.5509   -0.1788    0.4962 C   0  0  0  0  0  0  0  0  0  0  0  0
    2.1660   -0.3903   -0.0447 C   0  0  0  0  0  0  0  0  0  0  0  0
    1.5731    0.7909   -0.5240 O   0  0  0  0  0  0  0  0  0  0  0  0
    0.9801    0.2249    0.6346 C   0  0  0  0  0  0  0  0  0  0  0  0
   -0.3052   -0.5385    0.4717 C   0  0  0  0  0  0  0  0  0  0  0  0
   -0.7440   -0.7004   -0.9655 C   0  0  0  0  0  0  0  0  0  0  0  0
   -1.5449    0.1014    0.0006 C   0  0  0  0  0  0  0  0  0  0  0  0
   -1.6209    1.5968   -0.0959 C   0  0  0  0  0  0  0  0  0  0  0  0
   -2.8655   -0.5479    0.3997 C   0  0  0  0  0  0  0  0  0  0  0  0
    3.8959   -1.0673    1.0683 H   0  0  0  0  0  0  0  0  0  0  0  0
    3.6515    0.7457    1.0906 H   0  0  0  0  0  0  0  0  0  0  0  0
    4.2369   -0.1351   -0.3995 H   0  0  0  0  0  0  0  0  0  0  0  0
    2.0413   -1.3057   -0.6358 H   0  0  0  0  0  0  0  0  0  0  0  0
    1.1363    0.8370    1.5434 H   0  0  0  0  0  0  0  0  0  0  0  0
   -0.4279   -1.3831    1.1752 H   0  0  0  0  0  0  0  0  0  0  0  0
   -1.0450   -1.7281   -1.2198 H   0  0  0  0  0  0  0  0  0  0  0  0
   -0.1589   -0.2070   -1.7668 H   0  0  0  0  0  0  0  0  0  0  0  0
   -0.6318    2.0879   -0.0542 H   0  0  0  0  0  0  0  0  0  0  0  0
   -2.1666    1.9486   -0.9924 H   0  0  0  0  0  0  0  0  0  0  0  0
   -2.1884    1.9566    0.7899 H   0  0  0  0  0  0  0  0  0  0  0  0
   -3.5075    0.1614    0.9175 H   0  0  0  0  0  0  0  0  0  0  0  0
   -2.6652   -1.4283    1.0422 H   0  0  0  0  0  0  0  0  0  0  0  0
   -3.3602   -0.8406   -0.5622 H   0  0  0  0  0  0  0  0  0  0  0  0
  1  2  1  0
  2  3  1  0
  3  4  1  0
  4  5  1  0
  5  6  1  0
  6  7  1  0
  7  8  1  0
  7  9  1  0
  4  2  1  0
  7  5  1  0
  1 10  1  0
  1 11  1  0
  1 12  1  0
  2 13  1  0
  4 14  1  0
  5 15  1  0
  6 16  1  0
  6 17  1  0
  8 18  1  0
  8 19  1  0
  8 20  1  0
  9 21  1  0
  9 22  1  0
  9 23  1  0
M  END
