
     RDKit          3D

 19 21  0  0  0  0  0  0  0  0999 V2000
    2.1853    0.3993    0.3211 C   0  0  0  0  0  0  0  0  0  0  0  0
    1.0312   -0.6003    0.4684 C   0  0  0  0  0  0  0  0  0  0  0  0
    0.3066   -0.2845    1.5853 O   0  0  0  0  0  0  0  0  0  0  0  0
   -0.7977    0.4610    1.2295 C   0  0  0  0  0  0  0  0  0  0  0  0
   -1.7284   -0.2264    0.2739 C   0  0  0  0  0  0  0  0  0  0  0  0
   -1.0933   -1.3134   -0.5688 C   0  0  0  0  0  0  0  0  0  0  0  0
    0.1129   -0.4008   -0.7174 C   0  0  0  0  0  0  0  0  0  0  0  0
   -0.7432    0.7206   -0.2118 C   0  0  0  0  0  0  0  0  0  0  0  0
   -0.9370    1.8796   -0.8393 O   0  0  0  0  0  0  0  0  0  0  0  0
    2.5685    0.7066    1.3272 H   0  0  0  0  0  0  0  0  0  0  0  0
    3.0253   -0.0425   -0.2225 H   0  0  0  0  0  0  0  0  0  0  0  0
    1.8027    1.2691   -0.2571 H   0  0  0  0  0  0  0  0  0  0  0  0
    1.4908   -1.6037    0.4762 H   0  0  0  0  0  0  0  0  0  0  0  0
   -1.1539    1.2721    1.8732 H   0  0  0  0  0  0  0  0  0  0  0  0
   -2.7958   -0.0500    0.2635 H   0  0  0  0  0  0  0  0  0  0  0  0
   -1.5867   -1.4864   -1.5406 H   0  0  0  0  0  0  0  0  0  0  0  0
   -0.8572   -2.2466   -0.0585 H   0  0  0  0  0  0  0  0  0  0  0  0
    0.5585   -0.3208   -1.6943 H   0  0  0  0  0  0  0  0  0  0  0  0
   -1.3886    1.8671   -1.7080 H   0  0  0  0  0  0  0  0  0  0  0  0
  1  2  1  0
  2  3  1  0
  3  4  1  0
  4  5  1  0
  5  6  1  0
  6  7  1  0
  7  8  1  0
  8  9  1  0
  7  2  1  0
  8  4  1  0
  8  5  1  0
  1 10  1  0
  1 11  1  0
  1 12  1  0
  2 13  1  0
  4 14  1  0
  5 15  1  0
  6 16  1  0
  6 17  1  0
  7 18  1  0
  9 19  1  0
M  END
