
     RDKit          3D

 21 22  0  0  0  0  0  0  0  0999 V2000
   -2.8103   -0.1549   -0.2339 C   0  0  0  0  0  0  0  0  0  0  0  0
   -1.5650    0.5681   -0.6399 C   0  0  0  0  0  0  0  0  0  0  0  0
   -0.7389    0.0944   -1.6301 O   0  0  0  0  0  0  0  0  0  0  0  0
   -0.3059   -0.1426   -0.4087 C   0  0  0  0  0  0  0  0  0  0  0  0
   -0.1627   -1.4244    0.2902 C   0  0  0  0  0  0  0  0  0  0  0  0
    1.1450   -0.8913    0.8919 C   0  0  0  0  0  0  0  0  0  0  0  0
    0.7303    0.4811    0.3883 C   0  0  0  0  0  0  0  0  0  0  0  0
    1.8802    1.1701   -0.2547 C   0  0  0  0  0  0  0  0  0  0  0  0
    2.6335    0.3167   -1.0678 O   0  0  0  0  0  0  0  0  0  0  0  0
   -3.1590   -0.9059   -0.9630 H   0  0  0  0  0  0  0  0  0  0  0  0
   -2.6707   -0.6789    0.7548 H   0  0  0  0  0  0  0  0  0  0  0  0
   -3.6099    0.5944   -0.0434 H   0  0  0  0  0  0  0  0  0  0  0  0
   -1.5713    1.6871   -0.5667 H   0  0  0  0  0  0  0  0  0  0  0  0
   -0.8752   -1.6016    1.1154 H   0  0  0  0  0  0  0  0  0  0  0  0
   -0.0079   -2.3451   -0.2748 H   0  0  0  0  0  0  0  0  0  0  0  0
    2.0056   -1.3026    0.3240 H   0  0  0  0  0  0  0  0  0  0  0  0
    1.2113   -0.9741    1.9832 H   0  0  0  0  0  0  0  0  0  0  0  0
    0.3272    1.0669    1.2391 H   0  0  0  0  0  0  0  0  0  0  0  0
    2.5841    1.4761    0.5743 H   0  0  0  0  0  0  0  0  0  0  0  0
    1.6124    2.1155   -0.7663 H   0  0  0  0  0  0  0  0  0  0  0  0
    3.3473    0.8510   -1.4841 H   0  0  0  0  0  0  0  0  0  0  0  0
  1  2  1  0
  2  3  1  0
  3  4  1  0
  4  5  1  0
  5  6  1  0
  6  7  1  0
  7  8  1  0
  8  9  1  0
  4  2  1  0
  7  4  1  0
  1 10  1  0
  1 11  1  0
  1 12  1  0
  2 13  1  0
  5 14  1  0
  5 15  1  0
  6 16  1  0
  6 17  1  0
  7 18  1  0
  8 19  1  0
  8 20  1  0
  9 21  1  0
M  END
