
     RDKit          3D

 18 19  0  0  0  0  0  0  0  0999 V2000
    2.5427   -0.3751    0.1363 C   0  0  0  0  0  0  0  0  0  0  0  0
    1.2816    0.3098    0.6361 C   0  0  0  0  0  0  0  0  0  0  0  0
    0.8718    1.3558   -0.3511 O   0  0  0  0  0  0  0  0  0  0  0  0
    0.0859    0.2883   -0.0042 C   0  0  0  0  0  0  0  0  0  0  0  0
   -0.5494   -0.6164   -0.9699 C   0  0  0  0  0  0  0  0  0  0  0  0
   -1.7840   -0.6781   -0.0772 C   0  0  0  0  0  0  0  0  0  0  0  0
   -1.2450    0.5759    0.6162 C   0  0  0  0  0  0  0  0  0  0  0  0
   -1.7959    1.7311    0.0288 O   0  0  0  0  0  0  0  0  0  0  0  0
    2.6795   -0.2675   -0.9552 H   0  0  0  0  0  0  0  0  0  0  0  0
    3.4618    0.0941    0.5929 H   0  0  0  0  0  0  0  0  0  0  0  0
    2.5222   -1.4745    0.3326 H   0  0  0  0  0  0  0  0  0  0  0  0
    1.4295    0.7574    1.6516 H   0  0  0  0  0  0  0  0  0  0  0  0
   -0.1573   -1.6168   -1.1303 H   0  0  0  0  0  0  0  0  0  0  0  0
   -0.7701   -0.1199   -1.9597 H   0  0  0  0  0  0  0  0  0  0  0  0
   -1.7950   -1.5467    0.6038 H   0  0  0  0  0  0  0  0  0  0  0  0
   -2.7381   -0.4675   -0.6053 H   0  0  0  0  0  0  0  0  0  0  0  0
   -1.3123    0.5612    1.7070 H   0  0  0  0  0  0  0  0  0  0  0  0
   -2.7278    1.4889   -0.1972 H   0  0  0  0  0  0  0  0  0  0  0  0
  1  2  1  0
  2  3  1  0
  3  4  1  0
  4  5  1  0
  5  6  1  0
  6  7  1  0
  7  8  1  0
  4  2  1  0
  7  4  1  0
  1  9  1  0
  1 10  1  0
  1 11  1  0
  2 12  1  0
  5 13  1  0
  5 14  1  0
  6 15  1  0
  6 16  1  0
  7 17  1  0
  8 18  1  0
M  END
