
     RDKit          3D

 21 22  0  0  0  0  0  0  0  0999 V2000
    2.2468    1.0982   -0.4209 C   0  0  0  0  0  0  0  0  0  0  0  0
    1.3676   -0.0891   -0.6307 C   0  0  0  0  0  0  0  0  0  0  0  0
    0.1034    0.2809   -1.1649 O   0  0  0  0  0  0  0  0  0  0  0  0
   -0.7997   -0.1967   -0.2323 C   0  0  0  0  0  0  0  0  0  0  0  0
   -2.2223   -0.0774   -0.4529 C   0  0  0  0  0  0  0  0  0  0  0  0
   -2.7429    1.1752   -0.5986 O   0  0  0  0  0  0  0  0  0  0  0  0
   -0.1888    0.2714    1.0666 C   0  0  0  0  0  0  0  0  0  0  0  0
    0.9189   -0.7111    0.6511 C   0  0  0  0  0  0  0  0  0  0  0  0
   -0.2488   -1.5629    0.1424 C   0  0  0  0  0  0  0  0  0  0  0  0
    3.3253    0.7981   -0.5262 H   0  0  0  0  0  0  0  0  0  0  0  0
    2.0305    1.9375   -1.1154 H   0  0  0  0  0  0  0  0  0  0  0  0
    2.1459    1.4795    0.6200 H   0  0  0  0  0  0  0  0  0  0  0  0
    1.7897   -0.8410   -1.3313 H   0  0  0  0  0  0  0  0  0  0  0  0
   -2.5319   -0.6828   -1.3341 H   0  0  0  0  0  0  0  0  0  0  0  0
   -2.7692   -0.5575    0.4124 H   0  0  0  0  0  0  0  0  0  0  0  0
   -2.7067    1.7431    0.1920 H   0  0  0  0  0  0  0  0  0  0  0  0
   -0.6605   -0.0740    1.9810 H   0  0  0  0  0  0  0  0  0  0  0  0
    0.1441    1.3275    1.0866 H   0  0  0  0  0  0  0  0  0  0  0  0
    1.5673   -1.0925    1.3744 H   0  0  0  0  0  0  0  0  0  0  0  0
   -0.7492   -2.0345    0.9994 H   0  0  0  0  0  0  0  0  0  0  0  0
   -0.0197   -2.1920   -0.7185 H   0  0  0  0  0  0  0  0  0  0  0  0
  1  2  1  0
  2  3  1  0
  3  4  1  0
  4  5  1  0
  5  6  1  0
  4  7  1  0
  7  8  1  0
  8  9  1  0
  8  2  1  0
  9  4  1  0
  1 10  1  0
  1 11  1  0
  1 12  1  0
  2 13  1  0
  5 14  1  0
  5 15  1  0
  6 16  1  0
  7 17  1  0
  7 18  1  0
  8 19  1  0
  9 20  1  0
  9 21  1  0
M  END
