
     RDKit          3D

 21 21  0  0  0  0  0  0  0  0999 V2000
    2.2900   -0.7048   -0.3965 C   0  0  0  0  0  0  0  0  0  0  0  0
    1.2578   -0.0107    0.4947 C   0  0  0  0  0  0  0  0  0  0  0  0
    1.2400    1.3213    0.2801 O   0  0  0  0  0  0  0  0  0  0  0  0
    0.3497    1.8374   -0.5836 C   0  0  0  0  0  0  0  0  0  0  0  0
   -0.6863    1.0384   -0.9788 O   0  0  0  0  0  0  0  0  0  0  0  0
   -1.1591    0.2735    0.0876 C   0  0  0  0  0  0  0  0  0  0  0  0
   -2.4396   -0.4260   -0.2906 C   0  0  0  0  0  0  0  0  0  0  0  0
   -0.0324   -0.7344    0.3599 C   0  0  0  0  0  0  0  0  0  0  0  0
   -0.3751   -1.5054    1.4586 O   0  0  0  0  0  0  0  0  0  0  0  0
    1.9792   -0.5033   -1.4419 H   0  0  0  0  0  0  0  0  0  0  0  0
    2.3012   -1.7920   -0.1516 H   0  0  0  0  0  0  0  0  0  0  0  0
    3.2715   -0.2340   -0.2172 H   0  0  0  0  0  0  0  0  0  0  0  0
    1.6317   -0.1905    1.5467 H   0  0  0  0  0  0  0  0  0  0  0  0
   -0.1069    2.7616   -0.1197 H   0  0  0  0  0  0  0  0  0  0  0  0
    0.8722    2.1905   -1.5149 H   0  0  0  0  0  0  0  0  0  0  0  0
   -1.2824    0.9339    0.9517 H   0  0  0  0  0  0  0  0  0  0  0  0
   -2.4509   -1.4293    0.2041 H   0  0  0  0  0  0  0  0  0  0  0  0
   -2.5204   -0.6238   -1.3732 H   0  0  0  0  0  0  0  0  0  0  0  0
   -3.3477    0.1110    0.0823 H   0  0  0  0  0  0  0  0  0  0  0  0
   -0.0247   -1.3936   -0.5514 H   0  0  0  0  0  0  0  0  0  0  0  0
   -0.7677   -0.9197    2.1539 H   0  0  0  0  0  0  0  0  0  0  0  0
  1  2  1  0
  2  3  1  0
  3  4  1  0
  4  5  1  0
  5  6  1  0
  6  7  1  0
  6  8  1  0
  8  9  1  0
  8  2  1  0
  1 10  1  0
  1 11  1  0
  1 12  1  0
  2 13  1  0
  4 14  1  0
  4 15  1  0
  6 16  1  0
  7 17  1  0
  7 18  1  0
  7 19  1  0
  8 20  1  0
  9 21  1  0
M  END
