
     RDKit          3D

 17 18  0  0  0  0  0  0  0  0999 V2000
    2.0518   -0.2739    0.1785 C   0  0  0  0  0  0  0  0  0  0  0  0
    0.6442   -0.5980    0.6116 C   0  0  0  0  0  0  0  0  0  0  0  0
    0.1355    0.2927    1.5247 O   0  0  0  0  0  0  0  0  0  0  0  0
   -0.6246    1.3067    0.9552 C   0  0  0  0  0  0  0  0  0  0  0  0
   -1.4818    0.7051   -0.1298 C   0  0  0  0  0  0  0  0  0  0  0  0
   -0.6050    0.3929   -1.1945 O   0  0  0  0  0  0  0  0  0  0  0  0
   -0.3048   -0.7737   -0.5287 C   0  0  0  0  0  0  0  0  0  0  0  0
   -1.6939   -0.7390    0.0422 C   0  0  0  0  0  0  0  0  0  0  0  0
   -2.4994   -1.5572    0.4223 O   0  0  0  0  0  0  0  0  0  0  0  0
    2.4820   -1.1494   -0.3461 H   0  0  0  0  0  0  0  0  0  0  0  0
    2.6489   -0.1517    1.1186 H   0  0  0  0  0  0  0  0  0  0  0  0
    2.1381    0.6696   -0.3654 H   0  0  0  0  0  0  0  0  0  0  0  0
    0.7007   -1.5900    1.1423 H   0  0  0  0  0  0  0  0  0  0  0  0
    0.1052    1.9980    0.4580 H   0  0  0  0  0  0  0  0  0  0  0  0
   -1.1904    1.8323    1.7302 H   0  0  0  0  0  0  0  0  0  0  0  0
   -2.3760    1.2611   -0.4143 H   0  0  0  0  0  0  0  0  0  0  0  0
   -0.1305   -1.6255   -1.1985 H   0  0  0  0  0  0  0  0  0  0  0  0
  1  2  1  0
  2  3  1  0
  3  4  1  0
  4  5  1  0
  5  6  1  0
  6  7  1  0
  7  8  1  0
  8  9  2  0
  7  2  1  0
  8  5  1  0
  1 10  1  0
  1 11  1  0
  1 12  1  0
  2 13  1  0
  4 14  1  0
  4 15  1  0
  5 16  1  0
  7 17  1  0
M  END
