
     RDKit          3D

 23 24  0  0  0  0  0  0  0  0999 V2000
   -2.0071    1.4018   -0.5242 C   0  0  0  0  0  0  0  0  0  0  0  0
   -0.7877    0.6706   -1.0332 C   0  0  0  0  0  0  0  0  0  0  0  0
    0.3746    1.4027   -0.6870 O   0  0  0  0  0  0  0  0  0  0  0  0
    0.9523    0.3711    0.0731 C   0  0  0  0  0  0  0  0  0  0  0  0
    1.2708    0.7492    1.4975 C   0  0  0  0  0  0  0  0  0  0  0  0
    2.1057   -0.3085   -0.6589 C   0  0  0  0  0  0  0  0  0  0  0  0
   -0.3026   -0.3892   -0.1342 C   0  0  0  0  0  0  0  0  0  0  0  0
   -0.3945   -1.8163   -0.3484 C   0  0  0  0  0  0  0  0  0  0  0  0
   -1.0480   -1.1223    0.8434 C   0  0  0  0  0  0  0  0  0  0  0  0
   -2.4652    2.0620   -1.2849 H   0  0  0  0  0  0  0  0  0  0  0  0
   -1.8093    1.9648    0.3956 H   0  0  0  0  0  0  0  0  0  0  0  0
   -2.8002    0.6428   -0.2768 H   0  0  0  0  0  0  0  0  0  0  0  0
   -0.8036    0.4646   -2.1203 H   0  0  0  0  0  0  0  0  0  0  0  0
    0.3742    1.1820    1.9466 H   0  0  0  0  0  0  0  0  0  0  0  0
    1.6217   -0.1602    2.0076 H   0  0  0  0  0  0  0  0  0  0  0  0
    2.0812    1.4945    1.4985 H   0  0  0  0  0  0  0  0  0  0  0  0
    2.2834   -1.3280   -0.2947 H   0  0  0  0  0  0  0  0  0  0  0  0
    1.7475   -0.4168   -1.7224 H   0  0  0  0  0  0  0  0  0  0  0  0
    3.0360    0.2510   -0.6051 H   0  0  0  0  0  0  0  0  0  0  0  0
   -1.0273   -2.1853   -1.1676 H   0  0  0  0  0  0  0  0  0  0  0  0
    0.4366   -2.5059   -0.0401 H   0  0  0  0  0  0  0  0  0  0  0  0
   -0.6664   -1.3346    1.8561 H   0  0  0  0  0  0  0  0  0  0  0  0
   -2.1720   -1.0900    0.7793 H   0  0  0  0  0  0  0  0  0  0  0  0
  1  2  1  0
  2  3  1  0
  3  4  1  0
  4  5  1  0
  4  6  1  0
  4  7  1  0
  7  8  1  0
  8  9  1  0
  7  2  1  0
  9  7  1  0
  1 10  1  0
  1 11  1  0
  1 12  1  0
  2 13  1  0
  5 14  1  0
  5 15  1  0
  5 16  1  0
  6 17  1  0
  6 18  1  0
  6 19  1  0
  8 20  1  0
  8 21  1  0
  9 22  1  0
  9 23  1  0
M  END
