
     RDKit          3D

 17 18  0  0  0  0  0  0  0  0999 V2000
    2.0288   -0.4027    0.8551 C   0  0  0  0  0  0  0  0  0  0  0  0
    1.0368   -0.2009   -0.2800 C   0  0  0  0  0  0  0  0  0  0  0  0
    1.0168    1.2263   -0.5086 O   0  0  0  0  0  0  0  0  0  0  0  0
   -0.3351    1.6281   -0.6547 C   0  0  0  0  0  0  0  0  0  0  0  0
   -0.8095    2.7805   -0.4841 O   0  0  0  0  0  0  0  0  0  0  0  0
   -0.9693    0.3696   -1.0405 C   0  0  0  0  0  0  0  0  0  0  0  0
   -1.5924   -0.6781   -0.3619 C   0  0  0  0  0  0  0  0  0  0  0  0
   -2.7916   -0.3812    0.3322 O   0  0  0  0  0  0  0  0  0  0  0  0
   -0.3502   -0.3882    0.2103 C   0  0  0  0  0  0  0  0  0  0  0  0
    2.0720    0.5218    1.4987 H   0  0  0  0  0  0  0  0  0  0  0  0
    3.0526   -0.6095    0.4732 H   0  0  0  0  0  0  0  0  0  0  0  0
    1.6604   -1.2016    1.5338 H   0  0  0  0  0  0  0  0  0  0  0  0
    1.3119   -0.7539   -1.1740 H   0  0  0  0  0  0  0  0  0  0  0  0
   -0.5130    0.0771   -2.0412 H   0  0  0  0  0  0  0  0  0  0  0  0
   -1.7235   -1.6814   -0.8589 H   0  0  0  0  0  0  0  0  0  0  0  0
   -2.6718   -0.4844    1.3056 H   0  0  0  0  0  0  0  0  0  0  0  0
   -0.4230    0.1783    1.1949 H   0  0  0  0  0  0  0  0  0  0  0  0
  1  2  1  0
  2  3  1  0
  3  4  1  0
  4  5  2  0
  4  6  1  0
  6  7  1  0
  7  8  1  0
  7  9  1  0
  9  2  1  0
  9  6  1  0
  1 10  1  0
  1 11  1  0
  1 12  1  0
  2 13  1  0
  6 14  1  0
  7 15  1  0
  8 16  1  0
  9 17  1  0
M  END
