
     RDKit          3D

 21 23  0  0  0  0  0  0  0  0999 V2000
    2.5024    0.4443    0.3915 C   0  0  0  0  0  0  0  0  0  0  0  0
    1.1355    0.5259   -0.2790 C   0  0  0  0  0  0  0  0  0  0  0  0
    1.1540   -0.2187   -1.4512 O   0  0  0  0  0  0  0  0  0  0  0  0
   -0.0959   -0.8921   -1.5102 C   0  0  0  0  0  0  0  0  0  0  0  0
   -1.3662   -0.3529   -1.0925 C   0  0  0  0  0  0  0  0  0  0  0  0
   -2.1112   -0.1085    0.1922 C   0  0  0  0  0  0  0  0  0  0  0  0
   -1.0649    0.7035    0.9457 C   0  0  0  0  0  0  0  0  0  0  0  0
    0.1704   -0.1272    0.6797 C   0  0  0  0  0  0  0  0  0  0  0  0
   -0.3769   -1.1838   -0.2352 C   0  0  0  0  0  0  0  0  0  0  0  0
    2.3481    0.6043    1.4840 H   0  0  0  0  0  0  0  0  0  0  0  0
    3.2089    1.1891   -0.0043 H   0  0  0  0  0  0  0  0  0  0  0  0
    2.9036   -0.5936    0.2854 H   0  0  0  0  0  0  0  0  0  0  0  0
    0.8894    1.5908   -0.4412 H   0  0  0  0  0  0  0  0  0  0  0  0
   -0.1248   -1.5564   -2.4128 H   0  0  0  0  0  0  0  0  0  0  0  0
   -1.2318    0.6877   -1.4556 H   0  0  0  0  0  0  0  0  0  0  0  0
   -3.0314    0.4274   -0.0059 H   0  0  0  0  0  0  0  0  0  0  0  0
   -2.4101   -1.0251    0.7438 H   0  0  0  0  0  0  0  0  0  0  0  0
   -1.0035    1.6883    0.4230 H   0  0  0  0  0  0  0  0  0  0  0  0
   -1.2954    0.7963    2.0180 H   0  0  0  0  0  0  0  0  0  0  0  0
    0.6215   -0.4961    1.5969 H   0  0  0  0  0  0  0  0  0  0  0  0
   -0.8218   -2.1031    0.1277 H   0  0  0  0  0  0  0  0  0  0  0  0
  1  2  1  0
  2  3  1  0
  3  4  1  0
  4  5  1  0
  5  6  1  0
  6  7  1  0
  7  8  1  0
  8  9  1  0
  8  2  1  0
  9  4  1  0
  9  5  1  0
  1 10  1  0
  1 11  1  0
  1 12  1  0
  2 13  1  0
  4 14  1  0
  5 15  1  0
  6 16  1  0
  6 17  1  0
  7 18  1  0
  7 19  1  0
  8 20  1  0
  9 21  1  0
M  END
