
     RDKit          3D

 16 16  0  0  0  0  0  0  0  0999 V2000
    1.8842   -0.5319   -0.1566 C   0  0  0  0  0  0  0  0  0  0  0  0
    0.3984   -0.5850    0.0748 C   0  0  0  0  0  0  0  0  0  0  0  0
   -0.3088   -1.0445   -1.0171 O   0  0  0  0  0  0  0  0  0  0  0  0
   -1.6307   -0.7565   -0.6023 C   0  0  0  0  0  0  0  0  0  0  0  0
   -1.4971    0.6848   -0.2707 C   0  0  0  0  0  0  0  0  0  0  0  0
   -2.3392    1.5309   -0.3549 O   0  0  0  0  0  0  0  0  0  0  0  0
   -0.0965    0.8632    0.1897 C   0  0  0  0  0  0  0  0  0  0  0  0
   -0.0308    1.1769    1.5504 O   0  0  0  0  0  0  0  0  0  0  0  0
    2.3088    0.1160    0.6387 H   0  0  0  0  0  0  0  0  0  0  0  0
    2.3736   -1.5073   -0.1078 H   0  0  0  0  0  0  0  0  0  0  0  0
    2.0401   -0.0469   -1.1488 H   0  0  0  0  0  0  0  0  0  0  0  0
    0.1060   -1.1587    0.9678 H   0  0  0  0  0  0  0  0  0  0  0  0
   -1.8388   -1.3000    0.3646 H   0  0  0  0  0  0  0  0  0  0  0  0
   -2.3656   -0.9727   -1.3752 H   0  0  0  0  0  0  0  0  0  0  0  0
    0.4951    1.5326   -0.4345 H   0  0  0  0  0  0  0  0  0  0  0  0
    0.5013    1.9993    1.6820 H   0  0  0  0  0  0  0  0  0  0  0  0
  1  2  1  0
  2  3  1  0
  3  4  1  0
  4  5  1  0
  5  6  2  0
  5  7  1  0
  7  8  1  0
  7  2  1  0
  1  9  1  0
  1 10  1  0
  1 11  1  0
  2 12  1  0
  4 13  1  0
  4 14  1  0
  7 15  1  0
  8 16  1  0
M  END
