
     RDKit          3D

 23 23  0  0  0  0  0  0  0  0999 V2000
   -0.3394    2.2624   -0.3370 C   0  0  0  0  0  0  0  0  0  0  0  0
   -0.0106    0.9346   -0.9809 C   0  0  0  0  0  0  0  0  0  0  0  0
   -1.1640    0.2907   -1.3804 O   0  0  0  0  0  0  0  0  0  0  0  0
   -0.8462   -0.7963   -0.5331 C   0  0  0  0  0  0  0  0  0  0  0  0
   -1.9807   -1.1407    0.3438 C   0  0  0  0  0  0  0  0  0  0  0  0
    0.3613   -0.1578   -0.0193 C   0  0  0  0  0  0  0  0  0  0  0  0
    0.4477    0.3360    1.3727 C   0  0  0  0  0  0  0  0  0  0  0  0
    1.6662   -0.8360   -0.4309 C   0  0  0  0  0  0  0  0  0  0  0  0
    1.9895   -1.8486    0.4807 O   0  0  0  0  0  0  0  0  0  0  0  0
   -1.0047    2.8149   -1.0536 H   0  0  0  0  0  0  0  0  0  0  0  0
    0.5424    2.8700   -0.1219 H   0  0  0  0  0  0  0  0  0  0  0  0
   -0.9787    2.0762    0.5599 H   0  0  0  0  0  0  0  0  0  0  0  0
    0.6997    1.0620   -1.8040 H   0  0  0  0  0  0  0  0  0  0  0  0
   -0.6012   -1.6650   -1.2149 H   0  0  0  0  0  0  0  0  0  0  0  0
   -2.9257   -0.6212    0.0037 H   0  0  0  0  0  0  0  0  0  0  0  0
   -1.8756   -0.9079    1.4019 H   0  0  0  0  0  0  0  0  0  0  0  0
   -2.2510   -2.2354    0.2889 H   0  0  0  0  0  0  0  0  0  0  0  0
    1.1234   -0.3411    1.9474 H   0  0  0  0  0  0  0  0  0  0  0  0
   -0.4871    0.5042    1.8919 H   0  0  0  0  0  0  0  0  0  0  0  0
    0.9861    1.3292    1.3545 H   0  0  0  0  0  0  0  0  0  0  0  0
    1.5092   -1.3253   -1.4045 H   0  0  0  0  0  0  0  0  0  0  0  0
    2.5054   -0.1315   -0.4745 H   0  0  0  0  0  0  0  0  0  0  0  0
    2.6342   -2.4735    0.1098 H   0  0  0  0  0  0  0  0  0  0  0  0
  1  2  1  0
  2  3  1  0
  3  4  1  0
  4  5  1  0
  4  6  1  0
  6  7  1  0
  6  8  1  0
  8  9  1  0
  6  2  1  0
  1 10  1  0
  1 11  1  0
  1 12  1  0
  2 13  1  0
  4 14  1  0
  5 15  1  0
  5 16  1  0
  5 17  1  0
  7 18  1  0
  7 19  1  0
  7 20  1  0
  8 21  1  0
  8 22  1  0
  9 23  1  0
M  END
