
     RDKit          3D

 21 22  0  0  0  0  0  0  0  0999 V2000
    2.3233    0.7405    0.0631 C   0  0  0  0  0  0  0  0  0  0  0  0
    1.1552   -0.2120   -0.0801 C   0  0  0  0  0  0  0  0  0  0  0  0
    0.5357   -0.2980    1.1710 O   0  0  0  0  0  0  0  0  0  0  0  0
   -0.3651   -1.3511    1.0854 C   0  0  0  0  0  0  0  0  0  0  0  0
   -1.3810   -1.2108    0.0192 C   0  0  0  0  0  0  0  0  0  0  0  0
   -1.2217   -0.0358   -0.8765 C   0  0  0  0  0  0  0  0  0  0  0  0
   -0.8568    1.3096   -0.3985 C   0  0  0  0  0  0  0  0  0  0  0  0
   -0.9073    1.4937    0.9851 O   0  0  0  0  0  0  0  0  0  0  0  0
    0.1640    0.4363   -1.0150 C   0  0  0  0  0  0  0  0  0  0  0  0
    2.6286    1.0058   -0.9913 H   0  0  0  0  0  0  0  0  0  0  0  0
    3.1389    0.2663    0.6258 H   0  0  0  0  0  0  0  0  0  0  0  0
    1.9152    1.6481    0.5726 H   0  0  0  0  0  0  0  0  0  0  0  0
    1.4411   -1.1945   -0.4777 H   0  0  0  0  0  0  0  0  0  0  0  0
   -0.8206   -1.4795    2.1007 H   0  0  0  0  0  0  0  0  0  0  0  0
    0.2662   -2.2785    0.9520 H   0  0  0  0  0  0  0  0  0  0  0  0
   -1.3339   -2.1340   -0.6299 H   0  0  0  0  0  0  0  0  0  0  0  0
   -2.3899   -1.1989    0.4687 H   0  0  0  0  0  0  0  0  0  0  0  0
   -1.8677   -0.0597   -1.7845 H   0  0  0  0  0  0  0  0  0  0  0  0
   -1.1469    2.1966   -0.9722 H   0  0  0  0  0  0  0  0  0  0  0  0
   -1.8835    1.6470    1.1900 H   0  0  0  0  0  0  0  0  0  0  0  0
    0.6062    0.7088   -2.0078 H   0  0  0  0  0  0  0  0  0  0  0  0
  1  2  1  0
  2  3  1  0
  3  4  1  0
  4  5  1  0
  5  6  1  0
  6  7  1  0
  7  8  1  0
  7  9  1  0
  9  2  1  0
  9  6  1  0
  1 10  1  0
  1 11  1  0
  1 12  1  0
  2 13  1  0
  4 14  1  0
  4 15  1  0
  5 16  1  0
  5 17  1  0
  6 18  1  0
  7 19  1  0
  8 20  1  0
  9 21  1  0
M  END
