
     RDKit          3D

 25 25  0  0  0  0  0  0  0  0999 V2000
    1.9150    1.3285   -0.9775 C   0  0  0  0  0  0  0  0  0  0  0  0
    1.6218   -0.0886   -0.8020 C   0  0  0  0  0  0  0  0  0  0  0  0
    1.8841   -0.6449    0.4753 O   0  0  0  0  0  0  0  0  0  0  0  0
    1.1037   -1.7250   -0.0050 C   0  0  0  0  0  0  0  0  0  0  0  0
    0.2827   -0.6643   -0.7168 C   0  0  0  0  0  0  0  0  0  0  0  0
   -0.8289   -0.0648    0.0217 C   0  0  0  0  0  0  0  0  0  0  0  0
   -1.1153    1.3078   -0.5572 C   0  0  0  0  0  0  0  0  0  0  0  0
   -0.5821    0.1369    1.5010 C   0  0  0  0  0  0  0  0  0  0  0  0
   -2.1339   -0.8386   -0.0866 C   0  0  0  0  0  0  0  0  0  0  0  0
    1.3285    1.8495   -1.7347 H   0  0  0  0  0  0  0  0  0  0  0  0
    2.9893    1.4480   -1.3227 H   0  0  0  0  0  0  0  0  0  0  0  0
    1.9011    1.9516   -0.0365 H   0  0  0  0  0  0  0  0  0  0  0  0
    2.2458   -0.7112   -1.5166 H   0  0  0  0  0  0  0  0  0  0  0  0
    1.6927   -2.3086   -0.7415 H   0  0  0  0  0  0  0  0  0  0  0  0
    0.6034   -2.3047    0.7537 H   0  0  0  0  0  0  0  0  0  0  0  0
   -0.0560   -1.0831   -1.7113 H   0  0  0  0  0  0  0  0  0  0  0  0
   -0.9693    1.2075   -1.6613 H   0  0  0  0  0  0  0  0  0  0  0  0
   -2.1805    1.5771   -0.3838 H   0  0  0  0  0  0  0  0  0  0  0  0
   -0.4785    2.0995   -0.1867 H   0  0  0  0  0  0  0  0  0  0  0  0
   -1.5679    0.2415    2.0206 H   0  0  0  0  0  0  0  0  0  0  0  0
   -0.0761    1.1147    1.6307 H   0  0  0  0  0  0  0  0  0  0  0  0
   -0.0778   -0.7047    1.9780 H   0  0  0  0  0  0  0  0  0  0  0  0
   -2.8173   -0.3960   -0.8470 H   0  0  0  0  0  0  0  0  0  0  0  0
   -1.9819   -1.8889   -0.3820 H   0  0  0  0  0  0  0  0  0  0  0  0
   -2.7027   -0.8391    0.8664 H   0  0  0  0  0  0  0  0  0  0  0  0
  1  2  1  0
  2  3  1  0
  3  4  1  0
  4  5  1  0
  5  6  1  0
  6  7  1  0
  6  8  1  0
  6  9  1  0
  5  2  1  0
  1 10  1  0
  1 11  1  0
  1 12  1  0
  2 13  1  0
  4 14  1  0
  4 15  1  0
  5 16  1  0
  7 17  1  0
  7 18  1  0
  7 19  1  0
  8 20  1  0
  8 21  1  0
  8 22  1  0
  9 23  1  0
  9 24  1  0
  9 25  1  0
M  END
