
     RDKit          3D

 19 19  0  0  0  0  0  0  0  0999 V2000
   -2.2583   -0.5904    0.0142 C   0  0  0  0  0  0  0  0  0  0  0  0
   -0.8648   -0.7349    0.4323 C   0  0  0  0  0  0  0  0  0  0  0  0
    0.0392   -1.2465   -0.5277 O   0  0  0  0  0  0  0  0  0  0  0  0
    1.0242   -0.5931    0.2499 C   0  0  0  0  0  0  0  0  0  0  0  0
    2.2870   -0.2803   -0.4072 C   0  0  0  0  0  0  0  0  0  0  0  0
    0.0226    0.4570    0.5401 C   0  0  0  0  0  0  0  0  0  0  0  0
   -0.1623    1.5734   -0.3968 C   0  0  0  0  0  0  0  0  0  0  0  0
   -2.9517   -0.8199    0.8545 H   0  0  0  0  0  0  0  0  0  0  0  0
   -2.4841   -1.3783   -0.7639 H   0  0  0  0  0  0  0  0  0  0  0  0
   -2.5670    0.3584   -0.4178 H   0  0  0  0  0  0  0  0  0  0  0  0
   -0.7533   -1.3783    1.3502 H   0  0  0  0  0  0  0  0  0  0  0  0
    1.1819   -1.2382    1.1636 H   0  0  0  0  0  0  0  0  0  0  0  0
    2.5903   -1.1534   -1.0567 H   0  0  0  0  0  0  0  0  0  0  0  0
    2.3506    0.6023   -1.0276 H   0  0  0  0  0  0  0  0  0  0  0  0
    3.1009   -0.2049    0.3611 H   0  0  0  0  0  0  0  0  0  0  0  0
    0.1179    0.8080    1.6056 H   0  0  0  0  0  0  0  0  0  0  0  0
   -0.9955    1.4537   -1.1196 H   0  0  0  0  0  0  0  0  0  0  0  0
    0.7276    1.8377   -1.0143 H   0  0  0  0  0  0  0  0  0  0  0  0
   -0.4051    2.5278    0.1599 H   0  0  0  0  0  0  0  0  0  0  0  0
  1  2  1  0
  2  3  1  0
  3  4  1  0
  4  5  1  0
  4  6  1  0
  6  7  1  0
  6  2  1  0
  1  8  1  0
  1  9  1  0
  1 10  1  0
  2 11  1  0
  4 12  1  0
  5 13  1  0
  5 14  1  0
  5 15  1  0
  6 16  1  0
  7 17  1  0
  7 18  1  0
  7 19  1  0
M  END
