
     RDKit          3D

 19 21  0  0  0  0  0  0  0  0999 V2000
   -2.1452   -0.2344    1.0960 C   0  0  0  0  0  0  0  0  0  0  0  0
   -1.1135   -0.0020   -0.0093 C   0  0  0  0  0  0  0  0  0  0  0  0
   -0.6507    1.2930    0.0152 O   0  0  0  0  0  0  0  0  0  0  0  0
    0.6681    1.4018   -0.4188 C   0  0  0  0  0  0  0  0  0  0  0  0
    1.5226    0.7690    0.6912 C   0  0  0  0  0  0  0  0  0  0  0  0
    1.2747   -0.6896    0.3984 C   0  0  0  0  0  0  0  0  0  0  0  0
    0.9726   -0.7046   -1.0443 C   0  0  0  0  0  0  0  0  0  0  0  0
    0.8432    0.5884   -1.5047 O   0  0  0  0  0  0  0  0  0  0  0  0
   -0.0567   -1.0480   -0.0291 C   0  0  0  0  0  0  0  0  0  0  0  0
   -1.6146   -0.0542    2.0485 H   0  0  0  0  0  0  0  0  0  0  0  0
   -2.9451    0.5211    0.9101 H   0  0  0  0  0  0  0  0  0  0  0  0
   -2.4919   -1.2690    0.9800 H   0  0  0  0  0  0  0  0  0  0  0  0
   -1.7027   -0.1102   -0.9684 H   0  0  0  0  0  0  0  0  0  0  0  0
    0.9283    2.4459   -0.5572 H   0  0  0  0  0  0  0  0  0  0  0  0
    1.1439    1.0415    1.6921 H   0  0  0  0  0  0  0  0  0  0  0  0
    2.5660    1.0760    0.5515 H   0  0  0  0  0  0  0  0  0  0  0  0
    1.9509   -1.4578    0.7748 H   0  0  0  0  0  0  0  0  0  0  0  0
    1.2577   -1.4913   -1.7305 H   0  0  0  0  0  0  0  0  0  0  0  0
   -0.4076   -2.0757    0.1313 H   0  0  0  0  0  0  0  0  0  0  0  0
  1  2  1  0
  2  3  1  0
  3  4  1  0
  4  5  1  0
  5  6  1  0
  6  7  1  0
  7  8  1  0
  7  9  1  0
  9  2  1  0
  8  4  1  0
  9  6  1  0
  1 10  1  0
  1 11  1  0
  1 12  1  0
  2 13  1  0
  4 14  1  0
  5 15  1  0
  5 16  1  0
  6 17  1  0
  7 18  1  0
  9 19  1  0
M  END
