
     RDKit          3D

 19 20  0  0  0  0  0  0  0  0999 V2000
    2.3206   -0.0922    0.5128 C   0  0  0  0  0  0  0  0  0  0  0  0
    0.8195    0.0145    0.4184 C   0  0  0  0  0  0  0  0  0  0  0  0
    0.3341    1.2345    0.8608 O   0  0  0  0  0  0  0  0  0  0  0  0
   -0.8275    1.3746    0.0750 C   0  0  0  0  0  0  0  0  0  0  0  0
   -1.8779    0.3629    0.4385 C   0  0  0  0  0  0  0  0  0  0  0  0
   -2.0793   -0.4555   -0.6738 O   0  0  0  0  0  0  0  0  0  0  0  0
   -0.8729   -1.1215   -0.9201 C   0  0  0  0  0  0  0  0  0  0  0  0
    0.2948   -0.1398   -0.9713 C   0  0  0  0  0  0  0  0  0  0  0  0
   -0.2828    1.1211   -1.2052 O   0  0  0  0  0  0  0  0  0  0  0  0
    2.5787    0.0565    1.5912 H   0  0  0  0  0  0  0  0  0  0  0  0
    2.8644    0.6052   -0.1190 H   0  0  0  0  0  0  0  0  0  0  0  0
    2.5709   -1.1694    0.3115 H   0  0  0  0  0  0  0  0  0  0  0  0
    0.4011   -0.7606    1.1065 H   0  0  0  0  0  0  0  0  0  0  0  0
   -1.2560    2.3750    0.1495 H   0  0  0  0  0  0  0  0  0  0  0  0
   -1.5807   -0.3039    1.2693 H   0  0  0  0  0  0  0  0  0  0  0  0
   -2.8164    0.8642    0.7586 H   0  0  0  0  0  0  0  0  0  0  0  0
   -0.9150   -1.7548   -1.8215 H   0  0  0  0  0  0  0  0  0  0  0  0
   -0.7155   -1.8006   -0.0589 H   0  0  0  0  0  0  0  0  0  0  0  0
    1.0400   -0.4101   -1.7225 H   0  0  0  0  0  0  0  0  0  0  0  0
  1  2  1  0
  2  3  1  0
  3  4  1  0
  4  5  1  0
  5  6  1  0
  6  7  1  0
  7  8  1  0
  8  9  1  0
  8  2  1  0
  9  4  1  0
  1 10  1  0
  1 11  1  0
  1 12  1  0
  2 13  1  0
  4 14  1  0
  5 15  1  0
  5 16  1  0
  7 17  1  0
  7 18  1  0
  8 19  1  0
M  END
