
     RDKit          3D

 19 21  0  0  0  0  0  0  0  0999 V2000
    1.7785   -1.1042    0.1751 C   0  0  0  0  0  0  0  0  0  0  0  0
    1.0339    0.0599    0.8124 C   0  0  0  0  0  0  0  0  0  0  0  0
    1.7422    1.2532    0.5328 O   0  0  0  0  0  0  0  0  0  0  0  0
    0.7495    1.7587   -0.3353 C   0  0  0  0  0  0  0  0  0  0  0  0
   -0.0890    0.6141    0.0391 C   0  0  0  0  0  0  0  0  0  0  0  0
   -1.0083   -0.1159   -0.7994 C   0  0  0  0  0  0  0  0  0  0  0  0
   -1.7765   -1.2545   -0.1661 C   0  0  0  0  0  0  0  0  0  0  0  0
   -2.2422   -0.3436    0.7802 O   0  0  0  0  0  0  0  0  0  0  0  0
   -1.4657    0.7269    0.4301 C   0  0  0  0  0  0  0  0  0  0  0  0
    1.1039   -1.7485   -0.4206 H   0  0  0  0  0  0  0  0  0  0  0  0
    2.2777   -1.7459    0.9160 H   0  0  0  0  0  0  0  0  0  0  0  0
    2.5694   -0.7582   -0.5262 H   0  0  0  0  0  0  0  0  0  0  0  0
    0.8574   -0.1049    1.9000 H   0  0  0  0  0  0  0  0  0  0  0  0
    1.0655    1.8748   -1.3793 H   0  0  0  0  0  0  0  0  0  0  0  0
    0.4091    2.7385    0.0847 H   0  0  0  0  0  0  0  0  0  0  0  0
   -1.2804    0.2607   -1.7890 H   0  0  0  0  0  0  0  0  0  0  0  0
   -1.1519   -2.0155    0.3536 H   0  0  0  0  0  0  0  0  0  0  0  0
   -2.5193   -1.7489   -0.7852 H   0  0  0  0  0  0  0  0  0  0  0  0
   -2.0538    1.6534    0.1771 H   0  0  0  0  0  0  0  0  0  0  0  0
  1  2  1  0
  2  3  1  0
  3  4  1  0
  4  5  1  0
  5  6  1  0
  6  7  1  0
  7  8  1  0
  8  9  1  0
  5  2  1  0
  9  6  1  0
  9  5  1  0
  1 10  1  0
  1 11  1  0
  1 12  1  0
  2 13  1  0
  4 14  1  0
  4 15  1  0
  6 16  1  0
  7 17  1  0
  7 18  1  0
  9 19  1  0
M  END
