
     RDKit          3D

 21 21  0  0  0  0  0  0  0  0999 V2000
    2.1546    0.0500   -0.8391 C   0  0  0  0  0  0  0  0  0  0  0  0
    1.1190   -0.7470   -0.1189 C   0  0  0  0  0  0  0  0  0  0  0  0
    1.3920   -0.7889    1.2602 O   0  0  0  0  0  0  0  0  0  0  0  0
    0.0146   -0.8448    1.4645 C   0  0  0  0  0  0  0  0  0  0  0  0
   -0.1876   -0.0859    0.1660 C   0  0  0  0  0  0  0  0  0  0  0  0
   -0.1689    1.4056    0.3399 C   0  0  0  0  0  0  0  0  0  0  0  0
   -1.4630    1.8297    0.5947 O   0  0  0  0  0  0  0  0  0  0  0  0
   -1.2981   -0.6385   -0.6681 C   0  0  0  0  0  0  0  0  0  0  0  0
   -2.5204   -0.0453   -0.4259 O   0  0  0  0  0  0  0  0  0  0  0  0
    2.8687    0.5384   -0.1256 H   0  0  0  0  0  0  0  0  0  0  0  0
    2.7543   -0.6675   -1.4577 H   0  0  0  0  0  0  0  0  0  0  0  0
    1.7678    0.8262   -1.4935 H   0  0  0  0  0  0  0  0  0  0  0  0
    0.9586   -1.7783   -0.4954 H   0  0  0  0  0  0  0  0  0  0  0  0
   -0.2254   -0.2403    2.3786 H   0  0  0  0  0  0  0  0  0  0  0  0
   -0.4419   -1.8334    1.4735 H   0  0  0  0  0  0  0  0  0  0  0  0
    0.4604    1.6725    1.2240 H   0  0  0  0  0  0  0  0  0  0  0  0
    0.1617    1.8868   -0.5889 H   0  0  0  0  0  0  0  0  0  0  0  0
   -1.7950    2.4910   -0.0848 H   0  0  0  0  0  0  0  0  0  0  0  0
   -1.3260   -1.7484   -0.4746 H   0  0  0  0  0  0  0  0  0  0  0  0
   -1.0038   -0.5384   -1.7429 H   0  0  0  0  0  0  0  0  0  0  0  0
   -3.2213   -0.7434   -0.3861 H   0  0  0  0  0  0  0  0  0  0  0  0
  1  2  1  0
  2  3  1  0
  3  4  1  0
  4  5  1  0
  5  6  1  0
  6  7  1  0
  5  8  1  0
  8  9  1  0
  5  2  1  0
  1 10  1  0
  1 11  1  0
  1 12  1  0
  2 13  1  0
  4 14  1  0
  4 15  1  0
  6 16  1  0
  6 17  1  0
  7 18  1  0
  8 19  1  0
  8 20  1  0
  9 21  1  0
M  END
