
     RDKit          3D

 21 22  0  0  0  0  0  0  0  0999 V2000
   -1.6692    0.6704    1.4536 C   0  0  0  0  0  0  0  0  0  0  0  0
   -1.5563   -0.0373    0.1547 C   0  0  0  0  0  0  0  0  0  0  0  0
   -1.4102   -1.4316    0.2186 O   0  0  0  0  0  0  0  0  0  0  0  0
   -0.7856   -1.3259   -1.0469 C   0  0  0  0  0  0  0  0  0  0  0  0
   -0.2290    0.0119   -0.5400 C   0  0  0  0  0  0  0  0  0  0  0  0
   -0.0623    0.9619   -1.5128 O   0  0  0  0  0  0  0  0  0  0  0  0
    0.9771   -0.2613    0.3172 C   0  0  0  0  0  0  0  0  0  0  0  0
    2.2880   -0.1941   -0.4544 C   0  0  0  0  0  0  0  0  0  0  0  0
    1.9636    0.7724    0.6483 C   0  0  0  0  0  0  0  0  0  0  0  0
   -2.2689    1.6066    1.2804 H   0  0  0  0  0  0  0  0  0  0  0  0
   -0.7148    0.8797    1.9620 H   0  0  0  0  0  0  0  0  0  0  0  0
   -2.2910    0.0570    2.1491 H   0  0  0  0  0  0  0  0  0  0  0  0
   -2.3665    0.1959   -0.5605 H   0  0  0  0  0  0  0  0  0  0  0  0
   -0.0212   -2.0688   -1.2510 H   0  0  0  0  0  0  0  0  0  0  0  0
   -1.5897   -1.2000   -1.8146 H   0  0  0  0  0  0  0  0  0  0  0  0
   -0.7980    0.9016   -2.1529 H   0  0  0  0  0  0  0  0  0  0  0  0
    0.8956   -1.2011    0.9351 H   0  0  0  0  0  0  0  0  0  0  0  0
    2.2935    0.2365   -1.4689 H   0  0  0  0  0  0  0  0  0  0  0  0
    3.0442   -0.9896   -0.2974 H   0  0  0  0  0  0  0  0  0  0  0  0
    1.7392    1.8219    0.4042 H   0  0  0  0  0  0  0  0  0  0  0  0
    2.5614    0.5939    1.5762 H   0  0  0  0  0  0  0  0  0  0  0  0
  1  2  1  0
  2  3  1  0
  3  4  1  0
  4  5  1  0
  5  6  1  0
  5  7  1  0
  7  8  1  0
  8  9  1  0
  5  2  1  0
  9  7  1  0
  1 10  1  0
  1 11  1  0
  1 12  1  0
  2 13  1  0
  4 14  1  0
  4 15  1  0
  6 16  1  0
  7 17  1  0
  8 18  1  0
  8 19  1  0
  9 20  1  0
  9 21  1  0
M  END
