
     RDKit          3D

 18 18  0  0  0  0  0  0  0  0999 V2000
    2.4715   -0.1913   -0.0859 C   0  0  0  0  0  0  0  0  0  0  0  0
    1.1022   -0.7948   -0.0013 C   0  0  0  0  0  0  0  0  0  0  0  0
    0.3840   -0.3917   -1.2684 O   0  0  0  0  0  0  0  0  0  0  0  0
   -0.1228   -0.0583    0.0345 C   0  0  0  0  0  0  0  0  0  0  0  0
   -0.1329    1.4315    0.3013 C   0  0  0  0  0  0  0  0  0  0  0  0
   -1.3748   -0.8554    0.3743 C   0  0  0  0  0  0  0  0  0  0  0  0
   -2.5865   -0.0363    0.3753 C   0  0  0  0  0  0  0  0  0  0  0  0
   -3.4537   -0.2194   -0.4673 O   0  0  0  0  0  0  0  0  0  0  0  0
    3.0371   -0.7620   -0.8500 H   0  0  0  0  0  0  0  0  0  0  0  0
    3.0431   -0.3100    0.8610 H   0  0  0  0  0  0  0  0  0  0  0  0
    2.5042    0.8685   -0.3565 H   0  0  0  0  0  0  0  0  0  0  0  0
    1.1049   -1.8930    0.1382 H   0  0  0  0  0  0  0  0  0  0  0  0
    0.8669    1.7814    0.6237 H   0  0  0  0  0  0  0  0  0  0  0  0
   -0.4775    2.0092   -0.5911 H   0  0  0  0  0  0  0  0  0  0  0  0
   -0.8415    1.6939    1.1001 H   0  0  0  0  0  0  0  0  0  0  0  0
   -1.5211   -1.7360   -0.2821 H   0  0  0  0  0  0  0  0  0  0  0  0
   -1.2479   -1.2755    1.4196 H   0  0  0  0  0  0  0  0  0  0  0  0
   -2.7552    0.7390    1.1000 H   0  0  0  0  0  0  0  0  0  0  0  0
  1  2  1  0
  2  3  1  0
  3  4  1  0
  4  5  1  0
  4  6  1  0
  6  7  1  0
  7  8  2  0
  4  2  1  0
  1  9  1  0
  1 10  1  0
  1 11  1  0
  2 12  1  0
  5 13  1  0
  5 14  1  0
  5 15  1  0
  6 16  1  0
  6 17  1  0
  7 18  1  0
M  END
