
     RDKit          3D

 19 20  0  0  0  0  0  0  0  0999 V2000
    2.1939   -0.9052    0.1181 C   0  0  0  0  0  0  0  0  0  0  0  0
    1.1143    0.1194    0.2599 C   0  0  0  0  0  0  0  0  0  0  0  0
    0.7897    0.6033   -1.0291 O   0  0  0  0  0  0  0  0  0  0  0  0
   -0.3070    1.4275   -0.6786 C   0  0  0  0  0  0  0  0  0  0  0  0
   -1.1984    0.4205   -0.0028 C   0  0  0  0  0  0  0  0  0  0  0  0
   -2.2459    0.9045    0.7275 O   0  0  0  0  0  0  0  0  0  0  0  0
   -1.5014   -0.8138   -0.7843 C   0  0  0  0  0  0  0  0  0  0  0  0
   -0.5826   -1.5244   -0.0348 O   0  0  0  0  0  0  0  0  0  0  0  0
   -0.1978   -0.4434    0.7337 C   0  0  0  0  0  0  0  0  0  0  0  0
    2.9487   -0.5273   -0.6196 H   0  0  0  0  0  0  0  0  0  0  0  0
    2.7094   -1.1119    1.0690 H   0  0  0  0  0  0  0  0  0  0  0  0
    1.7086   -1.8476   -0.2414 H   0  0  0  0  0  0  0  0  0  0  0  0
    1.4052    1.0012    0.8553 H   0  0  0  0  0  0  0  0  0  0  0  0
    0.1068    2.1288    0.0889 H   0  0  0  0  0  0  0  0  0  0  0  0
   -0.7493    1.9244   -1.5371 H   0  0  0  0  0  0  0  0  0  0  0  0
   -2.0437    1.0677    1.6874 H   0  0  0  0  0  0  0  0  0  0  0  0
   -1.2922   -0.6959   -1.8541 H   0  0  0  0  0  0  0  0  0  0  0  0
   -2.5244   -1.2039   -0.5770 H   0  0  0  0  0  0  0  0  0  0  0  0
   -0.3336   -0.5239    1.8189 H   0  0  0  0  0  0  0  0  0  0  0  0
  1  2  1  0
  2  3  1  0
  3  4  1  0
  4  5  1  0
  5  6  1  0
  5  7  1  0
  7  8  1  0
  8  9  1  0
  9  2  1  0
  9  5  1  0
  1 10  1  0
  1 11  1  0
  1 12  1  0
  2 13  1  0
  4 14  1  0
  4 15  1  0
  6 16  1  0
  7 17  1  0
  7 18  1  0
  9 19  1  0
M  END
