
     RDKit          3D

 17 19  0  0  0  0  0  0  0  0999 V2000
    2.0974    0.4383   -0.4222 C   0  0  0  0  0  0  0  0  0  0  0  0
    0.6630    0.6736   -0.0158 C   0  0  0  0  0  0  0  0  0  0  0  0
   -0.1196    0.4350   -1.1580 O   0  0  0  0  0  0  0  0  0  0  0  0
   -0.8557   -0.7211   -0.8870 C   0  0  0  0  0  0  0  0  0  0  0  0
   -0.0446   -1.4461    0.0187 O   0  0  0  0  0  0  0  0  0  0  0  0
    0.1687   -0.3889    0.9377 C   0  0  0  0  0  0  0  0  0  0  0  0
   -1.2340   -0.0534    1.3291 C   0  0  0  0  0  0  0  0  0  0  0  0
   -2.2416   -0.9811    1.1821 O   0  0  0  0  0  0  0  0  0  0  0  0
   -1.9916   -0.3161    0.0184 C   0  0  0  0  0  0  0  0  0  0  0  0
    2.1931    0.0449   -1.4584 H   0  0  0  0  0  0  0  0  0  0  0  0
    2.6028    1.4291   -0.4302 H   0  0  0  0  0  0  0  0  0  0  0  0
    2.6359   -0.2550    0.2356 H   0  0  0  0  0  0  0  0  0  0  0  0
    0.4797    1.6460    0.4381 H   0  0  0  0  0  0  0  0  0  0  0  0
   -1.1402   -1.2900   -1.7558 H   0  0  0  0  0  0  0  0  0  0  0  0
    0.8431   -0.6416    1.7341 H   0  0  0  0  0  0  0  0  0  0  0  0
   -1.4395    0.9437    1.7728 H   0  0  0  0  0  0  0  0  0  0  0  0
   -2.6168    0.4827   -0.3684 H   0  0  0  0  0  0  0  0  0  0  0  0
  1  2  1  0
  2  3  1  0
  3  4  1  0
  4  5  1  0
  5  6  1  0
  6  7  1  0
  7  8  1  0
  8  9  1  0
  6  2  1  0
  9  7  1  0
  9  4  1  0
  1 10  1  0
  1 11  1  0
  1 12  1  0
  2 13  1  0
  4 14  1  0
  6 15  1  0
  7 16  1  0
  9 17  1  0
M  END
