
     RDKit          3D

 20 21  0  0  0  0  0  0  0  0999 V2000
    2.7550    0.3498    0.0670 C   0  0  0  0  0  0  0  0  0  0  0  0
    1.5949   -0.5685    0.3779 C   0  0  0  0  0  0  0  0  0  0  0  0
    0.7983   -0.3145    1.4832 O   0  0  0  0  0  0  0  0  0  0  0  0
    0.2190   -0.2329    0.2383 C   0  0  0  0  0  0  0  0  0  0  0  0
   -0.3417    1.0836   -0.1607 C   0  0  0  0  0  0  0  0  0  0  0  0
   -1.8458    0.8690   -0.3009 C   0  0  0  0  0  0  0  0  0  0  0  0
   -2.0994   -0.5675    0.1069 C   0  0  0  0  0  0  0  0  0  0  0  0
   -0.7907   -1.2423   -0.2192 C   0  0  0  0  0  0  0  0  0  0  0  0
    2.9361    0.2493   -1.0408 H   0  0  0  0  0  0  0  0  0  0  0  0
    2.5549    1.4022    0.2611 H   0  0  0  0  0  0  0  0  0  0  0  0
    3.6973   -0.0272    0.5421 H   0  0  0  0  0  0  0  0  0  0  0  0
    1.8870   -1.6525    0.3019 H   0  0  0  0  0  0  0  0  0  0  0  0
    0.0459    1.4604   -1.1215 H   0  0  0  0  0  0  0  0  0  0  0  0
   -0.2009    1.8341    0.6696 H   0  0  0  0  0  0  0  0  0  0  0  0
   -2.1931    1.0633   -1.3380 H   0  0  0  0  0  0  0  0  0  0  0  0
   -2.4164    1.5005    0.4170 H   0  0  0  0  0  0  0  0  0  0  0  0
   -2.2775   -0.6303    1.2039 H   0  0  0  0  0  0  0  0  0  0  0  0
   -2.9604   -1.0106   -0.4471 H   0  0  0  0  0  0  0  0  0  0  0  0
   -0.6760   -2.2286    0.2895 H   0  0  0  0  0  0  0  0  0  0  0  0
   -0.6863   -1.3373   -1.3303 H   0  0  0  0  0  0  0  0  0  0  0  0
  1  2  1  0
  2  3  1  0
  3  4  1  0
  4  5  1  0
  5  6  1  0
  6  7  1  0
  7  8  1  0
  4  2  1  0
  8  4  1  0
  1  9  1  0
  1 10  1  0
  1 11  1  0
  2 12  1  0
  5 13  1  0
  5 14  1  0
  6 15  1  0
  6 16  1  0
  7 17  1  0
  7 18  1  0
  8 19  1  0
  8 20  1  0
M  END
