
     RDKit          3D

 21 21  0  0  0  0  0  0  0  0999 V2000
    1.6452   -1.3878    0.2906 C   0  0  0  0  0  0  0  0  0  0  0  0
    1.1880   -0.1267   -0.3470 C   0  0  0  0  0  0  0  0  0  0  0  0
    0.0807   -0.0177   -1.1427 O   0  0  0  0  0  0  0  0  0  0  0  0
    0.0548    0.5860    0.1574 C   0  0  0  0  0  0  0  0  0  0  0  0
    0.1428    2.1217    0.1495 C   0  0  0  0  0  0  0  0  0  0  0  0
    1.3322    2.4789   -0.4569 O   0  0  0  0  0  0  0  0  0  0  0  0
   -1.0758    0.0648    0.9606 C   0  0  0  0  0  0  0  0  0  0  0  0
   -1.8562   -1.0121    0.2531 C   0  0  0  0  0  0  0  0  0  0  0  0
   -1.1172   -2.1293   -0.0816 O   0  0  0  0  0  0  0  0  0  0  0  0
    1.5991   -2.2896   -0.3471 H   0  0  0  0  0  0  0  0  0  0  0  0
    2.7439   -1.2976    0.5481 H   0  0  0  0  0  0  0  0  0  0  0  0
    1.1856   -1.6031    1.2847 H   0  0  0  0  0  0  0  0  0  0  0  0
    2.0366    0.4929   -0.7647 H   0  0  0  0  0  0  0  0  0  0  0  0
   -0.7269    2.5708   -0.3287 H   0  0  0  0  0  0  0  0  0  0  0  0
    0.1504    2.4065    1.2297 H   0  0  0  0  0  0  0  0  0  0  0  0
    1.2456    3.2069   -1.1193 H   0  0  0  0  0  0  0  0  0  0  0  0
   -1.8205    0.8707    1.2051 H   0  0  0  0  0  0  0  0  0  0  0  0
   -0.7860   -0.3522    1.9454 H   0  0  0  0  0  0  0  0  0  0  0  0
   -2.2421   -0.5964   -0.7207 H   0  0  0  0  0  0  0  0  0  0  0  0
   -2.7624   -1.3142    0.8275 H   0  0  0  0  0  0  0  0  0  0  0  0
   -1.0175   -2.6726    0.7520 H   0  0  0  0  0  0  0  0  0  0  0  0
  1  2  1  0
  2  3  1  0
  3  4  1  0
  4  5  1  0
  5  6  1  0
  4  7  1  0
  7  8  1  0
  8  9  1  0
  4  2  1  0
  1 10  1  0
  1 11  1  0
  1 12  1  0
  2 13  1  0
  5 14  1  0
  5 15  1  0
  6 16  1  0
  7 17  1  0
  7 18  1  0
  8 19  1  0
  8 20  1  0
  9 21  1  0
M  END
