
     RDKit          3D

 21 22  0  0  0  0  0  0  0  0999 V2000
    2.2466    0.8027   -0.8016 C   0  0  0  0  0  0  0  0  0  0  0  0
    1.1852    0.6325    0.2504 C   0  0  0  0  0  0  0  0  0  0  0  0
    0.0655    1.4175    0.1342 O   0  0  0  0  0  0  0  0  0  0  0  0
   -0.8456    0.3574    0.0073 C   0  0  0  0  0  0  0  0  0  0  0  0
   -1.7257    0.4750   -1.1971 C   0  0  0  0  0  0  0  0  0  0  0  0
   -1.4898   -0.0963    1.2748 C   0  0  0  0  0  0  0  0  0  0  0  0
   -0.6608   -0.9796    1.9098 O   0  0  0  0  0  0  0  0  0  0  0  0
    0.2080   -1.5259    0.9963 C   0  0  0  0  0  0  0  0  0  0  0  0
    0.3274   -0.5659   -0.1330 C   0  0  0  0  0  0  0  0  0  0  0  0
    3.0212    1.5223   -0.5596 H   0  0  0  0  0  0  0  0  0  0  0  0
    2.7487   -0.2058   -0.8949 H   0  0  0  0  0  0  0  0  0  0  0  0
    1.7692    0.9620   -1.8041 H   0  0  0  0  0  0  0  0  0  0  0  0
    1.6394    0.5675    1.2630 H   0  0  0  0  0  0  0  0  0  0  0  0
   -2.5718   -0.2358   -1.0617 H   0  0  0  0  0  0  0  0  0  0  0  0
   -2.1664    1.4961   -1.2199 H   0  0  0  0  0  0  0  0  0  0  0  0
   -1.1225    0.2676   -2.0974 H   0  0  0  0  0  0  0  0  0  0  0  0
   -2.4773   -0.5529    0.9987 H   0  0  0  0  0  0  0  0  0  0  0  0
   -1.7287    0.7783    1.9200 H   0  0  0  0  0  0  0  0  0  0  0  0
   -0.0907   -2.5292    0.6530 H   0  0  0  0  0  0  0  0  0  0  0  0
    1.2028   -1.6324    1.4973 H   0  0  0  0  0  0  0  0  0  0  0  0
    0.4652   -0.9550   -1.1354 H   0  0  0  0  0  0  0  0  0  0  0  0
  1  2  1  0
  2  3  1  0
  3  4  1  0
  4  5  1  0
  4  6  1  0
  6  7  1  0
  7  8  1  0
  8  9  1  0
  9  2  1  0
  9  4  1  0
  1 10  1  0
  1 11  1  0
  1 12  1  0
  2 13  1  0
  5 14  1  0
  5 15  1  0
  5 16  1  0
  6 17  1  0
  6 18  1  0
  8 19  1  0
  8 20  1  0
  9 21  1  0
M  END
