
     RDKit          3D

 21 21  0  0  0  0  0  0  0  0999 V2000
    1.8676   -1.0112   -0.5048 C   0  0  0  0  0  0  0  0  0  0  0  0
    0.9545   -0.3990    0.5614 C   0  0  0  0  0  0  0  0  0  0  0  0
    1.4040    0.9100    0.7373 O   0  0  0  0  0  0  0  0  0  0  0  0
    0.6459    1.6987   -0.1602 C   0  0  0  0  0  0  0  0  0  0  0  0
   -0.7373    1.1672    0.1367 C   0  0  0  0  0  0  0  0  0  0  0  0
   -1.7006    1.5802   -0.7268 O   0  0  0  0  0  0  0  0  0  0  0  0
   -0.4713   -0.3279    0.1020 C   0  0  0  0  0  0  0  0  0  0  0  0
   -1.4465   -0.9889    1.0116 C   0  0  0  0  0  0  0  0  0  0  0  0
   -0.5316   -0.7576   -1.2099 O   0  0  0  0  0  0  0  0  0  0  0  0
    2.1905   -0.2425   -1.2302 H   0  0  0  0  0  0  0  0  0  0  0  0
    1.3349   -1.7933   -1.0624 H   0  0  0  0  0  0  0  0  0  0  0  0
    2.7857   -1.4216   -0.0484 H   0  0  0  0  0  0  0  0  0  0  0  0
    1.0584   -0.9719    1.5216 H   0  0  0  0  0  0  0  0  0  0  0  0
    0.9306    1.4788   -1.2005 H   0  0  0  0  0  0  0  0  0  0  0  0
    0.7826    2.7367    0.1450 H   0  0  0  0  0  0  0  0  0  0  0  0
   -1.0161    1.4823    1.1695 H   0  0  0  0  0  0  0  0  0  0  0  0
   -1.4709    1.5986   -1.6744 H   0  0  0  0  0  0  0  0  0  0  0  0
   -2.1628   -0.2524    1.4812 H   0  0  0  0  0  0  0  0  0  0  0  0
   -0.9926   -1.5290    1.8559 H   0  0  0  0  0  0  0  0  0  0  0  0
   -2.0401   -1.7124    0.4213 H   0  0  0  0  0  0  0  0  0  0  0  0
   -1.3847   -1.2449   -1.3259 H   0  0  0  0  0  0  0  0  0  0  0  0
  1  2  1  0
  2  3  1  0
  3  4  1  0
  4  5  1  0
  5  6  1  0
  5  7  1  0
  7  8  1  0
  7  9  1  0
  7  2  1  0
  1 10  1  0
  1 11  1  0
  1 12  1  0
  2 13  1  0
  4 14  1  0
  4 15  1  0
  5 16  1  0
  6 17  1  0
  8 18  1  0
  8 19  1  0
  8 20  1  0
  9 21  1  0
M  END
