
     RDKit          3D

 19 21  0  0  0  0  0  0  0  0999 V2000
    2.3205    0.6326    0.2090 C   0  0  0  0  0  0  0  0  0  0  0  0
    1.2483   -0.3868    0.3022 C   0  0  0  0  0  0  0  0  0  0  0  0
    0.9302   -0.9668   -0.9527 O   0  0  0  0  0  0  0  0  0  0  0  0
   -0.4285   -0.8479   -1.0004 C   0  0  0  0  0  0  0  0  0  0  0  0
   -0.6821    0.5993   -0.5766 C   0  0  0  0  0  0  0  0  0  0  0  0
   -2.1360    0.5730   -0.2671 C   0  0  0  0  0  0  0  0  0  0  0  0
   -2.2141   -0.6268    0.4894 O   0  0  0  0  0  0  0  0  0  0  0  0
   -0.9528   -1.1198    0.4178 C   0  0  0  0  0  0  0  0  0  0  0  0
   -0.0844    0.1091    0.7228 C   0  0  0  0  0  0  0  0  0  0  0  0
    2.8999    0.6260   -0.7300 H   0  0  0  0  0  0  0  0  0  0  0  0
    1.9585    1.6687    0.4751 H   0  0  0  0  0  0  0  0  0  0  0  0
    3.0736    0.4041    1.0205 H   0  0  0  0  0  0  0  0  0  0  0  0
    1.5117   -1.2658    0.9493 H   0  0  0  0  0  0  0  0  0  0  0  0
   -0.9994   -1.2326   -1.8102 H   0  0  0  0  0  0  0  0  0  0  0  0
   -0.2233    1.3772   -1.1165 H   0  0  0  0  0  0  0  0  0  0  0  0
   -2.8023    0.4287   -1.1192 H   0  0  0  0  0  0  0  0  0  0  0  0
   -2.4988    1.4340    0.3104 H   0  0  0  0  0  0  0  0  0  0  0  0
   -0.6688   -2.0376    0.8708 H   0  0  0  0  0  0  0  0  0  0  0  0
   -0.2521    0.6312    1.6181 H   0  0  0  0  0  0  0  0  0  0  0  0
  1  2  1  0
  2  3  1  0
  3  4  1  0
  4  5  1  0
  5  6  1  0
  6  7  1  0
  7  8  1  0
  8  9  1  0
  9  2  1  0
  8  4  1  0
  9  5  1  0
  1 10  1  0
  1 11  1  0
  1 12  1  0
  2 13  1  0
  4 14  1  0
  5 15  1  0
  6 16  1  0
  6 17  1  0
  8 18  1  0
  9 19  1  0
M  END
