
     RDKit          3D

 19 20  0  0  0  0  0  0  0  0999 V2000
    2.3934    0.4607    0.1636 C   0  0  0  0  0  0  0  0  0  0  0  0
    1.0817   -0.1583    0.5100 C   0  0  0  0  0  0  0  0  0  0  0  0
    0.1317    0.7142    1.0741 O   0  0  0  0  0  0  0  0  0  0  0  0
   -0.7676    0.2767    0.1623 C   0  0  0  0  0  0  0  0  0  0  0  0
   -1.7926    1.1908   -0.3683 C   0  0  0  0  0  0  0  0  0  0  0  0
   -2.7484    0.1722   -0.1439 O   0  0  0  0  0  0  0  0  0  0  0  0
   -1.8540   -0.6389    0.5880 C   0  0  0  0  0  0  0  0  0  0  0  0
    0.2332   -0.3130   -0.7521 C   0  0  0  0  0  0  0  0  0  0  0  0
    0.0688   -1.6745   -1.0080 O   0  0  0  0  0  0  0  0  0  0  0  0
    2.5952    0.4114   -0.9411 H   0  0  0  0  0  0  0  0  0  0  0  0
    3.2168   -0.1432    0.6229 H   0  0  0  0  0  0  0  0  0  0  0  0
    2.4780    1.5222    0.4395 H   0  0  0  0  0  0  0  0  0  0  0  0
    1.1534   -1.0791    1.1250 H   0  0  0  0  0  0  0  0  0  0  0  0
   -2.0562    2.0720    0.2601 H   0  0  0  0  0  0  0  0  0  0  0  0
   -1.6673    1.4213   -1.4517 H   0  0  0  0  0  0  0  0  0  0  0  0
   -2.0712   -0.7144    1.6603 H   0  0  0  0  0  0  0  0  0  0  0  0
   -1.7819   -1.6264    0.0683 H   0  0  0  0  0  0  0  0  0  0  0  0
    0.5550    0.2981   -1.6045 H   0  0  0  0  0  0  0  0  0  0  0  0
    0.8319   -2.1918   -0.6192 H   0  0  0  0  0  0  0  0  0  0  0  0
  1  2  1  0
  2  3  1  0
  3  4  1  0
  4  5  1  0
  5  6  1  0
  6  7  1  0
  4  8  1  0
  8  9  1  0
  8  2  1  0
  7  4  1  0
  1 10  1  0
  1 11  1  0
  1 12  1  0
  2 13  1  0
  5 14  1  0
  5 15  1  0
  7 16  1  0
  7 17  1  0
  8 18  1  0
  9 19  1  0
M  END
