
     RDKit          3D

 19 21  0  0  0  0  0  0  0  0999 V2000
   -2.6729    0.8630    0.1159 C   0  0  0  0  0  0  0  0  0  0  0  0
   -1.6488    0.1067   -0.6795 C   0  0  0  0  0  0  0  0  0  0  0  0
   -0.6664    0.9796   -1.2739 O   0  0  0  0  0  0  0  0  0  0  0  0
    0.1232   -0.1269   -1.2794 C   0  0  0  0  0  0  0  0  0  0  0  0
   -0.4952   -0.4239    0.0853 C   0  0  0  0  0  0  0  0  0  0  0  0
    0.4281   -0.9208    0.8677 C   0  0  0  0  0  0  0  0  0  0  0  0
    1.7745   -0.8602    0.1795 C   0  0  0  0  0  0  0  0  0  0  0  0
    2.3637    0.4877   -0.0439 C   0  0  0  0  0  0  0  0  0  0  0  0
    1.5688   -0.1206   -1.0990 C   0  0  0  0  0  0  0  0  0  0  0  0
   -3.0417    1.6961   -0.5134 H   0  0  0  0  0  0  0  0  0  0  0  0
   -2.1748    1.2316    1.0443 H   0  0  0  0  0  0  0  0  0  0  0  0
   -3.5048    0.1872    0.3310 H   0  0  0  0  0  0  0  0  0  0  0  0
   -2.0058   -0.5757   -1.4461 H   0  0  0  0  0  0  0  0  0  0  0  0
   -0.2347   -0.8643   -2.0359 H   0  0  0  0  0  0  0  0  0  0  0  0
    0.3164   -1.3247    1.8540 H   0  0  0  0  0  0  0  0  0  0  0  0
    2.3472   -1.7696    0.1309 H   0  0  0  0  0  0  0  0  0  0  0  0
    1.9309    1.3633    0.4760 H   0  0  0  0  0  0  0  0  0  0  0  0
    3.4477    0.5410   -0.1630 H   0  0  0  0  0  0  0  0  0  0  0  0
    2.1444   -0.4695   -2.0148 H   0  0  0  0  0  0  0  0  0  0  0  0
  1  2  1  0
  2  3  1  0
  3  4  1  0
  4  5  1  0
  5  6  2  0
  6  7  1  0
  7  8  1  0
  8  9  1  0
  5  2  1  0
  9  7  1  0
  9  4  1  0
  1 10  1  0
  1 11  1  0
  1 12  1  0
  2 13  1  0
  4 14  1  0
  6 15  1  0
  7 16  1  0
  8 17  1  0
  8 18  1  0
  9 19  1  0
M  END
