
     RDKit          3D

 19 20  0  0  0  0  0  0  0  0999 V2000
   -0.7016   -2.0950    0.3118 C   0  0  0  0  0  0  0  0  0  0  0  0
    0.1057   -0.8385    0.3093 C   0  0  0  0  0  0  0  0  0  0  0  0
    1.4449   -1.0207    0.0377 O   0  0  0  0  0  0  0  0  0  0  0  0
    2.0675    0.2195    0.1248 C   0  0  0  0  0  0  0  0  0  0  0  0
    1.1612    1.2490    0.4057 O   0  0  0  0  0  0  0  0  0  0  0  0
    0.2272    1.4124   -0.6054 C   0  0  0  0  0  0  0  0  0  0  0  0
   -1.2318    1.2303   -0.2949 C   0  0  0  0  0  0  0  0  0  0  0  0
   -1.6298    1.2170    1.0517 O   0  0  0  0  0  0  0  0  0  0  0  0
   -0.4637    0.0682   -0.7751 C   0  0  0  0  0  0  0  0  0  0  0  0
   -1.7807   -1.8458    0.0994 H   0  0  0  0  0  0  0  0  0  0  0  0
   -0.3785   -2.7146   -0.5536 H   0  0  0  0  0  0  0  0  0  0  0  0
   -0.6212   -2.6742    1.2480 H   0  0  0  0  0  0  0  0  0  0  0  0
    0.0231   -0.3503    1.2911 H   0  0  0  0  0  0  0  0  0  0  0  0
    2.7624    0.1729    0.9971 H   0  0  0  0  0  0  0  0  0  0  0  0
    2.5991    0.4472   -0.8182 H   0  0  0  0  0  0  0  0  0  0  0  0
    0.4315    2.0387   -1.4770 H   0  0  0  0  0  0  0  0  0  0  0  0
   -1.9733    1.6492   -0.9731 H   0  0  0  0  0  0  0  0  0  0  0  0
   -1.5738    2.1306    1.4202 H   0  0  0  0  0  0  0  0  0  0  0  0
   -0.4682   -0.2959   -1.7996 H   0  0  0  0  0  0  0  0  0  0  0  0
  1  2  1  0
  2  3  1  0
  3  4  1  0
  4  5  1  0
  5  6  1  0
  6  7  1  0
  7  8  1  0
  7  9  1  0
  9  2  1  0
  9  6  1  0
  1 10  1  0
  1 11  1  0
  1 12  1  0
  2 13  1  0
  4 14  1  0
  4 15  1  0
  6 16  1  0
  7 17  1  0
  8 18  1  0
  9 19  1  0
M  END
