
     RDKit          3D

 21 22  0  0  0  0  0  0  0  0999 V2000
   -2.7400    0.1871    0.1329 C   0  0  0  0  0  0  0  0  0  0  0  0
   -1.3029    0.5801    0.5050 C   0  0  0  0  0  0  0  0  0  0  0  0
   -0.8025   -0.4749    1.2873 O   0  0  0  0  0  0  0  0  0  0  0  0
   -0.2607   -1.0062    0.1299 C   0  0  0  0  0  0  0  0  0  0  0  0
    1.2039   -1.2935    0.3237 C   0  0  0  0  0  0  0  0  0  0  0  0
    1.9015    0.0101    0.0728 C   0  0  0  0  0  0  0  0  0  0  0  0
    2.3121    0.6254    1.2533 O   0  0  0  0  0  0  0  0  0  0  0  0
    0.9458    0.9118   -0.6506 C   0  0  0  0  0  0  0  0  0  0  0  0
   -0.3921    0.2628   -0.6331 C   0  0  0  0  0  0  0  0  0  0  0  0
   -2.6379   -0.8597   -0.2816 H   0  0  0  0  0  0  0  0  0  0  0  0
   -3.0679    0.9053   -0.6247 H   0  0  0  0  0  0  0  0  0  0  0  0
   -3.3818    0.1475    1.0356 H   0  0  0  0  0  0  0  0  0  0  0  0
   -1.2034    1.5498    0.9880 H   0  0  0  0  0  0  0  0  0  0  0  0
   -0.8097   -1.8246   -0.3488 H   0  0  0  0  0  0  0  0  0  0  0  0
    1.3598   -1.5710    1.3986 H   0  0  0  0  0  0  0  0  0  0  0  0
    1.5244   -2.1165   -0.3156 H   0  0  0  0  0  0  0  0  0  0  0  0
    2.7982   -0.2266   -0.5680 H   0  0  0  0  0  0  0  0  0  0  0  0
    3.2002    1.0440    1.0673 H   0  0  0  0  0  0  0  0  0  0  0  0
    1.2855    0.9941   -1.7200 H   0  0  0  0  0  0  0  0  0  0  0  0
    0.9626    1.9420   -0.2537 H   0  0  0  0  0  0  0  0  0  0  0  0
   -0.8950    0.2128   -1.6216 H   0  0  0  0  0  0  0  0  0  0  0  0
  1  2  1  0
  2  3  1  0
  3  4  1  0
  4  5  1  0
  5  6  1  0
  6  7  1  0
  6  8  1  0
  8  9  1  0
  9  2  1  0
  9  4  1  0
  1 10  1  0
  1 11  1  0
  1 12  1  0
  2 13  1  0
  4 14  1  0
  5 15  1  0
  5 16  1  0
  6 17  1  0
  7 18  1  0
  8 19  1  0
  8 20  1  0
  9 21  1  0
M  END
