
     RDKit          3D

 19 20  0  0  0  0  0  0  0  0999 V2000
    2.8001   -0.3765    0.0412 C   0  0  0  0  0  0  0  0  0  0  0  0
    1.4111    0.2530   -0.1404 C   0  0  0  0  0  0  0  0  0  0  0  0
    0.8207   -0.3953   -1.1972 O   0  0  0  0  0  0  0  0  0  0  0  0
   -0.4698    0.1081   -1.4195 C   0  0  0  0  0  0  0  0  0  0  0  0
   -1.2703   -0.2371   -0.1885 C   0  0  0  0  0  0  0  0  0  0  0  0
   -0.5732    0.1303    1.0653 C   0  0  0  0  0  0  0  0  0  0  0  0
    0.7720    0.1627    1.0514 O   0  0  0  0  0  0  0  0  0  0  0  0
   -2.7307   -0.0266   -0.2968 C   0  0  0  0  0  0  0  0  0  0  0  0
   -2.1649   -1.2885   -0.2110 O   0  0  0  0  0  0  0  0  0  0  0  0
    3.4865    0.3515    0.5007 H   0  0  0  0  0  0  0  0  0  0  0  0
    3.1982   -0.7733   -0.8930 H   0  0  0  0  0  0  0  0  0  0  0  0
    2.7307   -1.2311    0.7654 H   0  0  0  0  0  0  0  0  0  0  0  0
    1.6233    1.3372   -0.3496 H   0  0  0  0  0  0  0  0  0  0  0  0
   -0.9104   -0.3491   -2.3228 H   0  0  0  0  0  0  0  0  0  0  0  0
   -0.4558    1.2081   -1.6102 H   0  0  0  0  0  0  0  0  0  0  0  0
   -0.9667    1.1210    1.4198 H   0  0  0  0  0  0  0  0  0  0  0  0
   -0.9014   -0.6013    1.8616 H   0  0  0  0  0  0  0  0  0  0  0  0
   -3.2062    0.4318    0.6001 H   0  0  0  0  0  0  0  0  0  0  0  0
   -3.1932    0.1751   -1.2885 H   0  0  0  0  0  0  0  0  0  0  0  0
  1  2  1  0
  2  3  1  0
  3  4  1  0
  4  5  1  0
  5  6  1  0
  6  7  1  0
  5  8  1  0
  8  9  1  0
  7  2  1  0
  9  5  1  0
  1 10  1  0
  1 11  1  0
  1 12  1  0
  2 13  1  0
  4 14  1  0
  4 15  1  0
  6 16  1  0
  6 17  1  0
  8 18  1  0
  8 19  1  0
M  END
