
     RDKit          3D

 15 15  0  0  0  0  0  0  0  0999 V2000
   -1.7580    0.1849    0.1484 C   0  0  0  0  0  0  0  0  0  0  0  0
   -0.5310    0.0775   -0.7181 C   0  0  0  0  0  0  0  0  0  0  0  0
    0.0020   -1.2091   -0.7287 O   0  0  0  0  0  0  0  0  0  0  0  0
    0.8172   -1.4395    0.3754 C   0  0  0  0  0  0  0  0  0  0  0  0
    2.0227   -0.6795    0.2674 O   0  0  0  0  0  0  0  0  0  0  0  0
    1.8160    0.7070    0.1186 C   0  0  0  0  0  0  0  0  0  0  0  0
    2.7183    1.5435    0.3914 O   0  0  0  0  0  0  0  0  0  0  0  0
    0.4951    1.0881   -0.3686 C   0  0  0  0  0  0  0  0  0  0  0  0
    0.2088    2.3036   -0.4993 O   0  0  0  0  0  0  0  0  0  0  0  0
   -2.5811   -0.3903   -0.3684 H   0  0  0  0  0  0  0  0  0  0  0  0
   -1.6091   -0.1525    1.1795 H   0  0  0  0  0  0  0  0  0  0  0  0
   -2.0684    1.2496    0.1402 H   0  0  0  0  0  0  0  0  0  0  0  0
   -0.8642    0.2913   -1.7666 H   0  0  0  0  0  0  0  0  0  0  0  0
    0.3272   -1.0693    1.3168 H   0  0  0  0  0  0  0  0  0  0  0  0
    1.0046   -2.5054    0.5119 H   0  0  0  0  0  0  0  0  0  0  0  0
  1  2  1  0
  2  3  1  0
  3  4  1  0
  4  5  1  0
  5  6  1  0
  6  7  2  0
  6  8  1  0
  8  9  2  0
  8  2  1  0
  1 10  1  0
  1 11  1  0
  1 12  1  0
  2 13  1  0
  4 14  1  0
  4 15  1  0
M  END
