
     RDKit          3D

 20 20  0  0  0  0  0  0  0  0999 V2000
   -1.1756   -1.8228   -0.0942 C   0  0  0  0  0  0  0  0  0  0  0  0
   -0.6101   -0.5947    0.6044 C   0  0  0  0  0  0  0  0  0  0  0  0
   -1.5408    0.3897    0.7901 O   0  0  0  0  0  0  0  0  0  0  0  0
   -0.9750    1.6093    0.4959 C   0  0  0  0  0  0  0  0  0  0  0  0
    0.0152    1.3198   -0.6332 C   0  0  0  0  0  0  0  0  0  0  0  0
    0.4942   -0.0554   -0.2575 C   0  0  0  0  0  0  0  0  0  0  0  0
    1.7798   -0.0458    0.5187 C   0  0  0  0  0  0  0  0  0  0  0  0
    0.6719   -0.7835   -1.4107 O   0  0  0  0  0  0  0  0  0  0  0  0
   -0.3804   -2.6089   -0.0089 H   0  0  0  0  0  0  0  0  0  0  0  0
   -2.0994   -2.1885    0.3644 H   0  0  0  0  0  0  0  0  0  0  0  0
   -1.2655   -1.6228   -1.1877 H   0  0  0  0  0  0  0  0  0  0  0  0
   -0.1934   -0.9738    1.5762 H   0  0  0  0  0  0  0  0  0  0  0  0
   -0.4992    2.1126    1.3475 H   0  0  0  0  0  0  0  0  0  0  0  0
   -1.7388    2.3177    0.0957 H   0  0  0  0  0  0  0  0  0  0  0  0
   -0.5593    1.3118   -1.5955 H   0  0  0  0  0  0  0  0  0  0  0  0
    0.8262    2.0710   -0.6666 H   0  0  0  0  0  0  0  0  0  0  0  0
    1.7586    0.6454    1.3889 H   0  0  0  0  0  0  0  0  0  0  0  0
    2.6515    0.2415   -0.0885 H   0  0  0  0  0  0  0  0  0  0  0  0
    1.9039   -1.0800    0.9463 H   0  0  0  0  0  0  0  0  0  0  0  0
    0.9360   -0.2424   -2.1851 H   0  0  0  0  0  0  0  0  0  0  0  0
  1  2  1  0
  2  3  1  0
  3  4  1  0
  4  5  1  0
  5  6  1  0
  6  7  1  0
  6  8  1  0
  6  2  1  0
  1  9  1  0
  1 10  1  0
  1 11  1  0
  2 12  1  0
  4 13  1  0
  4 14  1  0
  5 15  1  0
  5 16  1  0
  7 17  1  0
  7 18  1  0
  7 19  1  0
  8 20  1  0
M  END
