
     RDKit          3D

 21 22  0  0  0  0  0  0  0  0999 V2000
   -2.2541    1.0282    0.0085 C   0  0  0  0  0  0  0  0  0  0  0  0
   -1.6375   -0.3388   -0.0666 C   0  0  0  0  0  0  0  0  0  0  0  0
   -1.1779   -0.7912    1.2225 O   0  0  0  0  0  0  0  0  0  0  0  0
   -0.2444   -0.6183    0.0519 C   0  0  0  0  0  0  0  0  0  0  0  0
    0.2414   -1.9916   -0.3960 C   0  0  0  0  0  0  0  0  0  0  0  0
    0.8266    0.3306    0.4248 C   0  0  0  0  0  0  0  0  0  0  0  0
    1.0249    1.5334   -0.4578 C   0  0  0  0  0  0  0  0  0  0  0  0
    1.7436    0.7545   -1.3633 O   0  0  0  0  0  0  0  0  0  0  0  0
    2.1491   -0.0235   -0.2590 C   0  0  0  0  0  0  0  0  0  0  0  0
   -1.8834    1.6500    0.8295 H   0  0  0  0  0  0  0  0  0  0  0  0
   -3.3510    0.8728    0.2033 H   0  0  0  0  0  0  0  0  0  0  0  0
   -2.2193    1.5442   -0.9892 H   0  0  0  0  0  0  0  0  0  0  0  0
   -2.2742   -1.0717   -0.6266 H   0  0  0  0  0  0  0  0  0  0  0  0
    0.5943   -1.9036   -1.4451 H   0  0  0  0  0  0  0  0  0  0  0  0
    0.9743   -2.3965    0.2994 H   0  0  0  0  0  0  0  0  0  0  0  0
   -0.6231   -2.7143   -0.4206 H   0  0  0  0  0  0  0  0  0  0  0  0
    0.9626    0.5676    1.4982 H   0  0  0  0  0  0  0  0  0  0  0  0
    0.1336    2.0289   -0.8339 H   0  0  0  0  0  0  0  0  0  0  0  0
    1.7445    2.2351    0.0435 H   0  0  0  0  0  0  0  0  0  0  0  0
    3.0245    0.3663    0.2791 H   0  0  0  0  0  0  0  0  0  0  0  0
    2.2455   -1.0622   -0.5775 H   0  0  0  0  0  0  0  0  0  0  0  0
  1  2  1  0
  2  3  1  0
  3  4  1  0
  4  5  1  0
  4  6  1  0
  6  7  1  0
  7  8  1  0
  8  9  1  0
  4  2  1  0
  9  6  1  0
  1 10  1  0
  1 11  1  0
  1 12  1  0
  2 13  1  0
  5 14  1  0
  5 15  1  0
  5 16  1  0
  6 17  1  0
  7 18  1  0
  7 19  1  0
  9 20  1  0
  9 21  1  0
M  END
