
     RDKit          3D

 21 22  0  0  0  0  0  0  0  0999 V2000
    2.6027    0.0918   -0.3057 C   0  0  0  0  0  0  0  0  0  0  0  0
    1.2934   -0.5224    0.1596 C   0  0  0  0  0  0  0  0  0  0  0  0
    1.0769   -0.2712    1.4955 O   0  0  0  0  0  0  0  0  0  0  0  0
   -0.3205   -0.1277    1.6208 C   0  0  0  0  0  0  0  0  0  0  0  0
   -0.5991    0.8205    0.4709 C   0  0  0  0  0  0  0  0  0  0  0  0
   -2.0209    0.7331   -0.0216 C   0  0  0  0  0  0  0  0  0  0  0  0
   -1.9940   -0.4993   -0.8521 C   0  0  0  0  0  0  0  0  0  0  0  0
   -0.7545   -0.8254   -1.1886 C   0  0  0  0  0  0  0  0  0  0  0  0
    0.1864    0.1433   -0.6277 C   0  0  0  0  0  0  0  0  0  0  0  0
    3.3974   -0.3517    0.3021 H   0  0  0  0  0  0  0  0  0  0  0  0
    2.7305   -0.1660   -1.3620 H   0  0  0  0  0  0  0  0  0  0  0  0
    2.5542    1.1986   -0.1719 H   0  0  0  0  0  0  0  0  0  0  0  0
    1.3334   -1.6148    0.0097 H   0  0  0  0  0  0  0  0  0  0  0  0
   -0.7409   -1.1338    1.3736 H   0  0  0  0  0  0  0  0  0  0  0  0
   -0.6166    0.2556    2.5919 H   0  0  0  0  0  0  0  0  0  0  0  0
   -0.2601    1.8281    0.7005 H   0  0  0  0  0  0  0  0  0  0  0  0
   -2.7682    0.6978    0.7713 H   0  0  0  0  0  0  0  0  0  0  0  0
   -2.1881    1.5966   -0.6975 H   0  0  0  0  0  0  0  0  0  0  0  0
   -2.9241   -1.0254   -1.1172 H   0  0  0  0  0  0  0  0  0  0  0  0
   -0.5488   -1.7167   -1.8064 H   0  0  0  0  0  0  0  0  0  0  0  0
    0.5608    0.8892   -1.3450 H   0  0  0  0  0  0  0  0  0  0  0  0
  1  2  1  0
  2  3  1  0
  3  4  1  0
  4  5  1  0
  5  6  1  0
  6  7  1  0
  7  8  2  0
  8  9  1  0
  9  2  1  0
  9  5  1  0
  1 10  1  0
  1 11  1  0
  1 12  1  0
  2 13  1  0
  4 14  1  0
  4 15  1  0
  5 16  1  0
  6 17  1  0
  6 18  1  0
  7 19  1  0
  8 20  1  0
  9 21  1  0
M  END
