
     RDKit          3D

 21 22  0  0  0  0  0  0  0  0999 V2000
    2.0625    0.6332    0.2997 C   0  0  0  0  0  0  0  0  0  0  0  0
    1.2288   -0.0073   -0.7794 C   0  0  0  0  0  0  0  0  0  0  0  0
    1.2521   -1.3676   -0.6880 O   0  0  0  0  0  0  0  0  0  0  0  0
    0.0059   -1.8305   -0.3452 C   0  0  0  0  0  0  0  0  0  0  0  0
   -1.0003   -0.8024   -0.7989 C   0  0  0  0  0  0  0  0  0  0  0  0
   -1.8554   -0.2646    0.3124 C   0  0  0  0  0  0  0  0  0  0  0  0
   -0.7901    0.8010    0.5496 C   0  0  0  0  0  0  0  0  0  0  0  0
   -1.3722    2.0539    0.5946 O   0  0  0  0  0  0  0  0  0  0  0  0
   -0.1903    0.4635   -0.7918 C   0  0  0  0  0  0  0  0  0  0  0  0
    2.0655    0.0350    1.2482 H   0  0  0  0  0  0  0  0  0  0  0  0
    1.7755    1.6968    0.4857 H   0  0  0  0  0  0  0  0  0  0  0  0
    3.1288    0.6074   -0.0510 H   0  0  0  0  0  0  0  0  0  0  0  0
    1.6905    0.2782   -1.7608 H   0  0  0  0  0  0  0  0  0  0  0  0
   -0.0793   -2.0173    0.7425 H   0  0  0  0  0  0  0  0  0  0  0  0
   -0.1593   -2.8064   -0.8574 H   0  0  0  0  0  0  0  0  0  0  0  0
   -1.5032   -1.0727   -1.7292 H   0  0  0  0  0  0  0  0  0  0  0  0
   -2.8429    0.1285    0.0316 H   0  0  0  0  0  0  0  0  0  0  0  0
   -1.9384   -1.0048    1.1249 H   0  0  0  0  0  0  0  0  0  0  0  0
   -0.1073    0.5964    1.3851 H   0  0  0  0  0  0  0  0  0  0  0  0
   -0.9215    2.6933    1.1839 H   0  0  0  0  0  0  0  0  0  0  0  0
   -0.4495    1.1866   -1.5952 H   0  0  0  0  0  0  0  0  0  0  0  0
  1  2  1  0
  2  3  1  0
  3  4  1  0
  4  5  1  0
  5  6  1  0
  6  7  1  0
  7  8  1  0
  7  9  1  0
  9  2  1  0
  9  5  1  0
  1 10  1  0
  1 11  1  0
  1 12  1  0
  2 13  1  0
  4 14  1  0
  4 15  1  0
  5 16  1  0
  6 17  1  0
  6 18  1  0
  7 19  1  0
  8 20  1  0
  9 21  1  0
M  END
