
     RDKit          3D

 19 19  0  0  0  0  0  0  0  0999 V2000
   -1.7833   -0.5398    0.5519 C   0  0  0  0  0  0  0  0  0  0  0  0
   -1.0017   -0.3073   -0.7050 C   0  0  0  0  0  0  0  0  0  0  0  0
   -1.4117    0.9668   -1.1809 O   0  0  0  0  0  0  0  0  0  0  0  0
   -0.7780    1.8737   -0.3403 C   0  0  0  0  0  0  0  0  0  0  0  0
    0.2941    1.2036    0.2754 O   0  0  0  0  0  0  0  0  0  0  0  0
    0.4498    0.0311   -0.4302 C   0  0  0  0  0  0  0  0  0  0  0  0
    1.2233   -1.0255    0.2568 C   0  0  0  0  0  0  0  0  0  0  0  0
    2.6203   -0.5381    0.4433 C   0  0  0  0  0  0  0  0  0  0  0  0
    3.5357   -0.8349   -0.2967 O   0  0  0  0  0  0  0  0  0  0  0  0
   -2.1266   -1.6144    0.6448 H   0  0  0  0  0  0  0  0  0  0  0  0
   -2.7441    0.0533    0.5479 H   0  0  0  0  0  0  0  0  0  0  0  0
   -1.2504   -0.2171    1.4651 H   0  0  0  0  0  0  0  0  0  0  0  0
   -1.1328   -1.0955   -1.4496 H   0  0  0  0  0  0  0  0  0  0  0  0
   -1.4776    2.2101    0.4378 H   0  0  0  0  0  0  0  0  0  0  0  0
   -0.3029    2.7184   -0.9105 H   0  0  0  0  0  0  0  0  0  0  0  0
    0.9085    0.2673   -1.3983 H   0  0  0  0  0  0  0  0  0  0  0  0
    0.8278   -1.3640    1.2331 H   0  0  0  0  0  0  0  0  0  0  0  0
    1.3226   -1.9134   -0.4428 H   0  0  0  0  0  0  0  0  0  0  0  0
    2.8268    0.1256    1.2982 H   0  0  0  0  0  0  0  0  0  0  0  0
  1  2  1  0
  2  3  1  0
  3  4  1  0
  4  5  1  0
  5  6  1  0
  6  7  1  0
  7  8  1  0
  8  9  2  0
  6  2  1  0
  1 10  1  0
  1 11  1  0
  1 12  1  0
  2 13  1  0
  4 14  1  0
  4 15  1  0
  6 16  1  0
  7 17  1  0
  7 18  1  0
  8 19  1  0
M  END
