
     RDKit          3D

 17 19  0  0  0  0  0  0  0  0999 V2000
    2.1977    0.1536    0.0033 C   0  0  0  0  0  0  0  0  0  0  0  0
    0.8502   -0.3175    0.4892 C   0  0  0  0  0  0  0  0  0  0  0  0
    0.3988   -1.4554   -0.1116 O   0  0  0  0  0  0  0  0  0  0  0  0
   -0.8546   -1.2475   -0.6512 C   0  0  0  0  0  0  0  0  0  0  0  0
   -1.8344   -0.3776    0.0506 C   0  0  0  0  0  0  0  0  0  0  0  0
   -1.3531    0.6733    0.9859 C   0  0  0  0  0  0  0  0  0  0  0  0
   -1.8307    1.1572    1.9887 O   0  0  0  0  0  0  0  0  0  0  0  0
   -0.1459    0.8026    0.1615 C   0  0  0  0  0  0  0  0  0  0  0  0
   -0.9057    0.1675   -0.9623 C   0  0  0  0  0  0  0  0  0  0  0  0
    3.0149   -0.5389    0.2708 H   0  0  0  0  0  0  0  0  0  0  0  0
    2.4000    1.1200    0.5518 H   0  0  0  0  0  0  0  0  0  0  0  0
    2.1806    0.4173   -1.0660 H   0  0  0  0  0  0  0  0  0  0  0  0
    0.9238   -0.4717    1.5910 H   0  0  0  0  0  0  0  0  0  0  0  0
   -1.2480   -2.0601   -1.2447 H   0  0  0  0  0  0  0  0  0  0  0  0
   -2.8998   -0.4610   -0.1948 H   0  0  0  0  0  0  0  0  0  0  0  0
    0.2834    1.7829    0.0070 H   0  0  0  0  0  0  0  0  0  0  0  0
   -1.1771    0.6553   -1.8695 H   0  0  0  0  0  0  0  0  0  0  0  0
  1  2  1  0
  2  3  1  0
  3  4  1  0
  4  5  1  0
  5  6  1  0
  6  7  2  0
  6  8  1  0
  8  9  1  0
  8  2  1  0
  9  4  1  0
  9  5  1  0
  1 10  1  0
  1 11  1  0
  1 12  1  0
  2 13  1  0
  4 14  1  0
  5 15  1  0
  8 16  1  0
  9 17  1  0
M  END
