
     RDKit          3D

 17 18  0  0  0  0  0  0  0  0999 V2000
   -2.3394   -0.8296    0.2557 C   0  0  0  0  0  0  0  0  0  0  0  0
   -1.3457    0.2624    0.1204 C   0  0  0  0  0  0  0  0  0  0  0  0
   -1.5249    1.5598    0.1563 O   0  0  0  0  0  0  0  0  0  0  0  0
   -0.3914    2.2009   -0.0027 C   0  0  0  0  0  0  0  0  0  0  0  0
    0.6196    1.2746   -0.1562 C   0  0  0  0  0  0  0  0  0  0  0  0
    0.0014    0.0466   -0.0763 C   0  0  0  0  0  0  0  0  0  0  0  0
    1.0313   -1.0334   -0.2337 C   0  0  0  0  0  0  0  0  0  0  0  0
    2.3235   -0.2546   -0.0860 C   0  0  0  0  0  0  0  0  0  0  0  0
    1.9806    1.0895   -0.3546 O   0  0  0  0  0  0  0  0  0  0  0  0
   -3.2370   -0.5244    0.8231 H   0  0  0  0  0  0  0  0  0  0  0  0
   -1.8541   -1.6321    0.8495 H   0  0  0  0  0  0  0  0  0  0  0  0
   -2.5856   -1.1603   -0.7806 H   0  0  0  0  0  0  0  0  0  0  0  0
   -0.2890    3.2820   -0.0092 H   0  0  0  0  0  0  0  0  0  0  0  0
    0.9039   -1.8035    0.5261 H   0  0  0  0  0  0  0  0  0  0  0  0
    0.9362   -1.4674   -1.2466 H   0  0  0  0  0  0  0  0  0  0  0  0
    2.6559   -0.3696    0.9736 H   0  0  0  0  0  0  0  0  0  0  0  0
    3.1148   -0.6409   -0.7589 H   0  0  0  0  0  0  0  0  0  0  0  0
  1  2  1  0
  2  3  1  0
  3  4  1  0
  4  5  2  0
  5  6  1  0
  6  7  1  0
  7  8  1  0
  8  9  1  0
  6  2  2  0
  9  5  1  0
  1 10  1  0
  1 11  1  0
  1 12  1  0
  4 13  1  0
  7 14  1  0
  7 15  1  0
  8 16  1  0
  8 17  1  0
M  END
