
     RDKit          3D

 19 20  0  0  0  0  0  0  0  0999 V2000
   -1.6580   -0.9480   -1.0825 C   0  0  0  0  0  0  0  0  0  0  0  0
   -1.1279   -0.2648    0.1907 C   0  0  0  0  0  0  0  0  0  0  0  0
   -1.3883    1.0515    0.0761 O   0  0  0  0  0  0  0  0  0  0  0  0
   -0.4129    1.9649    0.1236 C   0  0  0  0  0  0  0  0  0  0  0  0
    0.9451    1.4756   -0.2882 C   0  0  0  0  0  0  0  0  0  0  0  0
    1.2894    0.2042   -0.1802 C   0  0  0  0  0  0  0  0  0  0  0  0
    2.0418   -1.0698   -0.2228 C   0  0  0  0  0  0  0  0  0  0  0  0
    0.7827   -1.6695   -0.4912 O   0  0  0  0  0  0  0  0  0  0  0  0
    0.2610   -0.7124    0.3745 C   0  0  0  0  0  0  0  0  0  0  0  0
   -1.6379   -2.0360   -0.9921 H   0  0  0  0  0  0  0  0  0  0  0  0
   -2.6961   -0.5337   -1.2033 H   0  0  0  0  0  0  0  0  0  0  0  0
   -1.0234   -0.5539   -1.9051 H   0  0  0  0  0  0  0  0  0  0  0  0
   -1.7525   -0.6813    1.0112 H   0  0  0  0  0  0  0  0  0  0  0  0
   -0.6456    2.7999   -0.5885 H   0  0  0  0  0  0  0  0  0  0  0  0
   -0.2701    2.4583    1.1097 H   0  0  0  0  0  0  0  0  0  0  0  0
    1.6819    2.1375   -0.6834 H   0  0  0  0  0  0  0  0  0  0  0  0
    2.3745   -1.4214    0.7643 H   0  0  0  0  0  0  0  0  0  0  0  0
    2.7596   -1.1779   -1.0551 H   0  0  0  0  0  0  0  0  0  0  0  0
    0.4767   -1.0231    1.4205 H   0  0  0  0  0  0  0  0  0  0  0  0
  1  2  1  0
  2  3  1  0
  3  4  1  0
  4  5  1  0
  5  6  2  0
  6  7  1  0
  7  8  1  0
  8  9  1  0
  9  2  1  0
  9  6  1  0
  1 10  1  0
  1 11  1  0
  1 12  1  0
  2 13  1  0
  4 14  1  0
  4 15  1  0
  5 16  1  0
  7 17  1  0
  7 18  1  0
  9 19  1  0
M  END
