
     RDKit          3D

 23 24  0  0  0  0  0  0  0  0999 V2000
    2.7563    0.4997    0.0119 C   0  0  0  0  0  0  0  0  0  0  0  0
    1.3007    0.5056    0.4107 C   0  0  0  0  0  0  0  0  0  0  0  0
    1.0746    0.0856    1.7421 O   0  0  0  0  0  0  0  0  0  0  0  0
   -0.0837   -0.5545    1.2398 C   0  0  0  0  0  0  0  0  0  0  0  0
   -1.2118    0.4197    1.2088 C   0  0  0  0  0  0  0  0  0  0  0  0
   -2.1205    0.2029    0.0596 C   0  0  0  0  0  0  0  0  0  0  0  0
   -1.4887   -0.0340   -1.2517 C   0  0  0  0  0  0  0  0  0  0  0  0
   -0.1817   -0.7092   -1.2720 C   0  0  0  0  0  0  0  0  0  0  0  0
    0.6168   -0.7370   -0.0378 C   0  0  0  0  0  0  0  0  0  0  0  0
    3.1293   -0.5456   -0.0488 H   0  0  0  0  0  0  0  0  0  0  0  0
    2.8273    0.9570   -0.9818 H   0  0  0  0  0  0  0  0  0  0  0  0
    3.4039    1.0569    0.6909 H   0  0  0  0  0  0  0  0  0  0  0  0
    0.8158    1.4381    0.1355 H   0  0  0  0  0  0  0  0  0  0  0  0
   -0.3253   -1.4960    1.7657 H   0  0  0  0  0  0  0  0  0  0  0  0
   -0.8992    1.4770    1.2398 H   0  0  0  0  0  0  0  0  0  0  0  0
   -1.8124    0.2612    2.1523 H   0  0  0  0  0  0  0  0  0  0  0  0
   -2.8143   -0.6475    0.3272 H   0  0  0  0  0  0  0  0  0  0  0  0
   -2.8036    1.0977   -0.0015 H   0  0  0  0  0  0  0  0  0  0  0  0
   -1.4587    0.9509   -1.8066 H   0  0  0  0  0  0  0  0  0  0  0  0
   -2.2197   -0.6423   -1.8654 H   0  0  0  0  0  0  0  0  0  0  0  0
   -0.2797   -1.7706   -1.6504 H   0  0  0  0  0  0  0  0  0  0  0  0
    0.4544   -0.2140   -2.0667 H   0  0  0  0  0  0  0  0  0  0  0  0
    1.3201   -1.6015   -0.0015 H   0  0  0  0  0  0  0  0  0  0  0  0
  1  2  1  0
  2  3  1  0
  3  4  1  0
  4  5  1  0
  5  6  1  0
  6  7  1  0
  7  8  1  0
  8  9  1  0
  9  2  1  0
  9  4  1  0
  1 10  1  0
  1 11  1  0
  1 12  1  0
  2 13  1  0
  4 14  1  0
  5 15  1  0
  5 16  1  0
  6 17  1  0
  6 18  1  0
  7 19  1  0
  7 20  1  0
  8 21  1  0
  8 22  1  0
  9 23  1  0
M  END
