
     RDKit          3D

 17 17  0  0  0  0  0  0  0  0999 V2000
   -2.7732    0.3716    0.6521 C   0  0  0  0  0  0  0  0  0  0  0  0
   -1.6675    0.1740   -0.3236 C   0  0  0  0  0  0  0  0  0  0  0  0
   -1.3990   -1.1587   -0.6785 O   0  0  0  0  0  0  0  0  0  0  0  0
   -0.3694   -0.4023    0.0281 C   0  0  0  0  0  0  0  0  0  0  0  0
    0.7726   -0.1510   -0.8794 C   0  0  0  0  0  0  0  0  0  0  0  0
    0.6393    0.3478   -1.9656 O   0  0  0  0  0  0  0  0  0  0  0  0
    2.1313   -0.5239   -0.4363 C   0  0  0  0  0  0  0  0  0  0  0  0
    2.7030    0.4323    0.5671 C   0  0  0  0  0  0  0  0  0  0  0  0
    3.8514    0.2026    0.9508 O   0  0  0  0  0  0  0  0  0  0  0  0
   -2.6205   -0.1415    1.6286 H   0  0  0  0  0  0  0  0  0  0  0  0
   -3.7163    0.0125    0.1917 H   0  0  0  0  0  0  0  0  0  0  0  0
   -2.9046    1.4703    0.8235 H   0  0  0  0  0  0  0  0  0  0  0  0
   -1.6674    0.9434   -1.1526 H   0  0  0  0  0  0  0  0  0  0  0  0
   -0.1672   -0.7965    1.0500 H   0  0  0  0  0  0  0  0  0  0  0  0
    2.2009   -1.5846   -0.0823 H   0  0  0  0  0  0  0  0  0  0  0  0
    2.8497   -0.4735   -1.3083 H   0  0  0  0  0  0  0  0  0  0  0  0
    2.1369    1.2774    0.9348 H   0  0  0  0  0  0  0  0  0  0  0  0
  1  2  1  0
  2  3  1  0
  3  4  1  0
  4  5  1  0
  5  6  2  0
  5  7  1  0
  7  8  1  0
  8  9  2  0
  4  2  1  0
  1 10  1  0
  1 11  1  0
  1 12  1  0
  2 13  1  0
  4 14  1  0
  7 15  1  0
  7 16  1  0
  8 17  1  0
M  END
