
     RDKit          3D

 19 19  0  0  0  0  0  0  0  0999 V2000
   -2.7522    0.4262   -0.1104 C   0  0  0  0  0  0  0  0  0  0  0  0
   -1.3283    0.1347    0.2367 C   0  0  0  0  0  0  0  0  0  0  0  0
   -0.8773   -0.9625   -0.5157 O   0  0  0  0  0  0  0  0  0  0  0  0
    0.3894   -1.2680    0.0009 C   0  0  0  0  0  0  0  0  0  0  0  0
    1.2850   -0.0882   -0.3932 C   0  0  0  0  0  0  0  0  0  0  0  0
    2.6962   -0.3912   -0.1027 C   0  0  0  0  0  0  0  0  0  0  0  0
    3.0890   -1.5307    0.1385 O   0  0  0  0  0  0  0  0  0  0  0  0
    0.7674    1.1130    0.3703 C   0  0  0  0  0  0  0  0  0  0  0  0
   -0.5691    1.2698    0.0218 O   0  0  0  0  0  0  0  0  0  0  0  0
   -3.0440    1.3685    0.3867 H   0  0  0  0  0  0  0  0  0  0  0  0
   -3.3951   -0.4271    0.1553 H   0  0  0  0  0  0  0  0  0  0  0  0
   -2.8192    0.5378   -1.2267 H   0  0  0  0  0  0  0  0  0  0  0  0
   -1.2870   -0.2152    1.3065 H   0  0  0  0  0  0  0  0  0  0  0  0
    0.3184   -1.2562    1.1139 H   0  0  0  0  0  0  0  0  0  0  0  0
    0.7806   -2.2133   -0.3983 H   0  0  0  0  0  0  0  0  0  0  0  0
    1.1035    0.1249   -1.4746 H   0  0  0  0  0  0  0  0  0  0  0  0
    3.4320    0.3922   -0.0942 H   0  0  0  0  0  0  0  0  0  0  0  0
    0.9220    0.9461    1.4410 H   0  0  0  0  0  0  0  0  0  0  0  0
    1.2887    2.0390   -0.0052 H   0  0  0  0  0  0  0  0  0  0  0  0
  1  2  1  0
  2  3  1  0
  3  4  1  0
  4  5  1  0
  5  6  1  0
  6  7  2  0
  5  8  1  0
  8  9  1  0
  9  2  1  0
  1 10  1  0
  1 11  1  0
  1 12  1  0
  2 13  1  0
  4 14  1  0
  4 15  1  0
  5 16  1  0
  6 17  1  0
  8 18  1  0
  8 19  1  0
M  END
