
     RDKit          3D

 19 21  0  0  0  0  0  0  0  0999 V2000
   -1.8635    0.5207   -0.7207 C   0  0  0  0  0  0  0  0  0  0  0  0
   -0.8929   -0.4536   -0.1477 C   0  0  0  0  0  0  0  0  0  0  0  0
    0.0245   -0.9469   -1.0383 O   0  0  0  0  0  0  0  0  0  0  0  0
    1.1931   -1.2682   -0.3486 C   0  0  0  0  0  0  0  0  0  0  0  0
    1.8837   -0.0723    0.2433 C   0  0  0  0  0  0  0  0  0  0  0  0
    0.9809    1.1144    0.4997 C   0  0  0  0  0  0  0  0  0  0  0  0
   -0.0705    0.1205    0.9841 C   0  0  0  0  0  0  0  0  0  0  0  0
   -0.7173    0.4310    2.1382 O   0  0  0  0  0  0  0  0  0  0  0  0
    1.0296   -0.9022    1.0625 C   0  0  0  0  0  0  0  0  0  0  0  0
   -2.9092    0.1223   -0.5686 H   0  0  0  0  0  0  0  0  0  0  0  0
   -1.8555    1.4839   -0.1490 H   0  0  0  0  0  0  0  0  0  0  0  0
   -1.7680    0.6790   -1.8049 H   0  0  0  0  0  0  0  0  0  0  0  0
   -1.4297   -1.3452    0.2922 H   0  0  0  0  0  0  0  0  0  0  0  0
    1.7776   -2.1461   -0.6760 H   0  0  0  0  0  0  0  0  0  0  0  0
    2.9506   -0.0251    0.3954 H   0  0  0  0  0  0  0  0  0  0  0  0
    1.3179    1.7959    1.3065 H   0  0  0  0  0  0  0  0  0  0  0  0
    0.7094    1.5961   -0.4605 H   0  0  0  0  0  0  0  0  0  0  0  0
   -1.6175    0.7770    1.9752 H   0  0  0  0  0  0  0  0  0  0  0  0
    1.2567   -1.4812    1.9213 H   0  0  0  0  0  0  0  0  0  0  0  0
  1  2  1  0
  2  3  1  0
  3  4  1  0
  4  5  1  0
  5  6  1  0
  6  7  1  0
  7  8  1  0
  7  9  1  0
  7  2  1  0
  9  4  1  0
  9  5  1  0
  1 10  1  0
  1 11  1  0
  1 12  1  0
  2 13  1  0
  4 14  1  0
  5 15  1  0
  6 16  1  0
  6 17  1  0
  8 18  1  0
  9 19  1  0
M  END
