
     RDKit          3D

 19 19  0  0  0  0  0  0  0  0999 V2000
   -1.5364   -0.7410    0.8596 C   0  0  0  0  0  0  0  0  0  0  0  0
   -1.0612   -0.3110   -0.5113 C   0  0  0  0  0  0  0  0  0  0  0  0
   -0.2728   -1.3560   -1.0245 O   0  0  0  0  0  0  0  0  0  0  0  0
    0.9467   -1.5643   -0.4146 C   0  0  0  0  0  0  0  0  0  0  0  0
    1.4975   -2.6892   -0.3195 O   0  0  0  0  0  0  0  0  0  0  0  0
    1.6320   -0.4059    0.1511 C   0  0  0  0  0  0  0  0  0  0  0  0
    1.1172    0.9270   -0.2802 C   0  0  0  0  0  0  0  0  0  0  0  0
   -0.3528    1.0152   -0.5017 C   0  0  0  0  0  0  0  0  0  0  0  0
   -0.9581    1.8330    0.4598 O   0  0  0  0  0  0  0  0  0  0  0  0
   -1.9705   -1.7567    0.7359 H   0  0  0  0  0  0  0  0  0  0  0  0
   -2.3648   -0.0978    1.2251 H   0  0  0  0  0  0  0  0  0  0  0  0
   -0.7067   -0.7304    1.5984 H   0  0  0  0  0  0  0  0  0  0  0  0
   -1.9864   -0.2784   -1.1556 H   0  0  0  0  0  0  0  0  0  0  0  0
    2.7161   -0.4916   -0.1591 H   0  0  0  0  0  0  0  0  0  0  0  0
    1.6613   -0.5365    1.2630 H   0  0  0  0  0  0  0  0  0  0  0  0
    1.3994    1.6554    0.5109 H   0  0  0  0  0  0  0  0  0  0  0  0
    1.6611    1.2540   -1.1951 H   0  0  0  0  0  0  0  0  0  0  0  0
   -0.5629    1.4780   -1.4902 H   0  0  0  0  0  0  0  0  0  0  0  0
   -0.8590    2.7964    0.2479 H   0  0  0  0  0  0  0  0  0  0  0  0
  1  2  1  0
  2  3  1  0
  3  4  1  0
  4  5  2  0
  4  6  1  0
  6  7  1  0
  7  8  1  0
  8  9  1  0
  8  2  1  0
  1 10  1  0
  1 11  1  0
  1 12  1  0
  2 13  1  0
  6 14  1  0
  6 15  1  0
  7 16  1  0
  7 17  1  0
  8 18  1  0
  9 19  1  0
M  END
