
     RDKit          3D

 19 19  0  0  0  0  0  0  0  0999 V2000
    2.8628   -0.0497    0.0739 C   0  0  0  0  0  0  0  0  0  0  0  0
    1.4336   -0.4769    0.2822 C   0  0  0  0  0  0  0  0  0  0  0  0
    0.8744    0.4005    1.2202 O   0  0  0  0  0  0  0  0  0  0  0  0
   -0.4530    0.0048    1.3972 C   0  0  0  0  0  0  0  0  0  0  0  0
   -1.2730    0.5925    0.2769 C   0  0  0  0  0  0  0  0  0  0  0  0
   -2.5105   -0.2437    0.1231 C   0  0  0  0  0  0  0  0  0  0  0  0
   -0.4287    0.5474   -0.9630 C   0  0  0  0  0  0  0  0  0  0  0  0
   -0.7610    1.2391   -1.9626 O   0  0  0  0  0  0  0  0  0  0  0  0
    0.6819   -0.2686   -0.9242 O   0  0  0  0  0  0  0  0  0  0  0  0
    2.9026    0.7288   -0.7306 H   0  0  0  0  0  0  0  0  0  0  0  0
    3.2694    0.4046    1.0107 H   0  0  0  0  0  0  0  0  0  0  0  0
    3.4769   -0.9303   -0.1674 H   0  0  0  0  0  0  0  0  0  0  0  0
    1.3248   -1.5026    0.6381 H   0  0  0  0  0  0  0  0  0  0  0  0
   -0.8696    0.3820    2.3584 H   0  0  0  0  0  0  0  0  0  0  0  0
   -0.4996   -1.0942    1.3235 H   0  0  0  0  0  0  0  0  0  0  0  0
   -1.4724    1.6423    0.5292 H   0  0  0  0  0  0  0  0  0  0  0  0
   -2.7757   -0.7219    1.1056 H   0  0  0  0  0  0  0  0  0  0  0  0
   -3.4119    0.3608   -0.1475 H   0  0  0  0  0  0  0  0  0  0  0  0
   -2.3711   -1.0149   -0.6638 H   0  0  0  0  0  0  0  0  0  0  0  0
  1  2  1  0
  2  3  1  0
  3  4  1  0
  4  5  1  0
  5  6  1  0
  5  7  1  0
  7  8  2  0
  7  9  1  0
  9  2  1  0
  1 10  1  0
  1 11  1  0
  1 12  1  0
  2 13  1  0
  4 14  1  0
  4 15  1  0
  5 16  1  0
  6 17  1  0
  6 18  1  0
  6 19  1  0
M  END
