
     RDKit          3D

 16 16  0  0  0  0  0  0  0  0999 V2000
    2.0172    0.2561   -0.3302 C   0  0  0  0  0  0  0  0  0  0  0  0
    0.7174    0.1332    0.4496 C   0  0  0  0  0  0  0  0  0  0  0  0
    0.3066   -1.1617    0.4195 O   0  0  0  0  0  0  0  0  0  0  0  0
   -1.0002   -1.4394    0.5578 C   0  0  0  0  0  0  0  0  0  0  0  0
   -1.9307   -0.4915    0.3533 O   0  0  0  0  0  0  0  0  0  0  0  0
   -1.5991    0.5677   -0.4631 C   0  0  0  0  0  0  0  0  0  0  0  0
   -0.2411    1.0788   -0.1823 C   0  0  0  0  0  0  0  0  0  0  0  0
    0.1639    2.2004   -0.4202 O   0  0  0  0  0  0  0  0  0  0  0  0
    2.7021    0.9923    0.1211 H   0  0  0  0  0  0  0  0  0  0  0  0
    2.5653   -0.7247   -0.3255 H   0  0  0  0  0  0  0  0  0  0  0  0
    1.8347    0.4836   -1.4047 H   0  0  0  0  0  0  0  0  0  0  0  0
    0.9448    0.5073    1.4858 H   0  0  0  0  0  0  0  0  0  0  0  0
   -1.1708   -1.8733    1.5898 H   0  0  0  0  0  0  0  0  0  0  0  0
   -1.2424   -2.3138   -0.1194 H   0  0  0  0  0  0  0  0  0  0  0  0
   -1.7587    0.3814   -1.5389 H   0  0  0  0  0  0  0  0  0  0  0  0
   -2.3089    1.4038   -0.1925 H   0  0  0  0  0  0  0  0  0  0  0  0
  1  2  1  0
  2  3  1  0
  3  4  1  0
  4  5  1  0
  5  6  1  0
  6  7  1  0
  7  8  2  0
  7  2  1  0
  1  9  1  0
  1 10  1  0
  1 11  1  0
  2 12  1  0
  4 13  1  0
  4 14  1  0
  6 15  1  0
  6 16  1  0
M  END
