
     RDKit          3D

 23 24  0  0  0  0  0  0  0  0999 V2000
    2.3728   -0.5209    0.1932 C   0  0  0  0  0  0  0  0  0  0  0  0
    1.2456    0.4428   -0.0616 C   0  0  0  0  0  0  0  0  0  0  0  0
    0.6607    0.7525    1.1428 O   0  0  0  0  0  0  0  0  0  0  0  0
   -0.6939    0.5000    1.1980 C   0  0  0  0  0  0  0  0  0  0  0  0
   -1.0637   -0.9198    0.9034 C   0  0  0  0  0  0  0  0  0  0  0  0
   -0.3759   -1.3604   -0.3585 C   0  0  0  0  0  0  0  0  0  0  0  0
    0.2216   -0.1197   -1.0032 C   0  0  0  0  0  0  0  0  0  0  0  0
   -0.8793    0.8999   -1.1947 C   0  0  0  0  0  0  0  0  0  0  0  0
   -1.3856    1.3734    0.1538 C   0  0  0  0  0  0  0  0  0  0  0  0
    3.3769   -0.0274    0.1156 H   0  0  0  0  0  0  0  0  0  0  0  0
    2.3418   -1.4148   -0.4663 H   0  0  0  0  0  0  0  0  0  0  0  0
    2.3423   -0.9109    1.2513 H   0  0  0  0  0  0  0  0  0  0  0  0
    1.6692    1.3722   -0.5048 H   0  0  0  0  0  0  0  0  0  0  0  0
   -1.0440    0.8250    2.2075 H   0  0  0  0  0  0  0  0  0  0  0  0
   -0.8273   -1.6132    1.7395 H   0  0  0  0  0  0  0  0  0  0  0  0
   -2.1640   -0.9562    0.7207 H   0  0  0  0  0  0  0  0  0  0  0  0
    0.4197   -2.0745   -0.0814 H   0  0  0  0  0  0  0  0  0  0  0  0
   -1.0561   -1.8031   -1.1056 H   0  0  0  0  0  0  0  0  0  0  0  0
    0.6207   -0.3597   -1.9940 H   0  0  0  0  0  0  0  0  0  0  0  0
   -1.7700    0.4498   -1.7126 H   0  0  0  0  0  0  0  0  0  0  0  0
   -0.4839    1.7741   -1.7571 H   0  0  0  0  0  0  0  0  0  0  0  0
   -2.4751    1.2854    0.2621 H   0  0  0  0  0  0  0  0  0  0  0  0
   -1.0525    2.4055    0.3517 H   0  0  0  0  0  0  0  0  0  0  0  0
  1  2  1  0
  2  3  1  0
  3  4  1  0
  4  5  1  0
  5  6  1  0
  6  7  1  0
  7  8  1  0
  8  9  1  0
  7  2  1  0
  9  4  1  0
  1 10  1  0
  1 11  1  0
  1 12  1  0
  2 13  1  0
  4 14  1  0
  5 15  1  0
  5 16  1  0
  6 17  1  0
  6 18  1  0
  7 19  1  0
  8 20  1  0
  8 21  1  0
  9 22  1  0
  9 23  1  0
M  END
