
     RDKit          3D

 23 23  0  0  0  0  0  0  0  0999 V2000
    2.1036   -0.7832    0.1581 C   0  0  0  0  0  0  0  0  0  0  0  0
    1.0331    0.2476    0.1705 C   0  0  0  0  0  0  0  0  0  0  0  0
    1.1436    1.2000   -0.8323 O   0  0  0  0  0  0  0  0  0  0  0  0
    0.0171    1.9845   -0.5793 C   0  0  0  0  0  0  0  0  0  0  0  0
   -1.1185    1.0240   -0.2902 C   0  0  0  0  0  0  0  0  0  0  0  0
   -1.8472    1.4275    0.7981 O   0  0  0  0  0  0  0  0  0  0  0  0
   -0.3479   -0.2704   -0.0451 C   0  0  0  0  0  0  0  0  0  0  0  0
   -0.8532   -1.0114    1.1581 C   0  0  0  0  0  0  0  0  0  0  0  0
   -0.5168   -1.1252   -1.2519 C   0  0  0  0  0  0  0  0  0  0  0  0
    3.0883   -0.2458    0.1072 H   0  0  0  0  0  0  0  0  0  0  0  0
    2.0627   -1.3321    1.1235 H   0  0  0  0  0  0  0  0  0  0  0  0
    2.0777   -1.4675   -0.6836 H   0  0  0  0  0  0  0  0  0  0  0  0
    1.0471    0.7652    1.1595 H   0  0  0  0  0  0  0  0  0  0  0  0
    0.2365    2.6075    0.3063 H   0  0  0  0  0  0  0  0  0  0  0  0
   -0.1769    2.5701   -1.4946 H   0  0  0  0  0  0  0  0  0  0  0  0
   -1.7610    0.9691   -1.1788 H   0  0  0  0  0  0  0  0  0  0  0  0
   -1.4261    1.2841    1.6658 H   0  0  0  0  0  0  0  0  0  0  0  0
   -0.1032   -0.9558    1.9906 H   0  0  0  0  0  0  0  0  0  0  0  0
   -1.8358   -0.7083    1.5084 H   0  0  0  0  0  0  0  0  0  0  0  0
   -0.9194   -2.1143    0.9233 H   0  0  0  0  0  0  0  0  0  0  0  0
   -1.5190   -1.6380   -1.1547 H   0  0  0  0  0  0  0  0  0  0  0  0
   -0.6003   -0.5126   -2.1727 H   0  0  0  0  0  0  0  0  0  0  0  0
    0.2157   -1.9147   -1.3860 H   0  0  0  0  0  0  0  0  0  0  0  0
  1  2  1  0
  2  3  1  0
  3  4  1  0
  4  5  1  0
  5  6  1  0
  5  7  1  0
  7  8  1  0
  7  9  1  0
  7  2  1  0
  1 10  1  0
  1 11  1  0
  1 12  1  0
  2 13  1  0
  4 14  1  0
  4 15  1  0
  5 16  1  0
  6 17  1  0
  8 18  1  0
  8 19  1  0
  8 20  1  0
  9 21  1  0
  9 22  1  0
  9 23  1  0
M  END
