
     RDKit          3D

 21 21  0  0  0  0  0  0  0  0999 V2000
    1.4118   -1.9757   -0.1119 C   0  0  0  0  0  0  0  0  0  0  0  0
    0.5281   -0.7713   -0.0948 C   0  0  0  0  0  0  0  0  0  0  0  0
   -0.5228   -0.9916    0.7992 O   0  0  0  0  0  0  0  0  0  0  0  0
   -1.6928   -0.6728    0.1796 C   0  0  0  0  0  0  0  0  0  0  0  0
   -2.0125    0.7482    0.0293 C   0  0  0  0  0  0  0  0  0  0  0  0
   -0.9194    1.6802   -0.1872 C   0  0  0  0  0  0  0  0  0  0  0  0
    0.4015    1.6378   -0.0851 C   0  0  0  0  0  0  0  0  0  0  0  0
    1.2080    0.4811    0.3290 C   0  0  0  0  0  0  0  0  0  0  0  0
    2.5125    0.6006   -0.1255 O   0  0  0  0  0  0  0  0  0  0  0  0
    1.7493   -2.1999    0.9079 H   0  0  0  0  0  0  0  0  0  0  0  0
    0.7733   -2.8464   -0.4226 H   0  0  0  0  0  0  0  0  0  0  0  0
    2.2157   -1.9114   -0.8570 H   0  0  0  0  0  0  0  0  0  0  0  0
    0.1416   -0.6072   -1.1377 H   0  0  0  0  0  0  0  0  0  0  0  0
   -1.6968   -1.1811   -0.8249 H   0  0  0  0  0  0  0  0  0  0  0  0
   -2.5205   -1.1887    0.7509 H   0  0  0  0  0  0  0  0  0  0  0  0
   -2.7388    0.8656   -0.8278 H   0  0  0  0  0  0  0  0  0  0  0  0
   -2.5864    1.0889    0.9380 H   0  0  0  0  0  0  0  0  0  0  0  0
   -1.2601    2.6715   -0.5185 H   0  0  0  0  0  0  0  0  0  0  0  0
    0.9449    2.5454   -0.3310 H   0  0  0  0  0  0  0  0  0  0  0  0
    1.2537    0.5079    1.4569 H   0  0  0  0  0  0  0  0  0  0  0  0
    2.8098    1.5188    0.1331 H   0  0  0  0  0  0  0  0  0  0  0  0
  1  2  1  0
  2  3  1  0
  3  4  1  0
  4  5  1  0
  5  6  1  0
  6  7  2  0
  7  8  1  0
  8  9  1  0
  8  2  1  0
  1 10  1  0
  1 11  1  0
  1 12  1  0
  2 13  1  0
  4 14  1  0
  4 15  1  0
  5 16  1  0
  5 17  1  0
  6 18  1  0
  7 19  1  0
  8 20  1  0
  9 21  1  0
M  END
