
     RDKit          3D

 19 19  0  0  0  0  0  0  0  0999 V2000
    2.7793    0.0431    0.1953 C   0  0  0  0  0  0  0  0  0  0  0  0
    1.3876   -0.0016   -0.3143 C   0  0  0  0  0  0  0  0  0  0  0  0
    0.6563   -1.0998    0.0453 O   0  0  0  0  0  0  0  0  0  0  0  0
   -0.6498   -0.7302   -0.3520 C   0  0  0  0  0  0  0  0  0  0  0  0
   -1.6721   -1.1926    0.6470 C   0  0  0  0  0  0  0  0  0  0  0  0
   -0.6081    0.7790   -0.4755 C   0  0  0  0  0  0  0  0  0  0  0  0
   -1.7611    1.4454    0.1426 C   0  0  0  0  0  0  0  0  0  0  0  0
   -1.7075    2.1788    1.1145 O   0  0  0  0  0  0  0  0  0  0  0  0
    0.5961    1.0665    0.1666 O   0  0  0  0  0  0  0  0  0  0  0  0
    3.3982    0.6375   -0.5404 H   0  0  0  0  0  0  0  0  0  0  0  0
    2.9072    0.5556    1.1602 H   0  0  0  0  0  0  0  0  0  0  0  0
    3.2275   -0.9743    0.1815 H   0  0  0  0  0  0  0  0  0  0  0  0
    1.3236    0.0913   -1.4345 H   0  0  0  0  0  0  0  0  0  0  0  0
   -0.8955   -1.1922   -1.3271 H   0  0  0  0  0  0  0  0  0  0  0  0
   -2.6668   -1.1038    0.1938 H   0  0  0  0  0  0  0  0  0  0  0  0
   -1.4398   -2.2747    0.8578 H   0  0  0  0  0  0  0  0  0  0  0  0
   -1.6774   -0.5994    1.5832 H   0  0  0  0  0  0  0  0  0  0  0  0
   -0.4599    1.0966   -1.5479 H   0  0  0  0  0  0  0  0  0  0  0  0
   -2.7379    1.2750   -0.2961 H   0  0  0  0  0  0  0  0  0  0  0  0
  1  2  1  0
  2  3  1  0
  3  4  1  0
  4  5  1  0
  4  6  1  0
  6  7  1  0
  7  8  2  0
  6  9  1  0
  9  2  1  0
  1 10  1  0
  1 11  1  0
  1 12  1  0
  2 13  1  0
  4 14  1  0
  5 15  1  0
  5 16  1  0
  5 17  1  0
  6 18  1  0
  7 19  1  0
M  END
