
     RDKit          3D

 19 19  0  0  0  0  0  0  0  0999 V2000
   -1.9739   -0.1702    0.9723 C   0  0  0  0  0  0  0  0  0  0  0  0
   -1.0738    0.6866    0.1241 C   0  0  0  0  0  0  0  0  0  0  0  0
   -1.3684    0.4415   -1.2566 O   0  0  0  0  0  0  0  0  0  0  0  0
   -0.4848   -0.6334   -1.1663 C   0  0  0  0  0  0  0  0  0  0  0  0
   -0.3894   -1.7648   -1.6976 O   0  0  0  0  0  0  0  0  0  0  0  0
    0.2789    0.1392   -0.1813 C   0  0  0  0  0  0  0  0  0  0  0  0
    1.1721    1.1379   -0.8294 C   0  0  0  0  0  0  0  0  0  0  0  0
    0.9525   -0.6363    0.9101 C   0  0  0  0  0  0  0  0  0  0  0  0
    2.1962   -1.0668    0.4494 O   0  0  0  0  0  0  0  0  0  0  0  0
   -2.9787   -0.1699    0.4667 H   0  0  0  0  0  0  0  0  0  0  0  0
   -2.1504    0.2633    1.9759 H   0  0  0  0  0  0  0  0  0  0  0  0
   -1.6422   -1.2145    1.0305 H   0  0  0  0  0  0  0  0  0  0  0  0
   -1.0497    1.7282    0.4221 H   0  0  0  0  0  0  0  0  0  0  0  0
    2.2168    0.7551   -0.9083 H   0  0  0  0  0  0  0  0  0  0  0  0
    1.2298    2.1019   -0.2953 H   0  0  0  0  0  0  0  0  0  0  0  0
    0.8632    1.3849   -1.8789 H   0  0  0  0  0  0  0  0  0  0  0  0
    1.1735    0.1063    1.7342 H   0  0  0  0  0  0  0  0  0  0  0  0
    0.3623   -1.4547    1.3222 H   0  0  0  0  0  0  0  0  0  0  0  0
    2.6659   -1.6344    1.0986 H   0  0  0  0  0  0  0  0  0  0  0  0
  1  2  1  0
  2  3  1  0
  3  4  1  0
  4  5  2  0
  4  6  1  0
  6  7  1  0
  6  8  1  0
  8  9  1  0
  6  2  1  0
  1 10  1  0
  1 11  1  0
  1 12  1  0
  2 13  1  0
  7 14  1  0
  7 15  1  0
  7 16  1  0
  8 17  1  0
  8 18  1  0
  9 19  1  0
M  END
