
     RDKit          3D

 16 16  0  0  0  0  0  0  0  0999 V2000
   -2.1882   -0.2475    0.1088 C   0  0  0  0  0  0  0  0  0  0  0  0
   -0.7582   -0.2563   -0.3544 C   0  0  0  0  0  0  0  0  0  0  0  0
   -0.0234   -1.1760    0.3356 O   0  0  0  0  0  0  0  0  0  0  0  0
    1.3201   -1.1256    0.1929 C   0  0  0  0  0  0  0  0  0  0  0  0
    1.9138    0.1863   -0.0354 C   0  0  0  0  0  0  0  0  0  0  0  0
    1.2110    1.2810   -0.2152 C   0  0  0  0  0  0  0  0  0  0  0  0
   -0.2422    1.1439   -0.1789 C   0  0  0  0  0  0  0  0  0  0  0  0
   -0.9824    2.1265   -0.0137 O   0  0  0  0  0  0  0  0  0  0  0  0
   -2.1822    0.1272    1.1659 H   0  0  0  0  0  0  0  0  0  0  0  0
   -2.6760   -1.2301    0.0360 H   0  0  0  0  0  0  0  0  0  0  0  0
   -2.7219    0.5387   -0.4707 H   0  0  0  0  0  0  0  0  0  0  0  0
   -0.7627   -0.5182   -1.4315 H   0  0  0  0  0  0  0  0  0  0  0  0
    1.6811   -1.8101   -0.6286 H   0  0  0  0  0  0  0  0  0  0  0  0
    1.7872   -1.5530    1.1281 H   0  0  0  0  0  0  0  0  0  0  0  0
    2.9919    0.2549   -0.0567 H   0  0  0  0  0  0  0  0  0  0  0  0
    1.6321    2.2585   -0.3852 H   0  0  0  0  0  0  0  0  0  0  0  0
  1  2  1  0
  2  3  1  0
  3  4  1  0
  4  5  1  0
  5  6  2  0
  6  7  1  0
  7  8  2  0
  7  2  1  0
  1  9  1  0
  1 10  1  0
  1 11  1  0
  2 12  1  0
  4 13  1  0
  4 14  1  0
  5 15  1  0
  6 16  1  0
M  END
