
     RDKit          3D

 21 22  0  0  0  0  0  0  0  0999 V2000
    3.3325    0.0656    0.1479 C   0  0  0  0  0  0  0  0  0  0  0  0
    1.9509   -0.4096    0.4838 C   0  0  0  0  0  0  0  0  0  0  0  0
    1.3677   -1.4549   -0.1847 O   0  0  0  0  0  0  0  0  0  0  0  0
    0.8868   -0.2238   -0.5768 C   0  0  0  0  0  0  0  0  0  0  0  0
   -0.4115    0.3065   -0.0562 C   0  0  0  0  0  0  0  0  0  0  0  0
   -1.0418   -0.5702    0.9641 C   0  0  0  0  0  0  0  0  0  0  0  0
   -2.3621   -0.4794    0.8645 C   0  0  0  0  0  0  0  0  0  0  0  0
   -2.7348    0.4619   -0.2269 C   0  0  0  0  0  0  0  0  0  0  0  0
   -1.4879    0.3603   -1.1186 C   0  0  0  0  0  0  0  0  0  0  0  0
    4.0003   -0.2189    1.0053 H   0  0  0  0  0  0  0  0  0  0  0  0
    3.3194    1.1680   -0.0009 H   0  0  0  0  0  0  0  0  0  0  0  0
    3.6493   -0.3920   -0.7949 H   0  0  0  0  0  0  0  0  0  0  0  0
    1.6732   -0.2635    1.5548 H   0  0  0  0  0  0  0  0  0  0  0  0
    1.1959    0.2081   -1.5534 H   0  0  0  0  0  0  0  0  0  0  0  0
   -0.3257    1.3383    0.3645 H   0  0  0  0  0  0  0  0  0  0  0  0
   -0.5686   -1.2115    1.7065 H   0  0  0  0  0  0  0  0  0  0  0  0
   -3.0910   -0.9974    1.4692 H   0  0  0  0  0  0  0  0  0  0  0  0
   -3.6459    0.1877   -0.7561 H   0  0  0  0  0  0  0  0  0  0  0  0
   -2.7286    1.5230    0.1392 H   0  0  0  0  0  0  0  0  0  0  0  0
   -1.3958    1.2149   -1.7891 H   0  0  0  0  0  0  0  0  0  0  0  0
   -1.5823   -0.6130   -1.6422 H   0  0  0  0  0  0  0  0  0  0  0  0
  1  2  1  0
  2  3  1  0
  3  4  1  0
  4  5  1  0
  5  6  1  0
  6  7  2  0
  7  8  1  0
  8  9  1  0
  4  2  1  0
  9  5  1  0
  1 10  1  0
  1 11  1  0
  1 12  1  0
  2 13  1  0
  4 14  1  0
  5 15  1  0
  6 16  1  0
  7 17  1  0
  8 18  1  0
  8 19  1  0
  9 20  1  0
  9 21  1  0
M  END
