
     RDKit          3D

 23 24  0  0  0  0  0  0  0  0999 V2000
    2.5611    0.4066   -0.2798 C   0  0  0  0  0  0  0  0  0  0  0  0
    1.1174    0.7579   -0.1543 C   0  0  0  0  0  0  0  0  0  0  0  0
    0.7242    1.0721    1.1328 O   0  0  0  0  0  0  0  0  0  0  0  0
   -0.6579    1.0815    1.0945 C   0  0  0  0  0  0  0  0  0  0  0  0
   -1.2992   -0.2098    1.5333 C   0  0  0  0  0  0  0  0  0  0  0  0
   -1.1107    0.0682    0.1008 C   0  0  0  0  0  0  0  0  0  0  0  0
   -2.2639    0.4010   -0.8102 C   0  0  0  0  0  0  0  0  0  0  0  0
    0.1796   -0.3155   -0.5953 C   0  0  0  0  0  0  0  0  0  0  0  0
    0.5981   -1.6951   -0.2260 C   0  0  0  0  0  0  0  0  0  0  0  0
    3.1012    0.5025    0.6975 H   0  0  0  0  0  0  0  0  0  0  0  0
    3.1141    1.1000   -0.9736 H   0  0  0  0  0  0  0  0  0  0  0  0
    2.6779   -0.6008   -0.7083 H   0  0  0  0  0  0  0  0  0  0  0  0
    0.9332    1.6526   -0.8047 H   0  0  0  0  0  0  0  0  0  0  0  0
   -1.2171    2.0177    1.2679 H   0  0  0  0  0  0  0  0  0  0  0  0
   -0.6741   -0.9979    2.0151 H   0  0  0  0  0  0  0  0  0  0  0  0
   -2.3154   -0.1139    1.9281 H   0  0  0  0  0  0  0  0  0  0  0  0
   -2.1960    1.4993   -1.0162 H   0  0  0  0  0  0  0  0  0  0  0  0
   -3.2216    0.1239   -0.3369 H   0  0  0  0  0  0  0  0  0  0  0  0
   -2.1216   -0.1906   -1.7496 H   0  0  0  0  0  0  0  0  0  0  0  0
    0.0496   -0.2695   -1.7009 H   0  0  0  0  0  0  0  0  0  0  0  0
    1.4214   -1.7543    0.4937 H   0  0  0  0  0  0  0  0  0  0  0  0
   -0.2791   -2.2381    0.2178 H   0  0  0  0  0  0  0  0  0  0  0  0
    0.8786   -2.2978   -1.1259 H   0  0  0  0  0  0  0  0  0  0  0  0
  1  2  1  0
  2  3  1  0
  3  4  1  0
  4  5  1  0
  5  6  1  0
  6  7  1  0
  6  8  1  0
  8  9  1  0
  8  2  1  0
  6  4  1  0
  1 10  1  0
  1 11  1  0
  1 12  1  0
  2 13  1  0
  4 14  1  0
  5 15  1  0
  5 16  1  0
  7 17  1  0
  7 18  1  0
  7 19  1  0
  8 20  1  0
  9 21  1  0
  9 22  1  0
  9 23  1  0
M  END
