
     RDKit          3D

 18 19  0  0  0  0  0  0  0  0999 V2000
    2.1395    0.4536   -1.0136 C   0  0  0  0  0  0  0  0  0  0  0  0
    1.4131    0.3019    0.3005 C   0  0  0  0  0  0  0  0  0  0  0  0
    0.8082    1.4733    0.7285 O   0  0  0  0  0  0  0  0  0  0  0  0
   -0.3413    0.7228    0.9935 C   0  0  0  0  0  0  0  0  0  0  0  0
   -1.1455    0.3679   -0.1937 C   0  0  0  0  0  0  0  0  0  0  0  0
   -2.4134   -0.4140   -0.0884 C   0  0  0  0  0  0  0  0  0  0  0  0
    0.1076   -0.3988    0.1056 C   0  0  0  0  0  0  0  0  0  0  0  0
   -0.0129   -1.6931    0.5892 O   0  0  0  0  0  0  0  0  0  0  0  0
    2.8329    1.3262   -0.9851 H   0  0  0  0  0  0  0  0  0  0  0  0
    1.3901    0.6982   -1.8064 H   0  0  0  0  0  0  0  0  0  0  0  0
    2.6486   -0.4970   -1.2477 H   0  0  0  0  0  0  0  0  0  0  0  0
    2.0593   -0.1286    1.0969 H   0  0  0  0  0  0  0  0  0  0  0  0
   -0.5910    0.4374    2.0117 H   0  0  0  0  0  0  0  0  0  0  0  0
   -1.1350    1.1419   -1.0139 H   0  0  0  0  0  0  0  0  0  0  0  0
   -2.2281   -1.4918    0.1710 H   0  0  0  0  0  0  0  0  0  0  0  0
   -2.8844   -0.4562   -1.1088 H   0  0  0  0  0  0  0  0  0  0  0  0
   -3.1629    0.0202    0.5808 H   0  0  0  0  0  0  0  0  0  0  0  0
    0.5154   -1.8638    1.4061 H   0  0  0  0  0  0  0  0  0  0  0  0
  1  2  1  0
  2  3  1  0
  3  4  1  0
  4  5  1  0
  5  6  1  0
  5  7  1  0
  7  8  1  0
  7  2  1  0
  7  4  1  0
  1  9  1  0
  1 10  1  0
  1 11  1  0
  2 12  1  0
  4 13  1  0
  5 14  1  0
  6 15  1  0
  6 16  1  0
  6 17  1  0
  8 18  1  0
M  END
