
     RDKit          3D

 19 19  0  0  0  0  0  0  0  0999 V2000
    2.5010   -0.0474    0.6982 C   0  0  0  0  0  0  0  0  0  0  0  0
    1.3734    0.4310   -0.1835 C   0  0  0  0  0  0  0  0  0  0  0  0
    1.0457   -0.4734   -1.1723 O   0  0  0  0  0  0  0  0  0  0  0  0
   -0.3186   -0.5193   -1.3031 C   0  0  0  0  0  0  0  0  0  0  0  0
   -0.8965   -0.1879    0.0613 C   0  0  0  0  0  0  0  0  0  0  0  0
   -2.2060    0.5220   -0.0341 C   0  0  0  0  0  0  0  0  0  0  0  0
   -1.0381   -1.3593    0.7998 O   0  0  0  0  0  0  0  0  0  0  0  0
    0.1709    0.6131    0.6660 C   0  0  0  0  0  0  0  0  0  0  0  0
    0.1432    1.3033    1.6540 O   0  0  0  0  0  0  0  0  0  0  0  0
    2.4477   -1.1471    0.8991 H   0  0  0  0  0  0  0  0  0  0  0  0
    2.4318    0.4292    1.7080 H   0  0  0  0  0  0  0  0  0  0  0  0
    3.4589    0.1567    0.2204 H   0  0  0  0  0  0  0  0  0  0  0  0
    1.7161    1.3684   -0.6621 H   0  0  0  0  0  0  0  0  0  0  0  0
   -0.7360    0.2115   -2.0243 H   0  0  0  0  0  0  0  0  0  0  0  0
   -0.6135   -1.5549   -1.5755 H   0  0  0  0  0  0  0  0  0  0  0  0
   -2.2625    1.3953    0.6712 H   0  0  0  0  0  0  0  0  0  0  0  0
   -2.4109    0.9511   -1.0435 H   0  0  0  0  0  0  0  0  0  0  0  0
   -3.0106   -0.2011    0.1627 H   0  0  0  0  0  0  0  0  0  0  0  0
   -1.7962   -1.8911    0.4576 H   0  0  0  0  0  0  0  0  0  0  0  0
  1  2  1  0
  2  3  1  0
  3  4  1  0
  4  5  1  0
  5  6  1  0
  5  7  1  0
  5  8  1  0
  8  9  2  0
  8  2  1  0
  1 10  1  0
  1 11  1  0
  1 12  1  0
  2 13  1  0
  4 14  1  0
  4 15  1  0
  6 16  1  0
  6 17  1  0
  6 18  1  0
  7 19  1  0
M  END
