
     RDKit          3D

 23 24  0  0  0  0  0  0  0  0999 V2000
   -3.3486   -0.3607    0.2400 C   0  0  0  0  0  0  0  0  0  0  0  0
   -2.5625    0.6351   -0.5814 C   0  0  0  0  0  0  0  0  0  0  0  0
   -1.9661    1.6564    0.3050 O   0  0  0  0  0  0  0  0  0  0  0  0
   -1.1266    0.8263   -0.3972 C   0  0  0  0  0  0  0  0  0  0  0  0
   -0.2953   -0.1427    0.4057 C   0  0  0  0  0  0  0  0  0  0  0  0
    1.1504    0.2397    0.4687 C   0  0  0  0  0  0  0  0  0  0  0  0
    1.8613    0.3261   -0.8746 C   0  0  0  0  0  0  0  0  0  0  0  0
    3.0923   -0.2012   -0.1240 C   0  0  0  0  0  0  0  0  0  0  0  0
    2.0865   -0.9159    0.7908 C   0  0  0  0  0  0  0  0  0  0  0  0
   -4.3760    0.0271    0.3881 H   0  0  0  0  0  0  0  0  0  0  0  0
   -2.9021   -0.5496    1.2303 H   0  0  0  0  0  0  0  0  0  0  0  0
   -3.4497   -1.3289   -0.3199 H   0  0  0  0  0  0  0  0  0  0  0  0
   -3.0820    1.0403   -1.4494 H   0  0  0  0  0  0  0  0  0  0  0  0
   -0.5728    1.2210   -1.2977 H   0  0  0  0  0  0  0  0  0  0  0  0
   -0.3776   -1.1496   -0.0261 H   0  0  0  0  0  0  0  0  0  0  0  0
   -0.6746   -0.1825    1.4416 H   0  0  0  0  0  0  0  0  0  0  0  0
    1.4123    1.1078    1.0903 H   0  0  0  0  0  0  0  0  0  0  0  0
    1.5435   -0.4465   -1.6067 H   0  0  0  0  0  0  0  0  0  0  0  0
    2.0272    1.3301   -1.2630 H   0  0  0  0  0  0  0  0  0  0  0  0
    3.6399    0.6220    0.4149 H   0  0  0  0  0  0  0  0  0  0  0  0
    3.7243   -0.8738   -0.6947 H   0  0  0  0  0  0  0  0  0  0  0  0
    2.3951   -1.0036    1.8310 H   0  0  0  0  0  0  0  0  0  0  0  0
    1.8012   -1.8769    0.2766 H   0  0  0  0  0  0  0  0  0  0  0  0
  1  2  1  0
  2  3  1  0
  3  4  1  0
  4  5  1  0
  5  6  1  0
  6  7  1  0
  7  8  1  0
  8  9  1  0
  4  2  1  0
  9  6  1  0
  1 10  1  0
  1 11  1  0
  1 12  1  0
  2 13  1  0
  4 14  1  0
  5 15  1  0
  5 16  1  0
  6 17  1  0
  7 18  1  0
  7 19  1  0
  8 20  1  0
  8 21  1  0
  9 22  1  0
  9 23  1  0
M  END
