
     RDKit          3D

 21 22  0  0  0  0  0  0  0  0999 V2000
    2.9042   -0.5644   -0.0645 C   0  0  0  0  0  0  0  0  0  0  0  0
    1.4646   -0.2843    0.2877 C   0  0  0  0  0  0  0  0  0  0  0  0
    1.1515    1.0679    0.1312 O   0  0  0  0  0  0  0  0  0  0  0  0
   -0.1291    1.2530    0.6934 C   0  0  0  0  0  0  0  0  0  0  0  0
   -1.0680    0.3784   -0.0688 C   0  0  0  0  0  0  0  0  0  0  0  0
   -1.9200   -0.5632    0.7560 C   0  0  0  0  0  0  0  0  0  0  0  0
   -2.5097    0.5288   -0.0565 C   0  0  0  0  0  0  0  0  0  0  0  0
   -0.3015   -0.2901   -1.1796 C   0  0  0  0  0  0  0  0  0  0  0  0
    0.6824   -1.0883   -0.5612 O   0  0  0  0  0  0  0  0  0  0  0  0
    3.6180    0.1077    0.4358 H   0  0  0  0  0  0  0  0  0  0  0  0
    3.0073   -0.5342   -1.1664 H   0  0  0  0  0  0  0  0  0  0  0  0
    3.0982   -1.6265    0.2301 H   0  0  0  0  0  0  0  0  0  0  0  0
    1.3338   -0.5780    1.3568 H   0  0  0  0  0  0  0  0  0  0  0  0
   -0.0383    0.8976    1.7516 H   0  0  0  0  0  0  0  0  0  0  0  0
   -0.4476    2.3006    0.6723 H   0  0  0  0  0  0  0  0  0  0  0  0
   -1.8591   -0.4990    1.8657 H   0  0  0  0  0  0  0  0  0  0  0  0
   -2.0423   -1.6154    0.3865 H   0  0  0  0  0  0  0  0  0  0  0  0
   -3.1459    0.2311   -0.8887 H   0  0  0  0  0  0  0  0  0  0  0  0
   -2.9204    1.4132    0.5070 H   0  0  0  0  0  0  0  0  0  0  0  0
    0.1368    0.4515   -1.8569 H   0  0  0  0  0  0  0  0  0  0  0  0
   -1.0151   -0.9863   -1.6825 H   0  0  0  0  0  0  0  0  0  0  0  0
  1  2  1  0
  2  3  1  0
  3  4  1  0
  4  5  1  0
  5  6  1  0
  6  7  1  0
  5  8  1  0
  8  9  1  0
  9  2  1  0
  7  5  1  0
  1 10  1  0
  1 11  1  0
  1 12  1  0
  2 13  1  0
  4 14  1  0
  4 15  1  0
  6 16  1  0
  6 17  1  0
  7 18  1  0
  7 19  1  0
  8 20  1  0
  8 21  1  0
M  END
