
     RDKit          3D

 19 20  0  0  0  0  0  0  0  0999 V2000
    0.7562   -2.0227   -0.3551 C   0  0  0  0  0  0  0  0  0  0  0  0
   -0.1985   -0.9022   -0.2033 C   0  0  0  0  0  0  0  0  0  0  0  0
   -0.8448   -0.8902    1.0560 O   0  0  0  0  0  0  0  0  0  0  0  0
   -1.6870    0.2259    0.8341 C   0  0  0  0  0  0  0  0  0  0  0  0
   -0.6582    1.2856    0.5061 C   0  0  0  0  0  0  0  0  0  0  0  0
   -0.3362    1.5580   -0.9080 C   0  0  0  0  0  0  0  0  0  0  0  0
    0.4235    0.4604   -0.2200 C   0  0  0  0  0  0  0  0  0  0  0  0
    1.7826    0.6848    0.2762 C   0  0  0  0  0  0  0  0  0  0  0  0
    2.0084    0.8467    1.4637 O   0  0  0  0  0  0  0  0  0  0  0  0
    0.4532   -2.6121   -1.2639 H   0  0  0  0  0  0  0  0  0  0  0  0
    1.8067   -1.7503   -0.4768 H   0  0  0  0  0  0  0  0  0  0  0  0
    0.7070   -2.7575    0.4896 H   0  0  0  0  0  0  0  0  0  0  0  0
   -1.0265   -0.9379   -0.9463 H   0  0  0  0  0  0  0  0  0  0  0  0
   -2.2922    0.4703    1.7036 H   0  0  0  0  0  0  0  0  0  0  0  0
   -2.2847   -0.0449   -0.0662 H   0  0  0  0  0  0  0  0  0  0  0  0
   -0.3297    1.9449    1.3279 H   0  0  0  0  0  0  0  0  0  0  0  0
   -1.0806    1.2314   -1.6483 H   0  0  0  0  0  0  0  0  0  0  0  0
    0.1909    2.5008   -1.1500 H   0  0  0  0  0  0  0  0  0  0  0  0
    2.6097    0.7089   -0.4192 H   0  0  0  0  0  0  0  0  0  0  0  0
  1  2  1  0
  2  3  1  0
  3  4  1  0
  4  5  1  0
  5  6  1  0
  6  7  1  0
  7  8  1  0
  8  9  2  0
  7  2  1  0
  7  5  1  0
  1 10  1  0
  1 11  1  0
  1 12  1  0
  2 13  1  0
  4 14  1  0
  4 15  1  0
  5 16  1  0
  6 17  1  0
  6 18  1  0
  8 19  1  0
M  END
