
     RDKit          3D

 21 22  0  0  0  0  0  0  0  0999 V2000
   -1.5452    1.0136    1.1172 C   0  0  0  0  0  0  0  0  0  0  0  0
   -1.4893    0.0658    0.0063 C   0  0  0  0  0  0  0  0  0  0  0  0
   -1.0063    0.5162   -1.2292 O   0  0  0  0  0  0  0  0  0  0  0  0
   -0.9419   -0.8712   -1.5260 C   0  0  0  0  0  0  0  0  0  0  0  0
   -0.4967   -1.0114   -0.0526 C   0  0  0  0  0  0  0  0  0  0  0  0
    0.9615   -0.7316   -0.0058 C   0  0  0  0  0  0  0  0  0  0  0  0
    1.5843   -0.0327    1.1740 C   0  0  0  0  0  0  0  0  0  0  0  0
    1.5972    0.5480   -0.2435 C   0  0  0  0  0  0  0  0  0  0  0  0
    2.8313    0.5762   -0.9080 O   0  0  0  0  0  0  0  0  0  0  0  0
   -0.8432    1.8560    1.1018 H   0  0  0  0  0  0  0  0  0  0  0  0
   -2.5704    1.4927    1.1623 H   0  0  0  0  0  0  0  0  0  0  0  0
   -1.4942    0.4359    2.0875 H   0  0  0  0  0  0  0  0  0  0  0  0
   -2.5126   -0.3736   -0.2020 H   0  0  0  0  0  0  0  0  0  0  0  0
   -0.1684   -1.1392   -2.2473 H   0  0  0  0  0  0  0  0  0  0  0  0
   -1.9502   -1.2675   -1.6751 H   0  0  0  0  0  0  0  0  0  0  0  0
   -0.7418   -2.0049    0.3264 H   0  0  0  0  0  0  0  0  0  0  0  0
    1.5635   -1.6340   -0.3117 H   0  0  0  0  0  0  0  0  0  0  0  0
    0.8976    0.3674    1.9161 H   0  0  0  0  0  0  0  0  0  0  0  0
    2.5720   -0.3488    1.5596 H   0  0  0  0  0  0  0  0  0  0  0  0
    1.0942    1.5254   -0.2737 H   0  0  0  0  0  0  0  0  0  0  0  0
    2.6585    1.0175   -1.7767 H   0  0  0  0  0  0  0  0  0  0  0  0
  1  2  1  0
  2  3  1  0
  3  4  1  0
  4  5  1  0
  5  6  1  0
  6  7  1  0
  7  8  1  0
  8  9  1  0
  5  2  1  0
  8  6  1  0
  1 10  1  0
  1 11  1  0
  1 12  1  0
  2 13  1  0
  4 14  1  0
  4 15  1  0
  5 16  1  0
  6 17  1  0
  7 18  1  0
  7 19  1  0
  8 20  1  0
  9 21  1  0
M  END
