
     RDKit          3D

 17 17  0  0  0  0  0  0  0  0999 V2000
   -2.4471    0.6912    0.2673 C   0  0  0  0  0  0  0  0  0  0  0  0
   -1.8262   -0.4624   -0.4471 C   0  0  0  0  0  0  0  0  0  0  0  0
   -1.1706   -1.3519    0.5610 O   0  0  0  0  0  0  0  0  0  0  0  0
   -0.4338   -0.7018   -0.5513 C   0  0  0  0  0  0  0  0  0  0  0  0
    0.6529    0.1886   -0.0706 C   0  0  0  0  0  0  0  0  0  0  0  0
    1.9765   -0.4130   -0.3639 C   0  0  0  0  0  0  0  0  0  0  0  0
    2.0668   -1.5282   -0.9437 O   0  0  0  0  0  0  0  0  0  0  0  0
    3.2042    0.2793    0.0157 C   0  0  0  0  0  0  0  0  0  0  0  0
    3.1925    1.3952    0.5971 O   0  0  0  0  0  0  0  0  0  0  0  0
   -2.9836    1.3146   -0.4780 H   0  0  0  0  0  0  0  0  0  0  0  0
   -3.1481    0.3057    1.0542 H   0  0  0  0  0  0  0  0  0  0  0  0
   -1.7155    1.3555    0.7639 H   0  0  0  0  0  0  0  0  0  0  0  0
   -2.5283   -1.0363   -1.0835 H   0  0  0  0  0  0  0  0  0  0  0  0
   -0.0935   -1.5045   -1.2544 H   0  0  0  0  0  0  0  0  0  0  0  0
    0.5463    0.4425    1.0168 H   0  0  0  0  0  0  0  0  0  0  0  0
    0.5362    1.1762   -0.6066 H   0  0  0  0  0  0  0  0  0  0  0  0
    4.1713   -0.1508   -0.1937 H   0  0  0  0  0  0  0  0  0  0  0  0
  1  2  1  0
  2  3  1  0
  3  4  1  0
  4  5  1  0
  5  6  1  0
  6  7  2  0
  6  8  1  0
  8  9  2  0
  4  2  1  0
  1 10  1  0
  1 11  1  0
  1 12  1  0
  2 13  1  0
  4 14  1  0
  5 15  1  0
  5 16  1  0
  8 17  1  0
M  END
