
     RDKit          3D

 13 13  0  0  0  0  0  0  0  0999 V2000
   -1.5476   -0.4984    0.2542 C   0  0  0  0  0  0  0  0  0  0  0  0
   -0.3998    0.0484   -0.5462 C   0  0  0  0  0  0  0  0  0  0  0  0
    0.6161   -0.9005   -0.5313 O   0  0  0  0  0  0  0  0  0  0  0  0
    1.7168   -0.3532    0.0795 C   0  0  0  0  0  0  0  0  0  0  0  0
    1.4852    1.0174    0.3084 O   0  0  0  0  0  0  0  0  0  0  0  0
    0.1648    1.2898   -0.0099 C   0  0  0  0  0  0  0  0  0  0  0  0
   -0.3532    2.4134    0.1649 O   0  0  0  0  0  0  0  0  0  0  0  0
   -1.2272   -1.3380    0.9206 H   0  0  0  0  0  0  0  0  0  0  0  0
   -2.3470   -0.9356   -0.4015 H   0  0  0  0  0  0  0  0  0  0  0  0
   -1.9536    0.2777    0.9382 H   0  0  0  0  0  0  0  0  0  0  0  0
   -0.6780    0.2427   -1.6177 H   0  0  0  0  0  0  0  0  0  0  0  0
    2.5766   -0.4567   -0.6282 H   0  0  0  0  0  0  0  0  0  0  0  0
    1.9468   -0.8069    1.0690 H   0  0  0  0  0  0  0  0  0  0  0  0
  1  2  1  0
  2  3  1  0
  3  4  1  0
  4  5  1  0
  5  6  1  0
  6  7  2  0
  6  2  1  0
  1  8  1  0
  1  9  1  0
  1 10  1  0
  2 11  1  0
  4 12  1  0
  4 13  1  0
M  END
