
     RDKit          3D

 21 21  0  0  0  0  0  0  0  0999 V2000
   -0.2779    2.0526   -0.6356 C   0  0  0  0  0  0  0  0  0  0  0  0
   -0.4057    0.5445   -0.4973 C   0  0  0  0  0  0  0  0  0  0  0  0
   -1.7518    0.2534   -0.1726 O   0  0  0  0  0  0  0  0  0  0  0  0
   -1.9185   -1.1005   -0.3794 C   0  0  0  0  0  0  0  0  0  0  0  0
   -0.9181   -1.8940    0.1056 O   0  0  0  0  0  0  0  0  0  0  0  0
   -0.1007   -1.3108    1.0443 C   0  0  0  0  0  0  0  0  0  0  0  0
    0.4020    0.0448    0.6515 C   0  0  0  0  0  0  0  0  0  0  0  0
    1.8884    0.0673    0.4131 C   0  0  0  0  0  0  0  0  0  0  0  0
    2.3044   -0.6907   -0.6460 O   0  0  0  0  0  0  0  0  0  0  0  0
    0.7535    2.3280   -0.8791 H   0  0  0  0  0  0  0  0  0  0  0  0
   -0.5877    2.4938    0.3350 H   0  0  0  0  0  0  0  0  0  0  0  0
   -0.9251    2.4008   -1.4534 H   0  0  0  0  0  0  0  0  0  0  0  0
   -0.2127    0.0331   -1.4488 H   0  0  0  0  0  0  0  0  0  0  0  0
   -2.0329   -1.3282   -1.4700 H   0  0  0  0  0  0  0  0  0  0  0  0
   -2.9004   -1.3930    0.0901 H   0  0  0  0  0  0  0  0  0  0  0  0
    0.8002   -1.9854    1.1462 H   0  0  0  0  0  0  0  0  0  0  0  0
   -0.6166   -1.3090    2.0342 H   0  0  0  0  0  0  0  0  0  0  0  0
    0.2098    0.7268    1.5177 H   0  0  0  0  0  0  0  0  0  0  0  0
    2.2524    1.1052    0.2743 H   0  0  0  0  0  0  0  0  0  0  0  0
    2.3609   -0.3002    1.3659 H   0  0  0  0  0  0  0  0  0  0  0  0
    1.6763   -0.7384   -1.3960 H   0  0  0  0  0  0  0  0  0  0  0  0
  1  2  1  0
  2  3  1  0
  3  4  1  0
  4  5  1  0
  5  6  1  0
  6  7  1  0
  7  8  1  0
  8  9  1  0
  7  2  1  0
  1 10  1  0
  1 11  1  0
  1 12  1  0
  2 13  1  0
  4 14  1  0
  4 15  1  0
  6 16  1  0
  6 17  1  0
  7 18  1  0
  8 19  1  0
  8 20  1  0
  9 21  1  0
M  END
