
     RDKit          3D

 17 18  0  0  0  0  0  0  0  0999 V2000
    2.7762    0.4591   -0.1263 C   0  0  0  0  0  0  0  0  0  0  0  0
    1.3741   -0.0144    0.1532 C   0  0  0  0  0  0  0  0  0  0  0  0
    1.1670   -1.2570   -0.6470 O   0  0  0  0  0  0  0  0  0  0  0  0
    0.3750    0.0165   -0.8316 C   0  0  0  0  0  0  0  0  0  0  0  0
   -1.0511   -0.3288   -0.5775 C   0  0  0  0  0  0  0  0  0  0  0  0
   -1.2805   -0.8313    0.7222 O   0  0  0  0  0  0  0  0  0  0  0  0
   -2.5856   -0.3255    0.5706 C   0  0  0  0  0  0  0  0  0  0  0  0
   -1.9714    0.7580   -0.2436 C   0  0  0  0  0  0  0  0  0  0  0  0
   -2.2390    1.9214   -0.4234 O   0  0  0  0  0  0  0  0  0  0  0  0
    2.9007    0.6260   -1.2086 H   0  0  0  0  0  0  0  0  0  0  0  0
    3.4830   -0.3832    0.1287 H   0  0  0  0  0  0  0  0  0  0  0  0
    3.0522    1.3629    0.4022 H   0  0  0  0  0  0  0  0  0  0  0  0
    1.1166   -0.2038    1.2231 H   0  0  0  0  0  0  0  0  0  0  0  0
    0.5951    0.3324   -1.8704 H   0  0  0  0  0  0  0  0  0  0  0  0
   -1.4802   -1.0447   -1.3015 H   0  0  0  0  0  0  0  0  0  0  0  0
   -3.1481   -1.0646   -0.0707 H   0  0  0  0  0  0  0  0  0  0  0  0
   -3.0839   -0.0232    1.4917 H   0  0  0  0  0  0  0  0  0  0  0  0
  1  2  1  0
  2  3  1  0
  3  4  1  0
  4  5  1  0
  5  6  1  0
  6  7  1  0
  7  8  1  0
  8  9  2  0
  4  2  1  0
  8  5  1  0
  1 10  1  0
  1 11  1  0
  1 12  1  0
  2 13  1  0
  4 14  1  0
  5 15  1  0
  7 16  1  0
  7 17  1  0
M  END
