
     RDKit          3D

 23 23  0  0  0  0  0  0  0  0999 V2000
    2.2238   -0.8145    0.1834 C   0  0  0  0  0  0  0  0  0  0  0  0
    0.7362   -0.6763    0.0499 C   0  0  0  0  0  0  0  0  0  0  0  0
    0.2550   -1.1026   -1.1835 O   0  0  0  0  0  0  0  0  0  0  0  0
   -1.0673   -1.5284   -0.9658 C   0  0  0  0  0  0  0  0  0  0  0  0
   -1.7792   -0.6691    0.0400 C   0  0  0  0  0  0  0  0  0  0  0  0
   -1.2523    0.7391    0.0479 C   0  0  0  0  0  0  0  0  0  0  0  0
   -1.8761    1.4441    1.0769 O   0  0  0  0  0  0  0  0  0  0  0  0
    0.2241    0.6972    0.3580 C   0  0  0  0  0  0  0  0  0  0  0  0
    0.8962    1.7899   -0.4001 C   0  0  0  0  0  0  0  0  0  0  0  0
    2.5945    0.1032    0.7001 H   0  0  0  0  0  0  0  0  0  0  0  0
    2.5228   -1.6604    0.8576 H   0  0  0  0  0  0  0  0  0  0  0  0
    2.7446   -0.9809   -0.7719 H   0  0  0  0  0  0  0  0  0  0  0  0
    0.2833   -1.3662    0.8209 H   0  0  0  0  0  0  0  0  0  0  0  0
   -1.6163   -1.6637   -1.9065 H   0  0  0  0  0  0  0  0  0  0  0  0
   -0.9620   -2.5457   -0.4944 H   0  0  0  0  0  0  0  0  0  0  0  0
   -2.8723   -0.5952   -0.2156 H   0  0  0  0  0  0  0  0  0  0  0  0
   -1.7444   -1.0839    1.0625 H   0  0  0  0  0  0  0  0  0  0  0  0
   -1.4807    1.2730   -0.8941 H   0  0  0  0  0  0  0  0  0  0  0  0
   -1.3131    1.3810    1.9037 H   0  0  0  0  0  0  0  0  0  0  0  0
    0.3977    0.8711    1.4555 H   0  0  0  0  0  0  0  0  0  0  0  0
    1.0329    1.5792   -1.4690 H   0  0  0  0  0  0  0  0  0  0  0  0
    0.2120    2.6882   -0.3571 H   0  0  0  0  0  0  0  0  0  0  0  0
    1.8405    2.1211    0.1019 H   0  0  0  0  0  0  0  0  0  0  0  0
  1  2  1  0
  2  3  1  0
  3  4  1  0
  4  5  1  0
  5  6  1  0
  6  7  1  0
  6  8  1  0
  8  9  1  0
  8  2  1  0
  1 10  1  0
  1 11  1  0
  1 12  1  0
  2 13  1  0
  4 14  1  0
  4 15  1  0
  5 16  1  0
  5 17  1  0
  6 18  1  0
  7 19  1  0
  8 20  1  0
  9 21  1  0
  9 22  1  0
  9 23  1  0
M  END
