
     RDKit          3D

 21 21  0  0  0  0  0  0  0  0999 V2000
   -2.3529   -0.2908    0.0279 C   0  0  0  0  0  0  0  0  0  0  0  0
   -1.2835    0.7313    0.3571 C   0  0  0  0  0  0  0  0  0  0  0  0
   -0.7726    0.5862    1.6145 O   0  0  0  0  0  0  0  0  0  0  0  0
    0.6118    0.5306    1.5315 C   0  0  0  0  0  0  0  0  0  0  0  0
    0.8095   -0.2620    0.2532 C   0  0  0  0  0  0  0  0  0  0  0  0
    2.1984   -0.2497   -0.2484 C   0  0  0  0  0  0  0  0  0  0  0  0
    0.2589   -1.5105    0.4431 O   0  0  0  0  0  0  0  0  0  0  0  0
   -0.1605    0.5238   -0.6370 C   0  0  0  0  0  0  0  0  0  0  0  0
   -0.5344   -0.1848   -1.7488 O   0  0  0  0  0  0  0  0  0  0  0  0
   -1.9145   -1.1450   -0.5682 H   0  0  0  0  0  0  0  0  0  0  0  0
   -3.1173    0.1671   -0.6292 H   0  0  0  0  0  0  0  0  0  0  0  0
   -2.7927   -0.7430    0.9374 H   0  0  0  0  0  0  0  0  0  0  0  0
   -1.7504    1.7262    0.2563 H   0  0  0  0  0  0  0  0  0  0  0  0
    1.0743    1.5387    1.3821 H   0  0  0  0  0  0  0  0  0  0  0  0
    1.0380    0.0208    2.4077 H   0  0  0  0  0  0  0  0  0  0  0  0
    2.8921   -0.4639    0.5890 H   0  0  0  0  0  0  0  0  0  0  0  0
    2.3182   -1.0631   -0.9936 H   0  0  0  0  0  0  0  0  0  0  0  0
    2.4426    0.6964   -0.7478 H   0  0  0  0  0  0  0  0  0  0  0  0
    0.6596   -2.1774   -0.1722 H   0  0  0  0  0  0  0  0  0  0  0  0
    0.2692    1.5204   -0.8576 H   0  0  0  0  0  0  0  0  0  0  0  0
    0.1059    0.0487   -2.4878 H   0  0  0  0  0  0  0  0  0  0  0  0
  1  2  1  0
  2  3  1  0
  3  4  1  0
  4  5  1  0
  5  6  1  0
  5  7  1  0
  5  8  1  0
  8  9  1  0
  8  2  1  0
  1 10  1  0
  1 11  1  0
  1 12  1  0
  2 13  1  0
  4 14  1  0
  4 15  1  0
  6 16  1  0
  6 17  1  0
  6 18  1  0
  7 19  1  0
  8 20  1  0
  9 21  1  0
M  END
