
     RDKit          3D

 23 24  0  0  0  0  0  0  0  0999 V2000
    2.4789   -0.8314   -0.4341 C   0  0  0  0  0  0  0  0  0  0  0  0
    1.2794   -1.0662    0.4386 C   0  0  0  0  0  0  0  0  0  0  0  0
    1.3622   -0.2875    1.5622 O   0  0  0  0  0  0  0  0  0  0  0  0
    0.5989    0.8342    1.3966 C   0  0  0  0  0  0  0  0  0  0  0  0
   -0.3547    0.6123    0.2665 C   0  0  0  0  0  0  0  0  0  0  0  0
   -0.6479    1.8271   -0.5666 C   0  0  0  0  0  0  0  0  0  0  0  0
   -1.2729   -0.5366    0.3384 C   0  0  0  0  0  0  0  0  0  0  0  0
   -2.5008   -0.6429   -0.5178 C   0  0  0  0  0  0  0  0  0  0  0  0
    0.0516   -0.6732   -0.3242 C   0  0  0  0  0  0  0  0  0  0  0  0
    2.9335    0.1607   -0.1899 H   0  0  0  0  0  0  0  0  0  0  0  0
    2.1939   -0.8382   -1.5031 H   0  0  0  0  0  0  0  0  0  0  0  0
    3.2577   -1.6016   -0.2142 H   0  0  0  0  0  0  0  0  0  0  0  0
    1.1676   -2.1222    0.7593 H   0  0  0  0  0  0  0  0  0  0  0  0
    1.2410    1.7280    1.1922 H   0  0  0  0  0  0  0  0  0  0  0  0
    0.0100    0.9955    2.3389 H   0  0  0  0  0  0  0  0  0  0  0  0
   -1.2550    1.6017   -1.4553 H   0  0  0  0  0  0  0  0  0  0  0  0
   -1.1209    2.5913    0.0795 H   0  0  0  0  0  0  0  0  0  0  0  0
    0.3478    2.2579   -0.8654 H   0  0  0  0  0  0  0  0  0  0  0  0
   -1.3538   -1.0262    1.3371 H   0  0  0  0  0  0  0  0  0  0  0  0
   -3.2653    0.1151   -0.3091 H   0  0  0  0  0  0  0  0  0  0  0  0
   -2.2873   -0.6364   -1.5953 H   0  0  0  0  0  0  0  0  0  0  0  0
   -2.9628   -1.6386   -0.2985 H   0  0  0  0  0  0  0  0  0  0  0  0
    0.0988   -0.8228   -1.4357 H   0  0  0  0  0  0  0  0  0  0  0  0
  1  2  1  0
  2  3  1  0
  3  4  1  0
  4  5  1  0
  5  6  1  0
  5  7  1  0
  7  8  1  0
  7  9  1  0
  9  2  1  0
  9  5  1  0
  1 10  1  0
  1 11  1  0
  1 12  1  0
  2 13  1  0
  4 14  1  0
  4 15  1  0
  6 16  1  0
  6 17  1  0
  6 18  1  0
  7 19  1  0
  8 20  1  0
  8 21  1  0
  8 22  1  0
  9 23  1  0
M  END
