
     RDKit          3D

 17 17  0  0  0  0  0  0  0  0999 V2000
   -1.4108    0.6916   -0.6337 C   0  0  0  0  0  0  0  0  0  0  0  0
   -0.5270   -0.5061   -0.8731 C   0  0  0  0  0  0  0  0  0  0  0  0
   -1.1419   -1.6257   -0.2633 O   0  0  0  0  0  0  0  0  0  0  0  0
   -0.2176   -1.6794    0.7989 C   0  0  0  0  0  0  0  0  0  0  0  0
    0.6178   -0.6915    0.0564 C   0  0  0  0  0  0  0  0  0  0  0  0
    1.0634    0.4988    0.8114 C   0  0  0  0  0  0  0  0  0  0  0  0
    1.0439    0.4999    2.0668 O   0  0  0  0  0  0  0  0  0  0  0  0
    1.5261    1.6734    0.1025 C   0  0  0  0  0  0  0  0  0  0  0  0
    1.5687    1.7327   -1.1468 O   0  0  0  0  0  0  0  0  0  0  0  0
   -2.4615    0.3653   -0.8865 H   0  0  0  0  0  0  0  0  0  0  0  0
   -1.4319    0.9623    0.4347 H   0  0  0  0  0  0  0  0  0  0  0  0
   -1.1786    1.5208   -1.3117 H   0  0  0  0  0  0  0  0  0  0  0  0
   -0.3306   -0.6896   -1.9367 H   0  0  0  0  0  0  0  0  0  0  0  0
   -0.6329   -1.3736    1.7677 H   0  0  0  0  0  0  0  0  0  0  0  0
    0.1957   -2.7312    0.8117 H   0  0  0  0  0  0  0  0  0  0  0  0
    1.4720   -1.1743   -0.4655 H   0  0  0  0  0  0  0  0  0  0  0  0
    1.8451    2.5265    0.6671 H   0  0  0  0  0  0  0  0  0  0  0  0
  1  2  1  0
  2  3  1  0
  3  4  1  0
  4  5  1  0
  5  6  1  0
  6  7  2  0
  6  8  1  0
  8  9  2  0
  5  2  1  0
  1 10  1  0
  1 11  1  0
  1 12  1  0
  2 13  1  0
  4 14  1  0
  4 15  1  0
  5 16  1  0
  8 17  1  0
M  END
