
     RDKit          3D

 17 18  0  0  0  0  0  0  0  0999 V2000
    2.3740   -0.4465   -0.3573 C   0  0  0  0  0  0  0  0  0  0  0  0
    1.4801    0.5158    0.4335 C   0  0  0  0  0  0  0  0  0  0  0  0
    0.7440   -0.3009    1.4397 O   0  0  0  0  0  0  0  0  0  0  0  0
    0.1430    0.3867    0.4204 C   0  0  0  0  0  0  0  0  0  0  0  0
   -0.6566   -0.3235   -0.6376 C   0  0  0  0  0  0  0  0  0  0  0  0
   -1.8813    0.2261    0.0636 C   0  0  0  0  0  0  0  0  0  0  0  0
   -2.8042    0.7810   -0.7878 O   0  0  0  0  0  0  0  0  0  0  0  0
   -0.9938    1.2345    0.7031 C   0  0  0  0  0  0  0  0  0  0  0  0
   -1.2075    2.3045    1.2252 O   0  0  0  0  0  0  0  0  0  0  0  0
    3.1384    0.0880   -0.9175 H   0  0  0  0  0  0  0  0  0  0  0  0
    1.7206   -0.9696   -1.1134 H   0  0  0  0  0  0  0  0  0  0  0  0
    2.7646   -1.2579    0.2954 H   0  0  0  0  0  0  0  0  0  0  0  0
    2.0878    1.3024    0.9382 H   0  0  0  0  0  0  0  0  0  0  0  0
   -0.4998    0.1621   -1.6299 H   0  0  0  0  0  0  0  0  0  0  0  0
   -0.5079   -1.4012   -0.5870 H   0  0  0  0  0  0  0  0  0  0  0  0
   -2.2743   -0.5472    0.7575 H   0  0  0  0  0  0  0  0  0  0  0  0
   -3.6270    0.9863   -0.2463 H   0  0  0  0  0  0  0  0  0  0  0  0
  1  2  1  0
  2  3  1  0
  3  4  1  0
  4  5  1  0
  5  6  1  0
  6  7  1  0
  6  8  1  0
  8  9  2  0
  4  2  1  0
  8  4  1  0
  1 10  1  0
  1 11  1  0
  1 12  1  0
  2 13  1  0
  5 14  1  0
  5 15  1  0
  6 16  1  0
  7 17  1  0
M  END
