
     RDKit          3D

 16 17  0  0  0  0  0  0  0  0999 V2000
    1.9401    0.4487    0.3731 C   0  0  0  0  0  0  0  0  0  0  0  0
    0.7662   -0.4049    0.0851 C   0  0  0  0  0  0  0  0  0  0  0  0
    0.3662   -0.3395   -1.2745 O   0  0  0  0  0  0  0  0  0  0  0  0
   -0.9629   -0.0263   -1.1695 C   0  0  0  0  0  0  0  0  0  0  0  0
   -1.4844   -0.9002   -0.0159 C   0  0  0  0  0  0  0  0  0  0  0  0
   -0.5058    0.0101    0.7482 C   0  0  0  0  0  0  0  0  0  0  0  0
   -0.9750    1.0731   -0.1631 C   0  0  0  0  0  0  0  0  0  0  0  0
   -1.2432    2.2566   -0.1310 O   0  0  0  0  0  0  0  0  0  0  0  0
    1.7384    1.5022    0.5521 H   0  0  0  0  0  0  0  0  0  0  0  0
    2.4980    0.0225    1.2541 H   0  0  0  0  0  0  0  0  0  0  0  0
    2.6664    0.3253   -0.4836 H   0  0  0  0  0  0  0  0  0  0  0  0
    1.0123   -1.4671    0.2597 H   0  0  0  0  0  0  0  0  0  0  0  0
   -1.5822    0.0574   -2.0274 H   0  0  0  0  0  0  0  0  0  0  0  0
   -2.5345   -0.7310    0.2081 H   0  0  0  0  0  0  0  0  0  0  0  0
   -1.0939   -1.9144   -0.0040 H   0  0  0  0  0  0  0  0  0  0  0  0
   -0.6058    0.0876    1.7885 H   0  0  0  0  0  0  0  0  0  0  0  0
  1  2  1  0
  2  3  1  0
  3  4  1  0
  4  5  1  0
  5  6  1  0
  6  7  1  0
  7  8  2  0
  6  2  1  0
  7  4  1  0
  1  9  1  0
  1 10  1  0
  1 11  1  0
  2 12  1  0
  4 13  1  0
  5 14  1  0
  5 15  1  0
  6 16  1  0
M  END
