
     RDKit          3D

 19 21  0  0  0  0  0  0  0  0999 V2000
    2.4919   -0.0250   -0.1856 C   0  0  0  0  0  0  0  0  0  0  0  0
    1.1993   -0.6385    0.3041 C   0  0  0  0  0  0  0  0  0  0  0  0
    0.4184   -1.1371   -0.7340 O   0  0  0  0  0  0  0  0  0  0  0  0
   -0.1360    0.1479   -0.8593 C   0  0  0  0  0  0  0  0  0  0  0  0
   -1.6280    0.1157   -0.9885 C   0  0  0  0  0  0  0  0  0  0  0  0
   -2.1997    0.0121    0.3944 C   0  0  0  0  0  0  0  0  0  0  0  0
   -1.8155   -1.1282    1.0739 O   0  0  0  0  0  0  0  0  0  0  0  0
   -1.0436   -0.0431    1.3609 C   0  0  0  0  0  0  0  0  0  0  0  0
    0.1383    0.3693    0.5905 C   0  0  0  0  0  0  0  0  0  0  0  0
    2.7112   -0.4149   -1.2123 H   0  0  0  0  0  0  0  0  0  0  0  0
    3.3311   -0.3177    0.5006 H   0  0  0  0  0  0  0  0  0  0  0  0
    2.4758    1.0840   -0.1654 H   0  0  0  0  0  0  0  0  0  0  0  0
    1.3460   -1.3230    1.1648 H   0  0  0  0  0  0  0  0  0  0  0  0
    0.3815    0.8159   -1.5611 H   0  0  0  0  0  0  0  0  0  0  0  0
   -1.8828   -0.8517   -1.5104 H   0  0  0  0  0  0  0  0  0  0  0  0
   -2.0555    0.9521   -1.5575 H   0  0  0  0  0  0  0  0  0  0  0  0
   -3.0332    0.6313    0.7241 H   0  0  0  0  0  0  0  0  0  0  0  0
   -1.1967    0.3773    2.3819 H   0  0  0  0  0  0  0  0  0  0  0  0
    0.4976    1.3739    0.8868 H   0  0  0  0  0  0  0  0  0  0  0  0
  1  2  1  0
  2  3  1  0
  3  4  1  0
  4  5  1  0
  5  6  1  0
  6  7  1  0
  7  8  1  0
  8  9  1  0
  9  2  1  0
  9  4  1  0
  8  6  1  0
  1 10  1  0
  1 11  1  0
  1 12  1  0
  2 13  1  0
  4 14  1  0
  5 15  1  0
  5 16  1  0
  6 17  1  0
  8 18  1  0
  9 19  1  0
M  END
