
     RDKit          3D

 19 19  0  0  0  0  0  0  0  0999 V2000
    1.8105   -0.8103   -0.1146 C   0  0  0  0  0  0  0  0  0  0  0  0
    0.5040   -0.3254   -0.7435 C   0  0  0  0  0  0  0  0  0  0  0  0
   -0.3326   -1.4361   -0.8081 O   0  0  0  0  0  0  0  0  0  0  0  0
   -1.1129   -1.4209    0.3486 C   0  0  0  0  0  0  0  0  0  0  0  0
   -1.5285    0.0545    0.3828 C   0  0  0  0  0  0  0  0  0  0  0  0
   -0.1767    0.7066    0.1054 C   0  0  0  0  0  0  0  0  0  0  0  0
    0.4944    0.8580    1.3025 O   0  0  0  0  0  0  0  0  0  0  0  0
   -0.4124    1.9796   -0.5968 C   0  0  0  0  0  0  0  0  0  0  0  0
   -0.0254    3.0122   -0.1073 O   0  0  0  0  0  0  0  0  0  0  0  0
    2.5674    0.0008   -0.1766 H   0  0  0  0  0  0  0  0  0  0  0  0
    2.1140   -1.7044   -0.7034 H   0  0  0  0  0  0  0  0  0  0  0  0
    1.5804   -1.0963    0.9343 H   0  0  0  0  0  0  0  0  0  0  0  0
    0.7063    0.0867   -1.7665 H   0  0  0  0  0  0  0  0  0  0  0  0
   -1.9813   -2.0674    0.2118 H   0  0  0  0  0  0  0  0  0  0  0  0
   -0.5331   -1.6749    1.2547 H   0  0  0  0  0  0  0  0  0  0  0  0
   -2.1763    0.2262   -0.4869 H   0  0  0  0  0  0  0  0  0  0  0  0
   -1.9489    0.3421    1.3462 H   0  0  0  0  0  0  0  0  0  0  0  0
    1.3753    1.2801    1.1539 H   0  0  0  0  0  0  0  0  0  0  0  0
   -0.9243    1.9891   -1.5365 H   0  0  0  0  0  0  0  0  0  0  0  0
  1  2  1  0
  2  3  1  0
  3  4  1  0
  4  5  1  0
  5  6  1  0
  6  7  1  0
  6  8  1  0
  8  9  2  0
  6  2  1  0
  1 10  1  0
  1 11  1  0
  1 12  1  0
  2 13  1  0
  4 14  1  0
  4 15  1  0
  5 16  1  0
  5 17  1  0
  7 18  1  0
  8 19  1  0
M  END
