
     RDKit          3D

 18 19  0  0  0  0  0  0  0  0999 V2000
    2.2831   -0.4493    0.5780 C   0  0  0  0  0  0  0  0  0  0  0  0
    1.3103    0.1196   -0.4315 C   0  0  0  0  0  0  0  0  0  0  0  0
    0.8805    1.3788   -0.1483 O   0  0  0  0  0  0  0  0  0  0  0  0
   -0.4725    1.4168   -0.0478 C   0  0  0  0  0  0  0  0  0  0  0  0
   -1.0563    0.1205   -0.4692 C   0  0  0  0  0  0  0  0  0  0  0  0
   -2.3259   -0.3532    0.1936 C   0  0  0  0  0  0  0  0  0  0  0  0
   -0.7001   -0.5246   -1.6187 O   0  0  0  0  0  0  0  0  0  0  0  0
    0.1294   -0.7946   -0.5458 C   0  0  0  0  0  0  0  0  0  0  0  0
    1.7813   -0.4615    1.5489 H   0  0  0  0  0  0  0  0  0  0  0  0
    3.2116    0.1510    0.5496 H   0  0  0  0  0  0  0  0  0  0  0  0
    2.5320   -1.4760    0.2371 H   0  0  0  0  0  0  0  0  0  0  0  0
    1.7890    0.1503   -1.4547 H   0  0  0  0  0  0  0  0  0  0  0  0
   -0.7286    1.5624    1.0434 H   0  0  0  0  0  0  0  0  0  0  0  0
   -0.8730    2.3061   -0.5584 H   0  0  0  0  0  0  0  0  0  0  0  0
   -2.0955   -0.4816    1.2726 H   0  0  0  0  0  0  0  0  0  0  0  0
   -3.1077    0.4005   -0.0017 H   0  0  0  0  0  0  0  0  0  0  0  0
   -2.6071   -1.3582   -0.1844 H   0  0  0  0  0  0  0  0  0  0  0  0
    0.0497   -1.7069    0.0373 H   0  0  0  0  0  0  0  0  0  0  0  0
  1  2  1  0
  2  3  1  0
  3  4  1  0
  4  5  1  0
  5  6  1  0
  5  7  1  0
  7  8  1  0
  8  2  1  0
  8  5  1  0
  1  9  1  0
  1 10  1  0
  1 11  1  0
  2 12  1  0
  4 13  1  0
  4 14  1  0
  6 15  1  0
  6 16  1  0
  6 17  1  0
  8 18  1  0
M  END
