
     RDKit          3D

 19 20  0  0  0  0  0  0  0  0999 V2000
    2.0227   -0.2253   -0.5127 C   0  0  0  0  0  0  0  0  0  0  0  0
    1.0281    0.2549    0.4881 C   0  0  0  0  0  0  0  0  0  0  0  0
    0.4750    1.4760    0.1590 O   0  0  0  0  0  0  0  0  0  0  0  0
   -0.7986    1.4149   -0.3407 C   0  0  0  0  0  0  0  0  0  0  0  0
   -1.7291    0.5217    0.4191 C   0  0  0  0  0  0  0  0  0  0  0  0
   -2.0615   -0.6439   -0.2811 O   0  0  0  0  0  0  0  0  0  0  0  0
   -0.7911   -1.2611   -0.3538 C   0  0  0  0  0  0  0  0  0  0  0  0
   -0.0403   -0.7518    0.8223 C   0  0  0  0  0  0  0  0  0  0  0  0
   -1.0424   -0.0350    1.5193 O   0  0  0  0  0  0  0  0  0  0  0  0
    2.4311    0.6763   -1.0535 H   0  0  0  0  0  0  0  0  0  0  0  0
    2.8816   -0.7395    0.0114 H   0  0  0  0  0  0  0  0  0  0  0  0
    1.6535   -0.9295   -1.2516 H   0  0  0  0  0  0  0  0  0  0  0  0
    1.5944    0.4208    1.4533 H   0  0  0  0  0  0  0  0  0  0  0  0
   -1.2267    2.4585   -0.2649 H   0  0  0  0  0  0  0  0  0  0  0  0
   -0.7992    1.2096   -1.4466 H   0  0  0  0  0  0  0  0  0  0  0  0
   -2.6656    1.0166    0.7271 H   0  0  0  0  0  0  0  0  0  0  0  0
   -0.3835   -0.9885   -1.3332 H   0  0  0  0  0  0  0  0  0  0  0  0
   -0.8670   -2.3599   -0.2851 H   0  0  0  0  0  0  0  0  0  0  0  0
    0.3187   -1.5148    1.5234 H   0  0  0  0  0  0  0  0  0  0  0  0
  1  2  1  0
  2  3  1  0
  3  4  1  0
  4  5  1  0
  5  6  1  0
  6  7  1  0
  7  8  1  0
  8  9  1  0
  8  2  1  0
  9  5  1  0
  1 10  1  0
  1 11  1  0
  1 12  1  0
  2 13  1  0
  4 14  1  0
  4 15  1  0
  5 16  1  0
  7 17  1  0
  7 18  1  0
  8 19  1  0
M  END
