
     RDKit          3D

 19 20  0  0  0  0  0  0  0  0999 V2000
    2.4965   -0.3227    0.1694 C   0  0  0  0  0  0  0  0  0  0  0  0
    1.1579    0.0233   -0.3835 C   0  0  0  0  0  0  0  0  0  0  0  0
    0.5966   -1.0019   -1.1042 O   0  0  0  0  0  0  0  0  0  0  0  0
   -0.7613   -0.6761   -1.2410 C   0  0  0  0  0  0  0  0  0  0  0  0
   -1.1647    0.0275    0.0233 C   0  0  0  0  0  0  0  0  0  0  0  0
   -2.2398   -0.5905    0.8356 C   0  0  0  0  0  0  0  0  0  0  0  0
   -3.2871   -0.0045    0.9334 O   0  0  0  0  0  0  0  0  0  0  0  0
   -0.8775    1.4483    0.2572 C   0  0  0  0  0  0  0  0  0  0  0  0
    0.1314    0.3670    0.6612 C   0  0  0  0  0  0  0  0  0  0  0  0
    2.4577   -1.0083    1.0354 H   0  0  0  0  0  0  0  0  0  0  0  0
    3.0358    0.6233    0.4061 H   0  0  0  0  0  0  0  0  0  0  0  0
    3.0510   -0.8863   -0.6345 H   0  0  0  0  0  0  0  0  0  0  0  0
    1.2798    0.8950   -1.0736 H   0  0  0  0  0  0  0  0  0  0  0  0
   -1.3100   -1.6385   -1.3428 H   0  0  0  0  0  0  0  0  0  0  0  0
   -0.9464   -0.0353   -2.1154 H   0  0  0  0  0  0  0  0  0  0  0  0
   -2.0457   -1.5424    1.3098 H   0  0  0  0  0  0  0  0  0  0  0  0
   -0.5081    2.1283   -0.5390 H   0  0  0  0  0  0  0  0  0  0  0  0
   -1.3957    1.9378    1.0797 H   0  0  0  0  0  0  0  0  0  0  0  0
    0.3296    0.2560    1.7228 H   0  0  0  0  0  0  0  0  0  0  0  0
  1  2  1  0
  2  3  1  0
  3  4  1  0
  4  5  1  0
  5  6  1  0
  6  7  2  0
  5  8  1  0
  8  9  1  0
  9  2  1  0
  9  5  1  0
  1 10  1  0
  1 11  1  0
  1 12  1  0
  2 13  1  0
  4 14  1  0
  4 15  1  0
  6 16  1  0
  8 17  1  0
  8 18  1  0
  9 19  1  0
M  END
