
     RDKit          3D

 21 22  0  0  0  0  0  0  0  0999 V2000
    3.2551    0.1583   -0.1845 C   0  0  0  0  0  0  0  0  0  0  0  0
    1.9982   -0.5138   -0.6161 C   0  0  0  0  0  0  0  0  0  0  0  0
    1.4292   -1.3165    0.5073 O   0  0  0  0  0  0  0  0  0  0  0  0
    0.6963   -0.2248    0.0420 C   0  0  0  0  0  0  0  0  0  0  0  0
   -0.5674   -0.6209   -0.6817 C   0  0  0  0  0  0  0  0  0  0  0  0
   -1.2753    0.6654   -1.0677 C   0  0  0  0  0  0  0  0  0  0  0  0
   -2.0408    0.8958    0.2436 C   0  0  0  0  0  0  0  0  0  0  0  0
   -2.4283   -0.5170    0.5556 C   0  0  0  0  0  0  0  0  0  0  0  0
   -1.4224   -1.3356    0.1136 O   0  0  0  0  0  0  0  0  0  0  0  0
    3.5995   -0.1104    0.8301 H   0  0  0  0  0  0  0  0  0  0  0  0
    4.0781   -0.1465   -0.8757 H   0  0  0  0  0  0  0  0  0  0  0  0
    3.2057    1.2654   -0.2264 H   0  0  0  0  0  0  0  0  0  0  0  0
    2.0173   -1.0984   -1.5606 H   0  0  0  0  0  0  0  0  0  0  0  0
    0.6654    0.7078    0.6423 H   0  0  0  0  0  0  0  0  0  0  0  0
   -0.3588   -1.2160   -1.5913 H   0  0  0  0  0  0  0  0  0  0  0  0
   -2.0179    0.4851   -1.8698 H   0  0  0  0  0  0  0  0  0  0  0  0
   -0.5861    1.4818   -1.2718 H   0  0  0  0  0  0  0  0  0  0  0  0
   -1.3096    1.2678    0.9634 H   0  0  0  0  0  0  0  0  0  0  0  0
   -2.8988    1.5646    0.0606 H   0  0  0  0  0  0  0  0  0  0  0  0
   -2.6350   -0.6764    1.6411 H   0  0  0  0  0  0  0  0  0  0  0  0
   -3.4045   -0.7156    0.0328 H   0  0  0  0  0  0  0  0  0  0  0  0
  1  2  1  0
  2  3  1  0
  3  4  1  0
  4  5  1  0
  5  6  1  0
  6  7  1  0
  7  8  1  0
  8  9  1  0
  4  2  1  0
  9  5  1  0
  1 10  1  0
  1 11  1  0
  1 12  1  0
  2 13  1  0
  4 14  1  0
  5 15  1  0
  6 16  1  0
  6 17  1  0
  7 18  1  0
  7 19  1  0
  8 20  1  0
  8 21  1  0
M  END
