
     RDKit          3D

 16 16  0  0  0  0  0  0  0  0999 V2000
    2.2067    0.1393   -0.2141 C   0  0  0  0  0  0  0  0  0  0  0  0
    0.7648    0.1891    0.1701 C   0  0  0  0  0  0  0  0  0  0  0  0
   -0.0478    0.8022   -0.7639 O   0  0  0  0  0  0  0  0  0  0  0  0
   -1.3117    0.9463   -0.1519 C   0  0  0  0  0  0  0  0  0  0  0  0
   -1.9978   -0.3903    0.0046 C   0  0  0  0  0  0  0  0  0  0  0  0
   -1.0647   -1.4461    0.1832 O   0  0  0  0  0  0  0  0  0  0  0  0
    0.2668   -1.1932    0.3628 C   0  0  0  0  0  0  0  0  0  0  0  0
    1.0874   -2.0902    0.6859 O   0  0  0  0  0  0  0  0  0  0  0  0
    2.7973    0.7096    0.5506 H   0  0  0  0  0  0  0  0  0  0  0  0
    2.4358    0.5546   -1.2053 H   0  0  0  0  0  0  0  0  0  0  0  0
    2.6211   -0.9014   -0.1672 H   0  0  0  0  0  0  0  0  0  0  0  0
    0.6148    0.7193    1.1330 H   0  0  0  0  0  0  0  0  0  0  0  0
   -1.1736    1.3504    0.8852 H   0  0  0  0  0  0  0  0  0  0  0  0
   -1.9616    1.6368   -0.6892 H   0  0  0  0  0  0  0  0  0  0  0  0
   -2.6413   -0.3896    0.9154 H   0  0  0  0  0  0  0  0  0  0  0  0
   -2.5962   -0.6369   -0.9037 H   0  0  0  0  0  0  0  0  0  0  0  0
  1  2  1  0
  2  3  1  0
  3  4  1  0
  4  5  1  0
  5  6  1  0
  6  7  1  0
  7  8  2  0
  7  2  1  0
  1  9  1  0
  1 10  1  0
  1 11  1  0
  2 12  1  0
  4 13  1  0
  4 14  1  0
  5 15  1  0
  5 16  1  0
M  END
