
     RDKit          3D

 21 22  0  0  0  0  0  0  0  0999 V2000
   -1.3432   -1.7587   -0.8864 C   0  0  0  0  0  0  0  0  0  0  0  0
   -0.9453   -0.5403   -0.0916 C   0  0  0  0  0  0  0  0  0  0  0  0
   -1.8578    0.4701   -0.1963 O   0  0  0  0  0  0  0  0  0  0  0  0
   -1.3779    1.7499   -0.1636 C   0  0  0  0  0  0  0  0  0  0  0  0
   -0.1212    1.8868    0.6595 C   0  0  0  0  0  0  0  0  0  0  0  0
    0.8174    0.9631    0.5202 C   0  0  0  0  0  0  0  0  0  0  0  0
    2.0803    0.2589    0.7288 C   0  0  0  0  0  0  0  0  0  0  0  0
    1.5600   -1.0001    0.0377 C   0  0  0  0  0  0  0  0  0  0  0  0
    0.4534   -0.1120   -0.4803 C   0  0  0  0  0  0  0  0  0  0  0  0
   -1.5754   -2.6046   -0.2048 H   0  0  0  0  0  0  0  0  0  0  0  0
   -2.2080   -1.5470   -1.5717 H   0  0  0  0  0  0  0  0  0  0  0  0
   -0.4737   -2.1007   -1.4997 H   0  0  0  0  0  0  0  0  0  0  0  0
   -0.8758   -0.8314    0.9983 H   0  0  0  0  0  0  0  0  0  0  0  0
   -2.1411    2.3796    0.3744 H   0  0  0  0  0  0  0  0  0  0  0  0
   -1.2484    2.2240   -1.1574 H   0  0  0  0  0  0  0  0  0  0  0  0
    0.0491    2.6946    1.3512 H   0  0  0  0  0  0  0  0  0  0  0  0
    2.3379   -0.0094    1.7761 H   0  0  0  0  0  0  0  0  0  0  0  0
    2.9174    0.7520    0.2174 H   0  0  0  0  0  0  0  0  0  0  0  0
    2.2038   -1.3723   -0.7815 H   0  0  0  0  0  0  0  0  0  0  0  0
    1.1726   -1.7742    0.7287 H   0  0  0  0  0  0  0  0  0  0  0  0
    0.5761    0.2716   -1.4891 H   0  0  0  0  0  0  0  0  0  0  0  0
  1  2  1  0
  2  3  1  0
  3  4  1  0
  4  5  1  0
  5  6  2  0
  6  7  1  0
  7  8  1  0
  8  9  1  0
  9  2  1  0
  9  6  1  0
  1 10  1  0
  1 11  1  0
  1 12  1  0
  2 13  1  0
  4 14  1  0
  4 15  1  0
  5 16  1  0
  7 17  1  0
  7 18  1  0
  8 19  1  0
  8 20  1  0
  9 21  1  0
M  END
