
     RDKit          3D

 23 24  0  0  0  0  0  0  0  0999 V2000
    2.2520   -0.6919    0.5723 C   0  0  0  0  0  0  0  0  0  0  0  0
    1.2724   -0.3258   -0.4699 C   0  0  0  0  0  0  0  0  0  0  0  0
    0.4198   -1.3198   -0.9305 O   0  0  0  0  0  0  0  0  0  0  0  0
   -0.5224   -0.2969   -1.1817 C   0  0  0  0  0  0  0  0  0  0  0  0
   -1.8722   -0.7563   -0.6993 C   0  0  0  0  0  0  0  0  0  0  0  0
   -1.7567   -0.7551    0.8005 C   0  0  0  0  0  0  0  0  0  0  0  0
   -0.6293    0.1878    1.1488 C   0  0  0  0  0  0  0  0  0  0  0  0
    0.1050    0.5108   -0.0909 C   0  0  0  0  0  0  0  0  0  0  0  0
    0.3519    1.9652   -0.3948 C   0  0  0  0  0  0  0  0  0  0  0  0
    2.5247   -1.7764    0.4268 H   0  0  0  0  0  0  0  0  0  0  0  0
    3.2220   -0.1447    0.4383 H   0  0  0  0  0  0  0  0  0  0  0  0
    1.9474   -0.5441    1.6077 H   0  0  0  0  0  0  0  0  0  0  0  0
    1.7943    0.1288   -1.3574 H   0  0  0  0  0  0  0  0  0  0  0  0
   -0.4710    0.1487   -2.1711 H   0  0  0  0  0  0  0  0  0  0  0  0
   -2.7077   -0.1717   -1.0897 H   0  0  0  0  0  0  0  0  0  0  0  0
   -1.9925   -1.8157   -1.0638 H   0  0  0  0  0  0  0  0  0  0  0  0
   -2.7264   -0.4551    1.2322 H   0  0  0  0  0  0  0  0  0  0  0  0
   -1.4714   -1.7606    1.1720 H   0  0  0  0  0  0  0  0  0  0  0  0
   -1.1197    1.1301    1.5218 H   0  0  0  0  0  0  0  0  0  0  0  0
   -0.0285   -0.1883    1.9851 H   0  0  0  0  0  0  0  0  0  0  0  0
   -0.3388    2.6361    0.1402 H   0  0  0  0  0  0  0  0  0  0  0  0
    1.4149    2.1744   -0.0927 H   0  0  0  0  0  0  0  0  0  0  0  0
    0.3323    2.1205   -1.5040 H   0  0  0  0  0  0  0  0  0  0  0  0
  1  2  1  0
  2  3  1  0
  3  4  1  0
  4  5  1  0
  5  6  1  0
  6  7  1  0
  7  8  1  0
  8  9  1  0
  8  2  1  0
  8  4  1  0
  1 10  1  0
  1 11  1  0
  1 12  1  0
  2 13  1  0
  4 14  1  0
  5 15  1  0
  5 16  1  0
  6 17  1  0
  6 18  1  0
  7 19  1  0
  7 20  1  0
  9 21  1  0
  9 22  1  0
  9 23  1  0
M  END
