
     RDKit          3D

 23 24  0  0  0  0  0  0  0  0999 V2000
   -0.7384    2.0731    0.1161 C   0  0  0  0  0  0  0  0  0  0  0  0
   -0.4493    0.8149   -0.6956 C   0  0  0  0  0  0  0  0  0  0  0  0
   -1.5652    0.0700   -0.9424 O   0  0  0  0  0  0  0  0  0  0  0  0
   -1.7709   -1.0070   -0.1378 C   0  0  0  0  0  0  0  0  0  0  0  0
   -0.4961   -1.6207    0.3578 C   0  0  0  0  0  0  0  0  0  0  0  0
    0.5608   -1.3981   -0.6994 C   0  0  0  0  0  0  0  0  0  0  0  0
    0.6670    0.0183   -0.1158 C   0  0  0  0  0  0  0  0  0  0  0  0
    2.0258    0.6093   -0.1277 C   0  0  0  0  0  0  0  0  0  0  0  0
    0.2536   -0.5843    1.2056 C   0  0  0  0  0  0  0  0  0  0  0  0
   -0.6975    1.9054    1.1933 H   0  0  0  0  0  0  0  0  0  0  0  0
   -1.7272    2.4397   -0.1612 H   0  0  0  0  0  0  0  0  0  0  0  0
    0.0831    2.8078   -0.1167 H   0  0  0  0  0  0  0  0  0  0  0  0
   -0.0845    1.2010   -1.6943 H   0  0  0  0  0  0  0  0  0  0  0  0
   -2.2817   -1.7999   -0.7607 H   0  0  0  0  0  0  0  0  0  0  0  0
   -2.4883   -0.7813    0.6988 H   0  0  0  0  0  0  0  0  0  0  0  0
   -0.5510   -2.5993    0.8099 H   0  0  0  0  0  0  0  0  0  0  0  0
    0.1006   -1.3847   -1.7098 H   0  0  0  0  0  0  0  0  0  0  0  0
    1.4748   -1.9811   -0.5992 H   0  0  0  0  0  0  0  0  0  0  0  0
    2.0825    1.3871    0.6798 H   0  0  0  0  0  0  0  0  0  0  0  0
    2.2660    1.0585   -1.0890 H   0  0  0  0  0  0  0  0  0  0  0  0
    2.7509   -0.2026    0.1635 H   0  0  0  0  0  0  0  0  0  0  0  0
   -0.4703   -0.0294    1.7982 H   0  0  0  0  0  0  0  0  0  0  0  0
    1.0552   -0.9967    1.8268 H   0  0  0  0  0  0  0  0  0  0  0  0
  1  2  1  0
  2  3  1  0
  3  4  1  0
  4  5  1  0
  5  6  1  0
  6  7  1  0
  7  8  1  0
  7  9  1  0
  7  2  1  0
  9  5  1  0
  1 10  1  0
  1 11  1  0
  1 12  1  0
  2 13  1  0
  4 14  1  0
  4 15  1  0
  5 16  1  0
  6 17  1  0
  6 18  1  0
  8 19  1  0
  8 20  1  0
  8 21  1  0
  9 22  1  0
  9 23  1  0
M  END
