
     RDKit          3D

 21 22  0  0  0  0  0  0  0  0999 V2000
    3.3642    0.1550   -0.2159 C   0  0  0  0  0  0  0  0  0  0  0  0
    1.8991    0.5068    0.0200 C   0  0  0  0  0  0  0  0  0  0  0  0
    1.3920    0.3911    1.3122 O   0  0  0  0  0  0  0  0  0  0  0  0
    0.9618   -0.5765    0.4038 C   0  0  0  0  0  0  0  0  0  0  0  0
   -0.4562   -0.6139   -0.0394 C   0  0  0  0  0  0  0  0  0  0  0  0
   -1.4213    0.4611    0.2823 C   0  0  0  0  0  0  0  0  0  0  0  0
   -2.8263    0.0875    0.6357 C   0  0  0  0  0  0  0  0  0  0  0  0
   -0.9334    0.2591   -1.1521 C   0  0  0  0  0  0  0  0  0  0  0  0
   -1.9464   -0.1851   -2.0052 O   0  0  0  0  0  0  0  0  0  0  0  0
    3.3769   -0.8972   -0.6184 H   0  0  0  0  0  0  0  0  0  0  0  0
    3.9556    0.1721    0.7080 H   0  0  0  0  0  0  0  0  0  0  0  0
    3.7736    0.7912   -1.0272 H   0  0  0  0  0  0  0  0  0  0  0  0
    1.4849    1.3289   -0.5930 H   0  0  0  0  0  0  0  0  0  0  0  0
    1.4534   -1.5885    0.5185 H   0  0  0  0  0  0  0  0  0  0  0  0
   -0.9206   -1.6445   -0.0843 H   0  0  0  0  0  0  0  0  0  0  0  0
   -1.0430    1.3873    0.7460 H   0  0  0  0  0  0  0  0  0  0  0  0
   -3.4034    1.0093    0.9367 H   0  0  0  0  0  0  0  0  0  0  0  0
   -2.9035   -0.6370    1.4634 H   0  0  0  0  0  0  0  0  0  0  0  0
   -3.3875   -0.2903   -0.2690 H   0  0  0  0  0  0  0  0  0  0  0  0
   -0.2586    0.9980   -1.5813 H   0  0  0  0  0  0  0  0  0  0  0  0
   -2.1613   -1.1144   -1.7170 H   0  0  0  0  0  0  0  0  0  0  0  0
  1  2  1  0
  2  3  1  0
  3  4  1  0
  4  5  1  0
  5  6  1  0
  6  7  1  0
  6  8  1  0
  8  9  1  0
  4  2  1  0
  8  5  1  0
  1 10  1  0
  1 11  1  0
  1 12  1  0
  2 13  1  0
  4 14  1  0
  5 15  1  0
  6 16  1  0
  7 17  1  0
  7 18  1  0
  7 19  1  0
  8 20  1  0
  9 21  1  0
M  END
