
     RDKit          3D

 21 23  0  0  0  0  0  0  0  0999 V2000
    2.6319    0.1684    0.5004 C   0  0  0  0  0  0  0  0  0  0  0  0
    1.5597   -0.0417   -0.5262 C   0  0  0  0  0  0  0  0  0  0  0  0
    0.9349    1.0981   -0.9461 O   0  0  0  0  0  0  0  0  0  0  0  0
   -0.3952    0.7979   -1.2492 C   0  0  0  0  0  0  0  0  0  0  0  0
   -0.6386   -0.6214   -0.9816 C   0  0  0  0  0  0  0  0  0  0  0  0
    0.4631   -0.9781   -0.0298 C   0  0  0  0  0  0  0  0  0  0  0  0
   -0.3778   -0.3357    1.0759 C   0  0  0  0  0  0  0  0  0  0  0  0
   -1.1703    0.3340   -0.0237 C   0  0  0  0  0  0  0  0  0  0  0  0
   -2.6275    0.5374    0.0806 C   0  0  0  0  0  0  0  0  0  0  0  0
    3.1724    1.1052    0.2567 H   0  0  0  0  0  0  0  0  0  0  0  0
    3.3695   -0.6764    0.3655 H   0  0  0  0  0  0  0  0  0  0  0  0
    2.2817    0.0981    1.5302 H   0  0  0  0  0  0  0  0  0  0  0  0
    1.9932   -0.5372   -1.4437 H   0  0  0  0  0  0  0  0  0  0  0  0
   -0.9476    1.4040   -1.9571 H   0  0  0  0  0  0  0  0  0  0  0  0
   -1.1651   -1.3206   -1.5890 H   0  0  0  0  0  0  0  0  0  0  0  0
    0.7263   -2.0136    0.1025 H   0  0  0  0  0  0  0  0  0  0  0  0
   -0.8914   -1.1180    1.6352 H   0  0  0  0  0  0  0  0  0  0  0  0
    0.2128    0.3836    1.6900 H   0  0  0  0  0  0  0  0  0  0  0  0
   -3.1460   -0.3901    0.4063 H   0  0  0  0  0  0  0  0  0  0  0  0
   -2.9593    1.3617    0.7199 H   0  0  0  0  0  0  0  0  0  0  0  0
   -3.0267    0.7445   -0.9496 H   0  0  0  0  0  0  0  0  0  0  0  0
  1  2  1  0
  2  3  1  0
  3  4  1  0
  4  5  1  0
  5  6  1  0
  6  7  1  0
  7  8  1  0
  8  9  1  0
  6  2  1  0
  8  4  1  0
  8  5  1  0
  1 10  1  0
  1 11  1  0
  1 12  1  0
  2 13  1  0
  4 14  1  0
  5 15  1  0
  6 16  1  0
  7 17  1  0
  7 18  1  0
  9 19  1  0
  9 20  1  0
  9 21  1  0
M  END
