
     RDKit          3D

 15 15  0  0  0  0  0  0  0  0999 V2000
   -1.8522   -0.1605   -0.1556 C   0  0  0  0  0  0  0  0  0  0  0  0
   -0.4992    0.3271    0.2890 C   0  0  0  0  0  0  0  0  0  0  0  0
   -0.1798    1.5627   -0.3406 O   0  0  0  0  0  0  0  0  0  0  0  0
    0.9348    1.3934   -1.1257 C   0  0  0  0  0  0  0  0  0  0  0  0
    1.4396    2.2919   -1.8306 O   0  0  0  0  0  0  0  0  0  0  0  0
    1.3826    0.0970   -1.0009 O   0  0  0  0  0  0  0  0  0  0  0  0
    0.6110   -0.6217   -0.0693 C   0  0  0  0  0  0  0  0  0  0  0  0
    1.4742   -0.9309    1.1000 C   0  0  0  0  0  0  0  0  0  0  0  0
    1.0759   -1.5493    2.0726 O   0  0  0  0  0  0  0  0  0  0  0  0
   -1.8023   -0.8413   -1.0318 H   0  0  0  0  0  0  0  0  0  0  0  0
   -2.4136   -0.6708    0.6483 H   0  0  0  0  0  0  0  0  0  0  0  0
   -2.4297    0.7332   -0.4764 H   0  0  0  0  0  0  0  0  0  0  0  0
   -0.4827    0.5148    1.3807 H   0  0  0  0  0  0  0  0  0  0  0  0
    0.2492   -1.5335   -0.5810 H   0  0  0  0  0  0  0  0  0  0  0  0
    2.4922   -0.6122    1.1213 H   0  0  0  0  0  0  0  0  0  0  0  0
  1  2  1  0
  2  3  1  0
  3  4  1  0
  4  5  2  0
  4  6  1  0
  6  7  1  0
  7  8  1  0
  8  9  2  0
  7  2  1  0
  1 10  1  0
  1 11  1  0
  1 12  1  0
  2 13  1  0
  7 14  1  0
  8 15  1  0
M  END
