
     RDKit          3D

 21 22  0  0  0  0  0  0  0  0999 V2000
    2.2274   -0.2402    1.0608 C   0  0  0  0  0  0  0  0  0  0  0  0
    1.0314   -0.5206    0.1448 C   0  0  0  0  0  0  0  0  0  0  0  0
    0.0976   -1.3051    0.7573 O   0  0  0  0  0  0  0  0  0  0  0  0
   -1.1935   -1.1167    0.3565 C   0  0  0  0  0  0  0  0  0  0  0  0
   -1.3393   -0.5780   -1.0434 C   0  0  0  0  0  0  0  0  0  0  0  0
   -0.9786    0.7896   -0.4435 C   0  0  0  0  0  0  0  0  0  0  0  0
   -1.6212    0.2762    0.8360 C   0  0  0  0  0  0  0  0  0  0  0  0
    0.5335    0.7994   -0.3466 C   0  0  0  0  0  0  0  0  0  0  0  0
    0.9997    0.9742   -1.6714 O   0  0  0  0  0  0  0  0  0  0  0  0
    1.9500    0.3858    1.9174 H   0  0  0  0  0  0  0  0  0  0  0  0
    2.9940    0.2809    0.4326 H   0  0  0  0  0  0  0  0  0  0  0  0
    2.7197   -1.1942    1.3755 H   0  0  0  0  0  0  0  0  0  0  0  0
    1.4738   -1.1285   -0.6982 H   0  0  0  0  0  0  0  0  0  0  0  0
   -1.8934   -1.8684    0.6848 H   0  0  0  0  0  0  0  0  0  0  0  0
   -2.3831   -0.5775   -1.3623 H   0  0  0  0  0  0  0  0  0  0  0  0
   -0.5765   -0.8879   -1.7700 H   0  0  0  0  0  0  0  0  0  0  0  0
   -1.4486    1.6423   -0.9115 H   0  0  0  0  0  0  0  0  0  0  0  0
   -2.7152    0.3640    0.7564 H   0  0  0  0  0  0  0  0  0  0  0  0
   -1.1501    0.5802    1.7664 H   0  0  0  0  0  0  0  0  0  0  0  0
    0.8682    1.6661    0.2424 H   0  0  0  0  0  0  0  0  0  0  0  0
    0.4040    1.6583   -2.0843 H   0  0  0  0  0  0  0  0  0  0  0  0
  1  2  1  0
  2  3  1  0
  3  4  1  0
  4  5  1  0
  5  6  1  0
  6  7  1  0
  6  8  1  0
  8  9  1  0
  8  2  1  0
  7  4  1  0
  1 10  1  0
  1 11  1  0
  1 12  1  0
  2 13  1  0
  4 14  1  0
  5 15  1  0
  5 16  1  0
  6 17  1  0
  7 18  1  0
  7 19  1  0
  8 20  1  0
  9 21  1  0
M  END
