
     RDKit          3D

 23 24  0  0  0  0  0  0  0  0999 V2000
   -1.1694    2.0830   -0.4976 C   0  0  0  0  0  0  0  0  0  0  0  0
   -0.4478    0.7778   -0.7718 C   0  0  0  0  0  0  0  0  0  0  0  0
   -1.4093   -0.1353   -1.1477 O   0  0  0  0  0  0  0  0  0  0  0  0
   -1.7610   -1.1005   -0.2783 C   0  0  0  0  0  0  0  0  0  0  0  0
   -0.6526   -1.8652    0.4093 C   0  0  0  0  0  0  0  0  0  0  0  0
    0.5878   -1.1278    0.1264 C   0  0  0  0  0  0  0  0  0  0  0  0
    1.3964   -0.2260    0.8491 C   0  0  0  0  0  0  0  0  0  0  0  0
    2.6505    0.3380    0.1677 C   0  0  0  0  0  0  0  0  0  0  0  0
    0.1474    0.3255    0.4881 C   0  0  0  0  0  0  0  0  0  0  0  0
   -1.6069    2.5202   -1.4116 H   0  0  0  0  0  0  0  0  0  0  0  0
   -0.4999    2.8324   -0.0629 H   0  0  0  0  0  0  0  0  0  0  0  0
   -1.9492    1.8429    0.2699 H   0  0  0  0  0  0  0  0  0  0  0  0
    0.3086    0.9772   -1.5356 H   0  0  0  0  0  0  0  0  0  0  0  0
   -2.4371   -1.8140   -0.7930 H   0  0  0  0  0  0  0  0  0  0  0  0
   -2.3883   -0.6459    0.5352 H   0  0  0  0  0  0  0  0  0  0  0  0
   -0.8442   -1.9635    1.5163 H   0  0  0  0  0  0  0  0  0  0  0  0
   -0.6401   -2.9025    0.0163 H   0  0  0  0  0  0  0  0  0  0  0  0
    0.8935   -1.3121   -0.9496 H   0  0  0  0  0  0  0  0  0  0  0  0
    1.6170   -0.4302    1.9219 H   0  0  0  0  0  0  0  0  0  0  0  0
    3.4953   -0.3813    0.2328 H   0  0  0  0  0  0  0  0  0  0  0  0
    2.8865    1.3441    0.5181 H   0  0  0  0  0  0  0  0  0  0  0  0
    2.4244    0.4211   -0.9325 H   0  0  0  0  0  0  0  0  0  0  0  0
   -0.6015    0.4420    1.3294 H   0  0  0  0  0  0  0  0  0  0  0  0
  1  2  1  0
  2  3  1  0
  3  4  1  0
  4  5  1  0
  5  6  1  0
  6  7  1  0
  7  8  1  0
  7  9  1  0
  9  2  1  0
  9  6  1  0
  1 10  1  0
  1 11  1  0
  1 12  1  0
  2 13  1  0
  4 14  1  0
  4 15  1  0
  5 16  1  0
  5 17  1  0
  6 18  1  0
  7 19  1  0
  8 20  1  0
  8 21  1  0
  8 22  1  0
  9 23  1  0
M  END
