
     RDKit          3D

 21 22  0  0  0  0  0  0  0  0999 V2000
    2.1082   -0.8941    0.4043 C   0  0  0  0  0  0  0  0  0  0  0  0
    0.8914   -0.7834   -0.4362 C   0  0  0  0  0  0  0  0  0  0  0  0
   -0.1170   -1.6397    0.0626 O   0  0  0  0  0  0  0  0  0  0  0  0
   -0.6668   -0.5406    0.7632 C   0  0  0  0  0  0  0  0  0  0  0  0
   -2.1383   -0.4492    0.4105 C   0  0  0  0  0  0  0  0  0  0  0  0
   -2.2673    0.4846   -0.5902 O   0  0  0  0  0  0  0  0  0  0  0  0
   -1.0577    0.5210   -1.2912 C   0  0  0  0  0  0  0  0  0  0  0  0
   -0.0226    0.3566   -0.2131 C   0  0  0  0  0  0  0  0  0  0  0  0
    0.5256    1.6519    0.2316 C   0  0  0  0  0  0  0  0  0  0  0  0
    2.2255   -0.1273    1.1787 H   0  0  0  0  0  0  0  0  0  0  0  0
    3.0383   -0.9004   -0.2064 H   0  0  0  0  0  0  0  0  0  0  0  0
    2.1192   -1.8816    0.9527 H   0  0  0  0  0  0  0  0  0  0  0  0
    1.0846   -0.9906   -1.5103 H   0  0  0  0  0  0  0  0  0  0  0  0
   -0.4095   -0.4806    1.8136 H   0  0  0  0  0  0  0  0  0  0  0  0
   -2.7597   -0.2296    1.2988 H   0  0  0  0  0  0  0  0  0  0  0  0
   -2.5277   -1.4270    0.0120 H   0  0  0  0  0  0  0  0  0  0  0  0
   -0.9714   -0.2924   -2.0182 H   0  0  0  0  0  0  0  0  0  0  0  0
   -1.0123    1.5251   -1.7781 H   0  0  0  0  0  0  0  0  0  0  0  0
    1.2102    1.6388    1.0732 H   0  0  0  0  0  0  0  0  0  0  0  0
    1.0626    2.1220   -0.6281 H   0  0  0  0  0  0  0  0  0  0  0  0
   -0.3149    2.3364    0.4707 H   0  0  0  0  0  0  0  0  0  0  0  0
  1  2  1  0
  2  3  1  0
  3  4  1  0
  4  5  1  0
  5  6  1  0
  6  7  1  0
  7  8  1  0
  8  9  1  0
  8  2  1  0
  8  4  1  0
  1 10  1  0
  1 11  1  0
  1 12  1  0
  2 13  1  0
  4 14  1  0
  5 15  1  0
  5 16  1  0
  7 17  1  0
  7 18  1  0
  9 19  1  0
  9 20  1  0
  9 21  1  0
M  END
