
     RDKit          3D

 21 22  0  0  0  0  0  0  0  0999 V2000
    2.0957    0.2826    0.6351 C   0  0  0  0  0  0  0  0  0  0  0  0
    1.1177    0.2750   -0.4836 C   0  0  0  0  0  0  0  0  0  0  0  0
    0.6097    1.5513   -0.7708 O   0  0  0  0  0  0  0  0  0  0  0  0
   -0.4321    1.7402    0.1342 C   0  0  0  0  0  0  0  0  0  0  0  0
   -1.2486    0.5071   -0.0401 C   0  0  0  0  0  0  0  0  0  0  0  0
   -2.2090    0.1677    0.9154 O   0  0  0  0  0  0  0  0  0  0  0  0
   -1.2139   -0.3126   -1.2542 C   0  0  0  0  0  0  0  0  0  0  0  0
   -0.1062   -0.5404   -0.2522 C   0  0  0  0  0  0  0  0  0  0  0  0
   -0.1385   -1.6888    0.6828 C   0  0  0  0  0  0  0  0  0  0  0  0
    1.8797   -0.4102    1.4544 H   0  0  0  0  0  0  0  0  0  0  0  0
    3.1148    0.0782    0.2127 H   0  0  0  0  0  0  0  0  0  0  0  0
    2.1830    1.3130    1.0797 H   0  0  0  0  0  0  0  0  0  0  0  0
    1.5853   -0.0941   -1.4428 H   0  0  0  0  0  0  0  0  0  0  0  0
    0.0273    1.6941    1.1642 H   0  0  0  0  0  0  0  0  0  0  0  0
   -0.9368    2.6784   -0.0708 H   0  0  0  0  0  0  0  0  0  0  0  0
   -2.9264   -0.3866    0.4725 H   0  0  0  0  0  0  0  0  0  0  0  0
   -0.9325    0.1664   -2.2201 H   0  0  0  0  0  0  0  0  0  0  0  0
   -1.9457   -1.1107   -1.3611 H   0  0  0  0  0  0  0  0  0  0  0  0
    0.5570   -2.4640    0.3562 H   0  0  0  0  0  0  0  0  0  0  0  0
    0.1201   -1.4013    1.7423 H   0  0  0  0  0  0  0  0  0  0  0  0
   -1.2007   -2.0455    0.7521 H   0  0  0  0  0  0  0  0  0  0  0  0
  1  2  1  0
  2  3  1  0
  3  4  1  0
  4  5  1  0
  5  6  1  0
  5  7  1  0
  7  8  1  0
  8  9  1  0
  8  2  1  0
  8  5  1  0
  1 10  1  0
  1 11  1  0
  1 12  1  0
  2 13  1  0
  4 14  1  0
  4 15  1  0
  6 16  1  0
  7 17  1  0
  7 18  1  0
  9 19  1  0
  9 20  1  0
  9 21  1  0
M  END
