
     RDKit          3D

 18 19  0  0  0  0  0  0  0  0999 V2000
    2.3194   -0.2644   -0.0941 C   0  0  0  0  0  0  0  0  0  0  0  0
    1.0150    0.3272    0.4069 C   0  0  0  0  0  0  0  0  0  0  0  0
    0.5748    1.1905   -0.6222 O   0  0  0  0  0  0  0  0  0  0  0  0
   -0.7826    1.3801   -0.4049 C   0  0  0  0  0  0  0  0  0  0  0  0
   -1.3177    0.1582    0.2670 C   0  0  0  0  0  0  0  0  0  0  0  0
   -1.6837   -0.9437   -0.6622 C   0  0  0  0  0  0  0  0  0  0  0  0
   -0.3137   -1.1982   -0.8331 O   0  0  0  0  0  0  0  0  0  0  0  0
   -0.0948   -0.6925    0.4531 C   0  0  0  0  0  0  0  0  0  0  0  0
    2.5829   -1.1774    0.4549 H   0  0  0  0  0  0  0  0  0  0  0  0
    3.0800    0.5400   -0.0035 H   0  0  0  0  0  0  0  0  0  0  0  0
    2.1975   -0.4514   -1.1899 H   0  0  0  0  0  0  0  0  0  0  0  0
    1.1274    0.8978    1.3349 H   0  0  0  0  0  0  0  0  0  0  0  0
   -1.3333    1.4921   -1.3751 H   0  0  0  0  0  0  0  0  0  0  0  0
   -0.8830    2.2737    0.2422 H   0  0  0  0  0  0  0  0  0  0  0  0
   -1.9956    0.2714    1.0963 H   0  0  0  0  0  0  0  0  0  0  0  0
   -2.1933   -1.7740   -0.1163 H   0  0  0  0  0  0  0  0  0  0  0  0
   -2.2118   -0.6234   -1.5859 H   0  0  0  0  0  0  0  0  0  0  0  0
   -0.0876   -1.4058    1.2657 H   0  0  0  0  0  0  0  0  0  0  0  0
  1  2  1  0
  2  3  1  0
  3  4  1  0
  4  5  1  0
  5  6  1  0
  6  7  1  0
  7  8  1  0
  8  2  1  0
  8  5  1  0
  1  9  1  0
  1 10  1  0
  1 11  1  0
  2 12  1  0
  4 13  1  0
  4 14  1  0
  5 15  1  0
  6 16  1  0
  6 17  1  0
  8 18  1  0
M  END
