
     RDKit          3D

 19 20  0  0  0  0  0  0  0  0999 V2000
    2.2073   -0.3796   -0.2321 C   0  0  0  0  0  0  0  0  0  0  0  0
    0.9707    0.3800    0.1063 C   0  0  0  0  0  0  0  0  0  0  0  0
    0.4687    1.1581   -0.9020 O   0  0  0  0  0  0  0  0  0  0  0  0
   -0.9188    0.9681   -1.0316 C   0  0  0  0  0  0  0  0  0  0  0  0
   -1.5672    1.2230    0.3023 C   0  0  0  0  0  0  0  0  0  0  0  0
   -1.1288    0.3977    1.2504 C   0  0  0  0  0  0  0  0  0  0  0  0
   -0.0942   -0.5543    0.7033 C   0  0  0  0  0  0  0  0  0  0  0  0
   -0.8168   -1.2783   -0.4344 C   0  0  0  0  0  0  0  0  0  0  0  0
   -1.0866   -0.3598   -1.4185 O   0  0  0  0  0  0  0  0  0  0  0  0
    2.0011   -1.3006   -0.8407 H   0  0  0  0  0  0  0  0  0  0  0  0
    2.8817    0.2844   -0.8015 H   0  0  0  0  0  0  0  0  0  0  0  0
    2.7618   -0.6410    0.7048 H   0  0  0  0  0  0  0  0  0  0  0  0
    1.2356    1.0760    0.9548 H   0  0  0  0  0  0  0  0  0  0  0  0
   -1.3751    1.6344   -1.7559 H   0  0  0  0  0  0  0  0  0  0  0  0
   -2.3045    1.9992    0.4406 H   0  0  0  0  0  0  0  0  0  0  0  0
   -1.4543    0.3916    2.2777 H   0  0  0  0  0  0  0  0  0  0  0  0
    0.3336   -1.2106    1.4454 H   0  0  0  0  0  0  0  0  0  0  0  0
   -1.8091   -1.6079   -0.0133 H   0  0  0  0  0  0  0  0  0  0  0  0
   -0.3050   -2.1801   -0.7557 H   0  0  0  0  0  0  0  0  0  0  0  0
  1  2  1  0
  2  3  1  0
  3  4  1  0
  4  5  1  0
  5  6  2  0
  6  7  1  0
  7  8  1  0
  8  9  1  0
  7  2  1  0
  9  4  1  0
  1 10  1  0
  1 11  1  0
  1 12  1  0
  2 13  1  0
  4 14  1  0
  5 15  1  0
  6 16  1  0
  7 17  1  0
  8 18  1  0
  8 19  1  0
M  END
