
     RDKit          3D

 19 21  0  0  0  0  0  0  0  0999 V2000
   -2.4274    0.3148    0.6852 C   0  0  0  0  0  0  0  0  0  0  0  0
   -1.5083   -0.0939   -0.4406 C   0  0  0  0  0  0  0  0  0  0  0  0
   -0.7769    1.1057   -0.9237 O   0  0  0  0  0  0  0  0  0  0  0  0
   -0.1656   -0.1564   -0.4347 C   0  0  0  0  0  0  0  0  0  0  0  0
    0.6740   -0.8732   -1.4357 C   0  0  0  0  0  0  0  0  0  0  0  0
    1.8431   -0.7738   -0.4613 C   0  0  0  0  0  0  0  0  0  0  0  0
    0.9631    0.0318    0.4372 C   0  0  0  0  0  0  0  0  0  0  0  0
    1.3783    1.0952    1.2468 C   0  0  0  0  0  0  0  0  0  0  0  0
    1.0162   -0.2494    1.7707 O   0  0  0  0  0  0  0  0  0  0  0  0
   -1.8421    0.6947    1.5209 H   0  0  0  0  0  0  0  0  0  0  0  0
   -3.0728   -0.5595    0.9376 H   0  0  0  0  0  0  0  0  0  0  0  0
   -3.1492    1.0852    0.2826 H   0  0  0  0  0  0  0  0  0  0  0  0
   -2.1052   -0.5274   -1.2974 H   0  0  0  0  0  0  0  0  0  0  0  0
    0.3650   -1.8979   -1.6899 H   0  0  0  0  0  0  0  0  0  0  0  0
    0.9189   -0.3020   -2.3549 H   0  0  0  0  0  0  0  0  0  0  0  0
    2.7110   -0.2262   -0.8306 H   0  0  0  0  0  0  0  0  0  0  0  0
    2.0744   -1.7971   -0.0874 H   0  0  0  0  0  0  0  0  0  0  0  0
    0.6460    1.8039    1.6789 H   0  0  0  0  0  0  0  0  0  0  0  0
    2.4575    1.3254    1.3964 H   0  0  0  0  0  0  0  0  0  0  0  0
  1  2  1  0
  2  3  1  0
  3  4  1  0
  4  5  1  0
  5  6  1  0
  6  7  1  0
  7  8  1  0
  8  9  1  0
  4  2  1  0
  9  7  1  0
  7  4  1  0
  1 10  1  0
  1 11  1  0
  1 12  1  0
  2 13  1  0
  5 14  1  0
  5 15  1  0
  6 16  1  0
  6 17  1  0
  8 18  1  0
  8 19  1  0
M  END
