
     RDKit          3D

 13 13  0  0  0  0  0  0  0  0999 V2000
   -1.4826    0.4197   -0.5430 C   0  0  0  0  0  0  0  0  0  0  0  0
   -0.6795    0.0934    0.6971 C   0  0  0  0  0  0  0  0  0  0  0  0
   -0.0488   -1.1298    0.4735 O   0  0  0  0  0  0  0  0  0  0  0  0
    1.1206   -0.7831   -0.2359 C   0  0  0  0  0  0  0  0  0  0  0  0
    1.5386    0.4535    0.4879 C   0  0  0  0  0  0  0  0  0  0  0  0
    2.7282    0.8186    0.6548 O   0  0  0  0  0  0  0  0  0  0  0  0
    0.3533    1.0481    0.8967 O   0  0  0  0  0  0  0  0  0  0  0  0
   -1.9666   -0.5501   -0.8571 H   0  0  0  0  0  0  0  0  0  0  0  0
   -0.7716    0.6659   -1.3405 H   0  0  0  0  0  0  0  0  0  0  0  0
   -2.2511    1.1793   -0.3740 H   0  0  0  0  0  0  0  0  0  0  0  0
   -1.3174   -0.0142    1.5994 H   0  0  0  0  0  0  0  0  0  0  0  0
    1.8615   -1.5907   -0.1615 H   0  0  0  0  0  0  0  0  0  0  0  0
    0.9153   -0.6107   -1.2974 H   0  0  0  0  0  0  0  0  0  0  0  0
  1  2  1  0
  2  3  1  0
  3  4  1  0
  4  5  1  0
  5  6  2  0
  5  7  1  0
  7  2  1  0
  1  8  1  0
  1  9  1  0
  1 10  1  0
  2 11  1  0
  4 12  1  0
  4 13  1  0
M  END
