
     RDKit          3D

 21 23  0  0  0  0  0  0  0  0999 V2000
    2.6618    0.2547   -0.4864 C   0  0  0  0  0  0  0  0  0  0  0  0
    1.1880    0.3821   -0.8905 C   0  0  0  0  0  0  0  0  0  0  0  0
    0.8020   -0.8235   -1.3991 O   0  0  0  0  0  0  0  0  0  0  0  0
   -0.1684   -1.3816   -0.6089 C   0  0  0  0  0  0  0  0  0  0  0  0
   -1.4816   -0.6066   -0.8032 C   0  0  0  0  0  0  0  0  0  0  0  0
   -1.0434    0.2832    0.3298 C   0  0  0  0  0  0  0  0  0  0  0  0
   -2.0548    0.8629    1.2537 C   0  0  0  0  0  0  0  0  0  0  0  0
    0.3940    0.6382    0.3814 C   0  0  0  0  0  0  0  0  0  0  0  0
   -0.0609   -0.7118    0.7255 C   0  0  0  0  0  0  0  0  0  0  0  0
    2.8892    0.9632    0.3176 H   0  0  0  0  0  0  0  0  0  0  0  0
    3.3277    0.3385   -1.3696 H   0  0  0  0  0  0  0  0  0  0  0  0
    2.8356   -0.7785   -0.0710 H   0  0  0  0  0  0  0  0  0  0  0  0
    1.0874    1.2367   -1.5748 H   0  0  0  0  0  0  0  0  0  0  0  0
   -0.2668   -2.4642   -0.6144 H   0  0  0  0  0  0  0  0  0  0  0  0
   -1.5493   -0.0493   -1.7369 H   0  0  0  0  0  0  0  0  0  0  0  0
   -2.3425   -1.2556   -0.5631 H   0  0  0  0  0  0  0  0  0  0  0  0
   -2.4690    1.7940    0.7784 H   0  0  0  0  0  0  0  0  0  0  0  0
   -2.9370    0.1607    1.2813 H   0  0  0  0  0  0  0  0  0  0  0  0
   -1.6867    1.1105    2.2464 H   0  0  0  0  0  0  0  0  0  0  0  0
    0.8341    1.2645    1.1480 H   0  0  0  0  0  0  0  0  0  0  0  0
    0.0405   -1.2182    1.6559 H   0  0  0  0  0  0  0  0  0  0  0  0
  1  2  1  0
  2  3  1  0
  3  4  1  0
  4  5  1  0
  5  6  1  0
  6  7  1  0
  6  8  1  0
  8  9  1  0
  8  2  1  0
  9  4  1  0
  9  6  1  0
  1 10  1  0
  1 11  1  0
  1 12  1  0
  2 13  1  0
  4 14  1  0
  5 15  1  0
  5 16  1  0
  7 17  1  0
  7 18  1  0
  7 19  1  0
  8 20  1  0
  9 21  1  0
M  END
