
     RDKit          3D

 23 24  0  0  0  0  0  0  0  0999 V2000
    2.7525    0.1458    0.0135 C   0  0  0  0  0  0  0  0  0  0  0  0
    1.4692   -0.2230   -0.6745 C   0  0  0  0  0  0  0  0  0  0  0  0
    0.9738   -1.4218   -0.0833 O   0  0  0  0  0  0  0  0  0  0  0  0
   -0.1950   -1.0026   -0.7112 C   0  0  0  0  0  0  0  0  0  0  0  0
   -1.1388   -0.0184   -0.3179 C   0  0  0  0  0  0  0  0  0  0  0  0
   -2.1638   -0.4702    0.7358 C   0  0  0  0  0  0  0  0  0  0  0  0
   -1.8218    0.8820   -1.3601 C   0  0  0  0  0  0  0  0  0  0  0  0
    0.2136    0.3413    0.0137 C   0  0  0  0  0  0  0  0  0  0  0  0
    0.4763    0.1897    1.5263 C   0  0  0  0  0  0  0  0  0  0  0  0
    3.5808   -0.1230   -0.6729 H   0  0  0  0  0  0  0  0  0  0  0  0
    2.7756    1.2351    0.2310 H   0  0  0  0  0  0  0  0  0  0  0  0
    2.9274   -0.4270    0.9528 H   0  0  0  0  0  0  0  0  0  0  0  0
    1.4650   -0.1934   -1.7584 H   0  0  0  0  0  0  0  0  0  0  0  0
    0.0141   -1.0084   -1.8274 H   0  0  0  0  0  0  0  0  0  0  0  0
   -2.9610   -1.0455    0.2482 H   0  0  0  0  0  0  0  0  0  0  0  0
   -1.6336   -1.1847    1.4193 H   0  0  0  0  0  0  0  0  0  0  0  0
   -2.5114    0.3683    1.3415 H   0  0  0  0  0  0  0  0  0  0  0  0
   -2.7172    0.3973   -1.7750 H   0  0  0  0  0  0  0  0  0  0  0  0
   -2.0829    1.8187   -0.7991 H   0  0  0  0  0  0  0  0  0  0  0  0
   -1.0913    1.1117   -2.1395 H   0  0  0  0  0  0  0  0  0  0  0  0
    0.9046   -0.7819    1.7677 H   0  0  0  0  0  0  0  0  0  0  0  0
    1.1834    1.0409    1.7534 H   0  0  0  0  0  0  0  0  0  0  0  0
   -0.4193    0.3691    2.1159 H   0  0  0  0  0  0  0  0  0  0  0  0
  1  2  1  0
  2  3  1  0
  3  4  1  0
  4  5  1  0
  5  6  1  0
  5  7  1  0
  5  8  1  0
  8  9  1  0
  8  2  1  0
  8  4  1  0
  1 10  1  0
  1 11  1  0
  1 12  1  0
  2 13  1  0
  4 14  1  0
  6 15  1  0
  6 16  1  0
  6 17  1  0
  7 18  1  0
  7 19  1  0
  7 20  1  0
  9 21  1  0
  9 22  1  0
  9 23  1  0
M  END
