
     RDKit          3D

 15 15  0  0  0  0  0  0  0  0999 V2000
   -2.1514   -0.4410    0.3442 C   0  0  0  0  0  0  0  0  0  0  0  0
   -0.7252   -0.3142   -0.1407 C   0  0  0  0  0  0  0  0  0  0  0  0
    0.1907   -0.7963    0.8324 O   0  0  0  0  0  0  0  0  0  0  0  0
    1.5421   -0.6477    0.5611 C   0  0  0  0  0  0  0  0  0  0  0  0
    2.3917   -1.4866    0.9857 O   0  0  0  0  0  0  0  0  0  0  0  0
    2.0440    0.5159   -0.2473 C   0  0  0  0  0  0  0  0  0  0  0  0
    0.9941    1.3629   -0.5944 O   0  0  0  0  0  0  0  0  0  0  0  0
   -0.3523    1.0546   -0.4864 C   0  0  0  0  0  0  0  0  0  0  0  0
   -1.1988    1.9319   -0.6819 O   0  0  0  0  0  0  0  0  0  0  0  0
   -2.8088   -0.1709   -0.5106 H   0  0  0  0  0  0  0  0  0  0  0  0
   -2.3386    0.1861    1.2327 H   0  0  0  0  0  0  0  0  0  0  0  0
   -2.3366   -1.5128    0.5628 H   0  0  0  0  0  0  0  0  0  0  0  0
   -0.6550   -0.9277   -1.0843 H   0  0  0  0  0  0  0  0  0  0  0  0
    2.7917    1.1108    0.3508 H   0  0  0  0  0  0  0  0  0  0  0  0
    2.6124    0.1351   -1.1241 H   0  0  0  0  0  0  0  0  0  0  0  0
  1  2  1  0
  2  3  1  0
  3  4  1  0
  4  5  2  0
  4  6  1  0
  6  7  1  0
  7  8  1  0
  8  9  2  0
  8  2  1  0
  1 10  1  0
  1 11  1  0
  1 12  1  0
  2 13  1  0
  6 14  1  0
  6 15  1  0
M  END
