
     RDKit          3D

 17 18  0  0  0  0  0  0  0  0999 V2000
    2.1298   -0.3158   -0.4953 C   0  0  0  0  0  0  0  0  0  0  0  0
    0.7357   -0.4487    0.0295 C   0  0  0  0  0  0  0  0  0  0  0  0
   -0.0289   -1.3870   -0.6176 O   0  0  0  0  0  0  0  0  0  0  0  0
   -1.3123   -1.1241   -0.0833 C   0  0  0  0  0  0  0  0  0  0  0  0
   -1.4843    0.3716   -0.1393 C   0  0  0  0  0  0  0  0  0  0  0  0
   -0.9097    1.2569    0.9015 C   0  0  0  0  0  0  0  0  0  0  0  0
   -0.0176    0.8325   -0.1953 C   0  0  0  0  0  0  0  0  0  0  0  0
    2.6898    0.3338    0.2406 H   0  0  0  0  0  0  0  0  0  0  0  0
    2.2005    0.2146   -1.4605 H   0  0  0  0  0  0  0  0  0  0  0  0
    2.6167   -1.2980   -0.4857 H   0  0  0  0  0  0  0  0  0  0  0  0
    0.7972   -0.7421    1.0985 H   0  0  0  0  0  0  0  0  0  0  0  0
   -2.0946   -1.5955   -0.7185 H   0  0  0  0  0  0  0  0  0  0  0  0
   -1.3947   -1.5248    0.9578 H   0  0  0  0  0  0  0  0  0  0  0  0
   -2.1700    0.7832   -0.8892 H   0  0  0  0  0  0  0  0  0  0  0  0
   -0.6882    0.8675    1.9305 H   0  0  0  0  0  0  0  0  0  0  0  0
   -1.3542    2.2790    0.9407 H   0  0  0  0  0  0  0  0  0  0  0  0
    0.2848    1.4969   -1.0145 H   0  0  0  0  0  0  0  0  0  0  0  0
  1  2  1  0
  2  3  1  0
  3  4  1  0
  4  5  1  0
  5  6  1  0
  6  7  1  0
  7  2  1  0
  7  5  1  0
  1  8  1  0
  1  9  1  0
  1 10  1  0
  2 11  1  0
  4 12  1  0
  4 13  1  0
  5 14  1  0
  6 15  1  0
  6 16  1  0
  7 17  1  0
M  END
