
     RDKit          3D

 19 20  0  0  0  0  0  0  0  0999 V2000
    2.3069    0.0781    0.5432 C   0  0  0  0  0  0  0  0  0  0  0  0
    0.9687    0.3660   -0.0660 C   0  0  0  0  0  0  0  0  0  0  0  0
    0.0393    0.8687    0.8092 O   0  0  0  0  0  0  0  0  0  0  0  0
   -1.2263    0.6495    0.2166 C   0  0  0  0  0  0  0  0  0  0  0  0
   -1.6041   -0.7861    0.5501 C   0  0  0  0  0  0  0  0  0  0  0  0
   -0.4589   -1.5509    0.2827 O   0  0  0  0  0  0  0  0  0  0  0  0
    0.3607   -0.9029   -0.6713 C   0  0  0  0  0  0  0  0  0  0  0  0
   -0.4125   -0.4723   -1.7524 O   0  0  0  0  0  0  0  0  0  0  0  0
   -1.0953    0.6706   -1.3128 C   0  0  0  0  0  0  0  0  0  0  0  0
    2.3404   -0.7897    1.1989 H   0  0  0  0  0  0  0  0  0  0  0  0
    2.6929    1.0128    0.9772 H   0  0  0  0  0  0  0  0  0  0  0  0
    3.0005   -0.1562   -0.3183 H   0  0  0  0  0  0  0  0  0  0  0  0
    1.1321    1.1440   -0.8558 H   0  0  0  0  0  0  0  0  0  0  0  0
   -1.9703    1.3783    0.5362 H   0  0  0  0  0  0  0  0  0  0  0  0
   -2.3786   -1.1406   -0.1856 H   0  0  0  0  0  0  0  0  0  0  0  0
   -1.9887   -0.9108    1.5562 H   0  0  0  0  0  0  0  0  0  0  0  0
    1.1134   -1.6066   -1.0185 H   0  0  0  0  0  0  0  0  0  0  0  0
   -0.6754    1.6008   -1.6835 H   0  0  0  0  0  0  0  0  0  0  0  0
   -2.1448    0.5470   -1.6850 H   0  0  0  0  0  0  0  0  0  0  0  0
  1  2  1  0
  2  3  1  0
  3  4  1  0
  4  5  1  0
  5  6  1  0
  6  7  1  0
  7  8  1  0
  8  9  1  0
  7  2  1  0
  9  4  1  0
  1 10  1  0
  1 11  1  0
  1 12  1  0
  2 13  1  0
  4 14  1  0
  5 15  1  0
  5 16  1  0
  7 17  1  0
  9 18  1  0
  9 19  1  0
M  END
