
     RDKit          3D

 20 20  0  0  0  0  0  0  0  0999 V2000
    2.7739   -0.3530   -0.8538 C   0  0  0  0  0  0  0  0  0  0  0  0
    1.2698   -0.4857   -0.8071 C   0  0  0  0  0  0  0  0  0  0  0  0
    0.6287    0.5229   -1.6017 O   0  0  0  0  0  0  0  0  0  0  0  0
    0.4489    0.6322   -0.2381 C   0  0  0  0  0  0  0  0  0  0  0  0
   -0.9014    0.2326    0.2901 C   0  0  0  0  0  0  0  0  0  0  0  0
   -2.0231    1.0476   -0.2618 C   0  0  0  0  0  0  0  0  0  0  0  0
   -1.1453   -1.2445    0.0815 C   0  0  0  0  0  0  0  0  0  0  0  0
   -0.8535    0.4250    1.6907 O   0  0  0  0  0  0  0  0  0  0  0  0
    3.1606   -0.3027   -1.9061 H   0  0  0  0  0  0  0  0  0  0  0  0
    3.2184   -1.2548   -0.4074 H   0  0  0  0  0  0  0  0  0  0  0  0
    3.1160    0.5393   -0.2874 H   0  0  0  0  0  0  0  0  0  0  0  0
    0.8778   -1.4997   -0.8868 H   0  0  0  0  0  0  0  0  0  0  0  0
    1.0216    1.3947    0.3305 H   0  0  0  0  0  0  0  0  0  0  0  0
   -1.7866    1.5685   -1.2004 H   0  0  0  0  0  0  0  0  0  0  0  0
   -2.9180    0.3801   -0.3873 H   0  0  0  0  0  0  0  0  0  0  0  0
   -2.3671    1.8201    0.4888 H   0  0  0  0  0  0  0  0  0  0  0  0
   -2.1923   -1.4271    0.4630 H   0  0  0  0  0  0  0  0  0  0  0  0
   -1.1594   -1.5387   -0.9796 H   0  0  0  0  0  0  0  0  0  0  0  0
   -0.4265   -1.8637    0.6388 H   0  0  0  0  0  0  0  0  0  0  0  0
   -0.7427    1.4068    1.8042 H   0  0  0  0  0  0  0  0  0  0  0  0
  1  2  1  0
  2  3  1  0
  3  4  1  0
  4  5  1  0
  5  6  1  0
  5  7  1  0
  5  8  1  0
  4  2  1  0
  1  9  1  0
  1 10  1  0
  1 11  1  0
  2 12  1  0
  4 13  1  0
  6 14  1  0
  6 15  1  0
  6 16  1  0
  7 17  1  0
  7 18  1  0
  7 19  1  0
  8 20  1  0
M  END
