
     RDKit          3D

 21 22  0  0  0  0  0  0  0  0999 V2000
    2.2302   -1.1939   -0.5141 C   0  0  0  0  0  0  0  0  0  0  0  0
    1.7219   -0.1548    0.4603 C   0  0  0  0  0  0  0  0  0  0  0  0
    1.4213    1.0663   -0.1795 O   0  0  0  0  0  0  0  0  0  0  0  0
    0.0585    0.9098   -0.1318 C   0  0  0  0  0  0  0  0  0  0  0  0
   -0.7832    2.0931    0.2197 C   0  0  0  0  0  0  0  0  0  0  0  0
    0.2202   -0.2583    0.7410 C   0  0  0  0  0  0  0  0  0  0  0  0
   -0.6254   -0.3482   -0.4563 C   0  0  0  0  0  0  0  0  0  0  0  0
   -2.1178   -0.3775   -0.2134 C   0  0  0  0  0  0  0  0  0  0  0  0
   -0.2376   -1.1324   -1.5535 O   0  0  0  0  0  0  0  0  0  0  0  0
    1.6268   -2.1098   -0.5336 H   0  0  0  0  0  0  0  0  0  0  0  0
    2.3171   -0.7271   -1.5332 H   0  0  0  0  0  0  0  0  0  0  0  0
    3.2874   -1.5059   -0.2711 H   0  0  0  0  0  0  0  0  0  0  0  0
    2.2714   -0.0712    1.3961 H   0  0  0  0  0  0  0  0  0  0  0  0
   -1.6780    2.0982   -0.4635 H   0  0  0  0  0  0  0  0  0  0  0  0
   -1.1543    2.1174    1.2415 H   0  0  0  0  0  0  0  0  0  0  0  0
   -0.2230    3.0229   -0.0488 H   0  0  0  0  0  0  0  0  0  0  0  0
   -0.1426   -0.2180    1.7625 H   0  0  0  0  0  0  0  0  0  0  0  0
   -2.6051   -0.1167   -1.1757 H   0  0  0  0  0  0  0  0  0  0  0  0
   -2.4173   -1.4197    0.1016 H   0  0  0  0  0  0  0  0  0  0  0  0
   -2.3859    0.3027    0.6143 H   0  0  0  0  0  0  0  0  0  0  0  0
   -0.7847   -1.9768   -1.4629 H   0  0  0  0  0  0  0  0  0  0  0  0
  1  2  1  0
  2  3  1  0
  3  4  1  0
  4  5  1  0
  4  6  1  0
  6  7  1  0
  7  8  1  0
  7  9  1  0
  6  2  1  0
  7  4  1  0
  1 10  1  0
  1 11  1  0
  1 12  1  0
  2 13  1  0
  5 14  1  0
  5 15  1  0
  5 16  1  0
  6 17  1  0
  8 18  1  0
  8 19  1  0
  8 20  1  0
  9 21  1  0
M  END
