
     RDKit          3D

 21 22  0  0  0  0  0  0  0  0999 V2000
    2.4830   -0.4939    0.3629 C   0  0  0  0  0  0  0  0  0  0  0  0
    1.3821    0.3450   -0.1721 C   0  0  0  0  0  0  0  0  0  0  0  0
    0.9237    1.2925    0.7817 O   0  0  0  0  0  0  0  0  0  0  0  0
   -0.4179    1.0275    0.8768 C   0  0  0  0  0  0  0  0  0  0  0  0
   -0.4259   -0.4987    1.0137 C   0  0  0  0  0  0  0  0  0  0  0  0
    0.1019   -0.3954   -0.4260 C   0  0  0  0  0  0  0  0  0  0  0  0
    0.0283   -1.4338   -1.2209 O   0  0  0  0  0  0  0  0  0  0  0  0
   -0.8596    0.7718   -0.5682 C   0  0  0  0  0  0  0  0  0  0  0  0
   -2.2873    0.4204   -0.7490 C   0  0  0  0  0  0  0  0  0  0  0  0
    2.2145   -1.5693    0.4153 H   0  0  0  0  0  0  0  0  0  0  0  0
    2.8867   -0.1573    1.3413 H   0  0  0  0  0  0  0  0  0  0  0  0
    3.3520   -0.4168   -0.3532 H   0  0  0  0  0  0  0  0  0  0  0  0
    1.6272    0.9213   -1.0796 H   0  0  0  0  0  0  0  0  0  0  0  0
   -1.0586    1.5869    1.5016 H   0  0  0  0  0  0  0  0  0  0  0  0
    0.3284   -0.7874    1.7508 H   0  0  0  0  0  0  0  0  0  0  0  0
   -1.4043   -0.9544    1.1158 H   0  0  0  0  0  0  0  0  0  0  0  0
   -0.3231   -2.2739   -0.7930 H   0  0  0  0  0  0  0  0  0  0  0  0
   -0.4607    1.5161   -1.2534 H   0  0  0  0  0  0  0  0  0  0  0  0
   -2.4435   -0.3629   -1.5346 H   0  0  0  0  0  0  0  0  0  0  0  0
   -2.8131    1.3289   -1.1592 H   0  0  0  0  0  0  0  0  0  0  0  0
   -2.8337    0.1336    0.1492 H   0  0  0  0  0  0  0  0  0  0  0  0
  1  2  1  0
  2  3  1  0
  3  4  1  0
  4  5  1  0
  5  6  1  0
  6  7  1  0
  6  8  1  0
  8  9  1  0
  6  2  1  0
  8  4  1  0
  1 10  1  0
  1 11  1  0
  1 12  1  0
  2 13  1  0
  4 14  1  0
  5 15  1  0
  5 16  1  0
  7 17  1  0
  8 18  1  0
  9 19  1  0
  9 20  1  0
  9 21  1  0
M  END
