
     RDKit          3D

 21 23  0  0  0  0  0  0  0  0999 V2000
   -3.2087   -0.3714    0.3166 C   0  0  0  0  0  0  0  0  0  0  0  0
   -1.7879   -0.0713    0.7361 C   0  0  0  0  0  0  0  0  0  0  0  0
   -1.4978    1.1837    1.2645 O   0  0  0  0  0  0  0  0  0  0  0  0
   -1.0865    1.0077   -0.0529 C   0  0  0  0  0  0  0  0  0  0  0  0
    0.3249    0.7705   -0.4132 C   0  0  0  0  0  0  0  0  0  0  0  0
    1.3759    0.5385    0.6096 C   0  0  0  0  0  0  0  0  0  0  0  0
    2.7464    0.1503    0.1972 C   0  0  0  0  0  0  0  0  0  0  0  0
    2.2606   -0.7576   -0.9056 C   0  0  0  0  0  0  0  0  0  0  0  0
    0.8525   -0.5882   -0.3421 C   0  0  0  0  0  0  0  0  0  0  0  0
   -3.9553   -0.0231    1.0498 H   0  0  0  0  0  0  0  0  0  0  0  0
   -3.4538    0.1397   -0.6494 H   0  0  0  0  0  0  0  0  0  0  0  0
   -3.2845   -1.4524    0.1233 H   0  0  0  0  0  0  0  0  0  0  0  0
   -1.2422   -0.9014    1.2026 H   0  0  0  0  0  0  0  0  0  0  0  0
   -1.7062    1.5329   -0.8202 H   0  0  0  0  0  0  0  0  0  0  0  0
    0.6971    1.3768   -1.2942 H   0  0  0  0  0  0  0  0  0  0  0  0
    1.0309    0.4965    1.6494 H   0  0  0  0  0  0  0  0  0  0  0  0
    3.2326   -0.4851    0.9959 H   0  0  0  0  0  0  0  0  0  0  0  0
    3.4219    0.9667   -0.1545 H   0  0  0  0  0  0  0  0  0  0  0  0
    2.2680   -0.2838   -1.9282 H   0  0  0  0  0  0  0  0  0  0  0  0
    2.6132   -1.7953   -0.8688 H   0  0  0  0  0  0  0  0  0  0  0  0
    0.3989   -1.4336    0.1870 H   0  0  0  0  0  0  0  0  0  0  0  0
  1  2  1  0
  2  3  1  0
  3  4  1  0
  4  5  1  0
  5  6  1  0
  6  7  1  0
  7  8  1  0
  8  9  1  0
  4  2  1  0
  9  5  1  0
  9  6  1  0
  1 10  1  0
  1 11  1  0
  1 12  1  0
  2 13  1  0
  4 14  1  0
  5 15  1  0
  6 16  1  0
  7 17  1  0
  7 18  1  0
  8 19  1  0
  8 20  1  0
  9 21  1  0
M  END
