
     RDKit          3D

 23 24  0  0  0  0  0  0  0  0999 V2000
    1.9644   -0.6017   -0.9653 C   0  0  0  0  0  0  0  0  0  0  0  0
    1.3021    0.4987   -0.1799 C   0  0  0  0  0  0  0  0  0  0  0  0
    2.1059    0.7902    0.9495 O   0  0  0  0  0  0  0  0  0  0  0  0
    1.1668    0.2524    1.8517 C   0  0  0  0  0  0  0  0  0  0  0  0
    0.2122    0.1617    0.7238 C   0  0  0  0  0  0  0  0  0  0  0  0
   -0.8830   -0.7314    0.5749 C   0  0  0  0  0  0  0  0  0  0  0  0
   -1.2949   -1.4178   -0.7033 C   0  0  0  0  0  0  0  0  0  0  0  0
   -1.1010    0.7867    0.6769 C   0  0  0  0  0  0  0  0  0  0  0  0
   -1.5302    1.4131   -0.6539 C   0  0  0  0  0  0  0  0  0  0  0  0
    2.0466   -1.5355   -0.3931 H   0  0  0  0  0  0  0  0  0  0  0  0
    1.5239   -0.7103   -1.9665 H   0  0  0  0  0  0  0  0  0  0  0  0
    3.0263   -0.2574   -1.1434 H   0  0  0  0  0  0  0  0  0  0  0  0
    1.2018    1.4130   -0.7869 H   0  0  0  0  0  0  0  0  0  0  0  0
    0.9202    0.9251    2.6855 H   0  0  0  0  0  0  0  0  0  0  0  0
    1.5782   -0.7302    2.2057 H   0  0  0  0  0  0  0  0  0  0  0  0
   -1.2461   -1.2900    1.4873 H   0  0  0  0  0  0  0  0  0  0  0  0
   -0.8306   -0.9834   -1.5905 H   0  0  0  0  0  0  0  0  0  0  0  0
   -2.4035   -1.2357   -0.8144 H   0  0  0  0  0  0  0  0  0  0  0  0
   -1.1505   -2.4893   -0.5694 H   0  0  0  0  0  0  0  0  0  0  0  0
   -1.6137    1.1705    1.5736 H   0  0  0  0  0  0  0  0  0  0  0  0
   -1.6931    2.4825   -0.5664 H   0  0  0  0  0  0  0  0  0  0  0  0
   -0.7977    1.1321   -1.4281 H   0  0  0  0  0  0  0  0  0  0  0  0
   -2.5042    0.9569   -0.9679 H   0  0  0  0  0  0  0  0  0  0  0  0
  1  2  1  0
  2  3  1  0
  3  4  1  0
  4  5  1  0
  5  6  1  0
  6  7  1  0
  6  8  1  0
  8  9  1  0
  5  2  1  0
  8  5  1  0
  1 10  1  0
  1 11  1  0
  1 12  1  0
  2 13  1  0
  4 14  1  0
  4 15  1  0
  6 16  1  0
  7 17  1  0
  7 18  1  0
  7 19  1  0
  8 20  1  0
  9 21  1  0
  9 22  1  0
  9 23  1  0
M  END
