
     RDKit          3D

 21 21  0  0  0  0  0  0  0  0999 V2000
   -1.6076    1.7584    0.3893 C   0  0  0  0  0  0  0  0  0  0  0  0
   -1.4221    0.4726   -0.3848 C   0  0  0  0  0  0  0  0  0  0  0  0
   -2.3263   -0.4950   -0.0240 O   0  0  0  0  0  0  0  0  0  0  0  0
   -1.6767   -1.7111   -0.2126 C   0  0  0  0  0  0  0  0  0  0  0  0
   -0.2226   -1.4171   -0.0879 C   0  0  0  0  0  0  0  0  0  0  0  0
   -0.0795   -0.1122   -0.1917 C   0  0  0  0  0  0  0  0  0  0  0  0
    1.1511    0.6763   -0.1351 C   0  0  0  0  0  0  0  0  0  0  0  0
    2.3969   -0.1456    0.0696 C   0  0  0  0  0  0  0  0  0  0  0  0
    2.5840   -1.0688   -0.9585 O   0  0  0  0  0  0  0  0  0  0  0  0
   -0.7925    1.9633    1.0984 H   0  0  0  0  0  0  0  0  0  0  0  0
   -1.7683    2.5675   -0.3490 H   0  0  0  0  0  0  0  0  0  0  0  0
   -2.5875    1.6509    0.9353 H   0  0  0  0  0  0  0  0  0  0  0  0
   -1.5235    0.6458   -1.4959 H   0  0  0  0  0  0  0  0  0  0  0  0
   -1.9530   -2.4043    0.6049 H   0  0  0  0  0  0  0  0  0  0  0  0
   -1.9617   -2.0924   -1.2021 H   0  0  0  0  0  0  0  0  0  0  0  0
    0.5341   -2.1913    0.0614 H   0  0  0  0  0  0  0  0  0  0  0  0
    1.1347    1.4353    0.6875 H   0  0  0  0  0  0  0  0  0  0  0  0
    1.2709    1.2043   -1.1063 H   0  0  0  0  0  0  0  0  0  0  0  0
    2.4630   -0.5988    1.0689 H   0  0  0  0  0  0  0  0  0  0  0  0
    3.2547    0.5748   -0.0103 H   0  0  0  0  0  0  0  0  0  0  0  0
    3.1321   -0.7126   -1.6856 H   0  0  0  0  0  0  0  0  0  0  0  0
  1  2  1  0
  2  3  1  0
  3  4  1  0
  4  5  1  0
  5  6  2  0
  6  7  1  0
  7  8  1  0
  8  9  1  0
  6  2  1  0
  1 10  1  0
  1 11  1  0
  1 12  1  0
  2 13  1  0
  4 14  1  0
  4 15  1  0
  5 16  1  0
  7 17  1  0
  7 18  1  0
  8 19  1  0
  8 20  1  0
  9 21  1  0
M  END
