
     RDKit          3D

 23 23  0  0  0  0  0  0  0  0999 V2000
    2.5870    0.1538   -0.3700 C   0  0  0  0  0  0  0  0  0  0  0  0
    1.1874    0.5393   -0.3445 C   0  0  0  0  0  0  0  0  0  0  0  0
    0.7758    1.2397    0.8037 O   0  0  0  0  0  0  0  0  0  0  0  0
   -0.5477    1.5171    0.4644 C   0  0  0  0  0  0  0  0  0  0  0  0
   -1.0949    0.2354   -0.1622 C   0  0  0  0  0  0  0  0  0  0  0  0
   -2.0401   -0.4043    0.7912 C   0  0  0  0  0  0  0  0  0  0  0  0
   -1.8067    0.5349   -1.3322 O   0  0  0  0  0  0  0  0  0  0  0  0
    0.1536   -0.5239   -0.4531 C   0  0  0  0  0  0  0  0  0  0  0  0
    0.3685   -1.7231    0.4035 C   0  0  0  0  0  0  0  0  0  0  0  0
    2.9741    0.2197   -1.4309 H   0  0  0  0  0  0  0  0  0  0  0  0
    2.8800   -0.8135    0.0111 H   0  0  0  0  0  0  0  0  0  0  0  0
    3.2112    0.9187    0.1800 H   0  0  0  0  0  0  0  0  0  0  0  0
    0.9867    1.2662   -1.1856 H   0  0  0  0  0  0  0  0  0  0  0  0
   -0.5215    2.2827   -0.3448 H   0  0  0  0  0  0  0  0  0  0  0  0
   -1.1560    1.8363    1.3250 H   0  0  0  0  0  0  0  0  0  0  0  0
   -1.5899   -0.7842    1.7178 H   0  0  0  0  0  0  0  0  0  0  0  0
   -2.7738    0.3799    1.1101 H   0  0  0  0  0  0  0  0  0  0  0  0
   -2.6704   -1.1832    0.2824 H   0  0  0  0  0  0  0  0  0  0  0  0
   -2.3216    1.3475   -1.1450 H   0  0  0  0  0  0  0  0  0  0  0  0
    0.1245   -0.8660   -1.5135 H   0  0  0  0  0  0  0  0  0  0  0  0
    0.2965   -1.5252    1.4867 H   0  0  0  0  0  0  0  0  0  0  0  0
    1.3548   -2.1521    0.2148 H   0  0  0  0  0  0  0  0  0  0  0  0
   -0.3772   -2.4955    0.0891 H   0  0  0  0  0  0  0  0  0  0  0  0
  1  2  1  0
  2  3  1  0
  3  4  1  0
  4  5  1  0
  5  6  1  0
  5  7  1  0
  5  8  1  0
  8  9  1  0
  8  2  1  0
  1 10  1  0
  1 11  1  0
  1 12  1  0
  2 13  1  0
  4 14  1  0
  4 15  1  0
  6 16  1  0
  6 17  1  0
  6 18  1  0
  7 19  1  0
  8 20  1  0
  9 21  1  0
  9 22  1  0
  9 23  1  0
M  END
