
     RDKit          3D

 21 22  0  0  0  0  0  0  0  0999 V2000
    2.5773   -0.4667   -0.5293 C   0  0  0  0  0  0  0  0  0  0  0  0
    1.9147    0.6225    0.2597 C   0  0  0  0  0  0  0  0  0  0  0  0
    1.4922    1.6932   -0.6832 O   0  0  0  0  0  0  0  0  0  0  0  0
    0.5435    0.9739    0.2407 C   0  0  0  0  0  0  0  0  0  0  0  0
   -0.5725    0.3335   -0.4742 C   0  0  0  0  0  0  0  0  0  0  0  0
   -0.8562   -1.0924   -0.1502 C   0  0  0  0  0  0  0  0  0  0  0  0
   -1.8499   -0.9668    0.9963 C   0  0  0  0  0  0  0  0  0  0  0  0
   -2.1937    0.3584    1.0906 O   0  0  0  0  0  0  0  0  0  0  0  0
   -1.8964    0.9762   -0.1083 C   0  0  0  0  0  0  0  0  0  0  0  0
    2.2303   -0.5231   -1.5853 H   0  0  0  0  0  0  0  0  0  0  0  0
    2.4543   -1.4655   -0.0316 H   0  0  0  0  0  0  0  0  0  0  0  0
    3.6767   -0.3103   -0.5839 H   0  0  0  0  0  0  0  0  0  0  0  0
    2.5606    1.0087    1.0766 H   0  0  0  0  0  0  0  0  0  0  0  0
    0.2180    1.7787    0.9544 H   0  0  0  0  0  0  0  0  0  0  0  0
   -0.4511    0.4141   -1.5912 H   0  0  0  0  0  0  0  0  0  0  0  0
   -1.4283   -1.5249   -0.9981 H   0  0  0  0  0  0  0  0  0  0  0  0
   -0.0015   -1.7096    0.0892 H   0  0  0  0  0  0  0  0  0  0  0  0
   -1.2877   -1.3068    1.9096 H   0  0  0  0  0  0  0  0  0  0  0  0
   -2.7124   -1.6329    0.8896 H   0  0  0  0  0  0  0  0  0  0  0  0
   -2.6753    0.7870   -0.8687 H   0  0  0  0  0  0  0  0  0  0  0  0
   -1.7424    2.0530    0.0973 H   0  0  0  0  0  0  0  0  0  0  0  0
  1  2  1  0
  2  3  1  0
  3  4  1  0
  4  5  1  0
  5  6  1  0
  6  7  1  0
  7  8  1  0
  8  9  1  0
  4  2  1  0
  9  5  1  0
  1 10  1  0
  1 11  1  0
  1 12  1  0
  2 13  1  0
  4 14  1  0
  5 15  1  0
  6 16  1  0
  6 17  1  0
  7 18  1  0
  7 19  1  0
  9 20  1  0
  9 21  1  0
M  END
