
     RDKit          3D

 19 20  0  0  0  0  0  0  0  0999 V2000
    2.6524    0.4578    0.3306 C   0  0  0  0  0  0  0  0  0  0  0  0
    1.5658   -0.5934    0.4521 C   0  0  0  0  0  0  0  0  0  0  0  0
    0.9561   -1.0238   -0.7460 O   0  0  0  0  0  0  0  0  0  0  0  0
    0.2192   -0.3196    0.2037 C   0  0  0  0  0  0  0  0  0  0  0  0
   -0.4083    0.9525   -0.2425 C   0  0  0  0  0  0  0  0  0  0  0  0
   -1.7968    0.5160   -0.6728 C   0  0  0  0  0  0  0  0  0  0  0  0
   -2.1226   -0.7031    0.1929 C   0  0  0  0  0  0  0  0  0  0  0  0
   -0.8732   -1.0065    0.9248 C   0  0  0  0  0  0  0  0  0  0  0  0
   -0.7402   -1.6793    1.9184 O   0  0  0  0  0  0  0  0  0  0  0  0
    3.5707    0.1861    0.8870 H   0  0  0  0  0  0  0  0  0  0  0  0
    2.9118    0.6707   -0.7298 H   0  0  0  0  0  0  0  0  0  0  0  0
    2.2386    1.4011    0.7432 H   0  0  0  0  0  0  0  0  0  0  0  0
    1.8549   -1.4368    1.1136 H   0  0  0  0  0  0  0  0  0  0  0  0
    0.1415    1.4677   -1.0506 H   0  0  0  0  0  0  0  0  0  0  0  0
   -0.5720    1.6430    0.6324 H   0  0  0  0  0  0  0  0  0  0  0  0
   -1.7376    0.2385   -1.7496 H   0  0  0  0  0  0  0  0  0  0  0  0
   -2.5527    1.3084   -0.4984 H   0  0  0  0  0  0  0  0  0  0  0  0
   -2.9845   -0.5048    0.8581 H   0  0  0  0  0  0  0  0  0  0  0  0
   -2.3233   -1.5746   -0.4973 H   0  0  0  0  0  0  0  0  0  0  0  0
  1  2  1  0
  2  3  1  0
  3  4  1  0
  4  5  1  0
  5  6  1  0
  6  7  1  0
  7  8  1  0
  8  9  2  0
  4  2  1  0
  8  4  1  0
  1 10  1  0
  1 11  1  0
  1 12  1  0
  2 13  1  0
  5 14  1  0
  5 15  1  0
  6 16  1  0
  6 17  1  0
  7 18  1  0
  7 19  1  0
M  END
