
     RDKit          3D

 19 21  0  0  0  0  0  0  0  0999 V2000
    2.5500    0.4257    0.0080 C   0  0  0  0  0  0  0  0  0  0  0  0
    1.4036   -0.5789   -0.0424 C   0  0  0  0  0  0  0  0  0  0  0  0
    0.9076   -0.7686   -1.4334 O   0  0  0  0  0  0  0  0  0  0  0  0
    0.1109   -0.3450   -0.4035 C   0  0  0  0  0  0  0  0  0  0  0  0
   -1.0455   -1.1783    0.0845 C   0  0  0  0  0  0  0  0  0  0  0  0
   -1.0441   -1.3063    1.4795 O   0  0  0  0  0  0  0  0  0  0  0  0
   -1.9586   -0.0672   -0.3818 C   0  0  0  0  0  0  0  0  0  0  0  0
   -1.8276    1.2531    0.2958 C   0  0  0  0  0  0  0  0  0  0  0  0
   -0.7081    0.8564   -0.5840 C   0  0  0  0  0  0  0  0  0  0  0  0
    2.2074    1.4636   -0.0253 H   0  0  0  0  0  0  0  0  0  0  0  0
    3.2940    0.2055   -0.7918 H   0  0  0  0  0  0  0  0  0  0  0  0
    3.0663    0.2620    0.9737 H   0  0  0  0  0  0  0  0  0  0  0  0
    1.7365   -1.5819    0.3016 H   0  0  0  0  0  0  0  0  0  0  0  0
   -1.1185   -2.1101   -0.4758 H   0  0  0  0  0  0  0  0  0  0  0  0
   -0.1689   -1.0441    1.8372 H   0  0  0  0  0  0  0  0  0  0  0  0
   -2.5851   -0.1843   -1.2633 H   0  0  0  0  0  0  0  0  0  0  0  0
   -2.5200    2.0274   -0.0758 H   0  0  0  0  0  0  0  0  0  0  0  0
   -1.6375    1.3103    1.3835 H   0  0  0  0  0  0  0  0  0  0  0  0
   -0.6627    1.3608   -1.5889 H   0  0  0  0  0  0  0  0  0  0  0  0
  1  2  1  0
  2  3  1  0
  3  4  1  0
  4  5  1  0
  5  6  1  0
  5  7  1  0
  7  8  1  0
  8  9  1  0
  4  2  1  0
  9  7  1  0
  9  4  1  0
  1 10  1  0
  1 11  1  0
  1 12  1  0
  2 13  1  0
  5 14  1  0
  6 15  1  0
  7 16  1  0
  8 17  1  0
  8 18  1  0
  9 19  1  0
M  END
