
     RDKit          3D

 17 18  0  0  0  0  0  0  0  0999 V2000
    2.5601    0.0643   -0.1946 C   0  0  0  0  0  0  0  0  0  0  0  0
    1.1695    0.5621    0.0494 C   0  0  0  0  0  0  0  0  0  0  0  0
    0.8291    1.7761    0.4000 O   0  0  0  0  0  0  0  0  0  0  0  0
   -0.4716    1.8609    0.5269 C   0  0  0  0  0  0  0  0  0  0  0  0
   -1.0483    0.6174    0.2419 C   0  0  0  0  0  0  0  0  0  0  0  0
    0.0366   -0.1771   -0.0567 C   0  0  0  0  0  0  0  0  0  0  0  0
   -0.5289   -1.5167   -0.3695 C   0  0  0  0  0  0  0  0  0  0  0  0
   -1.8806   -1.2537   -0.6653 O   0  0  0  0  0  0  0  0  0  0  0  0
   -2.2609   -0.2017    0.1220 C   0  0  0  0  0  0  0  0  0  0  0  0
    2.6616   -0.3973   -1.1927 H   0  0  0  0  0  0  0  0  0  0  0  0
    2.8946   -0.6313    0.5851 H   0  0  0  0  0  0  0  0  0  0  0  0
    3.2515    0.9337   -0.1815 H   0  0  0  0  0  0  0  0  0  0  0  0
   -1.0822    2.7150    0.8033 H   0  0  0  0  0  0  0  0  0  0  0  0
   -0.4074   -2.2432    0.4389 H   0  0  0  0  0  0  0  0  0  0  0  0
   -0.1095   -1.9389   -1.3162 H   0  0  0  0  0  0  0  0  0  0  0  0
   -2.5537   -0.5924    1.1315 H   0  0  0  0  0  0  0  0  0  0  0  0
   -3.0599    0.4225   -0.3224 H   0  0  0  0  0  0  0  0  0  0  0  0
  1  2  1  0
  2  3  1  0
  3  4  1  0
  4  5  2  0
  5  6  1  0
  6  7  1  0
  7  8  1  0
  8  9  1  0
  6  2  2  0
  9  5  1  0
  1 10  1  0
  1 11  1  0
  1 12  1  0
  4 13  1  0
  7 14  1  0
  7 15  1  0
  9 16  1  0
  9 17  1  0
M  END
