
     RDKit          3D

 21 22  0  0  0  0  0  0  0  0999 V2000
   -2.5608   -0.1457    0.4115 C   0  0  0  0  0  0  0  0  0  0  0  0
   -1.3088    0.3168   -0.2063 C   0  0  0  0  0  0  0  0  0  0  0  0
   -0.3545    0.7945    0.6932 O   0  0  0  0  0  0  0  0  0  0  0  0
    0.8787    0.3056    0.2978 C   0  0  0  0  0  0  0  0  0  0  0  0
    2.0557    1.0566    0.6986 C   0  0  0  0  0  0  0  0  0  0  0  0
    0.8854   -1.1776    0.6199 C   0  0  0  0  0  0  0  0  0  0  0  0
   -0.0528   -1.7176   -0.2335 O   0  0  0  0  0  0  0  0  0  0  0  0
   -0.5709   -0.6967   -1.0224 C   0  0  0  0  0  0  0  0  0  0  0  0
    0.7068    0.1508   -1.2271 C   0  0  0  0  0  0  0  0  0  0  0  0
   -2.6040   -1.2426    0.5936 H   0  0  0  0  0  0  0  0  0  0  0  0
   -2.6997    0.3677    1.3965 H   0  0  0  0  0  0  0  0  0  0  0  0
   -3.4323    0.1971   -0.2141 H   0  0  0  0  0  0  0  0  0  0  0  0
   -1.5241    1.1873   -0.8929 H   0  0  0  0  0  0  0  0  0  0  0  0
    2.6168    0.6796    1.5807 H   0  0  0  0  0  0  0  0  0  0  0  0
    1.7678    2.1107    0.9718 H   0  0  0  0  0  0  0  0  0  0  0  0
    2.7682    1.1775   -0.1601 H   0  0  0  0  0  0  0  0  0  0  0  0
    1.8704   -1.6375    0.3527 H   0  0  0  0  0  0  0  0  0  0  0  0
    0.5929   -1.3873    1.6556 H   0  0  0  0  0  0  0  0  0  0  0  0
   -1.0196   -1.0047   -1.9428 H   0  0  0  0  0  0  0  0  0  0  0  0
    0.4769    1.1014   -1.7063 H   0  0  0  0  0  0  0  0  0  0  0  0
    1.5079   -0.4359   -1.6666 H   0  0  0  0  0  0  0  0  0  0  0  0
  1  2  1  0
  2  3  1  0
  3  4  1  0
  4  5  1  0
  4  6  1  0
  6  7  1  0
  7  8  1  0
  8  9  1  0
  8  2  1  0
  9  4  1  0
  1 10  1  0
  1 11  1  0
  1 12  1  0
  2 13  1  0
  5 14  1  0
  5 15  1  0
  5 16  1  0
  6 17  1  0
  6 18  1  0
  8 19  1  0
  9 20  1  0
  9 21  1  0
M  END
