
     RDKit          3D

 23 23  0  0  0  0  0  0  0  0999 V2000
   -1.2583   -1.7427   -0.2831 C   0  0  0  0  0  0  0  0  0  0  0  0
   -0.8614   -0.5148   -1.0412 C   0  0  0  0  0  0  0  0  0  0  0  0
   -1.8252    0.5198   -0.9538 O   0  0  0  0  0  0  0  0  0  0  0  0
   -1.1525    0.9472    0.1880 C   0  0  0  0  0  0  0  0  0  0  0  0
   -1.0364    2.4280    0.3659 C   0  0  0  0  0  0  0  0  0  0  0  0
    0.1162    0.3988   -0.4348 C   0  0  0  0  0  0  0  0  0  0  0  0
    1.0495   -0.0899    0.6065 C   0  0  0  0  0  0  0  0  0  0  0  0
    1.9260   -1.2196    0.0635 C   0  0  0  0  0  0  0  0  0  0  0  0
    2.6803   -0.7961   -1.0165 O   0  0  0  0  0  0  0  0  0  0  0  0
   -2.3857   -1.7473   -0.2328 H   0  0  0  0  0  0  0  0  0  0  0  0
   -0.9856   -2.6558   -0.8436 H   0  0  0  0  0  0  0  0  0  0  0  0
   -0.9160   -1.7450    0.7671 H   0  0  0  0  0  0  0  0  0  0  0  0
   -0.7032   -0.7437   -2.1199 H   0  0  0  0  0  0  0  0  0  0  0  0
   -1.4358    0.3923    1.1016 H   0  0  0  0  0  0  0  0  0  0  0  0
   -1.6123    2.9838   -0.3990 H   0  0  0  0  0  0  0  0  0  0  0  0
    0.0208    2.7655    0.3130 H   0  0  0  0  0  0  0  0  0  0  0  0
   -1.3770    2.7236    1.4018 H   0  0  0  0  0  0  0  0  0  0  0  0
    0.6049    1.0713   -1.1555 H   0  0  0  0  0  0  0  0  0  0  0  0
    0.6086   -0.3547    1.5658 H   0  0  0  0  0  0  0  0  0  0  0  0
    1.7766    0.7495    0.8202 H   0  0  0  0  0  0  0  0  0  0  0  0
    2.6107   -1.5003    0.8720 H   0  0  0  0  0  0  0  0  0  0  0  0
    1.2527   -2.0400   -0.2226 H   0  0  0  0  0  0  0  0  0  0  0  0
    2.9032    0.1701   -0.8345 H   0  0  0  0  0  0  0  0  0  0  0  0
  1  2  1  0
  2  3  1  0
  3  4  1  0
  4  5  1  0
  4  6  1  0
  6  7  1  0
  7  8  1  0
  8  9  1  0
  6  2  1  0
  1 10  1  0
  1 11  1  0
  1 12  1  0
  2 13  1  0
  4 14  1  0
  5 15  1  0
  5 16  1  0
  5 17  1  0
  6 18  1  0
  7 19  1  0
  7 20  1  0
  8 21  1  0
  8 22  1  0
  9 23  1  0
M  END
