
     RDKit          3D

 19 19  0  0  0  0  0  0  0  0999 V2000
    2.6283    0.0302    0.1393 C   0  0  0  0  0  0  0  0  0  0  0  0
    1.1499    0.2422    0.1267 C   0  0  0  0  0  0  0  0  0  0  0  0
    0.7406    1.1777   -0.8062 O   0  0  0  0  0  0  0  0  0  0  0  0
   -0.6040    1.3955   -0.7497 C   0  0  0  0  0  0  0  0  0  0  0  0
   -1.3445    0.5475    0.2387 C   0  0  0  0  0  0  0  0  0  0  0  0
   -0.7831   -0.8477    0.3579 C   0  0  0  0  0  0  0  0  0  0  0  0
   -1.6778   -1.8489   -0.2510 C   0  0  0  0  0  0  0  0  0  0  0  0
   -2.8409   -1.9585    0.0796 O   0  0  0  0  0  0  0  0  0  0  0  0
    0.4761   -0.9545   -0.2123 O   0  0  0  0  0  0  0  0  0  0  0  0
    2.9024   -1.0608    0.1272 H   0  0  0  0  0  0  0  0  0  0  0  0
    3.1831    0.5744   -0.6299 H   0  0  0  0  0  0  0  0  0  0  0  0
    3.0123    0.3988    1.1266 H   0  0  0  0  0  0  0  0  0  0  0  0
    0.7598    0.6062    1.1217 H   0  0  0  0  0  0  0  0  0  0  0  0
   -1.0862    1.2996   -1.7643 H   0  0  0  0  0  0  0  0  0  0  0  0
   -0.7740    2.4640   -0.4577 H   0  0  0  0  0  0  0  0  0  0  0  0
   -1.4157    1.0487    1.2282 H   0  0  0  0  0  0  0  0  0  0  0  0
   -2.3939    0.4463   -0.1213 H   0  0  0  0  0  0  0  0  0  0  0  0
   -0.6348   -1.0530    1.4590 H   0  0  0  0  0  0  0  0  0  0  0  0
   -1.2978   -2.5077   -1.0128 H   0  0  0  0  0  0  0  0  0  0  0  0
  1  2  1  0
  2  3  1  0
  3  4  1  0
  4  5  1  0
  5  6  1  0
  6  7  1  0
  7  8  2  0
  6  9  1  0
  9  2  1  0
  1 10  1  0
  1 11  1  0
  1 12  1  0
  2 13  1  0
  4 14  1  0
  4 15  1  0
  5 16  1  0
  5 17  1  0
  6 18  1  0
  7 19  1  0
M  END
