
     RDKit          3D

 21 22  0  0  0  0  0  0  0  0999 V2000
    2.6106    0.0769   -0.2299 C   0  0  0  0  0  0  0  0  0  0  0  0
    1.1968    0.4008    0.2712 C   0  0  0  0  0  0  0  0  0  0  0  0
    0.5207    0.9538   -0.7786 O   0  0  0  0  0  0  0  0  0  0  0  0
   -0.6868    1.4680   -0.4042 C   0  0  0  0  0  0  0  0  0  0  0  0
   -1.4602    0.7028    0.5990 C   0  0  0  0  0  0  0  0  0  0  0  0
   -1.6027   -0.7610    0.3190 C   0  0  0  0  0  0  0  0  0  0  0  0
   -0.9913   -1.3893   -0.8480 C   0  0  0  0  0  0  0  0  0  0  0  0
   -0.2151   -1.4656    0.3666 C   0  0  0  0  0  0  0  0  0  0  0  0
    0.6256   -0.6083    0.9328 O   0  0  0  0  0  0  0  0  0  0  0  0
    3.2980    0.9222   -0.0995 H   0  0  0  0  0  0  0  0  0  0  0  0
    3.0441   -0.7798    0.3159 H   0  0  0  0  0  0  0  0  0  0  0  0
    2.5557   -0.1382   -1.3292 H   0  0  0  0  0  0  0  0  0  0  0  0
    1.3640    1.2425    1.0122 H   0  0  0  0  0  0  0  0  0  0  0  0
   -0.4865    2.4868    0.0420 H   0  0  0  0  0  0  0  0  0  0  0  0
   -1.2742    1.6773   -1.3227 H   0  0  0  0  0  0  0  0  0  0  0  0
   -2.4993    1.1091    0.6155 H   0  0  0  0  0  0  0  0  0  0  0  0
   -1.0674    0.8780    1.6291 H   0  0  0  0  0  0  0  0  0  0  0  0
   -2.4074   -1.2511    0.9136 H   0  0  0  0  0  0  0  0  0  0  0  0
   -0.7729   -0.7381   -1.7184 H   0  0  0  0  0  0  0  0  0  0  0  0
   -1.5130   -2.3232   -1.1949 H   0  0  0  0  0  0  0  0  0  0  0  0
   -0.2386   -2.4637    0.9085 H   0  0  0  0  0  0  0  0  0  0  0  0
  1  2  1  0
  2  3  1  0
  3  4  1  0
  4  5  1  0
  5  6  1  0
  6  7  1  0
  7  8  1  0
  8  9  1  0
  9  2  1  0
  8  6  1  0
  1 10  1  0
  1 11  1  0
  1 12  1  0
  2 13  1  0
  4 14  1  0
  4 15  1  0
  5 16  1  0
  5 17  1  0
  6 18  1  0
  7 19  1  0
  7 20  1  0
  8 21  1  0
M  END
