
     RDKit          3D

 23 23  0  0  0  0  0  0  0  0999 V2000
   -2.3586   -0.1115    0.2606 C   0  0  0  0  0  0  0  0  0  0  0  0
   -1.1397    0.1391   -0.6047 C   0  0  0  0  0  0  0  0  0  0  0  0
   -0.9425    1.4487   -0.9206 O   0  0  0  0  0  0  0  0  0  0  0  0
   -0.2291    2.1958   -0.0375 C   0  0  0  0  0  0  0  0  0  0  0  0
    0.8581    1.6029    0.5294 O   0  0  0  0  0  0  0  0  0  0  0  0
    1.2193    0.3878   -0.0650 C   0  0  0  0  0  0  0  0  0  0  0  0
    2.4070   -0.1846    0.6363 C   0  0  0  0  0  0  0  0  0  0  0  0
    0.0344   -0.5168    0.0853 C   0  0  0  0  0  0  0  0  0  0  0  0
    0.2476   -1.8832   -0.4780 C   0  0  0  0  0  0  0  0  0  0  0  0
   -3.0094   -0.9193   -0.1542 H   0  0  0  0  0  0  0  0  0  0  0  0
   -2.9702    0.7878    0.4145 H   0  0  0  0  0  0  0  0  0  0  0  0
   -2.0679   -0.4878    1.2833 H   0  0  0  0  0  0  0  0  0  0  0  0
   -1.3319   -0.4127   -1.5727 H   0  0  0  0  0  0  0  0  0  0  0  0
   -0.9455    2.6213    0.7227 H   0  0  0  0  0  0  0  0  0  0  0  0
    0.1397    3.1108   -0.5899 H   0  0  0  0  0  0  0  0  0  0  0  0
    1.4056    0.5633   -1.1354 H   0  0  0  0  0  0  0  0  0  0  0  0
    3.2513    0.5327    0.6973 H   0  0  0  0  0  0  0  0  0  0  0  0
    2.0995   -0.5611    1.6401 H   0  0  0  0  0  0  0  0  0  0  0  0
    2.7300   -1.0967    0.0717 H   0  0  0  0  0  0  0  0  0  0  0  0
   -0.1756   -0.6025    1.1828 H   0  0  0  0  0  0  0  0  0  0  0  0
   -0.6950   -2.4553   -0.3426 H   0  0  0  0  0  0  0  0  0  0  0  0
    1.1102   -2.3966   -0.0301 H   0  0  0  0  0  0  0  0  0  0  0  0
    0.3627   -1.7621   -1.5932 H   0  0  0  0  0  0  0  0  0  0  0  0
  1  2  1  0
  2  3  1  0
  3  4  1  0
  4  5  1  0
  5  6  1  0
  6  7  1  0
  6  8  1  0
  8  9  1  0
  8  2  1  0
  1 10  1  0
  1 11  1  0
  1 12  1  0
  2 13  1  0
  4 14  1  0
  4 15  1  0
  6 16  1  0
  7 17  1  0
  7 18  1  0
  7 19  1  0
  8 20  1  0
  9 21  1  0
  9 22  1  0
  9 23  1  0
M  END
