
     RDKit          3D

 19 20  0  0  0  0  0  0  0  0999 V2000
    2.4528    0.7119   -0.3590 C   0  0  0  0  0  0  0  0  0  0  0  0
    1.5901   -0.2073    0.4597 C   0  0  0  0  0  0  0  0  0  0  0  0
    0.7386    0.5398    1.4245 O   0  0  0  0  0  0  0  0  0  0  0  0
    0.1977   -0.2362    0.3438 C   0  0  0  0  0  0  0  0  0  0  0  0
   -0.6218   -1.3647    0.7959 C   0  0  0  0  0  0  0  0  0  0  0  0
   -1.8745   -1.1584    0.4968 C   0  0  0  0  0  0  0  0  0  0  0  0
   -2.0529    0.1233   -0.1878 C   0  0  0  0  0  0  0  0  0  0  0  0
   -0.6562    0.4755   -0.6427 C   0  0  0  0  0  0  0  0  0  0  0  0
   -0.4770    0.0557   -1.9565 O   0  0  0  0  0  0  0  0  0  0  0  0
    3.5337    0.5236   -0.1804 H   0  0  0  0  0  0  0  0  0  0  0  0
    2.2327    0.6361   -1.4560 H   0  0  0  0  0  0  0  0  0  0  0  0
    2.2757    1.7878   -0.1087 H   0  0  0  0  0  0  0  0  0  0  0  0
    2.1430   -1.0184    0.9750 H   0  0  0  0  0  0  0  0  0  0  0  0
   -0.1794   -2.2450    1.3154 H   0  0  0  0  0  0  0  0  0  0  0  0
   -2.6788   -1.8496    0.7271 H   0  0  0  0  0  0  0  0  0  0  0  0
   -2.4747    0.9202    0.4582 H   0  0  0  0  0  0  0  0  0  0  0  0
   -2.7194   -0.0654   -1.0797 H   0  0  0  0  0  0  0  0  0  0  0  0
   -0.5645    1.5879   -0.5397 H   0  0  0  0  0  0  0  0  0  0  0  0
   -0.8651    0.7830   -2.5277 H   0  0  0  0  0  0  0  0  0  0  0  0
  1  2  1  0
  2  3  1  0
  3  4  1  0
  4  5  1  0
  5  6  2  0
  6  7  1  0
  7  8  1  0
  8  9  1  0
  4  2  1  0
  8  4  1  0
  1 10  1  0
  1 11  1  0
  1 12  1  0
  2 13  1  0
  5 14  1  0
  6 15  1  0
  7 16  1  0
  7 17  1  0
  8 18  1  0
  9 19  1  0
M  END
