
     RDKit          3D

 19 20  0  0  0  0  0  0  0  0999 V2000
    2.5478    0.1288   -0.3954 C   0  0  0  0  0  0  0  0  0  0  0  0
    1.1486    0.2652    0.1947 C   0  0  0  0  0  0  0  0  0  0  0  0
    0.6410   -0.9942    0.3650 O   0  0  0  0  0  0  0  0  0  0  0  0
   -0.7393   -1.0314    0.5443 C   0  0  0  0  0  0  0  0  0  0  0  0
   -1.3420   -1.2164   -0.8042 C   0  0  0  0  0  0  0  0  0  0  0  0
   -1.4527   -0.0398   -1.4086 C   0  0  0  0  0  0  0  0  0  0  0  0
   -0.9256    1.0304   -0.4897 C   0  0  0  0  0  0  0  0  0  0  0  0
   -1.2525    0.3817    0.8635 C   0  0  0  0  0  0  0  0  0  0  0  0
    0.4307    1.0922   -0.6197 O   0  0  0  0  0  0  0  0  0  0  0  0
    2.7469   -0.8988   -0.7561 H   0  0  0  0  0  0  0  0  0  0  0  0
    3.3347    0.3350    0.3752 H   0  0  0  0  0  0  0  0  0  0  0  0
    2.6780    0.7897   -1.2902 H   0  0  0  0  0  0  0  0  0  0  0  0
    1.2777    0.7558    1.2001 H   0  0  0  0  0  0  0  0  0  0  0  0
   -1.0748   -1.7672    1.2744 H   0  0  0  0  0  0  0  0  0  0  0  0
   -1.6454   -2.1552   -1.2335 H   0  0  0  0  0  0  0  0  0  0  0  0
   -1.8480    0.1777   -2.3974 H   0  0  0  0  0  0  0  0  0  0  0  0
   -1.4666    1.9702   -0.5819 H   0  0  0  0  0  0  0  0  0  0  0  0
   -2.3434    0.3331    0.9635 H   0  0  0  0  0  0  0  0  0  0  0  0
   -0.7152    0.8434    1.6833 H   0  0  0  0  0  0  0  0  0  0  0  0
  1  2  1  0
  2  3  1  0
  3  4  1  0
  4  5  1  0
  5  6  2  0
  6  7  1  0
  7  8  1  0
  7  9  1  0
  9  2  1  0
  8  4  1  0
  1 10  1  0
  1 11  1  0
  1 12  1  0
  2 13  1  0
  4 14  1  0
  5 15  1  0
  6 16  1  0
  7 17  1  0
  8 18  1  0
  8 19  1  0
M  END
