
     RDKit          3D

 21 22  0  0  0  0  0  0  0  0999 V2000
   -2.4546   -0.5460   -0.4660 C   0  0  0  0  0  0  0  0  0  0  0  0
   -1.4610    0.4189   -0.0232 C   0  0  0  0  0  0  0  0  0  0  0  0
   -1.0328    1.3922   -0.9574 O   0  0  0  0  0  0  0  0  0  0  0  0
   -0.0557    1.5147    0.0669 C   0  0  0  0  0  0  0  0  0  0  0  0
   -0.0599    0.1177    0.2442 C   0  0  0  0  0  0  0  0  0  0  0  0
    0.1416   -1.2447    0.0338 C   0  0  0  0  0  0  0  0  0  0  0  0
    1.1043   -0.3852   -0.4792 C   0  0  0  0  0  0  0  0  0  0  0  0
    2.4243   -0.2093    0.2489 C   0  0  0  0  0  0  0  0  0  0  0  0
    1.2395   -0.1794   -1.8713 O   0  0  0  0  0  0  0  0  0  0  0  0
   -2.3013   -1.6043   -0.2089 H   0  0  0  0  0  0  0  0  0  0  0  0
   -3.4897   -0.3028   -0.1180 H   0  0  0  0  0  0  0  0  0  0  0  0
   -2.5285   -0.5141   -1.5931 H   0  0  0  0  0  0  0  0  0  0  0  0
   -1.8753    1.0172    0.8481 H   0  0  0  0  0  0  0  0  0  0  0  0
    0.7362    2.1649   -0.3097 H   0  0  0  0  0  0  0  0  0  0  0  0
   -0.5470    2.0772    0.9216 H   0  0  0  0  0  0  0  0  0  0  0  0
    0.3847   -1.8861    0.9381 H   0  0  0  0  0  0  0  0  0  0  0  0
   -0.3562   -1.9212   -0.7291 H   0  0  0  0  0  0  0  0  0  0  0  0
    2.3515    0.6231    1.0096 H   0  0  0  0  0  0  0  0  0  0  0  0
    3.2660   -0.0088   -0.4109 H   0  0  0  0  0  0  0  0  0  0  0  0
    2.6544   -1.1188    0.8783 H   0  0  0  0  0  0  0  0  0  0  0  0
    1.8594    0.5948   -2.0042 H   0  0  0  0  0  0  0  0  0  0  0  0
  1  2  1  0
  2  3  1  0
  3  4  1  0
  4  5  1  0
  5  6  1  0
  6  7  1  0
  7  8  1  0
  7  9  1  0
  5  2  1  0
  7  5  1  0
  1 10  1  0
  1 11  1  0
  1 12  1  0
  2 13  1  0
  4 14  1  0
  4 15  1  0
  6 16  1  0
  6 17  1  0
  8 18  1  0
  8 19  1  0
  8 20  1  0
  9 21  1  0
M  END
