
     RDKit          3D

 21 22  0  0  0  0  0  0  0  0999 V2000
    1.4958   -1.7470   -0.1891 C   0  0  0  0  0  0  0  0  0  0  0  0
    1.5039   -0.2510   -0.1376 C   0  0  0  0  0  0  0  0  0  0  0  0
    1.2570    0.4910   -1.3020 O   0  0  0  0  0  0  0  0  0  0  0  0
    0.4561    0.6563   -0.0276 C   0  0  0  0  0  0  0  0  0  0  0  0
    0.8022    2.0113    0.6398 C   0  0  0  0  0  0  0  0  0  0  0  0
   -0.9494    0.6442   -0.4330 C   0  0  0  0  0  0  0  0  0  0  0  0
   -1.7348   -0.4914   -0.8026 C   0  0  0  0  0  0  0  0  0  0  0  0
   -1.8608   -0.6222    0.6923 C   0  0  0  0  0  0  0  0  0  0  0  0
   -1.7628    0.7913    0.7249 O   0  0  0  0  0  0  0  0  0  0  0  0
    0.6135   -2.2473   -0.5193 H   0  0  0  0  0  0  0  0  0  0  0  0
    2.3400   -2.0631   -0.8711 H   0  0  0  0  0  0  0  0  0  0  0  0
    1.7396   -2.1080    0.8378 H   0  0  0  0  0  0  0  0  0  0  0  0
    2.5285    0.0478    0.2570 H   0  0  0  0  0  0  0  0  0  0  0  0
    1.3788    2.6503   -0.0432 H   0  0  0  0  0  0  0  0  0  0  0  0
   -0.0535    2.4824    1.1030 H   0  0  0  0  0  0  0  0  0  0  0  0
    1.5019    1.7329    1.4798 H   0  0  0  0  0  0  0  0  0  0  0  0
   -1.1739    1.5564   -1.0677 H   0  0  0  0  0  0  0  0  0  0  0  0
   -1.4063   -1.3285   -1.3812 H   0  0  0  0  0  0  0  0  0  0  0  0
   -2.7480   -0.1722   -1.1993 H   0  0  0  0  0  0  0  0  0  0  0  0
   -2.8887   -0.8963    1.0284 H   0  0  0  0  0  0  0  0  0  0  0  0
   -1.0392   -1.1367    1.2108 H   0  0  0  0  0  0  0  0  0  0  0  0
  1  2  1  0
  2  3  1  0
  3  4  1  0
  4  5  1  0
  4  6  1  0
  6  7  1  0
  7  8  1  0
  8  9  1  0
  4  2  1  0
  9  6  1  0
  1 10  1  0
  1 11  1  0
  1 12  1  0
  2 13  1  0
  5 14  1  0
  5 15  1  0
  5 16  1  0
  6 17  1  0
  7 18  1  0
  7 19  1  0
  8 20  1  0
  8 21  1  0
M  END
