
     RDKit          3D

 15 15  0  0  0  0  0  0  0  0999 V2000
    1.8626   -0.0150    0.3204 C   0  0  0  0  0  0  0  0  0  0  0  0
    0.5924   -0.5459   -0.2488 C   0  0  0  0  0  0  0  0  0  0  0  0
    0.0621   -1.7111    0.3152 O   0  0  0  0  0  0  0  0  0  0  0  0
   -1.2121   -1.2206   -0.0227 C   0  0  0  0  0  0  0  0  0  0  0  0
   -2.2980   -1.7328   -0.3909 O   0  0  0  0  0  0  0  0  0  0  0  0
   -0.6831    0.1218    0.2511 C   0  0  0  0  0  0  0  0  0  0  0  0
   -0.6138    0.4646    1.5699 O   0  0  0  0  0  0  0  0  0  0  0  0
   -1.0583    1.1882   -0.7001 C   0  0  0  0  0  0  0  0  0  0  0  0
   -1.2743    2.2890   -0.2164 O   0  0  0  0  0  0  0  0  0  0  0  0
    2.1541    0.8612   -0.3170 H   0  0  0  0  0  0  0  0  0  0  0  0
    1.7728    0.3835    1.3472 H   0  0  0  0  0  0  0  0  0  0  0  0
    2.6543   -0.7982    0.2559 H   0  0  0  0  0  0  0  0  0  0  0  0
    0.6486   -0.6394   -1.3440 H   0  0  0  0  0  0  0  0  0  0  0  0
   -1.4535    0.2779    2.0854 H   0  0  0  0  0  0  0  0  0  0  0  0
   -1.1540    1.0767   -1.7552 H   0  0  0  0  0  0  0  0  0  0  0  0
  1  2  1  0
  2  3  1  0
  3  4  1  0
  4  5  2  0
  4  6  1  0
  6  7  1  0
  6  8  1  0
  8  9  2  0
  6  2  1  0
  1 10  1  0
  1 11  1  0
  1 12  1  0
  2 13  1  0
  7 14  1  0
  8 15  1  0
M  END
