
     RDKit          3D

 23 24  0  0  0  0  0  0  0  0999 V2000
   -2.6509   -0.6508    0.5277 C   0  0  0  0  0  0  0  0  0  0  0  0
   -1.5047   -0.3632   -0.4151 C   0  0  0  0  0  0  0  0  0  0  0  0
   -0.5828   -1.4194   -0.4235 O   0  0  0  0  0  0  0  0  0  0  0  0
    0.4025   -0.5339   -0.1112 C   0  0  0  0  0  0  0  0  0  0  0  0
    1.5183   -0.3264   -1.0567 C   0  0  0  0  0  0  0  0  0  0  0  0
    2.4728   -0.2614    0.1138 C   0  0  0  0  0  0  0  0  0  0  0  0
    1.3770   -0.9105    0.9586 C   0  0  0  0  0  0  0  0  0  0  0  0
   -0.4928    0.5714    0.2322 C   0  0  0  0  0  0  0  0  0  0  0  0
   -0.3295    1.8903   -0.4337 C   0  0  0  0  0  0  0  0  0  0  0  0
   -2.3547   -0.3703    1.5682 H   0  0  0  0  0  0  0  0  0  0  0  0
   -2.8257   -1.7373    0.5018 H   0  0  0  0  0  0  0  0  0  0  0  0
   -3.5514   -0.0683    0.2789 H   0  0  0  0  0  0  0  0  0  0  0  0
   -1.8537   -0.0342   -1.4063 H   0  0  0  0  0  0  0  0  0  0  0  0
    1.4986    0.5629   -1.7091 H   0  0  0  0  0  0  0  0  0  0  0  0
    1.7138   -1.2591   -1.6483 H   0  0  0  0  0  0  0  0  0  0  0  0
    2.7008    0.7807    0.3710 H   0  0  0  0  0  0  0  0  0  0  0  0
    3.3441   -0.9219    0.0625 H   0  0  0  0  0  0  0  0  0  0  0  0
    1.4999   -2.0095    1.0626 H   0  0  0  0  0  0  0  0  0  0  0  0
    1.2886   -0.3664    1.9245 H   0  0  0  0  0  0  0  0  0  0  0  0
   -0.6468    0.6537    1.3381 H   0  0  0  0  0  0  0  0  0  0  0  0
   -0.8417    2.6559    0.2217 H   0  0  0  0  0  0  0  0  0  0  0  0
    0.7219    2.1805   -0.5609 H   0  0  0  0  0  0  0  0  0  0  0  0
   -0.9035    1.9376   -1.3969 H   0  0  0  0  0  0  0  0  0  0  0  0
  1  2  1  0
  2  3  1  0
  3  4  1  0
  4  5  1  0
  5  6  1  0
  6  7  1  0
  4  8  1  0
  8  9  1  0
  8  2  1  0
  7  4  1  0
  1 10  1  0
  1 11  1  0
  1 12  1  0
  2 13  1  0
  5 14  1  0
  5 15  1  0
  6 16  1  0
  6 17  1  0
  7 18  1  0
  7 19  1  0
  8 20  1  0
  9 21  1  0
  9 22  1  0
  9 23  1  0
M  END
