
     RDKit          3D

 23 24  0  0  0  0  0  0  0  0999 V2000
    2.6578   -0.4738   -0.3064 C   0  0  0  0  0  0  0  0  0  0  0  0
    1.3845   -0.0078    0.3577 C   0  0  0  0  0  0  0  0  0  0  0  0
    1.2207    1.3275    0.0975 O   0  0  0  0  0  0  0  0  0  0  0  0
    0.0726    1.8455    0.6429 C   0  0  0  0  0  0  0  0  0  0  0  0
   -1.1868    1.1832    0.2276 C   0  0  0  0  0  0  0  0  0  0  0  0
   -1.0668   -0.2620   -0.1151 C   0  0  0  0  0  0  0  0  0  0  0  0
   -2.1861   -1.1316    0.4180 C   0  0  0  0  0  0  0  0  0  0  0  0
   -0.4400   -0.5532   -1.4241 C   0  0  0  0  0  0  0  0  0  0  0  0
    0.2571   -0.8466   -0.1279 C   0  0  0  0  0  0  0  0  0  0  0  0
    3.4852    0.1266    0.1492 H   0  0  0  0  0  0  0  0  0  0  0  0
    2.6288   -0.1606   -1.3781 H   0  0  0  0  0  0  0  0  0  0  0  0
    2.8402   -1.5506   -0.1727 H   0  0  0  0  0  0  0  0  0  0  0  0
    1.5139   -0.2256    1.4560 H   0  0  0  0  0  0  0  0  0  0  0  0
    0.1750    1.9242    1.7651 H   0  0  0  0  0  0  0  0  0  0  0  0
    0.0148    2.9229    0.3096 H   0  0  0  0  0  0  0  0  0  0  0  0
   -1.9610    1.3596    1.0175 H   0  0  0  0  0  0  0  0  0  0  0  0
   -1.6002    1.7039   -0.6848 H   0  0  0  0  0  0  0  0  0  0  0  0
   -1.7755   -2.0577    0.9182 H   0  0  0  0  0  0  0  0  0  0  0  0
   -2.7436   -0.6036    1.2169 H   0  0  0  0  0  0  0  0  0  0  0  0
   -2.8761   -1.4766   -0.3769 H   0  0  0  0  0  0  0  0  0  0  0  0
    0.0103    0.2730   -2.0013 H   0  0  0  0  0  0  0  0  0  0  0  0
   -0.7870   -1.3856   -2.0731 H   0  0  0  0  0  0  0  0  0  0  0  0
    0.3623   -1.9312    0.0844 H   0  0  0  0  0  0  0  0  0  0  0  0
  1  2  1  0
  2  3  1  0
  3  4  1  0
  4  5  1  0
  5  6  1  0
  6  7  1  0
  6  8  1  0
  8  9  1  0
  9  2  1  0
  9  6  1  0
  1 10  1  0
  1 11  1  0
  1 12  1  0
  2 13  1  0
  4 14  1  0
  4 15  1  0
  5 16  1  0
  5 17  1  0
  7 18  1  0
  7 19  1  0
  7 20  1  0
  8 21  1  0
  8 22  1  0
  9 23  1  0
M  END
