
     RDKit          3D

 17 18  0  0  0  0  0  0  0  0999 V2000
   -0.8323    2.0067    0.1797 C   0  0  0  0  0  0  0  0  0  0  0  0
   -0.3161    0.8387   -0.6468 C   0  0  0  0  0  0  0  0  0  0  0  0
    1.0717    0.8393   -0.6573 O   0  0  0  0  0  0  0  0  0  0  0  0
    1.0572   -0.5430   -0.5330 C   0  0  0  0  0  0  0  0  0  0  0  0
    2.1159   -1.0987    0.3454 C   0  0  0  0  0  0  0  0  0  0  0  0
    2.8833   -0.3085    0.8651 O   0  0  0  0  0  0  0  0  0  0  0  0
   -0.3078   -0.4773    0.0218 C   0  0  0  0  0  0  0  0  0  0  0  0
   -1.2738   -1.4116    0.2272 C   0  0  0  0  0  0  0  0  0  0  0  0
   -0.6103   -0.6711    1.3336 O   0  0  0  0  0  0  0  0  0  0  0  0
   -0.9580    1.7297    1.2306 H   0  0  0  0  0  0  0  0  0  0  0  0
   -0.1126    2.8310    0.0376 H   0  0  0  0  0  0  0  0  0  0  0  0
   -1.8043    2.3415   -0.2486 H   0  0  0  0  0  0  0  0  0  0  0  0
   -0.7984    0.8012   -1.6424 H   0  0  0  0  0  0  0  0  0  0  0  0
    1.0875   -1.0181   -1.5218 H   0  0  0  0  0  0  0  0  0  0  0  0
    2.2380   -2.1422    0.5428 H   0  0  0  0  0  0  0  0  0  0  0  0
   -2.3665   -1.2054    0.1808 H   0  0  0  0  0  0  0  0  0  0  0  0
   -1.0736   -2.5123    0.2855 H   0  0  0  0  0  0  0  0  0  0  0  0
  1  2  1  0
  2  3  1  0
  3  4  1  0
  4  5  1  0
  5  6  2  0
  4  7  1  0
  7  8  1  0
  8  9  1  0
  7  2  1  0
  9  7  1  0
  1 10  1  0
  1 11  1  0
  1 12  1  0
  2 13  1  0
  4 14  1  0
  5 15  1  0
  8 16  1  0
  8 17  1  0
M  END
