
     RDKit          3D

 18 18  0  0  0  0  0  0  0  0999 V2000
   -2.2986    0.3351   -0.2722 C   0  0  0  0  0  0  0  0  0  0  0  0
   -0.8264    0.0293   -0.5899 C   0  0  0  0  0  0  0  0  0  0  0  0
   -0.1652    1.2264   -0.5389 O   0  0  0  0  0  0  0  0  0  0  0  0
    1.1381    1.2065   -0.1764 C   0  0  0  0  0  0  0  0  0  0  0  0
    1.7493   -0.1978   -0.2262 C   0  0  0  0  0  0  0  0  0  0  0  0
    0.9966   -0.9631    0.8685 C   0  0  0  0  0  0  0  0  0  0  0  0
   -0.4000   -0.9621    0.4056 C   0  0  0  0  0  0  0  0  0  0  0  0
   -1.1701   -1.7692    0.8466 O   0  0  0  0  0  0  0  0  0  0  0  0
   -2.4231    0.5315    0.8231 H   0  0  0  0  0  0  0  0  0  0  0  0
   -2.5692    1.2172   -0.8828 H   0  0  0  0  0  0  0  0  0  0  0  0
   -2.9224   -0.5322   -0.5156 H   0  0  0  0  0  0  0  0  0  0  0  0
   -0.8488   -0.3845   -1.6357 H   0  0  0  0  0  0  0  0  0  0  0  0
    1.7923    1.9282   -0.7256 H   0  0  0  0  0  0  0  0  0  0  0  0
    1.1980    1.5029    0.9023 H   0  0  0  0  0  0  0  0  0  0  0  0
    1.5182   -0.6506   -1.1954 H   0  0  0  0  0  0  0  0  0  0  0  0
    2.7923   -0.1813    0.0633 H   0  0  0  0  0  0  0  0  0  0  0  0
    1.0211   -0.3664    1.8266 H   0  0  0  0  0  0  0  0  0  0  0  0
    1.4177   -1.9701    1.0227 H   0  0  0  0  0  0  0  0  0  0  0  0
  1  2  1  0
  2  3  1  0
  3  4  1  0
  4  5  1  0
  5  6  1  0
  6  7  1  0
  7  8  2  0
  7  2  1  0
  1  9  1  0
  1 10  1  0
  1 11  1  0
  2 12  1  0
  4 13  1  0
  4 14  1  0
  5 15  1  0
  5 16  1  0
  6 17  1  0
  6 18  1  0
M  END
