
     RDKit          3D

 21 21  0  0  0  0  0  0  0  0999 V2000
   -2.4668    1.3921   -0.2722 C   0  0  0  0  0  0  0  0  0  0  0  0
   -1.3822    0.4314    0.1610 C   0  0  0  0  0  0  0  0  0  0  0  0
   -1.7605   -0.8648    0.0278 O   0  0  0  0  0  0  0  0  0  0  0  0
   -0.7920   -1.8043    0.0033 C   0  0  0  0  0  0  0  0  0  0  0  0
    0.6061   -1.3680    0.1514 C   0  0  0  0  0  0  0  0  0  0  0  0
    0.8154    0.1114    0.2597 C   0  0  0  0  0  0  0  0  0  0  0  0
    2.2008    0.4256   -0.2448 C   0  0  0  0  0  0  0  0  0  0  0  0
    2.5138    1.7648   -0.2055 O   0  0  0  0  0  0  0  0  0  0  0  0
   -0.1756    0.7426   -0.4692 O   0  0  0  0  0  0  0  0  0  0  0  0
   -3.4028    1.0911    0.2559 H   0  0  0  0  0  0  0  0  0  0  0  0
   -2.1413    2.4112    0.0324 H   0  0  0  0  0  0  0  0  0  0  0  0
   -2.6062    1.3876   -1.3746 H   0  0  0  0  0  0  0  0  0  0  0  0
   -1.2189    0.6337    1.2601 H   0  0  0  0  0  0  0  0  0  0  0  0
   -1.0116   -2.5542    0.8203 H   0  0  0  0  0  0  0  0  0  0  0  0
   -0.9153   -2.4096   -0.9429 H   0  0  0  0  0  0  0  0  0  0  0  0
    1.1140   -1.8228    1.0523 H   0  0  0  0  0  0  0  0  0  0  0  0
    1.2248   -1.7376   -0.7176 H   0  0  0  0  0  0  0  0  0  0  0  0
    0.6752    0.4046    1.3206 H   0  0  0  0  0  0  0  0  0  0  0  0
    2.9287   -0.1516    0.3618 H   0  0  0  0  0  0  0  0  0  0  0  0
    2.2778    0.0864   -1.2872 H   0  0  0  0  0  0  0  0  0  0  0  0
    3.5166    1.8303   -0.1927 H   0  0  0  0  0  0  0  0  0  0  0  0
  1  2  1  0
  2  3  1  0
  3  4  1  0
  4  5  1  0
  5  6  1  0
  6  7  1  0
  7  8  1  0
  6  9  1  0
  9  2  1  0
  1 10  1  0
  1 11  1  0
  1 12  1  0
  2 13  1  0
  4 14  1  0
  4 15  1  0
  5 16  1  0
  5 17  1  0
  6 18  1  0
  7 19  1  0
  7 20  1  0
  8 21  1  0
M  END
