
     RDKit          3D

 21 22  0  0  0  0  0  0  0  0999 V2000
   -2.5304   -0.7376    0.8890 C   0  0  0  0  0  0  0  0  0  0  0  0
   -1.3244   -0.9290    0.0190 C   0  0  0  0  0  0  0  0  0  0  0  0
   -0.4209   -1.8855    0.4350 O   0  0  0  0  0  0  0  0  0  0  0  0
    0.5987   -1.0753   -0.0739 C   0  0  0  0  0  0  0  0  0  0  0  0
    0.9609    0.0852    0.7554 C   0  0  0  0  0  0  0  0  0  0  0  0
    2.1194    0.9477    0.3314 C   0  0  0  0  0  0  0  0  0  0  0  0
    3.3203    0.2092    0.2655 O   0  0  0  0  0  0  0  0  0  0  0  0
   -0.3127    0.1678    0.0364 C   0  0  0  0  0  0  0  0  0  0  0  0
   -0.3629    1.0898   -1.1598 C   0  0  0  0  0  0  0  0  0  0  0  0
   -3.4281   -1.2325    0.4756 H   0  0  0  0  0  0  0  0  0  0  0  0
   -2.3781   -1.1948    1.9106 H   0  0  0  0  0  0  0  0  0  0  0  0
   -2.8020    0.3305    1.0431 H   0  0  0  0  0  0  0  0  0  0  0  0
   -1.6526   -1.1810   -1.0322 H   0  0  0  0  0  0  0  0  0  0  0  0
    0.9847   -1.2521   -1.0777 H   0  0  0  0  0  0  0  0  0  0  0  0
    0.9441   -0.0922    1.8636 H   0  0  0  0  0  0  0  0  0  0  0  0
    2.2667    1.8213    0.9823 H   0  0  0  0  0  0  0  0  0  0  0  0
    1.9226    1.2804   -0.7123 H   0  0  0  0  0  0  0  0  0  0  0  0
    3.3517   -0.3669   -0.5384 H   0  0  0  0  0  0  0  0  0  0  0  0
    0.3544    0.7972   -1.9331 H   0  0  0  0  0  0  0  0  0  0  0  0
   -0.2356    2.1533   -0.8333 H   0  0  0  0  0  0  0  0  0  0  0  0
   -1.3760    1.0644   -1.6459 H   0  0  0  0  0  0  0  0  0  0  0  0
  1  2  1  0
  2  3  1  0
  3  4  1  0
  4  5  1  0
  5  6  1  0
  6  7  1  0
  5  8  1  0
  8  9  1  0
  8  2  1  0
  8  4  1  0
  1 10  1  0
  1 11  1  0
  1 12  1  0
  2 13  1  0
  4 14  1  0
  5 15  1  0
  6 16  1  0
  6 17  1  0
  7 18  1  0
  9 19  1  0
  9 20  1  0
  9 21  1  0
M  END
