
     RDKit          3D

 21 21  0  0  0  0  0  0  0  0999 V2000
   -2.9834   -0.1618    0.0312 C   0  0  0  0  0  0  0  0  0  0  0  0
   -1.5492   -0.4338   -0.2688 C   0  0  0  0  0  0  0  0  0  0  0  0
   -1.0450    0.3811   -1.3135 O   0  0  0  0  0  0  0  0  0  0  0  0
   -0.5070    0.5261   -0.0118 C   0  0  0  0  0  0  0  0  0  0  0  0
    0.9405    0.2004    0.0569 C   0  0  0  0  0  0  0  0  0  0  0  0
    1.4710   -0.3970   -1.2414 C   0  0  0  0  0  0  0  0  0  0  0  0
    1.2877   -0.7252    1.1963 C   0  0  0  0  0  0  0  0  0  0  0  0
    1.7007    1.4644    0.2699 C   0  0  0  0  0  0  0  0  0  0  0  0
    1.4039    2.2272    1.1878 O   0  0  0  0  0  0  0  0  0  0  0  0
   -3.3129   -0.5933    1.0138 H   0  0  0  0  0  0  0  0  0  0  0  0
   -3.2426    0.9142    0.0437 H   0  0  0  0  0  0  0  0  0  0  0  0
   -3.6304   -0.6127   -0.7623 H   0  0  0  0  0  0  0  0  0  0  0  0
   -1.2860   -1.5105   -0.2921 H   0  0  0  0  0  0  0  0  0  0  0  0
   -0.7996    1.4449    0.5630 H   0  0  0  0  0  0  0  0  0  0  0  0
    1.1435    0.2058   -2.1005 H   0  0  0  0  0  0  0  0  0  0  0  0
    1.1807   -1.4665   -1.3077 H   0  0  0  0  0  0  0  0  0  0  0  0
    2.5745   -0.3581   -1.2177 H   0  0  0  0  0  0  0  0  0  0  0  0
    0.3579   -0.9892    1.7122 H   0  0  0  0  0  0  0  0  0  0  0  0
    1.7908   -1.6435    0.8492 H   0  0  0  0  0  0  0  0  0  0  0  0
    1.9724   -0.2532    1.9389 H   0  0  0  0  0  0  0  0  0  0  0  0
    2.5325    1.7807   -0.3471 H   0  0  0  0  0  0  0  0  0  0  0  0
  1  2  1  0
  2  3  1  0
  3  4  1  0
  4  5  1  0
  5  6  1  0
  5  7  1  0
  5  8  1  0
  8  9  2  0
  4  2  1  0
  1 10  1  0
  1 11  1  0
  1 12  1  0
  2 13  1  0
  4 14  1  0
  6 15  1  0
  6 16  1  0
  6 17  1  0
  7 18  1  0
  7 19  1  0
  7 20  1  0
  8 21  1  0
M  END
