
     RDKit          3D

 21 22  0  0  0  0  0  0  0  0999 V2000
    2.4532    0.6937    0.0807 C   0  0  0  0  0  0  0  0  0  0  0  0
    1.0231    1.1284    0.1667 C   0  0  0  0  0  0  0  0  0  0  0  0
    0.4647    1.6053   -1.0260 O   0  0  0  0  0  0  0  0  0  0  0  0
   -0.4398    0.5700   -1.1222 C   0  0  0  0  0  0  0  0  0  0  0  0
   -1.3555    0.2791    0.0749 C   0  0  0  0  0  0  0  0  0  0  0  0
   -2.4192   -0.7312   -0.2219 C   0  0  0  0  0  0  0  0  0  0  0  0
   -1.7561    1.3689    0.8504 O   0  0  0  0  0  0  0  0  0  0  0  0
    0.0738   -0.0370    0.0987 C   0  0  0  0  0  0  0  0  0  0  0  0
    0.6466   -1.3892    0.2128 C   0  0  0  0  0  0  0  0  0  0  0  0
    2.7028    0.4355   -0.9745 H   0  0  0  0  0  0  0  0  0  0  0  0
    3.1543    1.5000    0.4134 H   0  0  0  0  0  0  0  0  0  0  0  0
    2.6016   -0.1675    0.7715 H   0  0  0  0  0  0  0  0  0  0  0  0
    0.7735    1.7444    1.0644 H   0  0  0  0  0  0  0  0  0  0  0  0
   -0.6221    0.0436   -2.0657 H   0  0  0  0  0  0  0  0  0  0  0  0
   -2.9057   -1.1315    0.6733 H   0  0  0  0  0  0  0  0  0  0  0  0
   -3.1971   -0.2146   -0.8407 H   0  0  0  0  0  0  0  0  0  0  0  0
   -2.0216   -1.5557   -0.8311 H   0  0  0  0  0  0  0  0  0  0  0  0
   -1.7124    1.0610    1.7983 H   0  0  0  0  0  0  0  0  0  0  0  0
    1.1160   -1.5041    1.2352 H   0  0  0  0  0  0  0  0  0  0  0  0
   -0.0887   -2.1950    0.1346 H   0  0  0  0  0  0  0  0  0  0  0  0
    1.5084   -1.5042   -0.4928 H   0  0  0  0  0  0  0  0  0  0  0  0
  1  2  1  0
  2  3  1  0
  3  4  1  0
  4  5  1  0
  5  6  1  0
  5  7  1  0
  5  8  1  0
  8  9  1  0
  8  2  1  0
  8  4  1  0
  1 10  1  0
  1 11  1  0
  1 12  1  0
  2 13  1  0
  4 14  1  0
  6 15  1  0
  6 16  1  0
  6 17  1  0
  7 18  1  0
  9 19  1  0
  9 20  1  0
  9 21  1  0
M  END
