
     RDKit          3D

 21 21  0  0  0  0  0  0  0  0999 V2000
    0.1660    2.0614    0.4719 C   0  0  0  0  0  0  0  0  0  0  0  0
    0.5714    0.7864   -0.2490 C   0  0  0  0  0  0  0  0  0  0  0  0
    1.7713    0.3391    0.3173 O   0  0  0  0  0  0  0  0  0  0  0  0
    2.0556   -0.9397   -0.1557 C   0  0  0  0  0  0  0  0  0  0  0  0
    1.1949   -1.8150    0.4393 O   0  0  0  0  0  0  0  0  0  0  0  0
   -0.1342   -1.5751    0.2512 C   0  0  0  0  0  0  0  0  0  0  0  0
   -0.4948   -0.2414   -0.2870 C   0  0  0  0  0  0  0  0  0  0  0  0
   -1.7730    0.2160    0.4331 C   0  0  0  0  0  0  0  0  0  0  0  0
   -0.8950   -0.4085   -1.6357 O   0  0  0  0  0  0  0  0  0  0  0  0
   -0.4823    2.6247   -0.2225 H   0  0  0  0  0  0  0  0  0  0  0  0
   -0.2449    1.8892    1.4605 H   0  0  0  0  0  0  0  0  0  0  0  0
    1.1022    2.6793    0.5688 H   0  0  0  0  0  0  0  0  0  0  0  0
    0.8628    1.1338   -1.2856 H   0  0  0  0  0  0  0  0  0  0  0  0
    3.0878   -1.1783    0.2071 H   0  0  0  0  0  0  0  0  0  0  0  0
    2.0901   -1.0089   -1.2479 H   0  0  0  0  0  0  0  0  0  0  0  0
   -0.5295   -2.3995   -0.4133 H   0  0  0  0  0  0  0  0  0  0  0  0
   -0.6494   -1.7699    1.2384 H   0  0  0  0  0  0  0  0  0  0  0  0
   -1.8941    1.2975    0.4148 H   0  0  0  0  0  0  0  0  0  0  0  0
   -1.7500   -0.2215    1.4445 H   0  0  0  0  0  0  0  0  0  0  0  0
   -2.6736   -0.2151   -0.0795 H   0  0  0  0  0  0  0  0  0  0  0  0
   -1.3813   -1.2545   -1.6706 H   0  0  0  0  0  0  0  0  0  0  0  0
  1  2  1  0
  2  3  1  0
  3  4  1  0
  4  5  1  0
  5  6  1  0
  6  7  1  0
  7  8  1  0
  7  9  1  0
  7  2  1  0
  1 10  1  0
  1 11  1  0
  1 12  1  0
  2 13  1  0
  4 14  1  0
  4 15  1  0
  6 16  1  0
  6 17  1  0
  8 18  1  0
  8 19  1  0
  8 20  1  0
  9 21  1  0
M  END
