
     RDKit          3D

 13 13  0  0  0  0  0  0  0  0999 V2000
   -1.4405   -0.3020    0.1905 C   0  0  0  0  0  0  0  0  0  0  0  0
   -0.2804   -0.2835   -0.7712 C   0  0  0  0  0  0  0  0  0  0  0  0
    0.5487   -1.4435   -0.6278 O   0  0  0  0  0  0  0  0  0  0  0  0
    1.3001   -0.8110    0.3417 C   0  0  0  0  0  0  0  0  0  0  0  0
    2.0400   -1.1991    1.2912 O   0  0  0  0  0  0  0  0  0  0  0  0
    0.8620    0.5118   -0.2149 C   0  0  0  0  0  0  0  0  0  0  0  0
    0.5211    1.3907    0.8076 O   0  0  0  0  0  0  0  0  0  0  0  0
   -2.3725   -0.5556   -0.3642 H   0  0  0  0  0  0  0  0  0  0  0  0
   -1.2479   -1.0677    0.9875 H   0  0  0  0  0  0  0  0  0  0  0  0
   -1.6111    0.6769    0.6681 H   0  0  0  0  0  0  0  0  0  0  0  0
   -0.5152   -0.1480   -1.8263 H   0  0  0  0  0  0  0  0  0  0  0  0
    1.5859    0.9016   -0.9322 H   0  0  0  0  0  0  0  0  0  0  0  0
    0.6097    2.3293    0.4500 H   0  0  0  0  0  0  0  0  0  0  0  0
  1  2  1  0
  2  3  1  0
  3  4  1  0
  4  5  2  0
  4  6  1  0
  6  7  1  0
  6  2  1  0
  1  8  1  0
  1  9  1  0
  1 10  1  0
  2 11  1  0
  6 12  1  0
  7 13  1  0
M  END
