
     RDKit          3D

 18 19  0  0  0  0  0  0  0  0999 V2000
   -1.8911    0.7507   -0.1599 C   0  0  0  0  0  0  0  0  0  0  0  0
   -0.7896    0.2051    0.7300 C   0  0  0  0  0  0  0  0  0  0  0  0
   -1.1074   -1.1260    1.0871 O   0  0  0  0  0  0  0  0  0  0  0  0
   -0.5149   -1.5325   -0.1308 C   0  0  0  0  0  0  0  0  0  0  0  0
    0.3297   -0.3254   -0.0387 C   0  0  0  0  0  0  0  0  0  0  0  0
    1.7349   -0.2937    0.2982 C   0  0  0  0  0  0  0  0  0  0  0  0
    1.1573    0.2676   -1.0201 C   0  0  0  0  0  0  0  0  0  0  0  0
    1.2602    1.6656   -1.1238 O   0  0  0  0  0  0  0  0  0  0  0  0
   -1.4501    1.0941   -1.1362 H   0  0  0  0  0  0  0  0  0  0  0  0
   -2.6522   -0.0177   -0.4086 H   0  0  0  0  0  0  0  0  0  0  0  0
   -2.3703    1.6453    0.2999 H   0  0  0  0  0  0  0  0  0  0  0  0
   -0.5195    0.8488    1.5913 H   0  0  0  0  0  0  0  0  0  0  0  0
    0.0969   -2.4595   -0.0394 H   0  0  0  0  0  0  0  0  0  0  0  0
   -1.2663   -1.5480   -0.9557 H   0  0  0  0  0  0  0  0  0  0  0  0
    2.1158    0.4355    1.0304 H   0  0  0  0  0  0  0  0  0  0  0  0
    2.2849   -1.2745    0.2150 H   0  0  0  0  0  0  0  0  0  0  0  0
    1.4525   -0.2389   -1.9585 H   0  0  0  0  0  0  0  0  0  0  0  0
    2.1293    1.9035   -0.6883 H   0  0  0  0  0  0  0  0  0  0  0  0
  1  2  1  0
  2  3  1  0
  3  4  1  0
  4  5  1  0
  5  6  1  0
  6  7  1  0
  7  8  1  0
  5  2  1  0
  7  5  1  0
  1  9  1  0
  1 10  1  0
  1 11  1  0
  2 12  1  0
  4 13  1  0
  4 14  1  0
  6 15  1  0
  6 16  1  0
  7 17  1  0
  8 18  1  0
M  END
