
     RDKit          3D

 21 23  0  0  0  0  0  0  0  0999 V2000
    2.8436   -0.2594   -0.6876 C   0  0  0  0  0  0  0  0  0  0  0  0
    1.9992    0.4727    0.3487 C   0  0  0  0  0  0  0  0  0  0  0  0
    1.4550   -0.4526    1.3736 O   0  0  0  0  0  0  0  0  0  0  0  0
    0.6732    0.2803    0.4386 C   0  0  0  0  0  0  0  0  0  0  0  0
   -0.4938    0.9373    1.0203 C   0  0  0  0  0  0  0  0  0  0  0  0
   -1.4276   -0.0060    0.3187 C   0  0  0  0  0  0  0  0  0  0  0  0
   -2.6079    0.5152   -0.4343 C   0  0  0  0  0  0  0  0  0  0  0  0
   -1.1115   -1.4430    0.1647 C   0  0  0  0  0  0  0  0  0  0  0  0
   -0.1975   -0.4770   -0.5019 C   0  0  0  0  0  0  0  0  0  0  0  0
    2.8972   -1.3518   -0.4698 H   0  0  0  0  0  0  0  0  0  0  0  0
    3.8671    0.1072   -0.7428 H   0  0  0  0  0  0  0  0  0  0  0  0
    2.3593   -0.1985   -1.7032 H   0  0  0  0  0  0  0  0  0  0  0  0
    2.5736    1.2996    0.8476 H   0  0  0  0  0  0  0  0  0  0  0  0
   -0.6095    0.9391    2.1188 H   0  0  0  0  0  0  0  0  0  0  0  0
   -0.6405    1.9732    0.6131 H   0  0  0  0  0  0  0  0  0  0  0  0
   -2.6539    0.1724   -1.4831 H   0  0  0  0  0  0  0  0  0  0  0  0
   -2.7099    1.6276   -0.3623 H   0  0  0  0  0  0  0  0  0  0  0  0
   -3.5362    0.1015    0.0555 H   0  0  0  0  0  0  0  0  0  0  0  0
   -0.6548   -1.9863    1.0262 H   0  0  0  0  0  0  0  0  0  0  0  0
   -1.7475   -2.0308   -0.4903 H   0  0  0  0  0  0  0  0  0  0  0  0
   -0.2775   -0.2207   -1.5583 H   0  0  0  0  0  0  0  0  0  0  0  0
  1  2  1  0
  2  3  1  0
  3  4  1  0
  4  5  1  0
  5  6  1  0
  6  7  1  0
  6  8  1  0
  8  9  1  0
  4  2  1  0
  9  6  1  0
  9  4  1  0
  1 10  1  0
  1 11  1  0
  1 12  1  0
  2 13  1  0
  5 14  1  0
  5 15  1  0
  7 16  1  0
  7 17  1  0
  7 18  1  0
  8 19  1  0
  8 20  1  0
  9 21  1  0
M  END
