
     RDKit          3D

 23 23  0  0  0  0  0  0  0  0999 V2000
    2.8876   -0.1144   -0.2699 C   0  0  0  0  0  0  0  0  0  0  0  0
    1.4883   -0.4659   -0.6510 C   0  0  0  0  0  0  0  0  0  0  0  0
    0.8932   -1.2859    0.4277 O   0  0  0  0  0  0  0  0  0  0  0  0
    0.3021   -0.0274    0.0296 C   0  0  0  0  0  0  0  0  0  0  0  0
    0.3869    1.0997    1.0107 C   0  0  0  0  0  0  0  0  0  0  0  0
   -1.0372   -0.2323   -0.6215 C   0  0  0  0  0  0  0  0  0  0  0  0
   -1.9819   -0.9648    0.3420 C   0  0  0  0  0  0  0  0  0  0  0  0
   -1.7188    1.0759   -0.9341 C   0  0  0  0  0  0  0  0  0  0  0  0
   -0.9686   -1.0164   -1.7608 O   0  0  0  0  0  0  0  0  0  0  0  0
    2.9951    0.2881    0.7461 H   0  0  0  0  0  0  0  0  0  0  0  0
    3.3764    0.5678   -0.9680 H   0  0  0  0  0  0  0  0  0  0  0  0
    3.4835   -1.0732   -0.2673 H   0  0  0  0  0  0  0  0  0  0  0  0
    1.3961   -0.9399   -1.6506 H   0  0  0  0  0  0  0  0  0  0  0  0
   -0.5736    1.5361    1.2961 H   0  0  0  0  0  0  0  0  0  0  0  0
    0.8512    0.7079    1.9467 H   0  0  0  0  0  0  0  0  0  0  0  0
    1.0133    1.9523    0.6185 H   0  0  0  0  0  0  0  0  0  0  0  0
   -2.0925   -0.3327    1.2348 H   0  0  0  0  0  0  0  0  0  0  0  0
   -2.9419   -1.1529   -0.1281 H   0  0  0  0  0  0  0  0  0  0  0  0
   -1.4907   -1.9360    0.5468 H   0  0  0  0  0  0  0  0  0  0  0  0
   -2.1178    1.5850   -0.0364 H   0  0  0  0  0  0  0  0  0  0  0  0
   -1.0884    1.7394   -1.5684 H   0  0  0  0  0  0  0  0  0  0  0  0
   -2.6229    0.8190   -1.5526 H   0  0  0  0  0  0  0  0  0  0  0  0
   -0.4394   -1.8295   -1.5166 H   0  0  0  0  0  0  0  0  0  0  0  0
  1  2  1  0
  2  3  1  0
  3  4  1  0
  4  5  1  0
  4  6  1  0
  6  7  1  0
  6  8  1  0
  6  9  1  0
  4  2  1  0
  1 10  1  0
  1 11  1  0
  1 12  1  0
  2 13  1  0
  5 14  1  0
  5 15  1  0
  5 16  1  0
  7 17  1  0
  7 18  1  0
  7 19  1  0
  8 20  1  0
  8 21  1  0
  8 22  1  0
  9 23  1  0
M  END
