
     RDKit          3D

 21 21  0  0  0  0  0  0  0  0999 V2000
    2.4932   -0.1685   -0.0988 C   0  0  0  0  0  0  0  0  0  0  0  0
    1.0190   -0.3285   -0.0894 C   0  0  0  0  0  0  0  0  0  0  0  0
    0.5102   -1.0264    0.9879 O   0  0  0  0  0  0  0  0  0  0  0  0
   -0.7252   -1.5415    0.6043 C   0  0  0  0  0  0  0  0  0  0  0  0
   -1.7064   -0.5220    0.1667 C   0  0  0  0  0  0  0  0  0  0  0  0
   -1.1492    0.6287   -0.5914 C   0  0  0  0  0  0  0  0  0  0  0  0
   -1.9158    1.7883   -0.3952 O   0  0  0  0  0  0  0  0  0  0  0  0
    0.2664    0.9950   -0.1420 C   0  0  0  0  0  0  0  0  0  0  0  0
    0.1520    1.5715    1.1202 O   0  0  0  0  0  0  0  0  0  0  0  0
    2.9825   -0.9390   -0.7648 H   0  0  0  0  0  0  0  0  0  0  0  0
    2.7282    0.8083   -0.6158 H   0  0  0  0  0  0  0  0  0  0  0  0
    2.8937   -0.1990    0.9262 H   0  0  0  0  0  0  0  0  0  0  0  0
    0.7353   -0.9216   -1.0081 H   0  0  0  0  0  0  0  0  0  0  0  0
   -1.1955   -2.1358    1.4356 H   0  0  0  0  0  0  0  0  0  0  0  0
   -0.5034   -2.3006   -0.1923 H   0  0  0  0  0  0  0  0  0  0  0  0
   -2.4502   -1.0370   -0.5106 H   0  0  0  0  0  0  0  0  0  0  0  0
   -2.2801   -0.1124    1.0377 H   0  0  0  0  0  0  0  0  0  0  0  0
   -1.0468    0.4059   -1.6935 H   0  0  0  0  0  0  0  0  0  0  0  0
   -1.8764    2.3942   -1.1758 H   0  0  0  0  0  0  0  0  0  0  0  0
    0.7115    1.6872   -0.8571 H   0  0  0  0  0  0  0  0  0  0  0  0
    0.3570    0.9533    1.8563 H   0  0  0  0  0  0  0  0  0  0  0  0
  1  2  1  0
  2  3  1  0
  3  4  1  0
  4  5  1  0
  5  6  1  0
  6  7  1  0
  6  8  1  0
  8  9  1  0
  8  2  1  0
  1 10  1  0
  1 11  1  0
  1 12  1  0
  2 13  1  0
  4 14  1  0
  4 15  1  0
  5 16  1  0
  5 17  1  0
  6 18  1  0
  7 19  1  0
  8 20  1  0
  9 21  1  0
M  END
