
     RDKit          3D

 22 22  0  0  0  0  0  0  0  0999 V2000
    2.3799   -0.2418   -0.6762 C   0  0  0  0  0  0  0  0  0  0  0  0
    0.9436   -0.5649   -0.4902 C   0  0  0  0  0  0  0  0  0  0  0  0
    0.0420    0.2680   -1.1944 O   0  0  0  0  0  0  0  0  0  0  0  0
   -0.8821   -0.1079   -0.1948 C   0  0  0  0  0  0  0  0  0  0  0  0
   -1.9648    0.9033    0.0401 C   0  0  0  0  0  0  0  0  0  0  0  0
   -1.4135   -1.4687   -0.4924 C   0  0  0  0  0  0  0  0  0  0  0  0
    0.2852   -0.0535    0.7665 C   0  0  0  0  0  0  0  0  0  0  0  0
    0.6400    1.3475    1.1656 C   0  0  0  0  0  0  0  0  0  0  0  0
    2.5966   -0.1074   -1.7772 H   0  0  0  0  0  0  0  0  0  0  0  0
    2.9706   -1.1629   -0.3997 H   0  0  0  0  0  0  0  0  0  0  0  0
    2.7389    0.6593   -0.1817 H   0  0  0  0  0  0  0  0  0  0  0  0
    0.7184   -1.6489   -0.5982 H   0  0  0  0  0  0  0  0  0  0  0  0
   -1.5982    1.9090    0.2587 H   0  0  0  0  0  0  0  0  0  0  0  0
   -2.5735    0.5552    0.8879 H   0  0  0  0  0  0  0  0  0  0  0  0
   -2.6327    0.8688   -0.8591 H   0  0  0  0  0  0  0  0  0  0  0  0
   -1.1352   -1.8188   -1.5301 H   0  0  0  0  0  0  0  0  0  0  0  0
   -2.5325   -1.4790   -0.4936 H   0  0  0  0  0  0  0  0  0  0  0  0
   -1.1034   -2.2221    0.2613 H   0  0  0  0  0  0  0  0  0  0  0  0
    0.2494   -0.7586    1.5957 H   0  0  0  0  0  0  0  0  0  0  0  0
    0.1073    1.5818    2.0984 H   0  0  0  0  0  0  0  0  0  0  0  0
    0.4283    2.0942    0.4026 H   0  0  0  0  0  0  0  0  0  0  0  0
    1.7357    1.4473    1.4106 H   0  0  0  0  0  0  0  0  0  0  0  0
  1  2  1  0
  2  3  1  0
  3  4  1  0
  4  5  1  0
  4  6  1  0
  4  7  1  0
  7  8  1  0
  7  2  1  0
  1  9  1  0
  1 10  1  0
  1 11  1  0
  2 12  1  0
  5 13  1  0
  5 14  1  0
  5 15  1  0
  6 16  1  0
  6 17  1  0
  6 18  1  0
  7 19  1  0
  8 20  1  0
  8 21  1  0
  8 22  1  0
M  END
