
     RDKit          3D

 20 21  0  0  0  0  0  0  0  0999 V2000
    2.6506    0.2159    0.0018 C   0  0  0  0  0  0  0  0  0  0  0  0
    1.2872   -0.3503   -0.3044 C   0  0  0  0  0  0  0  0  0  0  0  0
    0.8814   -1.4076    0.4865 O   0  0  0  0  0  0  0  0  0  0  0  0
   -0.2799   -0.7947    0.9225 C   0  0  0  0  0  0  0  0  0  0  0  0
   -1.5260   -1.1095    0.1393 C   0  0  0  0  0  0  0  0  0  0  0  0
   -2.0729    0.2918   -0.1307 C   0  0  0  0  0  0  0  0  0  0  0  0
   -0.8262    0.9990   -0.6125 C   0  0  0  0  0  0  0  0  0  0  0  0
    0.2186    0.4915    0.3365 C   0  0  0  0  0  0  0  0  0  0  0  0
    2.7229    1.1821   -0.5662 H   0  0  0  0  0  0  0  0  0  0  0  0
    3.4660   -0.4553   -0.3105 H   0  0  0  0  0  0  0  0  0  0  0  0
    2.6782    0.4756    1.0736 H   0  0  0  0  0  0  0  0  0  0  0  0
    1.0798   -0.5058   -1.3830 H   0  0  0  0  0  0  0  0  0  0  0  0
   -0.4546   -0.7879    2.0142 H   0  0  0  0  0  0  0  0  0  0  0  0
   -2.2881   -1.6117    0.7768 H   0  0  0  0  0  0  0  0  0  0  0  0
   -1.3483   -1.6744   -0.7777 H   0  0  0  0  0  0  0  0  0  0  0  0
   -2.8731    0.2700   -0.8676 H   0  0  0  0  0  0  0  0  0  0  0  0
   -2.3519    0.7033    0.8551 H   0  0  0  0  0  0  0  0  0  0  0  0
   -0.9208    2.0898   -0.4907 H   0  0  0  0  0  0  0  0  0  0  0  0
   -0.6040    0.7327   -1.6644 H   0  0  0  0  0  0  0  0  0  0  0  0
    0.5612    1.2455    1.0570 H   0  0  0  0  0  0  0  0  0  0  0  0
  1  2  1  0
  2  3  1  0
  3  4  1  0
  4  5  1  0
  5  6  1  0
  6  7  1  0
  7  8  1  0
  8  2  1  0
  8  4  1  0
  1  9  1  0
  1 10  1  0
  1 11  1  0
  2 12  1  0
  4 13  1  0
  5 14  1  0
  5 15  1  0
  6 16  1  0
  6 17  1  0
  7 18  1  0
  7 19  1  0
  8 20  1  0
M  END
