
     RDKit          3D

 14 14  0  0  0  0  0  0  0  0999 V2000
   -1.8012   -0.0366    0.5733 C   0  0  0  0  0  0  0  0  0  0  0  0
   -0.6529    0.1006   -0.4041 C   0  0  0  0  0  0  0  0  0  0  0  0
   -0.0096   -1.1262   -0.4555 O   0  0  0  0  0  0  0  0  0  0  0  0
    1.3417   -0.9544   -0.3799 C   0  0  0  0  0  0  0  0  0  0  0  0
    1.6105    0.4492    0.0163 C   0  0  0  0  0  0  0  0  0  0  0  0
    2.6955    0.9612    0.3183 O   0  0  0  0  0  0  0  0  0  0  0  0
    0.3198    1.1094   -0.0233 C   0  0  0  0  0  0  0  0  0  0  0  0
    0.1207    2.3112    0.2268 O   0  0  0  0  0  0  0  0  0  0  0  0
   -2.5499    0.7533    0.4777 H   0  0  0  0  0  0  0  0  0  0  0  0
   -2.2945   -1.0121    0.3323 H   0  0  0  0  0  0  0  0  0  0  0  0
   -1.4064   -0.0919    1.6231 H   0  0  0  0  0  0  0  0  0  0  0  0
   -1.0544    0.3206   -1.4032 H   0  0  0  0  0  0  0  0  0  0  0  0
    1.7949   -1.5931    0.4263 H   0  0  0  0  0  0  0  0  0  0  0  0
    1.8858   -1.1912   -1.3281 H   0  0  0  0  0  0  0  0  0  0  0  0
  1  2  1  0
  2  3  1  0
  3  4  1  0
  4  5  1  0
  5  6  2  0
  5  7  1  0
  7  8  2  0
  7  2  1  0
  1  9  1  0
  1 10  1  0
  1 11  1  0
  2 12  1  0
  4 13  1  0
  4 14  1  0
M  END
