
     RDKit          3D

 15 15  0  0  0  0  0  0  0  0999 V2000
   -1.8283   -0.0688   -0.2576 C   0  0  0  0  0  0  0  0  0  0  0  0
   -0.5693    0.0556    0.5141 C   0  0  0  0  0  0  0  0  0  0  0  0
   -0.0262    1.3666    0.4247 O   0  0  0  0  0  0  0  0  0  0  0  0
    1.0276    1.3531   -0.5089 C   0  0  0  0  0  0  0  0  0  0  0  0
    1.4980    2.3348   -1.1430 O   0  0  0  0  0  0  0  0  0  0  0  0
    1.5103    0.0036   -0.6409 C   0  0  0  0  0  0  0  0  0  0  0  0
    2.5214   -0.4627   -1.2320 O   0  0  0  0  0  0  0  0  0  0  0  0
    0.5300   -0.8559    0.1070 C   0  0  0  0  0  0  0  0  0  0  0  0
    1.2008   -1.2962    1.2494 O   0  0  0  0  0  0  0  0  0  0  0  0
   -2.7117   -0.3414    0.3831 H   0  0  0  0  0  0  0  0  0  0  0  0
   -1.8142   -0.7779   -1.0901 H   0  0  0  0  0  0  0  0  0  0  0  0
   -2.0894    0.9459   -0.6769 H   0  0  0  0  0  0  0  0  0  0  0  0
   -0.8117   -0.0881    1.6062 H   0  0  0  0  0  0  0  0  0  0  0  0
    0.2358   -1.6850   -0.5522 H   0  0  0  0  0  0  0  0  0  0  0  0
    1.3269   -0.4836    1.8170 H   0  0  0  0  0  0  0  0  0  0  0  0
  1  2  1  0
  2  3  1  0
  3  4  1  0
  4  5  2  0
  4  6  1  0
  6  7  2  0
  6  8  1  0
  8  9  1  0
  8  2  1  0
  1 10  1  0
  1 11  1  0
  1 12  1  0
  2 13  1  0
  8 14  1  0
  9 15  1  0
M  END
