
     RDKit          3D

 21 22  0  0  0  0  0  0  0  0999 V2000
    2.1303   -0.7040    0.4926 C   0  0  0  0  0  0  0  0  0  0  0  0
    1.1329    0.3996    0.5440 C   0  0  0  0  0  0  0  0  0  0  0  0
    0.1057    0.2118    1.4309 O   0  0  0  0  0  0  0  0  0  0  0  0
   -1.0770    0.6170    0.8432 C   0  0  0  0  0  0  0  0  0  0  0  0
   -1.6910   -0.5960    0.1781 C   0  0  0  0  0  0  0  0  0  0  0  0
   -0.7947   -1.2125   -0.8291 C   0  0  0  0  0  0  0  0  0  0  0  0
    0.0650   -0.3892   -1.4745 O   0  0  0  0  0  0  0  0  0  0  0  0
    0.5121    0.7072   -0.8133 C   0  0  0  0  0  0  0  0  0  0  0  0
   -0.6743    1.5468   -0.3134 C   0  0  0  0  0  0  0  0  0  0  0  0
    3.1620   -0.2736    0.4895 H   0  0  0  0  0  0  0  0  0  0  0  0
    2.0583   -1.4044    1.3421 H   0  0  0  0  0  0  0  0  0  0  0  0
    2.0167   -1.2310   -0.4818 H   0  0  0  0  0  0  0  0  0  0  0  0
    1.6490    1.3584    0.8461 H   0  0  0  0  0  0  0  0  0  0  0  0
   -1.7808    1.0925    1.5218 H   0  0  0  0  0  0  0  0  0  0  0  0
   -2.7098   -0.3660   -0.2330 H   0  0  0  0  0  0  0  0  0  0  0  0
   -1.8769   -1.3438    0.9877 H   0  0  0  0  0  0  0  0  0  0  0  0
   -0.2226   -2.0939   -0.4130 H   0  0  0  0  0  0  0  0  0  0  0  0
   -1.4591   -1.6852   -1.6140 H   0  0  0  0  0  0  0  0  0  0  0  0
    1.1832    1.2818   -1.4530 H   0  0  0  0  0  0  0  0  0  0  0  0
   -0.3086    2.5089    0.0492 H   0  0  0  0  0  0  0  0  0  0  0  0
   -1.4204    1.5755   -1.1001 H   0  0  0  0  0  0  0  0  0  0  0  0
  1  2  1  0
  2  3  1  0
  3  4  1  0
  4  5  1  0
  5  6  1  0
  6  7  1  0
  7  8  1  0
  8  9  1  0
  8  2  1  0
  9  4  1  0
  1 10  1  0
  1 11  1  0
  1 12  1  0
  2 13  1  0
  4 14  1  0
  5 15  1  0
  5 16  1  0
  6 17  1  0
  6 18  1  0
  8 19  1  0
  9 20  1  0
  9 21  1  0
M  END
