
     RDKit          3D

 19 20  0  0  0  0  0  0  0  0999 V2000
    2.7502   -0.0237    0.7302 C   0  0  0  0  0  0  0  0  0  0  0  0
    1.3731   -0.6912    0.8441 C   0  0  0  0  0  0  0  0  0  0  0  0
    1.0159   -1.0350   -0.4355 O   0  0  0  0  0  0  0  0  0  0  0  0
    0.0215   -0.1366   -0.8517 C   0  0  0  0  0  0  0  0  0  0  0  0
   -0.6142    0.1985    0.4771 C   0  0  0  0  0  0  0  0  0  0  0  0
   -1.8117   -0.4827    0.9649 C   0  0  0  0  0  0  0  0  0  0  0  0
   -1.8017    1.0210    0.6029 C   0  0  0  0  0  0  0  0  0  0  0  0
   -2.4812    1.3124   -0.6014 O   0  0  0  0  0  0  0  0  0  0  0  0
    0.4849    0.2685    1.3058 O   0  0  0  0  0  0  0  0  0  0  0  0
    3.4795   -0.7131    0.2371 H   0  0  0  0  0  0  0  0  0  0  0  0
    2.5947    0.8329    0.0303 H   0  0  0  0  0  0  0  0  0  0  0  0
    3.1177    0.3232    1.7083 H   0  0  0  0  0  0  0  0  0  0  0  0
    1.3984   -1.5418    1.5556 H   0  0  0  0  0  0  0  0  0  0  0  0
   -0.6651   -0.5578   -1.5828 H   0  0  0  0  0  0  0  0  0  0  0  0
    0.5623    0.7695   -1.2436 H   0  0  0  0  0  0  0  0  0  0  0  0
   -1.8302   -0.7363    2.0479 H   0  0  0  0  0  0  0  0  0  0  0  0
   -2.4469   -1.1335    0.3551 H   0  0  0  0  0  0  0  0  0  0  0  0
   -2.0031    1.7322    1.3997 H   0  0  0  0  0  0  0  0  0  0  0  0
   -3.1442    0.5937   -0.8133 H   0  0  0  0  0  0  0  0  0  0  0  0
  1  2  1  0
  2  3  1  0
  3  4  1  0
  4  5  1  0
  5  6  1  0
  6  7  1  0
  7  8  1  0
  5  9  1  0
  9  2  1  0
  7  5  1  0
  1 10  1  0
  1 11  1  0
  1 12  1  0
  2 13  1  0
  4 14  1  0
  4 15  1  0
  6 16  1  0
  6 17  1  0
  7 18  1  0
  8 19  1  0
M  END
