
     RDKit          3D

 21 22  0  0  0  0  0  0  0  0999 V2000
    3.2719   -0.0136   -0.2386 C   0  0  0  0  0  0  0  0  0  0  0  0
    1.8496   -0.4965   -0.0844 C   0  0  0  0  0  0  0  0  0  0  0  0
    1.3959   -1.0562   -1.3698 O   0  0  0  0  0  0  0  0  0  0  0  0
    0.7279    0.1110   -0.7475 C   0  0  0  0  0  0  0  0  0  0  0  0
   -0.6533   -0.2759   -0.3492 C   0  0  0  0  0  0  0  0  0  0  0  0
   -0.9611    0.0114    1.1199 C   0  0  0  0  0  0  0  0  0  0  0  0
   -2.3616    0.3863    0.6457 C   0  0  0  0  0  0  0  0  0  0  0  0
   -3.1349   -0.7394    0.4398 O   0  0  0  0  0  0  0  0  0  0  0  0
   -1.7084    0.7945   -0.6730 C   0  0  0  0  0  0  0  0  0  0  0  0
    3.9379   -0.9118   -0.3324 H   0  0  0  0  0  0  0  0  0  0  0  0
    3.4092    0.5734   -1.1616 H   0  0  0  0  0  0  0  0  0  0  0  0
    3.5929    0.6061    0.6135 H   0  0  0  0  0  0  0  0  0  0  0  0
    1.6699   -1.1665    0.7749 H   0  0  0  0  0  0  0  0  0  0  0  0
    0.8040    1.0201   -1.3667 H   0  0  0  0  0  0  0  0  0  0  0  0
   -1.0055   -1.2653   -0.6338 H   0  0  0  0  0  0  0  0  0  0  0  0
   -0.3677    0.8815    1.4895 H   0  0  0  0  0  0  0  0  0  0  0  0
   -0.9790   -0.8722    1.7649 H   0  0  0  0  0  0  0  0  0  0  0  0
   -2.8347    1.2099    1.1965 H   0  0  0  0  0  0  0  0  0  0  0  0
   -3.0382   -1.1282   -0.4638 H   0  0  0  0  0  0  0  0  0  0  0  0
   -2.3161    0.5253   -1.5721 H   0  0  0  0  0  0  0  0  0  0  0  0
   -1.2985    1.8061   -0.6914 H   0  0  0  0  0  0  0  0  0  0  0  0
  1  2  1  0
  2  3  1  0
  3  4  1  0
  4  5  1  0
  5  6  1  0
  6  7  1  0
  7  8  1  0
  7  9  1  0
  4  2  1  0
  9  5  1  0
  1 10  1  0
  1 11  1  0
  1 12  1  0
  2 13  1  0
  4 14  1  0
  5 15  1  0
  6 16  1  0
  6 17  1  0
  7 18  1  0
  8 19  1  0
  9 20  1  0
  9 21  1  0
M  END
