
     RDKit          3D

 21 22  0  0  0  0  0  0  0  0999 V2000
    2.7574    0.0478   -0.2707 C   0  0  0  0  0  0  0  0  0  0  0  0
    1.3759   -0.5882   -0.3789 C   0  0  0  0  0  0  0  0  0  0  0  0
    0.7803   -0.7678    0.8461 O   0  0  0  0  0  0  0  0  0  0  0  0
   -0.3176    0.0628    0.9266 C   0  0  0  0  0  0  0  0  0  0  0  0
   -1.5420   -0.3133    0.1406 C   0  0  0  0  0  0  0  0  0  0  0  0
   -1.6604   -1.7575   -0.2129 C   0  0  0  0  0  0  0  0  0  0  0  0
   -0.5257    0.5812   -0.4165 C   0  0  0  0  0  0  0  0  0  0  0  0
   -0.9395    2.0186   -0.6788 C   0  0  0  0  0  0  0  0  0  0  0  0
    0.5347    0.1519   -1.1760 O   0  0  0  0  0  0  0  0  0  0  0  0
    2.9349    0.7263   -1.1403 H   0  0  0  0  0  0  0  0  0  0  0  0
    2.8627    0.6612    0.6426 H   0  0  0  0  0  0  0  0  0  0  0  0
    3.5622   -0.7301   -0.2612 H   0  0  0  0  0  0  0  0  0  0  0  0
    1.5511   -1.5838   -0.8683 H   0  0  0  0  0  0  0  0  0  0  0  0
   -0.4378    0.6363    1.8561 H   0  0  0  0  0  0  0  0  0  0  0  0
   -2.4742    0.1512    0.5024 H   0  0  0  0  0  0  0  0  0  0  0  0
   -2.5021   -1.9413   -0.9324 H   0  0  0  0  0  0  0  0  0  0  0  0
   -1.9484   -2.3142    0.7199 H   0  0  0  0  0  0  0  0  0  0  0  0
   -0.7684   -2.1958   -0.6700 H   0  0  0  0  0  0  0  0  0  0  0  0
   -1.3980    2.0865   -1.6996 H   0  0  0  0  0  0  0  0  0  0  0  0
   -1.7540    2.3468    0.0174 H   0  0  0  0  0  0  0  0  0  0  0  0
   -0.0910    2.7215   -0.6368 H   0  0  0  0  0  0  0  0  0  0  0  0
  1  2  1  0
  2  3  1  0
  3  4  1  0
  4  5  1  0
  5  6  1  0
  5  7  1  0
  7  8  1  0
  7  9  1  0
  9  2  1  0
  7  4  1  0
  1 10  1  0
  1 11  1  0
  1 12  1  0
  2 13  1  0
  4 14  1  0
  5 15  1  0
  6 16  1  0
  6 17  1  0
  6 18  1  0
  8 19  1  0
  8 20  1  0
  8 21  1  0
M  END
