
     RDKit          3D

 18 20  0  0  0  0  0  0  0  0999 V2000
    2.0959    0.5418   -0.7034 C   0  0  0  0  0  0  0  0  0  0  0  0
    1.1476   -0.5368   -0.2705 C   0  0  0  0  0  0  0  0  0  0  0  0
    0.9651   -0.3724    1.1256 O   0  0  0  0  0  0  0  0  0  0  0  0
   -0.3591   -0.0549    1.2292 C   0  0  0  0  0  0  0  0  0  0  0  0
   -0.7397    0.8092    0.0523 C   0  0  0  0  0  0  0  0  0  0  0  0
   -2.0652    0.1079    0.1127 C   0  0  0  0  0  0  0  0  0  0  0  0
   -1.0746   -0.9992    0.3006 C   0  0  0  0  0  0  0  0  0  0  0  0
   -0.2503   -0.3393   -0.7584 C   0  0  0  0  0  0  0  0  0  0  0  0
    2.4119    1.2117    0.1310 H   0  0  0  0  0  0  0  0  0  0  0  0
    3.0315    0.0606   -1.0651 H   0  0  0  0  0  0  0  0  0  0  0  0
    1.6972    1.2032   -1.4904 H   0  0  0  0  0  0  0  0  0  0  0  0
    1.4777   -1.5477   -0.5259 H   0  0  0  0  0  0  0  0  0  0  0  0
   -0.7973    0.1602    2.1837 H   0  0  0  0  0  0  0  0  0  0  0  0
   -0.5632    1.7856   -0.0585 H   0  0  0  0  0  0  0  0  0  0  0  0
   -2.6475    0.0429   -0.8025 H   0  0  0  0  0  0  0  0  0  0  0  0
   -2.5848    0.3404    1.0491 H   0  0  0  0  0  0  0  0  0  0  0  0
   -1.2480   -1.9728    0.4405 H   0  0  0  0  0  0  0  0  0  0  0  0
   -0.4971   -0.4404   -1.7838 H   0  0  0  0  0  0  0  0  0  0  0  0
  1  2  1  0
  2  3  1  0
  3  4  1  0
  4  5  1  0
  5  6  1  0
  6  7  1  0
  7  8  1  0
  8  2  1  0
  7  4  1  0
  8  5  1  0
  1  9  1  0
  1 10  1  0
  1 11  1  0
  2 12  1  0
  4 13  1  0
  5 14  1  0
  6 15  1  0
  6 16  1  0
  7 17  1  0
  8 18  1  0
M  END
