
     RDKit          3D

 15 16  0  0  0  0  0  0  0  0999 V2000
    2.0432    0.2389    0.4925 C   0  0  0  0  0  0  0  0  0  0  0  0
    0.8305   -0.6979    0.4033 C   0  0  0  0  0  0  0  0  0  0  0  0
    0.3943   -0.9101   -1.0041 O   0  0  0  0  0  0  0  0  0  0  0  0
   -0.3641   -0.2828   -0.0593 C   0  0  0  0  0  0  0  0  0  0  0  0
   -1.7705   -0.6808    0.1876 C   0  0  0  0  0  0  0  0  0  0  0  0
   -2.1598    0.3483   -0.7001 O   0  0  0  0  0  0  0  0  0  0  0  0
   -0.9978    1.0301   -0.2660 C   0  0  0  0  0  0  0  0  0  0  0  0
    2.3728    0.5504   -0.5331 H   0  0  0  0  0  0  0  0  0  0  0  0
    1.7701    1.1875    1.0107 H   0  0  0  0  0  0  0  0  0  0  0  0
    2.8950   -0.2535    1.0053 H   0  0  0  0  0  0  0  0  0  0  0  0
    1.0081   -1.6832    0.8804 H   0  0  0  0  0  0  0  0  0  0  0  0
   -2.1375   -0.3873    1.2103 H   0  0  0  0  0  0  0  0  0  0  0  0
   -2.0344   -1.6898   -0.1300 H   0  0  0  0  0  0  0  0  0  0  0  0
   -0.5723    1.7022   -1.0240 H   0  0  0  0  0  0  0  0  0  0  0  0
   -1.2775    1.5280    0.7049 H   0  0  0  0  0  0  0  0  0  0  0  0
  1  2  1  0
  2  3  1  0
  3  4  1  0
  4  5  1  0
  5  6  1  0
  6  7  1  0
  4  2  1  0
  7  4  1  0
  1  8  1  0
  1  9  1  0
  1 10  1  0
  2 11  1  0
  5 12  1  0
  5 13  1  0
  7 14  1  0
  7 15  1  0
M  END
