
     RDKit          3D

 23 23  0  0  0  0  0  0  0  0999 V2000
    2.7575    0.4272   -0.2859 C   0  0  0  0  0  0  0  0  0  0  0  0
    1.4152   -0.0100    0.2924 C   0  0  0  0  0  0  0  0  0  0  0  0
    0.4406    0.4394   -0.5820 O   0  0  0  0  0  0  0  0  0  0  0  0
   -0.2835    1.5211   -0.0780 C   0  0  0  0  0  0  0  0  0  0  0  0
   -1.7246    1.1333    0.2063 C   0  0  0  0  0  0  0  0  0  0  0  0
   -1.9164   -0.3022   -0.2954 C   0  0  0  0  0  0  0  0  0  0  0  0
   -1.0944   -1.2506    0.5307 C   0  0  0  0  0  0  0  0  0  0  0  0
    0.0792   -1.8260   -0.1996 C   0  0  0  0  0  0  0  0  0  0  0  0
    1.3096   -1.4003    0.3465 O   0  0  0  0  0  0  0  0  0  0  0  0
    2.9117    1.4985    0.0071 H   0  0  0  0  0  0  0  0  0  0  0  0
    3.5974   -0.1471    0.0990 H   0  0  0  0  0  0  0  0  0  0  0  0
    2.6568    0.3414   -1.4015 H   0  0  0  0  0  0  0  0  0  0  0  0
    1.3103    0.4079    1.3194 H   0  0  0  0  0  0  0  0  0  0  0  0
   -0.3135    2.2717   -0.9233 H   0  0  0  0  0  0  0  0  0  0  0  0
    0.1911    1.9633    0.8182 H   0  0  0  0  0  0  0  0  0  0  0  0
   -1.9915    1.2372    1.2673 H   0  0  0  0  0  0  0  0  0  0  0  0
   -2.4421    1.7447   -0.3795 H   0  0  0  0  0  0  0  0  0  0  0  0
   -2.9920   -0.4946   -0.2729 H   0  0  0  0  0  0  0  0  0  0  0  0
   -1.5704   -0.2679   -1.3705 H   0  0  0  0  0  0  0  0  0  0  0  0
   -0.7339   -0.7001    1.4368 H   0  0  0  0  0  0  0  0  0  0  0  0
   -1.7953   -2.0570    0.8791 H   0  0  0  0  0  0  0  0  0  0  0  0
    0.0998   -1.5883   -1.2790 H   0  0  0  0  0  0  0  0  0  0  0  0
    0.0883   -2.9416   -0.1352 H   0  0  0  0  0  0  0  0  0  0  0  0
  1  2  1  0
  2  3  1  0
  3  4  1  0
  4  5  1  0
  5  6  1  0
  6  7  1  0
  7  8  1  0
  8  9  1  0
  9  2  1  0
  1 10  1  0
  1 11  1  0
  1 12  1  0
  2 13  1  0
  4 14  1  0
  4 15  1  0
  5 16  1  0
  5 17  1  0
  6 18  1  0
  6 19  1  0
  7 20  1  0
  7 21  1  0
  8 22  1  0
  8 23  1  0
M  END
