
     RDKit          3D

 23 24  0  0  0  0  0  0  0  0999 V2000
    2.6084   -0.8341    0.9565 C   0  0  0  0  0  0  0  0  0  0  0  0
    1.3157   -0.7756    0.2280 C   0  0  0  0  0  0  0  0  0  0  0  0
    0.1576   -0.8605    1.0374 O   0  0  0  0  0  0  0  0  0  0  0  0
   -0.4531   -0.0565    0.1046 C   0  0  0  0  0  0  0  0  0  0  0  0
   -1.3958   -0.5138   -0.8929 C   0  0  0  0  0  0  0  0  0  0  0  0
   -1.7550    0.5295    0.1967 C   0  0  0  0  0  0  0  0  0  0  0  0
   -2.8217    0.1257    1.1778 C   0  0  0  0  0  0  0  0  0  0  0  0
    0.8307    0.6215   -0.1508 C   0  0  0  0  0  0  0  0  0  0  0  0
    1.1351    1.0049   -1.5792 C   0  0  0  0  0  0  0  0  0  0  0  0
    2.8474    0.1832    1.3325 H   0  0  0  0  0  0  0  0  0  0  0  0
    3.3986   -1.1391    0.2132 H   0  0  0  0  0  0  0  0  0  0  0  0
    2.5935   -1.5983    1.7702 H   0  0  0  0  0  0  0  0  0  0  0  0
    1.2123   -1.5313   -0.5757 H   0  0  0  0  0  0  0  0  0  0  0  0
   -1.8283   -1.5335   -0.7595 H   0  0  0  0  0  0  0  0  0  0  0  0
   -1.3399   -0.1641   -1.9308 H   0  0  0  0  0  0  0  0  0  0  0  0
   -1.9218    1.5553   -0.2314 H   0  0  0  0  0  0  0  0  0  0  0  0
   -3.8451    0.1669    0.7365 H   0  0  0  0  0  0  0  0  0  0  0  0
   -2.7909    0.8682    2.0088 H   0  0  0  0  0  0  0  0  0  0  0  0
   -2.6790   -0.8909    1.5662 H   0  0  0  0  0  0  0  0  0  0  0  0
    1.1669    1.3684    0.5712 H   0  0  0  0  0  0  0  0  0  0  0  0
    0.6254    0.3497   -2.3008 H   0  0  0  0  0  0  0  0  0  0  0  0
    2.2265    1.1009   -1.7509 H   0  0  0  0  0  0  0  0  0  0  0  0
    0.7124    2.0237   -1.7277 H   0  0  0  0  0  0  0  0  0  0  0  0
  1  2  1  0
  2  3  1  0
  3  4  1  0
  4  5  1  0
  5  6  1  0
  6  7  1  0
  4  8  1  0
  8  9  1  0
  8  2  1  0
  6  4  1  0
  1 10  1  0
  1 11  1  0
  1 12  1  0
  2 13  1  0
  5 14  1  0
  5 15  1  0
  6 16  1  0
  7 17  1  0
  7 18  1  0
  7 19  1  0
  8 20  1  0
  9 21  1  0
  9 22  1  0
  9 23  1  0
M  END
