
     RDKit          3D

 21 22  0  0  0  0  0  0  0  0999 V2000
    1.9833   -0.4503    0.1155 C   0  0  0  0  0  0  0  0  0  0  0  0
    0.8512   -0.2228   -0.8199 C   0  0  0  0  0  0  0  0  0  0  0  0
    0.1504   -1.3786   -1.1550 O   0  0  0  0  0  0  0  0  0  0  0  0
   -1.1832   -1.1552   -0.8873 C   0  0  0  0  0  0  0  0  0  0  0  0
   -1.4698   -1.2254    0.6180 C   0  0  0  0  0  0  0  0  0  0  0  0
   -0.6345   -0.0268    1.0963 C   0  0  0  0  0  0  0  0  0  0  0  0
   -0.2609    0.6161   -0.1918 C   0  0  0  0  0  0  0  0  0  0  0  0
    0.0128    2.0542   -0.1583 C   0  0  0  0  0  0  0  0  0  0  0  0
   -1.3177    0.2468   -1.0572 O   0  0  0  0  0  0  0  0  0  0  0  0
    2.1126    0.4915    0.7214 H   0  0  0  0  0  0  0  0  0  0  0  0
    2.9016   -0.6369   -0.4975 H   0  0  0  0  0  0  0  0  0  0  0  0
    1.8573   -1.3086    0.7893 H   0  0  0  0  0  0  0  0  0  0  0  0
    1.1929    0.3464   -1.7095 H   0  0  0  0  0  0  0  0  0  0  0  0
   -1.8865   -1.7204   -1.4806 H   0  0  0  0  0  0  0  0  0  0  0  0
   -1.1214   -2.1667    1.0382 H   0  0  0  0  0  0  0  0  0  0  0  0
   -2.5449   -1.0204    0.7383 H   0  0  0  0  0  0  0  0  0  0  0  0
   -1.1980    0.6322    1.7562 H   0  0  0  0  0  0  0  0  0  0  0  0
    0.2371   -0.4106    1.6726 H   0  0  0  0  0  0  0  0  0  0  0  0
   -0.8651    2.6221   -0.5596 H   0  0  0  0  0  0  0  0  0  0  0  0
    0.3318    2.4268    0.8378 H   0  0  0  0  0  0  0  0  0  0  0  0
    0.8513    2.2865   -0.8671 H   0  0  0  0  0  0  0  0  0  0  0  0
  1  2  1  0
  2  3  1  0
  3  4  1  0
  4  5  1  0
  5  6  1  0
  6  7  1  0
  7  8  1  0
  7  9  1  0
  7  2  1  0
  9  4  1  0
  1 10  1  0
  1 11  1  0
  1 12  1  0
  2 13  1  0
  4 14  1  0
  5 15  1  0
  5 16  1  0
  6 17  1  0
  6 18  1  0
  8 19  1  0
  8 20  1  0
  8 21  1  0
M  END
