
     RDKit          3D

 18 19  0  0  0  0  0  0  0  0999 V2000
    2.1739   -0.3562   -0.1125 C   0  0  0  0  0  0  0  0  0  0  0  0
    1.1095    0.5940   -0.6661 C   0  0  0  0  0  0  0  0  0  0  0  0
    0.6609    1.4524    0.3005 O   0  0  0  0  0  0  0  0  0  0  0  0
   -0.6210    1.2681    0.7191 C   0  0  0  0  0  0  0  0  0  0  0  0
   -1.0672   -0.1702    0.7524 C   0  0  0  0  0  0  0  0  0  0  0  0
   -2.0416   -0.6476   -0.3105 C   0  0  0  0  0  0  0  0  0  0  0  0
   -0.5737   -0.9679   -0.3789 C   0  0  0  0  0  0  0  0  0  0  0  0
    0.1395   -0.1904   -1.2478 O   0  0  0  0  0  0  0  0  0  0  0  0
    2.8848   -0.5773   -0.9463 H   0  0  0  0  0  0  0  0  0  0  0  0
    1.7072   -1.3366    0.1626 H   0  0  0  0  0  0  0  0  0  0  0  0
    2.6685    0.0878    0.7685 H   0  0  0  0  0  0  0  0  0  0  0  0
    1.5801    1.1867   -1.5016 H   0  0  0  0  0  0  0  0  0  0  0  0
   -1.3564    1.8190    0.0867 H   0  0  0  0  0  0  0  0  0  0  0  0
   -0.7307    1.7264    1.7440 H   0  0  0  0  0  0  0  0  0  0  0  0
   -1.0814   -0.6386    1.7506 H   0  0  0  0  0  0  0  0  0  0  0  0
   -2.7722   -1.3783    0.0385 H   0  0  0  0  0  0  0  0  0  0  0  0
   -2.4573    0.1177   -1.0056 H   0  0  0  0  0  0  0  0  0  0  0  0
   -0.2228   -1.9891   -0.1535 H   0  0  0  0  0  0  0  0  0  0  0  0
  1  2  1  0
  2  3  1  0
  3  4  1  0
  4  5  1  0
  5  6  1  0
  6  7  1  0
  7  8  1  0
  8  2  1  0
  7  5  1  0
  1  9  1  0
  1 10  1  0
  1 11  1  0
  2 12  1  0
  4 13  1  0
  4 14  1  0
  5 15  1  0
  6 16  1  0
  6 17  1  0
  7 18  1  0
M  END
