
     RDKit          3D

 20 21  0  0  0  0  0  0  0  0999 V2000
    2.1628   -0.4627   -0.6857 C   0  0  0  0  0  0  0  0  0  0  0  0
    1.3183    0.2117    0.3316 C   0  0  0  0  0  0  0  0  0  0  0  0
    1.3032    1.6243    0.2351 O   0  0  0  0  0  0  0  0  0  0  0  0
   -0.1037    1.6850    0.3816 C   0  0  0  0  0  0  0  0  0  0  0  0
   -0.1245    0.2156    0.2155 C   0  0  0  0  0  0  0  0  0  0  0  0
   -0.9809   -0.6005    1.0976 C   0  0  0  0  0  0  0  0  0  0  0  0
   -2.0178   -0.5759   -0.0403 C   0  0  0  0  0  0  0  0  0  0  0  0
   -0.8102   -0.3557   -0.9690 C   0  0  0  0  0  0  0  0  0  0  0  0
    1.7013   -0.6079   -1.6633 H   0  0  0  0  0  0  0  0  0  0  0  0
    3.1181    0.1312   -0.7820 H   0  0  0  0  0  0  0  0  0  0  0  0
    2.4890   -1.4539   -0.2950 H   0  0  0  0  0  0  0  0  0  0  0  0
    1.6655   -0.0750    1.3663 H   0  0  0  0  0  0  0  0  0  0  0  0
   -0.4479    2.0061    1.3701 H   0  0  0  0  0  0  0  0  0  0  0  0
   -0.6223    2.1958   -0.4472 H   0  0  0  0  0  0  0  0  0  0  0  0
   -1.3029   -0.1156    2.0176 H   0  0  0  0  0  0  0  0  0  0  0  0
   -0.6229   -1.6560    1.1868 H   0  0  0  0  0  0  0  0  0  0  0  0
   -2.6570    0.3435   -0.0117 H   0  0  0  0  0  0  0  0  0  0  0  0
   -2.5411   -1.5233   -0.1952 H   0  0  0  0  0  0  0  0  0  0  0  0
   -1.1040    0.3386   -1.7707 H   0  0  0  0  0  0  0  0  0  0  0  0
   -0.4231   -1.3252   -1.3422 H   0  0  0  0  0  0  0  0  0  0  0  0
  1  2  1  0
  2  3  1  0
  3  4  1  0
  4  5  1  0
  5  6  1  0
  6  7  1  0
  7  8  1  0
  5  2  1  0
  8  5  1  0
  1  9  1  0
  1 10  1  0
  1 11  1  0
  2 12  1  0
  4 13  1  0
  4 14  1  0
  6 15  1  0
  6 16  1  0
  7 17  1  0
  7 18  1  0
  8 19  1  0
  8 20  1  0
M  END
