
     RDKit          3D

 19 20  0  0  0  0  0  0  0  0999 V2000
    2.2239   -0.2469    0.4600 C   0  0  0  0  0  0  0  0  0  0  0  0
    0.7525   -0.5468    0.3435 C   0  0  0  0  0  0  0  0  0  0  0  0
    0.0496   -0.1248    1.5016 O   0  0  0  0  0  0  0  0  0  0  0  0
   -0.9403    0.6670    0.9862 C   0  0  0  0  0  0  0  0  0  0  0  0
   -0.1578    1.5823    0.0299 C   0  0  0  0  0  0  0  0  0  0  0  0
    0.0510    0.2556   -0.6947 C   0  0  0  0  0  0  0  0  0  0  0  0
   -1.4083   -0.0236   -0.3053 C   0  0  0  0  0  0  0  0  0  0  0  0
   -1.6752   -1.4535   -0.1751 C   0  0  0  0  0  0  0  0  0  0  0  0
   -2.5496   -1.8687    0.5554 O   0  0  0  0  0  0  0  0  0  0  0  0
    2.6488   -1.0278    1.1563 H   0  0  0  0  0  0  0  0  0  0  0  0
    2.4334    0.7464    0.8704 H   0  0  0  0  0  0  0  0  0  0  0  0
    2.6807   -0.4161   -0.5157 H   0  0  0  0  0  0  0  0  0  0  0  0
    0.6198   -1.6196    0.2390 H   0  0  0  0  0  0  0  0  0  0  0  0
   -1.6787    1.1159    1.5953 H   0  0  0  0  0  0  0  0  0  0  0  0
    0.7426    2.0183    0.4704 H   0  0  0  0  0  0  0  0  0  0  0  0
   -0.8752    2.2650   -0.4513 H   0  0  0  0  0  0  0  0  0  0  0  0
    0.3146    0.2504   -1.7065 H   0  0  0  0  0  0  0  0  0  0  0  0
   -2.1431    0.5897   -0.8403 H   0  0  0  0  0  0  0  0  0  0  0  0
   -1.0887   -2.1630   -0.7354 H   0  0  0  0  0  0  0  0  0  0  0  0
  1  2  1  0
  2  3  1  0
  3  4  1  0
  4  5  1  0
  5  6  1  0
  6  7  1  0
  7  8  1  0
  8  9  2  0
  6  2  1  0
  7  4  1  0
  1 10  1  0
  1 11  1  0
  1 12  1  0
  2 13  1  0
  4 14  1  0
  5 15  1  0
  5 16  1  0
  6 17  1  0
  7 18  1  0
  8 19  1  0
M  END
