
     RDKit          3D

 21 22  0  0  0  0  0  0  0  0999 V2000
   -2.6926   -0.5120   -0.5812 C   0  0  0  0  0  0  0  0  0  0  0  0
   -1.4862    0.1053    0.0395 C   0  0  0  0  0  0  0  0  0  0  0  0
   -0.9839    1.1926   -0.6756 O   0  0  0  0  0  0  0  0  0  0  0  0
    0.3175    1.3790   -0.2733 C   0  0  0  0  0  0  0  0  0  0  0  0
    0.8568    0.0279    0.1233 C   0  0  0  0  0  0  0  0  0  0  0  0
    2.1676   -0.3640   -0.4673 C   0  0  0  0  0  0  0  0  0  0  0  0
    3.1133    0.6020   -0.0565 O   0  0  0  0  0  0  0  0  0  0  0  0
    0.5096   -0.5764    1.4284 C   0  0  0  0  0  0  0  0  0  0  0  0
   -0.3178   -0.8357    0.1675 C   0  0  0  0  0  0  0  0  0  0  0  0
   -3.0221    0.1436   -1.4177 H   0  0  0  0  0  0  0  0  0  0  0  0
   -2.5266   -1.5170   -1.0116 H   0  0  0  0  0  0  0  0  0  0  0  0
   -3.5644   -0.5439    0.1312 H   0  0  0  0  0  0  0  0  0  0  0  0
   -1.7854    0.5171    1.0473 H   0  0  0  0  0  0  0  0  0  0  0  0
    0.4456    2.1242    0.5307 H   0  0  0  0  0  0  0  0  0  0  0  0
    0.8881    1.7518   -1.1582 H   0  0  0  0  0  0  0  0  0  0  0  0
    2.1645   -0.3795   -1.5872 H   0  0  0  0  0  0  0  0  0  0  0  0
    2.4762   -1.3526   -0.0595 H   0  0  0  0  0  0  0  0  0  0  0  0
    2.6324    1.4614    0.0418 H   0  0  0  0  0  0  0  0  0  0  0  0
    1.0970   -1.4194    1.7804 H   0  0  0  0  0  0  0  0  0  0  0  0
    0.0715    0.0430    2.2298 H   0  0  0  0  0  0  0  0  0  0  0  0
   -0.3614   -1.8476   -0.2318 H   0  0  0  0  0  0  0  0  0  0  0  0
  1  2  1  0
  2  3  1  0
  3  4  1  0
  4  5  1  0
  5  6  1  0
  6  7  1  0
  5  8  1  0
  8  9  1  0
  9  2  1  0
  9  5  1  0
  1 10  1  0
  1 11  1  0
  1 12  1  0
  2 13  1  0
  4 14  1  0
  4 15  1  0
  6 16  1  0
  6 17  1  0
  7 18  1  0
  8 19  1  0
  8 20  1  0
  9 21  1  0
M  END
