
     RDKit          3D

 19 20  0  0  0  0  0  0  0  0999 V2000
   -2.2863    0.5630    0.2569 C   0  0  0  0  0  0  0  0  0  0  0  0
   -1.5475   -0.7046   -0.1003 C   0  0  0  0  0  0  0  0  0  0  0  0
   -0.8898   -1.2042    1.0348 O   0  0  0  0  0  0  0  0  0  0  0  0
    0.2859   -1.1706    0.3273 C   0  0  0  0  0  0  0  0  0  0  0  0
    0.8358    0.2065    0.0297 C   0  0  0  0  0  0  0  0  0  0  0  0
    2.2656    0.2130   -0.4201 C   0  0  0  0  0  0  0  0  0  0  0  0
    2.7578    1.4747   -0.6891 O   0  0  0  0  0  0  0  0  0  0  0  0
   -0.2464   -0.3603   -0.7716 C   0  0  0  0  0  0  0  0  0  0  0  0
   -0.1465   -0.6920   -2.0936 O   0  0  0  0  0  0  0  0  0  0  0  0
   -2.4226    1.1897   -0.6479 H   0  0  0  0  0  0  0  0  0  0  0  0
   -3.2484    0.3699    0.7579 H   0  0  0  0  0  0  0  0  0  0  0  0
   -1.5868    1.1437    0.9274 H   0  0  0  0  0  0  0  0  0  0  0  0
   -2.1375   -1.4988   -0.5668 H   0  0  0  0  0  0  0  0  0  0  0  0
    0.9085   -2.0540    0.1727 H   0  0  0  0  0  0  0  0  0  0  0  0
    0.5627    1.0059    0.7449 H   0  0  0  0  0  0  0  0  0  0  0  0
    2.4452   -0.4233   -1.3047 H   0  0  0  0  0  0  0  0  0  0  0  0
    2.8697   -0.2227    0.4282 H   0  0  0  0  0  0  0  0  0  0  0  0
    2.1154    2.0862   -1.0990 H   0  0  0  0  0  0  0  0  0  0  0  0
   -0.5347    0.0779   -2.6206 H   0  0  0  0  0  0  0  0  0  0  0  0
  1  2  1  0
  2  3  1  0
  3  4  1  0
  4  5  1  0
  5  6  1  0
  6  7  1  0
  5  8  1  0
  8  9  1  0
  8  2  1  0
  8  4  1  0
  1 10  1  0
  1 11  1  0
  1 12  1  0
  2 13  1  0
  4 14  1  0
  5 15  1  0
  6 16  1  0
  6 17  1  0
  7 18  1  0
  9 19  1  0
M  END
