
     RDKit          3D

 17 17  0  0  0  0  0  0  0  0999 V2000
   -1.9588    0.7269    0.3351 C   0  0  0  0  0  0  0  0  0  0  0  0
   -1.1239   -0.0580   -0.6350 C   0  0  0  0  0  0  0  0  0  0  0  0
   -0.0800    0.7568   -1.1115 O   0  0  0  0  0  0  0  0  0  0  0  0
    0.9594   -0.1210   -0.7295 C   0  0  0  0  0  0  0  0  0  0  0  0
    1.9587    0.5003    0.2063 C   0  0  0  0  0  0  0  0  0  0  0  0
   -0.1013   -0.9733   -0.0762 C   0  0  0  0  0  0  0  0  0  0  0  0
   -0.0221   -1.1078    1.2870 O   0  0  0  0  0  0  0  0  0  0  0  0
   -2.8395    0.1637    0.7028 H   0  0  0  0  0  0  0  0  0  0  0  0
   -1.3907    1.1852    1.1512 H   0  0  0  0  0  0  0  0  0  0  0  0
   -2.3950    1.5884   -0.2525 H   0  0  0  0  0  0  0  0  0  0  0  0
   -1.7770   -0.4728   -1.4356 H   0  0  0  0  0  0  0  0  0  0  0  0
    1.3988   -0.5383   -1.6627 H   0  0  0  0  0  0  0  0  0  0  0  0
    1.7496    1.5839    0.3645 H   0  0  0  0  0  0  0  0  0  0  0  0
    1.9909   -0.0044    1.2039 H   0  0  0  0  0  0  0  0  0  0  0  0
    2.9947    0.4354   -0.2221 H   0  0  0  0  0  0  0  0  0  0  0  0
   -0.1299   -1.9677   -0.6018 H   0  0  0  0  0  0  0  0  0  0  0  0
    0.7663   -1.6974    1.4762 H   0  0  0  0  0  0  0  0  0  0  0  0
  1  2  1  0
  2  3  1  0
  3  4  1  0
  4  5  1  0
  4  6  1  0
  6  7  1  0
  6  2  1  0
  1  8  1  0
  1  9  1  0
  1 10  1  0
  2 11  1  0
  4 12  1  0
  5 13  1  0
  5 14  1  0
  5 15  1  0
  6 16  1  0
  7 17  1  0
M  END
