
     RDKit          3D

 21 22  0  0  0  0  0  0  0  0999 V2000
    2.4129    0.1717    0.6653 C   0  0  0  0  0  0  0  0  0  0  0  0
    1.2698    0.3228   -0.2634 C   0  0  0  0  0  0  0  0  0  0  0  0
    0.3160    1.2727    0.1879 O   0  0  0  0  0  0  0  0  0  0  0  0
   -0.8685    0.6133    0.0156 C   0  0  0  0  0  0  0  0  0  0  0  0
   -2.1418    1.2520    0.2601 C   0  0  0  0  0  0  0  0  0  0  0  0
   -0.5801   -0.7137    0.7348 C   0  0  0  0  0  0  0  0  0  0  0  0
    0.4034   -0.8645   -0.4316 C   0  0  0  0  0  0  0  0  0  0  0  0
    0.8464   -2.0557   -0.7570 O   0  0  0  0  0  0  0  0  0  0  0  0
   -0.7229   -0.2287   -1.2643 C   0  0  0  0  0  0  0  0  0  0  0  0
    3.3645    0.3431    0.0818 H   0  0  0  0  0  0  0  0  0  0  0  0
    2.4473   -0.8255    1.1669 H   0  0  0  0  0  0  0  0  0  0  0  0
    2.3756    0.9588    1.4382 H   0  0  0  0  0  0  0  0  0  0  0  0
    1.5971    0.7302   -1.2648 H   0  0  0  0  0  0  0  0  0  0  0  0
   -2.8592    1.2007   -0.6114 H   0  0  0  0  0  0  0  0  0  0  0  0
   -2.6903    0.9206    1.1692 H   0  0  0  0  0  0  0  0  0  0  0  0
   -1.9931    2.3620    0.4090 H   0  0  0  0  0  0  0  0  0  0  0  0
   -1.4338   -1.4413    0.6560 H   0  0  0  0  0  0  0  0  0  0  0  0
   -0.1300   -0.6200    1.7159 H   0  0  0  0  0  0  0  0  0  0  0  0
    0.2910   -2.7942   -0.3859 H   0  0  0  0  0  0  0  0  0  0  0  0
   -0.3599    0.3260   -2.1311 H   0  0  0  0  0  0  0  0  0  0  0  0
   -1.5444   -0.9304   -1.3912 H   0  0  0  0  0  0  0  0  0  0  0  0
  1  2  1  0
  2  3  1  0
  3  4  1  0
  4  5  1  0
  4  6  1  0
  6  7  1  0
  7  8  1  0
  7  9  1  0
  7  2  1  0
  9  4  1  0
  1 10  1  0
  1 11  1  0
  1 12  1  0
  2 13  1  0
  5 14  1  0
  5 15  1  0
  5 16  1  0
  6 17  1  0
  6 18  1  0
  8 19  1  0
  9 20  1  0
  9 21  1  0
M  END
