
     RDKit          3D

 23 24  0  0  0  0  0  0  0  0999 V2000
   -1.7922    0.9850    0.9024 C   0  0  0  0  0  0  0  0  0  0  0  0
   -1.4857   -0.4846    0.5943 C   0  0  0  0  0  0  0  0  0  0  0  0
   -2.2821   -0.8467   -0.5181 O   0  0  0  0  0  0  0  0  0  0  0  0
   -1.2666   -0.2569   -1.3108 C   0  0  0  0  0  0  0  0  0  0  0  0
   -0.3124   -0.6260   -0.2452 C   0  0  0  0  0  0  0  0  0  0  0  0
    0.7147   -1.6051   -0.2753 C   0  0  0  0  0  0  0  0  0  0  0  0
    1.0216   -0.1319   -0.0554 C   0  0  0  0  0  0  0  0  0  0  0  0
    1.5235    0.1868    1.3530 C   0  0  0  0  0  0  0  0  0  0  0  0
    1.6243    0.6580   -1.1964 C   0  0  0  0  0  0  0  0  0  0  0  0
   -2.8198    1.2548    0.5945 H   0  0  0  0  0  0  0  0  0  0  0  0
   -1.0591    1.6550    0.3689 H   0  0  0  0  0  0  0  0  0  0  0  0
   -1.6640    1.2107    1.9773 H   0  0  0  0  0  0  0  0  0  0  0  0
   -1.5757   -1.1411    1.4604 H   0  0  0  0  0  0  0  0  0  0  0  0
   -1.5209    0.8113   -1.4314 H   0  0  0  0  0  0  0  0  0  0  0  0
   -1.1646   -0.7451   -2.2925 H   0  0  0  0  0  0  0  0  0  0  0  0
    0.9146   -2.3137    0.5728 H   0  0  0  0  0  0  0  0  0  0  0  0
    1.0369   -2.0687   -1.2488 H   0  0  0  0  0  0  0  0  0  0  0  0
    0.6710    0.6123    1.9053 H   0  0  0  0  0  0  0  0  0  0  0  0
    2.3736    0.8715    1.3484 H   0  0  0  0  0  0  0  0  0  0  0  0
    1.8138   -0.7644    1.8874 H   0  0  0  0  0  0  0  0  0  0  0  0
    2.5989    0.2972   -1.5200 H   0  0  0  0  0  0  0  0  0  0  0  0
    1.7549    1.6978   -0.8208 H   0  0  0  0  0  0  0  0  0  0  0  0
    0.8953    0.7438   -2.0498 H   0  0  0  0  0  0  0  0  0  0  0  0
  1  2  1  0
  2  3  1  0
  3  4  1  0
  4  5  1  0
  5  6  1  0
  6  7  1  0
  7  8  1  0
  7  9  1  0
  5  2  1  0
  7  5  1  0
  1 10  1  0
  1 11  1  0
  1 12  1  0
  2 13  1  0
  4 14  1  0
  4 15  1  0
  6 16  1  0
  6 17  1  0
  8 18  1  0
  8 19  1  0
  8 20  1  0
  9 21  1  0
  9 22  1  0
  9 23  1  0
M  END
