
     RDKit          3D

 19 20  0  0  0  0  0  0  0  0999 V2000
   -2.6992    0.2268    0.1294 C   0  0  0  0  0  0  0  0  0  0  0  0
   -1.7965   -0.9418    0.4248 C   0  0  0  0  0  0  0  0  0  0  0  0
   -1.0156   -1.3762   -0.7330 O   0  0  0  0  0  0  0  0  0  0  0  0
   -0.3513   -0.8379    0.4819 C   0  0  0  0  0  0  0  0  0  0  0  0
    0.3948    0.4149    0.0936 C   0  0  0  0  0  0  0  0  0  0  0  0
    1.0278    0.9442    1.2066 O   0  0  0  0  0  0  0  0  0  0  0  0
    1.4032    0.0524   -0.9629 C   0  0  0  0  0  0  0  0  0  0  0  0
    2.8097    0.3186   -0.8156 C   0  0  0  0  0  0  0  0  0  0  0  0
    2.3350   -0.9636   -0.3782 O   0  0  0  0  0  0  0  0  0  0  0  0
   -2.2891    1.1118    0.6424 H   0  0  0  0  0  0  0  0  0  0  0  0
   -3.7313    0.0577    0.5127 H   0  0  0  0  0  0  0  0  0  0  0  0
   -2.7987    0.4039   -0.9534 H   0  0  0  0  0  0  0  0  0  0  0  0
   -2.2828   -1.7693    0.9455 H   0  0  0  0  0  0  0  0  0  0  0  0
    0.2247   -1.5735    1.0351 H   0  0  0  0  0  0  0  0  0  0  0  0
   -0.2799    1.1975   -0.3101 H   0  0  0  0  0  0  0  0  0  0  0  0
    1.3644    1.8519    0.9415 H   0  0  0  0  0  0  0  0  0  0  0  0
    1.0134   -0.3266   -1.9184 H   0  0  0  0  0  0  0  0  0  0  0  0
    3.4703    0.2234   -1.6843 H   0  0  0  0  0  0  0  0  0  0  0  0
    3.2009    0.9857   -0.0132 H   0  0  0  0  0  0  0  0  0  0  0  0
  1  2  1  0
  2  3  1  0
  3  4  1  0
  4  5  1  0
  5  6  1  0
  5  7  1  0
  7  8  1  0
  8  9  1  0
  4  2  1  0
  9  7  1  0
  1 10  1  0
  1 11  1  0
  1 12  1  0
  2 13  1  0
  4 14  1  0
  5 15  1  0
  6 16  1  0
  7 17  1  0
  8 18  1  0
  8 19  1  0
M  END
