
     RDKit          3D

 19 20  0  0  0  0  0  0  0  0999 V2000
   -2.4420   -0.0578   -0.1422 C   0  0  0  0  0  0  0  0  0  0  0  0
   -1.0483    0.5097   -0.0608 C   0  0  0  0  0  0  0  0  0  0  0  0
   -0.8244    1.3733    1.0172 O   0  0  0  0  0  0  0  0  0  0  0  0
    0.4130    0.7521    1.2119 C   0  0  0  0  0  0  0  0  0  0  0  0
    1.5009    1.2676    0.3497 C   0  0  0  0  0  0  0  0  0  0  0  0
    1.8390    0.4240   -0.6105 C   0  0  0  0  0  0  0  0  0  0  0  0
    1.0119   -0.7873   -0.5200 C   0  0  0  0  0  0  0  0  0  0  0  0
    1.7327   -1.9346   -0.2176 O   0  0  0  0  0  0  0  0  0  0  0  0
   -0.0416   -0.4650    0.4812 C   0  0  0  0  0  0  0  0  0  0  0  0
   -3.0182    0.1021    0.7962 H   0  0  0  0  0  0  0  0  0  0  0  0
   -2.4430   -1.1503   -0.3363 H   0  0  0  0  0  0  0  0  0  0  0  0
   -2.9508    0.4077   -1.0138 H   0  0  0  0  0  0  0  0  0  0  0  0
   -0.7247    1.0238   -0.9902 H   0  0  0  0  0  0  0  0  0  0  0  0
    0.7013    0.6168    2.2754 H   0  0  0  0  0  0  0  0  0  0  0  0
    2.0116    2.2527    0.4574 H   0  0  0  0  0  0  0  0  0  0  0  0
    2.6308    0.5985   -1.3765 H   0  0  0  0  0  0  0  0  0  0  0  0
    0.5530   -0.9520   -1.5388 H   0  0  0  0  0  0  0  0  0  0  0  0
    1.5426   -2.6835   -0.8574 H   0  0  0  0  0  0  0  0  0  0  0  0
   -0.4437   -1.2978    1.0749 H   0  0  0  0  0  0  0  0  0  0  0  0
  1  2  1  0
  2  3  1  0
  3  4  1  0
  4  5  1  0
  5  6  2  0
  6  7  1  0
  7  8  1  0
  7  9  1  0
  9  2  1  0
  9  4  1  0
  1 10  1  0
  1 11  1  0
  1 12  1  0
  2 13  1  0
  4 14  1  0
  5 15  1  0
  6 16  1  0
  7 17  1  0
  8 18  1  0
  9 19  1  0
M  END
