
     RDKit          3D

 19 21  0  0  0  0  0  0  0  0999 V2000
    2.3788    0.0225   -0.1981 C   0  0  0  0  0  0  0  0  0  0  0  0
    1.0035    0.5576    0.0129 C   0  0  0  0  0  0  0  0  0  0  0  0
    0.2610    0.6948   -1.1306 O   0  0  0  0  0  0  0  0  0  0  0  0
   -1.0919    0.7065   -0.9660 C   0  0  0  0  0  0  0  0  0  0  0  0
   -1.7019   -0.4795   -0.3769 C   0  0  0  0  0  0  0  0  0  0  0  0
   -0.6422   -1.3141    0.2996 C   0  0  0  0  0  0  0  0  0  0  0  0
    0.1883   -0.2527    0.9919 C   0  0  0  0  0  0  0  0  0  0  0  0
   -0.8140    0.6183    1.4374 O   0  0  0  0  0  0  0  0  0  0  0  0
   -1.6294    0.8299    0.3754 C   0  0  0  0  0  0  0  0  0  0  0  0
    2.4258   -1.0417   -0.4378 H   0  0  0  0  0  0  0  0  0  0  0  0
    2.9692    0.2668    0.7334 H   0  0  0  0  0  0  0  0  0  0  0  0
    2.8574    0.5919   -1.0051 H   0  0  0  0  0  0  0  0  0  0  0  0
    1.1194    1.5945    0.4469 H   0  0  0  0  0  0  0  0  0  0  0  0
   -1.6734    1.2345   -1.7739 H   0  0  0  0  0  0  0  0  0  0  0  0
   -2.6602   -0.9068   -0.6554 H   0  0  0  0  0  0  0  0  0  0  0  0
   -1.1430   -1.8986    1.0909 H   0  0  0  0  0  0  0  0  0  0  0  0
   -0.0645   -1.9291   -0.3950 H   0  0  0  0  0  0  0  0  0  0  0  0
    0.7654   -0.6986    1.7955 H   0  0  0  0  0  0  0  0  0  0  0  0
   -2.5483    1.4038    0.5612 H   0  0  0  0  0  0  0  0  0  0  0  0
  1  2  1  0
  2  3  1  0
  3  4  1  0
  4  5  1  0
  5  6  1  0
  6  7  1  0
  7  8  1  0
  8  9  1  0
  7  2  1  0
  9  4  1  0
  9  5  1  0
  1 10  1  0
  1 11  1  0
  1 12  1  0
  2 13  1  0
  4 14  1  0
  5 15  1  0
  6 16  1  0
  6 17  1  0
  7 18  1  0
  9 19  1  0
M  END
