
     RDKit          3D

 19 19  0  0  0  0  0  0  0  0999 V2000
   -0.9050    1.7520    0.3627 C   0  0  0  0  0  0  0  0  0  0  0  0
    0.0779    0.6275    0.2738 C   0  0  0  0  0  0  0  0  0  0  0  0
    0.8090    0.6698   -0.9083 O   0  0  0  0  0  0  0  0  0  0  0  0
    2.0329    0.0336   -0.6583 C   0  0  0  0  0  0  0  0  0  0  0  0
    1.7519   -1.3197   -0.1402 C   0  0  0  0  0  0  0  0  0  0  0  0
    2.7084   -2.0617    0.1484 O   0  0  0  0  0  0  0  0  0  0  0  0
    0.4114   -1.6856   -0.0052 O   0  0  0  0  0  0  0  0  0  0  0  0
   -0.5484   -0.7300    0.4740 C   0  0  0  0  0  0  0  0  0  0  0  0
   -1.8268   -0.9206   -0.2654 C   0  0  0  0  0  0  0  0  0  0  0  0
   -0.3859    2.6666   -0.0405 H   0  0  0  0  0  0  0  0  0  0  0  0
   -1.7792    1.5950   -0.2927 H   0  0  0  0  0  0  0  0  0  0  0  0
   -1.1807    2.0018    1.4003 H   0  0  0  0  0  0  0  0  0  0  0  0
    0.8231    0.7772    1.1001 H   0  0  0  0  0  0  0  0  0  0  0  0
    2.5706    0.6403    0.0792 H   0  0  0  0  0  0  0  0  0  0  0  0
    2.5601   -0.0384   -1.6313 H   0  0  0  0  0  0  0  0  0  0  0  0
   -0.7103   -0.9815    1.5327 H   0  0  0  0  0  0  0  0  0  0  0  0
   -1.6734   -0.5310   -1.3097 H   0  0  0  0  0  0  0  0  0  0  0  0
   -2.7044   -0.4756    0.2159 H   0  0  0  0  0  0  0  0  0  0  0  0
   -2.0313   -2.0194   -0.3354 H   0  0  0  0  0  0  0  0  0  0  0  0
  1  2  1  0
  2  3  1  0
  3  4  1  0
  4  5  1  0
  5  6  2  0
  5  7  1  0
  7  8  1  0
  8  9  1  0
  8  2  1  0
  1 10  1  0
  1 11  1  0
  1 12  1  0
  2 13  1  0
  4 14  1  0
  4 15  1  0
  8 16  1  0
  9 17  1  0
  9 18  1  0
  9 19  1  0
M  END
