
     RDKit          3D

 18 19  0  0  0  0  0  0  0  0999 V2000
   -2.2594   -0.7586   -0.4406 C   0  0  0  0  0  0  0  0  0  0  0  0
   -1.2422    0.3273   -0.7292 C   0  0  0  0  0  0  0  0  0  0  0  0
   -1.1937    1.2148    0.4641 O   0  0  0  0  0  0  0  0  0  0  0  0
   -0.1157    0.4773    0.0261 C   0  0  0  0  0  0  0  0  0  0  0  0
    1.1047    1.3005   -0.3125 C   0  0  0  0  0  0  0  0  0  0  0  0
    2.1904    0.2586   -0.3823 C   0  0  0  0  0  0  0  0  0  0  0  0
    1.8197   -0.8072    0.2926 C   0  0  0  0  0  0  0  0  0  0  0  0
    0.4733   -0.6120    0.8818 C   0  0  0  0  0  0  0  0  0  0  0  0
   -2.1193   -1.1495    0.5904 H   0  0  0  0  0  0  0  0  0  0  0  0
   -3.2580   -0.2344   -0.4165 H   0  0  0  0  0  0  0  0  0  0  0  0
   -2.2636   -1.5473   -1.1920 H   0  0  0  0  0  0  0  0  0  0  0  0
   -1.4783    0.9197   -1.6593 H   0  0  0  0  0  0  0  0  0  0  0  0
    1.0125    1.8467   -1.2607 H   0  0  0  0  0  0  0  0  0  0  0  0
    1.3076    1.9909    0.5247 H   0  0  0  0  0  0  0  0  0  0  0  0
    3.1248    0.3985   -0.9171 H   0  0  0  0  0  0  0  0  0  0  0  0
    2.4658   -1.6967    0.3745 H   0  0  0  0  0  0  0  0  0  0  0  0
   -0.0718   -1.5884    0.7486 H   0  0  0  0  0  0  0  0  0  0  0  0
    0.5034   -0.3403    1.9508 H   0  0  0  0  0  0  0  0  0  0  0  0
  1  2  1  0
  2  3  1  0
  3  4  1  0
  4  5  1  0
  5  6  1  0
  6  7  2  0
  7  8  1  0
  4  2  1  0
  8  4  1  0
  1  9  1  0
  1 10  1  0
  1 11  1  0
  2 12  1  0
  5 13  1  0
  5 14  1  0
  6 15  1  0
  7 16  1  0
  8 17  1  0
  8 18  1  0
M  END
