
     RDKit          3D

 21 22  0  0  0  0  0  0  0  0999 V2000
   -1.6993   -1.3149   -0.5385 C   0  0  0  0  0  0  0  0  0  0  0  0
   -0.9972   -0.4008    0.3929 C   0  0  0  0  0  0  0  0  0  0  0  0
   -1.6597    0.8490    0.5266 O   0  0  0  0  0  0  0  0  0  0  0  0
   -0.6481    1.7510    0.3359 C   0  0  0  0  0  0  0  0  0  0  0  0
    0.5836    1.1495    1.0289 C   0  0  0  0  0  0  0  0  0  0  0  0
    0.3424    0.0594   -0.0293 C   0  0  0  0  0  0  0  0  0  0  0  0
    1.4219   -0.8371   -0.3340 C   0  0  0  0  0  0  0  0  0  0  0  0
    1.7135   -1.6160    0.8066 O   0  0  0  0  0  0  0  0  0  0  0  0
    0.0168    1.2162   -0.9451 C   0  0  0  0  0  0  0  0  0  0  0  0
   -1.4219   -2.3757   -0.2775 H   0  0  0  0  0  0  0  0  0  0  0  0
   -1.3304   -1.1469   -1.5599 H   0  0  0  0  0  0  0  0  0  0  0  0
   -2.7920   -1.2717   -0.4839 H   0  0  0  0  0  0  0  0  0  0  0  0
   -1.0019   -0.8191    1.4406 H   0  0  0  0  0  0  0  0  0  0  0  0
   -0.7953    2.7944    0.4103 H   0  0  0  0  0  0  0  0  0  0  0  0
    0.3805    0.7263    2.0133 H   0  0  0  0  0  0  0  0  0  0  0  0
    1.4854    1.7349    0.8755 H   0  0  0  0  0  0  0  0  0  0  0  0
    2.3516   -0.2716   -0.5435 H   0  0  0  0  0  0  0  0  0  0  0  0
    1.2103   -1.4484   -1.2055 H   0  0  0  0  0  0  0  0  0  0  0  0
    2.6553   -1.6194    1.0325 H   0  0  0  0  0  0  0  0  0  0  0  0
    0.9187    1.7986   -1.2332 H   0  0  0  0  0  0  0  0  0  0  0  0
   -0.7342    1.0426   -1.7127 H   0  0  0  0  0  0  0  0  0  0  0  0
  1  2  1  0
  2  3  1  0
  3  4  1  0
  4  5  1  0
  5  6  1  0
  6  7  1  0
  7  8  1  0
  6  9  1  0
  6  2  1  0
  9  4  1  0
  1 10  1  0
  1 11  1  0
  1 12  1  0
  2 13  1  0
  4 14  1  0
  5 15  1  0
  5 16  1  0
  7 17  1  0
  7 18  1  0
  8 19  1  0
  9 20  1  0
  9 21  1  0
M  END
