
     RDKit          3D

 23 24  0  0  0  0  0  0  0  0999 V2000
    2.9485    0.2530   -0.6279 C   0  0  0  0  0  0  0  0  0  0  0  0
    2.4871   -0.4028    0.6428 C   0  0  0  0  0  0  0  0  0  0  0  0
    1.6911   -1.5510    0.4529 O   0  0  0  0  0  0  0  0  0  0  0  0
    1.1368   -0.3553    1.0970 C   0  0  0  0  0  0  0  0  0  0  0  0
   -0.0073    0.2246    0.3344 C   0  0  0  0  0  0  0  0  0  0  0  0
   -1.3561    0.2044    0.9320 C   0  0  0  0  0  0  0  0  0  0  0  0
   -2.4040    1.2225    0.5818 C   0  0  0  0  0  0  0  0  0  0  0  0
   -1.0184   -0.7567   -0.1602 C   0  0  0  0  0  0  0  0  0  0  0  0
   -1.5786   -0.5796   -1.5430 C   0  0  0  0  0  0  0  0  0  0  0  0
    3.4621   -0.5279   -1.2418 H   0  0  0  0  0  0  0  0  0  0  0  0
    2.1187    0.7037   -1.2075 H   0  0  0  0  0  0  0  0  0  0  0  0
    3.7293    1.0209   -0.3687 H   0  0  0  0  0  0  0  0  0  0  0  0
    3.3033   -0.5183    1.4047 H   0  0  0  0  0  0  0  0  0  0  0  0
    0.9090   -0.5789    2.1659 H   0  0  0  0  0  0  0  0  0  0  0  0
    0.2505    1.0401   -0.3667 H   0  0  0  0  0  0  0  0  0  0  0  0
   -1.4068   -0.1517    1.9834 H   0  0  0  0  0  0  0  0  0  0  0  0
   -2.4407    2.0772    1.2675 H   0  0  0  0  0  0  0  0  0  0  0  0
   -3.3967    0.7029    0.6870 H   0  0  0  0  0  0  0  0  0  0  0  0
   -2.3474    1.5107   -0.4904 H   0  0  0  0  0  0  0  0  0  0  0  0
   -0.9765   -1.8229    0.1646 H   0  0  0  0  0  0  0  0  0  0  0  0
   -1.1483   -1.4094   -2.1677 H   0  0  0  0  0  0  0  0  0  0  0  0
   -1.2614    0.3581   -2.0307 H   0  0  0  0  0  0  0  0  0  0  0  0
   -2.6941   -0.6635   -1.5092 H   0  0  0  0  0  0  0  0  0  0  0  0
  1  2  1  0
  2  3  1  0
  3  4  1  0
  4  5  1  0
  5  6  1  0
  6  7  1  0
  6  8  1  0
  8  9  1  0
  4  2  1  0
  8  5  1  0
  1 10  1  0
  1 11  1  0
  1 12  1  0
  2 13  1  0
  4 14  1  0
  5 15  1  0
  6 16  1  0
  7 17  1  0
  7 18  1  0
  7 19  1  0
  8 20  1  0
  9 21  1  0
  9 22  1  0
  9 23  1  0
M  END
