
     RDKit          3D

 19 20  0  0  0  0  0  0  0  0999 V2000
    2.6985    0.4856   -0.2126 C   0  0  0  0  0  0  0  0  0  0  0  0
    1.1613    0.4927   -0.1249 C   0  0  0  0  0  0  0  0  0  0  0  0
    0.8492    0.2418    1.1738 O   0  0  0  0  0  0  0  0  0  0  0  0
   -0.3491   -0.3088    1.4452 C   0  0  0  0  0  0  0  0  0  0  0  0
   -1.1571   -0.7950    0.3081 C   0  0  0  0  0  0  0  0  0  0  0  0
   -1.6460    0.3189   -0.6221 C   0  0  0  0  0  0  0  0  0  0  0  0
   -2.9519    0.1497   -1.0416 O   0  0  0  0  0  0  0  0  0  0  0  0
   -0.6282   -0.6566   -1.0303 C   0  0  0  0  0  0  0  0  0  0  0  0
    0.7167   -0.4042   -1.0473 O   0  0  0  0  0  0  0  0  0  0  0  0
    3.0948   -0.2165    0.5786 H   0  0  0  0  0  0  0  0  0  0  0  0
    3.1203    1.4814   -0.0888 H   0  0  0  0  0  0  0  0  0  0  0  0
    3.0352    0.0440   -1.1738 H   0  0  0  0  0  0  0  0  0  0  0  0
    0.8702    1.5161   -0.4707 H   0  0  0  0  0  0  0  0  0  0  0  0
   -0.1988   -1.1360    2.1966 H   0  0  0  0  0  0  0  0  0  0  0  0
   -0.9693    0.4492    2.0080 H   0  0  0  0  0  0  0  0  0  0  0  0
   -1.8410   -1.6336    0.5298 H   0  0  0  0  0  0  0  0  0  0  0  0
   -1.3544    1.3506   -0.4198 H   0  0  0  0  0  0  0  0  0  0  0  0
   -3.4962    0.0139   -0.2009 H   0  0  0  0  0  0  0  0  0  0  0  0
   -0.9544   -1.3934   -1.8074 H   0  0  0  0  0  0  0  0  0  0  0  0
  1  2  1  0
  2  3  1  0
  3  4  1  0
  4  5  1  0
  5  6  1  0
  6  7  1  0
  6  8  1  0
  8  9  1  0
  9  2  1  0
  8  5  1  0
  1 10  1  0
  1 11  1  0
  1 12  1  0
  2 13  1  0
  4 14  1  0
  4 15  1  0
  5 16  1  0
  6 17  1  0
  7 18  1  0
  8 19  1  0
M  END
