
     RDKit          3D

 18 19  0  0  0  0  0  0  0  0999 V2000
   -1.1351   -1.6918   -0.3940 C   0  0  0  0  0  0  0  0  0  0  0  0
   -0.7561   -0.3445    0.1288 C   0  0  0  0  0  0  0  0  0  0  0  0
   -1.6105    0.6728   -0.2582 O   0  0  0  0  0  0  0  0  0  0  0  0
   -0.9246    1.8263    0.1497 C   0  0  0  0  0  0  0  0  0  0  0  0
    0.5330    1.5852   -0.1547 C   0  0  0  0  0  0  0  0  0  0  0  0
    0.7648    0.9723   -1.3685 O   0  0  0  0  0  0  0  0  0  0  0  0
    0.6190    0.0718   -0.3517 C   0  0  0  0  0  0  0  0  0  0  0  0
    1.7951   -0.6688    0.2053 C   0  0  0  0  0  0  0  0  0  0  0  0
   -0.2316   -2.1713   -0.8461 H   0  0  0  0  0  0  0  0  0  0  0  0
   -1.5055   -2.2910    0.4795 H   0  0  0  0  0  0  0  0  0  0  0  0
   -1.9153   -1.6833   -1.1671 H   0  0  0  0  0  0  0  0  0  0  0  0
   -0.6978   -0.3277    1.2542 H   0  0  0  0  0  0  0  0  0  0  0  0
   -1.3578    2.6618   -0.4439 H   0  0  0  0  0  0  0  0  0  0  0  0
   -1.1233    2.0461    1.2109 H   0  0  0  0  0  0  0  0  0  0  0  0
    1.3231    2.0177    0.4477 H   0  0  0  0  0  0  0  0  0  0  0  0
    1.4909   -1.0414    1.2211 H   0  0  0  0  0  0  0  0  0  0  0  0
    2.7060   -0.0642    0.3153 H   0  0  0  0  0  0  0  0  0  0  0  0
    2.0258   -1.5701   -0.4283 H   0  0  0  0  0  0  0  0  0  0  0  0
  1  2  1  0
  2  3  1  0
  3  4  1  0
  4  5  1  0
  5  6  1  0
  6  7  1  0
  7  8  1  0
  7  2  1  0
  7  5  1  0
  1  9  1  0
  1 10  1  0
  1 11  1  0
  2 12  1  0
  4 13  1  0
  4 14  1  0
  5 15  1  0
  8 16  1  0
  8 17  1  0
  8 18  1  0
M  END
