
     RDKit          3D

 21 22  0  0  0  0  0  0  0  0999 V2000
    2.4692   -0.2996   -0.1034 C   0  0  0  0  0  0  0  0  0  0  0  0
    1.1751    0.2974   -0.5873 C   0  0  0  0  0  0  0  0  0  0  0  0
    0.2951   -0.7646   -0.8461 O   0  0  0  0  0  0  0  0  0  0  0  0
   -0.9006   -0.4640   -0.1917 C   0  0  0  0  0  0  0  0  0  0  0  0
   -1.8170   -1.5905   -0.0566 C   0  0  0  0  0  0  0  0  0  0  0  0
   -1.4758    0.8045   -0.6830 C   0  0  0  0  0  0  0  0  0  0  0  0
   -0.6788    1.7994   -0.2860 C   0  0  0  0  0  0  0  0  0  0  0  0
    0.4792    1.1419    0.4264 C   0  0  0  0  0  0  0  0  0  0  0  0
   -0.3262    0.0386    1.1462 C   0  0  0  0  0  0  0  0  0  0  0  0
    3.3297    0.3728   -0.2803 H   0  0  0  0  0  0  0  0  0  0  0  0
    2.4195   -0.6349    0.9481 H   0  0  0  0  0  0  0  0  0  0  0  0
    2.6447   -1.2188   -0.7097 H   0  0  0  0  0  0  0  0  0  0  0  0
    1.3642    0.8590   -1.5039 H   0  0  0  0  0  0  0  0  0  0  0  0
   -2.6603   -1.3459    0.6049 H   0  0  0  0  0  0  0  0  0  0  0  0
   -1.2840   -2.4407    0.4137 H   0  0  0  0  0  0  0  0  0  0  0  0
   -2.1327   -1.9248   -1.0560 H   0  0  0  0  0  0  0  0  0  0  0  0
   -2.3756    0.9549   -1.2625 H   0  0  0  0  0  0  0  0  0  0  0  0
   -0.8007    2.8667   -0.4253 H   0  0  0  0  0  0  0  0  0  0  0  0
    1.0456    1.7663    1.0606 H   0  0  0  0  0  0  0  0  0  0  0  0
    0.3311   -0.6894    1.6111 H   0  0  0  0  0  0  0  0  0  0  0  0
   -1.1017    0.4718    1.7806 H   0  0  0  0  0  0  0  0  0  0  0  0
  1  2  1  0
  2  3  1  0
  3  4  1  0
  4  5  1  0
  4  6  1  0
  6  7  2  0
  7  8  1  0
  8  9  1  0
  8  2  1  0
  9  4  1  0
  1 10  1  0
  1 11  1  0
  1 12  1  0
  2 13  1  0
  5 14  1  0
  5 15  1  0
  5 16  1  0
  6 17  1  0
  7 18  1  0
  8 19  1  0
  9 20  1  0
  9 21  1  0
M  END
