
     RDKit          3D

 21 22  0  0  0  0  0  0  0  0999 V2000
    2.3752    0.4443   -0.1886 C   0  0  0  0  0  0  0  0  0  0  0  0
    1.1046   -0.3058    0.1869 C   0  0  0  0  0  0  0  0  0  0  0  0
    0.5555   -0.8376   -0.9834 O   0  0  0  0  0  0  0  0  0  0  0  0
   -0.5819   -1.5559   -0.6136 C   0  0  0  0  0  0  0  0  0  0  0  0
   -1.6038   -0.5323   -0.1512 C   0  0  0  0  0  0  0  0  0  0  0  0
   -1.4544    0.7332   -0.9177 C   0  0  0  0  0  0  0  0  0  0  0  0
   -0.4520    1.4509   -0.4214 C   0  0  0  0  0  0  0  0  0  0  0  0
    0.1401    0.6994    0.7461 C   0  0  0  0  0  0  0  0  0  0  0  0
   -1.1094   -0.0533    1.2230 C   0  0  0  0  0  0  0  0  0  0  0  0
    3.1122   -0.3230   -0.5040 H   0  0  0  0  0  0  0  0  0  0  0  0
    2.1353    1.0759   -1.0699 H   0  0  0  0  0  0  0  0  0  0  0  0
    2.7231    1.0268    0.6842 H   0  0  0  0  0  0  0  0  0  0  0  0
    1.3299   -1.1236    0.9138 H   0  0  0  0  0  0  0  0  0  0  0  0
   -0.9182   -2.1004   -1.5118 H   0  0  0  0  0  0  0  0  0  0  0  0
   -0.3903   -2.2197    0.2551 H   0  0  0  0  0  0  0  0  0  0  0  0
   -2.6194   -0.9141   -0.1095 H   0  0  0  0  0  0  0  0  0  0  0  0
   -2.0783    1.0146   -1.7547 H   0  0  0  0  0  0  0  0  0  0  0  0
   -0.0933    2.4250   -0.7776 H   0  0  0  0  0  0  0  0  0  0  0  0
    0.5455    1.3566    1.5045 H   0  0  0  0  0  0  0  0  0  0  0  0
   -1.8658    0.6264    1.6125 H   0  0  0  0  0  0  0  0  0  0  0  0
   -0.8546   -0.8874    1.8773 H   0  0  0  0  0  0  0  0  0  0  0  0
  1  2  1  0
  2  3  1  0
  3  4  1  0
  4  5  1  0
  5  6  1  0
  6  7  2  0
  7  8  1  0
  8  9  1  0
  8  2  1  0
  9  5  1  0
  1 10  1  0
  1 11  1  0
  1 12  1  0
  2 13  1  0
  4 14  1  0
  4 15  1  0
  5 16  1  0
  6 17  1  0
  7 18  1  0
  8 19  1  0
  9 20  1  0
  9 21  1  0
M  END
