
     RDKit          3D

 21 22  0  0  0  0  0  0  0  0999 V2000
   -2.6354   -0.5501   -0.5214 C   0  0  0  0  0  0  0  0  0  0  0  0
   -1.8797    0.3757    0.3722 C   0  0  0  0  0  0  0  0  0  0  0  0
   -2.1880    0.2621    1.7490 O   0  0  0  0  0  0  0  0  0  0  0  0
   -0.8839    0.7620    1.9804 C   0  0  0  0  0  0  0  0  0  0  0  0
   -0.4819   -0.0551    0.7517 C   0  0  0  0  0  0  0  0  0  0  0  0
    0.5429    0.5027    0.0506 O   0  0  0  0  0  0  0  0  0  0  0  0
    1.5299   -0.3944   -0.3268 C   0  0  0  0  0  0  0  0  0  0  0  0
    2.9487    0.1395   -0.2476 C   0  0  0  0  0  0  0  0  0  0  0  0
    2.3146   -0.1851   -1.5534 C   0  0  0  0  0  0  0  0  0  0  0  0
   -3.2922    0.0635   -1.1786 H   0  0  0  0  0  0  0  0  0  0  0  0
   -1.9100   -1.1489   -1.1158 H   0  0  0  0  0  0  0  0  0  0  0  0
   -3.3032   -1.2056    0.0725 H   0  0  0  0  0  0  0  0  0  0  0  0
   -1.9768    1.4551    0.1025 H   0  0  0  0  0  0  0  0  0  0  0  0
   -0.8364    1.8490    1.7560 H   0  0  0  0  0  0  0  0  0  0  0  0
   -0.4255    0.4393    2.9129 H   0  0  0  0  0  0  0  0  0  0  0  0
   -0.4632   -1.1247    0.9632 H   0  0  0  0  0  0  0  0  0  0  0  0
    1.3622   -1.4460   -0.0124 H   0  0  0  0  0  0  0  0  0  0  0  0
    3.0855    1.1922    0.0271 H   0  0  0  0  0  0  0  0  0  0  0  0
    3.7422   -0.5405    0.1378 H   0  0  0  0  0  0  0  0  0  0  0  0
    2.6317   -1.0792   -2.1374 H   0  0  0  0  0  0  0  0  0  0  0  0
    2.1186    0.6884   -2.2115 H   0  0  0  0  0  0  0  0  0  0  0  0
  1  2  1  0
  2  3  1  0
  3  4  1  0
  4  5  1  0
  5  6  1  0
  6  7  1  0
  7  8  1  0
  8  9  1  0
  5  2  1  0
  9  7  1  0
  1 10  1  0
  1 11  1  0
  1 12  1  0
  2 13  1  0
  4 14  1  0
  4 15  1  0
  5 16  1  0
  7 17  1  0
  8 18  1  0
  8 19  1  0
  9 20  1  0
  9 21  1  0
M  END
