
     RDKit          3D

 21 22  0  0  0  0  0  0  0  0999 V2000
    2.8375    0.7301   -0.3379 C   0  0  0  0  0  0  0  0  0  0  0  0
    1.4933    0.0857   -0.1653 C   0  0  0  0  0  0  0  0  0  0  0  0
    1.1764   -0.7771   -1.2158 O   0  0  0  0  0  0  0  0  0  0  0  0
   -0.2256   -0.8758   -1.2811 C   0  0  0  0  0  0  0  0  0  0  0  0
   -0.7162   -0.9061    0.1472 C   0  0  0  0  0  0  0  0  0  0  0  0
   -2.2034   -0.6931    0.3080 C   0  0  0  0  0  0  0  0  0  0  0  0
   -1.9246    0.8061    0.2101 C   0  0  0  0  0  0  0  0  0  0  0  0
   -0.5287    0.5162    0.6915 C   0  0  0  0  0  0  0  0  0  0  0  0
    0.4936    1.0769   -0.0925 O   0  0  0  0  0  0  0  0  0  0  0  0
    3.4495    0.6634    0.5992 H   0  0  0  0  0  0  0  0  0  0  0  0
    2.7104    1.8307   -0.5116 H   0  0  0  0  0  0  0  0  0  0  0  0
    3.4125    0.2530   -1.1577 H   0  0  0  0  0  0  0  0  0  0  0  0
    1.5000   -0.4818    0.8012 H   0  0  0  0  0  0  0  0  0  0  0  0
   -0.5405   -1.7415   -1.8746 H   0  0  0  0  0  0  0  0  0  0  0  0
   -0.5709    0.0345   -1.8086 H   0  0  0  0  0  0  0  0  0  0  0  0
   -0.2602   -1.6857    0.7480 H   0  0  0  0  0  0  0  0  0  0  0  0
   -2.8385   -1.0995   -0.4917 H   0  0  0  0  0  0  0  0  0  0  0  0
   -2.5511   -0.9477    1.3144 H   0  0  0  0  0  0  0  0  0  0  0  0
   -2.4571    1.4307    0.9276 H   0  0  0  0  0  0  0  0  0  0  0  0
   -1.9087    1.2091   -0.8109 H   0  0  0  0  0  0  0  0  0  0  0  0
   -0.3477    0.5720    1.7645 H   0  0  0  0  0  0  0  0  0  0  0  0
  1  2  1  0
  2  3  1  0
  3  4  1  0
  4  5  1  0
  5  6  1  0
  6  7  1  0
  7  8  1  0
  8  9  1  0
  9  2  1  0
  8  5  1  0
  1 10  1  0
  1 11  1  0
  1 12  1  0
  2 13  1  0
  4 14  1  0
  4 15  1  0
  5 16  1  0
  6 17  1  0
  6 18  1  0
  7 19  1  0
  7 20  1  0
  8 21  1  0
M  END
