
     RDKit          3D

 17 17  0  0  0  0  0  0  0  0999 V2000
    2.1514    0.4179   -0.2737 C   0  0  0  0  0  0  0  0  0  0  0  0
    1.3089   -0.7751    0.1698 C   0  0  0  0  0  0  0  0  0  0  0  0
    0.8002   -0.4518    1.4465 O   0  0  0  0  0  0  0  0  0  0  0  0
   -0.5722   -0.4106    1.3699 C   0  0  0  0  0  0  0  0  0  0  0  0
   -1.3347   -0.2385    2.3502 O   0  0  0  0  0  0  0  0  0  0  0  0
   -0.9115   -0.6048   -0.0506 C   0  0  0  0  0  0  0  0  0  0  0  0
   -1.3600    0.6453   -0.7395 C   0  0  0  0  0  0  0  0  0  0  0  0
   -2.5268    1.1723   -0.2065 O   0  0  0  0  0  0  0  0  0  0  0  0
    0.2652   -1.0335   -0.6758 O   0  0  0  0  0  0  0  0  0  0  0  0
    2.1286    0.5566   -1.3707 H   0  0  0  0  0  0  0  0  0  0  0  0
    3.1801    0.2617    0.1248 H   0  0  0  0  0  0  0  0  0  0  0  0
    1.7083    1.3453    0.1710 H   0  0  0  0  0  0  0  0  0  0  0  0
    1.9667   -1.6904    0.2059 H   0  0  0  0  0  0  0  0  0  0  0  0
   -1.6540   -1.4262   -0.1174 H   0  0  0  0  0  0  0  0  0  0  0  0
   -1.4549    0.4111   -1.8238 H   0  0  0  0  0  0  0  0  0  0  0  0
   -0.5610    1.4062   -0.6078 H   0  0  0  0  0  0  0  0  0  0  0  0
   -3.1342    0.4145    0.0276 H   0  0  0  0  0  0  0  0  0  0  0  0
  1  2  1  0
  2  3  1  0
  3  4  1  0
  4  5  2  0
  4  6  1  0
  6  7  1  0
  7  8  1  0
  6  9  1  0
  9  2  1  0
  1 10  1  0
  1 11  1  0
  1 12  1  0
  2 13  1  0
  6 14  1  0
  7 15  1  0
  7 16  1  0
  8 17  1  0
M  END
