
     RDKit          3D

 23 24  0  0  0  0  0  0  0  0999 V2000
   -1.0783    2.1750    0.0733 C   0  0  0  0  0  0  0  0  0  0  0  0
   -0.2329    1.1073   -0.6305 C   0  0  0  0  0  0  0  0  0  0  0  0
   -1.0598    0.0675   -0.9347 O   0  0  0  0  0  0  0  0  0  0  0  0
   -1.6184   -0.5630    0.1517 C   0  0  0  0  0  0  0  0  0  0  0  0
   -0.8586   -1.8581    0.3866 C   0  0  0  0  0  0  0  0  0  0  0  0
    0.5341   -1.6639   -0.1360 C   0  0  0  0  0  0  0  0  0  0  0  0
    1.2899   -0.5591    0.4874 C   0  0  0  0  0  0  0  0  0  0  0  0
    2.1999    0.2016   -0.4957 C   0  0  0  0  0  0  0  0  0  0  0  0
    0.9733    0.8010    0.1511 C   0  0  0  0  0  0  0  0  0  0  0  0
   -2.1261    1.8823    0.1437 H   0  0  0  0  0  0  0  0  0  0  0  0
   -0.9049    3.1795   -0.3563 H   0  0  0  0  0  0  0  0  0  0  0  0
   -0.7041    2.2430    1.1380 H   0  0  0  0  0  0  0  0  0  0  0  0
    0.0816    1.5799   -1.6012 H   0  0  0  0  0  0  0  0  0  0  0  0
   -1.5348    0.0496    1.0848 H   0  0  0  0  0  0  0  0  0  0  0  0
   -2.6528   -0.8252   -0.0809 H   0  0  0  0  0  0  0  0  0  0  0  0
   -1.3360   -2.6489   -0.2618 H   0  0  0  0  0  0  0  0  0  0  0  0
   -0.9065   -2.2033    1.4188 H   0  0  0  0  0  0  0  0  0  0  0  0
    1.1416   -2.6058   -0.0371 H   0  0  0  0  0  0  0  0  0  0  0  0
    0.4378   -1.5219   -1.2506 H   0  0  0  0  0  0  0  0  0  0  0  0
    1.7193   -0.7836    1.4868 H   0  0  0  0  0  0  0  0  0  0  0  0
    3.2034    0.4361   -0.1024 H   0  0  0  0  0  0  0  0  0  0  0  0
    2.1845   -0.0791   -1.5486 H   0  0  0  0  0  0  0  0  0  0  0  0
    1.2479    1.5890    0.9134 H   0  0  0  0  0  0  0  0  0  0  0  0
  1  2  1  0
  2  3  1  0
  3  4  1  0
  4  5  1  0
  5  6  1  0
  6  7  1  0
  7  8  1  0
  8  9  1  0
  9  2  1  0
  9  7  1  0
  1 10  1  0
  1 11  1  0
  1 12  1  0
  2 13  1  0
  4 14  1  0
  4 15  1  0
  5 16  1  0
  5 17  1  0
  6 18  1  0
  6 19  1  0
  7 20  1  0
  8 21  1  0
  8 22  1  0
  9 23  1  0
M  END
