
     RDKit          3D

 23 24  0  0  0  0  0  0  0  0999 V2000
    2.5748    0.5574   -0.1836 C   0  0  0  0  0  0  0  0  0  0  0  0
    1.2060    0.3077   -0.7730 C   0  0  0  0  0  0  0  0  0  0  0  0
    0.5942    1.5172   -0.9765 O   0  0  0  0  0  0  0  0  0  0  0  0
   -0.3418    1.7038    0.0396 C   0  0  0  0  0  0  0  0  0  0  0  0
   -0.8973    0.3286    0.2210 C   0  0  0  0  0  0  0  0  0  0  0  0
   -1.8986   -0.0503    1.1906 C   0  0  0  0  0  0  0  0  0  0  0  0
   -2.2081   -0.0610   -0.2677 C   0  0  0  0  0  0  0  0  0  0  0  0
    0.3300   -0.5322    0.1071 C   0  0  0  0  0  0  0  0  0  0  0  0
    0.0804   -1.9038   -0.3894 C   0  0  0  0  0  0  0  0  0  0  0  0
    3.1961    1.0178   -0.9920 H   0  0  0  0  0  0  0  0  0  0  0  0
    2.5035    1.2416    0.6851 H   0  0  0  0  0  0  0  0  0  0  0  0
    3.0745   -0.3925    0.0945 H   0  0  0  0  0  0  0  0  0  0  0  0
    1.3541   -0.1712   -1.7608 H   0  0  0  0  0  0  0  0  0  0  0  0
   -1.0784    2.4359   -0.3147 H   0  0  0  0  0  0  0  0  0  0  0  0
    0.1469    2.0477    0.9866 H   0  0  0  0  0  0  0  0  0  0  0  0
   -2.3117    0.6919    1.8693 H   0  0  0  0  0  0  0  0  0  0  0  0
   -1.8184   -1.0830    1.6405 H   0  0  0  0  0  0  0  0  0  0  0  0
   -2.3806   -1.0190   -0.7810 H   0  0  0  0  0  0  0  0  0  0  0  0
   -2.8828    0.7870   -0.5838 H   0  0  0  0  0  0  0  0  0  0  0  0
    0.7906   -0.5835    1.1237 H   0  0  0  0  0  0  0  0  0  0  0  0
   -0.7967   -2.3213    0.1758 H   0  0  0  0  0  0  0  0  0  0  0  0
   -0.1787   -1.9619   -1.4455 H   0  0  0  0  0  0  0  0  0  0  0  0
    0.9418   -2.5569   -0.1103 H   0  0  0  0  0  0  0  0  0  0  0  0
  1  2  1  0
  2  3  1  0
  3  4  1  0
  4  5  1  0
  5  6  1  0
  6  7  1  0
  5  8  1  0
  8  9  1  0
  8  2  1  0
  7  5  1  0
  1 10  1  0
  1 11  1  0
  1 12  1  0
  2 13  1  0
  4 14  1  0
  4 15  1  0
  6 16  1  0
  6 17  1  0
  7 18  1  0
  7 19  1  0
  8 20  1  0
  9 21  1  0
  9 22  1  0
  9 23  1  0
M  END
