
     RDKit          3D

 18 19  0  0  0  0  0  0  0  0999 V2000
    2.8527    0.4322    0.4236 C   0  0  0  0  0  0  0  0  0  0  0  0
    1.6324    0.1160   -0.3965 C   0  0  0  0  0  0  0  0  0  0  0  0
    1.3971   -1.3382   -0.3681 O   0  0  0  0  0  0  0  0  0  0  0  0
    0.4202   -0.3492    0.1550 C   0  0  0  0  0  0  0  0  0  0  0  0
   -0.8463   -0.3940   -0.6418 C   0  0  0  0  0  0  0  0  0  0  0  0
   -2.0844   -0.9252    0.0951 C   0  0  0  0  0  0  0  0  0  0  0  0
   -1.9628    0.5211   -0.3678 C   0  0  0  0  0  0  0  0  0  0  0  0
   -1.9203    1.4781    0.6262 O   0  0  0  0  0  0  0  0  0  0  0  0
    3.0469    1.5247    0.4024 H   0  0  0  0  0  0  0  0  0  0  0  0
    3.7321   -0.0432   -0.0779 H   0  0  0  0  0  0  0  0  0  0  0  0
    2.7977    0.0364    1.4546 H   0  0  0  0  0  0  0  0  0  0  0  0
    1.6774    0.5247   -1.4273 H   0  0  0  0  0  0  0  0  0  0  0  0
    0.3122   -0.5243    1.2325 H   0  0  0  0  0  0  0  0  0  0  0  0
   -0.7908   -0.7719   -1.7033 H   0  0  0  0  0  0  0  0  0  0  0  0
   -2.7550   -1.6077   -0.4275 H   0  0  0  0  0  0  0  0  0  0  0  0
   -1.9913   -1.0892    1.1925 H   0  0  0  0  0  0  0  0  0  0  0  0
   -2.6689    0.7843   -1.1976 H   0  0  0  0  0  0  0  0  0  0  0  0
   -2.8489    1.6253    0.9822 H   0  0  0  0  0  0  0  0  0  0  0  0
  1  2  1  0
  2  3  1  0
  3  4  1  0
  4  5  1  0
  5  6  1  0
  6  7  1  0
  7  8  1  0
  4  2  1  0
  7  5  1  0
  1  9  1  0
  1 10  1  0
  1 11  1  0
  2 12  1  0
  4 13  1  0
  5 14  1  0
  6 15  1  0
  6 16  1  0
  7 17  1  0
  8 18  1  0
M  END
