
     RDKit          3D

 21 22  0  0  0  0  0  0  0  0999 V2000
    2.2778   -0.0821    0.4443 C   0  0  0  0  0  0  0  0  0  0  0  0
    1.3635    0.1300   -0.7185 C   0  0  0  0  0  0  0  0  0  0  0  0
    0.7909   -1.0182   -1.2576 O   0  0  0  0  0  0  0  0  0  0  0  0
   -0.4548   -0.3717   -1.2978 C   0  0  0  0  0  0  0  0  0  0  0  0
   -1.4364   -1.1256   -0.4495 C   0  0  0  0  0  0  0  0  0  0  0  0
   -1.1188   -0.7418    0.9698 C   0  0  0  0  0  0  0  0  0  0  0  0
   -0.6208    0.6884    0.7952 C   0  0  0  0  0  0  0  0  0  0  0  0
   -1.8006    1.4683    0.7214 O   0  0  0  0  0  0  0  0  0  0  0  0
    0.0648    0.7795   -0.5025 C   0  0  0  0  0  0  0  0  0  0  0  0
    2.5496    0.9086    0.8522 H   0  0  0  0  0  0  0  0  0  0  0  0
    1.8822   -0.6845    1.2502 H   0  0  0  0  0  0  0  0  0  0  0  0
    3.2065   -0.5809    0.0367 H   0  0  0  0  0  0  0  0  0  0  0  0
    1.9357    0.6479   -1.5450 H   0  0  0  0  0  0  0  0  0  0  0  0
   -0.7942   -0.0604   -2.2919 H   0  0  0  0  0  0  0  0  0  0  0  0
   -2.4761   -0.8462   -0.6885 H   0  0  0  0  0  0  0  0  0  0  0  0
   -1.2381   -2.2144   -0.5440 H   0  0  0  0  0  0  0  0  0  0  0  0
   -0.4017   -1.3896    1.4663 H   0  0  0  0  0  0  0  0  0  0  0  0
   -2.0758   -0.7291    1.5536 H   0  0  0  0  0  0  0  0  0  0  0  0
   -0.0712    1.0552    1.6709 H   0  0  0  0  0  0  0  0  0  0  0  0
   -1.5518    2.3808    0.4898 H   0  0  0  0  0  0  0  0  0  0  0  0
   -0.0307    1.7859   -0.9553 H   0  0  0  0  0  0  0  0  0  0  0  0
  1  2  1  0
  2  3  1  0
  3  4  1  0
  4  5  1  0
  5  6  1  0
  6  7  1  0
  7  8  1  0
  7  9  1  0
  9  2  1  0
  9  4  1  0
  1 10  1  0
  1 11  1  0
  1 12  1  0
  2 13  1  0
  4 14  1  0
  5 15  1  0
  5 16  1  0
  6 17  1  0
  6 18  1  0
  7 19  1  0
  8 20  1  0
  9 21  1  0
M  END
