
     RDKit          3D

 23 24  0  0  0  0  0  0  0  0999 V2000
    2.2134    0.8923    0.4458 C   0  0  0  0  0  0  0  0  0  0  0  0
    1.2057    0.4166   -0.5433 C   0  0  0  0  0  0  0  0  0  0  0  0
    0.2820    1.3800   -0.9832 O   0  0  0  0  0  0  0  0  0  0  0  0
   -0.7298    0.6145   -0.4914 C   0  0  0  0  0  0  0  0  0  0  0  0
   -1.8190    1.1342    0.3567 C   0  0  0  0  0  0  0  0  0  0  0  0
   -2.0734    0.5224   -1.0039 C   0  0  0  0  0  0  0  0  0  0  0  0
    0.1326   -0.4942   -0.0563 C   0  0  0  0  0  0  0  0  0  0  0  0
    0.0999   -1.7736   -0.8280 C   0  0  0  0  0  0  0  0  0  0  0  0
    0.0507   -0.7352    1.4176 C   0  0  0  0  0  0  0  0  0  0  0  0
    1.8383    1.0897    1.4477 H   0  0  0  0  0  0  0  0  0  0  0  0
    3.0519    0.1442    0.4517 H   0  0  0  0  0  0  0  0  0  0  0  0
    2.6805    1.8314    0.0428 H   0  0  0  0  0  0  0  0  0  0  0  0
    1.7421    0.0360   -1.4623 H   0  0  0  0  0  0  0  0  0  0  0  0
   -2.0765    0.5753    1.2657 H   0  0  0  0  0  0  0  0  0  0  0  0
   -1.8690    2.2305    0.4848 H   0  0  0  0  0  0  0  0  0  0  0  0
   -2.4422    1.2595   -1.7583 H   0  0  0  0  0  0  0  0  0  0  0  0
   -2.6486   -0.4320   -1.0426 H   0  0  0  0  0  0  0  0  0  0  0  0
    1.1382   -2.2130   -0.7686 H   0  0  0  0  0  0  0  0  0  0  0  0
   -0.6124   -2.5160   -0.4767 H   0  0  0  0  0  0  0  0  0  0  0  0
   -0.0283   -1.5482   -1.9249 H   0  0  0  0  0  0  0  0  0  0  0  0
   -0.9823   -1.1466    1.6185 H   0  0  0  0  0  0  0  0  0  0  0  0
    0.7584   -1.4770    1.7936 H   0  0  0  0  0  0  0  0  0  0  0  0
    0.0878    0.2090    2.0145 H   0  0  0  0  0  0  0  0  0  0  0  0
  1  2  1  0
  2  3  1  0
  3  4  1  0
  4  5  1  0
  5  6  1  0
  4  7  1  0
  7  8  1  0
  7  9  1  0
  7  2  1  0
  6  4  1  0
  1 10  1  0
  1 11  1  0
  1 12  1  0
  2 13  1  0
  5 14  1  0
  5 15  1  0
  6 16  1  0
  6 17  1  0
  8 18  1  0
  8 19  1  0
  8 20  1  0
  9 21  1  0
  9 22  1  0
  9 23  1  0
M  END
