
     RDKit          3D

 23 23  0  0  0  0  0  0  0  0999 V2000
    0.4791    2.0107   -0.1639 C   0  0  0  0  0  0  0  0  0  0  0  0
    0.6353    0.6944    0.5613 C   0  0  0  0  0  0  0  0  0  0  0  0
   -0.4677    0.3063    1.2625 O   0  0  0  0  0  0  0  0  0  0  0  0
   -1.6704    0.5835    0.6661 C   0  0  0  0  0  0  0  0  0  0  0  0
   -1.9668   -0.3652   -0.4356 C   0  0  0  0  0  0  0  0  0  0  0  0
   -0.8729   -1.4180   -0.6255 C   0  0  0  0  0  0  0  0  0  0  0  0
    0.2486   -0.9102   -1.2080 O   0  0  0  0  0  0  0  0  0  0  0  0
    1.1637   -0.3283   -0.4023 C   0  0  0  0  0  0  0  0  0  0  0  0
    2.0232   -1.3016    0.3817 C   0  0  0  0  0  0  0  0  0  0  0  0
    1.4838    2.2165   -0.6382 H   0  0  0  0  0  0  0  0  0  0  0  0
    0.3044    2.8626    0.5178 H   0  0  0  0  0  0  0  0  0  0  0  0
   -0.2301    1.9594   -1.0072 H   0  0  0  0  0  0  0  0  0  0  0  0
    1.4637    0.8621    1.3133 H   0  0  0  0  0  0  0  0  0  0  0  0
   -1.7287    1.6570    0.3456 H   0  0  0  0  0  0  0  0  0  0  0  0
   -2.4625    0.4960    1.4653 H   0  0  0  0  0  0  0  0  0  0  0  0
   -2.0985    0.1452   -1.4024 H   0  0  0  0  0  0  0  0  0  0  0  0
   -2.9015   -0.9315   -0.2278 H   0  0  0  0  0  0  0  0  0  0  0  0
   -0.7105   -2.0152    0.2838 H   0  0  0  0  0  0  0  0  0  0  0  0
   -1.3309   -2.1354   -1.3724 H   0  0  0  0  0  0  0  0  0  0  0  0
    1.8870    0.2348   -1.0657 H   0  0  0  0  0  0  0  0  0  0  0  0
    1.9169   -2.3173   -0.0432 H   0  0  0  0  0  0  0  0  0  0  0  0
    3.1025   -1.0329    0.3482 H   0  0  0  0  0  0  0  0  0  0  0  0
    1.7324   -1.2728    1.4463 H   0  0  0  0  0  0  0  0  0  0  0  0
  1  2  1  0
  2  3  1  0
  3  4  1  0
  4  5  1  0
  5  6  1  0
  6  7  1  0
  7  8  1  0
  8  9  1  0
  8  2  1  0
  1 10  1  0
  1 11  1  0
  1 12  1  0
  2 13  1  0
  4 14  1  0
  4 15  1  0
  5 16  1  0
  5 17  1  0
  6 18  1  0
  6 19  1  0
  8 20  1  0
  9 21  1  0
  9 22  1  0
  9 23  1  0
M  END
