
     RDKit          3D

 23 24  0  0  0  0  0  0  0  0999 V2000
   -1.3533    1.8466   -0.1836 C   0  0  0  0  0  0  0  0  0  0  0  0
   -0.1736    0.9910    0.0560 C   0  0  0  0  0  0  0  0  0  0  0  0
    0.7379    1.2231   -1.0009 O   0  0  0  0  0  0  0  0  0  0  0  0
    1.9821    0.8215   -0.4903 C   0  0  0  0  0  0  0  0  0  0  0  0
    1.9945   -0.6789   -0.5061 C   0  0  0  0  0  0  0  0  0  0  0  0
    0.7623   -1.3247   -0.0212 C   0  0  0  0  0  0  0  0  0  0  0  0
   -0.4345   -0.4663    0.1201 C   0  0  0  0  0  0  0  0  0  0  0  0
   -1.7478   -1.0743   -0.1815 C   0  0  0  0  0  0  0  0  0  0  0  0
   -1.3940   -0.9151    1.2416 C   0  0  0  0  0  0  0  0  0  0  0  0
   -2.3251    1.4290    0.0634 H   0  0  0  0  0  0  0  0  0  0  0  0
   -1.2398    2.7759    0.4484 H   0  0  0  0  0  0  0  0  0  0  0  0
   -1.3799    2.2489   -1.2387 H   0  0  0  0  0  0  0  0  0  0  0  0
    0.3613    1.2826    1.0044 H   0  0  0  0  0  0  0  0  0  0  0  0
    2.1075    1.1935    0.5407 H   0  0  0  0  0  0  0  0  0  0  0  0
    2.8217    1.2102   -1.0905 H   0  0  0  0  0  0  0  0  0  0  0  0
    2.2162   -0.9814   -1.5716 H   0  0  0  0  0  0  0  0  0  0  0  0
    2.9196   -0.9941    0.0559 H   0  0  0  0  0  0  0  0  0  0  0  0
    0.9866   -1.8356    0.9571 H   0  0  0  0  0  0  0  0  0  0  0  0
    0.5082   -2.1776   -0.7143 H   0  0  0  0  0  0  0  0  0  0  0  0
   -2.6100   -0.4964   -0.5466 H   0  0  0  0  0  0  0  0  0  0  0  0
   -1.7442   -2.1207   -0.6081 H   0  0  0  0  0  0  0  0  0  0  0  0
   -1.8389   -0.1243    1.8748 H   0  0  0  0  0  0  0  0  0  0  0  0
   -1.1567   -1.8327    1.7911 H   0  0  0  0  0  0  0  0  0  0  0  0
  1  2  1  0
  2  3  1  0
  3  4  1  0
  4  5  1  0
  5  6  1  0
  6  7  1  0
  7  8  1  0
  8  9  1  0
  7  2  1  0
  9  7  1  0
  1 10  1  0
  1 11  1  0
  1 12  1  0
  2 13  1  0
  4 14  1  0
  4 15  1  0
  5 16  1  0
  5 17  1  0
  6 18  1  0
  6 19  1  0
  8 20  1  0
  8 21  1  0
  9 22  1  0
  9 23  1  0
M  END
