
     RDKit          3D

 19 20  0  0  0  0  0  0  0  0999 V2000
   -1.9346   -0.9161   -0.4038 C   0  0  0  0  0  0  0  0  0  0  0  0
   -1.2839    0.4423   -0.4547 C   0  0  0  0  0  0  0  0  0  0  0  0
   -0.3728    0.6419   -1.4734 O   0  0  0  0  0  0  0  0  0  0  0  0
    0.5262    1.1671   -0.5288 C   0  0  0  0  0  0  0  0  0  0  0  0
    1.1931    0.1458    0.3064 C   0  0  0  0  0  0  0  0  0  0  0  0
    1.5160   -1.1485   -0.4518 C   0  0  0  0  0  0  0  0  0  0  0  0
    2.1198    0.4512    1.2697 O   0  0  0  0  0  0  0  0  0  0  0  0
   -0.1960    0.5316    0.5714 C   0  0  0  0  0  0  0  0  0  0  0  0
   -0.4587    1.3062    1.7030 O   0  0  0  0  0  0  0  0  0  0  0  0
   -1.9679   -1.2027    0.6849 H   0  0  0  0  0  0  0  0  0  0  0  0
   -1.3738   -1.7027   -0.9088 H   0  0  0  0  0  0  0  0  0  0  0  0
   -2.9552   -0.8973   -0.8317 H   0  0  0  0  0  0  0  0  0  0  0  0
   -2.0174    1.2737   -0.4424 H   0  0  0  0  0  0  0  0  0  0  0  0
    0.8156    2.2115   -0.5651 H   0  0  0  0  0  0  0  0  0  0  0  0
    0.9376   -1.2476   -1.3682 H   0  0  0  0  0  0  0  0  0  0  0  0
    2.5908   -1.0132   -0.7738 H   0  0  0  0  0  0  0  0  0  0  0  0
    1.5056   -2.0179    0.2172 H   0  0  0  0  0  0  0  0  0  0  0  0
    2.0483   -0.2644    1.9794 H   0  0  0  0  0  0  0  0  0  0  0  0
   -0.6927    2.2391    1.4703 H   0  0  0  0  0  0  0  0  0  0  0  0
  1  2  1  0
  2  3  1  0
  3  4  1  0
  4  5  1  0
  5  6  1  0
  5  7  1  0
  5  8  1  0
  8  9  1  0
  8  2  1  0
  8  4  1  0
  1 10  1  0
  1 11  1  0
  1 12  1  0
  2 13  1  0
  4 14  1  0
  6 15  1  0
  6 16  1  0
  6 17  1  0
  7 18  1  0
  9 19  1  0
M  END
