
     RDKit          3D

 21 21  0  0  0  0  0  0  0  0999 V2000
   -2.7501   -0.1279    0.2928 C   0  0  0  0  0  0  0  0  0  0  0  0
   -1.2684   -0.0929   -0.0126 C   0  0  0  0  0  0  0  0  0  0  0  0
   -0.6445    0.5104    1.0530 O   0  0  0  0  0  0  0  0  0  0  0  0
    0.0277    1.6730    0.6709 C   0  0  0  0  0  0  0  0  0  0  0  0
    1.4748    1.3198    0.4612 C   0  0  0  0  0  0  0  0  0  0  0  0
    2.1213    0.2353    0.0560 C   0  0  0  0  0  0  0  0  0  0  0  0
    1.6661   -1.1139   -0.3690 C   0  0  0  0  0  0  0  0  0  0  0  0
    0.4599   -1.5797    0.4033 C   0  0  0  0  0  0  0  0  0  0  0  0
   -0.7358   -1.3399   -0.2370 O   0  0  0  0  0  0  0  0  0  0  0  0
   -3.2776   -0.9648   -0.1571 H   0  0  0  0  0  0  0  0  0  0  0  0
   -2.8787   -0.1890    1.4071 H   0  0  0  0  0  0  0  0  0  0  0  0
   -3.1747    0.8663    0.0132 H   0  0  0  0  0  0  0  0  0  0  0  0
   -1.0659    0.5156   -0.9414 H   0  0  0  0  0  0  0  0  0  0  0  0
   -0.3682    2.1111   -0.2570 H   0  0  0  0  0  0  0  0  0  0  0  0
    0.0254    2.4104    1.5102 H   0  0  0  0  0  0  0  0  0  0  0  0
    2.1527    2.1249    0.6892 H   0  0  0  0  0  0  0  0  0  0  0  0
    3.1900    0.4082    0.0469 H   0  0  0  0  0  0  0  0  0  0  0  0
    1.4975   -1.0876   -1.4623 H   0  0  0  0  0  0  0  0  0  0  0  0
    2.5147   -1.8152   -0.1414 H   0  0  0  0  0  0  0  0  0  0  0  0
    0.5469   -2.6959    0.5190 H   0  0  0  0  0  0  0  0  0  0  0  0
    0.4868   -1.1681    1.4356 H   0  0  0  0  0  0  0  0  0  0  0  0
  1  2  1  0
  2  3  1  0
  3  4  1  0
  4  5  1  0
  5  6  2  3
  6  7  1  0
  7  8  1  0
  8  9  1  0
  9  2  1  0
  1 10  1  0
  1 11  1  0
  1 12  1  0
  2 13  1  0
  4 14  1  0
  4 15  1  0
  5 16  1  0
  6 17  1  0
  7 18  1  0
  7 19  1  0
  8 20  1  0
  8 21  1  0
M  END
