
     RDKit          3D

 25 25  0  0  0  0  0  0  0  0999 V2000
    3.6156   -0.0493   -0.4142 C   0  0  0  0  0  0  0  0  0  0  0  0
    2.4554    0.5888    0.2712 C   0  0  0  0  0  0  0  0  0  0  0  0
    1.8662   -0.3071    1.2647 O   0  0  0  0  0  0  0  0  0  0  0  0
    1.1233    0.0550    0.0374 C   0  0  0  0  0  0  0  0  0  0  0  0
   -0.1353    0.7734    0.3581 C   0  0  0  0  0  0  0  0  0  0  0  0
   -1.3772   -0.0382    0.0017 C   0  0  0  0  0  0  0  0  0  0  0  0
   -1.4400   -0.3702   -1.4562 C   0  0  0  0  0  0  0  0  0  0  0  0
   -2.5816    0.7987    0.3964 C   0  0  0  0  0  0  0  0  0  0  0  0
   -1.3603   -1.2711    0.8760 C   0  0  0  0  0  0  0  0  0  0  0  0
    3.9612   -1.0002    0.0848 H   0  0  0  0  0  0  0  0  0  0  0  0
    4.4882    0.6182   -0.4056 H   0  0  0  0  0  0  0  0  0  0  0  0
    3.4052   -0.3426   -1.4632 H   0  0  0  0  0  0  0  0  0  0  0  0
    2.6428    1.6082    0.6752 H   0  0  0  0  0  0  0  0  0  0  0  0
    1.0533   -0.8109   -0.6692 H   0  0  0  0  0  0  0  0  0  0  0  0
   -0.1802    1.7830   -0.1407 H   0  0  0  0  0  0  0  0  0  0  0  0
   -0.2184    0.9929    1.4394 H   0  0  0  0  0  0  0  0  0  0  0  0
   -1.2917    0.5677   -2.0291 H   0  0  0  0  0  0  0  0  0  0  0  0
   -2.4709   -0.7217   -1.6763 H   0  0  0  0  0  0  0  0  0  0  0  0
   -0.6799   -1.1111   -1.7020 H   0  0  0  0  0  0  0  0  0  0  0  0
   -2.2921    1.7951    0.7593 H   0  0  0  0  0  0  0  0  0  0  0  0
   -3.2805    0.9294   -0.4577 H   0  0  0  0  0  0  0  0  0  0  0  0
   -3.1507    0.3204    1.2406 H   0  0  0  0  0  0  0  0  0  0  0  0
   -1.2916   -2.1756    0.2137 H   0  0  0  0  0  0  0  0  0  0  0  0
   -0.5506   -1.2544    1.6277 H   0  0  0  0  0  0  0  0  0  0  0  0
   -2.3102   -1.3784    1.4465 H   0  0  0  0  0  0  0  0  0  0  0  0
  1  2  1  0
  2  3  1  0
  3  4  1  0
  4  5  1  0
  5  6  1  0
  6  7  1  0
  6  8  1  0
  6  9  1  0
  4  2  1  0
  1 10  1  0
  1 11  1  0
  1 12  1  0
  2 13  1  0
  4 14  1  0
  5 15  1  0
  5 16  1  0
  7 17  1  0
  7 18  1  0
  7 19  1  0
  8 20  1  0
  8 21  1  0
  8 22  1  0
  9 23  1  0
  9 24  1  0
  9 25  1  0
M  END
