
     RDKit          3D

 23 24  0  0  0  0  0  0  0  0999 V2000
   -2.6926   -0.1467    0.4323 C   0  0  0  0  0  0  0  0  0  0  0  0
   -1.3372   -0.4071   -0.1520 C   0  0  0  0  0  0  0  0  0  0  0  0
   -0.8514   -1.6702    0.0792 O   0  0  0  0  0  0  0  0  0  0  0  0
    0.4537   -1.5705   -0.4492 C   0  0  0  0  0  0  0  0  0  0  0  0
    0.9915   -0.2408    0.0211 C   0  0  0  0  0  0  0  0  0  0  0  0
    2.1172   -0.2986    0.9914 C   0  0  0  0  0  0  0  0  0  0  0  0
    1.1184    0.8121   -1.0550 C   0  0  0  0  0  0  0  0  0  0  0  0
    0.0335    1.6466   -0.3665 C   0  0  0  0  0  0  0  0  0  0  0  0
   -0.2634    0.4623    0.4884 C   0  0  0  0  0  0  0  0  0  0  0  0
   -2.9759    0.8929    0.1607 H   0  0  0  0  0  0  0  0  0  0  0  0
   -2.7080   -0.1968    1.5323 H   0  0  0  0  0  0  0  0  0  0  0  0
   -3.4108   -0.8115   -0.0593 H   0  0  0  0  0  0  0  0  0  0  0  0
   -1.3514   -0.2208   -1.2231 H   0  0  0  0  0  0  0  0  0  0  0  0
    1.0644   -2.4171   -0.0878 H   0  0  0  0  0  0  0  0  0  0  0  0
    0.3110   -1.5896   -1.5610 H   0  0  0  0  0  0  0  0  0  0  0  0
    3.1045   -0.1486    0.4647 H   0  0  0  0  0  0  0  0  0  0  0  0
    2.1781   -1.3591    1.3705 H   0  0  0  0  0  0  0  0  0  0  0  0
    2.0352    0.4119    1.8364 H   0  0  0  0  0  0  0  0  0  0  0  0
    0.8350    0.4497   -2.0525 H   0  0  0  0  0  0  0  0  0  0  0  0
    2.0556    1.3962   -1.0445 H   0  0  0  0  0  0  0  0  0  0  0  0
   -0.7591    1.8945   -1.1019 H   0  0  0  0  0  0  0  0  0  0  0  0
    0.4113    2.5002    0.2124 H   0  0  0  0  0  0  0  0  0  0  0  0
   -0.3597    0.6112    1.5634 H   0  0  0  0  0  0  0  0  0  0  0  0
  1  2  1  0
  2  3  1  0
  3  4  1  0
  4  5  1  0
  5  6  1  0
  5  7  1  0
  7  8  1  0
  8  9  1  0
  9  2  1  0
  9  5  1  0
  1 10  1  0
  1 11  1  0
  1 12  1  0
  2 13  1  0
  4 14  1  0
  4 15  1  0
  6 16  1  0
  6 17  1  0
  6 18  1  0
  7 19  1  0
  7 20  1  0
  8 21  1  0
  8 22  1  0
  9 23  1  0
M  END
