
     RDKit          3D

 19 20  0  0  0  0  0  0  0  0999 V2000
    2.6812    0.4648   -0.1512 C   0  0  0  0  0  0  0  0  0  0  0  0
    1.4102    0.3360    0.6406 C   0  0  0  0  0  0  0  0  0  0  0  0
    0.5580    1.4175    0.6191 O   0  0  0  0  0  0  0  0  0  0  0  0
   -0.5999    0.7460    0.2850 C   0  0  0  0  0  0  0  0  0  0  0  0
   -1.3991    1.2760   -0.8271 C   0  0  0  0  0  0  0  0  0  0  0  0
   -1.0339    2.2708   -1.4170 O   0  0  0  0  0  0  0  0  0  0  0  0
   -0.9194   -0.5999    0.7779 C   0  0  0  0  0  0  0  0  0  0  0  0
   -2.0539   -1.3293    0.0960 C   0  0  0  0  0  0  0  0  0  0  0  0
    0.3213   -0.4739   -0.0188 C   0  0  0  0  0  0  0  0  0  0  0  0
    2.8951   -0.5467   -0.5994 H   0  0  0  0  0  0  0  0  0  0  0  0
    3.5419    0.6543    0.5323 H   0  0  0  0  0  0  0  0  0  0  0  0
    2.6215    1.1638   -0.9917 H   0  0  0  0  0  0  0  0  0  0  0  0
    1.6274    0.0509    1.6941 H   0  0  0  0  0  0  0  0  0  0  0  0
   -2.3018    0.7847   -1.1155 H   0  0  0  0  0  0  0  0  0  0  0  0
   -0.7729   -0.8855    1.8430 H   0  0  0  0  0  0  0  0  0  0  0  0
   -3.0508   -0.8862    0.3497 H   0  0  0  0  0  0  0  0  0  0  0  0
   -2.0045   -2.4135    0.3532 H   0  0  0  0  0  0  0  0  0  0  0  0
   -1.9205   -1.2497   -1.0049 H   0  0  0  0  0  0  0  0  0  0  0  0
    0.4001   -0.7801   -1.0652 H   0  0  0  0  0  0  0  0  0  0  0  0
  1  2  1  0
  2  3  1  0
  3  4  1  0
  4  5  1  0
  5  6  2  0
  4  7  1  0
  7  8  1  0
  7  9  1  0
  9  2  1  0
  9  4  1  0
  1 10  1  0
  1 11  1  0
  1 12  1  0
  2 13  1  0
  5 14  1  0
  7 15  1  0
  8 16  1  0
  8 17  1  0
  8 18  1  0
  9 19  1  0
M  END
