
     RDKit          3D

 21 22  0  0  0  0  0  0  0  0999 V2000
    2.2087   -0.8523    0.5559 C   0  0  0  0  0  0  0  0  0  0  0  0
    1.1221   -0.4753   -0.3927 C   0  0  0  0  0  0  0  0  0  0  0  0
   -0.0235   -1.1709   -0.0592 O   0  0  0  0  0  0  0  0  0  0  0  0
   -1.0462   -0.4018    0.4193 C   0  0  0  0  0  0  0  0  0  0  0  0
   -2.3910   -1.0600    0.2495 C   0  0  0  0  0  0  0  0  0  0  0  0
   -0.9888    0.9942   -0.1093 C   0  0  0  0  0  0  0  0  0  0  0  0
    0.2068    1.6451    0.5987 C   0  0  0  0  0  0  0  0  0  0  0  0
    0.8961    0.9905   -0.5411 C   0  0  0  0  0  0  0  0  0  0  0  0
   -0.2969    1.1353   -1.2874 O   0  0  0  0  0  0  0  0  0  0  0  0
    2.9405   -1.5828    0.0992 H   0  0  0  0  0  0  0  0  0  0  0  0
    2.7968   -0.0319    0.9552 H   0  0  0  0  0  0  0  0  0  0  0  0
    1.7911   -1.4146    1.4374 H   0  0  0  0  0  0  0  0  0  0  0  0
    1.4317   -0.8573   -1.4110 H   0  0  0  0  0  0  0  0  0  0  0  0
   -0.9030   -0.3239    1.5379 H   0  0  0  0  0  0  0  0  0  0  0  0
   -2.7700   -1.0477   -0.7758 H   0  0  0  0  0  0  0  0  0  0  0  0
   -2.2863   -2.0985    0.6523 H   0  0  0  0  0  0  0  0  0  0  0  0
   -3.1034   -0.4989    0.9208 H   0  0  0  0  0  0  0  0  0  0  0  0
   -1.9123    1.5843   -0.0818 H   0  0  0  0  0  0  0  0  0  0  0  0
    0.1652    2.7249    0.4980 H   0  0  0  0  0  0  0  0  0  0  0  0
    0.4148    1.2183    1.5910 H   0  0  0  0  0  0  0  0  0  0  0  0
    1.7476    1.5231   -0.9712 H   0  0  0  0  0  0  0  0  0  0  0  0
  1  2  1  0
  2  3  1  0
  3  4  1  0
  4  5  1  0
  4  6  1  0
  6  7  1  0
  7  8  1  0
  8  9  1  0
  8  2  1  0
  9  6  1  0
  1 10  1  0
  1 11  1  0
  1 12  1  0
  2 13  1  0
  4 14  1  0
  5 15  1  0
  5 16  1  0
  5 17  1  0
  6 18  1  0
  7 19  1  0
  7 20  1  0
  8 21  1  0
M  END
