
     RDKit          3D

 21 21  0  0  0  0  0  0  0  0999 V2000
    1.2035    1.7486    0.7290 C   0  0  0  0  0  0  0  0  0  0  0  0
    0.5182    0.8580   -0.3172 C   0  0  0  0  0  0  0  0  0  0  0  0
   -0.7015    1.3373   -0.6154 O   0  0  0  0  0  0  0  0  0  0  0  0
   -1.8039    0.6884   -0.1932 C   0  0  0  0  0  0  0  0  0  0  0  0
   -1.8181   -0.7925   -0.3829 C   0  0  0  0  0  0  0  0  0  0  0  0
   -0.4699   -1.4248   -0.4337 C   0  0  0  0  0  0  0  0  0  0  0  0
    0.6220   -0.5520    0.1225 C   0  0  0  0  0  0  0  0  0  0  0  0
    1.9214   -1.1443   -0.3736 C   0  0  0  0  0  0  0  0  0  0  0  0
    2.7998   -0.4086   -0.8021 O   0  0  0  0  0  0  0  0  0  0  0  0
    0.8528    2.7854    0.5540 H   0  0  0  0  0  0  0  0  0  0  0  0
    2.3192    1.7071    0.5818 H   0  0  0  0  0  0  0  0  0  0  0  0
    0.8980    1.4197    1.7317 H   0  0  0  0  0  0  0  0  0  0  0  0
    1.1656    0.9726   -1.2381 H   0  0  0  0  0  0  0  0  0  0  0  0
   -2.6731    1.0818   -0.8040 H   0  0  0  0  0  0  0  0  0  0  0  0
   -2.0949    0.9536    0.8659 H   0  0  0  0  0  0  0  0  0  0  0  0
   -2.3859   -1.2473    0.4718 H   0  0  0  0  0  0  0  0  0  0  0  0
   -2.4068   -1.1048   -1.2957 H   0  0  0  0  0  0  0  0  0  0  0  0
   -0.4157   -2.4007    0.1150 H   0  0  0  0  0  0  0  0  0  0  0  0
   -0.2195   -1.6135   -1.5036 H   0  0  0  0  0  0  0  0  0  0  0  0
    0.6638   -0.6419    1.2290 H   0  0  0  0  0  0  0  0  0  0  0  0
    2.0251   -2.2221   -0.3287 H   0  0  0  0  0  0  0  0  0  0  0  0
  1  2  1  0
  2  3  1  0
  3  4  1  0
  4  5  1  0
  5  6  1  0
  6  7  1  0
  7  8  1  0
  8  9  2  0
  7  2  1  0
  1 10  1  0
  1 11  1  0
  1 12  1  0
  2 13  1  0
  4 14  1  0
  4 15  1  0
  5 16  1  0
  5 17  1  0
  6 18  1  0
  6 19  1  0
  7 20  1  0
  8 21  1  0
M  END
