
     RDKit          3D

 17 17  0  0  0  0  0  0  0  0999 V2000
   -0.8583   -1.5138    0.3245 C   0  0  0  0  0  0  0  0  0  0  0  0
    0.1106   -0.4483    0.7258 C   0  0  0  0  0  0  0  0  0  0  0  0
    1.3977   -0.9037    0.4693 O   0  0  0  0  0  0  0  0  0  0  0  0
    2.0865    0.1718   -0.1170 C   0  0  0  0  0  0  0  0  0  0  0  0
    1.0925    0.7008   -0.9606 O   0  0  0  0  0  0  0  0  0  0  0  0
    0.0257    0.8063   -0.0625 C   0  0  0  0  0  0  0  0  0  0  0  0
   -1.2839    1.0609   -0.7201 C   0  0  0  0  0  0  0  0  0  0  0  0
   -1.0602   -1.5707   -0.7533 H   0  0  0  0  0  0  0  0  0  0  0  0
   -1.7873   -1.4711    0.9469 H   0  0  0  0  0  0  0  0  0  0  0  0
   -0.3857   -2.4975    0.5981 H   0  0  0  0  0  0  0  0  0  0  0  0
   -0.0167   -0.2606    1.8119 H   0  0  0  0  0  0  0  0  0  0  0  0
    2.9194   -0.1655   -0.7495 H   0  0  0  0  0  0  0  0  0  0  0  0
    2.3820    0.9072    0.6611 H   0  0  0  0  0  0  0  0  0  0  0  0
    0.2419    1.6603    0.6249 H   0  0  0  0  0  0  0  0  0  0  0  0
   -2.0815    0.3537   -0.4775 H   0  0  0  0  0  0  0  0  0  0  0  0
   -1.0960    1.0876   -1.8320 H   0  0  0  0  0  0  0  0  0  0  0  0
   -1.6866    2.0825   -0.4898 H   0  0  0  0  0  0  0  0  0  0  0  0
  1  2  1  0
  2  3  1  0
  3  4  1  0
  4  5  1  0
  5  6  1  0
  6  7  1  0
  6  2  1  0
  1  8  1  0
  1  9  1  0
  1 10  1  0
  2 11  1  0
  4 12  1  0
  4 13  1  0
  6 14  1  0
  7 15  1  0
  7 16  1  0
  7 17  1  0
M  END
