
     RDKit          3D

 21 22  0  0  0  0  0  0  0  0999 V2000
    2.9120   -0.1746    0.8486 C   0  0  0  0  0  0  0  0  0  0  0  0
    1.7046   -0.0987   -0.0261 C   0  0  0  0  0  0  0  0  0  0  0  0
    1.0118    1.0886    0.0547 O   0  0  0  0  0  0  0  0  0  0  0  0
   -0.1456    0.7844   -0.7006 C   0  0  0  0  0  0  0  0  0  0  0  0
   -1.3913    1.3027   -0.0689 C   0  0  0  0  0  0  0  0  0  0  0  0
   -2.2032    0.1223    0.3801 C   0  0  0  0  0  0  0  0  0  0  0  0
   -1.6180   -1.0947   -0.2827 C   0  0  0  0  0  0  0  0  0  0  0  0
   -0.2375   -0.7358   -0.6877 C   0  0  0  0  0  0  0  0  0  0  0  0
    0.7240   -1.0338    0.3064 O   0  0  0  0  0  0  0  0  0  0  0  0
    3.2848   -1.2194    0.8232 H   0  0  0  0  0  0  0  0  0  0  0  0
    3.6915    0.4752    0.3948 H   0  0  0  0  0  0  0  0  0  0  0  0
    2.7636    0.1825    1.8759 H   0  0  0  0  0  0  0  0  0  0  0  0
    2.0203   -0.3347   -1.0628 H   0  0  0  0  0  0  0  0  0  0  0  0
   -0.0572    1.1542   -1.7223 H   0  0  0  0  0  0  0  0  0  0  0  0
   -1.9960    1.8748   -0.8209 H   0  0  0  0  0  0  0  0  0  0  0  0
   -1.2318    1.9862    0.7766 H   0  0  0  0  0  0  0  0  0  0  0  0
   -2.1685   -0.0110    1.4746 H   0  0  0  0  0  0  0  0  0  0  0  0
   -3.2773    0.2041    0.1092 H   0  0  0  0  0  0  0  0  0  0  0  0
   -2.2124   -1.2655   -1.2286 H   0  0  0  0  0  0  0  0  0  0  0  0
   -1.6892   -2.0107    0.3222 H   0  0  0  0  0  0  0  0  0  0  0  0
    0.1155   -1.1962   -1.6099 H   0  0  0  0  0  0  0  0  0  0  0  0
  1  2  1  0
  2  3  1  0
  3  4  1  0
  4  5  1  0
  5  6  1  0
  6  7  1  0
  7  8  1  0
  8  9  1  0
  9  2  1  0
  8  4  1  0
  1 10  1  0
  1 11  1  0
  1 12  1  0
  2 13  1  0
  4 14  1  0
  5 15  1  0
  5 16  1  0
  6 17  1  0
  6 18  1  0
  7 19  1  0
  7 20  1  0
  8 21  1  0
M  END
