
     RDKit          3D

 19 19  0  0  0  0  0  0  0  0999 V2000
   -1.7372   -1.3578    0.2192 C   0  0  0  0  0  0  0  0  0  0  0  0
   -0.9712   -0.0894    0.1952 C   0  0  0  0  0  0  0  0  0  0  0  0
   -1.4921    0.8302   -0.7146 O   0  0  0  0  0  0  0  0  0  0  0  0
   -0.5590    1.8855   -0.5778 C   0  0  0  0  0  0  0  0  0  0  0  0
    0.7353    1.1664   -0.7341 C   0  0  0  0  0  0  0  0  0  0  0  0
    1.7706    1.6864   -1.1059 O   0  0  0  0  0  0  0  0  0  0  0  0
    0.4423   -0.2408   -0.3451 C   0  0  0  0  0  0  0  0  0  0  0  0
    1.3989   -0.7147    0.6929 C   0  0  0  0  0  0  0  0  0  0  0  0
    2.6537   -0.8269    0.1294 O   0  0  0  0  0  0  0  0  0  0  0  0
   -1.1357   -2.2777    0.2045 H   0  0  0  0  0  0  0  0  0  0  0  0
   -2.4953   -1.3321   -0.6117 H   0  0  0  0  0  0  0  0  0  0  0  0
   -2.3600   -1.3612    1.1595 H   0  0  0  0  0  0  0  0  0  0  0  0
   -0.8918    0.4280    1.1660 H   0  0  0  0  0  0  0  0  0  0  0  0
   -0.7026    2.2925    0.4317 H   0  0  0  0  0  0  0  0  0  0  0  0
   -0.7628    2.5798   -1.3955 H   0  0  0  0  0  0  0  0  0  0  0  0
    0.4783   -0.8985   -1.2318 H   0  0  0  0  0  0  0  0  0  0  0  0
    1.0891   -1.7199    1.0346 H   0  0  0  0  0  0  0  0  0  0  0  0
    1.4461   -0.0657    1.5646 H   0  0  0  0  0  0  0  0  0  0  0  0
    3.0933    0.0158   -0.0812 H   0  0  0  0  0  0  0  0  0  0  0  0
  1  2  1  0
  2  3  1  0
  3  4  1  0
  4  5  1  0
  5  6  2  0
  5  7  1  0
  7  8  1  0
  8  9  1  0
  7  2  1  0
  1 10  1  0
  1 11  1  0
  1 12  1  0
  2 13  1  0
  4 14  1  0
  4 15  1  0
  7 16  1  0
  8 17  1  0
  8 18  1  0
  9 19  1  0
M  END
