
     RDKit          3D

 18 19  0  0  0  0  0  0  0  0999 V2000
   -1.9673    0.6753    0.4727 C   0  0  0  0  0  0  0  0  0  0  0  0
   -1.0033   -0.1078   -0.3458 C   0  0  0  0  0  0  0  0  0  0  0  0
   -0.2660    0.6666   -1.2330 O   0  0  0  0  0  0  0  0  0  0  0  0
    1.0764    0.3387   -1.0849 C   0  0  0  0  0  0  0  0  0  0  0  0
    1.5137    0.9058    0.2235 C   0  0  0  0  0  0  0  0  0  0  0  0
    0.8660    0.2062    1.1630 C   0  0  0  0  0  0  0  0  0  0  0  0
    0.0444   -0.8282    0.4692 C   0  0  0  0  0  0  0  0  0  0  0  0
    1.0076   -1.1510   -0.6904 C   0  0  0  0  0  0  0  0  0  0  0  0
   -1.5701    1.5854    0.9296 H   0  0  0  0  0  0  0  0  0  0  0  0
   -2.3331    0.0108    1.2944 H   0  0  0  0  0  0  0  0  0  0  0  0
   -2.8813    0.8665   -0.1575 H   0  0  0  0  0  0  0  0  0  0  0  0
   -1.5726   -0.8438   -0.9536 H   0  0  0  0  0  0  0  0  0  0  0  0
    1.7073    0.5350   -1.9187 H   0  0  0  0  0  0  0  0  0  0  0  0
    2.2122    1.7153    0.3374 H   0  0  0  0  0  0  0  0  0  0  0  0
    0.9173    0.3507    2.2333 H   0  0  0  0  0  0  0  0  0  0  0  0
   -0.2639   -1.6615    1.0379 H   0  0  0  0  0  0  0  0  0  0  0  0
    1.9761   -1.5096   -0.3196 H   0  0  0  0  0  0  0  0  0  0  0  0
    0.5367   -1.7543   -1.4576 H   0  0  0  0  0  0  0  0  0  0  0  0
  1  2  1  0
  2  3  1  0
  3  4  1  0
  4  5  1  0
  5  6  2  0
  6  7  1  0
  7  8  1  0
  7  2  1  0
  8  4  1  0
  1  9  1  0
  1 10  1  0
  1 11  1  0
  2 12  1  0
  4 13  1  0
  5 14  1  0
  6 15  1  0
  7 16  1  0
  8 17  1  0
  8 18  1  0
M  END
