
     RDKit          3D

 16 17  0  0  0  0  0  0  0  0999 V2000
   -1.8286   -0.3054    0.3851 C   0  0  0  0  0  0  0  0  0  0  0  0
   -0.7786    0.7207    0.0633 C   0  0  0  0  0  0  0  0  0  0  0  0
    0.1372    0.8810    1.1191 O   0  0  0  0  0  0  0  0  0  0  0  0
    1.4109    0.7222    0.5609 C   0  0  0  0  0  0  0  0  0  0  0  0
    1.6038   -0.7337    0.3220 C   0  0  0  0  0  0  0  0  0  0  0  0
    0.7813   -1.0105   -0.6857 C   0  0  0  0  0  0  0  0  0  0  0  0
    0.1450    0.2838   -1.0530 C   0  0  0  0  0  0  0  0  0  0  0  0
    1.2318    1.1530   -0.7784 O   0  0  0  0  0  0  0  0  0  0  0  0
   -2.8202    0.0813    0.0140 H   0  0  0  0  0  0  0  0  0  0  0  0
   -1.6709   -1.2692   -0.1093 H   0  0  0  0  0  0  0  0  0  0  0  0
   -1.8979   -0.4363    1.4826 H   0  0  0  0  0  0  0  0  0  0  0  0
   -1.2032    1.7204   -0.1219 H   0  0  0  0  0  0  0  0  0  0  0  0
    2.2037    1.2182    1.0751 H   0  0  0  0  0  0  0  0  0  0  0  0
    2.2707   -1.3828    0.8661 H   0  0  0  0  0  0  0  0  0  0  0  0
    0.6561   -2.0005   -1.0983 H   0  0  0  0  0  0  0  0  0  0  0  0
   -0.2411    0.3578   -2.0416 H   0  0  0  0  0  0  0  0  0  0  0  0
  1  2  1  0
  2  3  1  0
  3  4  1  0
  4  5  1  0
  5  6  2  0
  6  7  1  0
  7  8  1  0
  7  2  1  0
  8  4  1  0
  1  9  1  0
  1 10  1  0
  1 11  1  0
  2 12  1  0
  4 13  1  0
  5 14  1  0
  6 15  1  0
  7 16  1  0
M  END
