
     RDKit          3D

 18 19  0  0  0  0  0  0  0  0999 V2000
    1.7508   -1.0706   -0.1259 C   0  0  0  0  0  0  0  0  0  0  0  0
    1.0261    0.2248   -0.1370 C   0  0  0  0  0  0  0  0  0  0  0  0
    1.1698    1.0212    1.0156 O   0  0  0  0  0  0  0  0  0  0  0  0
   -0.0843    1.5778    0.6556 C   0  0  0  0  0  0  0  0  0  0  0  0
   -0.4101    0.2721    0.0412 C   0  0  0  0  0  0  0  0  0  0  0  0
   -1.1854   -0.7198    0.7608 C   0  0  0  0  0  0  0  0  0  0  0  0
   -2.2594   -0.4735   -0.1317 O   0  0  0  0  0  0  0  0  0  0  0  0
   -1.3607    0.1367   -1.0395 C   0  0  0  0  0  0  0  0  0  0  0  0
    1.1593   -1.8797    0.3428 H   0  0  0  0  0  0  0  0  0  0  0  0
    2.7771   -0.9819    0.2591 H   0  0  0  0  0  0  0  0  0  0  0  0
    1.8670   -1.3889   -1.2056 H   0  0  0  0  0  0  0  0  0  0  0  0
    1.3580    0.8557   -1.0098 H   0  0  0  0  0  0  0  0  0  0  0  0
   -0.7107    1.8771    1.4905 H   0  0  0  0  0  0  0  0  0  0  0  0
    0.0876    2.3678   -0.1275 H   0  0  0  0  0  0  0  0  0  0  0  0
   -0.8647   -1.7694    0.7583 H   0  0  0  0  0  0  0  0  0  0  0  0
   -1.4973   -0.4079    1.7825 H   0  0  0  0  0  0  0  0  0  0  0  0
   -1.7364    1.0238   -1.5415 H   0  0  0  0  0  0  0  0  0  0  0  0
   -1.0865   -0.6653   -1.7880 H   0  0  0  0  0  0  0  0  0  0  0  0
  1  2  1  0
  2  3  1  0
  3  4  1  0
  4  5  1  0
  5  6  1  0
  6  7  1  0
  7  8  1  0
  5  2  1  0
  8  5  1  0
  1  9  1  0
  1 10  1  0
  1 11  1  0
  2 12  1  0
  4 13  1  0
  4 14  1  0
  6 15  1  0
  6 16  1  0
  8 17  1  0
  8 18  1  0
M  END
