
     RDKit          3D

 21 22  0  0  0  0  0  0  0  0999 V2000
   -2.4803    0.5212   -0.0679 C   0  0  0  0  0  0  0  0  0  0  0  0
   -1.4974   -0.6377   -0.0743 C   0  0  0  0  0  0  0  0  0  0  0  0
   -1.1256   -1.0695   -1.3336 O   0  0  0  0  0  0  0  0  0  0  0  0
    0.1854   -0.6593   -1.1263 C   0  0  0  0  0  0  0  0  0  0  0  0
    0.9740   -1.2643    0.0097 C   0  0  0  0  0  0  0  0  0  0  0  0
    2.4274   -0.9025    0.0097 C   0  0  0  0  0  0  0  0  0  0  0  0
   -0.0899   -0.2933    0.2820 C   0  0  0  0  0  0  0  0  0  0  0  0
    0.2455    1.0697    0.8203 C   0  0  0  0  0  0  0  0  0  0  0  0
   -0.0658    2.1003   -0.0352 O   0  0  0  0  0  0  0  0  0  0  0  0
   -2.5824    0.8654    0.9727 H   0  0  0  0  0  0  0  0  0  0  0  0
   -3.4453    0.1280   -0.4464 H   0  0  0  0  0  0  0  0  0  0  0  0
   -2.1731    1.3484   -0.7119 H   0  0  0  0  0  0  0  0  0  0  0  0
   -1.9503   -1.4798    0.5059 H   0  0  0  0  0  0  0  0  0  0  0  0
    0.6671    0.0571   -1.8006 H   0  0  0  0  0  0  0  0  0  0  0  0
    0.7723   -2.3118    0.3163 H   0  0  0  0  0  0  0  0  0  0  0  0
    2.6081    0.1726   -0.1847 H   0  0  0  0  0  0  0  0  0  0  0  0
    2.8883   -1.4356   -0.8734 H   0  0  0  0  0  0  0  0  0  0  0  0
    2.9799   -1.2880    0.8909 H   0  0  0  0  0  0  0  0  0  0  0  0
   -0.3441    1.2495    1.7658 H   0  0  0  0  0  0  0  0  0  0  0  0
    1.3173    1.0874    1.1030 H   0  0  0  0  0  0  0  0  0  0  0  0
    0.6888    2.7423   -0.0220 H   0  0  0  0  0  0  0  0  0  0  0  0
  1  2  1  0
  2  3  1  0
  3  4  1  0
  4  5  1  0
  5  6  1  0
  5  7  1  0
  7  8  1  0
  8  9  1  0
  7  2  1  0
  7  4  1  0
  1 10  1  0
  1 11  1  0
  1 12  1  0
  2 13  1  0
  4 14  1  0
  5 15  1  0
  6 16  1  0
  6 17  1  0
  6 18  1  0
  8 19  1  0
  8 20  1  0
  9 21  1  0
M  END
