
     RDKit          3D

 20 21  0  0  0  0  0  0  0  0999 V2000
   -2.3600    0.1974    0.0000 C   0  0  0  0  0  0  0  0  0  0  0  0
   -0.9624    0.1638   -0.5302 C   0  0  0  0  0  0  0  0  0  0  0  0
   -0.6185   -1.1556   -0.7868 O   0  0  0  0  0  0  0  0  0  0  0  0
    0.0907   -1.6156    0.3213 C   0  0  0  0  0  0  0  0  0  0  0  0
    0.9485   -0.4489    0.7375 C   0  0  0  0  0  0  0  0  0  0  0  0
    1.8980   -0.0485   -0.3847 C   0  0  0  0  0  0  0  0  0  0  0  0
    1.2481    1.3279   -0.3372 C   0  0  0  0  0  0  0  0  0  0  0  0
    0.0617    0.7264    0.4110 C   0  0  0  0  0  0  0  0  0  0  0  0
   -2.6201   -0.7892    0.4592 H   0  0  0  0  0  0  0  0  0  0  0  0
   -3.0832    0.3732   -0.8305 H   0  0  0  0  0  0  0  0  0  0  0  0
   -2.4745    0.9730    0.7680 H   0  0  0  0  0  0  0  0  0  0  0  0
   -0.9054    0.7682   -1.4702 H   0  0  0  0  0  0  0  0  0  0  0  0
    0.7770   -2.4124   -0.0317 H   0  0  0  0  0  0  0  0  0  0  0  0
   -0.5568   -1.9290    1.1490 H   0  0  0  0  0  0  0  0  0  0  0  0
    1.3743   -0.4737    1.7361 H   0  0  0  0  0  0  0  0  0  0  0  0
    1.7005   -0.5603   -1.3430 H   0  0  0  0  0  0  0  0  0  0  0  0
    2.9640   -0.0721   -0.1082 H   0  0  0  0  0  0  0  0  0  0  0  0
    0.9899    1.6755   -1.3355 H   0  0  0  0  0  0  0  0  0  0  0  0
    1.8283    1.9904    0.3161 H   0  0  0  0  0  0  0  0  0  0  0  0
   -0.3001    1.3095    1.2599 H   0  0  0  0  0  0  0  0  0  0  0  0
  1  2  1  0
  2  3  1  0
  3  4  1  0
  4  5  1  0
  5  6  1  0
  6  7  1  0
  7  8  1  0
  8  2  1  0
  8  5  1  0
  1  9  1  0
  1 10  1  0
  1 11  1  0
  2 12  1  0
  4 13  1  0
  4 14  1  0
  5 15  1  0
  6 16  1  0
  6 17  1  0
  7 18  1  0
  7 19  1  0
  8 20  1  0
M  END
