
     RDKit          3D

 19 20  0  0  0  0  0  0  0  0999 V2000
    2.6219    0.3075   -0.1371 C   0  0  0  0  0  0  0  0  0  0  0  0
    1.3793   -0.4660    0.2458 C   0  0  0  0  0  0  0  0  0  0  0  0
    0.9981   -1.3820   -0.8645 O   0  0  0  0  0  0  0  0  0  0  0  0
    0.1494   -0.4543   -0.3485 C   0  0  0  0  0  0  0  0  0  0  0  0
   -0.5798    0.5427   -1.1547 C   0  0  0  0  0  0  0  0  0  0  0  0
   -1.6636    0.5563   -0.0669 C   0  0  0  0  0  0  0  0  0  0  0  0
   -1.3971    1.5293    0.8725 O   0  0  0  0  0  0  0  0  0  0  0  0
   -1.1181   -0.8155    0.3549 C   0  0  0  0  0  0  0  0  0  0  0  0
   -1.8079   -1.8061   -0.3513 O   0  0  0  0  0  0  0  0  0  0  0  0
    2.7630    0.3645   -1.2372 H   0  0  0  0  0  0  0  0  0  0  0  0
    2.6543    1.3191    0.2756 H   0  0  0  0  0  0  0  0  0  0  0  0
    3.5515   -0.2100    0.2426 H   0  0  0  0  0  0  0  0  0  0  0  0
    1.5451   -1.0388    1.2057 H   0  0  0  0  0  0  0  0  0  0  0  0
   -0.1479    1.5300   -1.3144 H   0  0  0  0  0  0  0  0  0  0  0  0
   -1.0460    0.0798   -2.0716 H   0  0  0  0  0  0  0  0  0  0  0  0
   -2.6927    0.5019   -0.4544 H   0  0  0  0  0  0  0  0  0  0  0  0
   -1.4887    2.4260    0.4679 H   0  0  0  0  0  0  0  0  0  0  0  0
   -1.0388   -0.9634    1.4324 H   0  0  0  0  0  0  0  0  0  0  0  0
   -2.6822   -2.0210    0.0749 H   0  0  0  0  0  0  0  0  0  0  0  0
  1  2  1  0
  2  3  1  0
  3  4  1  0
  4  5  1  0
  5  6  1  0
  6  7  1  0
  6  8  1  0
  8  9  1  0
  4  2  1  0
  8  4  1  0
  1 10  1  0
  1 11  1  0
  1 12  1  0
  2 13  1  0
  5 14  1  0
  5 15  1  0
  6 16  1  0
  7 17  1  0
  8 18  1  0
  9 19  1  0
M  END
