
     RDKit          3D

 21 22  0  0  0  0  0  0  0  0999 V2000
    2.1079   -0.5099   -0.0242 C   0  0  0  0  0  0  0  0  0  0  0  0
    1.1455    0.3648    0.7155 C   0  0  0  0  0  0  0  0  0  0  0  0
    1.1912    1.6389    0.1949 O   0  0  0  0  0  0  0  0  0  0  0  0
   -0.0138    1.9549   -0.3482 C   0  0  0  0  0  0  0  0  0  0  0  0
   -1.0003    0.8867   -0.0757 C   0  0  0  0  0  0  0  0  0  0  0  0
   -1.4156    0.1956   -1.2234 O   0  0  0  0  0  0  0  0  0  0  0  0
   -1.8267   -1.0284   -0.6456 C   0  0  0  0  0  0  0  0  0  0  0  0
   -0.5199   -1.4055    0.0715 C   0  0  0  0  0  0  0  0  0  0  0  0
   -0.2419   -0.1069    0.7697 C   0  0  0  0  0  0  0  0  0  0  0  0
    3.1097   -0.0060    0.0070 H   0  0  0  0  0  0  0  0  0  0  0  0
    2.1717   -1.5268    0.4050 H   0  0  0  0  0  0  0  0  0  0  0  0
    1.8154   -0.5032   -1.0966 H   0  0  0  0  0  0  0  0  0  0  0  0
    1.5323    0.4425    1.7746 H   0  0  0  0  0  0  0  0  0  0  0  0
    0.0834    2.1090   -1.4496 H   0  0  0  0  0  0  0  0  0  0  0  0
   -0.3541    2.9239    0.1069 H   0  0  0  0  0  0  0  0  0  0  0  0
   -1.9106    1.2258    0.4803 H   0  0  0  0  0  0  0  0  0  0  0  0
   -2.1258   -1.7646   -1.3812 H   0  0  0  0  0  0  0  0  0  0  0  0
   -2.5903   -0.7578    0.1017 H   0  0  0  0  0  0  0  0  0  0  0  0
    0.1918   -1.6753   -0.7034 H   0  0  0  0  0  0  0  0  0  0  0  0
   -0.6773   -2.2577    0.7505 H   0  0  0  0  0  0  0  0  0  0  0  0
   -0.6725   -0.1999    1.8026 H   0  0  0  0  0  0  0  0  0  0  0  0
  1  2  1  0
  2  3  1  0
  3  4  1  0
  4  5  1  0
  5  6  1  0
  6  7  1  0
  7  8  1  0
  8  9  1  0
  9  2  1  0
  9  5  1  0
  1 10  1  0
  1 11  1  0
  1 12  1  0
  2 13  1  0
  4 14  1  0
  4 15  1  0
  5 16  1  0
  7 17  1  0
  7 18  1  0
  8 19  1  0
  8 20  1  0
  9 21  1  0
M  END
