
     RDKit          3D

 18 19  0  0  0  0  0  0  0  0999 V2000
    1.9779    1.0009    0.1322 C   0  0  0  0  0  0  0  0  0  0  0  0
    1.1009   -0.1538   -0.2045 C   0  0  0  0  0  0  0  0  0  0  0  0
    0.4002    0.0273   -1.4185 O   0  0  0  0  0  0  0  0  0  0  0  0
   -0.8787   -0.3217   -1.0769 C   0  0  0  0  0  0  0  0  0  0  0  0
   -0.7332   -1.4935   -0.0915 C   0  0  0  0  0  0  0  0  0  0  0  0
   -0.0231   -0.3999    0.7231 C   0  0  0  0  0  0  0  0  0  0  0  0
   -1.1032    0.5182    0.1852 C   0  0  0  0  0  0  0  0  0  0  0  0
   -2.3505    0.3360    0.7649 O   0  0  0  0  0  0  0  0  0  0  0  0
    1.4895    1.9772    0.1350 H   0  0  0  0  0  0  0  0  0  0  0  0
    2.4280    0.7893    1.1231 H   0  0  0  0  0  0  0  0  0  0  0  0
    2.8142    1.0146   -0.6134 H   0  0  0  0  0  0  0  0  0  0  0  0
    1.7109   -1.0543   -0.3133 H   0  0  0  0  0  0  0  0  0  0  0  0
   -1.6585   -0.3711   -1.7845 H   0  0  0  0  0  0  0  0  0  0  0  0
    0.0094   -2.2403   -0.4364 H   0  0  0  0  0  0  0  0  0  0  0  0
   -1.6634   -1.8485    0.3217 H   0  0  0  0  0  0  0  0  0  0  0  0
    0.0882   -0.5401    1.7563 H   0  0  0  0  0  0  0  0  0  0  0  0
   -0.7871    1.5468   -0.0035 H   0  0  0  0  0  0  0  0  0  0  0  0
   -2.8214    1.2129    0.8010 H   0  0  0  0  0  0  0  0  0  0  0  0
  1  2  1  0
  2  3  1  0
  3  4  1  0
  4  5  1  0
  5  6  1  0
  6  7  1  0
  7  8  1  0
  6  2  1  0
  7  4  1  0
  1  9  1  0
  1 10  1  0
  1 11  1  0
  2 12  1  0
  4 13  1  0
  5 14  1  0
  5 15  1  0
  6 16  1  0
  7 17  1  0
  8 18  1  0
M  END
