
     RDKit          3D

 17 18  0  0  0  0  0  0  0  0999 V2000
   -1.4332    1.2135   -0.4703 C   0  0  0  0  0  0  0  0  0  0  0  0
   -1.0282   -0.2156   -0.4446 C   0  0  0  0  0  0  0  0  0  0  0  0
   -1.5207   -0.7585    0.7709 O   0  0  0  0  0  0  0  0  0  0  0  0
   -0.1876   -0.7763    1.1996 C   0  0  0  0  0  0  0  0  0  0  0  0
    0.5358   -1.9508    0.6589 C   0  0  0  0  0  0  0  0  0  0  0  0
    0.3455   -0.5984   -0.1131 C   0  0  0  0  0  0  0  0  0  0  0  0
    1.5064   -0.1394   -0.5963 O   0  0  0  0  0  0  0  0  0  0  0  0
    2.0622    1.1086   -0.5969 C   0  0  0  0  0  0  0  0  0  0  0  0
    1.3868    1.9939   -0.0567 O   0  0  0  0  0  0  0  0  0  0  0  0
   -2.5568    1.2240   -0.6149 H   0  0  0  0  0  0  0  0  0  0  0  0
   -1.0425    1.7952   -1.3259 H   0  0  0  0  0  0  0  0  0  0  0  0
   -1.2898    1.7343    0.5100 H   0  0  0  0  0  0  0  0  0  0  0  0
   -1.4121   -0.7496   -1.3371 H   0  0  0  0  0  0  0  0  0  0  0  0
    0.1018   -0.2756    2.1250 H   0  0  0  0  0  0  0  0  0  0  0  0
    0.0103   -2.8201    0.2247 H   0  0  0  0  0  0  0  0  0  0  0  0
    1.5090   -2.1603    1.0843 H   0  0  0  0  0  0  0  0  0  0  0  0
    3.0131    1.3751   -1.0175 H   0  0  0  0  0  0  0  0  0  0  0  0
  1  2  1  0
  2  3  1  0
  3  4  1  0
  4  5  1  0
  5  6  1  0
  6  7  1  0
  7  8  1  0
  8  9  2  0
  6  2  1  0
  6  4  1  0
  1 10  1  0
  1 11  1  0
  1 12  1  0
  2 13  1  0
  4 14  1  0
  5 15  1  0
  5 16  1  0
  8 17  1  0
M  END
