
     RDKit          3D

 21 22  0  0  0  0  0  0  0  0999 V2000
    2.2444   -0.2427    0.3101 C   0  0  0  0  0  0  0  0  0  0  0  0
    1.1578    0.6780   -0.1909 C   0  0  0  0  0  0  0  0  0  0  0  0
    0.4600    1.2696    0.8738 O   0  0  0  0  0  0  0  0  0  0  0  0
   -0.6314    0.5329    0.5419 C   0  0  0  0  0  0  0  0  0  0  0  0
   -2.0126    1.0151    0.5752 C   0  0  0  0  0  0  0  0  0  0  0  0
   -1.5340   -0.1294    1.4583 C   0  0  0  0  0  0  0  0  0  0  0  0
   -0.0796    0.0035   -0.7084 C   0  0  0  0  0  0  0  0  0  0  0  0
    0.0384   -1.4687   -0.8899 C   0  0  0  0  0  0  0  0  0  0  0  0
   -0.6084    0.6001   -1.8557 O   0  0  0  0  0  0  0  0  0  0  0  0
    1.8817   -0.9437    1.0783 H   0  0  0  0  0  0  0  0  0  0  0  0
    2.6898   -0.7327   -0.5742 H   0  0  0  0  0  0  0  0  0  0  0  0
    3.0157    0.3896    0.8014 H   0  0  0  0  0  0  0  0  0  0  0  0
    1.5775    1.4436   -0.8549 H   0  0  0  0  0  0  0  0  0  0  0  0
   -2.2291    1.9912    1.0216 H   0  0  0  0  0  0  0  0  0  0  0  0
   -2.6499    0.7254   -0.3041 H   0  0  0  0  0  0  0  0  0  0  0  0
   -1.4499    0.1518    2.5444 H   0  0  0  0  0  0  0  0  0  0  0  0
   -1.9942   -1.1088    1.3018 H   0  0  0  0  0  0  0  0  0  0  0  0
    0.6118   -1.9968   -0.1282 H   0  0  0  0  0  0  0  0  0  0  0  0
   -0.9702   -1.9251   -0.9932 H   0  0  0  0  0  0  0  0  0  0  0  0
    0.5565   -1.6483   -1.8669 H   0  0  0  0  0  0  0  0  0  0  0  0
   -0.0743    1.3954   -2.1405 H   0  0  0  0  0  0  0  0  0  0  0  0
  1  2  1  0
  2  3  1  0
  3  4  1  0
  4  5  1  0
  5  6  1  0
  4  7  1  0
  7  8  1  0
  7  9  1  0
  7  2  1  0
  6  4  1  0
  1 10  1  0
  1 11  1  0
  1 12  1  0
  2 13  1  0
  5 14  1  0
  5 15  1  0
  6 16  1  0
  6 17  1  0
  8 18  1  0
  8 19  1  0
  8 20  1  0
  9 21  1  0
M  END
