
     RDKit          3D

 21 22  0  0  0  0  0  0  0  0999 V2000
    2.5049   -0.3774    0.4905 C   0  0  0  0  0  0  0  0  0  0  0  0
    1.2564   -0.3584   -0.3719 C   0  0  0  0  0  0  0  0  0  0  0  0
    0.6971   -1.6010   -0.5152 O   0  0  0  0  0  0  0  0  0  0  0  0
   -0.6903   -1.4875   -0.4554 C   0  0  0  0  0  0  0  0  0  0  0  0
   -0.8709   -0.5201    0.6610 C   0  0  0  0  0  0  0  0  0  0  0  0
   -2.0961    0.3150    0.5773 C   0  0  0  0  0  0  0  0  0  0  0  0
   -1.9122    1.3745   -0.1820 C   0  0  0  0  0  0  0  0  0  0  0  0
   -0.5302    1.3485   -0.6863 C   0  0  0  0  0  0  0  0  0  0  0  0
    0.2183    0.5067    0.3037 C   0  0  0  0  0  0  0  0  0  0  0  0
    2.3521   -1.0230    1.3861 H   0  0  0  0  0  0  0  0  0  0  0  0
    2.7736    0.6204    0.8407 H   0  0  0  0  0  0  0  0  0  0  0  0
    3.3551   -0.7484   -0.1282 H   0  0  0  0  0  0  0  0  0  0  0  0
    1.5638    0.0432   -1.3584 H   0  0  0  0  0  0  0  0  0  0  0  0
   -1.1444   -1.1127   -1.3822 H   0  0  0  0  0  0  0  0  0  0  0  0
   -1.0739   -2.5090   -0.1926 H   0  0  0  0  0  0  0  0  0  0  0  0
   -0.7149   -0.9391    1.6598 H   0  0  0  0  0  0  0  0  0  0  0  0
   -3.0497    0.0990    1.0761 H   0  0  0  0  0  0  0  0  0  0  0  0
   -2.6386    2.1746   -0.4291 H   0  0  0  0  0  0  0  0  0  0  0  0
   -0.4899    0.7910   -1.6694 H   0  0  0  0  0  0  0  0  0  0  0  0
   -0.0945    2.3644   -0.8042 H   0  0  0  0  0  0  0  0  0  0  0  0
    0.5845    1.0393    1.1797 H   0  0  0  0  0  0  0  0  0  0  0  0
  1  2  1  0
  2  3  1  0
  3  4  1  0
  4  5  1  0
  5  6  1  0
  6  7  2  0
  7  8  1  0
  8  9  1  0
  9  2  1  0
  9  5  1  0
  1 10  1  0
  1 11  1  0
  1 12  1  0
  2 13  1  0
  4 14  1  0
  4 15  1  0
  5 16  1  0
  6 17  1  0
  7 18  1  0
  8 19  1  0
  8 20  1  0
  9 21  1  0
M  END
