
     RDKit          3D

 25 25  0  0  0  0  0  0  0  0999 V2000
    2.3120   -0.1979   -0.7004 C   0  0  0  0  0  0  0  0  0  0  0  0
    1.4730   -0.3252    0.5392 C   0  0  0  0  0  0  0  0  0  0  0  0
    0.9472   -1.6207    0.5779 O   0  0  0  0  0  0  0  0  0  0  0  0
   -0.2267   -1.6051   -0.1493 C   0  0  0  0  0  0  0  0  0  0  0  0
   -0.8442   -0.2648    0.1801 C   0  0  0  0  0  0  0  0  0  0  0  0
   -1.6304    0.2394   -0.9805 C   0  0  0  0  0  0  0  0  0  0  0  0
   -1.7498   -0.4632    1.3750 C   0  0  0  0  0  0  0  0  0  0  0  0
    0.3047    0.6033    0.5728 C   0  0  0  0  0  0  0  0  0  0  0  0
    0.4692    1.8267   -0.2748 C   0  0  0  0  0  0  0  0  0  0  0  0
    2.6203    0.8304   -0.9241 H   0  0  0  0  0  0  0  0  0  0  0  0
    1.7656   -0.6895   -1.5407 H   0  0  0  0  0  0  0  0  0  0  0  0
    3.2213   -0.8385   -0.5377 H   0  0  0  0  0  0  0  0  0  0  0  0
    2.1290   -0.2240    1.4382 H   0  0  0  0  0  0  0  0  0  0  0  0
   -0.9167   -2.4095    0.2025 H   0  0  0  0  0  0  0  0  0  0  0  0
   -0.0928   -1.7582   -1.2300 H   0  0  0  0  0  0  0  0  0  0  0  0
   -2.3908    0.9927   -0.6473 H   0  0  0  0  0  0  0  0  0  0  0  0
   -2.2413   -0.6260   -1.3669 H   0  0  0  0  0  0  0  0  0  0  0  0
   -1.0130    0.6079   -1.8085 H   0  0  0  0  0  0  0  0  0  0  0  0
   -2.1645   -1.4884    1.3122 H   0  0  0  0  0  0  0  0  0  0  0  0
   -2.5159    0.3254    1.3345 H   0  0  0  0  0  0  0  0  0  0  0  0
   -1.1665   -0.3735    2.3237 H   0  0  0  0  0  0  0  0  0  0  0  0
    0.1917    0.9605    1.6360 H   0  0  0  0  0  0  0  0  0  0  0  0
   -0.4873    2.3873   -0.2478 H   0  0  0  0  0  0  0  0  0  0  0  0
    0.7809    1.6305   -1.3063 H   0  0  0  0  0  0  0  0  0  0  0  0
    1.2251    2.4807    0.2219 H   0  0  0  0  0  0  0  0  0  0  0  0
  1  2  1  0
  2  3  1  0
  3  4  1  0
  4  5  1  0
  5  6  1  0
  5  7  1  0
  5  8  1  0
  8  9  1  0
  8  2  1  0
  1 10  1  0
  1 11  1  0
  1 12  1  0
  2 13  1  0
  4 14  1  0
  4 15  1  0
  6 16  1  0
  6 17  1  0
  6 18  1  0
  7 19  1  0
  7 20  1  0
  7 21  1  0
  8 22  1  0
  9 23  1  0
  9 24  1  0
  9 25  1  0
M  END
