
     RDKit          3D

 18 19  0  0  0  0  0  0  0  0999 V2000
    2.2940   -0.5475    0.3576 C   0  0  0  0  0  0  0  0  0  0  0  0
    1.1368    0.3957    0.4826 C   0  0  0  0  0  0  0  0  0  0  0  0
    0.1136   -0.1304    1.2842 O   0  0  0  0  0  0  0  0  0  0  0  0
   -0.7638   -0.2197    0.2539 C   0  0  0  0  0  0  0  0  0  0  0  0
   -1.6877   -1.3291    0.0079 C   0  0  0  0  0  0  0  0  0  0  0  0
   -1.0915    1.0736   -0.5038 C   0  0  0  0  0  0  0  0  0  0  0  0
   -1.2184    2.1639    0.3282 O   0  0  0  0  0  0  0  0  0  0  0  0
    0.1831    0.3518   -0.6893 C   0  0  0  0  0  0  0  0  0  0  0  0
    2.5908   -0.9543    1.3519 H   0  0  0  0  0  0  0  0  0  0  0  0
    2.0145   -1.3692   -0.3449 H   0  0  0  0  0  0  0  0  0  0  0  0
    3.1771    0.0255   -0.0139 H   0  0  0  0  0  0  0  0  0  0  0  0
    1.4100    1.4367    0.6982 H   0  0  0  0  0  0  0  0  0  0  0  0
   -2.1066   -1.2328   -1.0304 H   0  0  0  0  0  0  0  0  0  0  0  0
   -2.5827   -1.2549    0.6789 H   0  0  0  0  0  0  0  0  0  0  0  0
   -1.2942   -2.3421    0.1151 H   0  0  0  0  0  0  0  0  0  0  0  0
   -1.8119    1.0323   -1.3236 H   0  0  0  0  0  0  0  0  0  0  0  0
   -0.8442    2.9972   -0.0137 H   0  0  0  0  0  0  0  0  0  0  0  0
    0.4811   -0.0968   -1.6389 H   0  0  0  0  0  0  0  0  0  0  0  0
  1  2  1  0
  2  3  1  0
  3  4  1  0
  4  5  1  0
  4  6  1  0
  6  7  1  0
  6  8  1  0
  8  2  1  0
  8  4  1  0
  1  9  1  0
  1 10  1  0
  1 11  1  0
  2 12  1  0
  5 13  1  0
  5 14  1  0
  5 15  1  0
  6 16  1  0
  7 17  1  0
  8 18  1  0
M  END
