
     RDKit          3D

 19 20  0  0  0  0  0  0  0  0999 V2000
    2.2485    0.1627    0.5872 C   0  0  0  0  0  0  0  0  0  0  0  0
    1.1337   -0.0886   -0.3631 C   0  0  0  0  0  0  0  0  0  0  0  0
    0.5256    1.0759   -0.8113 O   0  0  0  0  0  0  0  0  0  0  0  0
   -0.8426    0.9484   -0.6148 C   0  0  0  0  0  0  0  0  0  0  0  0
   -1.1337    0.9172    0.8547 C   0  0  0  0  0  0  0  0  0  0  0  0
   -0.4760   -0.2211    1.3160 O   0  0  0  0  0  0  0  0  0  0  0  0
    0.0053   -0.9052    0.2017 C   0  0  0  0  0  0  0  0  0  0  0  0
   -1.0238   -0.5589   -0.8884 C   0  0  0  0  0  0  0  0  0  0  0  0
   -2.2772   -0.9603   -0.5896 O   0  0  0  0  0  0  0  0  0  0  0  0
    2.4048   -0.6271    1.3357 H   0  0  0  0  0  0  0  0  0  0  0  0
    3.2009    0.2200   -0.0040 H   0  0  0  0  0  0  0  0  0  0  0  0
    2.0674    1.1044    1.1150 H   0  0  0  0  0  0  0  0  0  0  0  0
    1.5186   -0.6634   -1.2561 H   0  0  0  0  0  0  0  0  0  0  0  0
   -1.4638    1.5680   -1.2226 H   0  0  0  0  0  0  0  0  0  0  0  0
   -0.7926    1.8290    1.3944 H   0  0  0  0  0  0  0  0  0  0  0  0
   -2.2511    0.7960    0.9602 H   0  0  0  0  0  0  0  0  0  0  0  0
    0.1747   -1.9488    0.3252 H   0  0  0  0  0  0  0  0  0  0  0  0
   -0.6519   -0.7335   -1.8860 H   0  0  0  0  0  0  0  0  0  0  0  0
   -2.3669   -1.9148   -0.4543 H   0  0  0  0  0  0  0  0  0  0  0  0
  1  2  1  0
  2  3  1  0
  3  4  1  0
  4  5  1  0
  5  6  1  0
  6  7  1  0
  7  8  1  0
  8  9  1  0
  7  2  1  0
  8  4  1  0
  1 10  1  0
  1 11  1  0
  1 12  1  0
  2 13  1  0
  4 14  1  0
  5 15  1  0
  5 16  1  0
  7 17  1  0
  8 18  1  0
  9 19  1  0
M  END
