
     RDKit          3D

 21 21  0  0  0  0  0  0  0  0999 V2000
   -2.1901   -0.9103   -0.1713 C   0  0  0  0  0  0  0  0  0  0  0  0
   -0.9212   -0.4717    0.5188 C   0  0  0  0  0  0  0  0  0  0  0  0
   -1.1471    0.3715    1.6227 O   0  0  0  0  0  0  0  0  0  0  0  0
   -0.7127    1.5102    0.9481 C   0  0  0  0  0  0  0  0  0  0  0  0
   -0.1621    0.6288   -0.1350 C   0  0  0  0  0  0  0  0  0  0  0  0
   -0.5547    0.9583   -1.4281 O   0  0  0  0  0  0  0  0  0  0  0  0
    1.3350    0.4813    0.0294 C   0  0  0  0  0  0  0  0  0  0  0  0
    1.8664   -0.7999   -0.5655 C   0  0  0  0  0  0  0  0  0  0  0  0
    3.2594   -0.7858   -0.3326 O   0  0  0  0  0  0  0  0  0  0  0  0
   -2.2554   -2.0181   -0.1821 H   0  0  0  0  0  0  0  0  0  0  0  0
   -2.2522   -0.5616   -1.2167 H   0  0  0  0  0  0  0  0  0  0  0  0
   -3.1017   -0.5452    0.3637 H   0  0  0  0  0  0  0  0  0  0  0  0
   -0.3263   -1.3382    0.8649 H   0  0  0  0  0  0  0  0  0  0  0  0
    0.0754    2.0852    1.5174 H   0  0  0  0  0  0  0  0  0  0  0  0
   -1.5682    2.1496    0.6666 H   0  0  0  0  0  0  0  0  0  0  0  0
   -1.4182    1.3976   -1.4787 H   0  0  0  0  0  0  0  0  0  0  0  0
    1.8281    1.3139   -0.5521 H   0  0  0  0  0  0  0  0  0  0  0  0
    1.6336    0.6058    1.0792 H   0  0  0  0  0  0  0  0  0  0  0  0
    1.7328   -0.8098   -1.6561 H   0  0  0  0  0  0  0  0  0  0  0  0
    1.4057   -1.6887   -0.1424 H   0  0  0  0  0  0  0  0  0  0  0  0
    3.4736   -1.5728    0.2498 H   0  0  0  0  0  0  0  0  0  0  0  0
  1  2  1  0
  2  3  1  0
  3  4  1  0
  4  5  1  0
  5  6  1  0
  5  7  1  0
  7  8  1  0
  8  9  1  0
  5  2  1  0
  1 10  1  0
  1 11  1  0
  1 12  1  0
  2 13  1  0
  4 14  1  0
  4 15  1  0
  6 16  1  0
  7 17  1  0
  7 18  1  0
  8 19  1  0
  8 20  1  0
  9 21  1  0
M  END
