
     RDKit          3D

 21 22  0  0  0  0  0  0  0  0999 V2000
   -0.6743    1.7455   -0.3494 C   0  0  0  0  0  0  0  0  0  0  0  0
   -0.8501    0.5842    0.5395 C   0  0  0  0  0  0  0  0  0  0  0  0
   -2.0151   -0.0851    0.1260 O   0  0  0  0  0  0  0  0  0  0  0  0
   -1.7895   -1.4298    0.2007 C   0  0  0  0  0  0  0  0  0  0  0  0
   -0.3361   -1.5241   -0.2891 C   0  0  0  0  0  0  0  0  0  0  0  0
    0.2166   -0.4220    0.6405 C   0  0  0  0  0  0  0  0  0  0  0  0
    1.6026   -0.0848    0.3635 C   0  0  0  0  0  0  0  0  0  0  0  0
    2.2397    0.4077   -0.7995 C   0  0  0  0  0  0  0  0  0  0  0  0
    1.7002    1.3738    0.1032 O   0  0  0  0  0  0  0  0  0  0  0  0
   -1.7080    2.1134   -0.6388 H   0  0  0  0  0  0  0  0  0  0  0  0
   -0.1613    1.5785   -1.2950 H   0  0  0  0  0  0  0  0  0  0  0  0
   -0.2682    2.6092    0.2344 H   0  0  0  0  0  0  0  0  0  0  0  0
   -1.1136    0.9832    1.5650 H   0  0  0  0  0  0  0  0  0  0  0  0
   -2.4734   -1.9707   -0.4642 H   0  0  0  0  0  0  0  0  0  0  0  0
   -1.8134   -1.7589    1.2460 H   0  0  0  0  0  0  0  0  0  0  0  0
   -0.2595   -1.2475   -1.3364 H   0  0  0  0  0  0  0  0  0  0  0  0
    0.0862   -2.4969   -0.0424 H   0  0  0  0  0  0  0  0  0  0  0  0
    0.1259   -0.8918    1.6466 H   0  0  0  0  0  0  0  0  0  0  0  0
    2.2902   -0.3835    1.2123 H   0  0  0  0  0  0  0  0  0  0  0  0
    3.3480    0.4899   -0.8215 H   0  0  0  0  0  0  0  0  0  0  0  0
    1.8532    0.4096   -1.8414 H   0  0  0  0  0  0  0  0  0  0  0  0
  1  2  1  0
  2  3  1  0
  3  4  1  0
  4  5  1  0
  5  6  1  0
  6  7  1  0
  7  8  1  0
  8  9  1  0
  6  2  1  0
  9  7  1  0
  1 10  1  0
  1 11  1  0
  1 12  1  0
  2 13  1  0
  4 14  1  0
  4 15  1  0
  5 16  1  0
  5 17  1  0
  6 18  1  0
  7 19  1  0
  8 20  1  0
  8 21  1  0
M  END
