
     RDKit          3D

 15 15  0  0  0  0  0  0  0  0999 V2000
    2.4132    0.1801    0.2211 C   0  0  0  0  0  0  0  0  0  0  0  0
    1.1111   -0.5361   -0.0723 C   0  0  0  0  0  0  0  0  0  0  0  0
    0.3624   -0.8256    1.0830 O   0  0  0  0  0  0  0  0  0  0  0  0
   -0.1592    0.1566    0.1019 C   0  0  0  0  0  0  0  0  0  0  0  0
   -1.3988   -0.3470   -0.5391 C   0  0  0  0  0  0  0  0  0  0  0  0
   -2.5833    0.5027   -0.2361 C   0  0  0  0  0  0  0  0  0  0  0  0
   -2.5092    1.5000    0.4676 O   0  0  0  0  0  0  0  0  0  0  0  0
    3.2839   -0.4704   -0.0082 H   0  0  0  0  0  0  0  0  0  0  0  0
    2.5124    0.4485    1.3007 H   0  0  0  0  0  0  0  0  0  0  0  0
    2.5368    1.0809   -0.4323 H   0  0  0  0  0  0  0  0  0  0  0  0
    1.1899   -1.2843   -0.8641 H   0  0  0  0  0  0  0  0  0  0  0  0
   -0.2426    1.1252    0.6433 H   0  0  0  0  0  0  0  0  0  0  0  0
   -1.6442   -1.3732   -0.2102 H   0  0  0  0  0  0  0  0  0  0  0  0
   -1.3284   -0.3827   -1.6504 H   0  0  0  0  0  0  0  0  0  0  0  0
   -3.5440    0.2254   -0.6551 H   0  0  0  0  0  0  0  0  0  0  0  0
  1  2  1  0
  2  3  1  0
  3  4  1  0
  4  5  1  0
  5  6  1  0
  6  7  2  0
  4  2  1  0
  1  8  1  0
  1  9  1  0
  1 10  1  0
  2 11  1  0
  4 12  1  0
  5 13  1  0
  5 14  1  0
  6 15  1  0
M  END
