
     RDKit          3D

 21 22  0  0  0  0  0  0  0  0999 V2000
    2.9553    0.5290   -0.0822 C   0  0  0  0  0  0  0  0  0  0  0  0
    2.2291   -0.7468    0.1963 C   0  0  0  0  0  0  0  0  0  0  0  0
    1.5894   -0.6944    1.5166 O   0  0  0  0  0  0  0  0  0  0  0  0
    0.7894   -0.8361    0.4115 C   0  0  0  0  0  0  0  0  0  0  0  0
   -0.1148    0.2690   -0.0452 C   0  0  0  0  0  0  0  0  0  0  0  0
   -1.5632    0.0230    0.2509 C   0  0  0  0  0  0  0  0  0  0  0  0
   -1.8827   -0.1351    1.5968 O   0  0  0  0  0  0  0  0  0  0  0  0
   -2.5093    0.9676   -0.5021 C   0  0  0  0  0  0  0  0  0  0  0  0
   -2.4816   -0.5413   -0.7589 C   0  0  0  0  0  0  0  0  0  0  0  0
    3.9457    0.4621    0.4579 H   0  0  0  0  0  0  0  0  0  0  0  0
    2.4654    1.4316    0.3162 H   0  0  0  0  0  0  0  0  0  0  0  0
    3.2156    0.6120   -1.1534 H   0  0  0  0  0  0  0  0  0  0  0  0
    2.8500   -1.6616    0.0455 H   0  0  0  0  0  0  0  0  0  0  0  0
    0.3470   -1.8631    0.2741 H   0  0  0  0  0  0  0  0  0  0  0  0
    0.0553    0.4210   -1.1319 H   0  0  0  0  0  0  0  0  0  0  0  0
    0.1818    1.1988    0.4690 H   0  0  0  0  0  0  0  0  0  0  0  0
   -1.0882   -0.4223    2.0969 H   0  0  0  0  0  0  0  0  0  0  0  0
   -2.0872    1.5484   -1.3531 H   0  0  0  0  0  0  0  0  0  0  0  0
   -3.3561    1.4003    0.0401 H   0  0  0  0  0  0  0  0  0  0  0  0
   -2.1553   -0.9100   -1.7345 H   0  0  0  0  0  0  0  0  0  0  0  0
   -3.3857   -1.0520   -0.3716 H   0  0  0  0  0  0  0  0  0  0  0  0
  1  2  1  0
  2  3  1  0
  3  4  1  0
  4  5  1  0
  5  6  1  0
  6  7  1  0
  6  8  1  0
  8  9  1  0
  4  2  1  0
  9  6  1  0
  1 10  1  0
  1 11  1  0
  1 12  1  0
  2 13  1  0
  4 14  1  0
  5 15  1  0
  5 16  1  0
  7 17  1  0
  8 18  1  0
  8 19  1  0
  9 20  1  0
  9 21  1  0
M  END
