
     RDKit          3D

 19 21  0  0  0  0  0  0  0  0999 V2000
    2.4392   -0.0895   -0.2961 C   0  0  0  0  0  0  0  0  0  0  0  0
    1.0828    0.0166    0.3899 C   0  0  0  0  0  0  0  0  0  0  0  0
    0.3566   -1.1236    0.3229 O   0  0  0  0  0  0  0  0  0  0  0  0
   -0.9692   -1.1450    0.3190 C   0  0  0  0  0  0  0  0  0  0  0  0
   -1.6532   -0.6962   -0.9547 C   0  0  0  0  0  0  0  0  0  0  0  0
   -1.7392    0.1321    0.2076 C   0  0  0  0  0  0  0  0  0  0  0  0
   -0.8830    1.1954    0.7171 C   0  0  0  0  0  0  0  0  0  0  0  0
   -0.2335    2.2191    0.2220 O   0  0  0  0  0  0  0  0  0  0  0  0
    0.3389    1.1239   -0.2303 C   0  0  0  0  0  0  0  0  0  0  0  0
    3.1150   -0.5741    0.4220 H   0  0  0  0  0  0  0  0  0  0  0  0
    2.7951    0.9631   -0.4334 H   0  0  0  0  0  0  0  0  0  0  0  0
    2.3897   -0.5459   -1.2819 H   0  0  0  0  0  0  0  0  0  0  0  0
    1.2777    0.2642    1.4591 H   0  0  0  0  0  0  0  0  0  0  0  0
   -1.4381   -1.9794    0.9201 H   0  0  0  0  0  0  0  0  0  0  0  0
   -2.5518   -1.3415   -1.1994 H   0  0  0  0  0  0  0  0  0  0  0  0
   -1.0600   -0.5617   -1.8688 H   0  0  0  0  0  0  0  0  0  0  0  0
   -2.7323    0.1188    0.7662 H   0  0  0  0  0  0  0  0  0  0  0  0
   -0.6745    1.0698    1.8256 H   0  0  0  0  0  0  0  0  0  0  0  0
    0.1400    0.9538   -1.3070 H   0  0  0  0  0  0  0  0  0  0  0  0
  1  2  1  0
  2  3  1  0
  3  4  1  0
  4  5  1  0
  5  6  1  0
  6  7  1  0
  7  8  1  0
  8  9  1  0
  9  2  1  0
  6  4  1  0
  9  7  1  0
  1 10  1  0
  1 11  1  0
  1 12  1  0
  2 13  1  0
  4 14  1  0
  5 15  1  0
  5 16  1  0
  6 17  1  0
  7 18  1  0
  9 19  1  0
M  END
