
     RDKit          3D

 19 20  0  0  0  0  0  0  0  0999 V2000
    2.2494   -0.6038    0.1268 C   0  0  0  0  0  0  0  0  0  0  0  0
    0.9720   -0.1542   -0.5384 C   0  0  0  0  0  0  0  0  0  0  0  0
    0.2361   -1.1564   -1.0869 O   0  0  0  0  0  0  0  0  0  0  0  0
   -0.9425   -1.3078   -0.4215 C   0  0  0  0  0  0  0  0  0  0  0  0
   -1.0622   -0.2846    0.6445 C   0  0  0  0  0  0  0  0  0  0  0  0
   -1.9392    0.8828    0.3507 C   0  0  0  0  0  0  0  0  0  0  0  0
   -3.1078    1.1528    0.5701 O   0  0  0  0  0  0  0  0  0  0  0  0
   -0.7948    1.5652   -0.3142 C   0  0  0  0  0  0  0  0  0  0  0  0
    0.1238    0.6021    0.4291 C   0  0  0  0  0  0  0  0  0  0  0  0
    2.8276   -1.2987   -0.4917 H   0  0  0  0  0  0  0  0  0  0  0  0
    2.0268   -1.0356    1.1345 H   0  0  0  0  0  0  0  0  0  0  0  0
    2.8520    0.3130    0.3119 H   0  0  0  0  0  0  0  0  0  0  0  0
    1.2847    0.5806   -1.3371 H   0  0  0  0  0  0  0  0  0  0  0  0
   -1.8474   -1.2567   -1.0630 H   0  0  0  0  0  0  0  0  0  0  0  0
   -0.9545   -2.3399    0.0224 H   0  0  0  0  0  0  0  0  0  0  0  0
   -1.1323   -0.6761    1.6680 H   0  0  0  0  0  0  0  0  0  0  0  0
   -0.5925    2.5928    0.0620 H   0  0  0  0  0  0  0  0  0  0  0  0
   -0.7747    1.4493   -1.4065 H   0  0  0  0  0  0  0  0  0  0  0  0
    0.5753    0.9751    1.3391 H   0  0  0  0  0  0  0  0  0  0  0  0
  1  2  1  0
  2  3  1  0
  3  4  1  0
  4  5  1  0
  5  6  1  0
  6  7  2  0
  6  8  1  0
  8  9  1  0
  9  2  1  0
  9  5  1  0
  1 10  1  0
  1 11  1  0
  1 12  1  0
  2 13  1  0
  4 14  1  0
  4 15  1  0
  5 16  1  0
  8 17  1  0
  8 18  1  0
  9 19  1  0
M  END
