
     RDKit          3D

 21 21  0  0  0  0  0  0  0  0999 V2000
    2.7667   -0.1982    0.3504 C   0  0  0  0  0  0  0  0  0  0  0  0
    1.2515   -0.0792    0.2452 C   0  0  0  0  0  0  0  0  0  0  0  0
    0.6764   -1.2480   -0.2018 O   0  0  0  0  0  0  0  0  0  0  0  0
   -0.5189   -1.5659    0.3961 C   0  0  0  0  0  0  0  0  0  0  0  0
   -1.6735   -0.7137   -0.0260 C   0  0  0  0  0  0  0  0  0  0  0  0
   -1.3125    0.7632    0.0395 C   0  0  0  0  0  0  0  0  0  0  0  0
   -2.4292    1.5453   -0.2015 O   0  0  0  0  0  0  0  0  0  0  0  0
   -0.3178    1.0217   -1.0589 C   0  0  0  0  0  0  0  0  0  0  0  0
    0.9846    0.9184   -0.6656 O   0  0  0  0  0  0  0  0  0  0  0  0
    3.2855    0.6005   -0.2290 H   0  0  0  0  0  0  0  0  0  0  0  0
    3.1269   -1.1554   -0.0528 H   0  0  0  0  0  0  0  0  0  0  0  0
    3.1196   -0.0745    1.4003 H   0  0  0  0  0  0  0  0  0  0  0  0
    0.8802    0.1462    1.2745 H   0  0  0  0  0  0  0  0  0  0  0  0
   -0.7646   -2.6199    0.0847 H   0  0  0  0  0  0  0  0  0  0  0  0
   -0.4839   -1.5589    1.5097 H   0  0  0  0  0  0  0  0  0  0  0  0
   -2.5015   -0.8794    0.6703 H   0  0  0  0  0  0  0  0  0  0  0  0
   -1.9868   -0.9024   -1.0761 H   0  0  0  0  0  0  0  0  0  0  0  0
   -0.9331    1.0519    1.0478 H   0  0  0  0  0  0  0  0  0  0  0  0
   -2.1176    2.4991   -0.1420 H   0  0  0  0  0  0  0  0  0  0  0  0
   -0.5834    0.3734   -1.9291 H   0  0  0  0  0  0  0  0  0  0  0  0
   -0.4685    2.0756   -1.4356 H   0  0  0  0  0  0  0  0  0  0  0  0
  1  2  1  0
  2  3  1  0
  3  4  1  0
  4  5  1  0
  5  6  1  0
  6  7  1  0
  6  8  1  0
  8  9  1  0
  9  2  1  0
  1 10  1  0
  1 11  1  0
  1 12  1  0
  2 13  1  0
  4 14  1  0
  4 15  1  0
  5 16  1  0
  5 17  1  0
  6 18  1  0
  7 19  1  0
  8 20  1  0
  8 21  1  0
M  END
