
     RDKit          3D

 21 22  0  0  0  0  0  0  0  0999 V2000
    2.5283    0.4646   -0.3742 C   0  0  0  0  0  0  0  0  0  0  0  0
    1.7189    0.5787    0.8752 C   0  0  0  0  0  0  0  0  0  0  0  0
    0.7262    1.6496    0.7618 O   0  0  0  0  0  0  0  0  0  0  0  0
    0.3855    0.2481    1.1133 C   0  0  0  0  0  0  0  0  0  0  0  0
   -0.6834   -0.2530    0.2701 C   0  0  0  0  0  0  0  0  0  0  0  0
   -1.0088    0.6730   -0.9002 C   0  0  0  0  0  0  0  0  0  0  0  0
   -1.9623   -0.4753    1.0495 C   0  0  0  0  0  0  0  0  0  0  0  0
   -1.5174   -1.7969    1.2617 O   0  0  0  0  0  0  0  0  0  0  0  0
   -0.9063   -1.6887    0.0143 C   0  0  0  0  0  0  0  0  0  0  0  0
    3.4659   -0.1024   -0.1640 H   0  0  0  0  0  0  0  0  0  0  0  0
    2.8495    1.4784   -0.7002 H   0  0  0  0  0  0  0  0  0  0  0  0
    2.0158   -0.0016   -1.2210 H   0  0  0  0  0  0  0  0  0  0  0  0
    2.3853    0.8390    1.7251 H   0  0  0  0  0  0  0  0  0  0  0  0
    0.0641    0.2660    2.1920 H   0  0  0  0  0  0  0  0  0  0  0  0
   -0.0957    1.1377   -1.2786 H   0  0  0  0  0  0  0  0  0  0  0  0
   -1.7000    1.4656   -0.5431 H   0  0  0  0  0  0  0  0  0  0  0  0
   -1.5555    0.0549   -1.6358 H   0  0  0  0  0  0  0  0  0  0  0  0
   -2.8804   -0.5000    0.4069 H   0  0  0  0  0  0  0  0  0  0  0  0
   -2.0596    0.1177    1.9693 H   0  0  0  0  0  0  0  0  0  0  0  0
   -0.0787   -2.3459   -0.1932 H   0  0  0  0  0  0  0  0  0  0  0  0
   -1.6917   -1.8096   -0.7714 H   0  0  0  0  0  0  0  0  0  0  0  0
  1  2  1  0
  2  3  1  0
  3  4  1  0
  4  5  1  0
  5  6  1  0
  5  7  1  0
  7  8  1  0
  8  9  1  0
  4  2  1  0
  9  5  1  0
  1 10  1  0
  1 11  1  0
  1 12  1  0
  2 13  1  0
  4 14  1  0
  6 15  1  0
  6 16  1  0
  6 17  1  0
  7 18  1  0
  7 19  1  0
  9 20  1  0
  9 21  1  0
M  END
