
     RDKit          3D

 17 18  0  0  0  0  0  0  0  0999 V2000
   -2.5419    0.1122   -0.0486 C   0  0  0  0  0  0  0  0  0  0  0  0
   -1.0833    0.0653    0.1574 C   0  0  0  0  0  0  0  0  0  0  0  0
   -0.6080   -1.2083    0.5436 O   0  0  0  0  0  0  0  0  0  0  0  0
    0.7532   -0.9351    0.6403 C   0  0  0  0  0  0  0  0  0  0  0  0
    1.6649   -1.1574   -0.4973 C   0  0  0  0  0  0  0  0  0  0  0  0
    0.9499    0.1337   -0.4865 C   0  0  0  0  0  0  0  0  0  0  0  0
    1.6108    1.3811   -0.1032 C   0  0  0  0  0  0  0  0  0  0  0  0
    2.7352    1.3598    0.3670 O   0  0  0  0  0  0  0  0  0  0  0  0
   -0.3375    0.2420   -1.0174 O   0  0  0  0  0  0  0  0  0  0  0  0
   -2.7499    0.6804   -0.9926 H   0  0  0  0  0  0  0  0  0  0  0  0
   -2.9953    0.7500    0.7643 H   0  0  0  0  0  0  0  0  0  0  0  0
   -3.0573   -0.8439   -0.0991 H   0  0  0  0  0  0  0  0  0  0  0  0
   -0.7146    0.7617    0.9468 H   0  0  0  0  0  0  0  0  0  0  0  0
    1.1178   -0.6717    1.6309 H   0  0  0  0  0  0  0  0  0  0  0  0
    2.7438   -1.0980   -0.2656 H   0  0  0  0  0  0  0  0  0  0  0  0
    1.4318   -1.8850   -1.2932 H   0  0  0  0  0  0  0  0  0  0  0  0
    1.0802    2.3131   -0.2468 H   0  0  0  0  0  0  0  0  0  0  0  0
  1  2  1  0
  2  3  1  0
  3  4  1  0
  4  5  1  0
  5  6  1  0
  6  7  1  0
  7  8  2  0
  6  9  1  0
  9  2  1  0
  6  4  1  0
  1 10  1  0
  1 11  1  0
  1 12  1  0
  2 13  1  0
  4 14  1  0
  5 15  1  0
  5 16  1  0
  7 17  1  0
M  END
