
     RDKit          3D

 17 19  0  0  0  0  0  0  0  0999 V2000
    2.2476    0.7088    0.4470 C   0  0  0  0  0  0  0  0  0  0  0  0
    1.2278   -0.4405    0.4595 C   0  0  0  0  0  0  0  0  0  0  0  0
    0.2403   -0.3533    1.5091 O   0  0  0  0  0  0  0  0  0  0  0  0
   -0.0782   -0.2184    0.1935 C   0  0  0  0  0  0  0  0  0  0  0  0
   -1.1277   -1.0721   -0.4653 C   0  0  0  0  0  0  0  0  0  0  0  0
   -2.0585   -1.6527    0.3612 O   0  0  0  0  0  0  0  0  0  0  0  0
   -1.6823    0.2234   -1.0739 C   0  0  0  0  0  0  0  0  0  0  0  0
   -0.7914    1.0449   -1.7539 O   0  0  0  0  0  0  0  0  0  0  0  0
   -0.7565    0.9906   -0.3580 C   0  0  0  0  0  0  0  0  0  0  0  0
    3.2414    0.3762    0.1503 H   0  0  0  0  0  0  0  0  0  0  0  0
    1.8470    1.4169   -0.3366 H   0  0  0  0  0  0  0  0  0  0  0  0
    2.2032    1.2623    1.4006 H   0  0  0  0  0  0  0  0  0  0  0  0
    1.7343   -1.4419    0.3757 H   0  0  0  0  0  0  0  0  0  0  0  0
   -0.6409   -1.7387   -1.2120 H   0  0  0  0  0  0  0  0  0  0  0  0
   -2.0052   -1.3731    1.3029 H   0  0  0  0  0  0  0  0  0  0  0  0
   -2.7578    0.3436   -1.1825 H   0  0  0  0  0  0  0  0  0  0  0  0
   -0.8430    1.9238    0.1825 H   0  0  0  0  0  0  0  0  0  0  0  0
  1  2  1  0
  2  3  1  0
  3  4  1  0
  4  5  1  0
  5  6  1  0
  5  7  1  0
  7  8  1  0
  8  9  1  0
  4  2  1  0
  9  7  1  0
  9  4  1  0
  1 10  1  0
  1 11  1  0
  1 12  1  0
  2 13  1  0
  5 14  1  0
  6 15  1  0
  7 16  1  0
  9 17  1  0
M  END
