
     RDKit          3D

 15 15  0  0  0  0  0  0  0  0999 V2000
   -1.9899    0.7448    0.2299 C   0  0  0  0  0  0  0  0  0  0  0  0
   -0.5639    0.2687    0.5267 C   0  0  0  0  0  0  0  0  0  0  0  0
    0.2123    0.7874   -0.5142 O   0  0  0  0  0  0  0  0  0  0  0  0
    1.0759   -0.1937   -0.9241 C   0  0  0  0  0  0  0  0  0  0  0  0
    2.4098   -0.0249   -0.2889 C   0  0  0  0  0  0  0  0  0  0  0  0
    2.6446    0.8837    0.4847 O   0  0  0  0  0  0  0  0  0  0  0  0
    0.5398   -1.4487   -0.4867 O   0  0  0  0  0  0  0  0  0  0  0  0
   -0.4533   -1.1966    0.4463 C   0  0  0  0  0  0  0  0  0  0  0  0
   -1.1187   -2.0448    1.0880 O   0  0  0  0  0  0  0  0  0  0  0  0
   -1.9052    1.8275    0.0169 H   0  0  0  0  0  0  0  0  0  0  0  0
   -2.6274    0.5275    1.0848 H   0  0  0  0  0  0  0  0  0  0  0  0
   -2.3658    0.1738   -0.6404 H   0  0  0  0  0  0  0  0  0  0  0  0
   -0.2497    0.6330    1.5190 H   0  0  0  0  0  0  0  0  0  0  0  0
    1.1689   -0.2294   -2.0478 H   0  0  0  0  0  0  0  0  0  0  0  0
    3.2225   -0.7083   -0.4941 H   0  0  0  0  0  0  0  0  0  0  0  0
  1  2  1  0
  2  3  1  0
  3  4  1  0
  4  5  1  0
  5  6  2  0
  4  7  1  0
  7  8  1  0
  8  9  2  0
  8  2  1  0
  1 10  1  0
  1 11  1  0
  1 12  1  0
  2 13  1  0
  4 14  1  0
  5 15  1  0
M  END
