
     RDKit          3D

 17 19  0  0  0  0  0  0  0  0999 V2000
    2.3860    0.1455    0.2966 C   0  0  0  0  0  0  0  0  0  0  0  0
    0.9853    0.7349    0.1338 C   0  0  0  0  0  0  0  0  0  0  0  0
    0.5131    0.6204   -1.1466 O   0  0  0  0  0  0  0  0  0  0  0  0
   -0.5557   -0.2230   -1.1682 C   0  0  0  0  0  0  0  0  0  0  0  0
   -0.5877   -0.8536    0.2027 C   0  0  0  0  0  0  0  0  0  0  0  0
    0.1569    0.0582    0.9887 O   0  0  0  0  0  0  0  0  0  0  0  0
   -2.0431   -0.5592    0.3546 C   0  0  0  0  0  0  0  0  0  0  0  0
   -2.9098   -0.5667   -0.7006 O   0  0  0  0  0  0  0  0  0  0  0  0
   -1.9090    0.3618   -0.8682 C   0  0  0  0  0  0  0  0  0  0  0  0
    2.3774   -0.7542    0.9480 H   0  0  0  0  0  0  0  0  0  0  0  0
    2.7387   -0.1707   -0.7143 H   0  0  0  0  0  0  0  0  0  0  0  0
    3.0923    0.8826    0.7248 H   0  0  0  0  0  0  0  0  0  0  0  0
    1.0528    1.8310    0.3658 H   0  0  0  0  0  0  0  0  0  0  0  0
   -0.5489   -0.9278   -2.0164 H   0  0  0  0  0  0  0  0  0  0  0  0
   -0.2600   -1.8864    0.2802 H   0  0  0  0  0  0  0  0  0  0  0  0
   -2.4313   -0.1194    1.2927 H   0  0  0  0  0  0  0  0  0  0  0  0
   -2.0571    1.4266   -0.7305 H   0  0  0  0  0  0  0  0  0  0  0  0
  1  2  1  0
  2  3  1  0
  3  4  1  0
  4  5  1  0
  5  6  1  0
  5  7  1  0
  7  8  1  0
  8  9  1  0
  6  2  1  0
  9  7  1  0
  9  4  1  0
  1 10  1  0
  1 11  1  0
  1 12  1  0
  2 13  1  0
  4 14  1  0
  5 15  1  0
  7 16  1  0
  9 17  1  0
M  END
