
     RDKit          3D

 21 22  0  0  0  0  0  0  0  0999 V2000
   -1.0518    2.1651    0.0671 C   0  0  0  0  0  0  0  0  0  0  0  0
   -0.2570    0.9329   -0.4007 C   0  0  0  0  0  0  0  0  0  0  0  0
    1.0395    1.2370   -0.2568 O   0  0  0  0  0  0  0  0  0  0  0  0
    1.9642    0.3036   -0.0368 C   0  0  0  0  0  0  0  0  0  0  0  0
    1.5458   -1.1189    0.0390 C   0  0  0  0  0  0  0  0  0  0  0  0
    0.1668   -1.3588    0.5281 C   0  0  0  0  0  0  0  0  0  0  0  0
   -0.5603   -2.1291   -0.4044 O   0  0  0  0  0  0  0  0  0  0  0  0
   -1.6155   -1.2238   -0.4369 C   0  0  0  0  0  0  0  0  0  0  0  0
   -0.7857   -0.2365    0.3306 C   0  0  0  0  0  0  0  0  0  0  0  0
   -2.1168    2.0537   -0.1197 H   0  0  0  0  0  0  0  0  0  0  0  0
   -0.5963    3.0891   -0.3339 H   0  0  0  0  0  0  0  0  0  0  0  0
   -0.8645    2.2032    1.1786 H   0  0  0  0  0  0  0  0  0  0  0  0
   -0.4941    0.8608   -1.5014 H   0  0  0  0  0  0  0  0  0  0  0  0
    2.7536    0.3751   -0.8447 H   0  0  0  0  0  0  0  0  0  0  0  0
    2.5341    0.5739    0.9019 H   0  0  0  0  0  0  0  0  0  0  0  0
    2.2433   -1.6564    0.7503 H   0  0  0  0  0  0  0  0  0  0  0  0
    1.7485   -1.6429   -0.9420 H   0  0  0  0  0  0  0  0  0  0  0  0
    0.0644   -1.8421    1.5359 H   0  0  0  0  0  0  0  0  0  0  0  0
   -1.9091   -0.9520   -1.4531 H   0  0  0  0  0  0  0  0  0  0  0  0
   -2.4800   -1.6649    0.1178 H   0  0  0  0  0  0  0  0  0  0  0  0
   -1.3292    0.0310    1.2812 H   0  0  0  0  0  0  0  0  0  0  0  0
  1  2  1  0
  2  3  1  0
  3  4  1  0
  4  5  1  0
  5  6  1  0
  6  7  1  0
  7  8  1  0
  8  9  1  0
  9  2  1  0
  9  6  1  0
  1 10  1  0
  1 11  1  0
  1 12  1  0
  2 13  1  0
  4 14  1  0
  4 15  1  0
  5 16  1  0
  5 17  1  0
  6 18  1  0
  8 19  1  0
  8 20  1  0
  9 21  1  0
M  END
