
     RDKit          3D

 19 20  0  0  0  0  0  0  0  0999 V2000
   -2.1143   -0.8999   -0.2125 C   0  0  0  0  0  0  0  0  0  0  0  0
   -0.8707   -0.7315    0.6029 C   0  0  0  0  0  0  0  0  0  0  0  0
    0.0939   -1.6547    0.2183 O   0  0  0  0  0  0  0  0  0  0  0  0
    0.9495   -0.6089   -0.0687 C   0  0  0  0  0  0  0  0  0  0  0  0
    2.2995   -0.5661    0.4745 C   0  0  0  0  0  0  0  0  0  0  0  0
    2.7052   -1.4516    1.1945 O   0  0  0  0  0  0  0  0  0  0  0  0
    0.5707    0.2859   -1.2308 C   0  0  0  0  0  0  0  0  0  0  0  0
   -0.0535    0.4290    0.0949 C   0  0  0  0  0  0  0  0  0  0  0  0
    0.1040    1.6410    0.9433 C   0  0  0  0  0  0  0  0  0  0  0  0
   -1.8643   -0.7031   -1.2802 H   0  0  0  0  0  0  0  0  0  0  0  0
   -2.8909   -0.1367    0.0599 H   0  0  0  0  0  0  0  0  0  0  0  0
   -2.5571   -1.9124   -0.1427 H   0  0  0  0  0  0  0  0  0  0  0  0
   -0.9845   -0.6970    1.6887 H   0  0  0  0  0  0  0  0  0  0  0  0
    2.9525    0.2540    0.2417 H   0  0  0  0  0  0  0  0  0  0  0  0
    0.0069   -0.1494   -2.0770 H   0  0  0  0  0  0  0  0  0  0  0  0
    1.4082    0.9420   -1.5526 H   0  0  0  0  0  0  0  0  0  0  0  0
    1.0702    1.7453    1.4378 H   0  0  0  0  0  0  0  0  0  0  0  0
   -0.7529    1.6478    1.6777 H   0  0  0  0  0  0  0  0  0  0  0  0
   -0.0723    2.5664    0.3198 H   0  0  0  0  0  0  0  0  0  0  0  0
  1  2  1  0
  2  3  1  0
  3  4  1  0
  4  5  1  0
  5  6  2  0
  4  7  1  0
  7  8  1  0
  8  9  1  0
  8  2  1  0
  8  4  1  0
  1 10  1  0
  1 11  1  0
  1 12  1  0
  2 13  1  0
  5 14  1  0
  7 15  1  0
  7 16  1  0
  9 17  1  0
  9 18  1  0
  9 19  1  0
M  END
