
     RDKit          3D

 21 23  0  0  0  0  0  0  0  0999 V2000
    2.5821    0.5195    1.1467 C   0  0  0  0  0  0  0  0  0  0  0  0
    1.8624   -0.3505    0.1567 C   0  0  0  0  0  0  0  0  0  0  0  0
    0.8596   -1.1561    0.6813 O   0  0  0  0  0  0  0  0  0  0  0  0
   -0.1434   -0.6447   -0.1396 C   0  0  0  0  0  0  0  0  0  0  0  0
   -1.4785   -0.3532    0.4274 C   0  0  0  0  0  0  0  0  0  0  0  0
   -2.5228    0.1976   -0.5019 C   0  0  0  0  0  0  0  0  0  0  0  0
   -2.0084    0.9863    0.6765 C   0  0  0  0  0  0  0  0  0  0  0  0
    0.1122   -0.6108   -1.5985 C   0  0  0  0  0  0  0  0  0  0  0  0
    0.7995    0.3241   -0.6591 C   0  0  0  0  0  0  0  0  0  0  0  0
    3.2787    1.1672    0.5583 H   0  0  0  0  0  0  0  0  0  0  0  0
    1.9173    1.1006    1.7969 H   0  0  0  0  0  0  0  0  0  0  0  0
    3.2203   -0.1377    1.7688 H   0  0  0  0  0  0  0  0  0  0  0  0
    2.5759   -0.9174   -0.4571 H   0  0  0  0  0  0  0  0  0  0  0  0
   -1.8779   -1.1715    1.0963 H   0  0  0  0  0  0  0  0  0  0  0  0
   -2.2675    0.6270   -1.4711 H   0  0  0  0  0  0  0  0  0  0  0  0
   -3.5592   -0.2064   -0.4597 H   0  0  0  0  0  0  0  0  0  0  0  0
   -2.7654    1.1309    1.4808 H   0  0  0  0  0  0  0  0  0  0  0  0
   -1.3869    1.8822    0.4883 H   0  0  0  0  0  0  0  0  0  0  0  0
   -0.5749   -0.1537   -2.2949 H   0  0  0  0  0  0  0  0  0  0  0  0
    0.6877   -1.4913   -1.9988 H   0  0  0  0  0  0  0  0  0  0  0  0
    0.6892    1.3966   -0.6973 H   0  0  0  0  0  0  0  0  0  0  0  0
  1  2  1  0
  2  3  1  0
  3  4  1  0
  4  5  1  0
  5  6  1  0
  6  7  1  0
  4  8  1  0
  8  9  1  0
  9  2  1  0
  9  4  1  0
  7  5  1  0
  1 10  1  0
  1 11  1  0
  1 12  1  0
  2 13  1  0
  5 14  1  0
  6 15  1  0
  6 16  1  0
  7 17  1  0
  7 18  1  0
  8 19  1  0
  8 20  1  0
  9 21  1  0
M  END
