
     RDKit          3D

 21 22  0  0  0  0  0  0  0  0999 V2000
    2.3774    1.0511    0.4132 C   0  0  0  0  0  0  0  0  0  0  0  0
    2.1776   -0.3695   -0.0639 C   0  0  0  0  0  0  0  0  0  0  0  0
    1.9128   -1.2862    0.9630 O   0  0  0  0  0  0  0  0  0  0  0  0
    0.6339   -1.6168    0.5169 C   0  0  0  0  0  0  0  0  0  0  0  0
   -0.3443   -0.5235    0.5158 C   0  0  0  0  0  0  0  0  0  0  0  0
   -1.7417   -0.6927    0.0024 C   0  0  0  0  0  0  0  0  0  0  0  0
   -2.5032    0.6222    0.1388 C   0  0  0  0  0  0  0  0  0  0  0  0
   -1.9062    1.6346   -0.5721 O   0  0  0  0  0  0  0  0  0  0  0  0
    0.7430   -0.5524   -0.5058 C   0  0  0  0  0  0  0  0  0  0  0  0
    3.4400    1.3383    0.4901 H   0  0  0  0  0  0  0  0  0  0  0  0
    1.8726    1.7088   -0.3224 H   0  0  0  0  0  0  0  0  0  0  0  0
    1.8595    1.1216    1.4015 H   0  0  0  0  0  0  0  0  0  0  0  0
    2.9080   -0.7240   -0.8163 H   0  0  0  0  0  0  0  0  0  0  0  0
    0.3884   -2.6560    0.2562 H   0  0  0  0  0  0  0  0  0  0  0  0
   -0.2530    0.2253    1.3289 H   0  0  0  0  0  0  0  0  0  0  0  0
   -1.7462   -0.9423   -1.0706 H   0  0  0  0  0  0  0  0  0  0  0  0
   -2.2600   -1.5018    0.5378 H   0  0  0  0  0  0  0  0  0  0  0  0
   -3.5529    0.4628   -0.1074 H   0  0  0  0  0  0  0  0  0  0  0  0
   -2.4362    0.9065    1.2288 H   0  0  0  0  0  0  0  0  0  0  0  0
   -2.0950    2.5254   -0.2365 H   0  0  0  0  0  0  0  0  0  0  0  0
    0.5254   -0.7315   -1.5670 H   0  0  0  0  0  0  0  0  0  0  0  0
  1  2  1  0
  2  3  1  0
  3  4  1  0
  4  5  1  0
  5  6  1  0
  6  7  1  0
  7  8  1  0
  5  9  1  0
  9  2  1  0
  9  4  1  0
  1 10  1  0
  1 11  1  0
  1 12  1  0
  2 13  1  0
  4 14  1  0
  5 15  1  0
  6 16  1  0
  6 17  1  0
  7 18  1  0
  7 19  1  0
  8 20  1  0
  9 21  1  0
M  END
