
     RDKit          3D

 18 19  0  0  0  0  0  0  0  0999 V2000
   -2.4862    0.4337    0.2519 C   0  0  0  0  0  0  0  0  0  0  0  0
   -1.0031    0.4860    0.6291 C   0  0  0  0  0  0  0  0  0  0  0  0
   -0.5588   -0.7159    1.1964 O   0  0  0  0  0  0  0  0  0  0  0  0
   -0.1912   -1.1172   -0.0763 C   0  0  0  0  0  0  0  0  0  0  0  0
    1.0517   -0.5372   -0.6099 C   0  0  0  0  0  0  0  0  0  0  0  0
    2.2211   -0.2269    0.2628 C   0  0  0  0  0  0  0  0  0  0  0  0
    1.9605    0.6778    1.2644 O   0  0  0  0  0  0  0  0  0  0  0  0
   -0.1072    0.3570   -0.5495 C   0  0  0  0  0  0  0  0  0  0  0  0
   -2.5441    0.7253   -0.8249 H   0  0  0  0  0  0  0  0  0  0  0  0
   -2.9055   -0.5753    0.3595 H   0  0  0  0  0  0  0  0  0  0  0  0
   -3.0616    1.1965    0.8035 H   0  0  0  0  0  0  0  0  0  0  0  0
   -0.7756    1.3093    1.3467 H   0  0  0  0  0  0  0  0  0  0  0  0
   -0.8675   -1.7286   -0.6663 H   0  0  0  0  0  0  0  0  0  0  0  0
    1.3529   -0.9561   -1.6148 H   0  0  0  0  0  0  0  0  0  0  0  0
    2.6417   -1.1914    0.6347 H   0  0  0  0  0  0  0  0  0  0  0  0
    3.0383    0.2032   -0.3885 H   0  0  0  0  0  0  0  0  0  0  0  0
    2.8280    1.0705    1.5607 H   0  0  0  0  0  0  0  0  0  0  0  0
   -0.5934    0.5893   -1.5269 H   0  0  0  0  0  0  0  0  0  0  0  0
  1  2  1  0
  2  3  1  0
  3  4  1  0
  4  5  1  0
  5  6  1  0
  6  7  1  0
  5  8  1  0
  8  2  1  0
  8  4  1  0
  1  9  1  0
  1 10  1  0
  1 11  1  0
  2 12  1  0
  4 13  1  0
  5 14  1  0
  6 15  1  0
  6 16  1  0
  7 17  1  0
  8 18  1  0
M  END
