
     RDKit          3D

 19 20  0  0  0  0  0  0  0  0999 V2000
   -2.1829   -0.4092    0.3448 C   0  0  0  0  0  0  0  0  0  0  0  0
   -0.9649    0.5230    0.4113 C   0  0  0  0  0  0  0  0  0  0  0  0
   -0.8984    1.1728   -0.7931 O   0  0  0  0  0  0  0  0  0  0  0  0
    0.3878    1.1274   -1.2640 C   0  0  0  0  0  0  0  0  0  0  0  0
    1.0447   -0.0718   -0.6421 C   0  0  0  0  0  0  0  0  0  0  0  0
    1.4413   -1.1421   -1.4014 O   0  0  0  0  0  0  0  0  0  0  0  0
    1.5944    0.1780    0.7242 C   0  0  0  0  0  0  0  0  0  0  0  0
    0.2350   -0.3406    0.5724 C   0  0  0  0  0  0  0  0  0  0  0  0
    0.0381   -1.6627    1.0132 O   0  0  0  0  0  0  0  0  0  0  0  0
   -1.8355   -1.3461   -0.1808 H   0  0  0  0  0  0  0  0  0  0  0  0
   -2.5607   -0.6711    1.3271 H   0  0  0  0  0  0  0  0  0  0  0  0
   -2.9402    0.0298   -0.3442 H   0  0  0  0  0  0  0  0  0  0  0  0
   -1.1073    1.2370    1.2383 H   0  0  0  0  0  0  0  0  0  0  0  0
    0.9006    2.0682   -0.9065 H   0  0  0  0  0  0  0  0  0  0  0  0
    0.4647    1.1011   -2.3729 H   0  0  0  0  0  0  0  0  0  0  0  0
    2.2841   -0.8862   -1.8674 H   0  0  0  0  0  0  0  0  0  0  0  0
    2.3851   -0.4910    1.0504 H   0  0  0  0  0  0  0  0  0  0  0  0
    1.7438    1.2358    1.0725 H   0  0  0  0  0  0  0  0  0  0  0  0
   -0.0298   -1.6522    2.0184 H   0  0  0  0  0  0  0  0  0  0  0  0
  1  2  1  0
  2  3  1  0
  3  4  1  0
  4  5  1  0
  5  6  1  0
  5  7  1  0
  7  8  1  0
  8  9  1  0
  8  2  1  0
  8  5  1  0
  1 10  1  0
  1 11  1  0
  1 12  1  0
  2 13  1  0
  4 14  1  0
  4 15  1  0
  6 16  1  0
  7 17  1  0
  7 18  1  0
  9 19  1  0
M  END
