
     RDKit          3D

 19 19  0  0  0  0  0  0  0  0999 V2000
    3.4100    1.9105   -0.5616 C   0  0  0  0  0  0  0  0  0  0  0  0
    2.3827    0.7847   -0.4844 C   0  0  0  0  0  0  0  0  0  0  0  0
    2.4233   -0.0290    0.6412 O   0  0  0  0  0  0  0  0  0  0  0  0
    1.3352    0.8889    0.4642 C   0  0  0  0  0  0  0  0  0  0  0  0
    0.0594    0.2235    0.1963 C   0  0  0  0  0  0  0  0  0  0  0  0
   -0.9851   -0.3414   -0.0132 C   0  0  0  0  0  0  0  0  0  0  0  0
   -2.2426   -1.0483   -0.2580 C   0  0  0  0  0  0  0  0  0  0  0  0
   -2.7915   -1.6114    1.0559 C   0  0  0  0  0  0  0  0  0  0  0  0
   -3.9787   -2.2772    0.8150 O   0  0  0  0  0  0  0  0  0  0  0  0
    4.4038    1.5571   -0.1840 H   0  0  0  0  0  0  0  0  0  0  0  0
    3.5275    2.2565   -1.6092 H   0  0  0  0  0  0  0  0  0  0  0  0
    3.1198    2.7662    0.0780 H   0  0  0  0  0  0  0  0  0  0  0  0
    2.2927    0.2347   -1.4461 H   0  0  0  0  0  0  0  0  0  0  0  0
    1.3536    1.7276    1.2093 H   0  0  0  0  0  0  0  0  0  0  0  0
   -2.0286   -1.8522   -0.9786 H   0  0  0  0  0  0  0  0  0  0  0  0
   -2.9524   -0.2953   -0.6572 H   0  0  0  0  0  0  0  0  0  0  0  0
   -2.9294   -0.7458    1.7441 H   0  0  0  0  0  0  0  0  0  0  0  0
   -2.0148   -2.2536    1.4988 H   0  0  0  0  0  0  0  0  0  0  0  0
   -4.3849   -1.8956   -0.0059 H   0  0  0  0  0  0  0  0  0  0  0  0
  1  2  1  0
  2  3  1  0
  3  4  1  0
  4  5  1  0
  5  6  3  0
  6  7  1  0
  7  8  1  0
  8  9  1  0
  4  2  1  0
  1 10  1  0
  1 11  1  0
  1 12  1  0
  2 13  1  0
  4 14  1  0
  7 15  1  0
  7 16  1  0
  8 17  1  0
  8 18  1  0
  9 19  1  0
M  END
