
     RDKit          3D

 21 22  0  0  0  0  0  0  0  0999 V2000
    2.1985    0.1032   -0.9821 C   0  0  0  0  0  0  0  0  0  0  0  0
    1.4380    0.3351    0.2631 C   0  0  0  0  0  0  0  0  0  0  0  0
    0.6019    1.4319    0.2511 O   0  0  0  0  0  0  0  0  0  0  0  0
   -0.5592    1.0886    0.9341 C   0  0  0  0  0  0  0  0  0  0  0  0
   -1.7273    0.9051   -0.0203 C   0  0  0  0  0  0  0  0  0  0  0  0
   -1.8447   -0.5837   -0.2971 C   0  0  0  0  0  0  0  0  0  0  0  0
   -0.4481   -1.0812   -0.6004 C   0  0  0  0  0  0  0  0  0  0  0  0
    0.4418   -0.7879    0.5787 C   0  0  0  0  0  0  0  0  0  0  0  0
   -0.2923   -0.1214    1.5900 O   0  0  0  0  0  0  0  0  0  0  0  0
    2.5394   -0.9736   -0.9860 H   0  0  0  0  0  0  0  0  0  0  0  0
    3.1561    0.6878   -0.9262 H   0  0  0  0  0  0  0  0  0  0  0  0
    1.7135    0.3944   -1.9137 H   0  0  0  0  0  0  0  0  0  0  0  0
    2.1141    0.3866    1.1343 H   0  0  0  0  0  0  0  0  0  0  0  0
   -0.7963    1.8858    1.6915 H   0  0  0  0  0  0  0  0  0  0  0  0
   -1.5088    1.4454   -0.9674 H   0  0  0  0  0  0  0  0  0  0  0  0
   -2.6882    1.2196    0.4345 H   0  0  0  0  0  0  0  0  0  0  0  0
   -2.1216   -1.0465    0.6932 H   0  0  0  0  0  0  0  0  0  0  0  0
   -2.5796   -0.8268   -1.0586 H   0  0  0  0  0  0  0  0  0  0  0  0
   -0.1060   -0.6098   -1.5385 H   0  0  0  0  0  0  0  0  0  0  0  0
   -0.5012   -2.1891   -0.7179 H   0  0  0  0  0  0  0  0  0  0  0  0
    0.9698   -1.6635    0.9644 H   0  0  0  0  0  0  0  0  0  0  0  0
  1  2  1  0
  2  3  1  0
  3  4  1  0
  4  5  1  0
  5  6  1  0
  6  7  1  0
  7  8  1  0
  8  9  1  0
  8  2  1  0
  9  4  1  0
  1 10  1  0
  1 11  1  0
  1 12  1  0
  2 13  1  0
  4 14  1  0
  5 15  1  0
  5 16  1  0
  6 17  1  0
  6 18  1  0
  7 19  1  0
  7 20  1  0
  8 21  1  0
M  END
