
     RDKit          3D

 19 20  0  0  0  0  0  0  0  0999 V2000
    2.2799   -0.0749   -0.4028 C   0  0  0  0  0  0  0  0  0  0  0  0
    1.0292    0.4893    0.1781 C   0  0  0  0  0  0  0  0  0  0  0  0
    0.3441    1.3283   -0.7706 O   0  0  0  0  0  0  0  0  0  0  0  0
   -0.9994    1.1371   -1.0337 C   0  0  0  0  0  0  0  0  0  0  0  0
   -1.6228    1.8323   -1.8451 O   0  0  0  0  0  0  0  0  0  0  0  0
   -1.6635    0.0471   -0.2886 C   0  0  0  0  0  0  0  0  0  0  0  0
   -0.7807   -1.1940   -0.3274 C   0  0  0  0  0  0  0  0  0  0  0  0
    0.0780   -0.5198    0.7202 C   0  0  0  0  0  0  0  0  0  0  0  0
   -1.1884    0.2080    1.1521 C   0  0  0  0  0  0  0  0  0  0  0  0
    2.3003   -1.1926   -0.3006 H   0  0  0  0  0  0  0  0  0  0  0  0
    3.1814    0.2738    0.1606 H   0  0  0  0  0  0  0  0  0  0  0  0
    2.4265    0.2429   -1.4515 H   0  0  0  0  0  0  0  0  0  0  0  0
    1.3014    1.1812    1.0129 H   0  0  0  0  0  0  0  0  0  0  0  0
   -2.7224   -0.1035   -0.4355 H   0  0  0  0  0  0  0  0  0  0  0  0
   -0.2705   -1.3753   -1.2688 H   0  0  0  0  0  0  0  0  0  0  0  0
   -1.3199   -2.0505    0.0615 H   0  0  0  0  0  0  0  0  0  0  0  0
    0.4476   -1.1586    1.5185 H   0  0  0  0  0  0  0  0  0  0  0  0
   -1.0282    1.2524    1.4237 H   0  0  0  0  0  0  0  0  0  0  0  0
   -1.7925   -0.3231    1.8970 H   0  0  0  0  0  0  0  0  0  0  0  0
  1  2  1  0
  2  3  1  0
  3  4  1  0
  4  5  2  0
  4  6  1  0
  6  7  1  0
  7  8  1  0
  8  9  1  0
  8  2  1  0
  9  6  1  0
  1 10  1  0
  1 11  1  0
  1 12  1  0
  2 13  1  0
  6 14  1  0
  7 15  1  0
  7 16  1  0
  8 17  1  0
  9 18  1  0
  9 19  1  0
M  END
