
     RDKit          3D

 21 22  0  0  0  0  0  0  0  0999 V2000
    2.3700    0.6494   -0.4898 C   0  0  0  0  0  0  0  0  0  0  0  0
    1.1712   -0.0869   -0.0145 C   0  0  0  0  0  0  0  0  0  0  0  0
    0.4687    0.5078    0.9936 O   0  0  0  0  0  0  0  0  0  0  0  0
   -0.8952    0.4642    0.8057 C   0  0  0  0  0  0  0  0  0  0  0  0
   -1.4178   -0.9151    0.4934 C   0  0  0  0  0  0  0  0  0  0  0  0
   -0.6941   -1.4461   -0.7262 C   0  0  0  0  0  0  0  0  0  0  0  0
    0.2105   -0.2985   -1.1919 C   0  0  0  0  0  0  0  0  0  0  0  0
   -0.4972    0.8456   -1.4642 O   0  0  0  0  0  0  0  0  0  0  0  0
   -1.2131    1.3433   -0.3958 C   0  0  0  0  0  0  0  0  0  0  0  0
    3.3121    0.1550   -0.1387 H   0  0  0  0  0  0  0  0  0  0  0  0
    2.4250    0.5832   -1.6119 H   0  0  0  0  0  0  0  0  0  0  0  0
    2.3713    1.7206   -0.2491 H   0  0  0  0  0  0  0  0  0  0  0  0
    1.4873   -1.1006    0.3426 H   0  0  0  0  0  0  0  0  0  0  0  0
   -1.4342    0.8808    1.6631 H   0  0  0  0  0  0  0  0  0  0  0  0
   -2.4858   -0.7838    0.1837 H   0  0  0  0  0  0  0  0  0  0  0  0
   -1.3944   -1.6044    1.3441 H   0  0  0  0  0  0  0  0  0  0  0  0
    0.0260   -2.2192   -0.3370 H   0  0  0  0  0  0  0  0  0  0  0  0
   -1.3486   -1.8108   -1.5091 H   0  0  0  0  0  0  0  0  0  0  0  0
    0.7922   -0.5844   -2.0693 H   0  0  0  0  0  0  0  0  0  0  0  0
   -2.3145    1.3217   -0.5769 H   0  0  0  0  0  0  0  0  0  0  0  0
   -0.9393    2.3782   -0.1126 H   0  0  0  0  0  0  0  0  0  0  0  0
  1  2  1  0
  2  3  1  0
  3  4  1  0
  4  5  1  0
  5  6  1  0
  6  7  1  0
  7  8  1  0
  8  9  1  0
  7  2  1  0
  9  4  1  0
  1 10  1  0
  1 11  1  0
  1 12  1  0
  2 13  1  0
  4 14  1  0
  5 15  1  0
  5 16  1  0
  6 17  1  0
  6 18  1  0
  7 19  1  0
  9 20  1  0
  9 21  1  0
M  END
