
     RDKit          3D

 20 21  0  0  0  0  0  0  0  0999 V2000
    1.5824   -1.4519    0.1433 C   0  0  0  0  0  0  0  0  0  0  0  0
    0.9507   -0.2066   -0.4072 C   0  0  0  0  0  0  0  0  0  0  0  0
    1.5462    0.8852    0.2220 O   0  0  0  0  0  0  0  0  0  0  0  0
    0.6624    1.9275   -0.0838 C   0  0  0  0  0  0  0  0  0  0  0  0
   -0.7249    1.3343    0.1588 C   0  0  0  0  0  0  0  0  0  0  0  0
   -1.4350    0.6512   -0.9245 C   0  0  0  0  0  0  0  0  0  0  0  0
   -0.4806   -0.1124    0.0095 C   0  0  0  0  0  0  0  0  0  0  0  0
   -1.1407   -1.1514    0.8309 C   0  0  0  0  0  0  0  0  0  0  0  0
    2.5823   -1.5629   -0.3295 H   0  0  0  0  0  0  0  0  0  0  0  0
    0.9171   -2.3090   -0.0985 H   0  0  0  0  0  0  0  0  0  0  0  0
    1.6434   -1.4154    1.2484 H   0  0  0  0  0  0  0  0  0  0  0  0
    1.1237   -0.1302   -1.4861 H   0  0  0  0  0  0  0  0  0  0  0  0
    0.7840    2.2900   -1.1173 H   0  0  0  0  0  0  0  0  0  0  0  0
    0.8484    2.7811    0.5988 H   0  0  0  0  0  0  0  0  0  0  0  0
   -1.2829    1.7662    0.9967 H   0  0  0  0  0  0  0  0  0  0  0  0
   -2.5162    0.4941   -0.7910 H   0  0  0  0  0  0  0  0  0  0  0  0
   -1.0905    0.6169   -1.9693 H   0  0  0  0  0  0  0  0  0  0  0  0
   -1.6499   -1.8780    0.1317 H   0  0  0  0  0  0  0  0  0  0  0  0
   -1.9327   -0.7870    1.4990 H   0  0  0  0  0  0  0  0  0  0  0  0
   -0.3871   -1.7417    1.3681 H   0  0  0  0  0  0  0  0  0  0  0  0
  1  2  1  0
  2  3  1  0
  3  4  1  0
  4  5  1  0
  5  6  1  0
  6  7  1  0
  7  8  1  0
  7  2  1  0
  7  5  1  0
  1  9  1  0
  1 10  1  0
  1 11  1  0
  2 12  1  0
  4 13  1  0
  4 14  1  0
  5 15  1  0
  6 16  1  0
  6 17  1  0
  8 18  1  0
  8 19  1  0
  8 20  1  0
M  END
