
     RDKit          3D

 20 21  0  0  0  0  0  0  0  0999 V2000
    2.3676   -0.1798   -0.6845 C   0  0  0  0  0  0  0  0  0  0  0  0
    1.0952   -0.3665    0.0910 C   0  0  0  0  0  0  0  0  0  0  0  0
    0.4853   -1.6212   -0.0839 O   0  0  0  0  0  0  0  0  0  0  0  0
   -0.5762   -0.8645    0.4650 C   0  0  0  0  0  0  0  0  0  0  0  0
   -1.9434   -1.3901    0.1096 C   0  0  0  0  0  0  0  0  0  0  0  0
   -0.1140    0.2771   -0.3244 C   0  0  0  0  0  0  0  0  0  0  0  0
   -1.1484    1.2291   -0.2175 C   0  0  0  0  0  0  0  0  0  0  0  0
    0.1620    1.6934   -0.1174 C   0  0  0  0  0  0  0  0  0  0  0  0
    3.1231   -0.8902   -0.2424 H   0  0  0  0  0  0  0  0  0  0  0  0
    2.7435    0.8267   -0.4874 H   0  0  0  0  0  0  0  0  0  0  0  0
    2.1713   -0.3867   -1.7388 H   0  0  0  0  0  0  0  0  0  0  0  0
    1.3270   -0.2482    1.1917 H   0  0  0  0  0  0  0  0  0  0  0  0
   -0.4238   -0.8231    1.5651 H   0  0  0  0  0  0  0  0  0  0  0  0
   -2.0148   -2.4768    0.1591 H   0  0  0  0  0  0  0  0  0  0  0  0
   -2.2063   -0.9884   -0.8892 H   0  0  0  0  0  0  0  0  0  0  0  0
   -2.6583   -0.9530    0.8345 H   0  0  0  0  0  0  0  0  0  0  0  0
   -1.7423    1.3957   -1.1717 H   0  0  0  0  0  0  0  0  0  0  0  0
   -1.8492    1.4577    0.6426 H   0  0  0  0  0  0  0  0  0  0  0  0
    0.6625    2.1594   -1.0095 H   0  0  0  0  0  0  0  0  0  0  0  0
    0.5390    2.1493    0.8225 H   0  0  0  0  0  0  0  0  0  0  0  0
  1  2  1  0
  2  3  1  0
  3  4  1  0
  4  5  1  0
  4  6  1  0
  6  7  1  0
  7  8  1  0
  6  2  1  0
  8  6  1  0
  1  9  1  0
  1 10  1  0
  1 11  1  0
  2 12  1  0
  4 13  1  0
  5 14  1  0
  5 15  1  0
  5 16  1  0
  7 17  1  0
  7 18  1  0
  8 19  1  0
  8 20  1  0
M  END
