
     RDKit          3D

 23 24  0  0  0  0  0  0  0  0999 V2000
    2.9435    0.1352   -0.2060 C   0  0  0  0  0  0  0  0  0  0  0  0
    1.5335    0.1225   -0.6947 C   0  0  0  0  0  0  0  0  0  0  0  0
    0.8179    1.3096   -0.5192 O   0  0  0  0  0  0  0  0  0  0  0  0
   -0.1746    0.7448    0.2355 C   0  0  0  0  0  0  0  0  0  0  0  0
   -0.7437    1.3927    1.4401 C   0  0  0  0  0  0  0  0  0  0  0  0
    0.5234   -0.5401    0.2324 C   0  0  0  0  0  0  0  0  0  0  0  0
   -0.8706   -0.5191   -0.2480 C   0  0  0  0  0  0  0  0  0  0  0  0
   -1.9203   -1.0795    0.6608 C   0  0  0  0  0  0  0  0  0  0  0  0
   -1.2073   -0.4691   -1.7169 C   0  0  0  0  0  0  0  0  0  0  0  0
    3.2771    1.2031   -0.1076 H   0  0  0  0  0  0  0  0  0  0  0  0
    3.6246   -0.3807   -0.9167 H   0  0  0  0  0  0  0  0  0  0  0  0
    3.0276   -0.4109    0.7552 H   0  0  0  0  0  0  0  0  0  0  0  0
    1.4589   -0.3386   -1.6902 H   0  0  0  0  0  0  0  0  0  0  0  0
   -0.1317    2.2769    1.7319 H   0  0  0  0  0  0  0  0  0  0  0  0
   -0.7989    0.7511    2.3396 H   0  0  0  0  0  0  0  0  0  0  0  0
   -1.7775    1.7543    1.1792 H   0  0  0  0  0  0  0  0  0  0  0  0
    0.8509   -1.0642    1.1227 H   0  0  0  0  0  0  0  0  0  0  0  0
   -2.8547   -0.4782    0.4843 H   0  0  0  0  0  0  0  0  0  0  0  0
   -1.5959   -1.0203    1.7158 H   0  0  0  0  0  0  0  0  0  0  0  0
   -2.1081   -2.1679    0.4661 H   0  0  0  0  0  0  0  0  0  0  0  0
   -2.1711    0.0978   -1.7981 H   0  0  0  0  0  0  0  0  0  0  0  0
   -1.2624   -1.4503   -2.1967 H   0  0  0  0  0  0  0  0  0  0  0  0
   -0.4406    0.1308   -2.2694 H   0  0  0  0  0  0  0  0  0  0  0  0
  1  2  1  0
  2  3  1  0
  3  4  1  0
  4  5  1  0
  4  6  1  0
  6  7  1  0
  7  8  1  0
  7  9  1  0
  6  2  1  0
  7  4  1  0
  1 10  1  0
  1 11  1  0
  1 12  1  0
  2 13  1  0
  5 14  1  0
  5 15  1  0
  5 16  1  0
  6 17  1  0
  8 18  1  0
  8 19  1  0
  8 20  1  0
  9 21  1  0
  9 22  1  0
  9 23  1  0
M  END
