
     RDKit          3D

 15 15  0  0  0  0  0  0  0  0999 V2000
    2.2565    0.2204    0.2369 C   0  0  0  0  0  0  0  0  0  0  0  0
    0.8568    0.4216   -0.3442 C   0  0  0  0  0  0  0  0  0  0  0  0
    0.4559   -0.7383   -1.0631 O   0  0  0  0  0  0  0  0  0  0  0  0
   -0.6638   -1.2589   -0.4400 C   0  0  0  0  0  0  0  0  0  0  0  0
   -1.2635   -2.3534   -0.5670 O   0  0  0  0  0  0  0  0  0  0  0  0
   -1.1089   -0.2154    0.5139 C   0  0  0  0  0  0  0  0  0  0  0  0
   -2.2269    0.5707   -0.0911 C   0  0  0  0  0  0  0  0  0  0  0  0
   -3.2593   -0.0625   -0.3076 O   0  0  0  0  0  0  0  0  0  0  0  0
    0.0012    0.5604    0.7227 O   0  0  0  0  0  0  0  0  0  0  0  0
    3.0373    0.2624   -0.5403 H   0  0  0  0  0  0  0  0  0  0  0  0
    2.2754   -0.7297    0.8015 H   0  0  0  0  0  0  0  0  0  0  0  0
    2.3703    1.0352    0.9997 H   0  0  0  0  0  0  0  0  0  0  0  0
    0.8571    1.3312   -0.9860 H   0  0  0  0  0  0  0  0  0  0  0  0
   -1.4191   -0.6502    1.4856 H   0  0  0  0  0  0  0  0  0  0  0  0
   -2.1689    1.6067   -0.3309 H   0  0  0  0  0  0  0  0  0  0  0  0
  1  2  1  0
  2  3  1  0
  3  4  1  0
  4  5  2  0
  4  6  1  0
  6  7  1  0
  7  8  2  0
  6  9  1  0
  9  2  1  0
  1 10  1  0
  1 11  1  0
  1 12  1  0
  2 13  1  0
  6 14  1  0
  7 15  1  0
M  END
