
     RDKit          3D

 17 18  0  0  0  0  0  0  0  0999 V2000
    1.9473    0.3413   -0.1059 C   0  0  0  0  0  0  0  0  0  0  0  0
    0.7363   -0.3850   -0.6092 C   0  0  0  0  0  0  0  0  0  0  0  0
    0.6520   -1.6764   -0.0329 O   0  0  0  0  0  0  0  0  0  0  0  0
   -0.7212   -1.5127    0.2559 C   0  0  0  0  0  0  0  0  0  0  0  0
   -0.5671   -0.0802   -0.0461 C   0  0  0  0  0  0  0  0  0  0  0  0
   -0.7742    0.9314    0.9852 C   0  0  0  0  0  0  0  0  0  0  0  0
   -2.0919    1.1038    0.4389 O   0  0  0  0  0  0  0  0  0  0  0  0
   -1.5740    0.6388   -0.7629 C   0  0  0  0  0  0  0  0  0  0  0  0
   -1.9009    0.8139   -1.9568 O   0  0  0  0  0  0  0  0  0  0  0  0
    2.5617    0.7368   -0.9653 H   0  0  0  0  0  0  0  0  0  0  0  0
    1.7337    1.2009    0.5345 H   0  0  0  0  0  0  0  0  0  0  0  0
    2.6576   -0.3592    0.4238 H   0  0  0  0  0  0  0  0  0  0  0  0
    0.7132   -0.4369   -1.7353 H   0  0  0  0  0  0  0  0  0  0  0  0
   -0.9936   -1.8043    1.2752 H   0  0  0  0  0  0  0  0  0  0  0  0
   -1.3692   -2.0443   -0.4996 H   0  0  0  0  0  0  0  0  0  0  0  0
   -0.2104    1.8792    0.7573 H   0  0  0  0  0  0  0  0  0  0  0  0
   -0.7995    0.6529    2.0431 H   0  0  0  0  0  0  0  0  0  0  0  0
  1  2  1  0
  2  3  1  0
  3  4  1  0
  4  5  1  0
  5  6  1  0
  6  7  1  0
  7  8  1  0
  8  9  2  0
  5  2  1  0
  8  5  1  0
  1 10  1  0
  1 11  1  0
  1 12  1  0
  2 13  1  0
  4 14  1  0
  4 15  1  0
  6 16  1  0
  6 17  1  0
M  END
