
     RDKit          3D

 21 22  0  0  0  0  0  0  0  0999 V2000
   -1.9219   -1.2933   -0.4292 C   0  0  0  0  0  0  0  0  0  0  0  0
   -1.0993   -0.4266    0.4986 C   0  0  0  0  0  0  0  0  0  0  0  0
    0.0707   -1.0939    0.7735 O   0  0  0  0  0  0  0  0  0  0  0  0
    1.0426   -0.9718   -0.1966 C   0  0  0  0  0  0  0  0  0  0  0  0
    2.4011   -0.5628    0.3531 C   0  0  0  0  0  0  0  0  0  0  0  0
    1.5788    0.4721   -0.2802 C   0  0  0  0  0  0  0  0  0  0  0  0
    0.5967    1.3169    0.4632 C   0  0  0  0  0  0  0  0  0  0  0  0
   -0.7898    0.9197   -0.0632 C   0  0  0  0  0  0  0  0  0  0  0  0
   -1.6866    1.9048    0.2571 O   0  0  0  0  0  0  0  0  0  0  0  0
   -2.7966   -0.7812   -0.8442 H   0  0  0  0  0  0  0  0  0  0  0  0
   -2.2758   -2.1593    0.1785 H   0  0  0  0  0  0  0  0  0  0  0  0
   -1.2506   -1.7334   -1.2064 H   0  0  0  0  0  0  0  0  0  0  0  0
   -1.6832   -0.3392    1.4477 H   0  0  0  0  0  0  0  0  0  0  0  0
    0.9660   -1.4650   -1.1630 H   0  0  0  0  0  0  0  0  0  0  0  0
    3.2386   -0.9617   -0.2431 H   0  0  0  0  0  0  0  0  0  0  0  0
    2.5780   -0.6201    1.4453 H   0  0  0  0  0  0  0  0  0  0  0  0
    1.8624    0.8579   -1.2718 H   0  0  0  0  0  0  0  0  0  0  0  0
    0.6332    1.1204    1.5661 H   0  0  0  0  0  0  0  0  0  0  0  0
    0.7822    2.3879    0.3369 H   0  0  0  0  0  0  0  0  0  0  0  0
   -0.6558    0.8056   -1.1777 H   0  0  0  0  0  0  0  0  0  0  0  0
   -1.5908    2.6232   -0.4447 H   0  0  0  0  0  0  0  0  0  0  0  0
  1  2  1  0
  2  3  1  0
  3  4  1  0
  4  5  1  0
  5  6  1  0
  6  7  1  0
  7  8  1  0
  8  9  1  0
  8  2  1  0
  6  4  1  0
  1 10  1  0
  1 11  1  0
  1 12  1  0
  2 13  1  0
  4 14  1  0
  5 15  1  0
  5 16  1  0
  6 17  1  0
  7 18  1  0
  7 19  1  0
  8 20  1  0
  9 21  1  0
M  END
