
     RDKit          3D

 21 22  0  0  0  0  0  0  0  0999 V2000
    2.7223   -0.2537    0.0106 C   0  0  0  0  0  0  0  0  0  0  0  0
    1.2669    0.1041    0.3638 C   0  0  0  0  0  0  0  0  0  0  0  0
    0.6836   -0.9809    0.8891 O   0  0  0  0  0  0  0  0  0  0  0  0
   -0.5050   -1.4094    0.4252 C   0  0  0  0  0  0  0  0  0  0  0  0
   -1.5794   -0.3993    0.2491 C   0  0  0  0  0  0  0  0  0  0  0  0
   -1.4886    0.1139   -1.1967 C   0  0  0  0  0  0  0  0  0  0  0  0
   -0.5288    1.1741   -0.6369 C   0  0  0  0  0  0  0  0  0  0  0  0
   -1.1944    0.9931    0.6871 C   0  0  0  0  0  0  0  0  0  0  0  0
    0.7261    0.6665   -0.7419 O   0  0  0  0  0  0  0  0  0  0  0  0
    3.2856   -0.3552    0.9729 H   0  0  0  0  0  0  0  0  0  0  0  0
    3.1735    0.6591   -0.4763 H   0  0  0  0  0  0  0  0  0  0  0  0
    2.7851   -1.1441   -0.6134 H   0  0  0  0  0  0  0  0  0  0  0  0
    1.3862    0.8808    1.1762 H   0  0  0  0  0  0  0  0  0  0  0  0
   -0.4093   -1.9699   -0.5489 H   0  0  0  0  0  0  0  0  0  0  0  0
   -0.8988   -2.1908    1.1406 H   0  0  0  0  0  0  0  0  0  0  0  0
   -2.6016   -0.6724    0.5566 H   0  0  0  0  0  0  0  0  0  0  0  0
   -2.4279    0.5371   -1.5822 H   0  0  0  0  0  0  0  0  0  0  0  0
   -0.9917   -0.6156   -1.8622 H   0  0  0  0  0  0  0  0  0  0  0  0
   -0.7031    2.1407   -1.1528 H   0  0  0  0  0  0  0  0  0  0  0  0
   -2.1001    1.6346    0.7524 H   0  0  0  0  0  0  0  0  0  0  0  0
   -0.6007    1.0875    1.5877 H   0  0  0  0  0  0  0  0  0  0  0  0
  1  2  1  0
  2  3  1  0
  3  4  1  0
  4  5  1  0
  5  6  1  0
  6  7  1  0
  7  8  1  0
  7  9  1  0
  9  2  1  0
  8  5  1  0
  1 10  1  0
  1 11  1  0
  1 12  1  0
  2 13  1  0
  4 14  1  0
  4 15  1  0
  5 16  1  0
  6 17  1  0
  6 18  1  0
  7 19  1  0
  8 20  1  0
  8 21  1  0
M  END
