
     RDKit          3D

 21 21  0  0  0  0  0  0  0  0999 V2000
    2.4569   -0.0681    0.4280 C   0  0  0  0  0  0  0  0  0  0  0  0
    1.3137   -0.0305   -0.5858 C   0  0  0  0  0  0  0  0  0  0  0  0
    0.7016   -1.2683   -0.5381 O   0  0  0  0  0  0  0  0  0  0  0  0
   -0.2591   -1.3906    0.4322 C   0  0  0  0  0  0  0  0  0  0  0  0
   -1.5885   -0.9620   -0.1947 C   0  0  0  0  0  0  0  0  0  0  0  0
   -1.8326    0.4578    0.2709 C   0  0  0  0  0  0  0  0  0  0  0  0
   -1.0123    1.3722   -0.6060 C   0  0  0  0  0  0  0  0  0  0  0  0
    0.4293    1.0988   -0.3019 C   0  0  0  0  0  0  0  0  0  0  0  0
    0.9951    2.0117    0.3167 O   0  0  0  0  0  0  0  0  0  0  0  0
    1.9913   -0.3905    1.3930 H   0  0  0  0  0  0  0  0  0  0  0  0
    2.9498    0.9087    0.5218 H   0  0  0  0  0  0  0  0  0  0  0  0
    3.1388   -0.8745    0.0989 H   0  0  0  0  0  0  0  0  0  0  0  0
    1.7577    0.0943   -1.6130 H   0  0  0  0  0  0  0  0  0  0  0  0
   -0.0229   -0.7655    1.3218 H   0  0  0  0  0  0  0  0  0  0  0  0
   -0.3360   -2.4326    0.7982 H   0  0  0  0  0  0  0  0  0  0  0  0
   -2.3809   -1.6443    0.1105 H   0  0  0  0  0  0  0  0  0  0  0  0
   -1.5179   -0.9782   -1.3084 H   0  0  0  0  0  0  0  0  0  0  0  0
   -1.4467    0.5510    1.3072 H   0  0  0  0  0  0  0  0  0  0  0  0
   -2.9087    0.7202    0.2336 H   0  0  0  0  0  0  0  0  0  0  0  0
   -1.2481    2.4297   -0.3910 H   0  0  0  0  0  0  0  0  0  0  0  0
   -1.1804    1.1609   -1.6939 H   0  0  0  0  0  0  0  0  0  0  0  0
  1  2  1  0
  2  3  1  0
  3  4  1  0
  4  5  1  0
  5  6  1  0
  6  7  1  0
  7  8  1  0
  8  9  2  0
  8  2  1  0
  1 10  1  0
  1 11  1  0
  1 12  1  0
  2 13  1  0
  4 14  1  0
  4 15  1  0
  5 16  1  0
  5 17  1  0
  6 18  1  0
  6 19  1  0
  7 20  1  0
  7 21  1  0
M  END
