
     RDKit          3D

 23 24  0  0  0  0  0  0  0  0999 V2000
   -2.3783    1.6019    0.4854 C   0  0  0  0  0  0  0  0  0  0  0  0
   -1.9213    0.2769   -0.0708 C   0  0  0  0  0  0  0  0  0  0  0  0
   -2.2744   -0.8268    0.7407 O   0  0  0  0  0  0  0  0  0  0  0  0
   -1.1520   -1.4625    0.2162 C   0  0  0  0  0  0  0  0  0  0  0  0
   -0.4907   -0.0823    0.1615 C   0  0  0  0  0  0  0  0  0  0  0  0
    0.4073   -0.0163   -1.0475 C   0  0  0  0  0  0  0  0  0  0  0  0
    1.8169   -0.3797   -0.7734 C   0  0  0  0  0  0  0  0  0  0  0  0
    2.5072    0.5191    0.2681 C   0  0  0  0  0  0  0  0  0  0  0  0
    2.2971   -0.9351    0.5007 C   0  0  0  0  0  0  0  0  0  0  0  0
   -2.6013    2.2837   -0.3582 H   0  0  0  0  0  0  0  0  0  0  0  0
   -1.6082    2.0802    1.1199 H   0  0  0  0  0  0  0  0  0  0  0  0
   -3.2799    1.4066    1.1093 H   0  0  0  0  0  0  0  0  0  0  0  0
   -2.2609    0.0557   -1.1016 H   0  0  0  0  0  0  0  0  0  0  0  0
   -0.6323   -2.1642    0.8619 H   0  0  0  0  0  0  0  0  0  0  0  0
   -1.3784   -1.7890   -0.8209 H   0  0  0  0  0  0  0  0  0  0  0  0
   -0.0653    0.2571    1.1018 H   0  0  0  0  0  0  0  0  0  0  0  0
    0.3743    1.0467   -1.4082 H   0  0  0  0  0  0  0  0  0  0  0  0
   -0.0136   -0.6172   -1.8810 H   0  0  0  0  0  0  0  0  0  0  0  0
    2.4269   -0.5858   -1.6838 H   0  0  0  0  0  0  0  0  0  0  0  0
    1.8858    1.2629    0.7994 H   0  0  0  0  0  0  0  0  0  0  0  0
    3.5196    0.9015    0.0158 H   0  0  0  0  0  0  0  0  0  0  0  0
    1.6009   -1.2828    1.2994 H   0  0  0  0  0  0  0  0  0  0  0  0
    3.2207   -1.5508    0.4654 H   0  0  0  0  0  0  0  0  0  0  0  0
  1  2  1  0
  2  3  1  0
  3  4  1  0
  4  5  1  0
  5  6  1  0
  6  7  1  0
  7  8  1  0
  8  9  1  0
  5  2  1  0
  9  7  1  0
  1 10  1  0
  1 11  1  0
  1 12  1  0
  2 13  1  0
  4 14  1  0
  4 15  1  0
  5 16  1  0
  6 17  1  0
  6 18  1  0
  7 19  1  0
  8 20  1  0
  8 21  1  0
  9 22  1  0
  9 23  1  0
M  END
