
     RDKit          3D

 21 21  0  0  0  0  0  0  0  0999 V2000
    2.2218    0.5243    0.4917 C   0  0  0  0  0  0  0  0  0  0  0  0
    1.6127   -0.1384   -0.7481 C   0  0  0  0  0  0  0  0  0  0  0  0
    1.0290   -1.3529   -0.4506 O   0  0  0  0  0  0  0  0  0  0  0  0
   -0.0524   -1.1841    0.3776 C   0  0  0  0  0  0  0  0  0  0  0  0
   -1.0356   -0.2392   -0.2216 C   0  0  0  0  0  0  0  0  0  0  0  0
   -1.7003    0.5156    0.9380 C   0  0  0  0  0  0  0  0  0  0  0  0
   -2.0705   -1.0170   -0.7860 O   0  0  0  0  0  0  0  0  0  0  0  0
   -0.5045    0.6869   -1.2374 C   0  0  0  0  0  0  0  0  0  0  0  0
    0.8353    0.7505   -1.4015 O   0  0  0  0  0  0  0  0  0  0  0  0
    2.4803   -0.2331    1.2596 H   0  0  0  0  0  0  0  0  0  0  0  0
    3.1859    1.0293    0.2262 H   0  0  0  0  0  0  0  0  0  0  0  0
    1.4990    1.2669    0.8935 H   0  0  0  0  0  0  0  0  0  0  0  0
    2.5040   -0.3728   -1.4033 H   0  0  0  0  0  0  0  0  0  0  0  0
    0.2686   -0.8250    1.3795 H   0  0  0  0  0  0  0  0  0  0  0  0
   -0.5018   -2.1971    0.5548 H   0  0  0  0  0  0  0  0  0  0  0  0
   -2.5599    1.0569    0.4936 H   0  0  0  0  0  0  0  0  0  0  0  0
   -1.9581   -0.1411    1.7673 H   0  0  0  0  0  0  0  0  0  0  0  0
   -0.9454    1.2891    1.2380 H   0  0  0  0  0  0  0  0  0  0  0  0
   -2.4666   -1.6290   -0.1381 H   0  0  0  0  0  0  0  0  0  0  0  0
   -0.8711    1.7267   -0.9870 H   0  0  0  0  0  0  0  0  0  0  0  0
   -0.9702    0.4835   -2.2460 H   0  0  0  0  0  0  0  0  0  0  0  0
  1  2  1  0
  2  3  1  0
  3  4  1  0
  4  5  1  0
  5  6  1  0
  5  7  1  0
  5  8  1  0
  8  9  1  0
  9  2  1  0
  1 10  1  0
  1 11  1  0
  1 12  1  0
  2 13  1  0
  4 14  1  0
  4 15  1  0
  6 16  1  0
  6 17  1  0
  6 18  1  0
  7 19  1  0
  8 20  1  0
  8 21  1  0
M  END
