
     RDKit          3D

 19 21  0  0  0  0  0  0  0  0999 V2000
   -2.1926   -0.6214   -0.6626 C   0  0  0  0  0  0  0  0  0  0  0  0
   -1.1802   -0.2973    0.4087 C   0  0  0  0  0  0  0  0  0  0  0  0
   -0.3198   -1.3166    0.6924 O   0  0  0  0  0  0  0  0  0  0  0  0
    0.9728   -0.8722    0.6878 C   0  0  0  0  0  0  0  0  0  0  0  0
    1.4450   -0.7020   -0.7633 C   0  0  0  0  0  0  0  0  0  0  0  0
    0.9164    0.7132   -0.6806 C   0  0  0  0  0  0  0  0  0  0  0  0
   -0.3577    0.9291    0.0731 C   0  0  0  0  0  0  0  0  0  0  0  0
    0.9038    0.6138    0.7697 C   0  0  0  0  0  0  0  0  0  0  0  0
    1.5347    1.3802    1.6586 O   0  0  0  0  0  0  0  0  0  0  0  0
   -2.3833    0.3037   -1.2355 H   0  0  0  0  0  0  0  0  0  0  0  0
   -1.9085   -1.4787   -1.2776 H   0  0  0  0  0  0  0  0  0  0  0  0
   -3.1554   -0.8726   -0.1560 H   0  0  0  0  0  0  0  0  0  0  0  0
   -1.7188   -0.0407    1.3695 H   0  0  0  0  0  0  0  0  0  0  0  0
    1.6933   -1.3599    1.3496 H   0  0  0  0  0  0  0  0  0  0  0  0
    0.8524   -1.2846   -1.4970 H   0  0  0  0  0  0  0  0  0  0  0  0
    2.5314   -0.8040   -0.9000 H   0  0  0  0  0  0  0  0  0  0  0  0
    1.4317    1.5408   -1.1522 H   0  0  0  0  0  0  0  0  0  0  0  0
   -0.8366    1.8994    0.0668 H   0  0  0  0  0  0  0  0  0  0  0  0
    1.7714    2.2699    1.2486 H   0  0  0  0  0  0  0  0  0  0  0  0
  1  2  1  0
  2  3  1  0
  3  4  1  0
  4  5  1  0
  5  6  1  0
  6  7  1  0
  7  8  1  0
  8  9  1  0
  7  2  1  0
  8  4  1  0
  8  6  1  0
  1 10  1  0
  1 11  1  0
  1 12  1  0
  2 13  1  0
  4 14  1  0
  5 15  1  0
  5 16  1  0
  6 17  1  0
  7 18  1  0
  9 19  1  0
M  END
