
     RDKit          3D

 21 22  0  0  0  0  0  0  0  0999 V2000
    2.5184    0.2858   -0.6136 C   0  0  0  0  0  0  0  0  0  0  0  0
    1.1011   -0.0662   -0.3422 C   0  0  0  0  0  0  0  0  0  0  0  0
    0.2066    0.9871   -0.6443 O   0  0  0  0  0  0  0  0  0  0  0  0
   -0.9957    0.4107   -0.1972 C   0  0  0  0  0  0  0  0  0  0  0  0
   -2.2951    1.0018   -0.5069 C   0  0  0  0  0  0  0  0  0  0  0  0
   -1.7850   -0.2637   -1.2428 C   0  0  0  0  0  0  0  0  0  0  0  0
   -0.7118   -0.2126    1.1335 C   0  0  0  0  0  0  0  0  0  0  0  0
    0.8207   -0.2063    1.1610 C   0  0  0  0  0  0  0  0  0  0  0  0
    1.3447   -1.3806    1.6272 O   0  0  0  0  0  0  0  0  0  0  0  0
    2.8598   -0.1263   -1.5974 H   0  0  0  0  0  0  0  0  0  0  0  0
    2.7549    1.3539   -0.5999 H   0  0  0  0  0  0  0  0  0  0  0  0
    3.1497   -0.2559    0.1511 H   0  0  0  0  0  0  0  0  0  0  0  0
    0.7277   -0.9404   -0.8832 H   0  0  0  0  0  0  0  0  0  0  0  0
   -3.1161    0.7942    0.2286 H   0  0  0  0  0  0  0  0  0  0  0  0
   -2.3046    1.9436   -1.0676 H   0  0  0  0  0  0  0  0  0  0  0  0
   -1.5141   -0.0763   -2.3171 H   0  0  0  0  0  0  0  0  0  0  0  0
   -2.3529   -1.1949   -1.0655 H   0  0  0  0  0  0  0  0  0  0  0  0
   -1.0650   -1.2608    1.1950 H   0  0  0  0  0  0  0  0  0  0  0  0
   -1.1358    0.4377    1.9141 H   0  0  0  0  0  0  0  0  0  0  0  0
    1.1598    0.7014    1.6797 H   0  0  0  0  0  0  0  0  0  0  0  0
    0.6327   -1.9319    1.9877 H   0  0  0  0  0  0  0  0  0  0  0  0
  1  2  1  0
  2  3  1  0
  3  4  1  0
  4  5  1  0
  5  6  1  0
  4  7  1  0
  7  8  1  0
  8  9  1  0
  8  2  1  0
  6  4  1  0
  1 10  1  0
  1 11  1  0
  1 12  1  0
  2 13  1  0
  5 14  1  0
  5 15  1  0
  6 16  1  0
  6 17  1  0
  7 18  1  0
  7 19  1  0
  8 20  1  0
  9 21  1  0
M  END
