
     RDKit          3D

 19 20  0  0  0  0  0  0  0  0999 V2000
    2.1280   -0.3374   -0.3778 C   0  0  0  0  0  0  0  0  0  0  0  0
    0.9245    0.5181   -0.3715 C   0  0  0  0  0  0  0  0  0  0  0  0
    0.0753    0.3352   -1.4501 O   0  0  0  0  0  0  0  0  0  0  0  0
   -1.2267    0.2619   -0.9784 C   0  0  0  0  0  0  0  0  0  0  0  0
   -1.1705    1.1481    0.2806 C   0  0  0  0  0  0  0  0  0  0  0  0
    0.0529    0.3920    0.8381 C   0  0  0  0  0  0  0  0  0  0  0  0
   -0.5557   -1.0058    0.9171 C   0  0  0  0  0  0  0  0  0  0  0  0
   -1.3786   -1.0693   -0.3287 C   0  0  0  0  0  0  0  0  0  0  0  0
   -2.0414   -2.0047   -0.7426 O   0  0  0  0  0  0  0  0  0  0  0  0
    2.9770    0.2345    0.0987 H   0  0  0  0  0  0  0  0  0  0  0  0
    2.0536   -1.2748    0.2014 H   0  0  0  0  0  0  0  0  0  0  0  0
    2.4656   -0.5130   -1.4266 H   0  0  0  0  0  0  0  0  0  0  0  0
    1.2551    1.5945   -0.4193 H   0  0  0  0  0  0  0  0  0  0  0  0
   -1.9969    0.5385   -1.6635 H   0  0  0  0  0  0  0  0  0  0  0  0
   -2.0460    1.0309    0.9076 H   0  0  0  0  0  0  0  0  0  0  0  0
   -0.9111    2.1639   -0.0166 H   0  0  0  0  0  0  0  0  0  0  0  0
    0.4209    0.7830    1.7597 H   0  0  0  0  0  0  0  0  0  0  0  0
    0.2015   -1.7936    0.9563 H   0  0  0  0  0  0  0  0  0  0  0  0
   -1.2274   -1.0022    1.8155 H   0  0  0  0  0  0  0  0  0  0  0  0
  1  2  1  0
  2  3  1  0
  3  4  1  0
  4  5  1  0
  5  6  1  0
  6  7  1  0
  7  8  1  0
  8  9  2  0
  6  2  1  0
  8  4  1  0
  1 10  1  0
  1 11  1  0
  1 12  1  0
  2 13  1  0
  4 14  1  0
  5 15  1  0
  5 16  1  0
  6 17  1  0
  7 18  1  0
  7 19  1  0
M  END
