
     RDKit          3D

 21 22  0  0  0  0  0  0  0  0999 V2000
    2.1535   -0.0994    0.1335 C   0  0  0  0  0  0  0  0  0  0  0  0
    0.9198   -0.0985   -0.7806 C   0  0  0  0  0  0  0  0  0  0  0  0
    0.5326    1.1525   -1.0409 O   0  0  0  0  0  0  0  0  0  0  0  0
   -0.3053    1.8245   -0.2541 C   0  0  0  0  0  0  0  0  0  0  0  0
   -0.7468    1.2629    0.8976 O   0  0  0  0  0  0  0  0  0  0  0  0
   -1.4365    0.0955    0.7927 C   0  0  0  0  0  0  0  0  0  0  0  0
   -1.4977   -0.4792   -0.5985 C   0  0  0  0  0  0  0  0  0  0  0  0
   -0.1174   -1.0678   -0.3355 C   0  0  0  0  0  0  0  0  0  0  0  0
   -0.4306   -1.0153    1.1301 C   0  0  0  0  0  0  0  0  0  0  0  0
    2.5434   -1.1182    0.2667 H   0  0  0  0  0  0  0  0  0  0  0  0
    2.9383    0.4445   -0.4714 H   0  0  0  0  0  0  0  0  0  0  0  0
    1.9990    0.4725    1.0429 H   0  0  0  0  0  0  0  0  0  0  0  0
    1.3307   -0.5338   -1.7437 H   0  0  0  0  0  0  0  0  0  0  0  0
    0.1706    2.8126    0.0291 H   0  0  0  0  0  0  0  0  0  0  0  0
   -1.2075    2.1468   -0.8547 H   0  0  0  0  0  0  0  0  0  0  0  0
   -2.3950    0.0002    1.3320 H   0  0  0  0  0  0  0  0  0  0  0  0
   -1.5422    0.2178   -1.4280 H   0  0  0  0  0  0  0  0  0  0  0  0
   -2.2297   -1.2982   -0.6677 H   0  0  0  0  0  0  0  0  0  0  0  0
   -0.0243   -2.1126   -0.6925 H   0  0  0  0  0  0  0  0  0  0  0  0
   -1.0165   -1.9122    1.4378 H   0  0  0  0  0  0  0  0  0  0  0  0
    0.3617   -0.6945    1.8053 H   0  0  0  0  0  0  0  0  0  0  0  0
  1  2  1  0
  2  3  1  0
  3  4  1  0
  4  5  1  0
  5  6  1  0
  6  7  1  0
  7  8  1  0
  8  9  1  0
  8  2  1  0
  9  6  1  0
  1 10  1  0
  1 11  1  0
  1 12  1  0
  2 13  1  0
  4 14  1  0
  4 15  1  0
  6 16  1  0
  7 17  1  0
  7 18  1  0
  8 19  1  0
  9 20  1  0
  9 21  1  0
M  END
