
     RDKit          3D

 17 17  0  0  0  0  0  0  0  0999 V2000
   -1.7466    0.9796   -0.2622 C   0  0  0  0  0  0  0  0  0  0  0  0
   -0.4636    0.4955    0.4295 C   0  0  0  0  0  0  0  0  0  0  0  0
    0.5264    1.4746    0.2772 O   0  0  0  0  0  0  0  0  0  0  0  0
    1.8736    1.1933    0.0961 C   0  0  0  0  0  0  0  0  0  0  0  0
    2.7965    1.9694    0.4657 O   0  0  0  0  0  0  0  0  0  0  0  0
    2.1373   -0.0176   -0.5282 O   0  0  0  0  0  0  0  0  0  0  0  0
    1.2050   -1.0372   -0.6857 C   0  0  0  0  0  0  0  0  0  0  0  0
   -0.0853   -0.8670    0.0131 C   0  0  0  0  0  0  0  0  0  0  0  0
   -0.1254   -1.7662    1.1068 O   0  0  0  0  0  0  0  0  0  0  0  0
   -2.5427    0.2319    0.0035 H   0  0  0  0  0  0  0  0  0  0  0  0
   -2.0686    1.9289    0.2417 H   0  0  0  0  0  0  0  0  0  0  0  0
   -1.6111    1.0896   -1.3422 H   0  0  0  0  0  0  0  0  0  0  0  0
   -0.7262    0.4829    1.5227 H   0  0  0  0  0  0  0  0  0  0  0  0
    1.0573   -1.1801   -1.7969 H   0  0  0  0  0  0  0  0  0  0  0  0
    1.7113   -1.9946   -0.3651 H   0  0  0  0  0  0  0  0  0  0  0  0
   -0.8992   -1.2501   -0.6735 H   0  0  0  0  0  0  0  0  0  0  0  0
   -1.0387   -1.7328    1.4972 H   0  0  0  0  0  0  0  0  0  0  0  0
  1  2  1  0
  2  3  1  0
  3  4  1  0
  4  5  2  0
  4  6  1  0
  6  7  1  0
  7  8  1  0
  8  9  1  0
  8  2  1  0
  1 10  1  0
  1 11  1  0
  1 12  1  0
  2 13  1  0
  7 14  1  0
  7 15  1  0
  8 16  1  0
  9 17  1  0
M  END
