
     RDKit          3D

 21 22  0  0  0  0  0  0  0  0999 V2000
   -2.5242    1.0184    0.1643 C   0  0  0  0  0  0  0  0  0  0  0  0
   -1.4741    0.2446   -0.6149 C   0  0  0  0  0  0  0  0  0  0  0  0
   -1.9101   -0.8163   -1.4092 O   0  0  0  0  0  0  0  0  0  0  0  0
   -1.2905   -1.1828   -0.2077 C   0  0  0  0  0  0  0  0  0  0  0  0
    0.0427   -1.7972   -0.2333 C   0  0  0  0  0  0  0  0  0  0  0  0
    1.0301   -0.9824   -0.7305 O   0  0  0  0  0  0  0  0  0  0  0  0
    1.2148    0.0945    0.1018 C   0  0  0  0  0  0  0  0  0  0  0  0
    2.7135    0.2513    0.4733 C   0  0  0  0  0  0  0  0  0  0  0  0
    1.9796    1.2994   -0.2323 C   0  0  0  0  0  0  0  0  0  0  0  0
   -3.2737    0.3019    0.5306 H   0  0  0  0  0  0  0  0  0  0  0  0
   -2.9880    1.7697   -0.5043 H   0  0  0  0  0  0  0  0  0  0  0  0
   -2.0320    1.4959    1.0331 H   0  0  0  0  0  0  0  0  0  0  0  0
   -0.7066    0.8915   -1.0310 H   0  0  0  0  0  0  0  0  0  0  0  0
   -1.9688   -1.5549    0.6109 H   0  0  0  0  0  0  0  0  0  0  0  0
    0.0676   -2.7760   -0.8172 H   0  0  0  0  0  0  0  0  0  0  0  0
    0.2884   -2.1214    0.8294 H   0  0  0  0  0  0  0  0  0  0  0  0
    0.5239    0.1290    0.9872 H   0  0  0  0  0  0  0  0  0  0  0  0
    2.9280    0.2975    1.5592 H   0  0  0  0  0  0  0  0  0  0  0  0
    3.4593   -0.3058   -0.0930 H   0  0  0  0  0  0  0  0  0  0  0  0
    1.6806    2.2339    0.3043 H   0  0  0  0  0  0  0  0  0  0  0  0
    2.2394    1.5092   -1.3013 H   0  0  0  0  0  0  0  0  0  0  0  0
  1  2  1  0
  2  3  1  0
  3  4  1  0
  4  5  1  0
  5  6  1  0
  6  7  1  0
  7  8  1  0
  8  9  1  0
  4  2  1  0
  9  7  1  0
  1 10  1  0
  1 11  1  0
  1 12  1  0
  2 13  1  0
  4 14  1  0
  5 15  1  0
  5 16  1  0
  7 17  1  0
  8 18  1  0
  8 19  1  0
  9 20  1  0
  9 21  1  0
M  END
