
     RDKit          3D

 21 23  0  0  0  0  0  0  0  0999 V2000
   -1.9800    0.3429    0.9619 C   0  0  0  0  0  0  0  0  0  0  0  0
   -1.6744   -0.0820   -0.4375 C   0  0  0  0  0  0  0  0  0  0  0  0
   -1.2269    0.9728   -1.2360 O   0  0  0  0  0  0  0  0  0  0  0  0
    0.0205    0.3967   -1.2559 C   0  0  0  0  0  0  0  0  0  0  0  0
    0.9594    1.0319   -0.2646 C   0  0  0  0  0  0  0  0  0  0  0  0
    2.3333    0.3647   -0.2372 C   0  0  0  0  0  0  0  0  0  0  0  0
    1.2354    0.0547    0.7869 C   0  0  0  0  0  0  0  0  0  0  0  0
    0.4268   -1.1824    0.4940 C   0  0  0  0  0  0  0  0  0  0  0  0
   -0.4588   -0.8932   -0.6656 C   0  0  0  0  0  0  0  0  0  0  0  0
   -1.0675    0.3923    1.6056 H   0  0  0  0  0  0  0  0  0  0  0  0
   -2.4076    1.3813    0.9037 H   0  0  0  0  0  0  0  0  0  0  0  0
   -2.7366   -0.2702    1.4719 H   0  0  0  0  0  0  0  0  0  0  0  0
   -2.5903   -0.5255   -0.9052 H   0  0  0  0  0  0  0  0  0  0  0  0
    0.4938    0.2380   -2.2356 H   0  0  0  0  0  0  0  0  0  0  0  0
    0.9380    2.1139   -0.0803 H   0  0  0  0  0  0  0  0  0  0  0  0
    2.5796   -0.3893   -0.9912 H   0  0  0  0  0  0  0  0  0  0  0  0
    3.1744    0.9935    0.0742 H   0  0  0  0  0  0  0  0  0  0  0  0
    1.4955    0.2975    1.8191 H   0  0  0  0  0  0  0  0  0  0  0  0
   -0.0865   -1.5335    1.3989 H   0  0  0  0  0  0  0  0  0  0  0  0
    1.1674   -1.9679    0.1733 H   0  0  0  0  0  0  0  0  0  0  0  0
   -0.5954   -1.7362   -1.3802 H   0  0  0  0  0  0  0  0  0  0  0  0
  1  2  1  0
  2  3  1  0
  3  4  1  0
  4  5  1  0
  5  6  1  0
  6  7  1  0
  7  8  1  0
  8  9  1  0
  9  2  1  0
  9  4  1  0
  7  5  1  0
  1 10  1  0
  1 11  1  0
  1 12  1  0
  2 13  1  0
  4 14  1  0
  5 15  1  0
  6 16  1  0
  6 17  1  0
  7 18  1  0
  8 19  1  0
  8 20  1  0
  9 21  1  0
M  END
