
     RDKit          3D

 16 17  0  0  0  0  0  0  0  0999 V2000
    1.7855   -0.2723    0.3217 C   0  0  0  0  0  0  0  0  0  0  0  0
    0.8076    0.1332   -0.7501 C   0  0  0  0  0  0  0  0  0  0  0  0
    0.4972    1.5132   -0.5105 O   0  0  0  0  0  0  0  0  0  0  0  0
   -0.5957    1.5259    0.3485 C   0  0  0  0  0  0  0  0  0  0  0  0
   -0.8215    2.3163    1.3265 O   0  0  0  0  0  0  0  0  0  0  0  0
   -1.4517    0.4103   -0.1224 C   0  0  0  0  0  0  0  0  0  0  0  0
   -1.2178   -0.9273    0.5004 C   0  0  0  0  0  0  0  0  0  0  0  0
   -0.4693   -0.6145   -0.7243 C   0  0  0  0  0  0  0  0  0  0  0  0
    1.2781   -0.9132    1.0595 H   0  0  0  0  0  0  0  0  0  0  0  0
    2.1783    0.6045    0.8985 H   0  0  0  0  0  0  0  0  0  0  0  0
    2.7030   -0.7572   -0.1066 H   0  0  0  0  0  0  0  0  0  0  0  0
    1.2730    0.0753   -1.7513 H   0  0  0  0  0  0  0  0  0  0  0  0
   -2.3658    0.6203   -0.6919 H   0  0  0  0  0  0  0  0  0  0  0  0
   -0.7477   -0.9770    1.4983 H   0  0  0  0  0  0  0  0  0  0  0  0
   -2.0583   -1.6411    0.3881 H   0  0  0  0  0  0  0  0  0  0  0  0
   -0.7948   -1.0965   -1.6842 H   0  0  0  0  0  0  0  0  0  0  0  0
  1  2  1  0
  2  3  1  0
  3  4  1  0
  4  5  2  0
  4  6  1  0
  6  7  1  0
  7  8  1  0
  8  2  1  0
  8  6  1  0
  1  9  1  0
  1 10  1  0
  1 11  1  0
  2 12  1  0
  6 13  1  0
  7 14  1  0
  7 15  1  0
  8 16  1  0
M  END
