
     RDKit          3D

 23 24  0  0  0  0  0  0  0  0999 V2000
    2.1043    1.1009    0.6818 C   0  0  0  0  0  0  0  0  0  0  0  0
    1.9226   -0.3646    0.5201 C   0  0  0  0  0  0  0  0  0  0  0  0
    1.8228   -0.7728   -0.8967 O   0  0  0  0  0  0  0  0  0  0  0  0
    0.7791   -1.0788    0.1223 C   0  0  0  0  0  0  0  0  0  0  0  0
   -0.5303   -0.6055   -0.3384 C   0  0  0  0  0  0  0  0  0  0  0  0
   -1.4832   -1.7356   -0.6679 C   0  0  0  0  0  0  0  0  0  0  0  0
   -0.6524    0.5467   -1.2549 C   0  0  0  0  0  0  0  0  0  0  0  0
   -1.1374    1.4614   -0.1646 C   0  0  0  0  0  0  0  0  0  0  0  0
   -1.1833    0.2608    0.7502 C   0  0  0  0  0  0  0  0  0  0  0  0
    1.8209    1.7038   -0.2071 H   0  0  0  0  0  0  0  0  0  0  0  0
    3.1912    1.3703    0.8483 H   0  0  0  0  0  0  0  0  0  0  0  0
    1.6040    1.4954    1.6120 H   0  0  0  0  0  0  0  0  0  0  0  0
    2.7910   -0.9544    0.9429 H   0  0  0  0  0  0  0  0  0  0  0  0
    0.7928   -2.1947    0.2755 H   0  0  0  0  0  0  0  0  0  0  0  0
   -1.6733   -2.2766    0.2912 H   0  0  0  0  0  0  0  0  0  0  0  0
   -1.0354   -2.4192   -1.4355 H   0  0  0  0  0  0  0  0  0  0  0  0
   -2.4795   -1.3621   -0.9970 H   0  0  0  0  0  0  0  0  0  0  0  0
    0.2263    0.9006   -1.7963 H   0  0  0  0  0  0  0  0  0  0  0  0
   -1.4752    0.3867   -1.9957 H   0  0  0  0  0  0  0  0  0  0  0  0
   -2.1831    1.8578   -0.3152 H   0  0  0  0  0  0  0  0  0  0  0  0
   -0.4822    2.2833    0.1314 H   0  0  0  0  0  0  0  0  0  0  0  0
   -0.5475    0.4404    1.6337 H   0  0  0  0  0  0  0  0  0  0  0  0
   -2.1923   -0.0439    1.0516 H   0  0  0  0  0  0  0  0  0  0  0  0
  1  2  1  0
  2  3  1  0
  3  4  1  0
  4  5  1  0
  5  6  1  0
  5  7  1  0
  7  8  1  0
  8  9  1  0
  4  2  1  0
  9  5  1  0
  1 10  1  0
  1 11  1  0
  1 12  1  0
  2 13  1  0
  4 14  1  0
  6 15  1  0
  6 16  1  0
  6 17  1  0
  7 18  1  0
  7 19  1  0
  8 20  1  0
  8 21  1  0
  9 22  1  0
  9 23  1  0
M  END
