
     RDKit          3D

 19 21  0  0  0  0  0  0  0  0999 V2000
    2.2324   -0.3953    0.1159 C   0  0  0  0  0  0  0  0  0  0  0  0
    0.8722   -0.0756    0.7039 C   0  0  0  0  0  0  0  0  0  0  0  0
    0.1139   -1.2162    0.8107 O   0  0  0  0  0  0  0  0  0  0  0  0
   -1.0240   -1.0643    0.0225 C   0  0  0  0  0  0  0  0  0  0  0  0
   -0.4450   -0.2915   -1.1763 C   0  0  0  0  0  0  0  0  0  0  0  0
    0.1534    0.8171   -0.2948 C   0  0  0  0  0  0  0  0  0  0  0  0
   -1.0921    1.3111    0.3807 C   0  0  0  0  0  0  0  0  0  0  0  0
   -1.4570    0.8219    1.6164 O   0  0  0  0  0  0  0  0  0  0  0  0
   -1.9007    0.0207    0.5999 C   0  0  0  0  0  0  0  0  0  0  0  0
    2.9583    0.4338    0.2978 H   0  0  0  0  0  0  0  0  0  0  0  0
    2.6496   -1.3498    0.5183 H   0  0  0  0  0  0  0  0  0  0  0  0
    2.2006   -0.5257   -0.9848 H   0  0  0  0  0  0  0  0  0  0  0  0
    0.9919    0.4918    1.6367 H   0  0  0  0  0  0  0  0  0  0  0  0
   -1.5178   -1.9722   -0.2518 H   0  0  0  0  0  0  0  0  0  0  0  0
    0.3062   -0.9146   -1.6350 H   0  0  0  0  0  0  0  0  0  0  0  0
   -1.2566    0.0648   -1.7991 H   0  0  0  0  0  0  0  0  0  0  0  0
    0.7529    1.5236   -0.8123 H   0  0  0  0  0  0  0  0  0  0  0  0
   -1.6095    2.2117    0.0557 H   0  0  0  0  0  0  0  0  0  0  0  0
   -2.9286    0.1089    0.1958 H   0  0  0  0  0  0  0  0  0  0  0  0
  1  2  1  0
  2  3  1  0
  3  4  1  0
  4  5  1  0
  5  6  1  0
  6  7  1  0
  7  8  1  0
  8  9  1  0
  6  2  1  0
  9  7  1  0
  9  4  1  0
  1 10  1  0
  1 11  1  0
  1 12  1  0
  2 13  1  0
  4 14  1  0
  5 15  1  0
  5 16  1  0
  6 17  1  0
  7 18  1  0
  9 19  1  0
M  END
