
     RDKit          3D

 19 21  0  0  0  0  0  0  0  0999 V2000
    2.8299   -0.1373   -0.0574 C   0  0  0  0  0  0  0  0  0  0  0  0
    1.3507    0.0261    0.1439 C   0  0  0  0  0  0  0  0  0  0  0  0
    0.7636    0.6953   -0.9412 O   0  0  0  0  0  0  0  0  0  0  0  0
   -0.5746    0.8084   -0.6890 C   0  0  0  0  0  0  0  0  0  0  0  0
   -1.3536   -0.4664   -0.8284 C   0  0  0  0  0  0  0  0  0  0  0  0
   -2.3377    0.1696    0.1237 C   0  0  0  0  0  0  0  0  0  0  0  0
   -0.9842    0.4886    0.7159 C   0  0  0  0  0  0  0  0  0  0  0  0
   -0.6479   -0.9397    0.4084 C   0  0  0  0  0  0  0  0  0  0  0  0
    0.6848   -1.1952    0.2469 O   0  0  0  0  0  0  0  0  0  0  0  0
    3.2790    0.8732   -0.0438 H   0  0  0  0  0  0  0  0  0  0  0  0
    3.2355   -0.6962    0.7999 H   0  0  0  0  0  0  0  0  0  0  0  0
    3.0720   -0.7096   -0.9646 H   0  0  0  0  0  0  0  0  0  0  0  0
    1.1845    0.6773    1.0245 H   0  0  0  0  0  0  0  0  0  0  0  0
   -1.0758    1.6580   -1.1764 H   0  0  0  0  0  0  0  0  0  0  0  0
   -1.5610   -0.9786   -1.6572 H   0  0  0  0  0  0  0  0  0  0  0  0
   -2.9049   -0.6183    0.6582 H   0  0  0  0  0  0  0  0  0  0  0  0
   -2.9022    1.0251   -0.2511 H   0  0  0  0  0  0  0  0  0  0  0  0
   -0.8008    1.0035    1.5503 H   0  0  0  0  0  0  0  0  0  0  0  0
   -1.2575   -1.6837    0.9374 H   0  0  0  0  0  0  0  0  0  0  0  0
  1  2  1  0
  2  3  1  0
  3  4  1  0
  4  5  1  0
  5  6  1  0
  6  7  1  0
  7  8  1  0
  8  9  1  0
  9  2  1  0
  7  4  1  0
  8  5  1  0
  1 10  1  0
  1 11  1  0
  1 12  1  0
  2 13  1  0
  4 14  1  0
  5 15  1  0
  6 16  1  0
  6 17  1  0
  7 18  1  0
  8 19  1  0
M  END
