
     RDKit          3D

 19 20  0  0  0  0  0  0  0  0999 V2000
   -1.7767   -1.0015    0.3060 C   0  0  0  0  0  0  0  0  0  0  0  0
   -0.6377   -0.1187    0.7791 C   0  0  0  0  0  0  0  0  0  0  0  0
   -0.9500    1.1872    0.3147 O   0  0  0  0  0  0  0  0  0  0  0  0
   -0.4825    1.3956   -0.9849 C   0  0  0  0  0  0  0  0  0  0  0  0
    0.9365    1.4377   -1.0447 O   0  0  0  0  0  0  0  0  0  0  0  0
    1.3607    0.9473    0.1382 C   0  0  0  0  0  0  0  0  0  0  0  0
    1.9931   -0.2571    0.5408 C   0  0  0  0  0  0  0  0  0  0  0  0
    0.6490   -0.4552    0.1530 C   0  0  0  0  0  0  0  0  0  0  0  0
    0.4463   -1.0647   -1.1106 O   0  0  0  0  0  0  0  0  0  0  0  0
   -2.2770   -1.5120    1.1615 H   0  0  0  0  0  0  0  0  0  0  0  0
   -2.5517   -0.4615   -0.2402 H   0  0  0  0  0  0  0  0  0  0  0  0
   -1.3571   -1.8211   -0.3444 H   0  0  0  0  0  0  0  0  0  0  0  0
   -0.6464   -0.1237    1.8782 H   0  0  0  0  0  0  0  0  0  0  0  0
   -0.7989    2.4293   -1.2460 H   0  0  0  0  0  0  0  0  0  0  0  0
   -0.9110    0.7304   -1.7287 H   0  0  0  0  0  0  0  0  0  0  0  0
    1.0819    1.6619    0.9670 H   0  0  0  0  0  0  0  0  0  0  0  0
    2.3836   -0.3171    1.6009 H   0  0  0  0  0  0  0  0  0  0  0  0
    2.8112   -0.6405   -0.1367 H   0  0  0  0  0  0  0  0  0  0  0  0
    0.7267   -2.0163   -1.0031 H   0  0  0  0  0  0  0  0  0  0  0  0
  1  2  1  0
  2  3  1  0
  3  4  1  0
  4  5  1  0
  5  6  1  0
  6  7  1  0
  7  8  1  0
  8  9  1  0
  8  2  1  0
  8  6  1  0
  1 10  1  0
  1 11  1  0
  1 12  1  0
  2 13  1  0
  4 14  1  0
  4 15  1  0
  6 16  1  0
  7 17  1  0
  7 18  1  0
  9 19  1  0
M  END
