
     RDKit          3D

 16 16  0  0  0  0  0  0  0  0999 V2000
    1.9007    0.2192   -0.4145 C   0  0  0  0  0  0  0  0  0  0  0  0
    0.7136   -0.5140    0.1692 C   0  0  0  0  0  0  0  0  0  0  0  0
    0.4903   -0.2392    1.5225 O   0  0  0  0  0  0  0  0  0  0  0  0
   -0.8707   -0.3227    1.2617 C   0  0  0  0  0  0  0  0  0  0  0  0
   -0.5752    0.2126   -0.1332 C   0  0  0  0  0  0  0  0  0  0  0  0
   -0.4071    1.5738   -0.1116 O   0  0  0  0  0  0  0  0  0  0  0  0
   -1.3974   -0.3476   -1.2028 C   0  0  0  0  0  0  0  0  0  0  0  0
   -1.6081   -1.5327   -1.3123 O   0  0  0  0  0  0  0  0  0  0  0  0
    2.5317    0.5306    0.4653 H   0  0  0  0  0  0  0  0  0  0  0  0
    2.5137   -0.4099   -1.0780 H   0  0  0  0  0  0  0  0  0  0  0  0
    1.5817    1.1705   -0.8867 H   0  0  0  0  0  0  0  0  0  0  0  0
    0.6997   -1.5966   -0.0054 H   0  0  0  0  0  0  0  0  0  0  0  0
   -1.1874   -1.3855    1.2765 H   0  0  0  0  0  0  0  0  0  0  0  0
   -1.5172    0.3844    1.7959 H   0  0  0  0  0  0  0  0  0  0  0  0
   -1.0280    1.9424    0.5847 H   0  0  0  0  0  0  0  0  0  0  0  0
   -1.8403    0.3146   -1.9313 H   0  0  0  0  0  0  0  0  0  0  0  0
  1  2  1  0
  2  3  1  0
  3  4  1  0
  4  5  1  0
  5  6  1  0
  5  7  1  0
  7  8  2  0
  5  2  1  0
  1  9  1  0
  1 10  1  0
  1 11  1  0
  2 12  1  0
  4 13  1  0
  4 14  1  0
  6 15  1  0
  7 16  1  0
M  END
