
     RDKit          3D

 21 22  0  0  0  0  0  0  0  0999 V2000
   -2.3827    0.0649   -0.7566 C   0  0  0  0  0  0  0  0  0  0  0  0
   -1.0992    0.6573   -0.2498 C   0  0  0  0  0  0  0  0  0  0  0  0
   -0.0633    0.7313   -1.1896 O   0  0  0  0  0  0  0  0  0  0  0  0
    0.8457    0.1752   -0.2542 C   0  0  0  0  0  0  0  0  0  0  0  0
    1.6447    1.2685    0.3896 C   0  0  0  0  0  0  0  0  0  0  0  0
    1.7641   -0.7821   -0.9846 C   0  0  0  0  0  0  0  0  0  0  0  0
   -0.2941   -0.3863    0.4645 C   0  0  0  0  0  0  0  0  0  0  0  0
   -0.5466   -0.8723    1.6976 C   0  0  0  0  0  0  0  0  0  0  0  0
   -0.6506   -1.7034    0.4659 O   0  0  0  0  0  0  0  0  0  0  0  0
   -3.2013    0.8273   -0.7359 H   0  0  0  0  0  0  0  0  0  0  0  0
   -2.7204   -0.7217   -0.0183 H   0  0  0  0  0  0  0  0  0  0  0  0
   -2.2801   -0.4241   -1.7436 H   0  0  0  0  0  0  0  0  0  0  0  0
   -1.2155    1.6002    0.3262 H   0  0  0  0  0  0  0  0  0  0  0  0
    0.9980    1.9822    0.9254 H   0  0  0  0  0  0  0  0  0  0  0  0
    2.4254    0.8614    1.0514 H   0  0  0  0  0  0  0  0  0  0  0  0
    2.1549    1.8620   -0.4112 H   0  0  0  0  0  0  0  0  0  0  0  0
    1.9668   -0.3692   -1.9941 H   0  0  0  0  0  0  0  0  0  0  0  0
    2.7466   -0.8814   -0.4824 H   0  0  0  0  0  0  0  0  0  0  0  0
    1.2568   -1.7494   -1.0840 H   0  0  0  0  0  0  0  0  0  0  0  0
    0.2009   -1.3338    2.3963 H   0  0  0  0  0  0  0  0  0  0  0  0
   -1.5503   -0.8065    2.1874 H   0  0  0  0  0  0  0  0  0  0  0  0
  1  2  1  0
  2  3  1  0
  3  4  1  0
  4  5  1  0
  4  6  1  0
  4  7  1  0
  7  8  1  0
  8  9  1  0
  7  2  1  0
  9  7  1  0
  1 10  1  0
  1 11  1  0
  1 12  1  0
  2 13  1  0
  5 14  1  0
  5 15  1  0
  5 16  1  0
  6 17  1  0
  6 18  1  0
  6 19  1  0
  8 20  1  0
  8 21  1  0
M  END
