
     RDKit          3D

 23 23  0  0  0  0  0  0  0  0999 V2000
   -1.4329    1.5844    0.5837 C   0  0  0  0  0  0  0  0  0  0  0  0
   -1.4020    0.2373   -0.0471 C   0  0  0  0  0  0  0  0  0  0  0  0
   -1.0851    0.3630   -1.3855 O   0  0  0  0  0  0  0  0  0  0  0  0
    0.2923    0.3745   -1.4943 C   0  0  0  0  0  0  0  0  0  0  0  0
    0.8403   -0.5036   -0.4136 C   0  0  0  0  0  0  0  0  0  0  0  0
    2.0442    0.0870    0.2831 C   0  0  0  0  0  0  0  0  0  0  0  0
    1.7402    1.2941    0.8770 O   0  0  0  0  0  0  0  0  0  0  0  0
   -0.3290   -0.6721    0.5126 C   0  0  0  0  0  0  0  0  0  0  0  0
   -0.8432   -2.1038    0.3103 C   0  0  0  0  0  0  0  0  0  0  0  0
   -0.7451    2.3191    0.1565 H   0  0  0  0  0  0  0  0  0  0  0  0
   -2.4724    1.9979    0.4315 H   0  0  0  0  0  0  0  0  0  0  0  0
   -1.2843    1.5741    1.6881 H   0  0  0  0  0  0  0  0  0  0  0  0
   -2.3833   -0.2472    0.1088 H   0  0  0  0  0  0  0  0  0  0  0  0
    0.5693   -0.0223   -2.5027 H   0  0  0  0  0  0  0  0  0  0  0  0
    0.7181    1.3985   -1.4069 H   0  0  0  0  0  0  0  0  0  0  0  0
    1.1830   -1.4715   -0.8630 H   0  0  0  0  0  0  0  0  0  0  0  0
    2.8915    0.1564   -0.4284 H   0  0  0  0  0  0  0  0  0  0  0  0
    2.3556   -0.6523    1.0541 H   0  0  0  0  0  0  0  0  0  0  0  0
    2.1841    2.0169    0.3557 H   0  0  0  0  0  0  0  0  0  0  0  0
   -0.0983   -0.4852    1.5644 H   0  0  0  0  0  0  0  0  0  0  0  0
   -1.1913   -2.1308   -0.7542 H   0  0  0  0  0  0  0  0  0  0  0  0
   -1.6134   -2.3689    1.0319 H   0  0  0  0  0  0  0  0  0  0  0  0
    0.0619   -2.7455    0.3379 H   0  0  0  0  0  0  0  0  0  0  0  0
  1  2  1  0
  2  3  1  0
  3  4  1  0
  4  5  1  0
  5  6  1  0
  6  7  1  0
  5  8  1  0
  8  9  1  0
  8  2  1  0
  1 10  1  0
  1 11  1  0
  1 12  1  0
  2 13  1  0
  4 14  1  0
  4 15  1  0
  5 16  1  0
  6 17  1  0
  6 18  1  0
  7 19  1  0
  8 20  1  0
  9 21  1  0
  9 22  1  0
  9 23  1  0
M  END
