
     RDKit          3D

 23 23  0  0  0  0  0  0  0  0999 V2000
   -1.2782    1.9100    0.4984 C   0  0  0  0  0  0  0  0  0  0  0  0
   -1.4358    0.4370    0.5054 C   0  0  0  0  0  0  0  0  0  0  0  0
   -2.1081    0.0063   -0.6039 O   0  0  0  0  0  0  0  0  0  0  0  0
   -1.3919   -0.9663   -1.2412 C   0  0  0  0  0  0  0  0  0  0  0  0
   -0.5175   -1.5819   -0.1570 C   0  0  0  0  0  0  0  0  0  0  0  0
   -0.1665   -0.3452    0.6465 C   0  0  0  0  0  0  0  0  0  0  0  0
    1.0284    0.2876    0.0398 C   0  0  0  0  0  0  0  0  0  0  0  0
    2.2565   -0.5449    0.2223 C   0  0  0  0  0  0  0  0  0  0  0  0
    3.3182    0.1603   -0.3930 O   0  0  0  0  0  0  0  0  0  0  0  0
   -0.4120    2.3015    1.0379 H   0  0  0  0  0  0  0  0  0  0  0  0
   -2.1799    2.3981    0.9749 H   0  0  0  0  0  0  0  0  0  0  0  0
   -1.2340    2.2780   -0.5591 H   0  0  0  0  0  0  0  0  0  0  0  0
   -2.0784    0.1699    1.3963 H   0  0  0  0  0  0  0  0  0  0  0  0
   -2.0614   -1.6984   -1.7100 H   0  0  0  0  0  0  0  0  0  0  0  0
   -0.7868   -0.4952   -2.0414 H   0  0  0  0  0  0  0  0  0  0  0  0
   -1.2048   -2.2393    0.4389 H   0  0  0  0  0  0  0  0  0  0  0  0
    0.3225   -2.1207   -0.5711 H   0  0  0  0  0  0  0  0  0  0  0  0
    0.0028   -0.6403    1.6932 H   0  0  0  0  0  0  0  0  0  0  0  0
    1.2654    1.2978    0.4550 H   0  0  0  0  0  0  0  0  0  0  0  0
    0.8707    0.4505   -1.0493 H   0  0  0  0  0  0  0  0  0  0  0  0
    2.2247   -1.5595   -0.1613 H   0  0  0  0  0  0  0  0  0  0  0  0
    2.5239   -0.5314    1.3191 H   0  0  0  0  0  0  0  0  0  0  0  0
    3.0422    1.0259   -0.7404 H   0  0  0  0  0  0  0  0  0  0  0  0
  1  2  1  0
  2  3  1  0
  3  4  1  0
  4  5  1  0
  5  6  1  0
  6  7  1  0
  7  8  1  0
  8  9  1  0
  6  2  1  0
  1 10  1  0
  1 11  1  0
  1 12  1  0
  2 13  1  0
  4 14  1  0
  4 15  1  0
  5 16  1  0
  5 17  1  0
  6 18  1  0
  7 19  1  0
  7 20  1  0
  8 21  1  0
  8 22  1  0
  9 23  1  0
M  END
