
     RDKit          3D

 15 15  0  0  0  0  0  0  0  0999 V2000
    1.6799   -0.2434   -0.9407 C   0  0  0  0  0  0  0  0  0  0  0  0
    0.8334   -0.6019    0.2530 C   0  0  0  0  0  0  0  0  0  0  0  0
   -0.2345   -1.4594    0.1046 O   0  0  0  0  0  0  0  0  0  0  0  0
   -0.5271   -0.0943    0.3932 C   0  0  0  0  0  0  0  0  0  0  0  0
   -1.2657    0.5602   -0.7490 C   0  0  0  0  0  0  0  0  0  0  0  0
   -0.9911    0.2213    1.7562 C   0  0  0  0  0  0  0  0  0  0  0  0
   -0.4669   -0.2508    2.7361 O   0  0  0  0  0  0  0  0  0  0  0  0
    2.2258   -1.1234   -1.3241 H   0  0  0  0  0  0  0  0  0  0  0  0
    2.4654    0.4690   -0.5661 H   0  0  0  0  0  0  0  0  0  0  0  0
    1.1455    0.2760   -1.7337 H   0  0  0  0  0  0  0  0  0  0  0  0
    1.4231   -0.7640    1.1743 H   0  0  0  0  0  0  0  0  0  0  0  0
   -1.2326    1.6508   -0.6301 H   0  0  0  0  0  0  0  0  0  0  0  0
   -0.8937    0.2282   -1.7212 H   0  0  0  0  0  0  0  0  0  0  0  0
   -2.3436    0.2422   -0.6380 H   0  0  0  0  0  0  0  0  0  0  0  0
   -1.8181    0.8893    1.8858 H   0  0  0  0  0  0  0  0  0  0  0  0
  1  2  1  0
  2  3  1  0
  3  4  1  0
  4  5  1  0
  4  6  1  0
  6  7  2  0
  4  2  1  0
  1  8  1  0
  1  9  1  0
  1 10  1  0
  2 11  1  0
  5 12  1  0
  5 13  1  0
  5 14  1  0
  6 15  1  0
M  END
