
     RDKit          3D

 21 23  0  0  0  0  0  0  0  0999 V2000
   -1.7462   -1.3968   -0.1333 C   0  0  0  0  0  0  0  0  0  0  0  0
   -0.3319   -0.9634   -0.1359 C   0  0  0  0  0  0  0  0  0  0  0  0
    0.2892   -1.0592   -1.3774 O   0  0  0  0  0  0  0  0  0  0  0  0
    1.4707   -0.3772   -1.2914 C   0  0  0  0  0  0  0  0  0  0  0  0
    2.3309   -0.3639   -0.1003 C   0  0  0  0  0  0  0  0  0  0  0  0
    1.3008    0.7142   -0.2479 C   0  0  0  0  0  0  0  0  0  0  0  0
   -0.1018    0.4681    0.2309 C   0  0  0  0  0  0  0  0  0  0  0  0
   -0.6521    1.0638    1.4452 C   0  0  0  0  0  0  0  0  0  0  0  0
   -1.0883    1.5238    0.0674 C   0  0  0  0  0  0  0  0  0  0  0  0
   -2.0964   -1.6619   -1.1571 H   0  0  0  0  0  0  0  0  0  0  0  0
   -2.4531   -0.6661    0.2850 H   0  0  0  0  0  0  0  0  0  0  0  0
   -1.8922   -2.3420    0.4671 H   0  0  0  0  0  0  0  0  0  0  0  0
    0.2486   -1.5897    0.5721 H   0  0  0  0  0  0  0  0  0  0  0  0
    1.9216   -0.1038   -2.2750 H   0  0  0  0  0  0  0  0  0  0  0  0
    2.2223   -1.0947    0.7241 H   0  0  0  0  0  0  0  0  0  0  0  0
    3.3801   -0.0521   -0.2583 H   0  0  0  0  0  0  0  0  0  0  0  0
    1.5790    1.7447   -0.4969 H   0  0  0  0  0  0  0  0  0  0  0  0
   -1.4368    0.4465    1.9732 H   0  0  0  0  0  0  0  0  0  0  0  0
   -0.0877    1.7586    2.0974 H   0  0  0  0  0  0  0  0  0  0  0  0
   -0.7226    2.5664   -0.1673 H   0  0  0  0  0  0  0  0  0  0  0  0
   -2.1341    1.3849   -0.2217 H   0  0  0  0  0  0  0  0  0  0  0  0
  1  2  1  0
  2  3  1  0
  3  4  1  0
  4  5  1  0
  5  6  1  0
  6  7  1  0
  7  8  1  0
  8  9  1  0
  7  2  1  0
  6  4  1  0
  9  7  1  0
  1 10  1  0
  1 11  1  0
  1 12  1  0
  2 13  1  0
  4 14  1  0
  5 15  1  0
  5 16  1  0
  6 17  1  0
  8 18  1  0
  8 19  1  0
  9 20  1  0
  9 21  1  0
M  END
