
     RDKit          3D

 21 22  0  0  0  0  0  0  0  0999 V2000
   -2.3908   -0.7403    0.3536 C   0  0  0  0  0  0  0  0  0  0  0  0
   -1.5841    0.2042   -0.4485 C   0  0  0  0  0  0  0  0  0  0  0  0
   -1.4514    1.4733    0.1187 O   0  0  0  0  0  0  0  0  0  0  0  0
   -0.0721    1.6751    0.3848 C   0  0  0  0  0  0  0  0  0  0  0  0
    0.3238    0.2723    0.6974 C   0  0  0  0  0  0  0  0  0  0  0  0
    0.8387   -0.8192   -0.0136 C   0  0  0  0  0  0  0  0  0  0  0  0
    2.2926   -0.7288   -0.4914 C   0  0  0  0  0  0  0  0  0  0  0  0
    2.4611    0.3621   -1.3430 O   0  0  0  0  0  0  0  0  0  0  0  0
   -0.1914   -0.1882   -0.7319 C   0  0  0  0  0  0  0  0  0  0  0  0
   -3.4814   -0.5121    0.1670 H   0  0  0  0  0  0  0  0  0  0  0  0
   -2.2188   -1.7660   -0.0216 H   0  0  0  0  0  0  0  0  0  0  0  0
   -2.2461   -0.7398    1.4258 H   0  0  0  0  0  0  0  0  0  0  0  0
   -2.1514    0.3718   -1.4129 H   0  0  0  0  0  0  0  0  0  0  0  0
    0.0118    2.3370    1.2522 H   0  0  0  0  0  0  0  0  0  0  0  0
    0.4479    2.1181   -0.4666 H   0  0  0  0  0  0  0  0  0  0  0  0
   -0.3440   -0.0319    1.5669 H   0  0  0  0  0  0  0  0  0  0  0  0
    0.6267   -1.8754    0.3343 H   0  0  0  0  0  0  0  0  0  0  0  0
    3.0032   -0.6759    0.3279 H   0  0  0  0  0  0  0  0  0  0  0  0
    2.4859   -1.6675   -1.0526 H   0  0  0  0  0  0  0  0  0  0  0  0
    3.4451    0.4905   -1.4268 H   0  0  0  0  0  0  0  0  0  0  0  0
    0.1950    0.4408   -1.5974 H   0  0  0  0  0  0  0  0  0  0  0  0
  1  2  1  0
  2  3  1  0
  3  4  1  0
  4  5  1  0
  5  6  1  0
  6  7  1  0
  7  8  1  0
  6  9  1  0
  9  2  1  0
  9  5  1  0
  1 10  1  0
  1 11  1  0
  1 12  1  0
  2 13  1  0
  4 14  1  0
  4 15  1  0
  5 16  1  0
  6 17  1  0
  7 18  1  0
  7 19  1  0
  8 20  1  0
  9 21  1  0
M  END
