
     RDKit          3D

 17 18  0  0  0  0  0  0  0  0999 V2000
    1.9792   -0.4105   -0.5118 C   0  0  0  0  0  0  0  0  0  0  0  0
    0.7675    0.4611   -0.6242 C   0  0  0  0  0  0  0  0  0  0  0  0
   -0.1913   -0.0701   -1.5573 O   0  0  0  0  0  0  0  0  0  0  0  0
   -1.4847   -0.1524   -1.0818 C   0  0  0  0  0  0  0  0  0  0  0  0
   -2.3986   -0.5659   -1.8132 O   0  0  0  0  0  0  0  0  0  0  0  0
   -1.7315    0.2665    0.3144 C   0  0  0  0  0  0  0  0  0  0  0  0
   -0.7358   -0.5102    1.1599 C   0  0  0  0  0  0  0  0  0  0  0  0
    0.1290    0.6300    0.7166 C   0  0  0  0  0  0  0  0  0  0  0  0
   -0.9879    1.4339    0.5885 O   0  0  0  0  0  0  0  0  0  0  0  0
    2.3784   -0.3934    0.5383 H   0  0  0  0  0  0  0  0  0  0  0  0
    1.7776   -1.4509   -0.7599 H   0  0  0  0  0  0  0  0  0  0  0  0
    2.7935    0.0312   -1.1311 H   0  0  0  0  0  0  0  0  0  0  0  0
    1.0393    1.4908   -0.9908 H   0  0  0  0  0  0  0  0  0  0  0  0
   -2.7610    0.2712    0.6625 H   0  0  0  0  0  0  0  0  0  0  0  0
   -0.9427   -0.4503    2.2319 H   0  0  0  0  0  0  0  0  0  0  0  0
   -0.4745   -1.4993    0.7507 H   0  0  0  0  0  0  0  0  0  0  0  0
    0.8435    0.9183    1.5073 H   0  0  0  0  0  0  0  0  0  0  0  0
  1  2  1  0
  2  3  1  0
  3  4  1  0
  4  5  2  0
  4  6  1  0
  6  7  1  0
  7  8  1  0
  8  9  1  0
  8  2  1  0
  9  6  1  0
  1 10  1  0
  1 11  1  0
  1 12  1  0
  2 13  1  0
  6 14  1  0
  7 15  1  0
  7 16  1  0
  8 17  1  0
M  END
