
     RDKit          3D

 21 22  0  0  0  0  0  0  0  0999 V2000
    3.0664   -0.1354    0.1508 C   0  0  0  0  0  0  0  0  0  0  0  0
    1.5896   -0.3272   -0.2230 C   0  0  0  0  0  0  0  0  0  0  0  0
    0.7446   -0.6429    0.9482 O   0  0  0  0  0  0  0  0  0  0  0  0
    0.6624    0.6358    0.2709 C   0  0  0  0  0  0  0  0  0  0  0  0
   -0.7028    0.9110   -0.2739 C   0  0  0  0  0  0  0  0  0  0  0  0
   -0.7708    2.1331   -0.9181 O   0  0  0  0  0  0  0  0  0  0  0  0
   -1.3937   -0.2371   -0.9423 C   0  0  0  0  0  0  0  0  0  0  0  0
   -2.2217   -0.4216    0.3219 C   0  0  0  0  0  0  0  0  0  0  0  0
   -1.7326    0.8959    0.8624 C   0  0  0  0  0  0  0  0  0  0  0  0
    3.1668   -0.0822    1.2581 H   0  0  0  0  0  0  0  0  0  0  0  0
    3.7011   -0.9191   -0.2681 H   0  0  0  0  0  0  0  0  0  0  0  0
    3.3574    0.8907   -0.2112 H   0  0  0  0  0  0  0  0  0  0  0  0
    1.3689   -1.0384   -1.0184 H   0  0  0  0  0  0  0  0  0  0  0  0
    1.0374    1.4251    0.9777 H   0  0  0  0  0  0  0  0  0  0  0  0
   -0.1769    2.2067   -1.6971 H   0  0  0  0  0  0  0  0  0  0  0  0
   -2.0112    0.0040   -1.8290 H   0  0  0  0  0  0  0  0  0  0  0  0
   -0.7415   -1.1154   -1.1724 H   0  0  0  0  0  0  0  0  0  0  0  0
   -3.3261   -0.3765    0.1488 H   0  0  0  0  0  0  0  0  0  0  0  0
   -1.8731   -1.2870    0.9132 H   0  0  0  0  0  0  0  0  0  0  0  0
   -2.4605    1.7185    0.8292 H   0  0  0  0  0  0  0  0  0  0  0  0
   -1.2836    0.7880    1.8723 H   0  0  0  0  0  0  0  0  0  0  0  0
  1  2  1  0
  2  3  1  0
  3  4  1  0
  4  5  1  0
  5  6  1  0
  5  7  1  0
  7  8  1  0
  8  9  1  0
  4  2  1  0
  9  5  1  0
  1 10  1  0
  1 11  1  0
  1 12  1  0
  2 13  1  0
  4 14  1  0
  6 15  1  0
  7 16  1  0
  7 17  1  0
  8 18  1  0
  8 19  1  0
  9 20  1  0
  9 21  1  0
M  END
