
     RDKit          3D

 17 17  0  0  0  0  0  0  0  0999 V2000
   -2.1603    1.1631   -0.2772 C   0  0  0  0  0  0  0  0  0  0  0  0
   -0.7039    0.8548   -0.6196 C   0  0  0  0  0  0  0  0  0  0  0  0
    0.1209    1.0769    0.6265 O   0  0  0  0  0  0  0  0  0  0  0  0
    0.0331   -0.2360   -0.1735 C   0  0  0  0  0  0  0  0  0  0  0  0
   -0.3239   -1.2894    0.8376 C   0  0  0  0  0  0  0  0  0  0  0  0
    1.4374   -0.4009   -0.7163 C   0  0  0  0  0  0  0  0  0  0  0  0
    1.4976   -0.5615   -1.9938 O   0  0  0  0  0  0  0  0  0  0  0  0
    2.6145   -0.3633    0.0947 C   0  0  0  0  0  0  0  0  0  0  0  0
    2.8452   -0.0182    1.2277 O   0  0  0  0  0  0  0  0  0  0  0  0
   -2.8447    1.0045   -1.1059 H   0  0  0  0  0  0  0  0  0  0  0  0
   -2.1280    2.2210    0.0844 H   0  0  0  0  0  0  0  0  0  0  0  0
   -2.4529    0.5531    0.6384 H   0  0  0  0  0  0  0  0  0  0  0  0
   -0.2684    1.5418   -1.4113 H   0  0  0  0  0  0  0  0  0  0  0  0
   -1.4149   -1.3053    1.0723 H   0  0  0  0  0  0  0  0  0  0  0  0
   -0.0346   -2.2705    0.3924 H   0  0  0  0  0  0  0  0  0  0  0  0
    0.2230   -1.1967    1.7958 H   0  0  0  0  0  0  0  0  0  0  0  0
    3.5598   -0.7735   -0.4721 H   0  0  0  0  0  0  0  0  0  0  0  0
  1  2  1  0
  2  3  1  0
  3  4  1  0
  4  5  1  0
  4  6  1  0
  6  7  2  0
  6  8  1  0
  8  9  2  0
  4  2  1  0
  1 10  1  0
  1 11  1  0
  1 12  1  0
  2 13  1  0
  5 14  1  0
  5 15  1  0
  5 16  1  0
  8 17  1  0
M  END
