
     RDKit          3D

 21 22  0  0  0  0  0  0  0  0999 V2000
   -2.1445    1.0234    0.1302 C   0  0  0  0  0  0  0  0  0  0  0  0
   -0.8046    0.5891   -0.4114 C   0  0  0  0  0  0  0  0  0  0  0  0
   -0.9359   -0.2820   -1.4959 O   0  0  0  0  0  0  0  0  0  0  0  0
   -0.0044   -1.3120   -1.2260 C   0  0  0  0  0  0  0  0  0  0  0  0
   -0.4395   -1.6119    0.2222 C   0  0  0  0  0  0  0  0  0  0  0  0
   -0.0655   -0.1790    0.6562 C   0  0  0  0  0  0  0  0  0  0  0  0
    1.3760   -0.2516    0.2137 C   0  0  0  0  0  0  0  0  0  0  0  0
    2.1007    1.0383    0.2805 C   0  0  0  0  0  0  0  0  0  0  0  0
    1.2435   -0.7614   -1.0845 O   0  0  0  0  0  0  0  0  0  0  0  0
   -1.9422    1.7115    0.9732 H   0  0  0  0  0  0  0  0  0  0  0  0
   -2.6271    0.1287    0.5620 H   0  0  0  0  0  0  0  0  0  0  0  0
   -2.7611    1.5174   -0.6417 H   0  0  0  0  0  0  0  0  0  0  0  0
   -0.2505    1.4653   -0.7862 H   0  0  0  0  0  0  0  0  0  0  0  0
   -0.0975   -2.1591   -1.8769 H   0  0  0  0  0  0  0  0  0  0  0  0
    0.2308   -2.3535    0.6461 H   0  0  0  0  0  0  0  0  0  0  0  0
   -1.5025   -1.8001    0.3024 H   0  0  0  0  0  0  0  0  0  0  0  0
   -0.2650    0.0506    1.6657 H   0  0  0  0  0  0  0  0  0  0  0  0
    1.8888   -0.9852    0.8758 H   0  0  0  0  0  0  0  0  0  0  0  0
    2.9203    1.1072   -0.4656 H   0  0  0  0  0  0  0  0  0  0  0  0
    2.5931    1.1240    1.2893 H   0  0  0  0  0  0  0  0  0  0  0  0
    1.4871    1.9402    0.1712 H   0  0  0  0  0  0  0  0  0  0  0  0
  1  2  1  0
  2  3  1  0
  3  4  1  0
  4  5  1  0
  5  6  1  0
  6  7  1  0
  7  8  1  0
  7  9  1  0
  6  2  1  0
  9  4  1  0
  1 10  1  0
  1 11  1  0
  1 12  1  0
  2 13  1  0
  4 14  1  0
  5 15  1  0
  5 16  1  0
  6 17  1  0
  7 18  1  0
  8 19  1  0
  8 20  1  0
  8 21  1  0
M  END
