
     RDKit          3D

 23 24  0  0  0  0  0  0  0  0999 V2000
    2.5362   -0.7370   -0.2861 C   0  0  0  0  0  0  0  0  0  0  0  0
    1.6551    0.3717    0.1752 C   0  0  0  0  0  0  0  0  0  0  0  0
    0.9977    0.0600    1.3971 O   0  0  0  0  0  0  0  0  0  0  0  0
   -0.3494   -0.0407    1.0330 C   0  0  0  0  0  0  0  0  0  0  0  0
   -0.4872    1.1713    0.1513 C   0  0  0  0  0  0  0  0  0  0  0  0
   -1.8044    1.5798   -0.3082 C   0  0  0  0  0  0  0  0  0  0  0  0
    0.4181    0.3847   -0.7331 C   0  0  0  0  0  0  0  0  0  0  0  0
   -0.2294   -0.8727   -0.2158 C   0  0  0  0  0  0  0  0  0  0  0  0
   -1.4347   -1.3711   -0.8699 C   0  0  0  0  0  0  0  0  0  0  0  0
    2.5434   -1.5394    0.4740 H   0  0  0  0  0  0  0  0  0  0  0  0
    2.1970   -1.2168   -1.2362 H   0  0  0  0  0  0  0  0  0  0  0  0
    3.5562   -0.3460   -0.4984 H   0  0  0  0  0  0  0  0  0  0  0  0
    2.1323    1.3567    0.2328 H   0  0  0  0  0  0  0  0  0  0  0  0
   -1.0712   -0.2625    1.7616 H   0  0  0  0  0  0  0  0  0  0  0  0
    0.0633    2.0249    0.6393 H   0  0  0  0  0  0  0  0  0  0  0  0
   -2.5381    1.4821    0.5471 H   0  0  0  0  0  0  0  0  0  0  0  0
   -1.7716    2.6773   -0.5695 H   0  0  0  0  0  0  0  0  0  0  0  0
   -2.2082    1.0892   -1.2100 H   0  0  0  0  0  0  0  0  0  0  0  0
    0.5295    0.5693   -1.7517 H   0  0  0  0  0  0  0  0  0  0  0  0
    0.5382   -1.6699   -0.0396 H   0  0  0  0  0  0  0  0  0  0  0  0
   -2.4030   -1.1456   -0.3619 H   0  0  0  0  0  0  0  0  0  0  0  0
   -1.4139   -2.5017   -0.9235 H   0  0  0  0  0  0  0  0  0  0  0  0
   -1.4556   -1.0636   -1.9528 H   0  0  0  0  0  0  0  0  0  0  0  0
  1  2  1  0
  2  3  1  0
  3  4  1  0
  4  5  1  0
  5  6  1  0
  5  7  1  0
  7  8  1  0
  8  9  1  0
  7  2  1  0
  8  4  1  0
  1 10  1  0
  1 11  1  0
  1 12  1  0
  2 13  1  0
  4 14  1  0
  5 15  1  0
  6 16  1  0
  6 17  1  0
  6 18  1  0
  7 19  1  0
  8 20  1  0
  9 21  1  0
  9 22  1  0
  9 23  1  0
M  END
