
     RDKit          3D

 19 19  0  0  0  0  0  0  0  0999 V2000
   -2.5111    0.5561   -0.4459 C   0  0  0  0  0  0  0  0  0  0  0  0
   -1.1157   -0.0667   -0.5972 C   0  0  0  0  0  0  0  0  0  0  0  0
   -1.2096   -1.4084   -0.2108 O   0  0  0  0  0  0  0  0  0  0  0  0
   -0.3070   -1.3176    0.8421 C   0  0  0  0  0  0  0  0  0  0  0  0
   -0.2550    0.1734    0.6028 C   0  0  0  0  0  0  0  0  0  0  0  0
    1.1374    0.5989    0.3561 C   0  0  0  0  0  0  0  0  0  0  0  0
    1.4651    1.6872    0.8175 O   0  0  0  0  0  0  0  0  0  0  0  0
    2.1448   -0.1589   -0.3832 C   0  0  0  0  0  0  0  0  0  0  0  0
    3.3339    0.5601   -0.4225 O   0  0  0  0  0  0  0  0  0  0  0  0
   -2.9923    0.1519    0.4707 H   0  0  0  0  0  0  0  0  0  0  0  0
   -2.4505    1.6644   -0.4440 H   0  0  0  0  0  0  0  0  0  0  0  0
   -3.1372    0.1775   -1.2977 H   0  0  0  0  0  0  0  0  0  0  0  0
   -0.6725    0.0674   -1.5798 H   0  0  0  0  0  0  0  0  0  0  0  0
    0.6082   -1.8876    0.6603 H   0  0  0  0  0  0  0  0  0  0  0  0
   -0.7145   -1.5409    1.8434 H   0  0  0  0  0  0  0  0  0  0  0  0
   -0.7319    0.7781    1.3941 H   0  0  0  0  0  0  0  0  0  0  0  0
    2.4147   -1.1267    0.1342 H   0  0  0  0  0  0  0  0  0  0  0  0
    1.8464   -0.4358   -1.4120 H   0  0  0  0  0  0  0  0  0  0  0  0
    3.1467    1.5275   -0.3280 H   0  0  0  0  0  0  0  0  0  0  0  0
  1  2  1  0
  2  3  1  0
  3  4  1  0
  4  5  1  0
  5  6  1  0
  6  7  2  0
  6  8  1  0
  8  9  1  0
  5  2  1  0
  1 10  1  0
  1 11  1  0
  1 12  1  0
  2 13  1  0
  4 14  1  0
  4 15  1  0
  5 16  1  0
  8 17  1  0
  8 18  1  0
  9 19  1  0
M  END
