
     RDKit          3D

 18 20  0  0  0  0  0  0  0  0999 V2000
    2.4739    0.3383   -0.4161 C   0  0  0  0  0  0  0  0  0  0  0  0
    1.3544   -0.4233    0.2824 C   0  0  0  0  0  0  0  0  0  0  0  0
    0.9263   -1.6157   -0.4072 O   0  0  0  0  0  0  0  0  0  0  0  0
    0.0975   -0.5482   -0.2310 C   0  0  0  0  0  0  0  0  0  0  0  0
   -0.5914    0.1481   -1.3418 C   0  0  0  0  0  0  0  0  0  0  0  0
   -1.8860    0.0602   -0.5632 C   0  0  0  0  0  0  0  0  0  0  0  0
   -1.8598    0.6932    0.7771 C   0  0  0  0  0  0  0  0  0  0  0  0
   -1.1497   -0.6129    0.5763 C   0  0  0  0  0  0  0  0  0  0  0  0
    2.8908    1.0449    0.3327 H   0  0  0  0  0  0  0  0  0  0  0  0
    2.0023    0.9678   -1.1992 H   0  0  0  0  0  0  0  0  0  0  0  0
    3.2702   -0.3154   -0.7824 H   0  0  0  0  0  0  0  0  0  0  0  0
    1.6018   -0.6702    1.3412 H   0  0  0  0  0  0  0  0  0  0  0  0
   -0.6770   -0.5290   -2.2363 H   0  0  0  0  0  0  0  0  0  0  0  0
   -0.2647    1.1492   -1.6250 H   0  0  0  0  0  0  0  0  0  0  0  0
   -2.7311   -0.5127   -0.9428 H   0  0  0  0  0  0  0  0  0  0  0  0
   -1.1947    1.6022    0.8392 H   0  0  0  0  0  0  0  0  0  0  0  0
   -2.7385    0.7598    1.4269 H   0  0  0  0  0  0  0  0  0  0  0  0
   -1.5243   -1.5365    1.0117 H   0  0  0  0  0  0  0  0  0  0  0  0
  1  2  1  0
  2  3  1  0
  3  4  1  0
  4  5  1  0
  5  6  1  0
  6  7  1  0
  7  8  1  0
  4  2  1  0
  8  6  1  0
  8  4  1  0
  1  9  1  0
  1 10  1  0
  1 11  1  0
  2 12  1  0
  5 13  1  0
  5 14  1  0
  6 15  1  0
  7 16  1  0
  7 17  1  0
  8 18  1  0
M  END
