
     RDKit          3D

 19 19  0  0  0  0  0  0  0  0999 V2000
   -1.9183   -1.5688   -0.0146 C   0  0  0  0  0  0  0  0  0  0  0  0
   -2.0078   -0.0963   -0.2414 C   0  0  0  0  0  0  0  0  0  0  0  0
   -1.4475    0.2590   -1.5514 O   0  0  0  0  0  0  0  0  0  0  0  0
   -0.7872    0.6979   -0.3778 C   0  0  0  0  0  0  0  0  0  0  0  0
   -0.8194    2.2026   -0.2411 C   0  0  0  0  0  0  0  0  0  0  0  0
    0.4882    0.0861   -0.0546 C   0  0  0  0  0  0  0  0  0  0  0  0
    1.5530   -0.4225    0.2366 C   0  0  0  0  0  0  0  0  0  0  0  0
    2.8482   -1.0180    0.5730 C   0  0  0  0  0  0  0  0  0  0  0  0
    3.8599   -0.0984    0.2403 O   0  0  0  0  0  0  0  0  0  0  0  0
   -2.7468   -1.8523    0.6807 H   0  0  0  0  0  0  0  0  0  0  0  0
   -2.0781   -2.1613   -0.9515 H   0  0  0  0  0  0  0  0  0  0  0  0
   -0.9596   -1.9085    0.4097 H   0  0  0  0  0  0  0  0  0  0  0  0
   -2.9575    0.4389   -0.0416 H   0  0  0  0  0  0  0  0  0  0  0  0
   -0.2978    2.5565    0.6644 H   0  0  0  0  0  0  0  0  0  0  0  0
   -1.8512    2.5900   -0.2639 H   0  0  0  0  0  0  0  0  0  0  0  0
   -0.2584    2.6114   -1.1194 H   0  0  0  0  0  0  0  0  0  0  0  0
    2.9040   -1.2315    1.6389 H   0  0  0  0  0  0  0  0  0  0  0  0
    2.9759   -1.9251   -0.0702 H   0  0  0  0  0  0  0  0  0  0  0  0
    3.5005    0.8404    0.2947 H   0  0  0  0  0  0  0  0  0  0  0  0
  1  2  1  0
  2  3  1  0
  3  4  1  0
  4  5  1  0
  4  6  1  0
  6  7  3  0
  7  8  1  0
  8  9  1  0
  4  2  1  0
  1 10  1  0
  1 11  1  0
  1 12  1  0
  2 13  1  0
  5 14  1  0
  5 15  1  0
  5 16  1  0
  8 17  1  0
  8 18  1  0
  9 19  1  0
M  END
