
     RDKit          3D

 22 22  0  0  0  0  0  0  0  0999 V2000
    3.0338   -0.2037    0.0146 C   0  0  0  0  0  0  0  0  0  0  0  0
    1.6203   -0.3173    0.5442 C   0  0  0  0  0  0  0  0  0  0  0  0
    0.9878   -1.5101    0.1781 O   0  0  0  0  0  0  0  0  0  0  0  0
    0.5467   -0.3018   -0.3911 C   0  0  0  0  0  0  0  0  0  0  0  0
   -0.8750    0.0349   -0.0974 C   0  0  0  0  0  0  0  0  0  0  0  0
   -1.6680   -0.0781   -1.3794 C   0  0  0  0  0  0  0  0  0  0  0  0
   -1.0128    1.4897    0.3603 C   0  0  0  0  0  0  0  0  0  0  0  0
   -1.4746   -0.8093    1.0032 C   0  0  0  0  0  0  0  0  0  0  0  0
    3.0695    0.7712   -0.5477 H   0  0  0  0  0  0  0  0  0  0  0  0
    3.7778   -0.1021    0.8236 H   0  0  0  0  0  0  0  0  0  0  0  0
    3.2959   -0.9981   -0.6906 H   0  0  0  0  0  0  0  0  0  0  0  0
    1.5030    0.0335    1.5893 H   0  0  0  0  0  0  0  0  0  0  0  0
    0.8160   -0.2202   -1.4767 H   0  0  0  0  0  0  0  0  0  0  0  0
   -1.0979    0.4684   -2.1622 H   0  0  0  0  0  0  0  0  0  0  0  0
   -2.6577    0.4274   -1.3016 H   0  0  0  0  0  0  0  0  0  0  0  0
   -1.8334   -1.1290   -1.6828 H   0  0  0  0  0  0  0  0  0  0  0  0
   -0.1813    1.7272    1.0347 H   0  0  0  0  0  0  0  0  0  0  0  0
   -2.0078    1.5709    0.8369 H   0  0  0  0  0  0  0  0  0  0  0  0
   -0.9780    2.1352   -0.5333 H   0  0  0  0  0  0  0  0  0  0  0  0
   -2.3458   -0.2828    1.4622 H   0  0  0  0  0  0  0  0  0  0  0  0
   -1.7949   -1.7782    0.6165 H   0  0  0  0  0  0  0  0  0  0  0  0
   -0.7235   -0.9276    1.7992 H   0  0  0  0  0  0  0  0  0  0  0  0
  1  2  1  0
  2  3  1  0
  3  4  1  0
  4  5  1  0
  5  6  1  0
  5  7  1  0
  5  8  1  0
  4  2  1  0
  1  9  1  0
  1 10  1  0
  1 11  1  0
  2 12  1  0
  4 13  1  0
  6 14  1  0
  6 15  1  0
  6 16  1  0
  7 17  1  0
  7 18  1  0
  7 19  1  0
  8 20  1  0
  8 21  1  0
  8 22  1  0
M  END
