
     RDKit          3D

 21 22  0  0  0  0  0  0  0  0999 V2000
    2.1096   -0.4756    0.2486 C   0  0  0  0  0  0  0  0  0  0  0  0
    0.8526    0.3154    0.5457 C   0  0  0  0  0  0  0  0  0  0  0  0
    0.9006    1.5954    0.0698 O   0  0  0  0  0  0  0  0  0  0  0  0
   -0.1834    1.8542   -0.7093 C   0  0  0  0  0  0  0  0  0  0  0  0
   -0.9123    0.5629   -0.9762 C   0  0  0  0  0  0  0  0  0  0  0  0
   -2.1833    0.4677   -0.4105 O   0  0  0  0  0  0  0  0  0  0  0  0
   -1.6020    0.2233    0.8058 C   0  0  0  0  0  0  0  0  0  0  0  0
   -0.3945   -0.3398    0.0869 C   0  0  0  0  0  0  0  0  0  0  0  0
   -0.3973   -1.7943   -0.1521 C   0  0  0  0  0  0  0  0  0  0  0  0
    2.5791   -0.1484   -0.7002 H   0  0  0  0  0  0  0  0  0  0  0  0
    2.8554   -0.3049    1.0623 H   0  0  0  0  0  0  0  0  0  0  0  0
    1.8544   -1.5504    0.2685 H   0  0  0  0  0  0  0  0  0  0  0  0
    0.7969    0.3844    1.6726 H   0  0  0  0  0  0  0  0  0  0  0  0
    0.1719    2.2519   -1.6893 H   0  0  0  0  0  0  0  0  0  0  0  0
   -0.8694    2.6225   -0.3020 H   0  0  0  0  0  0  0  0  0  0  0  0
   -0.9324    0.2099   -2.0029 H   0  0  0  0  0  0  0  0  0  0  0  0
   -2.0374   -0.5322    1.4547 H   0  0  0  0  0  0  0  0  0  0  0  0
   -1.3834    1.1900    1.3306 H   0  0  0  0  0  0  0  0  0  0  0  0
   -1.4195   -2.1159   -0.4269 H   0  0  0  0  0  0  0  0  0  0  0  0
    0.2735   -2.1033   -0.9498 H   0  0  0  0  0  0  0  0  0  0  0  0
   -0.0790   -2.3129    0.7738 H   0  0  0  0  0  0  0  0  0  0  0  0
  1  2  1  0
  2  3  1  0
  3  4  1  0
  4  5  1  0
  5  6  1  0
  6  7  1  0
  7  8  1  0
  8  9  1  0
  8  2  1  0
  8  5  1  0
  1 10  1  0
  1 11  1  0
  1 12  1  0
  2 13  1  0
  4 14  1  0
  4 15  1  0
  5 16  1  0
  7 17  1  0
  7 18  1  0
  9 19  1  0
  9 20  1  0
  9 21  1  0
M  END
