
     RDKit          3D

 21 21  0  0  0  0  0  0  0  0999 V2000
    2.7990   -0.2434    0.3361 C   0  0  0  0  0  0  0  0  0  0  0  0
    1.4333    0.3246    0.2556 C   0  0  0  0  0  0  0  0  0  0  0  0
    0.9833    0.5379   -1.0529 O   0  0  0  0  0  0  0  0  0  0  0  0
   -0.2971    1.0376   -0.7582 C   0  0  0  0  0  0  0  0  0  0  0  0
   -0.8856   -0.1053    0.0786 C   0  0  0  0  0  0  0  0  0  0  0  0
   -1.4641   -1.1653   -0.7928 C   0  0  0  0  0  0  0  0  0  0  0  0
   -1.8692    0.5076    1.0168 C   0  0  0  0  0  0  0  0  0  0  0  0
    0.3696   -0.5625    0.7841 C   0  0  0  0  0  0  0  0  0  0  0  0
    0.5051   -1.4427    1.5946 O   0  0  0  0  0  0  0  0  0  0  0  0
    2.9915   -1.0536   -0.3795 H   0  0  0  0  0  0  0  0  0  0  0  0
    2.9389   -0.6755    1.3538 H   0  0  0  0  0  0  0  0  0  0  0  0
    3.5316    0.5554    0.1311 H   0  0  0  0  0  0  0  0  0  0  0  0
    1.3849    1.2855    0.7981 H   0  0  0  0  0  0  0  0  0  0  0  0
   -0.1540    1.8805   -0.0493 H   0  0  0  0  0  0  0  0  0  0  0  0
   -0.8878    1.2694   -1.6326 H   0  0  0  0  0  0  0  0  0  0  0  0
   -2.4349   -1.4807   -0.3528 H   0  0  0  0  0  0  0  0  0  0  0  0
   -0.8373   -2.0610   -0.8801 H   0  0  0  0  0  0  0  0  0  0  0  0
   -1.6382   -0.7239   -1.8102 H   0  0  0  0  0  0  0  0  0  0  0  0
   -1.4119    0.8270    1.9749 H   0  0  0  0  0  0  0  0  0  0  0  0
   -2.7669   -0.1511    1.1937 H   0  0  0  0  0  0  0  0  0  0  0  0
   -2.2903    1.4395    0.5634 H   0  0  0  0  0  0  0  0  0  0  0  0
  1  2  1  0
  2  3  1  0
  3  4  1  0
  4  5  1  0
  5  6  1  0
  5  7  1  0
  5  8  1  0
  8  9  2  0
  8  2  1  0
  1 10  1  0
  1 11  1  0
  1 12  1  0
  2 13  1  0
  4 14  1  0
  4 15  1  0
  6 16  1  0
  6 17  1  0
  6 18  1  0
  7 19  1  0
  7 20  1  0
  7 21  1  0
M  END
