
     RDKit          3D

 16 17  0  0  0  0  0  0  0  0999 V2000
    2.3852   -0.2442   -0.4760 C   0  0  0  0  0  0  0  0  0  0  0  0
    1.1298   -0.1944    0.3558 C   0  0  0  0  0  0  0  0  0  0  0  0
    0.7486    1.0261    0.8358 O   0  0  0  0  0  0  0  0  0  0  0  0
   -0.5579    0.5352    0.7905 C   0  0  0  0  0  0  0  0  0  0  0  0
   -1.2044    0.6253   -0.5304 C   0  0  0  0  0  0  0  0  0  0  0  0
   -2.6307    0.1893   -0.5419 C   0  0  0  0  0  0  0  0  0  0  0  0
   -3.4889    0.7572   -1.1890 O   0  0  0  0  0  0  0  0  0  0  0  0
   -0.1494   -0.3982   -0.3747 C   0  0  0  0  0  0  0  0  0  0  0  0
    2.4346   -1.2877   -0.8964 H   0  0  0  0  0  0  0  0  0  0  0  0
    2.3202    0.5042   -1.2921 H   0  0  0  0  0  0  0  0  0  0  0  0
    3.2400   -0.0463    0.1948 H   0  0  0  0  0  0  0  0  0  0  0  0
    1.2605   -0.9065    1.2239 H   0  0  0  0  0  0  0  0  0  0  0  0
   -1.0084    0.0622    1.6593 H   0  0  0  0  0  0  0  0  0  0  0  0
   -1.0244    1.5045   -1.1644 H   0  0  0  0  0  0  0  0  0  0  0  0
   -2.9347   -0.6844    0.0577 H   0  0  0  0  0  0  0  0  0  0  0  0
   -0.5202   -1.4424   -0.3393 H   0  0  0  0  0  0  0  0  0  0  0  0
  1  2  1  0
  2  3  1  0
  3  4  1  0
  4  5  1  0
  5  6  1  0
  6  7  2  0
  5  8  1  0
  8  2  1  0
  8  4  1  0
  1  9  1  0
  1 10  1  0
  1 11  1  0
  2 12  1  0
  4 13  1  0
  5 14  1  0
  6 15  1  0
  8 16  1  0
M  END
