
     RDKit          3D

 21 22  0  0  0  0  0  0  0  0999 V2000
    2.7854    0.0306   -0.1266 C   0  0  0  0  0  0  0  0  0  0  0  0
    1.3994   -0.6028   -0.2354 C   0  0  0  0  0  0  0  0  0  0  0  0
    0.8913   -0.6903    1.0357 O   0  0  0  0  0  0  0  0  0  0  0  0
   -0.4238   -0.2823    1.0115 C   0  0  0  0  0  0  0  0  0  0  0  0
   -1.3216   -1.3973    0.5410 C   0  0  0  0  0  0  0  0  0  0  0  0
   -1.7780   -0.4864   -0.5851 C   0  0  0  0  0  0  0  0  0  0  0  0
   -0.5958    0.3961   -0.2961 C   0  0  0  0  0  0  0  0  0  0  0  0
   -0.9856    1.8385   -0.2820 C   0  0  0  0  0  0  0  0  0  0  0  0
    0.5486    0.1506   -1.0033 O   0  0  0  0  0  0  0  0  0  0  0  0
    3.5468   -0.7597   -0.0616 H   0  0  0  0  0  0  0  0  0  0  0  0
    2.8582    0.6114    0.8260 H   0  0  0  0  0  0  0  0  0  0  0  0
    2.9359    0.7227   -0.9783 H   0  0  0  0  0  0  0  0  0  0  0  0
    1.4778   -1.6125   -0.7184 H   0  0  0  0  0  0  0  0  0  0  0  0
   -0.7261    0.2441    1.9173 H   0  0  0  0  0  0  0  0  0  0  0  0
   -2.0941   -1.6810    1.2668 H   0  0  0  0  0  0  0  0  0  0  0  0
   -0.7833   -2.2763    0.1168 H   0  0  0  0  0  0  0  0  0  0  0  0
   -2.7510    0.0104   -0.3463 H   0  0  0  0  0  0  0  0  0  0  0  0
   -1.7224   -0.9380   -1.5974 H   0  0  0  0  0  0  0  0  0  0  0  0
   -1.4294    2.1000   -1.2820 H   0  0  0  0  0  0  0  0  0  0  0  0
   -0.1014    2.5132   -0.1807 H   0  0  0  0  0  0  0  0  0  0  0  0
   -1.7310    2.1091    0.4724 H   0  0  0  0  0  0  0  0  0  0  0  0
  1  2  1  0
  2  3  1  0
  3  4  1  0
  4  5  1  0
  5  6  1  0
  6  7  1  0
  7  8  1  0
  7  9  1  0
  9  2  1  0
  7  4  1  0
  1 10  1  0
  1 11  1  0
  1 12  1  0
  2 13  1  0
  4 14  1  0
  5 15  1  0
  5 16  1  0
  6 17  1  0
  6 18  1  0
  8 19  1  0
  8 20  1  0
  8 21  1  0
M  END
