
     RDKit          3D

 23 24  0  0  0  0  0  0  0  0999 V2000
   -0.1223    2.2304   -0.5452 C   0  0  0  0  0  0  0  0  0  0  0  0
    0.8027    1.0800   -0.7378 C   0  0  0  0  0  0  0  0  0  0  0  0
    1.6455    0.8393    0.3827 O   0  0  0  0  0  0  0  0  0  0  0  0
    1.6843   -0.4869   -0.0322 C   0  0  0  0  0  0  0  0  0  0  0  0
    1.8519   -1.5006    1.0591 C   0  0  0  0  0  0  0  0  0  0  0  0
    0.2919   -0.3125   -0.5654 C   0  0  0  0  0  0  0  0  0  0  0  0
   -0.8252   -0.4483    0.3934 C   0  0  0  0  0  0  0  0  0  0  0  0
   -2.1420    0.2261    0.0822 C   0  0  0  0  0  0  0  0  0  0  0  0
   -2.0271   -1.2751    0.0975 C   0  0  0  0  0  0  0  0  0  0  0  0
   -0.7146    2.1448    0.3603 H   0  0  0  0  0  0  0  0  0  0  0  0
   -0.7024    2.3627   -1.4828 H   0  0  0  0  0  0  0  0  0  0  0  0
    0.4907    3.1800   -0.4853 H   0  0  0  0  0  0  0  0  0  0  0  0
    1.5302    1.2082   -1.5972 H   0  0  0  0  0  0  0  0  0  0  0  0
    2.3998   -0.6703   -0.8477 H   0  0  0  0  0  0  0  0  0  0  0  0
    2.8864   -1.3753    1.4653 H   0  0  0  0  0  0  0  0  0  0  0  0
    1.1650   -1.3933    1.8967 H   0  0  0  0  0  0  0  0  0  0  0  0
    1.8354   -2.5045    0.5849 H   0  0  0  0  0  0  0  0  0  0  0  0
    0.1143   -0.7614   -1.5743 H   0  0  0  0  0  0  0  0  0  0  0  0
   -0.5668   -0.3618    1.4986 H   0  0  0  0  0  0  0  0  0  0  0  0
   -2.2951    0.7338   -0.8888 H   0  0  0  0  0  0  0  0  0  0  0  0
   -2.7316    0.6940    0.8958 H   0  0  0  0  0  0  0  0  0  0  0  0
   -2.4882   -1.8076    0.9398 H   0  0  0  0  0  0  0  0  0  0  0  0
   -2.0827   -1.8015   -0.8996 H   0  0  0  0  0  0  0  0  0  0  0  0
  1  2  1  0
  2  3  1  0
  3  4  1  0
  4  5  1  0
  4  6  1  0
  6  7  1  0
  7  8  1  0
  8  9  1  0
  6  2  1  0
  9  7  1  0
  1 10  1  0
  1 11  1  0
  1 12  1  0
  2 13  1  0
  4 14  1  0
  5 15  1  0
  5 16  1  0
  5 17  1  0
  6 18  1  0
  7 19  1  0
  8 20  1  0
  8 21  1  0
  9 22  1  0
  9 23  1  0
M  END
