
     RDKit          3D

 17 19  0  0  0  0  0  0  0  0999 V2000
   -2.2408    0.4280   -0.1196 C   0  0  0  0  0  0  0  0  0  0  0  0
   -0.9531   -0.3219   -0.4165 C   0  0  0  0  0  0  0  0  0  0  0  0
   -0.6372   -1.1743    0.5982 O   0  0  0  0  0  0  0  0  0  0  0  0
    0.7493   -1.0792    0.8404 C   0  0  0  0  0  0  0  0  0  0  0  0
    1.1346    0.3705    1.1748 C   0  0  0  0  0  0  0  0  0  0  0  0
    0.4066    1.3972    0.5927 O   0  0  0  0  0  0  0  0  0  0  0  0
    0.2079    0.6708   -0.5654 C   0  0  0  0  0  0  0  0  0  0  0  0
    1.3405   -0.2207   -0.1535 C   0  0  0  0  0  0  0  0  0  0  0  0
    2.5499   -0.2380   -0.7069 O   0  0  0  0  0  0  0  0  0  0  0  0
   -1.9806    1.2419    0.5845 H   0  0  0  0  0  0  0  0  0  0  0  0
   -2.7464    0.7759   -1.0252 H   0  0  0  0  0  0  0  0  0  0  0  0
   -2.9616   -0.2374    0.4124 H   0  0  0  0  0  0  0  0  0  0  0  0
   -1.0532   -0.9027   -1.3514 H   0  0  0  0  0  0  0  0  0  0  0  0
    1.2215   -1.8200    1.4604 H   0  0  0  0  0  0  0  0  0  0  0  0
    2.0168    0.5606    1.7830 H   0  0  0  0  0  0  0  0  0  0  0  0
    0.2821    1.1718   -1.5177 H   0  0  0  0  0  0  0  0  0  0  0  0
    2.6636   -0.6226   -1.5901 H   0  0  0  0  0  0  0  0  0  0  0  0
  1  2  1  0
  2  3  1  0
  3  4  1  0
  4  5  1  0
  5  6  1  0
  6  7  1  0
  7  8  1  0
  8  9  1  0
  7  2  1  0
  8  4  1  0
  8  5  1  0
  1 10  1  0
  1 11  1  0
  1 12  1  0
  2 13  1  0
  4 14  1  0
  5 15  1  0
  7 16  1  0
  9 17  1  0
M  END
