
     RDKit          3D

 19 21  0  0  0  0  0  0  0  0999 V2000
    2.3315    0.6227   -0.0433 C   0  0  0  0  0  0  0  0  0  0  0  0
    1.4814   -0.4573   -0.6505 C   0  0  0  0  0  0  0  0  0  0  0  0
    0.5680   -0.1169   -1.6642 O   0  0  0  0  0  0  0  0  0  0  0  0
    0.0914   -0.4254   -0.4490 C   0  0  0  0  0  0  0  0  0  0  0  0
   -0.7021    0.4796    0.4137 C   0  0  0  0  0  0  0  0  0  0  0  0
   -1.8772    1.1237   -0.3355 C   0  0  0  0  0  0  0  0  0  0  0  0
   -1.2219   -0.7622    1.1157 C   0  0  0  0  0  0  0  0  0  0  0  0
   -2.0056   -1.5651    0.3309 O   0  0  0  0  0  0  0  0  0  0  0  0
   -0.6998   -1.5942   -0.0682 C   0  0  0  0  0  0  0  0  0  0  0  0
    3.3939    0.3877   -0.2751 H   0  0  0  0  0  0  0  0  0  0  0  0
    2.2570    0.5885    1.0797 H   0  0  0  0  0  0  0  0  0  0  0  0
    2.0824    1.6267   -0.4079 H   0  0  0  0  0  0  0  0  0  0  0  0
    2.0000   -1.4285   -0.8928 H   0  0  0  0  0  0  0  0  0  0  0  0
   -0.1787    1.2033    1.0350 H   0  0  0  0  0  0  0  0  0  0  0  0
   -1.5260    1.8642   -1.0771 H   0  0  0  0  0  0  0  0  0  0  0  0
   -2.5276    1.6835    0.3735 H   0  0  0  0  0  0  0  0  0  0  0  0
   -2.4917    0.3151   -0.8097 H   0  0  0  0  0  0  0  0  0  0  0  0
   -0.8607   -1.0423    2.0967 H   0  0  0  0  0  0  0  0  0  0  0  0
   -0.1142   -2.5031    0.2281 H   0  0  0  0  0  0  0  0  0  0  0  0
  1  2  1  0
  2  3  1  0
  3  4  1  0
  4  5  1  0
  5  6  1  0
  5  7  1  0
  7  8  1  0
  8  9  1  0
  4  2  1  0
  9  7  1  0
  9  4  1  0
  1 10  1  0
  1 11  1  0
  1 12  1  0
  2 13  1  0
  5 14  1  0
  6 15  1  0
  6 16  1  0
  6 17  1  0
  7 18  1  0
  9 19  1  0
M  END
