
     RDKit          3D

 21 22  0  0  0  0  0  0  0  0999 V2000
    2.8269    0.3919    0.0061 C   0  0  0  0  0  0  0  0  0  0  0  0
    1.6167   -0.5181    0.0672 C   0  0  0  0  0  0  0  0  0  0  0  0
    0.8891   -0.6194    1.2292 O   0  0  0  0  0  0  0  0  0  0  0  0
    0.3113   -0.0683    0.1183 C   0  0  0  0  0  0  0  0  0  0  0  0
   -0.2861    1.2657    0.2805 C   0  0  0  0  0  0  0  0  0  0  0  0
   -1.7915    1.0050    0.3712 C   0  0  0  0  0  0  0  0  0  0  0  0
   -1.9897   -0.4581    0.1503 C   0  0  0  0  0  0  0  0  0  0  0  0
   -0.7608   -0.8376   -0.6420 C   0  0  0  0  0  0  0  0  0  0  0  0
   -0.5339   -2.1930   -0.6129 O   0  0  0  0  0  0  0  0  0  0  0  0
    2.6232    1.4052    0.3509 H   0  0  0  0  0  0  0  0  0  0  0  0
    3.1194    0.4293   -1.0816 H   0  0  0  0  0  0  0  0  0  0  0  0
    3.6516   -0.1216    0.5187 H   0  0  0  0  0  0  0  0  0  0  0  0
    1.8386   -1.5094   -0.4084 H   0  0  0  0  0  0  0  0  0  0  0  0
    0.0056    1.8036    1.2151 H   0  0  0  0  0  0  0  0  0  0  0  0
   -0.0908    1.9790   -0.5531 H   0  0  0  0  0  0  0  0  0  0  0  0
   -2.1933    1.2952    1.3524 H   0  0  0  0  0  0  0  0  0  0  0  0
   -2.3351    1.5929   -0.4001 H   0  0  0  0  0  0  0  0  0  0  0  0
   -2.8675   -0.7265   -0.4366 H   0  0  0  0  0  0  0  0  0  0  0  0
   -1.9266   -1.0427    1.1111 H   0  0  0  0  0  0  0  0  0  0  0  0
   -0.7662   -0.4324   -1.6635 H   0  0  0  0  0  0  0  0  0  0  0  0
   -1.3410   -2.6408   -0.9726 H   0  0  0  0  0  0  0  0  0  0  0  0
  1  2  1  0
  2  3  1  0
  3  4  1  0
  4  5  1  0
  5  6  1  0
  6  7  1  0
  7  8  1  0
  8  9  1  0
  4  2  1  0
  8  4  1  0
  1 10  1  0
  1 11  1  0
  1 12  1  0
  2 13  1  0
  5 14  1  0
  5 15  1  0
  6 16  1  0
  6 17  1  0
  7 18  1  0
  7 19  1  0
  8 20  1  0
  9 21  1  0
M  END
