
     RDKit          3D

 19 21  0  0  0  0  0  0  0  0999 V2000
   -2.4443    0.2230   -0.2409 C   0  0  0  0  0  0  0  0  0  0  0  0
   -1.0410    0.0131   -0.7607 C   0  0  0  0  0  0  0  0  0  0  0  0
   -0.2616    1.1547   -0.7677 O   0  0  0  0  0  0  0  0  0  0  0  0
    0.5694    0.8248    0.2808 C   0  0  0  0  0  0  0  0  0  0  0  0
    1.9815    0.3408   -0.0013 C   0  0  0  0  0  0  0  0  0  0  0  0
    1.6483   -0.9509   -0.7622 C   0  0  0  0  0  0  0  0  0  0  0  0
    0.7197   -1.5000    0.1533 O   0  0  0  0  0  0  0  0  0  0  0  0
   -0.1817   -0.4955    0.3912 C   0  0  0  0  0  0  0  0  0  0  0  0
   -0.0722    0.3290    1.5911 C   0  0  0  0  0  0  0  0  0  0  0  0
   -2.6712   -0.6498    0.4186 H   0  0  0  0  0  0  0  0  0  0  0  0
   -2.4165    1.1816    0.3422 H   0  0  0  0  0  0  0  0  0  0  0  0
   -3.1980    0.3151   -1.0162 H   0  0  0  0  0  0  0  0  0  0  0  0
   -0.9546   -0.5860   -1.6836 H   0  0  0  0  0  0  0  0  0  0  0  0
    2.4168    0.0500    0.9620 H   0  0  0  0  0  0  0  0  0  0  0  0
    2.5695    1.0348   -0.5985 H   0  0  0  0  0  0  0  0  0  0  0  0
    2.4968   -1.6178   -0.8476 H   0  0  0  0  0  0  0  0  0  0  0  0
    1.0849   -0.7520   -1.6770 H   0  0  0  0  0  0  0  0  0  0  0  0
    0.6880    0.0956    2.3477 H   0  0  0  0  0  0  0  0  0  0  0  0
   -0.9340    0.9894    1.8688 H   0  0  0  0  0  0  0  0  0  0  0  0
  1  2  1  0
  2  3  1  0
  3  4  1  0
  4  5  1  0
  5  6  1  0
  6  7  1  0
  7  8  1  0
  8  9  1  0
  8  2  1  0
  8  4  1  0
  9  4  1  0
  1 10  1  0
  1 11  1  0
  1 12  1  0
  2 13  1  0
  5 14  1  0
  5 15  1  0
  6 16  1  0
  6 17  1  0
  9 18  1  0
  9 19  1  0
M  END
