
     RDKit          3D

 18 19  0  0  0  0  0  0  0  0999 V2000
    2.9339    0.2332    0.2394 C   0  0  0  0  0  0  0  0  0  0  0  0
    1.5609   -0.2552   -0.0920 C   0  0  0  0  0  0  0  0  0  0  0  0
    0.8495    0.6319   -0.9029 O   0  0  0  0  0  0  0  0  0  0  0  0
   -0.4381    0.0839   -0.8280 C   0  0  0  0  0  0  0  0  0  0  0  0
   -1.3581    0.6705    0.1698 C   0  0  0  0  0  0  0  0  0  0  0  0
   -2.8298    0.3337   -0.0466 C   0  0  0  0  0  0  0  0  0  0  0  0
   -0.5190   -0.4670    0.5984 C   0  0  0  0  0  0  0  0  0  0  0  0
    0.7753   -0.2930    1.0517 O   0  0  0  0  0  0  0  0  0  0  0  0
    3.0055    0.6727    1.2668 H   0  0  0  0  0  0  0  0  0  0  0  0
    3.6018   -0.6757    0.2715 H   0  0  0  0  0  0  0  0  0  0  0  0
    3.2954    0.9625   -0.5181 H   0  0  0  0  0  0  0  0  0  0  0  0
    1.5674   -1.2296   -0.6384 H   0  0  0  0  0  0  0  0  0  0  0  0
   -0.7662   -0.6081   -1.6136 H   0  0  0  0  0  0  0  0  0  0  0  0
   -1.0934    1.6531    0.6014 H   0  0  0  0  0  0  0  0  0  0  0  0
   -3.1875   -0.3942    0.7195 H   0  0  0  0  0  0  0  0  0  0  0  0
   -3.4457    1.2479    0.0197 H   0  0  0  0  0  0  0  0  0  0  0  0
   -2.9919   -0.1244   -1.0612 H   0  0  0  0  0  0  0  0  0  0  0  0
   -0.9600   -1.4567    0.7627 H   0  0  0  0  0  0  0  0  0  0  0  0
  1  2  1  0
  2  3  1  0
  3  4  1  0
  4  5  1  0
  5  6  1  0
  5  7  1  0
  7  8  1  0
  8  2  1  0
  7  4  1  0
  1  9  1  0
  1 10  1  0
  1 11  1  0
  2 12  1  0
  4 13  1  0
  5 14  1  0
  6 15  1  0
  6 16  1  0
  6 17  1  0
  7 18  1  0
M  END
