
     RDKit          3D

 19 20  0  0  0  0  0  0  0  0999 V2000
    2.9025   -0.3870    0.5383 C   0  0  0  0  0  0  0  0  0  0  0  0
    1.5679    0.2906    0.6269 C   0  0  0  0  0  0  0  0  0  0  0  0
    1.2930    0.9315   -0.6892 O   0  0  0  0  0  0  0  0  0  0  0  0
    0.4761   -0.1771   -0.1318 C   0  0  0  0  0  0  0  0  0  0  0  0
   -0.9402    0.2453   -0.0395 C   0  0  0  0  0  0  0  0  0  0  0  0
   -1.9590   -0.8430   -0.2957 C   0  0  0  0  0  0  0  0  0  0  0  0
   -2.3683   -1.3897    0.9186 O   0  0  0  0  0  0  0  0  0  0  0  0
   -1.2988    1.5913   -0.6139 C   0  0  0  0  0  0  0  0  0  0  0  0
   -1.3090    1.3408    0.7297 O   0  0  0  0  0  0  0  0  0  0  0  0
    3.6102    0.3270    0.0410 H   0  0  0  0  0  0  0  0  0  0  0  0
    2.8639   -1.2700   -0.1587 H   0  0  0  0  0  0  0  0  0  0  0  0
    3.3088   -0.7013    1.5006 H   0  0  0  0  0  0  0  0  0  0  0  0
    1.4723    1.0054    1.4567 H   0  0  0  0  0  0  0  0  0  0  0  0
    0.6431   -1.0738   -0.8014 H   0  0  0  0  0  0  0  0  0  0  0  0
   -2.7940   -0.4046   -0.8636 H   0  0  0  0  0  0  0  0  0  0  0  0
   -1.4693   -1.6400   -0.8874 H   0  0  0  0  0  0  0  0  0  0  0  0
   -3.2731   -1.7760    0.7867 H   0  0  0  0  0  0  0  0  0  0  0  0
   -2.2395    1.6906   -1.1899 H   0  0  0  0  0  0  0  0  0  0  0  0
   -0.4865    2.2399   -1.0225 H   0  0  0  0  0  0  0  0  0  0  0  0
  1  2  1  0
  2  3  1  0
  3  4  1  0
  4  5  1  0
  5  6  1  0
  6  7  1  0
  5  8  1  0
  8  9  1  0
  4  2  1  0
  9  5  1  0
  1 10  1  0
  1 11  1  0
  1 12  1  0
  2 13  1  0
  4 14  1  0
  6 15  1  0
  6 16  1  0
  7 17  1  0
  8 18  1  0
  8 19  1  0
M  END
