
     RDKit          3D

 23 24  0  0  0  0  0  0  0  0999 V2000
    2.2776   -0.0187    0.7105 C   0  0  0  0  0  0  0  0  0  0  0  0
    1.0230   -0.4929    0.0561 C   0  0  0  0  0  0  0  0  0  0  0  0
    0.1353   -0.9444    1.0165 O   0  0  0  0  0  0  0  0  0  0  0  0
   -1.0991   -0.9676    0.3975 C   0  0  0  0  0  0  0  0  0  0  0  0
   -1.2635   -2.0932   -0.5692 C   0  0  0  0  0  0  0  0  0  0  0  0
   -1.1318    0.3483   -0.3312 C   0  0  0  0  0  0  0  0  0  0  0  0
   -1.0249    1.5789    0.5085 C   0  0  0  0  0  0  0  0  0  0  0  0
    0.2973    1.9426   -0.1559 C   0  0  0  0  0  0  0  0  0  0  0  0
    0.3184    0.5656   -0.7499 C   0  0  0  0  0  0  0  0  0  0  0  0
    2.7799    0.8131    0.1844 H   0  0  0  0  0  0  0  0  0  0  0  0
    2.1039    0.1846    1.7878 H   0  0  0  0  0  0  0  0  0  0  0  0
    3.0246   -0.8656    0.6969 H   0  0  0  0  0  0  0  0  0  0  0  0
    1.2816   -1.3165   -0.6606 H   0  0  0  0  0  0  0  0  0  0  0  0
   -1.9456   -0.9898    1.1017 H   0  0  0  0  0  0  0  0  0  0  0  0
   -1.7714   -1.7331   -1.4903 H   0  0  0  0  0  0  0  0  0  0  0  0
   -1.8834   -2.9263   -0.1247 H   0  0  0  0  0  0  0  0  0  0  0  0
   -0.3086   -2.5805   -0.8618 H   0  0  0  0  0  0  0  0  0  0  0  0
   -1.8606    0.3577   -1.1545 H   0  0  0  0  0  0  0  0  0  0  0  0
   -1.8084    2.3069    0.2305 H   0  0  0  0  0  0  0  0  0  0  0  0
   -0.9621    1.4257    1.5941 H   0  0  0  0  0  0  0  0  0  0  0  0
    1.1343    2.1210    0.5538 H   0  0  0  0  0  0  0  0  0  0  0  0
    0.2270    2.7626   -0.9016 H   0  0  0  0  0  0  0  0  0  0  0  0
    0.4565    0.5213   -1.8385 H   0  0  0  0  0  0  0  0  0  0  0  0
  1  2  1  0
  2  3  1  0
  3  4  1  0
  4  5  1  0
  4  6  1  0
  6  7  1  0
  7  8  1  0
  8  9  1  0
  9  2  1  0
  9  6  1  0
  1 10  1  0
  1 11  1  0
  1 12  1  0
  2 13  1  0
  4 14  1  0
  5 15  1  0
  5 16  1  0
  5 17  1  0
  6 18  1  0
  7 19  1  0
  7 20  1  0
  8 21  1  0
  8 22  1  0
  9 23  1  0
M  END
