
     RDKit          3D

 21 22  0  0  0  0  0  0  0  0999 V2000
   -1.5139    1.6460   -0.1692 C   0  0  0  0  0  0  0  0  0  0  0  0
   -0.3179    0.7847   -0.2643 C   0  0  0  0  0  0  0  0  0  0  0  0
    0.6100    1.2096    0.7137 O   0  0  0  0  0  0  0  0  0  0  0  0
    1.8661    0.8499    0.2342 C   0  0  0  0  0  0  0  0  0  0  0  0
    1.9888   -0.6128   -0.0369 C   0  0  0  0  0  0  0  0  0  0  0  0
    0.7194   -1.3823    0.1159 C   0  0  0  0  0  0  0  0  0  0  0  0
    0.0454   -1.5100   -1.1824 O   0  0  0  0  0  0  0  0  0  0  0  0
   -0.5221   -0.6655   -0.1185 C   0  0  0  0  0  0  0  0  0  0  0  0
   -1.7932   -1.2758    0.3717 C   0  0  0  0  0  0  0  0  0  0  0  0
   -1.1738    2.6689    0.1709 H   0  0  0  0  0  0  0  0  0  0  0  0
   -2.2869    1.3390    0.5335 H   0  0  0  0  0  0  0  0  0  0  0  0
   -1.9339    1.8428   -1.1999 H   0  0  0  0  0  0  0  0  0  0  0  0
    0.1768    0.9896   -1.2572 H   0  0  0  0  0  0  0  0  0  0  0  0
    2.6061    1.2091    1.0007 H   0  0  0  0  0  0  0  0  0  0  0  0
    2.0151    1.4515   -0.7074 H   0  0  0  0  0  0  0  0  0  0  0  0
    2.4421   -0.7475   -1.0503 H   0  0  0  0  0  0  0  0  0  0  0  0
    2.7412   -1.0237    0.6783 H   0  0  0  0  0  0  0  0  0  0  0  0
    0.7110   -2.3052    0.7189 H   0  0  0  0  0  0  0  0  0  0  0  0
   -2.3973   -0.6413    1.0086 H   0  0  0  0  0  0  0  0  0  0  0  0
   -1.5719   -2.2100    0.9428 H   0  0  0  0  0  0  0  0  0  0  0  0
   -2.4110   -1.6169   -0.5029 H   0  0  0  0  0  0  0  0  0  0  0  0
  1  2  1  0
  2  3  1  0
  3  4  1  0
  4  5  1  0
  5  6  1  0
  6  7  1  0
  7  8  1  0
  8  9  1  0
  8  2  1  0
  8  6  1  0
  1 10  1  0
  1 11  1  0
  1 12  1  0
  2 13  1  0
  4 14  1  0
  4 15  1  0
  5 16  1  0
  5 17  1  0
  6 18  1  0
  9 19  1  0
  9 20  1  0
  9 21  1  0
M  END
