
     RDKit          3D

 20 21  0  0  0  0  0  0  0  0999 V2000
    3.1118   -0.1744   -0.5037 C   0  0  0  0  0  0  0  0  0  0  0  0
    1.6181   -0.4136   -0.2982 C   0  0  0  0  0  0  0  0  0  0  0  0
    0.7615    0.2759   -1.2350 O   0  0  0  0  0  0  0  0  0  0  0  0
    0.7900    0.7221    0.0592 C   0  0  0  0  0  0  0  0  0  0  0  0
   -0.3615    0.4833    0.9966 C   0  0  0  0  0  0  0  0  0  0  0  0
   -1.3631   -0.4974    0.4841 C   0  0  0  0  0  0  0  0  0  0  0  0
   -2.0838   -0.2209   -0.8059 C   0  0  0  0  0  0  0  0  0  0  0  0
   -2.8018    0.0014    0.4651 C   0  0  0  0  0  0  0  0  0  0  0  0
    3.4561    0.7217    0.0744 H   0  0  0  0  0  0  0  0  0  0  0  0
    3.3591    0.0248   -1.5607 H   0  0  0  0  0  0  0  0  0  0  0  0
    3.6914   -1.0573   -0.1681 H   0  0  0  0  0  0  0  0  0  0  0  0
    1.3206   -1.4608   -0.2193 H   0  0  0  0  0  0  0  0  0  0  0  0
    1.2961    1.6977    0.2090 H   0  0  0  0  0  0  0  0  0  0  0  0
    0.0679    0.0860    1.9437 H   0  0  0  0  0  0  0  0  0  0  0  0
   -0.8320    1.4420    1.2429 H   0  0  0  0  0  0  0  0  0  0  0  0
   -1.2656   -1.5397    0.8479 H   0  0  0  0  0  0  0  0  0  0  0  0
   -1.7639    0.6980   -1.3408 H   0  0  0  0  0  0  0  0  0  0  0  0
   -2.3729   -1.0985   -1.4254 H   0  0  0  0  0  0  0  0  0  0  0  0
   -3.6083   -0.7190    0.6998 H   0  0  0  0  0  0  0  0  0  0  0  0
   -3.0197    1.0288    0.7926 H   0  0  0  0  0  0  0  0  0  0  0  0
  1  2  1  0
  2  3  1  0
  3  4  1  0
  4  5  1  0
  5  6  1  0
  6  7  1  0
  7  8  1  0
  4  2  1  0
  8  6  1  0
  1  9  1  0
  1 10  1  0
  1 11  1  0
  2 12  1  0
  4 13  1  0
  5 14  1  0
  5 15  1  0
  6 16  1  0
  7 17  1  0
  7 18  1  0
  8 19  1  0
  8 20  1  0
M  END
