
     RDKit          3D

 21 23  0  0  0  0  0  0  0  0999 V2000
    2.5700   -0.4089   -0.7256 C   0  0  0  0  0  0  0  0  0  0  0  0
    1.1199   -0.1106   -0.9766 C   0  0  0  0  0  0  0  0  0  0  0  0
    0.3009   -1.1997   -1.2055 O   0  0  0  0  0  0  0  0  0  0  0  0
   -0.4740   -0.9750   -0.0856 C   0  0  0  0  0  0  0  0  0  0  0  0
   -1.8799   -0.4785   -0.2023 C   0  0  0  0  0  0  0  0  0  0  0  0
   -1.9077    0.9294    0.3329 C   0  0  0  0  0  0  0  0  0  0  0  0
   -0.4744    1.3834    0.3735 C   0  0  0  0  0  0  0  0  0  0  0  0
    0.3954    0.1716    0.3123 C   0  0  0  0  0  0  0  0  0  0  0  0
    0.1650   -0.9420    1.2502 C   0  0  0  0  0  0  0  0  0  0  0  0
    3.0024    0.4388   -0.1372 H   0  0  0  0  0  0  0  0  0  0  0  0
    3.1565   -0.4572   -1.6719 H   0  0  0  0  0  0  0  0  0  0  0  0
    2.6741   -1.3815   -0.2182 H   0  0  0  0  0  0  0  0  0  0  0  0
    0.9759    0.6476   -1.7673 H   0  0  0  0  0  0  0  0  0  0  0  0
   -2.5087   -1.0954    0.4927 H   0  0  0  0  0  0  0  0  0  0  0  0
   -2.3137   -0.5884   -1.2002 H   0  0  0  0  0  0  0  0  0  0  0  0
   -2.2773    0.9600    1.3952 H   0  0  0  0  0  0  0  0  0  0  0  0
   -2.5564    1.5615   -0.2885 H   0  0  0  0  0  0  0  0  0  0  0  0
   -0.2234    2.0443   -0.4944 H   0  0  0  0  0  0  0  0  0  0  0  0
   -0.2262    1.9346    1.3177 H   0  0  0  0  0  0  0  0  0  0  0  0
    0.9841   -1.6970    1.3858 H   0  0  0  0  0  0  0  0  0  0  0  0
   -0.5026   -0.7369    2.1131 H   0  0  0  0  0  0  0  0  0  0  0  0
  1  2  1  0
  2  3  1  0
  3  4  1  0
  4  5  1  0
  5  6  1  0
  6  7  1  0
  7  8  1  0
  8  9  1  0
  8  2  1  0
  8  4  1  0
  9  4  1  0
  1 10  1  0
  1 11  1  0
  1 12  1  0
  2 13  1  0
  5 14  1  0
  5 15  1  0
  6 16  1  0
  6 17  1  0
  7 18  1  0
  7 19  1  0
  9 20  1  0
  9 21  1  0
M  END
