
     RDKit          3D

 17 18  0  0  0  0  0  0  0  0999 V2000
   -1.4215   -1.3987   -0.0054 C   0  0  0  0  0  0  0  0  0  0  0  0
   -0.8057   -0.0902    0.4191 C   0  0  0  0  0  0  0  0  0  0  0  0
   -1.6542    0.9718    0.0065 O   0  0  0  0  0  0  0  0  0  0  0  0
   -0.9298    1.8574   -0.8144 C   0  0  0  0  0  0  0  0  0  0  0  0
   -1.2562    3.0365   -1.1461 O   0  0  0  0  0  0  0  0  0  0  0  0
    0.2370    1.2153   -1.2170 O   0  0  0  0  0  0  0  0  0  0  0  0
    0.4797    0.2214   -0.2437 C   0  0  0  0  0  0  0  0  0  0  0  0
    1.6475   -0.6401   -0.2765 C   0  0  0  0  0  0  0  0  0  0  0  0
    1.6392    0.5362    0.7474 C   0  0  0  0  0  0  0  0  0  0  0  0
   -2.5337   -1.2823    0.1501 H   0  0  0  0  0  0  0  0  0  0  0  0
   -1.2935   -1.6190   -1.0709 H   0  0  0  0  0  0  0  0  0  0  0  0
   -1.1161   -2.2299    0.6433 H   0  0  0  0  0  0  0  0  0  0  0  0
   -0.7855   -0.0594    1.5239 H   0  0  0  0  0  0  0  0  0  0  0  0
    2.3692   -0.4864   -1.1285 H   0  0  0  0  0  0  0  0  0  0  0  0
    1.6541   -1.6490    0.1281 H   0  0  0  0  0  0  0  0  0  0  0  0
    1.4919    0.2254    1.7835 H   0  0  0  0  0  0  0  0  0  0  0  0
    2.2777    1.3909    0.5006 H   0  0  0  0  0  0  0  0  0  0  0  0
  1  2  1  0
  2  3  1  0
  3  4  1  0
  4  5  2  0
  4  6  1  0
  6  7  1  0
  7  8  1  0
  8  9  1  0
  7  2  1  0
  9  7  1  0
  1 10  1  0
  1 11  1  0
  1 12  1  0
  2 13  1  0
  8 14  1  0
  8 15  1  0
  9 16  1  0
  9 17  1  0
M  END
