
     RDKit          3D

 21 22  0  0  0  0  0  0  0  0999 V2000
    3.4942   -0.0216    0.5598 C   0  0  0  0  0  0  0  0  0  0  0  0
    2.0438   -0.3408    0.2278 C   0  0  0  0  0  0  0  0  0  0  0  0
    1.1368   -0.1384    1.3955 O   0  0  0  0  0  0  0  0  0  0  0  0
    1.1012    0.7537    0.2014 C   0  0  0  0  0  0  0  0  0  0  0  0
   -0.2142    0.7159   -0.5018 C   0  0  0  0  0  0  0  0  0  0  0  0
   -1.1257   -0.3871    0.0220 C   0  0  0  0  0  0  0  0  0  0  0  0
   -2.4410   -0.3816   -0.7217 C   0  0  0  0  0  0  0  0  0  0  0  0
   -3.0668   -0.2540    0.6547 C   0  0  0  0  0  0  0  0  0  0  0  0
   -1.7837   -0.0832    1.1963 O   0  0  0  0  0  0  0  0  0  0  0  0
    3.9963    0.2972   -0.3719 H   0  0  0  0  0  0  0  0  0  0  0  0
    3.4986    0.8574    1.2376 H   0  0  0  0  0  0  0  0  0  0  0  0
    4.0080   -0.9014    1.0070 H   0  0  0  0  0  0  0  0  0  0  0  0
    1.8635   -1.3359   -0.1673 H   0  0  0  0  0  0  0  0  0  0  0  0
    1.4834    1.7694    0.4451 H   0  0  0  0  0  0  0  0  0  0  0  0
   -0.7418    1.6882   -0.4041 H   0  0  0  0  0  0  0  0  0  0  0  0
   -0.0396    0.4557   -1.5858 H   0  0  0  0  0  0  0  0  0  0  0  0
   -0.6005   -1.3743    0.0169 H   0  0  0  0  0  0  0  0  0  0  0  0
   -2.7074   -1.3592   -1.1747 H   0  0  0  0  0  0  0  0  0  0  0  0
   -2.6540    0.5133   -1.3088 H   0  0  0  0  0  0  0  0  0  0  0  0
   -3.6493    0.6834    0.8085 H   0  0  0  0  0  0  0  0  0  0  0  0
   -3.6016   -1.1567    1.0080 H   0  0  0  0  0  0  0  0  0  0  0  0
  1  2  1  0
  2  3  1  0
  3  4  1  0
  4  5  1  0
  5  6  1  0
  6  7  1  0
  7  8  1  0
  8  9  1  0
  4  2  1  0
  9  6  1  0
  1 10  1  0
  1 11  1  0
  1 12  1  0
  2 13  1  0
  4 14  1  0
  5 15  1  0
  5 16  1  0
  6 17  1  0
  7 18  1  0
  7 19  1  0
  8 20  1  0
  8 21  1  0
M  END
