
     RDKit          3D

 21 22  0  0  0  0  0  0  0  0999 V2000
    2.5284   -0.2905   -0.1502 C   0  0  0  0  0  0  0  0  0  0  0  0
    1.0889   -0.3674    0.2259 C   0  0  0  0  0  0  0  0  0  0  0  0
    0.2295   -0.4684   -0.8553 O   0  0  0  0  0  0  0  0  0  0  0  0
   -1.0333   -0.2763   -0.3418 C   0  0  0  0  0  0  0  0  0  0  0  0
   -1.7545   -1.5544    0.0243 C   0  0  0  0  0  0  0  0  0  0  0  0
   -1.7092    1.0229   -0.3683 C   0  0  0  0  0  0  0  0  0  0  0  0
   -0.9026    0.7068    0.8123 C   0  0  0  0  0  0  0  0  0  0  0  0
    0.5809    0.9310    0.8632 C   0  0  0  0  0  0  0  0  0  0  0  0
    0.8827    1.9466   -0.0430 O   0  0  0  0  0  0  0  0  0  0  0  0
    3.1325   -0.3813    0.7727 H   0  0  0  0  0  0  0  0  0  0  0  0
    2.7859    0.6586   -0.6698 H   0  0  0  0  0  0  0  0  0  0  0  0
    2.7758   -1.1322   -0.7954 H   0  0  0  0  0  0  0  0  0  0  0  0
    0.9135   -1.1616    0.9549 H   0  0  0  0  0  0  0  0  0  0  0  0
   -1.0609   -2.1014    0.7285 H   0  0  0  0  0  0  0  0  0  0  0  0
   -2.7277   -1.3690    0.5237 H   0  0  0  0  0  0  0  0  0  0  0  0
   -1.9087   -2.1740   -0.8762 H   0  0  0  0  0  0  0  0  0  0  0  0
   -2.7989    1.0390   -0.2426 H   0  0  0  0  0  0  0  0  0  0  0  0
   -1.3235    1.8106   -1.0462 H   0  0  0  0  0  0  0  0  0  0  0  0
   -1.3907    0.4615    1.7808 H   0  0  0  0  0  0  0  0  0  0  0  0
    0.9850    1.0904    1.8609 H   0  0  0  0  0  0  0  0  0  0  0  0
    0.7069    1.6092   -0.9561 H   0  0  0  0  0  0  0  0  0  0  0  0
  1  2  1  0
  2  3  1  0
  3  4  1  0
  4  5  1  0
  4  6  1  0
  6  7  1  0
  7  8  1  0
  8  9  1  0
  8  2  1  0
  7  4  1  0
  1 10  1  0
  1 11  1  0
  1 12  1  0
  2 13  1  0
  5 14  1  0
  5 15  1  0
  5 16  1  0
  6 17  1  0
  6 18  1  0
  7 19  1  0
  8 20  1  0
  9 21  1  0
M  END
