
     RDKit          3D

 19 20  0  0  0  0  0  0  0  0999 V2000
    2.4875    0.7037    0.1115 C   0  0  0  0  0  0  0  0  0  0  0  0
    1.1402    0.1340    0.5833 C   0  0  0  0  0  0  0  0  0  0  0  0
    1.0244   -1.1160    0.0825 O   0  0  0  0  0  0  0  0  0  0  0  0
   -0.2292   -1.6410   -0.0110 C   0  0  0  0  0  0  0  0  0  0  0  0
   -1.0926   -0.6826   -0.7922 C   0  0  0  0  0  0  0  0  0  0  0  0
   -2.3752   -0.5707   -0.3009 O   0  0  0  0  0  0  0  0  0  0  0  0
   -2.1407    0.6359    0.3145 C   0  0  0  0  0  0  0  0  0  0  0  0
   -0.8354    0.7387   -0.4896 C   0  0  0  0  0  0  0  0  0  0  0  0
    0.1941    1.0446    0.3066 O   0  0  0  0  0  0  0  0  0  0  0  0
    2.5390    1.7200    0.5623 H   0  0  0  0  0  0  0  0  0  0  0  0
    3.3219    0.0545    0.3548 H   0  0  0  0  0  0  0  0  0  0  0  0
    2.3464    0.8785   -0.9866 H   0  0  0  0  0  0  0  0  0  0  0  0
    1.2532    0.0672    1.7061 H   0  0  0  0  0  0  0  0  0  0  0  0
   -0.6861   -1.9473    0.9419 H   0  0  0  0  0  0  0  0  0  0  0  0
   -0.1553   -2.5790   -0.6325 H   0  0  0  0  0  0  0  0  0  0  0  0
   -1.0949   -0.8987   -1.8925 H   0  0  0  0  0  0  0  0  0  0  0  0
   -1.9512    0.5357    1.4113 H   0  0  0  0  0  0  0  0  0  0  0  0
   -2.8106    1.4691    0.0791 H   0  0  0  0  0  0  0  0  0  0  0  0
   -0.9354    1.4536   -1.3488 H   0  0  0  0  0  0  0  0  0  0  0  0
  1  2  1  0
  2  3  1  0
  3  4  1  0
  4  5  1  0
  5  6  1  0
  6  7  1  0
  7  8  1  0
  8  9  1  0
  9  2  1  0
  8  5  1  0
  1 10  1  0
  1 11  1  0
  1 12  1  0
  2 13  1  0
  4 14  1  0
  4 15  1  0
  5 16  1  0
  7 17  1  0
  7 18  1  0
  8 19  1  0
M  END
