
     RDKit          3D

 21 21  0  0  0  0  0  0  0  0999 V2000
   -1.8874   -1.3487    0.3625 C   0  0  0  0  0  0  0  0  0  0  0  0
   -0.8420   -0.6317   -0.4599 C   0  0  0  0  0  0  0  0  0  0  0  0
   -1.4573    0.4429   -1.0734 O   0  0  0  0  0  0  0  0  0  0  0  0
   -0.5674    1.4949   -1.0952 C   0  0  0  0  0  0  0  0  0  0  0  0
    0.1801    1.4080    0.2318 C   0  0  0  0  0  0  0  0  0  0  0  0
    0.2847   -0.1065    0.3759 C   0  0  0  0  0  0  0  0  0  0  0  0
    0.1869   -0.4057    1.7134 O   0  0  0  0  0  0  0  0  0  0  0  0
    1.5881   -0.5227   -0.2481 C   0  0  0  0  0  0  0  0  0  0  0  0
    2.6612    0.0979    0.3636 O   0  0  0  0  0  0  0  0  0  0  0  0
   -2.6246   -0.6051    0.7552 H   0  0  0  0  0  0  0  0  0  0  0  0
   -1.4526   -1.9766    1.1585 H   0  0  0  0  0  0  0  0  0  0  0  0
   -2.4492   -2.0028   -0.3521 H   0  0  0  0  0  0  0  0  0  0  0  0
   -0.4780   -1.3066   -1.2780 H   0  0  0  0  0  0  0  0  0  0  0  0
    0.1998    1.4026   -1.8835 H   0  0  0  0  0  0  0  0  0  0  0  0
   -1.1132    2.4394   -1.1432 H   0  0  0  0  0  0  0  0  0  0  0  0
    1.1804    1.8634    0.1806 H   0  0  0  0  0  0  0  0  0  0  0  0
   -0.4167    1.8391    1.0674 H   0  0  0  0  0  0  0  0  0  0  0  0
    0.5305    0.3710    2.2475 H   0  0  0  0  0  0  0  0  0  0  0  0
    1.5389   -0.2198   -1.3239 H   0  0  0  0  0  0  0  0  0  0  0  0
    1.6417   -1.6227   -0.2462 H   0  0  0  0  0  0  0  0  0  0  0  0
    3.2963   -0.6101    0.6472 H   0  0  0  0  0  0  0  0  0  0  0  0
  1  2  1  0
  2  3  1  0
  3  4  1  0
  4  5  1  0
  5  6  1  0
  6  7  1  0
  6  8  1  0
  8  9  1  0
  6  2  1  0
  1 10  1  0
  1 11  1  0
  1 12  1  0
  2 13  1  0
  4 14  1  0
  4 15  1  0
  5 16  1  0
  5 17  1  0
  7 18  1  0
  8 19  1  0
  8 20  1  0
  9 21  1  0
M  END
