
     RDKit          3D

 18 20  0  0  0  0  0  0  0  0999 V2000
    2.1043    0.6242   -0.3979 C   0  0  0  0  0  0  0  0  0  0  0  0
    1.0682   -0.2639    0.2194 C   0  0  0  0  0  0  0  0  0  0  0  0
    0.5156    0.2479    1.3716 O   0  0  0  0  0  0  0  0  0  0  0  0
   -0.7781   -0.2728    1.4970 C   0  0  0  0  0  0  0  0  0  0  0  0
   -1.7102    0.2494    0.4295 C   0  0  0  0  0  0  0  0  0  0  0  0
   -1.0280    0.7067   -0.8221 C   0  0  0  0  0  0  0  0  0  0  0  0
   -0.1097   -0.5060   -0.7013 C   0  0  0  0  0  0  0  0  0  0  0  0
   -1.0874   -1.0545    0.3061 C   0  0  0  0  0  0  0  0  0  0  0  0
    2.9277    0.7345    0.3353 H   0  0  0  0  0  0  0  0  0  0  0  0
    1.7288    1.5953   -0.7426 H   0  0  0  0  0  0  0  0  0  0  0  0
    2.5518    0.0460   -1.2557 H   0  0  0  0  0  0  0  0  0  0  0  0
    1.5337   -1.2251    0.4651 H   0  0  0  0  0  0  0  0  0  0  0  0
   -1.2352   -0.4010    2.4738 H   0  0  0  0  0  0  0  0  0  0  0  0
   -2.7788    0.3020    0.5754 H   0  0  0  0  0  0  0  0  0  0  0  0
   -0.5196    1.6795   -0.7016 H   0  0  0  0  0  0  0  0  0  0  0  0
   -1.7095    0.6259   -1.6874 H   0  0  0  0  0  0  0  0  0  0  0  0
    0.0660   -1.0742   -1.6022 H   0  0  0  0  0  0  0  0  0  0  0  0
   -1.5395   -2.0139    0.2377 H   0  0  0  0  0  0  0  0  0  0  0  0
  1  2  1  0
  2  3  1  0
  3  4  1  0
  4  5  1  0
  5  6  1  0
  6  7  1  0
  7  8  1  0
  7  2  1  0
  8  4  1  0
  8  5  1  0
  1  9  1  0
  1 10  1  0
  1 11  1  0
  2 12  1  0
  4 13  1  0
  5 14  1  0
  6 15  1  0
  6 16  1  0
  7 17  1  0
  8 18  1  0
M  END
