
     RDKit          3D

 21 22  0  0  0  0  0  0  0  0999 V2000
    2.0516    0.2693    0.7260 C   0  0  0  0  0  0  0  0  0  0  0  0
    1.0418   -0.1716   -0.2672 C   0  0  0  0  0  0  0  0  0  0  0  0
    0.7347   -1.5259   -0.2117 O   0  0  0  0  0  0  0  0  0  0  0  0
   -0.6313   -1.6581   -0.1760 C   0  0  0  0  0  0  0  0  0  0  0  0
   -1.0979   -1.1340    1.1759 C   0  0  0  0  0  0  0  0  0  0  0  0
   -0.7739    0.2224    1.1427 O   0  0  0  0  0  0  0  0  0  0  0  0
   -0.3048    0.5229   -0.1086 C   0  0  0  0  0  0  0  0  0  0  0  0
   -0.3523    1.9110   -0.5400 C   0  0  0  0  0  0  0  0  0  0  0  0
   -1.0952   -0.4483   -1.0115 C   0  0  0  0  0  0  0  0  0  0  0  0
    1.6385    1.0745    1.3961 H   0  0  0  0  0  0  0  0  0  0  0  0
    2.9252    0.7611    0.2060 H   0  0  0  0  0  0  0  0  0  0  0  0
    2.4563   -0.5585    1.3066 H   0  0  0  0  0  0  0  0  0  0  0  0
    1.4329    0.0070   -1.3116 H   0  0  0  0  0  0  0  0  0  0  0  0
   -1.0509   -2.5838   -0.4844 H   0  0  0  0  0  0  0  0  0  0  0  0
   -2.2222   -1.1810    1.1336 H   0  0  0  0  0  0  0  0  0  0  0  0
   -0.6744   -1.6698    2.0185 H   0  0  0  0  0  0  0  0  0  0  0  0
    0.6026    2.3420   -0.9094 H   0  0  0  0  0  0  0  0  0  0  0  0
   -1.0756    2.0152   -1.3941 H   0  0  0  0  0  0  0  0  0  0  0  0
   -0.7674    2.5832    0.2628 H   0  0  0  0  0  0  0  0  0  0  0  0
   -0.6709   -0.4897   -2.0134 H   0  0  0  0  0  0  0  0  0  0  0  0
   -2.1667   -0.2883   -0.9402 H   0  0  0  0  0  0  0  0  0  0  0  0
  1  2  1  0
  2  3  1  0
  3  4  1  0
  4  5  1  0
  5  6  1  0
  6  7  1  0
  7  8  1  0
  7  9  1  0
  7  2  1  0
  9  4  1  0
  1 10  1  0
  1 11  1  0
  1 12  1  0
  2 13  1  0
  4 14  1  0
  5 15  1  0
  5 16  1  0
  8 17  1  0
  8 18  1  0
  8 19  1  0
  9 20  1  0
  9 21  1  0
M  END
