
     RDKit          3D

 19 20  0  0  0  0  0  0  0  0999 V2000
    1.7912    1.1345   -0.3943 C   0  0  0  0  0  0  0  0  0  0  0  0
    0.8146   -0.0166   -0.5441 C   0  0  0  0  0  0  0  0  0  0  0  0
    1.0809   -1.0497    0.2976 O   0  0  0  0  0  0  0  0  0  0  0  0
   -0.0622   -1.6549    0.7048 C   0  0  0  0  0  0  0  0  0  0  0  0
   -1.2261   -1.9365   -0.1218 C   0  0  0  0  0  0  0  0  0  0  0  0
   -1.1504   -0.6096    0.5667 C   0  0  0  0  0  0  0  0  0  0  0  0
   -0.5663    0.4917   -0.2812 C   0  0  0  0  0  0  0  0  0  0  0  0
   -0.6320    1.7945    0.3716 C   0  0  0  0  0  0  0  0  0  0  0  0
   -0.2291    2.7756   -0.2357 O   0  0  0  0  0  0  0  0  0  0  0  0
    2.8299    0.7478   -0.4050 H   0  0  0  0  0  0  0  0  0  0  0  0
    1.6590    1.6566    0.5692 H   0  0  0  0  0  0  0  0  0  0  0  0
    1.7083    1.8180   -1.2675 H   0  0  0  0  0  0  0  0  0  0  0  0
    0.9472   -0.3912   -1.5977 H   0  0  0  0  0  0  0  0  0  0  0  0
    0.0266   -2.2006    1.6893 H   0  0  0  0  0  0  0  0  0  0  0  0
   -1.9888   -2.6199    0.2918 H   0  0  0  0  0  0  0  0  0  0  0  0
   -1.1905   -1.9414   -1.2399 H   0  0  0  0  0  0  0  0  0  0  0  0
   -1.6807   -0.3977    1.4911 H   0  0  0  0  0  0  0  0  0  0  0  0
   -1.0937    0.5467   -1.2739 H   0  0  0  0  0  0  0  0  0  0  0  0
   -1.0376    1.8526    1.3790 H   0  0  0  0  0  0  0  0  0  0  0  0
  1  2  1  0
  2  3  1  0
  3  4  1  0
  4  5  1  0
  5  6  1  0
  6  7  1  0
  7  8  1  0
  8  9  2  0
  7  2  1  0
  6  4  1  0
  1 10  1  0
  1 11  1  0
  1 12  1  0
  2 13  1  0
  4 14  1  0
  5 15  1  0
  5 16  1  0
  6 17  1  0
  7 18  1  0
  8 19  1  0
M  END
