
     RDKit          3D

 18 18  0  0  0  0  0  0  0  0999 V2000
    1.9270    0.6331    0.3991 C   0  0  0  0  0  0  0  0  0  0  0  0
    1.1255    0.3733   -0.8378 C   0  0  0  0  0  0  0  0  0  0  0  0
    1.4940   -0.9195   -1.4062 O   0  0  0  0  0  0  0  0  0  0  0  0
    0.1935   -0.6585   -1.0554 C   0  0  0  0  0  0  0  0  0  0  0  0
   -0.4439   -1.3658    0.1302 C   0  0  0  0  0  0  0  0  0  0  0  0
   -1.1826   -0.2928    0.9199 C   0  0  0  0  0  0  0  0  0  0  0  0
   -2.2135    0.3389    0.0626 C   0  0  0  0  0  0  0  0  0  0  0  0
   -3.2345   -0.2933   -0.1463 O   0  0  0  0  0  0  0  0  0  0  0  0
    3.0284    0.6993    0.1539 H   0  0  0  0  0  0  0  0  0  0  0  0
    1.8617   -0.1877    1.1405 H   0  0  0  0  0  0  0  0  0  0  0  0
    1.6895    1.5660    0.9099 H   0  0  0  0  0  0  0  0  0  0  0  0
    1.1926    1.2213   -1.5764 H   0  0  0  0  0  0  0  0  0  0  0  0
   -0.4834   -0.5749   -1.9570 H   0  0  0  0  0  0  0  0  0  0  0  0
   -1.1255   -2.1775   -0.1868 H   0  0  0  0  0  0  0  0  0  0  0  0
    0.3406   -1.7644    0.8093 H   0  0  0  0  0  0  0  0  0  0  0  0
   -0.4376    0.4883    1.1733 H   0  0  0  0  0  0  0  0  0  0  0  0
   -1.6061   -0.7108    1.8557 H   0  0  0  0  0  0  0  0  0  0  0  0
   -2.1259    1.3150   -0.3886 H   0  0  0  0  0  0  0  0  0  0  0  0
  1  2  1  0
  2  3  1  0
  3  4  1  0
  4  5  1  0
  5  6  1  0
  6  7  1  0
  7  8  2  0
  4  2  1  0
  1  9  1  0
  1 10  1  0
  1 11  1  0
  2 12  1  0
  4 13  1  0
  5 14  1  0
  5 15  1  0
  6 16  1  0
  6 17  1  0
  7 18  1  0
M  END
