
     RDKit          3D

 17 17  0  0  0  0  0  0  0  0999 V2000
    2.2813    0.5164    0.2918 C   0  0  0  0  0  0  0  0  0  0  0  0
    0.8569    0.3871   -0.2250 C   0  0  0  0  0  0  0  0  0  0  0  0
    0.0084    0.7005    0.8041 O   0  0  0  0  0  0  0  0  0  0  0  0
   -1.1735    0.0278    0.6454 C   0  0  0  0  0  0  0  0  0  0  0  0
   -2.1989    0.9094    0.0798 C   0  0  0  0  0  0  0  0  0  0  0  0
   -1.9301    2.0683   -0.1777 O   0  0  0  0  0  0  0  0  0  0  0  0
   -0.9078   -1.1922   -0.2073 C   0  0  0  0  0  0  0  0  0  0  0  0
    0.5238   -1.0204   -0.5507 C   0  0  0  0  0  0  0  0  0  0  0  0
    1.2773   -1.8522   -1.0048 O   0  0  0  0  0  0  0  0  0  0  0  0
    2.7169   -0.5043    0.3139 H   0  0  0  0  0  0  0  0  0  0  0  0
    2.3017    0.8766    1.3540 H   0  0  0  0  0  0  0  0  0  0  0  0
    2.8922    1.1421   -0.3520 H   0  0  0  0  0  0  0  0  0  0  0  0
    0.7175    1.0253   -1.1287 H   0  0  0  0  0  0  0  0  0  0  0  0
   -1.4943   -0.3177    1.6713 H   0  0  0  0  0  0  0  0  0  0  0  0
   -3.2037    0.5700   -0.1230 H   0  0  0  0  0  0  0  0  0  0  0  0
   -1.1093   -2.1164    0.3677 H   0  0  0  0  0  0  0  0  0  0  0  0
   -1.5584   -1.2203   -1.1023 H   0  0  0  0  0  0  0  0  0  0  0  0
  1  2  1  0
  2  3  1  0
  3  4  1  0
  4  5  1  0
  5  6  2  0
  4  7  1  0
  7  8  1  0
  8  9  2  0
  8  2  1  0
  1 10  1  0
  1 11  1  0
  1 12  1  0
  2 13  1  0
  4 14  1  0
  5 15  1  0
  7 16  1  0
  7 17  1  0
M  END
