
     RDKit          3D

 19 20  0  0  0  0  0  0  0  0999 V2000
    2.4708   -0.8643   -0.0735 C   0  0  0  0  0  0  0  0  0  0  0  0
    1.0506   -0.5182   -0.4595 C   0  0  0  0  0  0  0  0  0  0  0  0
    1.0260    0.7063   -1.0951 O   0  0  0  0  0  0  0  0  0  0  0  0
    0.3051    1.2376   -0.0314 C   0  0  0  0  0  0  0  0  0  0  0  0
    0.1667   -0.0655    0.6559 C   0  0  0  0  0  0  0  0  0  0  0  0
   -1.0643    0.6244    0.2684 C   0  0  0  0  0  0  0  0  0  0  0  0
   -1.7975    1.3948    1.1660 O   0  0  0  0  0  0  0  0  0  0  0  0
   -1.8223    0.0506   -0.9104 C   0  0  0  0  0  0  0  0  0  0  0  0
   -2.8309   -0.7701   -0.3610 O   0  0  0  0  0  0  0  0  0  0  0  0
    2.9679   -1.1963   -1.0196 H   0  0  0  0  0  0  0  0  0  0  0  0
    2.9798   -0.0089    0.3846 H   0  0  0  0  0  0  0  0  0  0  0  0
    2.4164   -1.7034    0.6557 H   0  0  0  0  0  0  0  0  0  0  0  0
    0.6109   -1.3771   -0.9910 H   0  0  0  0  0  0  0  0  0  0  0  0
    0.6229    2.1393    0.4829 H   0  0  0  0  0  0  0  0  0  0  0  0
    0.4669   -0.2172    1.7113 H   0  0  0  0  0  0  0  0  0  0  0  0
   -1.4714    1.3274    2.0943 H   0  0  0  0  0  0  0  0  0  0  0  0
   -1.1757   -0.5830   -1.5205 H   0  0  0  0  0  0  0  0  0  0  0  0
   -2.2981    0.8756   -1.5105 H   0  0  0  0  0  0  0  0  0  0  0  0
   -2.6239   -1.0519    0.5536 H   0  0  0  0  0  0  0  0  0  0  0  0
  1  2  1  0
  2  3  1  0
  3  4  1  0
  4  5  1  0
  5  6  1  0
  6  7  1  0
  6  8  1  0
  8  9  1  0
  5  2  1  0
  6  4  1  0
  1 10  1  0
  1 11  1  0
  1 12  1  0
  2 13  1  0
  4 14  1  0
  5 15  1  0
  7 16  1  0
  8 17  1  0
  8 18  1  0
  9 19  1  0
M  END
