
     RDKit          3D

 19 20  0  0  0  0  0  0  0  0999 V2000
   -2.6132   -0.0510    0.0876 C   0  0  0  0  0  0  0  0  0  0  0  0
   -1.2717    0.3156   -0.4545 C   0  0  0  0  0  0  0  0  0  0  0  0
   -0.7280   -0.7680   -1.1164 O   0  0  0  0  0  0  0  0  0  0  0  0
    0.6148   -0.8440   -0.8716 C   0  0  0  0  0  0  0  0  0  0  0  0
    1.0897   -1.3780    0.4826 C   0  0  0  0  0  0  0  0  0  0  0  0
    0.9513    0.0623    0.2859 C   0  0  0  0  0  0  0  0  0  0  0  0
    2.1339    0.9619    0.0341 C   0  0  0  0  0  0  0  0  0  0  0  0
   -0.3550    0.6731    0.6437 C   0  0  0  0  0  0  0  0  0  0  0  0
   -0.5198    1.3144    1.6572 O   0  0  0  0  0  0  0  0  0  0  0  0
   -3.3700    0.1825   -0.7061 H   0  0  0  0  0  0  0  0  0  0  0  0
   -2.9072    0.5304    0.9835 H   0  0  0  0  0  0  0  0  0  0  0  0
   -2.6607   -1.1336    0.3426 H   0  0  0  0  0  0  0  0  0  0  0  0
   -1.3497    1.2210   -1.1159 H   0  0  0  0  0  0  0  0  0  0  0  0
    1.3542   -0.9587   -1.6907 H   0  0  0  0  0  0  0  0  0  0  0  0
    0.3271   -1.9035    1.0892 H   0  0  0  0  0  0  0  0  0  0  0  0
    2.0996   -1.8113    0.5303 H   0  0  0  0  0  0  0  0  0  0  0  0
    2.7543    0.5799   -0.8206 H   0  0  0  0  0  0  0  0  0  0  0  0
    1.7460    1.9552   -0.3306 H   0  0  0  0  0  0  0  0  0  0  0  0
    2.7044    1.0518    0.9697 H   0  0  0  0  0  0  0  0  0  0  0  0
  1  2  1  0
  2  3  1  0
  3  4  1  0
  4  5  1  0
  5  6  1  0
  6  7  1  0
  6  8  1  0
  8  9  2  0
  8  2  1  0
  6  4  1  0
  1 10  1  0
  1 11  1  0
  1 12  1  0
  2 13  1  0
  4 14  1  0
  5 15  1  0
  5 16  1  0
  7 17  1  0
  7 18  1  0
  7 19  1  0
M  END
