
     RDKit          3D

 21 22  0  0  0  0  0  0  0  0999 V2000
    2.4703   -0.4141   -0.4919 C   0  0  0  0  0  0  0  0  0  0  0  0
    1.4929    0.6528   -0.1807 C   0  0  0  0  0  0  0  0  0  0  0  0
    0.5413    0.9272   -1.1956 O   0  0  0  0  0  0  0  0  0  0  0  0
   -0.2667    1.3684   -0.1390 C   0  0  0  0  0  0  0  0  0  0  0  0
   -1.7087    1.3025   -0.3528 C   0  0  0  0  0  0  0  0  0  0  0  0
   -2.3040    0.1311   -0.3550 C   0  0  0  0  0  0  0  0  0  0  0  0
   -1.6365   -1.1559   -0.1569 C   0  0  0  0  0  0  0  0  0  0  0  0
   -0.2484   -1.1022    0.3247 C   0  0  0  0  0  0  0  0  0  0  0  0
    0.2950    0.2305    0.6738 C   0  0  0  0  0  0  0  0  0  0  0  0
    2.3978   -0.6481   -1.5835 H   0  0  0  0  0  0  0  0  0  0  0  0
    2.4100   -1.3130    0.1230 H   0  0  0  0  0  0  0  0  0  0  0  0
    3.5097    0.0071   -0.3626 H   0  0  0  0  0  0  0  0  0  0  0  0
    1.8778    1.6235    0.1821 H   0  0  0  0  0  0  0  0  0  0  0  0
    0.1285    2.3333    0.2743 H   0  0  0  0  0  0  0  0  0  0  0  0
   -2.2438    2.2497   -0.5052 H   0  0  0  0  0  0  0  0  0  0  0  0
   -3.3849    0.1195   -0.5180 H   0  0  0  0  0  0  0  0  0  0  0  0
   -1.6659   -1.6966   -1.1497 H   0  0  0  0  0  0  0  0  0  0  0  0
   -2.3140   -1.7804    0.4968 H   0  0  0  0  0  0  0  0  0  0  0  0
    0.4584   -1.5871   -0.4034 H   0  0  0  0  0  0  0  0  0  0  0  0
   -0.1662   -1.7514    1.2465 H   0  0  0  0  0  0  0  0  0  0  0  0
    0.3575    0.5033    1.7276 H   0  0  0  0  0  0  0  0  0  0  0  0
  1  2  1  0
  2  3  1  0
  3  4  1  0
  4  5  1  0
  5  6  2  0
  6  7  1  0
  7  8  1  0
  8  9  1  0
  9  2  1  0
  9  4  1  0
  1 10  1  0
  1 11  1  0
  1 12  1  0
  2 13  1  0
  4 14  1  0
  5 15  1  0
  6 16  1  0
  7 17  1  0
  7 18  1  0
  8 19  1  0
  8 20  1  0
  9 21  1  0
M  END
