
     RDKit          3D

 17 18  0  0  0  0  0  0  0  0999 V2000
    2.6347   -0.2843    0.4776 C   0  0  0  0  0  0  0  0  0  0  0  0
    1.3651    0.4103    0.0822 C   0  0  0  0  0  0  0  0  0  0  0  0
    1.2109    1.6512   -0.3089 O   0  0  0  0  0  0  0  0  0  0  0  0
   -0.0420    1.9119   -0.5731 C   0  0  0  0  0  0  0  0  0  0  0  0
   -0.8128    0.7705   -0.3496 C   0  0  0  0  0  0  0  0  0  0  0  0
    0.0932   -0.1727    0.0654 C   0  0  0  0  0  0  0  0  0  0  0  0
   -0.6333   -1.4045    0.3224 C   0  0  0  0  0  0  0  0  0  0  0  0
   -1.9126   -1.2198    0.0768 C   0  0  0  0  0  0  0  0  0  0  0  0
   -2.1579    0.1619   -0.3697 C   0  0  0  0  0  0  0  0  0  0  0  0
    3.3806    0.4912    0.7529 H   0  0  0  0  0  0  0  0  0  0  0  0
    3.0726   -0.8303   -0.3952 H   0  0  0  0  0  0  0  0  0  0  0  0
    2.4883   -0.9341    1.3575 H   0  0  0  0  0  0  0  0  0  0  0  0
   -0.4867    2.8362   -0.9137 H   0  0  0  0  0  0  0  0  0  0  0  0
   -0.1299   -2.3088    0.6658 H   0  0  0  0  0  0  0  0  0  0  0  0
   -2.6935   -1.9841    0.1870 H   0  0  0  0  0  0  0  0  0  0  0  0
   -2.8036    0.7294    0.3321 H   0  0  0  0  0  0  0  0  0  0  0  0
   -2.5732    0.1759   -1.4096 H   0  0  0  0  0  0  0  0  0  0  0  0
  1  2  1  0
  2  3  1  0
  3  4  1  0
  4  5  2  0
  5  6  1  0
  6  7  1  0
  7  8  2  0
  8  9  1  0
  6  2  2  0
  9  5  1  0
  1 10  1  0
  1 11  1  0
  1 12  1  0
  4 13  1  0
  7 14  1  0
  8 15  1  0
  9 16  1  0
  9 17  1  0
M  END
