
     RDKit          3D

 19 20  0  0  0  0  0  0  0  0999 V2000
    2.3189    0.5240    0.2102 C   0  0  0  0  0  0  0  0  0  0  0  0
    0.8009    0.4430    0.3008 C   0  0  0  0  0  0  0  0  0  0  0  0
    0.4134   -0.3047    1.4741 O   0  0  0  0  0  0  0  0  0  0  0  0
   -0.6279   -1.1950    1.1028 C   0  0  0  0  0  0  0  0  0  0  0  0
   -0.9899   -2.2493    1.6600 O   0  0  0  0  0  0  0  0  0  0  0  0
   -1.1335   -0.5225   -0.0955 C   0  0  0  0  0  0  0  0  0  0  0  0
   -1.6933    0.8549    0.3103 C   0  0  0  0  0  0  0  0  0  0  0  0
   -0.8758   -0.6712   -1.4613 C   0  0  0  0  0  0  0  0  0  0  0  0
    0.3156   -0.4845   -0.7472 C   0  0  0  0  0  0  0  0  0  0  0  0
    2.7952    0.2914    1.1885 H   0  0  0  0  0  0  0  0  0  0  0  0
    2.6501    1.5446   -0.1006 H   0  0  0  0  0  0  0  0  0  0  0  0
    2.7222   -0.2080   -0.5238 H   0  0  0  0  0  0  0  0  0  0  0  0
    0.4159    1.4504    0.2923 H   0  0  0  0  0  0  0  0  0  0  0  0
   -1.5846    1.5963   -0.5157 H   0  0  0  0  0  0  0  0  0  0  0  0
   -2.7941    0.6792    0.3951 H   0  0  0  0  0  0  0  0  0  0  0  0
   -1.3534    1.2124    1.2720 H   0  0  0  0  0  0  0  0  0  0  0  0
   -1.1259   -1.6593   -1.9400 H   0  0  0  0  0  0  0  0  0  0  0  0
   -1.1776    0.1378   -2.1880 H   0  0  0  0  0  0  0  0  0  0  0  0
    0.9238   -1.4395   -0.6342 H   0  0  0  0  0  0  0  0  0  0  0  0
  1  2  1  0
  2  3  1  0
  3  4  1  0
  4  5  2  0
  4  6  1  0
  6  7  1  0
  6  8  1  0
  8  9  1  0
  9  2  1  0
  9  6  1  0
  1 10  1  0
  1 11  1  0
  1 12  1  0
  2 13  1  0
  7 14  1  0
  7 15  1  0
  7 16  1  0
  8 17  1  0
  8 18  1  0
  9 19  1  0
M  END
