
     RDKit          3D

 19 21  0  0  0  0  0  0  0  0999 V2000
    2.7358   -0.5111    0.4168 C   0  0  0  0  0  0  0  0  0  0  0  0
    1.3189   -0.4873   -0.0704 C   0  0  0  0  0  0  0  0  0  0  0  0
    0.4086   -1.0301    0.8050 O   0  0  0  0  0  0  0  0  0  0  0  0
   -0.8230   -0.6143    0.3362 C   0  0  0  0  0  0  0  0  0  0  0  0
   -1.7448    0.1817    1.2268 C   0  0  0  0  0  0  0  0  0  0  0  0
   -1.4887    1.4553    0.4380 C   0  0  0  0  0  0  0  0  0  0  0  0
   -0.5221    0.6445   -0.4179 C   0  0  0  0  0  0  0  0  0  0  0  0
   -1.1076   -0.5063   -1.1213 C   0  0  0  0  0  0  0  0  0  0  0  0
    0.8249    0.8085   -0.2424 O   0  0  0  0  0  0  0  0  0  0  0  0
    3.2780   -1.3928   -0.0261 H   0  0  0  0  0  0  0  0  0  0  0  0
    2.8567   -0.5532    1.4946 H   0  0  0  0  0  0  0  0  0  0  0  0
    3.2487    0.3791   -0.0481 H   0  0  0  0  0  0  0  0  0  0  0  0
    1.3086   -0.9684   -1.0754 H   0  0  0  0  0  0  0  0  0  0  0  0
   -2.8053   -0.1692    1.1756 H   0  0  0  0  0  0  0  0  0  0  0  0
   -1.3454    0.2492    2.2555 H   0  0  0  0  0  0  0  0  0  0  0  0
   -1.0326    2.2554    1.0277 H   0  0  0  0  0  0  0  0  0  0  0  0
   -2.3448    1.7610   -0.2234 H   0  0  0  0  0  0  0  0  0  0  0  0
   -0.5662   -1.0915   -1.8694 H   0  0  0  0  0  0  0  0  0  0  0  0
   -2.1996   -0.4105   -1.3617 H   0  0  0  0  0  0  0  0  0  0  0  0
  1  2  1  0
  2  3  1  0
  3  4  1  0
  4  5  1  0
  5  6  1  0
  6  7  1  0
  7  8  1  0
  7  9  1  0
  9  2  1  0
  7  4  1  0
  8  4  1  0
  1 10  1  0
  1 11  1  0
  1 12  1  0
  2 13  1  0
  5 14  1  0
  5 15  1  0
  6 16  1  0
  6 17  1  0
  8 18  1  0
  8 19  1  0
M  END
