
     RDKit          3D

 19 20  0  0  0  0  0  0  0  0999 V2000
   -2.7966   -0.0871   -0.6648 C   0  0  0  0  0  0  0  0  0  0  0  0
   -1.6397   -0.1582    0.2657 C   0  0  0  0  0  0  0  0  0  0  0  0
   -0.8448   -1.3367    0.1339 O   0  0  0  0  0  0  0  0  0  0  0  0
    0.1043   -0.5724    0.7959 C   0  0  0  0  0  0  0  0  0  0  0  0
    1.5443   -0.7448    0.4414 C   0  0  0  0  0  0  0  0  0  0  0  0
    1.9135    0.6588   -0.0062 C   0  0  0  0  0  0  0  0  0  0  0  0
    2.8768    0.5418   -0.9987 O   0  0  0  0  0  0  0  0  0  0  0  0
    0.6266    1.2089   -0.5382 C   0  0  0  0  0  0  0  0  0  0  0  0
   -0.4024    0.5271   -0.1276 C   0  0  0  0  0  0  0  0  0  0  0  0
   -3.0496   -1.0699   -1.1251 H   0  0  0  0  0  0  0  0  0  0  0  0
   -2.7276    0.7222   -1.4173 H   0  0  0  0  0  0  0  0  0  0  0  0
   -3.7063    0.1699   -0.0445 H   0  0  0  0  0  0  0  0  0  0  0  0
   -1.8788   -0.0633    1.3494 H   0  0  0  0  0  0  0  0  0  0  0  0
   -0.1516   -0.4161    1.8459 H   0  0  0  0  0  0  0  0  0  0  0  0
    1.7673   -1.5179   -0.2922 H   0  0  0  0  0  0  0  0  0  0  0  0
    2.1020   -0.9307    1.3816 H   0  0  0  0  0  0  0  0  0  0  0  0
    2.2597    1.2848    0.8278 H   0  0  0  0  0  0  0  0  0  0  0  0
    3.3757   -0.3082   -0.8597 H   0  0  0  0  0  0  0  0  0  0  0  0
    0.6272    2.0920   -1.1964 H   0  0  0  0  0  0  0  0  0  0  0  0
  1  2  1  0
  2  3  1  0
  3  4  1  0
  4  5  1  0
  5  6  1  0
  6  7  1  0
  6  8  1  0
  8  9  2  0
  9  2  1  0
  9  4  1  0
  1 10  1  0
  1 11  1  0
  1 12  1  0
  2 13  1  0
  4 14  1  0
  5 15  1  0
  5 16  1  0
  6 17  1  0
  7 18  1  0
  8 19  1  0
M  END
