
     RDKit          3D

 19 20  0  0  0  0  0  0  0  0999 V2000
   -2.2793    0.2037   -0.0308 C   0  0  0  0  0  0  0  0  0  0  0  0
   -1.1661   -0.7456   -0.3677 C   0  0  0  0  0  0  0  0  0  0  0  0
   -0.2894   -0.2790   -1.3470 O   0  0  0  0  0  0  0  0  0  0  0  0
    0.7366   -0.9086   -0.6448 C   0  0  0  0  0  0  0  0  0  0  0  0
    1.9123    0.0279   -0.5109 C   0  0  0  0  0  0  0  0  0  0  0  0
    1.2775    1.2107    0.1886 C   0  0  0  0  0  0  0  0  0  0  0  0
    0.3541    0.5755    1.1558 C   0  0  0  0  0  0  0  0  0  0  0  0
   -0.0007    1.0755    2.1975 O   0  0  0  0  0  0  0  0  0  0  0  0
   -0.0406   -0.7298    0.6382 C   0  0  0  0  0  0  0  0  0  0  0  0
   -2.8668   -0.2433    0.7977 H   0  0  0  0  0  0  0  0  0  0  0  0
   -2.9007    0.4469   -0.9013 H   0  0  0  0  0  0  0  0  0  0  0  0
   -1.8263    1.1390    0.3945 H   0  0  0  0  0  0  0  0  0  0  0  0
   -1.4668   -1.7764   -0.5893 H   0  0  0  0  0  0  0  0  0  0  0  0
    0.9634   -1.9400   -0.9347 H   0  0  0  0  0  0  0  0  0  0  0  0
    2.7429   -0.4072    0.0688 H   0  0  0  0  0  0  0  0  0  0  0  0
    2.2093    0.3190   -1.5377 H   0  0  0  0  0  0  0  0  0  0  0  0
    0.6675    1.7391   -0.5672 H   0  0  0  0  0  0  0  0  0  0  0  0
    2.0229    1.8698    0.6681 H   0  0  0  0  0  0  0  0  0  0  0  0
   -0.0495   -1.5773    1.3224 H   0  0  0  0  0  0  0  0  0  0  0  0
  1  2  1  0
  2  3  1  0
  3  4  1  0
  4  5  1  0
  5  6  1  0
  6  7  1  0
  7  8  2  0
  7  9  1  0
  9  2  1  0
  9  4  1  0
  1 10  1  0
  1 11  1  0
  1 12  1  0
  2 13  1  0
  4 14  1  0
  5 15  1  0
  5 16  1  0
  6 17  1  0
  6 18  1  0
  9 19  1  0
M  END
