
     RDKit          3D

 16 16  0  0  0  0  0  0  0  0999 V2000
    2.2812   -0.7746   -0.3443 C   0  0  0  0  0  0  0  0  0  0  0  0
    1.5083    0.5074   -0.4271 C   0  0  0  0  0  0  0  0  0  0  0  0
    1.1438    1.0460    0.8993 O   0  0  0  0  0  0  0  0  0  0  0  0
    0.1317    0.6730   -0.1266 C   0  0  0  0  0  0  0  0  0  0  0  0
   -0.7667   -0.3391    0.4208 C   0  0  0  0  0  0  0  0  0  0  0  0
   -0.3082   -1.3621    0.8940 O   0  0  0  0  0  0  0  0  0  0  0  0
   -2.2607   -0.1802    0.4309 C   0  0  0  0  0  0  0  0  0  0  0  0
   -2.6337    1.0255   -0.1361 O   0  0  0  0  0  0  0  0  0  0  0  0
    2.9636   -0.8592   -1.2149 H   0  0  0  0  0  0  0  0  0  0  0  0
    2.9375   -0.7150    0.5585 H   0  0  0  0  0  0  0  0  0  0  0  0
    1.6532   -1.6809   -0.3395 H   0  0  0  0  0  0  0  0  0  0  0  0
    2.0500    1.3130   -0.9571 H   0  0  0  0  0  0  0  0  0  0  0  0
   -0.3939    1.5736   -0.5362 H   0  0  0  0  0  0  0  0  0  0  0  0
   -2.7679   -1.0003   -0.0955 H   0  0  0  0  0  0  0  0  0  0  0  0
   -2.6570   -0.1742    1.4780 H   0  0  0  0  0  0  0  0  0  0  0  0
   -2.8812    0.9472   -1.0873 H   0  0  0  0  0  0  0  0  0  0  0  0
  1  2  1  0
  2  3  1  0
  3  4  1  0
  4  5  1  0
  5  6  2  0
  5  7  1  0
  7  8  1  0
  4  2  1  0
  1  9  1  0
  1 10  1  0
  1 11  1  0
  2 12  1  0
  4 13  1  0
  7 14  1  0
  7 15  1  0
  8 16  1  0
M  END
