
     RDKit          3D

 16 17  0  0  0  0  0  0  0  0999 V2000
    2.1991    0.0176   -0.0940 C   0  0  0  0  0  0  0  0  0  0  0  0
    0.9355    0.4793    0.5048 C   0  0  0  0  0  0  0  0  0  0  0  0
    0.3363   -0.2466    1.4963 O   0  0  0  0  0  0  0  0  0  0  0  0
   -0.9373   -0.2906    1.0017 C   0  0  0  0  0  0  0  0  0  0  0  0
   -1.4959    0.6900    0.0517 C   0  0  0  0  0  0  0  0  0  0  0  0
   -2.6017    0.3881   -0.7059 O   0  0  0  0  0  0  0  0  0  0  0  0
   -0.2530    0.0339   -0.3554 C   0  0  0  0  0  0  0  0  0  0  0  0
   -0.1516   -1.0448   -1.1626 O   0  0  0  0  0  0  0  0  0  0  0  0
    2.8366    0.9261   -0.3096 H   0  0  0  0  0  0  0  0  0  0  0  0
    2.8139   -0.6457    0.5119 H   0  0  0  0  0  0  0  0  0  0  0  0
    2.0627   -0.4478   -1.1098 H   0  0  0  0  0  0  0  0  0  0  0  0
    0.8869    1.5760    0.7283 H   0  0  0  0  0  0  0  0  0  0  0  0
   -1.4592   -1.2353    1.1022 H   0  0  0  0  0  0  0  0  0  0  0  0
   -1.4062    1.7973    0.2559 H   0  0  0  0  0  0  0  0  0  0  0  0
   -3.2299   -0.1110   -0.1505 H   0  0  0  0  0  0  0  0  0  0  0  0
   -0.5362   -1.8863   -0.8067 H   0  0  0  0  0  0  0  0  0  0  0  0
  1  2  1  0
  2  3  1  0
  3  4  1  0
  4  5  1  0
  5  6  1  0
  5  7  1  0
  7  8  1  0
  7  2  1  0
  7  4  1  0
  1  9  1  0
  1 10  1  0
  1 11  1  0
  2 12  1  0
  4 13  1  0
  5 14  1  0
  6 15  1  0
  8 16  1  0
M  END
