
     RDKit          3D

 19 20  0  0  0  0  0  0  0  0999 V2000
    2.5958    0.5475   -0.0240 C   0  0  0  0  0  0  0  0  0  0  0  0
    1.2971   -0.2215    0.1411 C   0  0  0  0  0  0  0  0  0  0  0  0
    0.7342   -0.5295   -1.0728 O   0  0  0  0  0  0  0  0  0  0  0  0
   -0.6357   -0.6670   -1.0172 C   0  0  0  0  0  0  0  0  0  0  0  0
   -1.0604   -1.2207    0.3514 C   0  0  0  0  0  0  0  0  0  0  0  0
   -0.8556    0.2162    0.8379 C   0  0  0  0  0  0  0  0  0  0  0  0
    0.4766    0.5158    0.9782 O   0  0  0  0  0  0  0  0  0  0  0  0
   -1.2934    0.6299   -0.5702 C   0  0  0  0  0  0  0  0  0  0  0  0
   -2.6650    0.6285   -0.6853 O   0  0  0  0  0  0  0  0  0  0  0  0
    2.4822    1.4397   -0.6672 H   0  0  0  0  0  0  0  0  0  0  0  0
    3.4243   -0.0646   -0.3737 H   0  0  0  0  0  0  0  0  0  0  0  0
    2.8712    0.9325    0.9873 H   0  0  0  0  0  0  0  0  0  0  0  0
    1.5809   -1.1455    0.7247 H   0  0  0  0  0  0  0  0  0  0  0  0
   -1.1085   -1.1813   -1.8469 H   0  0  0  0  0  0  0  0  0  0  0  0
   -2.1310   -1.4857    0.3342 H   0  0  0  0  0  0  0  0  0  0  0  0
   -0.3740   -1.9562    0.7789 H   0  0  0  0  0  0  0  0  0  0  0  0
   -1.4975    0.5380    1.6451 H   0  0  0  0  0  0  0  0  0  0  0  0
   -0.8525    1.5478   -0.9462 H   0  0  0  0  0  0  0  0  0  0  0  0
   -2.9888    1.4761   -0.2535 H   0  0  0  0  0  0  0  0  0  0  0  0
  1  2  1  0
  2  3  1  0
  3  4  1  0
  4  5  1  0
  5  6  1  0
  6  7  1  0
  6  8  1  0
  8  9  1  0
  7  2  1  0
  8  4  1  0
  1 10  1  0
  1 11  1  0
  1 12  1  0
  2 13  1  0
  4 14  1  0
  5 15  1  0
  5 16  1  0
  6 17  1  0
  8 18  1  0
  9 19  1  0
M  END
