
     RDKit          3D

 19 20  0  0  0  0  0  0  0  0999 V2000
    2.5734    0.1929    1.0432 C   0  0  0  0  0  0  0  0  0  0  0  0
    1.4340   -0.1133    0.1240 C   0  0  0  0  0  0  0  0  0  0  0  0
    0.5418   -1.0466    0.6478 O   0  0  0  0  0  0  0  0  0  0  0  0
   -0.5489   -0.9349   -0.2122 C   0  0  0  0  0  0  0  0  0  0  0  0
   -1.8567   -0.8010    0.5086 C   0  0  0  0  0  0  0  0  0  0  0  0
   -2.6162    0.1426   -0.1903 O   0  0  0  0  0  0  0  0  0  0  0  0
   -1.7383    1.0793   -0.6936 C   0  0  0  0  0  0  0  0  0  0  0  0
   -0.4054    0.4213   -0.8693 C   0  0  0  0  0  0  0  0  0  0  0  0
    0.5922    1.0020   -0.0675 O   0  0  0  0  0  0  0  0  0  0  0  0
    2.2544    0.0027    2.0993 H   0  0  0  0  0  0  0  0  0  0  0  0
    3.4097   -0.5114    0.8575 H   0  0  0  0  0  0  0  0  0  0  0  0
    2.9426    1.2355    0.9584 H   0  0  0  0  0  0  0  0  0  0  0  0
    1.7784   -0.4022   -0.8874 H   0  0  0  0  0  0  0  0  0  0  0  0
   -0.5108   -1.7699   -0.9232 H   0  0  0  0  0  0  0  0  0  0  0  0
   -2.3351   -1.7935    0.5316 H   0  0  0  0  0  0  0  0  0  0  0  0
   -1.6807   -0.4677    1.5551 H   0  0  0  0  0  0  0  0  0  0  0  0
   -1.6970    2.0103   -0.0902 H   0  0  0  0  0  0  0  0  0  0  0  0
   -2.0895    1.3825   -1.7208 H   0  0  0  0  0  0  0  0  0  0  0  0
   -0.0478    0.3714   -1.8992 H   0  0  0  0  0  0  0  0  0  0  0  0
  1  2  1  0
  2  3  1  0
  3  4  1  0
  4  5  1  0
  5  6  1  0
  6  7  1  0
  7  8  1  0
  8  9  1  0
  9  2  1  0
  8  4  1  0
  1 10  1  0
  1 11  1  0
  1 12  1  0
  2 13  1  0
  4 14  1  0
  5 15  1  0
  5 16  1  0
  7 17  1  0
  7 18  1  0
  8 19  1  0
M  END
