
     RDKit          3D

 17 18  0  0  0  0  0  0  0  0999 V2000
    2.5602   -0.1169    0.4644 C   0  0  0  0  0  0  0  0  0  0  0  0
    1.4492   -0.9777   -0.1030 C   0  0  0  0  0  0  0  0  0  0  0  0
    1.0177   -0.4686   -1.3770 O   0  0  0  0  0  0  0  0  0  0  0  0
    0.0940   -0.5663   -0.2168 C   0  0  0  0  0  0  0  0  0  0  0  0
   -0.4163    0.7884    0.1391 C   0  0  0  0  0  0  0  0  0  0  0  0
   -1.1234    1.4999   -0.8295 O   0  0  0  0  0  0  0  0  0  0  0  0
   -1.9105    1.0207    0.1917 C   0  0  0  0  0  0  0  0  0  0  0  0
   -2.7974   -0.1279   -0.1422 C   0  0  0  0  0  0  0  0  0  0  0  0
   -3.8845   -0.1993    0.4201 O   0  0  0  0  0  0  0  0  0  0  0  0
    3.4094   -0.2026   -0.2759 H   0  0  0  0  0  0  0  0  0  0  0  0
    2.9214   -0.4966    1.4294 H   0  0  0  0  0  0  0  0  0  0  0  0
    2.2968    0.9572    0.4732 H   0  0  0  0  0  0  0  0  0  0  0  0
    1.7104   -2.0411   -0.1739 H   0  0  0  0  0  0  0  0  0  0  0  0
   -0.6655   -1.3680   -0.3237 H   0  0  0  0  0  0  0  0  0  0  0  0
    0.1488    1.3995    0.9041 H   0  0  0  0  0  0  0  0  0  0  0  0
   -2.2948    1.7764    0.9177 H   0  0  0  0  0  0  0  0  0  0  0  0
   -2.5156   -0.8771   -0.8471 H   0  0  0  0  0  0  0  0  0  0  0  0
  1  2  1  0
  2  3  1  0
  3  4  1  0
  4  5  1  0
  5  6  1  0
  6  7  1  0
  7  8  1  0
  8  9  2  0
  4  2  1  0
  7  5  1  0
  1 10  1  0
  1 11  1  0
  1 12  1  0
  2 13  1  0
  4 14  1  0
  5 15  1  0
  7 16  1  0
  8 17  1  0
M  END
