
     RDKit          3D

 19 19  0  0  0  0  0  0  0  0999 V2000
    2.5279    0.3394    0.3928 C   0  0  0  0  0  0  0  0  0  0  0  0
    1.0988   -0.1451    0.3631 C   0  0  0  0  0  0  0  0  0  0  0  0
    0.1806    0.8751    0.4731 O   0  0  0  0  0  0  0  0  0  0  0  0
   -0.9011    0.6169   -0.3209 C   0  0  0  0  0  0  0  0  0  0  0  0
   -2.2131    0.6146    0.4264 C   0  0  0  0  0  0  0  0  0  0  0  0
   -2.2104   -0.3446    1.4131 O   0  0  0  0  0  0  0  0  0  0  0  0
   -0.6605   -0.6890   -1.0458 C   0  0  0  0  0  0  0  0  0  0  0  0
    0.7992   -0.7997   -0.9150 C   0  0  0  0  0  0  0  0  0  0  0  0
    1.5512   -1.3085   -1.6821 O   0  0  0  0  0  0  0  0  0  0  0  0
    2.7061    1.1986   -0.2569 H   0  0  0  0  0  0  0  0  0  0  0  0
    3.1632   -0.5337    0.0978 H   0  0  0  0  0  0  0  0  0  0  0  0
    2.8032    0.6137    1.4227 H   0  0  0  0  0  0  0  0  0  0  0  0
    1.0137   -0.8814    1.2146 H   0  0  0  0  0  0  0  0  0  0  0  0
   -0.9729    1.4144   -1.1126 H   0  0  0  0  0  0  0  0  0  0  0  0
   -2.3603    1.6096    0.8759 H   0  0  0  0  0  0  0  0  0  0  0  0
   -3.0399    0.4251   -0.2883 H   0  0  0  0  0  0  0  0  0  0  0  0
   -1.3664   -0.8095    1.5114 H   0  0  0  0  0  0  0  0  0  0  0  0
   -1.0116   -0.6589   -2.0933 H   0  0  0  0  0  0  0  0  0  0  0  0
   -1.1078   -1.5368   -0.4759 H   0  0  0  0  0  0  0  0  0  0  0  0
  1  2  1  0
  2  3  1  0
  3  4  1  0
  4  5  1  0
  5  6  1  0
  4  7  1  0
  7  8  1  0
  8  9  2  0
  8  2  1  0
  1 10  1  0
  1 11  1  0
  1 12  1  0
  2 13  1  0
  4 14  1  0
  5 15  1  0
  5 16  1  0
  6 17  1  0
  7 18  1  0
  7 19  1  0
M  END
