
     RDKit          3D

 19 20  0  0  0  0  0  0  0  0999 V2000
    2.8292   -0.2865    0.1760 C   0  0  0  0  0  0  0  0  0  0  0  0
    1.4495   -0.8614   -0.0141 C   0  0  0  0  0  0  0  0  0  0  0  0
    0.7001   -0.9422    1.2290 O   0  0  0  0  0  0  0  0  0  0  0  0
    0.2290   -0.1792    0.1929 C   0  0  0  0  0  0  0  0  0  0  0  0
    0.0055    1.2605    0.3109 C   0  0  0  0  0  0  0  0  0  0  0  0
   -1.2561    1.5650    0.0469 C   0  0  0  0  0  0  0  0  0  0  0  0
   -2.0416    0.3500   -0.2841 C   0  0  0  0  0  0  0  0  0  0  0  0
   -2.7928   -0.0069    0.8325 O   0  0  0  0  0  0  0  0  0  0  0  0
   -0.9995   -0.6684   -0.5933 C   0  0  0  0  0  0  0  0  0  0  0  0
    3.4585   -1.1056    0.6233 H   0  0  0  0  0  0  0  0  0  0  0  0
    3.2561   -0.1197   -0.8414 H   0  0  0  0  0  0  0  0  0  0  0  0
    2.8632    0.6145    0.7826 H   0  0  0  0  0  0  0  0  0  0  0  0
    1.4615   -1.8178   -0.6007 H   0  0  0  0  0  0  0  0  0  0  0  0
    0.7207    2.0651    0.5764 H   0  0  0  0  0  0  0  0  0  0  0  0
   -1.7046    2.5849    0.0612 H   0  0  0  0  0  0  0  0  0  0  0  0
   -2.6723    0.5154   -1.1802 H   0  0  0  0  0  0  0  0  0  0  0  0
   -3.5242   -0.6448    0.6175 H   0  0  0  0  0  0  0  0  0  0  0  0
   -0.7153   -0.6233   -1.6502 H   0  0  0  0  0  0  0  0  0  0  0  0
   -1.2670   -1.6997   -0.2852 H   0  0  0  0  0  0  0  0  0  0  0  0
  1  2  1  0
  2  3  1  0
  3  4  1  0
  4  5  1  0
  5  6  2  0
  6  7  1  0
  7  8  1  0
  7  9  1  0
  4  2  1  0
  9  4  1  0
  1 10  1  0
  1 11  1  0
  1 12  1  0
  2 13  1  0
  5 14  1  0
  6 15  1  0
  7 16  1  0
  8 17  1  0
  9 18  1  0
  9 19  1  0
M  END
