
     RDKit          3D

 19 19  0  0  0  0  0  0  0  0999 V2000
    2.4503   -0.3468   -0.3069 C   0  0  0  0  0  0  0  0  0  0  0  0
    1.0740   -0.6815    0.2581 C   0  0  0  0  0  0  0  0  0  0  0  0
    0.1808   -1.0375   -0.7078 O   0  0  0  0  0  0  0  0  0  0  0  0
   -0.7920   -0.0933   -0.8383 C   0  0  0  0  0  0  0  0  0  0  0  0
   -2.1526   -0.6712   -0.4199 C   0  0  0  0  0  0  0  0  0  0  0  0
   -0.5168    1.0453    0.0836 C   0  0  0  0  0  0  0  0  0  0  0  0
   -1.6002    1.3718    0.8976 O   0  0  0  0  0  0  0  0  0  0  0  0
    0.5768    0.5324    0.9312 C   0  0  0  0  0  0  0  0  0  0  0  0
    0.9704    1.0166    1.9581 O   0  0  0  0  0  0  0  0  0  0  0  0
    2.4450    0.6945   -0.7263 H   0  0  0  0  0  0  0  0  0  0  0  0
    3.1537   -0.3298    0.5519 H   0  0  0  0  0  0  0  0  0  0  0  0
    2.7412   -1.0388   -1.1086 H   0  0  0  0  0  0  0  0  0  0  0  0
    1.1649   -1.5212    0.9765 H   0  0  0  0  0  0  0  0  0  0  0  0
   -0.8269    0.2137   -1.9202 H   0  0  0  0  0  0  0  0  0  0  0  0
   -2.2934   -1.6110   -0.9725 H   0  0  0  0  0  0  0  0  0  0  0  0
   -2.0697   -0.8164    0.6841 H   0  0  0  0  0  0  0  0  0  0  0  0
   -2.9414    0.0615   -0.6867 H   0  0  0  0  0  0  0  0  0  0  0  0
   -0.1875    1.9178   -0.5259 H   0  0  0  0  0  0  0  0  0  0  0  0
   -1.3764    1.2939    1.8719 H   0  0  0  0  0  0  0  0  0  0  0  0
  1  2  1  0
  2  3  1  0
  3  4  1  0
  4  5  1  0
  4  6  1  0
  6  7  1  0
  6  8  1  0
  8  9  2  0
  8  2  1  0
  1 10  1  0
  1 11  1  0
  1 12  1  0
  2 13  1  0
  4 14  1  0
  5 15  1  0
  5 16  1  0
  5 17  1  0
  6 18  1  0
  7 19  1  0
M  END
