
     RDKit          3D

 21 22  0  0  0  0  0  0  0  0999 V2000
   -2.7735    0.5225   -0.0748 C   0  0  0  0  0  0  0  0  0  0  0  0
   -1.3567    0.5741    0.4432 C   0  0  0  0  0  0  0  0  0  0  0  0
   -0.4052    1.0177   -0.4712 O   0  0  0  0  0  0  0  0  0  0  0  0
    0.3024   -0.1688   -0.5372 C   0  0  0  0  0  0  0  0  0  0  0  0
    1.5909   -0.2222    0.2287 C   0  0  0  0  0  0  0  0  0  0  0  0
    2.6534    0.6844   -0.3017 C   0  0  0  0  0  0  0  0  0  0  0  0
    1.2009    0.0402    1.5171 O   0  0  0  0  0  0  0  0  0  0  0  0
    0.1700   -0.9056    1.7011 C   0  0  0  0  0  0  0  0  0  0  0  0
   -0.6764   -0.7557    0.4524 C   0  0  0  0  0  0  0  0  0  0  0  0
   -2.9457    1.2768   -0.8759 H   0  0  0  0  0  0  0  0  0  0  0  0
   -3.0103   -0.5109   -0.3969 H   0  0  0  0  0  0  0  0  0  0  0  0
   -3.4865    0.7429    0.7631 H   0  0  0  0  0  0  0  0  0  0  0  0
   -1.2785    1.1406    1.3943 H   0  0  0  0  0  0  0  0  0  0  0  0
    0.3799   -0.6559   -1.5053 H   0  0  0  0  0  0  0  0  0  0  0  0
    1.9665   -1.2566    0.1843 H   0  0  0  0  0  0  0  0  0  0  0  0
    3.6000    0.4372    0.2305 H   0  0  0  0  0  0  0  0  0  0  0  0
    2.4054    1.7517   -0.2791 H   0  0  0  0  0  0  0  0  0  0  0  0
    2.8285    0.4123   -1.3644 H   0  0  0  0  0  0  0  0  0  0  0  0
    0.5644   -1.9210    1.8377 H   0  0  0  0  0  0  0  0  0  0  0  0
   -0.4907   -0.5773    2.5501 H   0  0  0  0  0  0  0  0  0  0  0  0
   -1.2388   -1.6264    0.1358 H   0  0  0  0  0  0  0  0  0  0  0  0
  1  2  1  0
  2  3  1  0
  3  4  1  0
  4  5  1  0
  5  6  1  0
  5  7  1  0
  7  8  1  0
  8  9  1  0
  9  2  1  0
  9  4  1  0
  1 10  1  0
  1 11  1  0
  1 12  1  0
  2 13  1  0
  4 14  1  0
  5 15  1  0
  6 16  1  0
  6 17  1  0
  6 18  1  0
  8 19  1  0
  8 20  1  0
  9 21  1  0
M  END
