
     RDKit          3D

 18 19  0  0  0  0  0  0  0  0999 V2000
   -2.1816    0.6531   -0.2185 C   0  0  0  0  0  0  0  0  0  0  0  0
   -0.9637    0.5155    0.6625 C   0  0  0  0  0  0  0  0  0  0  0  0
    0.1233    1.1319    0.1038 O   0  0  0  0  0  0  0  0  0  0  0  0
    0.8396    0.2312   -0.6351 C   0  0  0  0  0  0  0  0  0  0  0  0
    2.3113    0.2873   -0.2535 C   0  0  0  0  0  0  0  0  0  0  0  0
    0.3666   -1.1647   -0.2061 C   0  0  0  0  0  0  0  0  0  0  0  0
    0.6981   -1.2538    1.2555 O   0  0  0  0  0  0  0  0  0  0  0  0
   -0.6328   -0.9766    0.7101 C   0  0  0  0  0  0  0  0  0  0  0  0
   -2.0223    0.3159   -1.2442 H   0  0  0  0  0  0  0  0  0  0  0  0
   -3.0173    0.0399    0.1957 H   0  0  0  0  0  0  0  0  0  0  0  0
   -2.5491    1.6986   -0.2642 H   0  0  0  0  0  0  0  0  0  0  0  0
   -1.2145    0.9155    1.6454 H   0  0  0  0  0  0  0  0  0  0  0  0
    0.7241    0.3512   -1.7298 H   0  0  0  0  0  0  0  0  0  0  0  0
    2.5797   -0.4792    0.4939 H   0  0  0  0  0  0  0  0  0  0  0  0
    2.5667    1.2682    0.1950 H   0  0  0  0  0  0  0  0  0  0  0  0
    2.9679    0.0893   -1.1416 H   0  0  0  0  0  0  0  0  0  0  0  0
    0.7598   -2.0001   -0.7712 H   0  0  0  0  0  0  0  0  0  0  0  0
   -1.3560   -1.6231    1.2026 H   0  0  0  0  0  0  0  0  0  0  0  0
  1  2  1  0
  2  3  1  0
  3  4  1  0
  4  5  1  0
  4  6  1  0
  6  7  1  0
  7  8  1  0
  8  2  1  0
  8  6  1  0
  1  9  1  0
  1 10  1  0
  1 11  1  0
  2 12  1  0
  4 13  1  0
  5 14  1  0
  5 15  1  0
  5 16  1  0
  6 17  1  0
  8 18  1  0
M  END
