
     RDKit          3D

 23 24  0  0  0  0  0  0  0  0999 V2000
    2.9901    1.2562    0.2634 C   0  0  0  0  0  0  0  0  0  0  0  0
    2.1622    0.0132    0.1858 C   0  0  0  0  0  0  0  0  0  0  0  0
    1.7223   -0.6358    1.3101 O   0  0  0  0  0  0  0  0  0  0  0  0
    0.7647    0.1267    0.6748 C   0  0  0  0  0  0  0  0  0  0  0  0
   -0.2888   -0.4886   -0.1799 C   0  0  0  0  0  0  0  0  0  0  0  0
   -0.0834   -1.9910   -0.3721 C   0  0  0  0  0  0  0  0  0  0  0  0
   -1.6886   -0.2209    0.2549 C   0  0  0  0  0  0  0  0  0  0  0  0
   -2.2757    1.1082    0.3655 C   0  0  0  0  0  0  0  0  0  0  0  0
   -2.6784    0.3183   -0.8111 C   0  0  0  0  0  0  0  0  0  0  0  0
    4.0339    1.0140    0.6168 H   0  0  0  0  0  0  0  0  0  0  0  0
    2.5989    2.0208    0.9506 H   0  0  0  0  0  0  0  0  0  0  0  0
    3.0395    1.6800   -0.7823 H   0  0  0  0  0  0  0  0  0  0  0  0
    2.3946   -0.6445   -0.6757 H   0  0  0  0  0  0  0  0  0  0  0  0
    0.4842    1.0443    1.2141 H   0  0  0  0  0  0  0  0  0  0  0  0
   -0.1697   -0.0514   -1.2149 H   0  0  0  0  0  0  0  0  0  0  0  0
    0.9748   -2.2520   -0.4549 H   0  0  0  0  0  0  0  0  0  0  0  0
   -0.6494   -2.2695   -1.3036 H   0  0  0  0  0  0  0  0  0  0  0  0
   -0.5230   -2.5767    0.4510 H   0  0  0  0  0  0  0  0  0  0  0  0
   -2.1334   -1.0273    0.9049 H   0  0  0  0  0  0  0  0  0  0  0  0
   -3.0847    1.2585    1.1388 H   0  0  0  0  0  0  0  0  0  0  0  0
   -1.7313    2.0451    0.1681 H   0  0  0  0  0  0  0  0  0  0  0  0
   -2.2052    0.4710   -1.8178 H   0  0  0  0  0  0  0  0  0  0  0  0
   -3.6537   -0.1987   -0.8865 H   0  0  0  0  0  0  0  0  0  0  0  0
  1  2  1  0
  2  3  1  0
  3  4  1  0
  4  5  1  0
  5  6  1  0
  5  7  1  0
  7  8  1  0
  8  9  1  0
  4  2  1  0
  9  7  1  0
  1 10  1  0
  1 11  1  0
  1 12  1  0
  2 13  1  0
  4 14  1  0
  5 15  1  0
  6 16  1  0
  6 17  1  0
  6 18  1  0
  7 19  1  0
  8 20  1  0
  8 21  1  0
  9 22  1  0
  9 23  1  0
M  END
