
     RDKit          3D

 15 15  0  0  0  0  0  0  0  0999 V2000
    1.6831    0.4836   -0.6785 C   0  0  0  0  0  0  0  0  0  0  0  0
    0.7333    0.1967    0.4431 C   0  0  0  0  0  0  0  0  0  0  0  0
    1.0028   -0.9385    1.2227 O   0  0  0  0  0  0  0  0  0  0  0  0
   -0.3624   -1.1814    1.2638 C   0  0  0  0  0  0  0  0  0  0  0  0
   -1.0775   -1.7110    2.1517 O   0  0  0  0  0  0  0  0  0  0  0  0
   -0.4789   -0.5832   -0.0650 C   0  0  0  0  0  0  0  0  0  0  0  0
   -1.6187    0.3545   -0.2990 C   0  0  0  0  0  0  0  0  0  0  0  0
    2.2631   -0.4082   -0.9593 H   0  0  0  0  0  0  0  0  0  0  0  0
    2.2927    1.3734   -0.4573 H   0  0  0  0  0  0  0  0  0  0  0  0
    1.0561    0.7431   -1.5787 H   0  0  0  0  0  0  0  0  0  0  0  0
    0.4284    1.0377    1.0746 H   0  0  0  0  0  0  0  0  0  0  0  0
   -0.1746   -1.2088   -0.9213 H   0  0  0  0  0  0  0  0  0  0  0  0
   -2.5216    0.0537    0.2576 H   0  0  0  0  0  0  0  0  0  0  0  0
   -1.3649    1.4235   -0.0533 H   0  0  0  0  0  0  0  0  0  0  0  0
   -1.8610    0.3650   -1.4010 H   0  0  0  0  0  0  0  0  0  0  0  0
  1  2  1  0
  2  3  1  0
  3  4  1  0
  4  5  2  0
  4  6  1  0
  6  7  1  0
  6  2  1  0
  1  8  1  0
  1  9  1  0
  1 10  1  0
  2 11  1  0
  6 12  1  0
  7 13  1  0
  7 14  1  0
  7 15  1  0
M  END
