
     RDKit          3D

 19 19  0  0  0  0  0  0  0  0999 V2000
    0.6282    1.7686   -0.9187 C   0  0  0  0  0  0  0  0  0  0  0  0
   -0.2462    0.5581   -0.7969 C   0  0  0  0  0  0  0  0  0  0  0  0
   -1.5419    0.9353   -0.3938 O   0  0  0  0  0  0  0  0  0  0  0  0
   -2.1108   -0.3286   -0.2076 C   0  0  0  0  0  0  0  0  0  0  0  0
   -1.1174   -1.0231    0.6975 C   0  0  0  0  0  0  0  0  0  0  0  0
    0.1649   -0.2996    0.3631 C   0  0  0  0  0  0  0  0  0  0  0  0
    1.2536   -1.1094    0.1707 O   0  0  0  0  0  0  0  0  0  0  0  0
    2.4409   -1.1109    0.8662 C   0  0  0  0  0  0  0  0  0  0  0  0
    2.5277   -0.2660    1.7847 O   0  0  0  0  0  0  0  0  0  0  0  0
    0.0288    2.7065   -1.0590 H   0  0  0  0  0  0  0  0  0  0  0  0
    1.2544    1.9031   -0.0157 H   0  0  0  0  0  0  0  0  0  0  0  0
    1.2394    1.6517   -1.8348 H   0  0  0  0  0  0  0  0  0  0  0  0
   -0.3887    0.0114   -1.7341 H   0  0  0  0  0  0  0  0  0  0  0  0
   -2.1311   -0.7989   -1.2285 H   0  0  0  0  0  0  0  0  0  0  0  0
   -3.1246   -0.2677    0.2316 H   0  0  0  0  0  0  0  0  0  0  0  0
   -1.0665   -2.1082    0.5047 H   0  0  0  0  0  0  0  0  0  0  0  0
   -1.4400   -0.8137    1.7388 H   0  0  0  0  0  0  0  0  0  0  0  0
    0.3963    0.3941    1.2113 H   0  0  0  0  0  0  0  0  0  0  0  0
    3.2327   -1.8027    0.6206 H   0  0  0  0  0  0  0  0  0  0  0  0
  1  2  1  0
  2  3  1  0
  3  4  1  0
  4  5  1  0
  5  6  1  0
  6  7  1  0
  7  8  1  0
  8  9  2  0
  6  2  1  0
  1 10  1  0
  1 11  1  0
  1 12  1  0
  2 13  1  0
  4 14  1  0
  4 15  1  0
  5 16  1  0
  5 17  1  0
  6 18  1  0
  8 19  1  0
M  END
