
     RDKit          3D

 16 17  0  0  0  0  0  0  0  0999 V2000
    1.7347    0.3325    0.7845 C   0  0  0  0  0  0  0  0  0  0  0  0
    0.8569    0.4891   -0.4438 C   0  0  0  0  0  0  0  0  0  0  0  0
    0.8419   -0.7314   -1.1446 O   0  0  0  0  0  0  0  0  0  0  0  0
   -0.3497   -1.1974   -0.6638 C   0  0  0  0  0  0  0  0  0  0  0  0
   -0.7733   -0.9868    0.7563 C   0  0  0  0  0  0  0  0  0  0  0  0
   -0.5838    0.2130   -0.0716 C   0  0  0  0  0  0  0  0  0  0  0  0
   -1.6699    0.9478   -0.7102 C   0  0  0  0  0  0  0  0  0  0  0  0
   -2.0996    1.9850   -0.2009 O   0  0  0  0  0  0  0  0  0  0  0  0
    2.1678   -0.6747    0.8776 H   0  0  0  0  0  0  0  0  0  0  0  0
    2.5974    1.0335    0.6806 H   0  0  0  0  0  0  0  0  0  0  0  0
    1.2048    0.6241    1.7184 H   0  0  0  0  0  0  0  0  0  0  0  0
    1.0283    1.3792   -1.0477 H   0  0  0  0  0  0  0  0  0  0  0  0
   -1.0573   -1.5577   -1.4199 H   0  0  0  0  0  0  0  0  0  0  0  0
    0.0419   -1.2010    1.4982 H   0  0  0  0  0  0  0  0  0  0  0  0
   -1.7692   -1.3215    1.0258 H   0  0  0  0  0  0  0  0  0  0  0  0
   -2.1709    0.6660   -1.6388 H   0  0  0  0  0  0  0  0  0  0  0  0
  1  2  1  0
  2  3  1  0
  3  4  1  0
  4  5  1  0
  5  6  1  0
  6  7  1  0
  7  8  2  0
  6  2  1  0
  6  4  1  0
  1  9  1  0
  1 10  1  0
  1 11  1  0
  2 12  1  0
  4 13  1  0
  5 14  1  0
  5 15  1  0
  7 16  1  0
M  END
