
     RDKit          3D

 19 20  0  0  0  0  0  0  0  0999 V2000
   -2.5958   -0.0153   -0.0447 C   0  0  0  0  0  0  0  0  0  0  0  0
   -1.3448    0.4173    0.6865 C   0  0  0  0  0  0  0  0  0  0  0  0
   -0.6836   -0.6750    1.2134 O   0  0  0  0  0  0  0  0  0  0  0  0
    0.4405   -0.4465    0.4348 C   0  0  0  0  0  0  0  0  0  0  0  0
    0.9538   -1.5205   -0.4783 C   0  0  0  0  0  0  0  0  0  0  0  0
    1.1333    0.8900    0.5020 C   0  0  0  0  0  0  0  0  0  0  0  0
    2.4046    0.9575   -0.2247 C   0  0  0  0  0  0  0  0  0  0  0  0
    3.3614    1.5068    0.2717 O   0  0  0  0  0  0  0  0  0  0  0  0
   -0.1669    0.7310   -0.1883 C   0  0  0  0  0  0  0  0  0  0  0  0
   -3.1509   -0.6906    0.6413 H   0  0  0  0  0  0  0  0  0  0  0  0
   -2.3242   -0.6030   -0.9425 H   0  0  0  0  0  0  0  0  0  0  0  0
   -3.1873    0.8870   -0.2867 H   0  0  0  0  0  0  0  0  0  0  0  0
   -1.5078    1.2115    1.4302 H   0  0  0  0  0  0  0  0  0  0  0  0
    2.0419   -1.3695   -0.5962 H   0  0  0  0  0  0  0  0  0  0  0  0
    0.5035   -1.4948   -1.4880 H   0  0  0  0  0  0  0  0  0  0  0  0
    0.8042   -2.5003    0.0363 H   0  0  0  0  0  0  0  0  0  0  0  0
    1.0931    1.3617    1.5162 H   0  0  0  0  0  0  0  0  0  0  0  0
    2.5038    0.5228   -1.2020 H   0  0  0  0  0  0  0  0  0  0  0  0
   -0.2787    0.8301   -1.2809 H   0  0  0  0  0  0  0  0  0  0  0  0
  1  2  1  0
  2  3  1  0
  3  4  1  0
  4  5  1  0
  4  6  1  0
  6  7  1  0
  7  8  2  0
  6  9  1  0
  9  2  1  0
  9  4  1  0
  1 10  1  0
  1 11  1  0
  1 12  1  0
  2 13  1  0
  5 14  1  0
  5 15  1  0
  5 16  1  0
  6 17  1  0
  7 18  1  0
  9 19  1  0
M  END
