
     RDKit          3D

 14 14  0  0  0  0  0  0  0  0999 V2000
   -1.7358    0.4115    0.4760 C   0  0  0  0  0  0  0  0  0  0  0  0
   -1.0502   -0.5382   -0.4710 C   0  0  0  0  0  0  0  0  0  0  0  0
   -0.2360    0.1127   -1.5042 O   0  0  0  0  0  0  0  0  0  0  0  0
    0.3622   -0.7504   -0.5332 C   0  0  0  0  0  0  0  0  0  0  0  0
    1.3775   -0.0189    0.2991 C   0  0  0  0  0  0  0  0  0  0  0  0
    2.4169    0.5063   -0.4955 O   0  0  0  0  0  0  0  0  0  0  0  0
   -1.5478    1.4530    0.1569 H   0  0  0  0  0  0  0  0  0  0  0  0
   -1.4222    0.2027    1.5138 H   0  0  0  0  0  0  0  0  0  0  0  0
   -2.8397    0.2737    0.4524 H   0  0  0  0  0  0  0  0  0  0  0  0
   -1.7181   -1.2909   -0.9322 H   0  0  0  0  0  0  0  0  0  0  0  0
    0.7410   -1.7126   -0.9437 H   0  0  0  0  0  0  0  0  0  0  0  0
    0.9390    0.8145    0.8911 H   0  0  0  0  0  0  0  0  0  0  0  0
    1.8794   -0.6824    1.0345 H   0  0  0  0  0  0  0  0  0  0  0  0
    2.8337    1.2189    0.0560 H   0  0  0  0  0  0  0  0  0  0  0  0
  1  2  1  0
  2  3  1  0
  3  4  1  0
  4  5  1  0
  5  6  1  0
  4  2  1  0
  1  7  1  0
  1  8  1  0
  1  9  1  0
  2 10  1  0
  4 11  1  0
  5 12  1  0
  5 13  1  0
  6 14  1  0
M  END
