
     RDKit          3D

 19 20  0  0  0  0  0  0  0  0999 V2000
   -3.0541   -0.1146   -0.2529 C   0  0  0  0  0  0  0  0  0  0  0  0
   -1.6671   -0.4469    0.2514 C   0  0  0  0  0  0  0  0  0  0  0  0
   -0.7667   -1.0905   -0.5687 O   0  0  0  0  0  0  0  0  0  0  0  0
   -0.4868    0.2781   -0.2479 C   0  0  0  0  0  0  0  0  0  0  0  0
    0.6513    0.5245    0.7111 C   0  0  0  0  0  0  0  0  0  0  0  0
    1.8730    1.2612    0.2376 C   0  0  0  0  0  0  0  0  0  0  0  0
    1.9282   -0.2121    0.5926 C   0  0  0  0  0  0  0  0  0  0  0  0
    2.1972   -1.1264   -0.5421 C   0  0  0  0  0  0  0  0  0  0  0  0
    1.6957   -0.9718   -1.6508 O   0  0  0  0  0  0  0  0  0  0  0  0
   -3.1745   -0.5837   -1.2307 H   0  0  0  0  0  0  0  0  0  0  0  0
   -3.2198    0.9948   -0.2865 H   0  0  0  0  0  0  0  0  0  0  0  0
   -3.8129   -0.5301    0.4430 H   0  0  0  0  0  0  0  0  0  0  0  0
   -1.6210   -0.7840    1.3108 H   0  0  0  0  0  0  0  0  0  0  0  0
   -0.4971    0.8982   -1.1510 H   0  0  0  0  0  0  0  0  0  0  0  0
    0.3153    0.8148    1.7286 H   0  0  0  0  0  0  0  0  0  0  0  0
    1.9669    1.5644   -0.8180 H   0  0  0  0  0  0  0  0  0  0  0  0
    2.3788    1.9572    0.9404 H   0  0  0  0  0  0  0  0  0  0  0  0
    2.4426   -0.4634    1.5369 H   0  0  0  0  0  0  0  0  0  0  0  0
    2.8509   -1.9696   -0.4318 H   0  0  0  0  0  0  0  0  0  0  0  0
  1  2  1  0
  2  3  1  0
  3  4  1  0
  4  5  1  0
  5  6  1  0
  6  7  1  0
  7  8  1  0
  8  9  2  0
  4  2  1  0
  7  5  1  0
  1 10  1  0
  1 11  1  0
  1 12  1  0
  2 13  1  0
  4 14  1  0
  5 15  1  0
  6 16  1  0
  6 17  1  0
  7 18  1  0
  8 19  1  0
M  END
