
     RDKit          3D

 21 21  0  0  0  0  0  0  0  0999 V2000
   -2.0954    1.0016    0.3104 C   0  0  0  0  0  0  0  0  0  0  0  0
   -0.6567    1.1176   -0.0448 C   0  0  0  0  0  0  0  0  0  0  0  0
    0.2469    0.9667    1.0116 O   0  0  0  0  0  0  0  0  0  0  0  0
    0.6016   -0.2767    0.5094 C   0  0  0  0  0  0  0  0  0  0  0  0
    2.0781   -0.5606    0.4983 C   0  0  0  0  0  0  0  0  0  0  0  0
    2.8037    0.3280   -0.2573 O   0  0  0  0  0  0  0  0  0  0  0  0
   -0.0673   -0.0690   -0.7850 C   0  0  0  0  0  0  0  0  0  0  0  0
   -1.0600   -1.1511   -1.1299 C   0  0  0  0  0  0  0  0  0  0  0  0
    0.6428    0.3368   -1.8689 O   0  0  0  0  0  0  0  0  0  0  0  0
   -2.2730    0.5696    1.3242 H   0  0  0  0  0  0  0  0  0  0  0  0
   -2.5779    0.2741   -0.3997 H   0  0  0  0  0  0  0  0  0  0  0  0
   -2.6570    1.9557    0.1580 H   0  0  0  0  0  0  0  0  0  0  0  0
   -0.4596    2.1014   -0.5435 H   0  0  0  0  0  0  0  0  0  0  0  0
    0.0893   -1.0648    1.1277 H   0  0  0  0  0  0  0  0  0  0  0  0
    2.4407   -0.4715    1.5485 H   0  0  0  0  0  0  0  0  0  0  0  0
    2.2172   -1.5836    0.0976 H   0  0  0  0  0  0  0  0  0  0  0  0
    3.0654    1.1067    0.2627 H   0  0  0  0  0  0  0  0  0  0  0  0
   -1.5921   -1.5159   -0.2252 H   0  0  0  0  0  0  0  0  0  0  0  0
   -0.4565   -2.0278   -1.4858 H   0  0  0  0  0  0  0  0  0  0  0  0
   -1.7334   -0.8409   -1.9431 H   0  0  0  0  0  0  0  0  0  0  0  0
    1.4432   -0.1964   -2.0863 H   0  0  0  0  0  0  0  0  0  0  0  0
  1  2  1  0
  2  3  1  0
  3  4  1  0
  4  5  1  0
  5  6  1  0
  4  7  1  0
  7  8  1  0
  7  9  1  0
  7  2  1  0
  1 10  1  0
  1 11  1  0
  1 12  1  0
  2 13  1  0
  4 14  1  0
  5 15  1  0
  5 16  1  0
  6 17  1  0
  8 18  1  0
  8 19  1  0
  8 20  1  0
  9 21  1  0
M  END
