
     RDKit          3D

 19 20  0  0  0  0  0  0  0  0999 V2000
    2.2697    0.0218    0.8450 C   0  0  0  0  0  0  0  0  0  0  0  0
    1.3943    0.3034   -0.3570 C   0  0  0  0  0  0  0  0  0  0  0  0
    0.8812   -0.8665   -0.8284 O   0  0  0  0  0  0  0  0  0  0  0  0
   -0.4739   -0.7924   -0.9305 C   0  0  0  0  0  0  0  0  0  0  0  0
   -1.2565   -1.0898    0.3508 C   0  0  0  0  0  0  0  0  0  0  0  0
   -2.0463    0.1989    0.0848 C   0  0  0  0  0  0  0  0  0  0  0  0
   -0.8991    0.6419   -0.7748 C   0  0  0  0  0  0  0  0  0  0  0  0
    0.2401    1.1964   -0.0004 C   0  0  0  0  0  0  0  0  0  0  0  0
    0.2148    2.1426    0.7343 O   0  0  0  0  0  0  0  0  0  0  0  0
    2.9481    0.8434    1.0766 H   0  0  0  0  0  0  0  0  0  0  0  0
    2.8638   -0.9003    0.6004 H   0  0  0  0  0  0  0  0  0  0  0  0
    1.5942   -0.2592    1.6806 H   0  0  0  0  0  0  0  0  0  0  0  0
    1.9618    0.8756   -1.1480 H   0  0  0  0  0  0  0  0  0  0  0  0
   -0.9512   -1.2998   -1.7826 H   0  0  0  0  0  0  0  0  0  0  0  0
   -1.8626   -1.9934    0.3282 H   0  0  0  0  0  0  0  0  0  0  0  0
   -0.6506   -1.0262    1.2768 H   0  0  0  0  0  0  0  0  0  0  0  0
   -2.9945    0.0478   -0.4468 H   0  0  0  0  0  0  0  0  0  0  0  0
   -2.0947    0.8096    1.0050 H   0  0  0  0  0  0  0  0  0  0  0  0
   -1.1387    1.1461   -1.7139 H   0  0  0  0  0  0  0  0  0  0  0  0
  1  2  1  0
  2  3  1  0
  3  4  1  0
  4  5  1  0
  5  6  1  0
  6  7  1  0
  7  8  1  0
  8  9  2  0
  8  2  1  0
  7  4  1  0
  1 10  1  0
  1 11  1  0
  1 12  1  0
  2 13  1  0
  4 14  1  0
  5 15  1  0
  5 16  1  0
  6 17  1  0
  6 18  1  0
  7 19  1  0
M  END
