
     RDKit          3D

 21 22  0  0  0  0  0  0  0  0999 V2000
    2.6456    1.2112   -0.4785 C   0  0  0  0  0  0  0  0  0  0  0  0
    1.5111    0.4534    0.1152 C   0  0  0  0  0  0  0  0  0  0  0  0
    1.7496   -0.9192    0.1617 O   0  0  0  0  0  0  0  0  0  0  0  0
    0.4761   -1.4970    0.3509 C   0  0  0  0  0  0  0  0  0  0  0  0
   -0.4384   -0.4273   -0.0821 C   0  0  0  0  0  0  0  0  0  0  0  0
   -1.2994    0.2261    0.9695 C   0  0  0  0  0  0  0  0  0  0  0  0
   -2.3218    0.4283   -0.1602 C   0  0  0  0  0  0  0  0  0  0  0  0
   -1.7014   -0.8214   -0.7923 C   0  0  0  0  0  0  0  0  0  0  0  0
    0.3696    0.4867   -0.7163 O   0  0  0  0  0  0  0  0  0  0  0  0
    2.3029    2.0849   -1.1051 H   0  0  0  0  0  0  0  0  0  0  0  0
    3.3514    0.6094   -1.0634 H   0  0  0  0  0  0  0  0  0  0  0  0
    3.2408    1.6445    0.3785 H   0  0  0  0  0  0  0  0  0  0  0  0
    1.1799    0.8542    1.0890 H   0  0  0  0  0  0  0  0  0  0  0  0
    0.3463   -1.8578    1.3855 H   0  0  0  0  0  0  0  0  0  0  0  0
    0.3919   -2.3565   -0.3723 H   0  0  0  0  0  0  0  0  0  0  0  0
   -0.9273    1.1450    1.4163 H   0  0  0  0  0  0  0  0  0  0  0  0
   -1.7394   -0.4347    1.7235 H   0  0  0  0  0  0  0  0  0  0  0  0
   -2.0197    1.3271   -0.7278 H   0  0  0  0  0  0  0  0  0  0  0  0
   -3.3604    0.3355    0.1383 H   0  0  0  0  0  0  0  0  0  0  0  0
   -1.5855   -0.7864   -1.8749 H   0  0  0  0  0  0  0  0  0  0  0  0
   -2.1719   -1.7059   -0.3555 H   0  0  0  0  0  0  0  0  0  0  0  0
  1  2  1  0
  2  3  1  0
  3  4  1  0
  4  5  1  0
  5  6  1  0
  6  7  1  0
  7  8  1  0
  5  9  1  0
  9  2  1  0
  8  5  1  0
  1 10  1  0
  1 11  1  0
  1 12  1  0
  2 13  1  0
  4 14  1  0
  4 15  1  0
  6 16  1  0
  6 17  1  0
  7 18  1  0
  7 19  1  0
  8 20  1  0
  8 21  1  0
M  END
