
     RDKit          3D

 21 23  0  0  0  0  0  0  0  0999 V2000
    2.4546    0.3684    0.6072 C   0  0  0  0  0  0  0  0  0  0  0  0
    2.0430    0.6111   -0.8049 C   0  0  0  0  0  0  0  0  0  0  0  0
    0.9437    1.6006   -0.9671 O   0  0  0  0  0  0  0  0  0  0  0  0
    0.6540    0.2583   -1.2678 C   0  0  0  0  0  0  0  0  0  0  0  0
   -0.2228   -0.4590   -0.2859 C   0  0  0  0  0  0  0  0  0  0  0  0
   -0.4920    0.2882    0.9992 C   0  0  0  0  0  0  0  0  0  0  0  0
   -1.9687    0.0785    0.8015 C   0  0  0  0  0  0  0  0  0  0  0  0
   -2.5057   -1.2488    0.4133 C   0  0  0  0  0  0  0  0  0  0  0  0
   -1.6866   -0.4700   -0.5644 C   0  0  0  0  0  0  0  0  0  0  0  0
    2.1901    1.2238    1.2721 H   0  0  0  0  0  0  0  0  0  0  0  0
    2.1287   -0.6076    1.0098 H   0  0  0  0  0  0  0  0  0  0  0  0
    3.5832    0.3296    0.6181 H   0  0  0  0  0  0  0  0  0  0  0  0
    2.8109    0.8842   -1.5677 H   0  0  0  0  0  0  0  0  0  0  0  0
    0.5942   -0.0628   -2.3121 H   0  0  0  0  0  0  0  0  0  0  0  0
    0.1203   -1.4934   -0.0297 H   0  0  0  0  0  0  0  0  0  0  0  0
   -0.2165    1.3724    0.8831 H   0  0  0  0  0  0  0  0  0  0  0  0
   -0.0528   -0.1524    1.9008 H   0  0  0  0  0  0  0  0  0  0  0  0
   -2.6672    0.9309    0.9346 H   0  0  0  0  0  0  0  0  0  0  0  0
   -3.5844   -1.2877    0.2177 H   0  0  0  0  0  0  0  0  0  0  0  0
   -2.0051   -2.1479    0.8374 H   0  0  0  0  0  0  0  0  0  0  0  0
   -2.1211   -0.0162   -1.4591 H   0  0  0  0  0  0  0  0  0  0  0  0
  1  2  1  0
  2  3  1  0
  3  4  1  0
  4  5  1  0
  5  6  1  0
  6  7  1  0
  7  8  1  0
  8  9  1  0
  4  2  1  0
  9  5  1  0
  9  7  1  0
  1 10  1  0
  1 11  1  0
  1 12  1  0
  2 13  1  0
  4 14  1  0
  5 15  1  0
  6 16  1  0
  6 17  1  0
  7 18  1  0
  8 19  1  0
  8 20  1  0
  9 21  1  0
M  END
