
     RDKit          3D

 17 18  0  0  0  0  0  0  0  0999 V2000
    1.8984    0.5060   -0.1813 C   0  0  0  0  0  0  0  0  0  0  0  0
    0.6951   -0.1313   -0.8517 C   0  0  0  0  0  0  0  0  0  0  0  0
    0.8151   -1.5557   -0.7119 O   0  0  0  0  0  0  0  0  0  0  0  0
    0.1988   -1.3867    0.5451 C   0  0  0  0  0  0  0  0  0  0  0  0
    0.2528   -2.0234    1.6341 O   0  0  0  0  0  0  0  0  0  0  0  0
   -0.4671   -0.2315    0.0274 C   0  0  0  0  0  0  0  0  0  0  0  0
   -1.8327   -0.3095   -0.5082 C   0  0  0  0  0  0  0  0  0  0  0  0
   -2.1853    0.7200    0.3984 O   0  0  0  0  0  0  0  0  0  0  0  0
   -0.8720    0.8825    0.8891 C   0  0  0  0  0  0  0  0  0  0  0  0
    2.0701    1.5333   -0.5208 H   0  0  0  0  0  0  0  0  0  0  0  0
    2.7825   -0.1002   -0.4956 H   0  0  0  0  0  0  0  0  0  0  0  0
    1.7534    0.4937    0.9237 H   0  0  0  0  0  0  0  0  0  0  0  0
    0.4648    0.2162   -1.8601 H   0  0  0  0  0  0  0  0  0  0  0  0
   -2.3248   -1.2769   -0.2262 H   0  0  0  0  0  0  0  0  0  0  0  0
   -2.0231    0.0046   -1.5468 H   0  0  0  0  0  0  0  0  0  0  0  0
   -0.7715    0.7995    1.9772 H   0  0  0  0  0  0  0  0  0  0  0  0
   -0.4544    1.8594    0.5076 H   0  0  0  0  0  0  0  0  0  0  0  0
  1  2  1  0
  2  3  1  0
  3  4  1  0
  4  5  2  0
  4  6  1  0
  6  7  1  0
  7  8  1  0
  8  9  1  0
  6  2  1  0
  9  6  1  0
  1 10  1  0
  1 11  1  0
  1 12  1  0
  2 13  1  0
  7 14  1  0
  7 15  1  0
  9 16  1  0
  9 17  1  0
M  END
