
     RDKit          3D

 23 23  0  0  0  0  0  0  0  0999 V2000
    3.2553    0.8412   -0.0642 C   0  0  0  0  0  0  0  0  0  0  0  0
    1.9995    0.1508   -0.4614 C   0  0  0  0  0  0  0  0  0  0  0  0
    1.8722   -1.1387   -0.0053 O   0  0  0  0  0  0  0  0  0  0  0  0
    0.5401   -1.4277   -0.3617 C   0  0  0  0  0  0  0  0  0  0  0  0
   -0.1215   -0.0701   -0.4695 C   0  0  0  0  0  0  0  0  0  0  0  0
   -1.4270   -0.0112    0.2791 C   0  0  0  0  0  0  0  0  0  0  0  0
   -2.0239    1.3514    0.1313 C   0  0  0  0  0  0  0  0  0  0  0  0
   -2.3669   -1.0029   -0.3962 C   0  0  0  0  0  0  0  0  0  0  0  0
    0.8501    0.7562    0.0990 O   0  0  0  0  0  0  0  0  0  0  0  0
    3.1645    1.5431    0.7690 H   0  0  0  0  0  0  0  0  0  0  0  0
    4.0384    0.0830    0.1558 H   0  0  0  0  0  0  0  0  0  0  0  0
    3.6308    1.3971   -0.9713 H   0  0  0  0  0  0  0  0  0  0  0  0
    1.8132    0.1736   -1.5753 H   0  0  0  0  0  0  0  0  0  0  0  0
    0.0540   -2.0586    0.4113 H   0  0  0  0  0  0  0  0  0  0  0  0
    0.5739   -1.9245   -1.3521 H   0  0  0  0  0  0  0  0  0  0  0  0
   -0.2219    0.2480   -1.5308 H   0  0  0  0  0  0  0  0  0  0  0  0
   -1.2272   -0.2936    1.3211 H   0  0  0  0  0  0  0  0  0  0  0  0
   -1.4752    2.1225    0.6950 H   0  0  0  0  0  0  0  0  0  0  0  0
   -3.0711    1.3607    0.4642 H   0  0  0  0  0  0  0  0  0  0  0  0
   -1.9500    1.6487   -0.9493 H   0  0  0  0  0  0  0  0  0  0  0  0
   -1.9817   -1.3126   -1.3979 H   0  0  0  0  0  0  0  0  0  0  0  0
   -2.5587   -1.8873    0.2468 H   0  0  0  0  0  0  0  0  0  0  0  0
   -3.3671   -0.5491   -0.5901 H   0  0  0  0  0  0  0  0  0  0  0  0
  1  2  1  0
  2  3  1  0
  3  4  1  0
  4  5  1  0
  5  6  1  0
  6  7  1  0
  6  8  1  0
  5  9  1  0
  9  2  1  0
  1 10  1  0
  1 11  1  0
  1 12  1  0
  2 13  1  0
  4 14  1  0
  4 15  1  0
  5 16  1  0
  6 17  1  0
  7 18  1  0
  7 19  1  0
  7 20  1  0
  8 21  1  0
  8 22  1  0
  8 23  1  0
M  END
