
     RDKit          3D

 23 24  0  0  0  0  0  0  0  0999 V2000
   -2.3237    0.1879   -0.7394 C   0  0  0  0  0  0  0  0  0  0  0  0
   -1.5050    0.1267    0.5110 C   0  0  0  0  0  0  0  0  0  0  0  0
   -0.8427    1.3733    0.6070 O   0  0  0  0  0  0  0  0  0  0  0  0
    0.3262    1.2359   -0.1267 C   0  0  0  0  0  0  0  0  0  0  0  0
    1.5197    0.8181    0.7322 C   0  0  0  0  0  0  0  0  0  0  0  0
    2.8472    1.2437    0.1486 C   0  0  0  0  0  0  0  0  0  0  0  0
    0.7650   -0.1812   -0.0425 C   0  0  0  0  0  0  0  0  0  0  0  0
   -0.4359   -0.8913    0.5260 C   0  0  0  0  0  0  0  0  0  0  0  0
   -0.7212   -2.1647   -0.1752 C   0  0  0  0  0  0  0  0  0  0  0  0
   -1.6581    0.4264   -1.5981 H   0  0  0  0  0  0  0  0  0  0  0  0
   -3.0117    1.0774   -0.6212 H   0  0  0  0  0  0  0  0  0  0  0  0
   -2.9790   -0.6712   -0.9062 H   0  0  0  0  0  0  0  0  0  0  0  0
   -2.1737    0.0756    1.3823 H   0  0  0  0  0  0  0  0  0  0  0  0
    0.5034    1.8558   -1.0189 H   0  0  0  0  0  0  0  0  0  0  0  0
    1.4298    0.9101    1.8353 H   0  0  0  0  0  0  0  0  0  0  0  0
    3.1346    2.2314    0.5499 H   0  0  0  0  0  0  0  0  0  0  0  0
    2.7548    1.3173   -0.9611 H   0  0  0  0  0  0  0  0  0  0  0  0
    3.6236    0.4850    0.3398 H   0  0  0  0  0  0  0  0  0  0  0  0
    1.2424   -0.6680   -0.9202 H   0  0  0  0  0  0  0  0  0  0  0  0
   -0.2124   -1.1414    1.6046 H   0  0  0  0  0  0  0  0  0  0  0  0
   -0.7235   -3.0539    0.5218 H   0  0  0  0  0  0  0  0  0  0  0  0
    0.0972   -2.3786   -0.9200 H   0  0  0  0  0  0  0  0  0  0  0  0
   -1.6568   -2.2146   -0.7289 H   0  0  0  0  0  0  0  0  0  0  0  0
  1  2  1  0
  2  3  1  0
  3  4  1  0
  4  5  1  0
  5  6  1  0
  5  7  1  0
  7  8  1  0
  8  9  1  0
  8  2  1  0
  7  4  1  0
  1 10  1  0
  1 11  1  0
  1 12  1  0
  2 13  1  0
  4 14  1  0
  5 15  1  0
  6 16  1  0
  6 17  1  0
  6 18  1  0
  7 19  1  0
  8 20  1  0
  9 21  1  0
  9 22  1  0
  9 23  1  0
M  END
