
     RDKit          3D

 17 18  0  0  0  0  0  0  0  0999 V2000
   -2.2522    0.0647   -0.8029 C   0  0  0  0  0  0  0  0  0  0  0  0
   -1.0572    0.6146   -0.0846 C   0  0  0  0  0  0  0  0  0  0  0  0
    0.0366    0.8276   -0.9354 O   0  0  0  0  0  0  0  0  0  0  0  0
    0.8727    0.1075   -0.1435 C   0  0  0  0  0  0  0  0  0  0  0  0
    2.1598    0.5982    0.3843 C   0  0  0  0  0  0  0  0  0  0  0  0
    0.5957   -1.3906    0.0463 C   0  0  0  0  0  0  0  0  0  0  0  0
   -0.2410   -0.3668    0.6986 C   0  0  0  0  0  0  0  0  0  0  0  0
   -2.0606   -0.1485   -1.8671 H   0  0  0  0  0  0  0  0  0  0  0  0
   -2.6845   -0.8374   -0.3334 H   0  0  0  0  0  0  0  0  0  0  0  0
   -3.0489    0.8485   -0.7810 H   0  0  0  0  0  0  0  0  0  0  0  0
   -1.2591    1.5382    0.4882 H   0  0  0  0  0  0  0  0  0  0  0  0
    2.9900    0.0949   -0.1626 H   0  0  0  0  0  0  0  0  0  0  0  0
    2.2821    0.4678    1.4872 H   0  0  0  0  0  0  0  0  0  0  0  0
    2.2534    1.6751    0.1905 H   0  0  0  0  0  0  0  0  0  0  0  0
    1.2983   -1.9346    0.6967 H   0  0  0  0  0  0  0  0  0  0  0  0
    0.3125   -1.8706   -0.9071 H   0  0  0  0  0  0  0  0  0  0  0  0
   -0.1977   -0.2885    1.8083 H   0  0  0  0  0  0  0  0  0  0  0  0
  1  2  1  0
  2  3  1  0
  3  4  1  0
  4  5  1  0
  4  6  1  0
  6  7  1  0
  7  2  1  0
  7  4  1  0
  1  8  1  0
  1  9  1  0
  1 10  1  0
  2 11  1  0
  5 12  1  0
  5 13  1  0
  5 14  1  0
  6 15  1  0
  6 16  1  0
  7 17  1  0
M  END
