
     RDKit          3D

 14 15  0  0  0  0  0  0  0  0999 V2000
    1.8435   -0.0648   -0.2115 C   0  0  0  0  0  0  0  0  0  0  0  0
    0.6857    0.2763    0.7412 C   0  0  0  0  0  0  0  0  0  0  0  0
    0.0374   -1.0371    1.0852 O   0  0  0  0  0  0  0  0  0  0  0  0
   -0.5831   -0.0344    0.3849 C   0  0  0  0  0  0  0  0  0  0  0  0
   -1.0495   -0.2345   -1.0245 C   0  0  0  0  0  0  0  0  0  0  0  0
   -2.2419    0.4335   -0.6256 O   0  0  0  0  0  0  0  0  0  0  0  0
   -1.8906    0.4774    0.7167 C   0  0  0  0  0  0  0  0  0  0  0  0
   -2.4972    0.8259    1.7458 O   0  0  0  0  0  0  0  0  0  0  0  0
    2.3903    0.8312   -0.4895 H   0  0  0  0  0  0  0  0  0  0  0  0
    1.4129   -0.4873   -1.1657 H   0  0  0  0  0  0  0  0  0  0  0  0
    2.4449   -0.8738    0.2225 H   0  0  0  0  0  0  0  0  0  0  0  0
    1.0610    0.7816    1.6532 H   0  0  0  0  0  0  0  0  0  0  0  0
   -0.4622    0.3900   -1.7440 H   0  0  0  0  0  0  0  0  0  0  0  0
   -1.1510   -1.2839   -1.2889 H   0  0  0  0  0  0  0  0  0  0  0  0
  1  2  1  0
  2  3  1  0
  3  4  1  0
  4  5  1  0
  5  6  1  0
  6  7  1  0
  7  8  2  0
  4  2  1  0
  7  4  1  0
  1  9  1  0
  1 10  1  0
  1 11  1  0
  2 12  1  0
  5 13  1  0
  5 14  1  0
M  END
