
     RDKit          3D

 18 18  0  0  0  0  0  0  0  0999 V2000
   -2.3554    0.1951    0.0073 C   0  0  0  0  0  0  0  0  0  0  0  0
   -1.1377   -0.5767   -0.3895 C   0  0  0  0  0  0  0  0  0  0  0  0
   -0.3618    0.1158   -1.3047 O   0  0  0  0  0  0  0  0  0  0  0  0
    0.4594    1.0664   -0.7015 C   0  0  0  0  0  0  0  0  0  0  0  0
    1.4690    0.3009    0.1557 C   0  0  0  0  0  0  0  0  0  0  0  0
    2.7153    0.2507   -0.4388 O   0  0  0  0  0  0  0  0  0  0  0  0
    0.9314   -1.1326    0.2281 C   0  0  0  0  0  0  0  0  0  0  0  0
   -0.3841   -1.0032    0.7235 O   0  0  0  0  0  0  0  0  0  0  0  0
   -2.5042    0.9948   -0.7638 H   0  0  0  0  0  0  0  0  0  0  0  0
   -3.2846   -0.4086    0.0013 H   0  0  0  0  0  0  0  0  0  0  0  0
   -2.2629    0.7249    0.9717 H   0  0  0  0  0  0  0  0  0  0  0  0
   -1.4845   -1.5271   -0.8773 H   0  0  0  0  0  0  0  0  0  0  0  0
    0.9753    1.6234   -1.4972 H   0  0  0  0  0  0  0  0  0  0  0  0
   -0.1621    1.7310   -0.0551 H   0  0  0  0  0  0  0  0  0  0  0  0
    1.4862    0.6695    1.1973 H   0  0  0  0  0  0  0  0  0  0  0  0
    3.4389    0.2291    0.2469 H   0  0  0  0  0  0  0  0  0  0  0  0
    0.9091   -1.4713   -0.8448 H   0  0  0  0  0  0  0  0  0  0  0  0
    1.5525   -1.7820    0.8435 H   0  0  0  0  0  0  0  0  0  0  0  0
  1  2  1  0
  2  3  1  0
  3  4  1  0
  4  5  1  0
  5  6  1  0
  5  7  1  0
  7  8  1  0
  8  2  1  0
  1  9  1  0
  1 10  1  0
  1 11  1  0
  2 12  1  0
  4 13  1  0
  4 14  1  0
  5 15  1  0
  6 16  1  0
  7 17  1  0
  7 18  1  0
M  END
