
     RDKit          3D

 19 21  0  0  0  0  0  0  0  0999 V2000
   -1.7868    0.9040    0.5714 C   0  0  0  0  0  0  0  0  0  0  0  0
   -1.1705   -0.1880   -0.2195 C   0  0  0  0  0  0  0  0  0  0  0  0
   -1.3154   -1.4880    0.3131 O   0  0  0  0  0  0  0  0  0  0  0  0
   -0.1434   -1.7913   -0.4248 C   0  0  0  0  0  0  0  0  0  0  0  0
    0.2711   -0.3860   -0.1971 C   0  0  0  0  0  0  0  0  0  0  0  0
    1.0885   -0.0468    0.9692 C   0  0  0  0  0  0  0  0  0  0  0  0
    1.9048    0.8628    0.0416 C   0  0  0  0  0  0  0  0  0  0  0  0
    2.4985    0.2543   -1.0262 O   0  0  0  0  0  0  0  0  0  0  0  0
    1.1391    0.2976   -1.1661 C   0  0  0  0  0  0  0  0  0  0  0  0
   -2.7314    0.6455    1.0793 H   0  0  0  0  0  0  0  0  0  0  0  0
   -2.0168    1.7490   -0.1429 H   0  0  0  0  0  0  0  0  0  0  0  0
   -1.1158    1.3557    1.3347 H   0  0  0  0  0  0  0  0  0  0  0  0
   -1.5836   -0.2122   -1.2634 H   0  0  0  0  0  0  0  0  0  0  0  0
    0.4920   -2.5543    0.0114 H   0  0  0  0  0  0  0  0  0  0  0  0
   -0.4609   -1.9853   -1.4728 H   0  0  0  0  0  0  0  0  0  0  0  0
    0.6480    0.4546    1.8257 H   0  0  0  0  0  0  0  0  0  0  0  0
    1.7281   -0.9010    1.3406 H   0  0  0  0  0  0  0  0  0  0  0  0
    1.9009    1.9326    0.2074 H   0  0  0  0  0  0  0  0  0  0  0  0
    0.6537    1.0969   -1.7816 H   0  0  0  0  0  0  0  0  0  0  0  0
  1  2  1  0
  2  3  1  0
  3  4  1  0
  4  5  1  0
  5  6  1  0
  6  7  1  0
  7  8  1  0
  8  9  1  0
  5  2  1  0
  9  7  1  0
  9  5  1  0
  1 10  1  0
  1 11  1  0
  1 12  1  0
  2 13  1  0
  4 14  1  0
  4 15  1  0
  6 16  1  0
  6 17  1  0
  7 18  1  0
  9 19  1  0
M  END
