
     RDKit          3D

 18 20  0  0  0  0  0  0  0  0999 V2000
    2.0565    0.3166   -0.0203 C   0  0  0  0  0  0  0  0  0  0  0  0
    1.0417   -0.7441    0.2730 C   0  0  0  0  0  0  0  0  0  0  0  0
    0.4293   -1.1759   -0.8719 O   0  0  0  0  0  0  0  0  0  0  0  0
   -0.8994   -0.8062   -0.8639 C   0  0  0  0  0  0  0  0  0  0  0  0
   -1.1401    0.6952   -1.0280 C   0  0  0  0  0  0  0  0  0  0  0  0
   -0.8747    0.8753    0.4188 C   0  0  0  0  0  0  0  0  0  0  0  0
   -0.0195   -0.1239    1.1642 C   0  0  0  0  0  0  0  0  0  0  0  0
   -1.2517   -0.6277    0.5730 C   0  0  0  0  0  0  0  0  0  0  0  0
    1.6421    1.0693   -0.7005 H   0  0  0  0  0  0  0  0  0  0  0  0
    2.9454   -0.1598   -0.5033 H   0  0  0  0  0  0  0  0  0  0  0  0
    2.3632    0.8728    0.9059 H   0  0  0  0  0  0  0  0  0  0  0  0
    1.5273   -1.5651    0.8518 H   0  0  0  0  0  0  0  0  0  0  0  0
   -1.5561   -1.4021   -1.4932 H   0  0  0  0  0  0  0  0  0  0  0  0
   -2.2417    0.8293   -1.2361 H   0  0  0  0  0  0  0  0  0  0  0  0
   -0.5095    1.1974   -1.7547 H   0  0  0  0  0  0  0  0  0  0  0  0
   -1.3999    1.5935    1.0428 H   0  0  0  0  0  0  0  0  0  0  0  0
    0.0915   -0.0607    2.2292 H   0  0  0  0  0  0  0  0  0  0  0  0
   -2.2044   -0.7838    1.0133 H   0  0  0  0  0  0  0  0  0  0  0  0
  1  2  1  0
  2  3  1  0
  3  4  1  0
  4  5  1  0
  5  6  1  0
  6  7  1  0
  7  8  1  0
  7  2  1  0
  8  4  1  0
  8  6  1  0
  1  9  1  0
  1 10  1  0
  1 11  1  0
  2 12  1  0
  4 13  1  0
  5 14  1  0
  5 15  1  0
  6 16  1  0
  7 17  1  0
  8 18  1  0
M  END
