
     RDKit          3D

 21 22  0  0  0  0  0  0  0  0999 V2000
    3.0062   -0.4734    0.0127 C   0  0  0  0  0  0  0  0  0  0  0  0
    1.6685    0.0776   -0.3990 C   0  0  0  0  0  0  0  0  0  0  0  0
    1.3611    1.3967    0.1633 O   0  0  0  0  0  0  0  0  0  0  0  0
    0.6728    0.3050    0.6267 C   0  0  0  0  0  0  0  0  0  0  0  0
   -0.7992    0.1306    0.2782 C   0  0  0  0  0  0  0  0  0  0  0  0
   -1.7252    0.3913    1.4106 C   0  0  0  0  0  0  0  0  0  0  0  0
   -1.0582   -0.9135   -0.7405 C   0  0  0  0  0  0  0  0  0  0  0  0
   -1.2493    0.4920   -1.1073 C   0  0  0  0  0  0  0  0  0  0  0  0
   -2.5538    0.9269   -1.3009 O   0  0  0  0  0  0  0  0  0  0  0  0
    3.7818   -0.3677   -0.7544 H   0  0  0  0  0  0  0  0  0  0  0  0
    3.3412    0.0593    0.9354 H   0  0  0  0  0  0  0  0  0  0  0  0
    2.8600   -1.5711    0.2230 H   0  0  0  0  0  0  0  0  0  0  0  0
    1.4575    0.0560   -1.4815 H   0  0  0  0  0  0  0  0  0  0  0  0
    0.9034   -0.1153    1.6489 H   0  0  0  0  0  0  0  0  0  0  0  0
   -1.7823    1.4944    1.6043 H   0  0  0  0  0  0  0  0  0  0  0  0
   -2.7358   -0.0011    1.2950 H   0  0  0  0  0  0  0  0  0  0  0  0
   -1.3005   -0.0550    2.3328 H   0  0  0  0  0  0  0  0  0  0  0  0
   -0.2064   -1.5004   -1.1750 H   0  0  0  0  0  0  0  0  0  0  0  0
   -1.9556   -1.5440   -0.5666 H   0  0  0  0  0  0  0  0  0  0  0  0
   -0.5099    1.0549   -1.7143 H   0  0  0  0  0  0  0  0  0  0  0  0
   -3.1763    0.1568   -1.2915 H   0  0  0  0  0  0  0  0  0  0  0  0
  1  2  1  0
  2  3  1  0
  3  4  1  0
  4  5  1  0
  5  6  1  0
  5  7  1  0
  7  8  1  0
  8  9  1  0
  4  2  1  0
  8  5  1  0
  1 10  1  0
  1 11  1  0
  1 12  1  0
  2 13  1  0
  4 14  1  0
  6 15  1  0
  6 16  1  0
  6 17  1  0
  7 18  1  0
  7 19  1  0
  8 20  1  0
  9 21  1  0
M  END
