
     RDKit          3D

 19 19  0  0  0  0  0  0  0  0999 V2000
   -2.0957   -1.1240    0.3411 C   0  0  0  0  0  0  0  0  0  0  0  0
   -1.1433   -0.2627   -0.4339 C   0  0  0  0  0  0  0  0  0  0  0  0
   -0.0075   -0.9386   -0.9028 O   0  0  0  0  0  0  0  0  0  0  0  0
    0.7851    0.1506   -0.5437 C   0  0  0  0  0  0  0  0  0  0  0  0
    2.1216   -0.2253    0.0646 C   0  0  0  0  0  0  0  0  0  0  0  0
    2.8644   -0.9762   -0.8334 O   0  0  0  0  0  0  0  0  0  0  0  0
   -0.2516    0.6026    0.4613 C   0  0  0  0  0  0  0  0  0  0  0  0
   -0.6723    2.0031    0.3751 C   0  0  0  0  0  0  0  0  0  0  0  0
    0.1048    2.8541    0.0014 O   0  0  0  0  0  0  0  0  0  0  0  0
   -1.8992   -2.1816    0.1191 H   0  0  0  0  0  0  0  0  0  0  0  0
   -3.1577   -0.9333    0.0125 H   0  0  0  0  0  0  0  0  0  0  0  0
   -2.0741   -0.9380    1.4310 H   0  0  0  0  0  0  0  0  0  0  0  0
   -1.5820    0.3078   -1.2707 H   0  0  0  0  0  0  0  0  0  0  0  0
    0.8647    0.9052   -1.3507 H   0  0  0  0  0  0  0  0  0  0  0  0
    2.0148   -0.7372    1.0235 H   0  0  0  0  0  0  0  0  0  0  0  0
    2.6727    0.7474    0.2008 H   0  0  0  0  0  0  0  0  0  0  0  0
    3.2463   -1.7936   -0.4556 H   0  0  0  0  0  0  0  0  0  0  0  0
   -0.1179    0.2189    1.4794 H   0  0  0  0  0  0  0  0  0  0  0  0
   -1.6731    2.3208    0.6374 H   0  0  0  0  0  0  0  0  0  0  0  0
  1  2  1  0
  2  3  1  0
  3  4  1  0
  4  5  1  0
  5  6  1  0
  4  7  1  0
  7  8  1  0
  8  9  2  0
  7  2  1  0
  1 10  1  0
  1 11  1  0
  1 12  1  0
  2 13  1  0
  4 14  1  0
  5 15  1  0
  5 16  1  0
  6 17  1  0
  7 18  1  0
  8 19  1  0
M  END
