
     RDKit          3D

 23 23  0  0  0  0  0  0  0  0999 V2000
   -1.4005   -1.2551    1.0922 C   0  0  0  0  0  0  0  0  0  0  0  0
   -1.2526    0.1175    0.4795 C   0  0  0  0  0  0  0  0  0  0  0  0
   -2.1709    0.3962   -0.5296 O   0  0  0  0  0  0  0  0  0  0  0  0
   -1.2175    1.2335   -1.0947 C   0  0  0  0  0  0  0  0  0  0  0  0
   -0.1568    0.2972   -0.5155 C   0  0  0  0  0  0  0  0  0  0  0  0
    0.0721   -0.8329   -1.4730 C   0  0  0  0  0  0  0  0  0  0  0  0
    1.0342    0.9750    0.0423 C   0  0  0  0  0  0  0  0  0  0  0  0
    1.6720    0.2618    1.1822 C   0  0  0  0  0  0  0  0  0  0  0  0
    2.0634   -1.0085    0.7065 O   0  0  0  0  0  0  0  0  0  0  0  0
   -1.6731   -2.0256    0.3724 H   0  0  0  0  0  0  0  0  0  0  0  0
   -0.4680   -1.4777    1.6420 H   0  0  0  0  0  0  0  0  0  0  0  0
   -2.1937   -1.1701    1.8900 H   0  0  0  0  0  0  0  0  0  0  0  0
   -1.2531    0.9349    1.2282 H   0  0  0  0  0  0  0  0  0  0  0  0
   -1.2958    1.1952   -2.2002 H   0  0  0  0  0  0  0  0  0  0  0  0
   -1.2343    2.2334   -0.6427 H   0  0  0  0  0  0  0  0  0  0  0  0
    0.6862   -0.4453   -2.3379 H   0  0  0  0  0  0  0  0  0  0  0  0
    0.6227   -1.6741   -1.0590 H   0  0  0  0  0  0  0  0  0  0  0  0
   -0.8953   -1.1531   -1.8853 H   0  0  0  0  0  0  0  0  0  0  0  0
    1.8135    1.1326   -0.7581 H   0  0  0  0  0  0  0  0  0  0  0  0
    0.8058    2.0210    0.3891 H   0  0  0  0  0  0  0  0  0  0  0  0
    2.6350    0.8053    1.4106 H   0  0  0  0  0  0  0  0  0  0  0  0
    1.1088    0.2390    2.1089 H   0  0  0  0  0  0  0  0  0  0  0  0
    2.6981   -0.8002   -0.0479 H   0  0  0  0  0  0  0  0  0  0  0  0
  1  2  1  0
  2  3  1  0
  3  4  1  0
  4  5  1  0
  5  6  1  0
  5  7  1  0
  7  8  1  0
  8  9  1  0
  5  2  1  0
  1 10  1  0
  1 11  1  0
  1 12  1  0
  2 13  1  0
  4 14  1  0
  4 15  1  0
  6 16  1  0
  6 17  1  0
  6 18  1  0
  7 19  1  0
  7 20  1  0
  8 21  1  0
  8 22  1  0
  9 23  1  0
M  END
