
     RDKit          3D

 21 22  0  0  0  0  0  0  0  0999 V2000
   -2.4216    0.1203   -0.2632 C   0  0  0  0  0  0  0  0  0  0  0  0
   -1.0104   -0.2897   -0.5393 C   0  0  0  0  0  0  0  0  0  0  0  0
   -0.2968    0.5721   -1.3206 O   0  0  0  0  0  0  0  0  0  0  0  0
    0.9382    0.9291   -0.8344 C   0  0  0  0  0  0  0  0  0  0  0  0
    0.7011    1.5618    0.5180 C   0  0  0  0  0  0  0  0  0  0  0  0
    0.1772    0.6879    1.3973 C   0  0  0  0  0  0  0  0  0  0  0  0
   -0.2421   -0.6062    0.7370 C   0  0  0  0  0  0  0  0  0  0  0  0
    1.0263   -1.3114    0.2311 C   0  0  0  0  0  0  0  0  0  0  0  0
    1.8127   -0.2961   -0.5367 C   0  0  0  0  0  0  0  0  0  0  0  0
   -2.8727    0.4592   -1.2057 H   0  0  0  0  0  0  0  0  0  0  0  0
   -2.9913   -0.8115    0.0238 H   0  0  0  0  0  0  0  0  0  0  0  0
   -2.4939    0.8524    0.5467 H   0  0  0  0  0  0  0  0  0  0  0  0
   -1.0639   -1.2741   -1.0917 H   0  0  0  0  0  0  0  0  0  0  0  0
    1.4123    1.6147   -1.5347 H   0  0  0  0  0  0  0  0  0  0  0  0
    0.9243    2.5764    0.7400 H   0  0  0  0  0  0  0  0  0  0  0  0
    0.0674    0.8780    2.4374 H   0  0  0  0  0  0  0  0  0  0  0  0
   -0.8038   -1.2174    1.4392 H   0  0  0  0  0  0  0  0  0  0  0  0
    1.5660   -1.8085    1.0343 H   0  0  0  0  0  0  0  0  0  0  0  0
    0.6466   -2.0606   -0.5241 H   0  0  0  0  0  0  0  0  0  0  0  0
    2.6037    0.0956    0.1677 H   0  0  0  0  0  0  0  0  0  0  0  0
    2.3207   -0.6719   -1.4221 H   0  0  0  0  0  0  0  0  0  0  0  0
  1  2  1  0
  2  3  1  0
  3  4  1  0
  4  5  1  0
  5  6  2  0
  6  7  1  0
  7  8  1  0
  8  9  1  0
  7  2  1  0
  9  4  1  0
  1 10  1  0
  1 11  1  0
  1 12  1  0
  2 13  1  0
  4 14  1  0
  5 15  1  0
  6 16  1  0
  7 17  1  0
  8 18  1  0
  8 19  1  0
  9 20  1  0
  9 21  1  0
M  END
