
     RDKit          3D

 19 20  0  0  0  0  0  0  0  0999 V2000
    2.5382   -0.4345   -0.4591 C   0  0  0  0  0  0  0  0  0  0  0  0
    1.4086    0.6011   -0.4642 C   0  0  0  0  0  0  0  0  0  0  0  0
    1.1102    1.0378    0.7942 O   0  0  0  0  0  0  0  0  0  0  0  0
   -0.2113    0.7535    1.0708 C   0  0  0  0  0  0  0  0  0  0  0  0
   -1.2355    1.5473    0.2990 C   0  0  0  0  0  0  0  0  0  0  0  0
   -0.7520    0.1611   -0.1449 C   0  0  0  0  0  0  0  0  0  0  0  0
   -1.7640   -0.9300   -0.0662 C   0  0  0  0  0  0  0  0  0  0  0  0
   -1.2068   -2.1753    0.2149 O   0  0  0  0  0  0  0  0  0  0  0  0
    0.2738    0.1204   -1.0666 O   0  0  0  0  0  0  0  0  0  0  0  0
    2.4368   -1.1077    0.4202 H   0  0  0  0  0  0  0  0  0  0  0  0
    3.5304    0.0577   -0.5089 H   0  0  0  0  0  0  0  0  0  0  0  0
    2.4488   -1.0684   -1.3754 H   0  0  0  0  0  0  0  0  0  0  0  0
    1.8252    1.4704   -1.0454 H   0  0  0  0  0  0  0  0  0  0  0  0
   -0.4944    0.4450    2.0953 H   0  0  0  0  0  0  0  0  0  0  0  0
   -0.8637    2.3978   -0.3161 H   0  0  0  0  0  0  0  0  0  0  0  0
   -2.2752    1.6111    0.6494 H   0  0  0  0  0  0  0  0  0  0  0  0
   -2.4900   -0.6484    0.7465 H   0  0  0  0  0  0  0  0  0  0  0  0
   -2.3856   -1.0383   -0.9877 H   0  0  0  0  0  0  0  0  0  0  0  0
   -1.8934   -2.8007    0.5364 H   0  0  0  0  0  0  0  0  0  0  0  0
  1  2  1  0
  2  3  1  0
  3  4  1  0
  4  5  1  0
  5  6  1  0
  6  7  1  0
  7  8  1  0
  6  9  1  0
  9  2  1  0
  6  4  1  0
  1 10  1  0
  1 11  1  0
  1 12  1  0
  2 13  1  0
  4 14  1  0
  5 15  1  0
  5 16  1  0
  7 17  1  0
  7 18  1  0
  8 19  1  0
M  END
