
     RDKit          3D

 23 24  0  0  0  0  0  0  0  0999 V2000
   -2.0844   -1.1090   -0.5012 C   0  0  0  0  0  0  0  0  0  0  0  0
   -0.7514   -0.7778    0.1436 C   0  0  0  0  0  0  0  0  0  0  0  0
    0.2429   -1.6649   -0.2516 O   0  0  0  0  0  0  0  0  0  0  0  0
    1.5044   -1.1893   -0.0146 C   0  0  0  0  0  0  0  0  0  0  0  0
    1.5704   -0.1301    1.0598 C   0  0  0  0  0  0  0  0  0  0  0  0
    1.0693    0.8326   -0.0232 C   0  0  0  0  0  0  0  0  0  0  0  0
    1.8930   -0.0542   -0.9745 C   0  0  0  0  0  0  0  0  0  0  0  0
   -0.3639    0.5919   -0.3728 C   0  0  0  0  0  0  0  0  0  0  0  0
   -1.2980    1.6732    0.0440 C   0  0  0  0  0  0  0  0  0  0  0  0
   -2.2755   -2.1875   -0.5410 H   0  0  0  0  0  0  0  0  0  0  0  0
   -2.2248   -0.5927   -1.4732 H   0  0  0  0  0  0  0  0  0  0  0  0
   -2.8934   -0.6845    0.1652 H   0  0  0  0  0  0  0  0  0  0  0  0
   -0.9074   -0.8102    1.2259 H   0  0  0  0  0  0  0  0  0  0  0  0
    2.2918   -1.9562    0.0255 H   0  0  0  0  0  0  0  0  0  0  0  0
    2.6095    0.0988    1.3150 H   0  0  0  0  0  0  0  0  0  0  0  0
    0.9267   -0.2479    1.9190 H   0  0  0  0  0  0  0  0  0  0  0  0
    1.4160    1.8560    0.0656 H   0  0  0  0  0  0  0  0  0  0  0  0
    1.4736   -0.1337   -1.9750 H   0  0  0  0  0  0  0  0  0  0  0  0
    2.9848    0.1453   -0.8949 H   0  0  0  0  0  0  0  0  0  0  0  0
   -0.4093    0.5094   -1.4991 H   0  0  0  0  0  0  0  0  0  0  0  0
   -0.7891    2.6302    0.1866 H   0  0  0  0  0  0  0  0  0  0  0  0
   -1.9103    1.3637    0.9405 H   0  0  0  0  0  0  0  0  0  0  0  0
   -2.0751    1.8367   -0.7599 H   0  0  0  0  0  0  0  0  0  0  0  0
  1  2  1  0
  2  3  1  0
  3  4  1  0
  4  5  1  0
  5  6  1  0
  6  7  1  0
  6  8  1  0
  8  9  1  0
  8  2  1  0
  7  4  1  0
  1 10  1  0
  1 11  1  0
  1 12  1  0
  2 13  1  0
  4 14  1  0
  5 15  1  0
  5 16  1  0
  6 17  1  0
  7 18  1  0
  7 19  1  0
  8 20  1  0
  9 21  1  0
  9 22  1  0
  9 23  1  0
M  END
