
     RDKit          3D

 23 24  0  0  0  0  0  0  0  0999 V2000
    2.3734    0.8981    0.2680 C   0  0  0  0  0  0  0  0  0  0  0  0
    1.1492    0.3765   -0.4761 C   0  0  0  0  0  0  0  0  0  0  0  0
    0.1262    1.2342   -0.2640 O   0  0  0  0  0  0  0  0  0  0  0  0
   -1.0382    0.7442    0.2226 C   0  0  0  0  0  0  0  0  0  0  0  0
   -2.1670    1.1893   -0.6998 C   0  0  0  0  0  0  0  0  0  0  0  0
   -1.0674   -0.7331    0.4525 C   0  0  0  0  0  0  0  0  0  0  0  0
   -0.4412   -1.4892   -0.6867 C   0  0  0  0  0  0  0  0  0  0  0  0
    0.8956   -1.0422   -0.1087 C   0  0  0  0  0  0  0  0  0  0  0  0
    0.1970   -1.0813    1.2481 C   0  0  0  0  0  0  0  0  0  0  0  0
    3.3003    0.4243   -0.0445 H   0  0  0  0  0  0  0  0  0  0  0  0
    2.1393    0.8400    1.3369 H   0  0  0  0  0  0  0  0  0  0  0  0
    2.4558    1.9843   -0.0291 H   0  0  0  0  0  0  0  0  0  0  0  0
    1.3970    0.3947   -1.5765 H   0  0  0  0  0  0  0  0  0  0  0  0
   -1.2297    1.2383    1.2207 H   0  0  0  0  0  0  0  0  0  0  0  0
   -3.0668    1.4439   -0.1137 H   0  0  0  0  0  0  0  0  0  0  0  0
   -2.3601    0.4594   -1.4979 H   0  0  0  0  0  0  0  0  0  0  0  0
   -1.8607    2.1431   -1.2207 H   0  0  0  0  0  0  0  0  0  0  0  0
   -1.9965   -1.1035    0.8610 H   0  0  0  0  0  0  0  0  0  0  0  0
   -0.5826   -2.5857   -0.5282 H   0  0  0  0  0  0  0  0  0  0  0  0
   -0.6602   -1.1537   -1.6961 H   0  0  0  0  0  0  0  0  0  0  0  0
    1.7304   -1.7087   -0.2410 H   0  0  0  0  0  0  0  0  0  0  0  0
    0.1918   -2.1369    1.6049 H   0  0  0  0  0  0  0  0  0  0  0  0
    0.5143   -0.3361    1.9684 H   0  0  0  0  0  0  0  0  0  0  0  0
  1  2  1  0
  2  3  1  0
  3  4  1  0
  4  5  1  0
  4  6  1  0
  6  7  1  0
  7  8  1  0
  8  9  1  0
  8  2  1  0
  9  6  1  0
  1 10  1  0
  1 11  1  0
  1 12  1  0
  2 13  1  0
  4 14  1  0
  5 15  1  0
  5 16  1  0
  5 17  1  0
  6 18  1  0
  7 19  1  0
  7 20  1  0
  8 21  1  0
  9 22  1  0
  9 23  1  0
M  END
