
     RDKit          3D

 21 23  0  0  0  0  0  0  0  0999 V2000
    2.7724    0.1701    0.0349 C   0  0  0  0  0  0  0  0  0  0  0  0
    1.6551   -0.7707   -0.3539 C   0  0  0  0  0  0  0  0  0  0  0  0
    0.9602   -0.3306   -1.5317 O   0  0  0  0  0  0  0  0  0  0  0  0
    0.2603   -0.3841   -0.3679 C   0  0  0  0  0  0  0  0  0  0  0  0
   -0.7882   -1.4253   -0.1107 C   0  0  0  0  0  0  0  0  0  0  0  0
   -2.0668   -0.6115   -0.1765 C   0  0  0  0  0  0  0  0  0  0  0  0
   -1.6918    0.5968    0.6613 C   0  0  0  0  0  0  0  0  0  0  0  0
   -1.1879    1.7623   -0.0751 C   0  0  0  0  0  0  0  0  0  0  0  0
   -0.1790    0.7996    0.3947 C   0  0  0  0  0  0  0  0  0  0  0  0
    2.4222    0.9655    0.7417 H   0  0  0  0  0  0  0  0  0  0  0  0
    3.6501   -0.3883    0.4439 H   0  0  0  0  0  0  0  0  0  0  0  0
    3.1364    0.7290   -0.8638 H   0  0  0  0  0  0  0  0  0  0  0  0
    1.8841   -1.8536   -0.2955 H   0  0  0  0  0  0  0  0  0  0  0  0
   -0.7715   -2.2716   -0.7950 H   0  0  0  0  0  0  0  0  0  0  0  0
   -0.6812   -1.7298    0.9654 H   0  0  0  0  0  0  0  0  0  0  0  0
   -2.3236   -0.3383   -1.2123 H   0  0  0  0  0  0  0  0  0  0  0  0
   -2.9041   -1.1789    0.2964 H   0  0  0  0  0  0  0  0  0  0  0  0
   -1.9808    0.6064    1.7142 H   0  0  0  0  0  0  0  0  0  0  0  0
   -1.1358    2.7755    0.3858 H   0  0  0  0  0  0  0  0  0  0  0  0
   -1.4590    1.8188   -1.1545 H   0  0  0  0  0  0  0  0  0  0  0  0
    0.4290    1.0584    1.2984 H   0  0  0  0  0  0  0  0  0  0  0  0
  1  2  1  0
  2  3  1  0
  3  4  1  0
  4  5  1  0
  5  6  1  0
  6  7  1  0
  7  8  1  0
  8  9  1  0
  4  2  1  0
  9  7  1  0
  9  4  1  0
  1 10  1  0
  1 11  1  0
  1 12  1  0
  2 13  1  0
  5 14  1  0
  5 15  1  0
  6 16  1  0
  6 17  1  0
  7 18  1  0
  8 19  1  0
  8 20  1  0
  9 21  1  0
M  END
