
     RDKit          3D

 21 23  0  0  0  0  0  0  0  0999 V2000
    2.3919    0.9225    0.4147 C   0  0  0  0  0  0  0  0  0  0  0  0
    1.3612   -0.1785    0.2771 C   0  0  0  0  0  0  0  0  0  0  0  0
    0.6125   -0.3493    1.4060 O   0  0  0  0  0  0  0  0  0  0  0  0
   -0.6897   -0.6763    1.0239 C   0  0  0  0  0  0  0  0  0  0  0  0
   -0.7741   -1.8763    0.1010 C   0  0  0  0  0  0  0  0  0  0  0  0
   -0.6662   -0.9099   -1.0594 C   0  0  0  0  0  0  0  0  0  0  0  0
    0.4035    0.1142   -0.8755 C   0  0  0  0  0  0  0  0  0  0  0  0
   -0.8856    0.2019   -0.1705 C   0  0  0  0  0  0  0  0  0  0  0  0
   -1.8460    1.2837   -0.2626 C   0  0  0  0  0  0  0  0  0  0  0  0
    2.6206    1.0635    1.5026 H   0  0  0  0  0  0  0  0  0  0  0  0
    2.0212    1.9010    0.0425 H   0  0  0  0  0  0  0  0  0  0  0  0
    3.3214    0.6930   -0.1306 H   0  0  0  0  0  0  0  0  0  0  0  0
    1.8798   -1.1281    0.0378 H   0  0  0  0  0  0  0  0  0  0  0  0
   -1.4279   -0.6031    1.8091 H   0  0  0  0  0  0  0  0  0  0  0  0
   -1.6883   -2.4655    0.1587 H   0  0  0  0  0  0  0  0  0  0  0  0
    0.1728   -2.4719    0.2012 H   0  0  0  0  0  0  0  0  0  0  0  0
   -1.1520   -1.1032   -2.0065 H   0  0  0  0  0  0  0  0  0  0  0  0
    0.6772    0.8318   -1.6446 H   0  0  0  0  0  0  0  0  0  0  0  0
   -2.1827    1.4704   -1.3036 H   0  0  0  0  0  0  0  0  0  0  0  0
   -1.3927    2.2300    0.1550 H   0  0  0  0  0  0  0  0  0  0  0  0
   -2.7568    1.0501    0.3237 H   0  0  0  0  0  0  0  0  0  0  0  0
  1  2  1  0
  2  3  1  0
  3  4  1  0
  4  5  1  0
  5  6  1  0
  6  7  1  0
  7  8  1  0
  8  9  1  0
  7  2  1  0
  8  4  1  0
  8  6  1  0
  1 10  1  0
  1 11  1  0
  1 12  1  0
  2 13  1  0
  4 14  1  0
  5 15  1  0
  5 16  1  0
  6 17  1  0
  7 18  1  0
  9 19  1  0
  9 20  1  0
  9 21  1  0
M  END
