
     RDKit          3D

 19 19  0  0  0  0  0  0  0  0999 V2000
    3.0212    0.1227   -0.1351 C   0  0  0  0  0  0  0  0  0  0  0  0
    1.7817   -0.6104    0.2809 C   0  0  0  0  0  0  0  0  0  0  0  0
    1.2295   -0.2172    1.5125 O   0  0  0  0  0  0  0  0  0  0  0  0
    0.4713    0.0868    0.3792 C   0  0  0  0  0  0  0  0  0  0  0  0
   -0.7779   -0.7009    0.2146 C   0  0  0  0  0  0  0  0  0  0  0  0
   -1.9903    0.1899    0.3494 C   0  0  0  0  0  0  0  0  0  0  0  0
   -3.1160   -0.5753    0.1912 O   0  0  0  0  0  0  0  0  0  0  0  0
   -1.9968    1.2998   -0.6081 C   0  0  0  0  0  0  0  0  0  0  0  0
   -2.9316    1.4093   -1.3790 O   0  0  0  0  0  0  0  0  0  0  0  0
    3.7959   -0.5861   -0.4983 H   0  0  0  0  0  0  0  0  0  0  0  0
    2.7459    0.8270   -0.9407 H   0  0  0  0  0  0  0  0  0  0  0  0
    3.4056    0.7254    0.7072 H   0  0  0  0  0  0  0  0  0  0  0  0
    1.7219   -1.6831    0.0007 H   0  0  0  0  0  0  0  0  0  0  0  0
    0.4696    1.1258   -0.0002 H   0  0  0  0  0  0  0  0  0  0  0  0
   -0.8406   -1.2254   -0.7673 H   0  0  0  0  0  0  0  0  0  0  0  0
   -0.8441   -1.4629    1.0132 H   0  0  0  0  0  0  0  0  0  0  0  0
   -2.0374    0.6445    1.3777 H   0  0  0  0  0  0  0  0  0  0  0  0
   -2.8889   -1.4238   -0.2747 H   0  0  0  0  0  0  0  0  0  0  0  0
   -1.2191    2.0537   -0.6922 H   0  0  0  0  0  0  0  0  0  0  0  0
  1  2  1  0
  2  3  1  0
  3  4  1  0
  4  5  1  0
  5  6  1  0
  6  7  1  0
  6  8  1  0
  8  9  2  0
  4  2  1  0
  1 10  1  0
  1 11  1  0
  1 12  1  0
  2 13  1  0
  4 14  1  0
  5 15  1  0
  5 16  1  0
  6 17  1  0
  7 18  1  0
  8 19  1  0
M  END
