
     RDKit          3D

 19 20  0  0  0  0  0  0  0  0999 V2000
   -2.2616    0.4757   -0.3779 C   0  0  0  0  0  0  0  0  0  0  0  0
   -1.2033   -0.6257   -0.4665 C   0  0  0  0  0  0  0  0  0  0  0  0
   -1.3131   -1.4168    0.7026 O   0  0  0  0  0  0  0  0  0  0  0  0
   -0.0597   -0.9993    1.2123 C   0  0  0  0  0  0  0  0  0  0  0  0
    0.0919   -0.1496    0.0225 C   0  0  0  0  0  0  0  0  0  0  0  0
    0.5304    1.2345   -0.0013 C   0  0  0  0  0  0  0  0  0  0  0  0
    1.3040    0.0918   -0.7209 C   0  0  0  0  0  0  0  0  0  0  0  0
    2.5770   -0.2822   -0.0376 C   0  0  0  0  0  0  0  0  0  0  0  0
    3.5959   -0.4916   -0.6458 O   0  0  0  0  0  0  0  0  0  0  0  0
   -2.6963    0.6915   -1.3902 H   0  0  0  0  0  0  0  0  0  0  0  0
   -1.8201    1.4263   -0.0113 H   0  0  0  0  0  0  0  0  0  0  0  0
   -3.0652    0.2114    0.3408 H   0  0  0  0  0  0  0  0  0  0  0  0
   -1.2648   -1.2478   -1.3555 H   0  0  0  0  0  0  0  0  0  0  0  0
   -0.1099   -0.4758    2.1651 H   0  0  0  0  0  0  0  0  0  0  0  0
    0.6229   -1.8841    1.1834 H   0  0  0  0  0  0  0  0  0  0  0  0
    0.0799    1.9737   -0.7172 H   0  0  0  0  0  0  0  0  0  0  0  0
    0.9982    1.6858    0.8687 H   0  0  0  0  0  0  0  0  0  0  0  0
    1.3799    0.1579   -1.8162 H   0  0  0  0  0  0  0  0  0  0  0  0
    2.6136   -0.3757    1.0449 H   0  0  0  0  0  0  0  0  0  0  0  0
  1  2  1  0
  2  3  1  0
  3  4  1  0
  4  5  1  0
  5  6  1  0
  6  7  1  0
  7  8  1  0
  8  9  2  0
  5  2  1  0
  7  5  1  0
  1 10  1  0
  1 11  1  0
  1 12  1  0
  2 13  1  0
  4 14  1  0
  4 15  1  0
  6 16  1  0
  6 17  1  0
  7 18  1  0
  8 19  1  0
M  END
