
     RDKit          3D

 19 19  0  0  0  0  0  0  0  0999 V2000
   -1.7714   -0.8980    0.3244 C   0  0  0  0  0  0  0  0  0  0  0  0
   -0.7289   -0.1913   -0.5474 C   0  0  0  0  0  0  0  0  0  0  0  0
   -1.1612    1.0688   -0.8638 O   0  0  0  0  0  0  0  0  0  0  0  0
   -0.4032    1.9955   -0.2026 C   0  0  0  0  0  0  0  0  0  0  0  0
    0.9006    1.3375   -0.0401 C   0  0  0  0  0  0  0  0  0  0  0  0
    1.9731    1.8583   -0.0580 O   0  0  0  0  0  0  0  0  0  0  0  0
    0.5952   -0.0863    0.1471 C   0  0  0  0  0  0  0  0  0  0  0  0
    1.6546   -0.9729   -0.4468 C   0  0  0  0  0  0  0  0  0  0  0  0
    0.4332   -0.3469    1.5021 O   0  0  0  0  0  0  0  0  0  0  0  0
   -1.7080   -0.5088    1.3478 H   0  0  0  0  0  0  0  0  0  0  0  0
   -2.7796   -0.7116   -0.0584 H   0  0  0  0  0  0  0  0  0  0  0  0
   -1.5085   -1.9914    0.2807 H   0  0  0  0  0  0  0  0  0  0  0  0
   -0.6607   -0.8084   -1.4819 H   0  0  0  0  0  0  0  0  0  0  0  0
   -0.3110    2.9620   -0.7306 H   0  0  0  0  0  0  0  0  0  0  0  0
   -0.8246    2.1493    0.8238 H   0  0  0  0  0  0  0  0  0  0  0  0
    2.6342   -0.6536   -0.0293 H   0  0  0  0  0  0  0  0  0  0  0  0
    1.6832   -0.8856   -1.5320 H   0  0  0  0  0  0  0  0  0  0  0  0
    1.4793   -2.0179   -0.1254 H   0  0  0  0  0  0  0  0  0  0  0  0
    0.5038   -1.2986    1.6903 H   0  0  0  0  0  0  0  0  0  0  0  0
  1  2  1  0
  2  3  1  0
  3  4  1  0
  4  5  1  0
  5  6  2  0
  5  7  1  0
  7  8  1  0
  7  9  1  0
  7  2  1  0
  1 10  1  0
  1 11  1  0
  1 12  1  0
  2 13  1  0
  4 14  1  0
  4 15  1  0
  8 16  1  0
  8 17  1  0
  8 18  1  0
  9 19  1  0
M  END
