
     RDKit          3D

 21 22  0  0  0  0  0  0  0  0999 V2000
    1.9215   -1.0920    0.1914 C   0  0  0  0  0  0  0  0  0  0  0  0
    1.0255    0.0703    0.4590 C   0  0  0  0  0  0  0  0  0  0  0  0
    0.1016   -0.1214    1.4599 O   0  0  0  0  0  0  0  0  0  0  0  0
   -1.0263    0.6341    1.0743 C   0  0  0  0  0  0  0  0  0  0  0  0
   -0.7023    1.9310    0.7695 O   0  0  0  0  0  0  0  0  0  0  0  0
   -0.0662    1.9861   -0.4525 C   0  0  0  0  0  0  0  0  0  0  0  0
    0.2092    0.4974   -0.7247 C   0  0  0  0  0  0  0  0  0  0  0  0
   -1.1866    0.0332   -0.3397 C   0  0  0  0  0  0  0  0  0  0  0  0
   -1.3187   -1.4473   -0.2763 C   0  0  0  0  0  0  0  0  0  0  0  0
    2.8732   -1.0201    0.7869 H   0  0  0  0  0  0  0  0  0  0  0  0
    1.4946   -2.0736    0.3576 H   0  0  0  0  0  0  0  0  0  0  0  0
    2.2439   -1.0357   -0.8708 H   0  0  0  0  0  0  0  0  0  0  0  0
    1.6987    0.9041    0.8228 H   0  0  0  0  0  0  0  0  0  0  0  0
   -1.8894    0.4788    1.6921 H   0  0  0  0  0  0  0  0  0  0  0  0
    0.9071    2.4599   -0.3267 H   0  0  0  0  0  0  0  0  0  0  0  0
   -0.6810    2.4177   -1.2598 H   0  0  0  0  0  0  0  0  0  0  0  0
    0.5455    0.2627   -1.6908 H   0  0  0  0  0  0  0  0  0  0  0  0
   -1.9774    0.5305   -0.8989 H   0  0  0  0  0  0  0  0  0  0  0  0
   -0.8909   -1.8898   -1.1933 H   0  0  0  0  0  0  0  0  0  0  0  0
   -2.4024   -1.6868   -0.2363 H   0  0  0  0  0  0  0  0  0  0  0  0
   -0.8797   -1.8391    0.6562 H   0  0  0  0  0  0  0  0  0  0  0  0
  1  2  1  0
  2  3  1  0
  3  4  1  0
  4  5  1  0
  5  6  1  0
  6  7  1  0
  7  8  1  0
  8  9  1  0
  7  2  1  0
  8  4  1  0
  1 10  1  0
  1 11  1  0
  1 12  1  0
  2 13  1  0
  4 14  1  0
  6 15  1  0
  6 16  1  0
  7 17  1  0
  8 18  1  0
  9 19  1  0
  9 20  1  0
  9 21  1  0
M  END
