
     RDKit          3D

 21 22  0  0  0  0  0  0  0  0999 V2000
    2.5653   -0.2851   -0.2027 C   0  0  0  0  0  0  0  0  0  0  0  0
    1.0974   -0.5695   -0.2167 C   0  0  0  0  0  0  0  0  0  0  0  0
    0.6073   -1.1173   -1.4181 O   0  0  0  0  0  0  0  0  0  0  0  0
   -0.5553   -0.3403   -1.1858 C   0  0  0  0  0  0  0  0  0  0  0  0
   -1.5119   -1.0647   -0.3199 C   0  0  0  0  0  0  0  0  0  0  0  0
   -1.9612   -0.3320    0.8761 C   0  0  0  0  0  0  0  0  0  0  0  0
   -1.4052    0.7832    1.2927 C   0  0  0  0  0  0  0  0  0  0  0  0
   -0.2788    1.4085    0.6039 C   0  0  0  0  0  0  0  0  0  0  0  0
    0.3036    0.6603   -0.5160 C   0  0  0  0  0  0  0  0  0  0  0  0
    3.0509   -1.0847    0.4251 H   0  0  0  0  0  0  0  0  0  0  0  0
    2.7216    0.6628    0.3823 H   0  0  0  0  0  0  0  0  0  0  0  0
    3.0297   -0.2380   -1.1936 H   0  0  0  0  0  0  0  0  0  0  0  0
    0.7338   -1.1165    0.6620 H   0  0  0  0  0  0  0  0  0  0  0  0
   -0.9814    0.0468   -2.1392 H   0  0  0  0  0  0  0  0  0  0  0  0
   -1.1392   -2.0984   -0.0628 H   0  0  0  0  0  0  0  0  0  0  0  0
   -2.4386   -1.2680   -0.9335 H   0  0  0  0  0  0  0  0  0  0  0  0
   -2.7916   -0.7366    1.4366 H   0  0  0  0  0  0  0  0  0  0  0  0
   -1.7754    1.2995    2.1961 H   0  0  0  0  0  0  0  0  0  0  0  0
    0.5324    1.6481    1.3527 H   0  0  0  0  0  0  0  0  0  0  0  0
   -0.6016    2.4188    0.2295 H   0  0  0  0  0  0  0  0  0  0  0  0
    0.7983    1.3232   -1.2686 H   0  0  0  0  0  0  0  0  0  0  0  0
  1  2  1  0
  2  3  1  0
  3  4  1  0
  4  5  1  0
  5  6  1  0
  6  7  2  0
  7  8  1  0
  8  9  1  0
  9  2  1  0
  9  4  1  0
  1 10  1  0
  1 11  1  0
  1 12  1  0
  2 13  1  0
  4 14  1  0
  5 15  1  0
  5 16  1  0
  6 17  1  0
  7 18  1  0
  8 19  1  0
  8 20  1  0
  9 21  1  0
M  END
