
     RDKit          3D

 21 22  0  0  0  0  0  0  0  0999 V2000
   -2.4768   -0.5794   -0.1150 C   0  0  0  0  0  0  0  0  0  0  0  0
   -1.1542   -0.7688    0.5473 C   0  0  0  0  0  0  0  0  0  0  0  0
   -0.8938    0.1226    1.5693 O   0  0  0  0  0  0  0  0  0  0  0  0
   -0.1363    1.1670    1.0170 C   0  0  0  0  0  0  0  0  0  0  0  0
    0.7715    0.5183    0.0110 C   0  0  0  0  0  0  0  0  0  0  0  0
    1.4361    1.4300   -0.9772 C   0  0  0  0  0  0  0  0  0  0  0  0
    1.3499   -0.8073    0.2825 C   0  0  0  0  0  0  0  0  0  0  0  0
    2.3771   -1.2883   -0.4870 O   0  0  0  0  0  0  0  0  0  0  0  0
    0.0165   -0.6832   -0.4119 C   0  0  0  0  0  0  0  0  0  0  0  0
   -2.4234   -0.8993   -1.1604 H   0  0  0  0  0  0  0  0  0  0  0  0
   -2.7478    0.4876   -0.0504 H   0  0  0  0  0  0  0  0  0  0  0  0
   -3.2263   -1.2378    0.4120 H   0  0  0  0  0  0  0  0  0  0  0  0
   -1.0849   -1.7987    1.0081 H   0  0  0  0  0  0  0  0  0  0  0  0
    0.3925    1.7250    1.7942 H   0  0  0  0  0  0  0  0  0  0  0  0
   -0.8910    1.8189    0.4895 H   0  0  0  0  0  0  0  0  0  0  0  0
    2.3775    1.0091   -1.3966 H   0  0  0  0  0  0  0  0  0  0  0  0
    1.7004    2.3718   -0.4316 H   0  0  0  0  0  0  0  0  0  0  0  0
    0.7900    1.7381   -1.8135 H   0  0  0  0  0  0  0  0  0  0  0  0
    1.3829   -1.1597    1.3445 H   0  0  0  0  0  0  0  0  0  0  0  0
    2.5420   -2.2388   -0.1993 H   0  0  0  0  0  0  0  0  0  0  0  0
   -0.1019   -0.9271   -1.4634 H   0  0  0  0  0  0  0  0  0  0  0  0
  1  2  1  0
  2  3  1  0
  3  4  1  0
  4  5  1  0
  5  6  1  0
  5  7  1  0
  7  8  1  0
  7  9  1  0
  9  2  1  0
  9  5  1  0
  1 10  1  0
  1 11  1  0
  1 12  1  0
  2 13  1  0
  4 14  1  0
  4 15  1  0
  6 16  1  0
  6 17  1  0
  6 18  1  0
  7 19  1  0
  8 20  1  0
  9 21  1  0
M  END
