
     RDKit          3D

 15 16  0  0  0  0  0  0  0  0999 V2000
   -1.7813   -0.1882   -0.2523 C   0  0  0  0  0  0  0  0  0  0  0  0
   -0.5882   -0.2890    0.6765 C   0  0  0  0  0  0  0  0  0  0  0  0
    0.2152   -1.3067    0.2315 O   0  0  0  0  0  0  0  0  0  0  0  0
    1.2585   -0.7938   -0.4798 C   0  0  0  0  0  0  0  0  0  0  0  0
    1.3544    0.6657   -0.2714 C   0  0  0  0  0  0  0  0  0  0  0  0
    0.3576    1.5348   -0.6164 O   0  0  0  0  0  0  0  0  0  0  0  0
    0.1933    0.9881    0.6417 C   0  0  0  0  0  0  0  0  0  0  0  0
   -2.6505   -0.7626    0.0992 H   0  0  0  0  0  0  0  0  0  0  0  0
   -2.0938    0.8690   -0.3114 H   0  0  0  0  0  0  0  0  0  0  0  0
   -1.5257   -0.5890   -1.2594 H   0  0  0  0  0  0  0  0  0  0  0  0
   -0.9786   -0.4430    1.7114 H   0  0  0  0  0  0  0  0  0  0  0  0
    2.2005   -1.2636   -0.0861 H   0  0  0  0  0  0  0  0  0  0  0  0
    1.2205   -1.1094   -1.5547 H   0  0  0  0  0  0  0  0  0  0  0  0
    2.3419    1.1648   -0.0770 H   0  0  0  0  0  0  0  0  0  0  0  0
    0.4760    1.5229    1.5483 H   0  0  0  0  0  0  0  0  0  0  0  0
  1  2  1  0
  2  3  1  0
  3  4  1  0
  4  5  1  0
  5  6  1  0
  6  7  1  0
  7  2  1  0
  7  5  1  0
  1  8  1  0
  1  9  1  0
  1 10  1  0
  2 11  1  0
  4 12  1  0
  4 13  1  0
  5 14  1  0
  7 15  1  0
M  END
