
     RDKit          3D

 16 16  0  0  0  0  0  0  0  0999 V2000
   -2.1765    0.7547    0.7715 C   0  0  0  0  0  0  0  0  0  0  0  0
   -2.0789   -0.6716    0.3435 C   0  0  0  0  0  0  0  0  0  0  0  0
   -1.7563   -0.7550   -1.1046 O   0  0  0  0  0  0  0  0  0  0  0  0
   -0.8915   -1.3235   -0.0115 C   0  0  0  0  0  0  0  0  0  0  0  0
    0.3911   -0.5909    0.0632 C   0  0  0  0  0  0  0  0  0  0  0  0
    1.4337    0.0183    0.1142 C   0  0  0  0  0  0  0  0  0  0  0  0
    2.6923    0.7722    0.1960 C   0  0  0  0  0  0  0  0  0  0  0  0
    3.5039    0.2932    1.2329 O   0  0  0  0  0  0  0  0  0  0  0  0
   -2.0124    0.8295    1.8628 H   0  0  0  0  0  0  0  0  0  0  0  0
   -3.2111    1.1180    0.5507 H   0  0  0  0  0  0  0  0  0  0  0  0
   -1.4784    1.3964    0.1837 H   0  0  0  0  0  0  0  0  0  0  0  0
   -3.0307   -1.2502    0.4816 H   0  0  0  0  0  0  0  0  0  0  0  0
   -0.8594   -2.4185   -0.1553 H   0  0  0  0  0  0  0  0  0  0  0  0
    3.2936    0.6405   -0.7477 H   0  0  0  0  0  0  0  0  0  0  0  0
    2.4726    1.8332    0.2832 H   0  0  0  0  0  0  0  0  0  0  0  0
    3.7079   -0.6463    1.1041 H   0  0  0  0  0  0  0  0  0  0  0  0
  1  2  1  0
  2  3  1  0
  3  4  1  0
  4  5  1  0
  5  6  3  0
  6  7  1  0
  7  8  1  0
  4  2  1  0
  1  9  1  0
  1 10  1  0
  1 11  1  0
  2 12  1  0
  4 13  1  0
  7 14  1  0
  7 15  1  0
  8 16  1  0
M  END
