
     RDKit          3D

 19 20  0  0  0  0  0  0  0  0999 V2000
   -2.3543   -0.7707   -0.2800 C   0  0  0  0  0  0  0  0  0  0  0  0
   -0.9232   -0.3309   -0.5894 C   0  0  0  0  0  0  0  0  0  0  0  0
   -0.0539   -1.3609   -0.3938 O   0  0  0  0  0  0  0  0  0  0  0  0
    0.9977   -0.9487    0.3761 C   0  0  0  0  0  0  0  0  0  0  0  0
    1.9286    0.1164   -0.0470 C   0  0  0  0  0  0  0  0  0  0  0  0
    3.2054    0.0833    0.5161 O   0  0  0  0  0  0  0  0  0  0  0  0
    0.7585    0.3978    0.9025 C   0  0  0  0  0  0  0  0  0  0  0  0
   -0.5363    0.8226    0.2706 C   0  0  0  0  0  0  0  0  0  0  0  0
   -0.3102    1.9890   -0.4554 O   0  0  0  0  0  0  0  0  0  0  0  0
   -2.5150   -0.9484    0.7894 H   0  0  0  0  0  0  0  0  0  0  0  0
   -3.0434    0.0433   -0.6147 H   0  0  0  0  0  0  0  0  0  0  0  0
   -2.6093   -1.6546   -0.8973 H   0  0  0  0  0  0  0  0  0  0  0  0
   -0.9516    0.0275   -1.6478 H   0  0  0  0  0  0  0  0  0  0  0  0
    1.3724   -1.7042    1.0923 H   0  0  0  0  0  0  0  0  0  0  0  0
    1.8368    0.6700   -0.9837 H   0  0  0  0  0  0  0  0  0  0  0  0
    3.4411   -0.8972    0.5651 H   0  0  0  0  0  0  0  0  0  0  0  0
    1.0663    0.7571    1.8793 H   0  0  0  0  0  0  0  0  0  0  0  0
   -1.2535    1.0268    1.0910 H   0  0  0  0  0  0  0  0  0  0  0  0
   -0.0562    2.6819    0.1991 H   0  0  0  0  0  0  0  0  0  0  0  0
  1  2  1  0
  2  3  1  0
  3  4  1  0
  4  5  1  0
  5  6  1  0
  5  7  1  0
  7  8  1  0
  8  9  1  0
  8  2  1  0
  7  4  1  0
  1 10  1  0
  1 11  1  0
  1 12  1  0
  2 13  1  0
  4 14  1  0
  5 15  1  0
  6 16  1  0
  7 17  1  0
  8 18  1  0
  9 19  1  0
M  END
