
     RDKit          3D

 21 22  0  0  0  0  0  0  0  0999 V2000
    2.5537   -0.5742   -0.1226 C   0  0  0  0  0  0  0  0  0  0  0  0
    1.0719   -0.4564   -0.1121 C   0  0  0  0  0  0  0  0  0  0  0  0
    0.4217   -1.3264    0.7290 O   0  0  0  0  0  0  0  0  0  0  0  0
   -0.8752   -0.8291    0.7376 C   0  0  0  0  0  0  0  0  0  0  0  0
   -1.7145   -1.3640   -0.3946 C   0  0  0  0  0  0  0  0  0  0  0  0
   -0.8015    0.6591    0.7843 C   0  0  0  0  0  0  0  0  0  0  0  0
   -0.4984    1.4998   -0.3747 C   0  0  0  0  0  0  0  0  0  0  0  0
   -0.8238    2.8560   -0.2739 O   0  0  0  0  0  0  0  0  0  0  0  0
    0.6583    0.9319    0.3470 C   0  0  0  0  0  0  0  0  0  0  0  0
    3.0274   -0.6358    0.8682 H   0  0  0  0  0  0  0  0  0  0  0  0
    2.9593    0.3440   -0.6322 H   0  0  0  0  0  0  0  0  0  0  0  0
    2.8420   -1.4160   -0.7975 H   0  0  0  0  0  0  0  0  0  0  0  0
    0.7055   -0.6641   -1.1482 H   0  0  0  0  0  0  0  0  0  0  0  0
   -1.3937   -1.1600    1.6855 H   0  0  0  0  0  0  0  0  0  0  0  0
   -2.2547   -2.3108   -0.1108 H   0  0  0  0  0  0  0  0  0  0  0  0
   -1.1269   -1.6225   -1.2913 H   0  0  0  0  0  0  0  0  0  0  0  0
   -2.5091   -0.6518   -0.7009 H   0  0  0  0  0  0  0  0  0  0  0  0
   -1.0620    1.1909    1.7398 H   0  0  0  0  0  0  0  0  0  0  0  0
   -0.7048    1.0995   -1.3970 H   0  0  0  0  0  0  0  0  0  0  0  0
   -1.7732    2.9261   -0.5563 H   0  0  0  0  0  0  0  0  0  0  0  0
    1.2979    1.5037    1.0209 H   0  0  0  0  0  0  0  0  0  0  0  0
  1  2  1  0
  2  3  1  0
  3  4  1  0
  4  5  1  0
  4  6  1  0
  6  7  1  0
  7  8  1  0
  7  9  1  0
  9  2  1  0
  9  6  1  0
  1 10  1  0
  1 11  1  0
  1 12  1  0
  2 13  1  0
  4 14  1  0
  5 15  1  0
  5 16  1  0
  5 17  1  0
  6 18  1  0
  7 19  1  0
  8 20  1  0
  9 21  1  0
M  END
