
     RDKit          3D

 18 19  0  0  0  0  0  0  0  0999 V2000
    2.1906   -0.3279   -0.2572 C   0  0  0  0  0  0  0  0  0  0  0  0
    0.8166    0.1927   -0.3392 C   0  0  0  0  0  0  0  0  0  0  0  0
    0.5936    1.3405    0.4522 O   0  0  0  0  0  0  0  0  0  0  0  0
   -0.7445    1.5730    0.0479 C   0  0  0  0  0  0  0  0  0  0  0  0
   -1.4219    0.2837    0.3589 C   0  0  0  0  0  0  0  0  0  0  0  0
   -1.4761   -0.8452   -0.5739 C   0  0  0  0  0  0  0  0  0  0  0  0
   -0.2441   -0.7247    0.2233 C   0  0  0  0  0  0  0  0  0  0  0  0
   -0.0020   -1.4471    1.3624 O   0  0  0  0  0  0  0  0  0  0  0  0
    2.7900    0.0028   -1.1548 H   0  0  0  0  0  0  0  0  0  0  0  0
    2.1686   -1.4478   -0.3486 H   0  0  0  0  0  0  0  0  0  0  0  0
    2.6718    0.0035    0.6678 H   0  0  0  0  0  0  0  0  0  0  0  0
    0.5799    0.4787   -1.3683 H   0  0  0  0  0  0  0  0  0  0  0  0
   -0.6975    1.6849   -1.0503 H   0  0  0  0  0  0  0  0  0  0  0  0
   -1.0967    2.4378    0.5933 H   0  0  0  0  0  0  0  0  0  0  0  0
   -2.0025    0.2488    1.2905 H   0  0  0  0  0  0  0  0  0  0  0  0
   -1.3917   -0.6096   -1.6717 H   0  0  0  0  0  0  0  0  0  0  0  0
   -2.1408   -1.6747   -0.3479 H   0  0  0  0  0  0  0  0  0  0  0  0
   -0.5934   -1.1694    2.1158 H   0  0  0  0  0  0  0  0  0  0  0  0
  1  2  1  0
  2  3  1  0
  3  4  1  0
  4  5  1  0
  5  6  1  0
  6  7  1  0
  7  8  1  0
  7  2  1  0
  7  5  1  0
  1  9  1  0
  1 10  1  0
  1 11  1  0
  2 12  1  0
  4 13  1  0
  4 14  1  0
  5 15  1  0
  6 16  1  0
  6 17  1  0
  8 18  1  0
M  END
