
     RDKit          3D

 21 22  0  0  0  0  0  0  0  0999 V2000
    2.5636    0.4266    0.4983 C   0  0  0  0  0  0  0  0  0  0  0  0
    1.0810    0.3006    0.1242 C   0  0  0  0  0  0  0  0  0  0  0  0
    0.3744    0.6436    1.2776 O   0  0  0  0  0  0  0  0  0  0  0  0
   -0.7815    1.3131    0.8146 C   0  0  0  0  0  0  0  0  0  0  0  0
   -1.8472    0.2497    0.6807 C   0  0  0  0  0  0  0  0  0  0  0  0
   -1.6776   -0.5679   -0.5745 C   0  0  0  0  0  0  0  0  0  0  0  0
   -0.5292   -1.4831   -0.5709 C   0  0  0  0  0  0  0  0  0  0  0  0
    0.3871   -1.1906   -1.7093 O   0  0  0  0  0  0  0  0  0  0  0  0
    0.7733   -1.0703   -0.3769 C   0  0  0  0  0  0  0  0  0  0  0  0
    3.2115   -0.0174   -0.2662 H   0  0  0  0  0  0  0  0  0  0  0  0
    2.7634    1.4766    0.7287 H   0  0  0  0  0  0  0  0  0  0  0  0
    2.6695   -0.1330    1.4636 H   0  0  0  0  0  0  0  0  0  0  0  0
    0.9236    1.0694   -0.6767 H   0  0  0  0  0  0  0  0  0  0  0  0
   -0.5709    1.8130   -0.1503 H   0  0  0  0  0  0  0  0  0  0  0  0
   -1.0741    2.0572    1.5498 H   0  0  0  0  0  0  0  0  0  0  0  0
   -1.8910   -0.3445    1.5915 H   0  0  0  0  0  0  0  0  0  0  0  0
   -2.8228    0.7996    0.5642 H   0  0  0  0  0  0  0  0  0  0  0  0
   -1.6886    0.1763   -1.4259 H   0  0  0  0  0  0  0  0  0  0  0  0
   -2.6456   -1.1226   -0.7057 H   0  0  0  0  0  0  0  0  0  0  0  0
   -0.7706   -2.5673   -0.6557 H   0  0  0  0  0  0  0  0  0  0  0  0
    1.5517   -1.8291   -0.0940 H   0  0  0  0  0  0  0  0  0  0  0  0
  1  2  1  0
  2  3  1  0
  3  4  1  0
  4  5  1  0
  5  6  1  0
  6  7  1  0
  7  8  1  0
  8  9  1  0
  9  2  1  0
  9  7  1  0
  1 10  1  0
  1 11  1  0
  1 12  1  0
  2 13  1  0
  4 14  1  0
  4 15  1  0
  5 16  1  0
  5 17  1  0
  6 18  1  0
  6 19  1  0
  7 20  1  0
  9 21  1  0
M  END
