
     RDKit          3D

 20 21  0  0  0  0  0  0  0  0999 V2000
   -2.1676   -0.8650    0.0374 C   0  0  0  0  0  0  0  0  0  0  0  0
   -0.6773   -0.9003   -0.2259 C   0  0  0  0  0  0  0  0  0  0  0  0
    0.0067   -1.3311    0.8964 O   0  0  0  0  0  0  0  0  0  0  0  0
    0.4726   -0.0492    1.0715 C   0  0  0  0  0  0  0  0  0  0  0  0
    1.4660    0.4956    0.0144 C   0  0  0  0  0  0  0  0  0  0  0  0
    2.3991   -0.6076   -0.4668 C   0  0  0  0  0  0  0  0  0  0  0  0
    0.0161    0.4180   -0.2585 C   0  0  0  0  0  0  0  0  0  0  0  0
   -0.7914    1.6854   -0.2569 C   0  0  0  0  0  0  0  0  0  0  0  0
   -2.6895   -0.1143   -0.6083 H   0  0  0  0  0  0  0  0  0  0  0  0
   -2.5459   -1.8897   -0.1738 H   0  0  0  0  0  0  0  0  0  0  0  0
   -2.3360   -0.6851    1.1141 H   0  0  0  0  0  0  0  0  0  0  0  0
   -0.4266   -1.4924   -1.1315 H   0  0  0  0  0  0  0  0  0  0  0  0
    0.3376    0.5120    1.9896 H   0  0  0  0  0  0  0  0  0  0  0  0
    1.9753    1.4011    0.3431 H   0  0  0  0  0  0  0  0  0  0  0  0
    3.1320   -0.7575    0.3774 H   0  0  0  0  0  0  0  0  0  0  0  0
    1.8496   -1.5827   -0.5604 H   0  0  0  0  0  0  0  0  0  0  0  0
    2.9356   -0.3442   -1.3838 H   0  0  0  0  0  0  0  0  0  0  0  0
   -1.2238    1.8831   -1.2487 H   0  0  0  0  0  0  0  0  0  0  0  0
   -1.6095    1.6791    0.4988 H   0  0  0  0  0  0  0  0  0  0  0  0
   -0.1229    2.5449   -0.0280 H   0  0  0  0  0  0  0  0  0  0  0  0
  1  2  1  0
  2  3  1  0
  3  4  1  0
  4  5  1  0
  5  6  1  0
  5  7  1  0
  7  8  1  0
  7  2  1  0
  7  4  1  0
  1  9  1  0
  1 10  1  0
  1 11  1  0
  2 12  1  0
  4 13  1  0
  5 14  1  0
  6 15  1  0
  6 16  1  0
  6 17  1  0
  8 18  1  0
  8 19  1  0
  8 20  1  0
M  END
