
     RDKit          3D

 21 22  0  0  0  0  0  0  0  0999 V2000
    2.7052   -0.0164    0.0313 C   0  0  0  0  0  0  0  0  0  0  0  0
    1.2773    0.2170    0.5207 C   0  0  0  0  0  0  0  0  0  0  0  0
    0.6950   -1.0523    0.6125 O   0  0  0  0  0  0  0  0  0  0  0  0
   -0.4779   -0.9831   -0.1297 C   0  0  0  0  0  0  0  0  0  0  0  0
    0.0365   -0.2262   -1.3698 C   0  0  0  0  0  0  0  0  0  0  0  0
    0.4935    0.9753   -0.5185 C   0  0  0  0  0  0  0  0  0  0  0  0
   -0.7190    1.3315    0.0613 O   0  0  0  0  0  0  0  0  0  0  0  0
   -1.3105    0.1283    0.4641 C   0  0  0  0  0  0  0  0  0  0  0  0
   -2.7096    0.0445   -0.1322 C   0  0  0  0  0  0  0  0  0  0  0  0
    3.1820    0.8977   -0.3316 H   0  0  0  0  0  0  0  0  0  0  0  0
    3.2804   -0.4316    0.8745 H   0  0  0  0  0  0  0  0  0  0  0  0
    2.6819   -0.8214   -0.7613 H   0  0  0  0  0  0  0  0  0  0  0  0
    1.3296    0.7259    1.4900 H   0  0  0  0  0  0  0  0  0  0  0  0
   -0.9674   -1.8957   -0.3432 H   0  0  0  0  0  0  0  0  0  0  0  0
    0.8769   -0.7410   -1.8310 H   0  0  0  0  0  0  0  0  0  0  0  0
   -0.7862    0.0401   -2.0336 H   0  0  0  0  0  0  0  0  0  0  0  0
    1.0035    1.7283   -1.0630 H   0  0  0  0  0  0  0  0  0  0  0  0
   -1.4005    0.0596    1.5526 H   0  0  0  0  0  0  0  0  0  0  0  0
   -2.6856   -0.3848   -1.1562 H   0  0  0  0  0  0  0  0  0  0  0  0
   -3.1991    1.0391   -0.1781 H   0  0  0  0  0  0  0  0  0  0  0  0
   -3.3063   -0.6349    0.4955 H   0  0  0  0  0  0  0  0  0  0  0  0
  1  2  1  0
  2  3  1  0
  3  4  1  0
  4  5  1  0
  5  6  1  0
  6  7  1  0
  7  8  1  0
  8  9  1  0
  6  2  1  0
  8  4  1  0
  1 10  1  0
  1 11  1  0
  1 12  1  0
  2 13  1  0
  4 14  1  0
  5 15  1  0
  5 16  1  0
  6 17  1  0
  8 18  1  0
  9 19  1  0
  9 20  1  0
  9 21  1  0
M  END
