
     RDKit          3D

 20 21  0  0  0  0  0  0  0  0999 V2000
    2.0357    0.8191    0.0490 C   0  0  0  0  0  0  0  0  0  0  0  0
    1.2259   -0.1296    0.8751 C   0  0  0  0  0  0  0  0  0  0  0  0
    1.4296   -1.4399    0.4886 O   0  0  0  0  0  0  0  0  0  0  0  0
    0.5223   -1.7129   -0.5394 C   0  0  0  0  0  0  0  0  0  0  0  0
   -0.7558   -1.0180   -0.1869 C   0  0  0  0  0  0  0  0  0  0  0  0
   -0.9315    0.4168   -0.4814 C   0  0  0  0  0  0  0  0  0  0  0  0
   -2.3064    1.0121   -0.2998 C   0  0  0  0  0  0  0  0  0  0  0  0
   -0.2445    0.0632    0.7869 C   0  0  0  0  0  0  0  0  0  0  0  0
    1.6962    0.9341   -0.9862 H   0  0  0  0  0  0  0  0  0  0  0  0
    2.1507    1.8108    0.5112 H   0  0  0  0  0  0  0  0  0  0  0  0
    3.0736    0.3828   -0.0176 H   0  0  0  0  0  0  0  0  0  0  0  0
    1.5398    0.0139    1.9409 H   0  0  0  0  0  0  0  0  0  0  0  0
    0.3052   -2.8094   -0.5599 H   0  0  0  0  0  0  0  0  0  0  0  0
    0.9117   -1.3789   -1.5133 H   0  0  0  0  0  0  0  0  0  0  0  0
   -1.6493   -1.5822    0.0831 H   0  0  0  0  0  0  0  0  0  0  0  0
   -0.3263    0.9186   -1.2541 H   0  0  0  0  0  0  0  0  0  0  0  0
   -2.1380    2.0829    0.0109 H   0  0  0  0  0  0  0  0  0  0  0  0
   -2.8034    0.5108    0.5529 H   0  0  0  0  0  0  0  0  0  0  0  0
   -2.9136    1.0287   -1.2001 H   0  0  0  0  0  0  0  0  0  0  0  0
   -0.8219    0.0770    1.7400 H   0  0  0  0  0  0  0  0  0  0  0  0
  1  2  1  0
  2  3  1  0
  3  4  1  0
  4  5  1  0
  5  6  1  0
  6  7  1  0
  6  8  1  0
  8  2  1  0
  8  5  1  0
  1  9  1  0
  1 10  1  0
  1 11  1  0
  2 12  1  0
  4 13  1  0
  4 14  1  0
  5 15  1  0
  6 16  1  0
  7 17  1  0
  7 18  1  0
  7 19  1  0
  8 20  1  0
M  END
