
     RDKit          3D

 21 22  0  0  0  0  0  0  0  0999 V2000
   -2.4587   -0.6775   -0.2384 C   0  0  0  0  0  0  0  0  0  0  0  0
   -1.0114   -0.3000   -0.5773 C   0  0  0  0  0  0  0  0  0  0  0  0
   -0.9446    0.9350   -1.2648 O   0  0  0  0  0  0  0  0  0  0  0  0
   -0.7609    1.5304   -0.0140 C   0  0  0  0  0  0  0  0  0  0  0  0
   -0.2764    0.2386    0.5826 C   0  0  0  0  0  0  0  0  0  0  0  0
    1.1917    0.0400    0.6698 C   0  0  0  0  0  0  0  0  0  0  0  0
    2.0501    0.5898   -0.4042 C   0  0  0  0  0  0  0  0  0  0  0  0
    2.2198   -0.7240   -0.8949 O   0  0  0  0  0  0  0  0  0  0  0  0
    1.7257   -1.3086    0.2725 C   0  0  0  0  0  0  0  0  0  0  0  0
   -2.6218   -1.7673   -0.3188 H   0  0  0  0  0  0  0  0  0  0  0  0
   -3.1698   -0.0886   -0.8579 H   0  0  0  0  0  0  0  0  0  0  0  0
   -2.6637   -0.4052    0.8201 H   0  0  0  0  0  0  0  0  0  0  0  0
   -0.5314   -1.0650   -1.2009 H   0  0  0  0  0  0  0  0  0  0  0  0
   -0.0452    2.3700   -0.0176 H   0  0  0  0  0  0  0  0  0  0  0  0
   -1.7448    1.8478    0.3926 H   0  0  0  0  0  0  0  0  0  0  0  0
   -0.7699    0.0188    1.5528 H   0  0  0  0  0  0  0  0  0  0  0  0
    1.5898    0.3106    1.6707 H   0  0  0  0  0  0  0  0  0  0  0  0
    1.6305    1.2954   -1.1164 H   0  0  0  0  0  0  0  0  0  0  0  0
    3.0603    0.9685   -0.0728 H   0  0  0  0  0  0  0  0  0  0  0  0
    2.5539   -1.7067    0.8966 H   0  0  0  0  0  0  0  0  0  0  0  0
    0.9768   -2.1020    0.1204 H   0  0  0  0  0  0  0  0  0  0  0  0
  1  2  1  0
  2  3  1  0
  3  4  1  0
  4  5  1  0
  5  6  1  0
  6  7  1  0
  7  8  1  0
  8  9  1  0
  5  2  1  0
  9  6  1  0
  1 10  1  0
  1 11  1  0
  1 12  1  0
  2 13  1  0
  4 14  1  0
  4 15  1  0
  5 16  1  0
  6 17  1  0
  7 18  1  0
  7 19  1  0
  9 20  1  0
  9 21  1  0
M  END
