
     RDKit          3D

 20 20  0  0  0  0  0  0  0  0999 V2000
    2.2068    0.1115    0.1830 C   0  0  0  0  0  0  0  0  0  0  0  0
    0.9888    0.3366   -0.6649 C   0  0  0  0  0  0  0  0  0  0  0  0
    0.1855    1.4193   -0.2396 O   0  0  0  0  0  0  0  0  0  0  0  0
   -0.9110    0.6938   -0.6762 C   0  0  0  0  0  0  0  0  0  0  0  0
   -2.1554    1.0298    0.0862 C   0  0  0  0  0  0  0  0  0  0  0  0
   -0.2024   -0.5595   -0.3134 C   0  0  0  0  0  0  0  0  0  0  0  0
   -0.1402   -0.9070    1.1463 C   0  0  0  0  0  0  0  0  0  0  0  0
   -0.3134   -1.6278   -1.1689 O   0  0  0  0  0  0  0  0  0  0  0  0
    3.0844    0.5123   -0.3843 H   0  0  0  0  0  0  0  0  0  0  0  0
    2.1437    0.6848    1.1434 H   0  0  0  0  0  0  0  0  0  0  0  0
    2.3436   -0.9775    0.3544 H   0  0  0  0  0  0  0  0  0  0  0  0
    1.1915    0.3766   -1.7532 H   0  0  0  0  0  0  0  0  0  0  0  0
   -1.1103    0.7361   -1.7691 H   0  0  0  0  0  0  0  0  0  0  0  0
   -2.0969    0.8639    1.1603 H   0  0  0  0  0  0  0  0  0  0  0  0
   -2.3625    2.1234   -0.0667 H   0  0  0  0  0  0  0  0  0  0  0  0
   -3.0400    0.5053   -0.3366 H   0  0  0  0  0  0  0  0  0  0  0  0
    0.2543   -0.0532    1.7197 H   0  0  0  0  0  0  0  0  0  0  0  0
   -1.1198   -1.2746    1.5073 H   0  0  0  0  0  0  0  0  0  0  0  0
    0.5809   -1.7688    1.2414 H   0  0  0  0  0  0  0  0  0  0  0  0
    0.4726   -2.2250   -1.1688 H   0  0  0  0  0  0  0  0  0  0  0  0
  1  2  1  0
  2  3  1  0
  3  4  1  0
  4  5  1  0
  4  6  1  0
  6  7  1  0
  6  8  1  0
  6  2  1  0
  1  9  1  0
  1 10  1  0
  1 11  1  0
  2 12  1  0
  4 13  1  0
  5 14  1  0
  5 15  1  0
  5 16  1  0
  7 17  1  0
  7 18  1  0
  7 19  1  0
  8 20  1  0
M  END
