
     RDKit          3D

 19 19  0  0  0  0  0  0  0  0999 V2000
   -0.9588   -2.0281    0.3248 C   0  0  0  0  0  0  0  0  0  0  0  0
   -0.9564   -0.5566    0.5812 C   0  0  0  0  0  0  0  0  0  0  0  0
   -1.4141    0.1189   -0.6639 O   0  0  0  0  0  0  0  0  0  0  0  0
   -0.1088    0.4045   -0.0081 C   0  0  0  0  0  0  0  0  0  0  0  0
   -0.1787    1.8364    0.5147 C   0  0  0  0  0  0  0  0  0  0  0  0
   -0.4016    2.6762   -0.6017 O   0  0  0  0  0  0  0  0  0  0  0  0
    1.0535    0.1314   -0.8886 C   0  0  0  0  0  0  0  0  0  0  0  0
    2.0485   -0.6804   -0.1831 C   0  0  0  0  0  0  0  0  0  0  0  0
    1.9316   -1.0768    0.9757 O   0  0  0  0  0  0  0  0  0  0  0  0
   -0.6134   -2.6314    1.1633 H   0  0  0  0  0  0  0  0  0  0  0  0
   -0.4427   -2.2987   -0.6240 H   0  0  0  0  0  0  0  0  0  0  0  0
   -2.0354   -2.3242    0.1513 H   0  0  0  0  0  0  0  0  0  0  0  0
   -1.6031   -0.2596    1.4498 H   0  0  0  0  0  0  0  0  0  0  0  0
   -0.9760    1.9505    1.2720 H   0  0  0  0  0  0  0  0  0  0  0  0
    0.7793    2.1583    0.9409 H   0  0  0  0  0  0  0  0  0  0  0  0
   -1.3608    2.8765   -0.5986 H   0  0  0  0  0  0  0  0  0  0  0  0
    0.7768   -0.4279   -1.8266 H   0  0  0  0  0  0  0  0  0  0  0  0
    1.5042    1.0904   -1.2745 H   0  0  0  0  0  0  0  0  0  0  0  0
    2.9559   -0.9594   -0.7045 H   0  0  0  0  0  0  0  0  0  0  0  0
  1  2  1  0
  2  3  1  0
  3  4  1  0
  4  5  1  0
  5  6  1  0
  4  7  1  0
  7  8  1  0
  8  9  2  0
  4  2  1  0
  1 10  1  0
  1 11  1  0
  1 12  1  0
  2 13  1  0
  5 14  1  0
  5 15  1  0
  6 16  1  0
  7 17  1  0
  7 18  1  0
  8 19  1  0
M  END
