
     RDKit          3D

 21 21  0  0  0  0  0  0  0  0999 V2000
   -2.2136    0.7307   -0.1816 C   0  0  0  0  0  0  0  0  0  0  0  0
   -1.6381   -0.2011    0.8246 C   0  0  0  0  0  0  0  0  0  0  0  0
   -1.8055   -1.5333    0.4152 O   0  0  0  0  0  0  0  0  0  0  0  0
   -0.5560   -1.4591   -0.2849 C   0  0  0  0  0  0  0  0  0  0  0  0
   -0.1258   -0.4327    0.7370 C   0  0  0  0  0  0  0  0  0  0  0  0
    0.5546    0.7945    0.2818 C   0  0  0  0  0  0  0  0  0  0  0  0
    2.0397    0.6584    0.2333 C   0  0  0  0  0  0  0  0  0  0  0  0
    2.5519   -0.3471   -0.6819 C   0  0  0  0  0  0  0  0  0  0  0  0
    1.8983   -1.0116   -1.4107 O   0  0  0  0  0  0  0  0  0  0  0  0
   -2.2580    1.7921    0.1818 H   0  0  0  0  0  0  0  0  0  0  0  0
   -3.2986    0.4473   -0.3216 H   0  0  0  0  0  0  0  0  0  0  0  0
   -1.7636    0.6477   -1.1874 H   0  0  0  0  0  0  0  0  0  0  0  0
   -1.9138    0.0384    1.8475 H   0  0  0  0  0  0  0  0  0  0  0  0
   -0.7197   -1.1366   -1.3096 H   0  0  0  0  0  0  0  0  0  0  0  0
   -0.0728   -2.4455   -0.2287 H   0  0  0  0  0  0  0  0  0  0  0  0
    0.2731   -0.9065    1.6510 H   0  0  0  0  0  0  0  0  0  0  0  0
    0.3600    1.5989    1.0634 H   0  0  0  0  0  0  0  0  0  0  0  0
    0.1787    1.1452   -0.7118 H   0  0  0  0  0  0  0  0  0  0  0  0
    2.3721    0.4610    1.2972 H   0  0  0  0  0  0  0  0  0  0  0  0
    2.4934    1.6795    0.0221 H   0  0  0  0  0  0  0  0  0  0  0  0
    3.6437   -0.5203   -0.7147 H   0  0  0  0  0  0  0  0  0  0  0  0
  1  2  1  0
  2  3  1  0
  3  4  1  0
  4  5  1  0
  5  6  1  0
  6  7  1  0
  7  8  1  0
  8  9  2  0
  5  2  1  0
  1 10  1  0
  1 11  1  0
  1 12  1  0
  2 13  1  0
  4 14  1  0
  4 15  1  0
  5 16  1  0
  6 17  1  0
  6 18  1  0
  7 19  1  0
  7 20  1  0
  8 21  1  0
M  END
