
     RDKit          3D

 18 18  0  0  0  0  0  0  0  0999 V2000
    2.0021    0.4476    0.7430 C   0  0  0  0  0  0  0  0  0  0  0  0
    1.2402   -0.1307   -0.3877 C   0  0  0  0  0  0  0  0  0  0  0  0
    0.9035   -1.4666   -0.3285 O   0  0  0  0  0  0  0  0  0  0  0  0
   -0.1540   -1.1647   -1.2188 C   0  0  0  0  0  0  0  0  0  0  0  0
   -0.1980    0.2048   -0.5289 C   0  0  0  0  0  0  0  0  0  0  0  0
   -1.0126    0.2131    0.7375 C   0  0  0  0  0  0  0  0  0  0  0  0
   -2.4381    0.5600    0.4840 C   0  0  0  0  0  0  0  0  0  0  0  0
   -3.2610   -0.2393    0.0612 O   0  0  0  0  0  0  0  0  0  0  0  0
    2.3199    1.4863    0.4357 H   0  0  0  0  0  0  0  0  0  0  0  0
    2.9541   -0.1273    0.8720 H   0  0  0  0  0  0  0  0  0  0  0  0
    1.4945    0.4481    1.7070 H   0  0  0  0  0  0  0  0  0  0  0  0
    1.7755    0.0626   -1.3551 H   0  0  0  0  0  0  0  0  0  0  0  0
    0.2479   -1.0670   -2.2416 H   0  0  0  0  0  0  0  0  0  0  0  0
   -1.0443   -1.7724   -1.0735 H   0  0  0  0  0  0  0  0  0  0  0  0
   -0.4089    1.0272   -1.2222 H   0  0  0  0  0  0  0  0  0  0  0  0
   -1.0108   -0.8583    1.1012 H   0  0  0  0  0  0  0  0  0  0  0  0
   -0.6026    0.8152    1.5437 H   0  0  0  0  0  0  0  0  0  0  0  0
   -2.8072    1.5612    0.6709 H   0  0  0  0  0  0  0  0  0  0  0  0
  1  2  1  0
  2  3  1  0
  3  4  1  0
  4  5  1  0
  5  6  1  0
  6  7  1  0
  7  8  2  0
  5  2  1  0
  1  9  1  0
  1 10  1  0
  1 11  1  0
  2 12  1  0
  4 13  1  0
  4 14  1  0
  5 15  1  0
  6 16  1  0
  6 17  1  0
  7 18  1  0
M  END
