
     RDKit          3D

 17 18  0  0  0  0  0  0  0  0999 V2000
    2.2184    0.6133   -0.3845 C   0  0  0  0  0  0  0  0  0  0  0  0
    1.3606   -0.4881    0.1969 C   0  0  0  0  0  0  0  0  0  0  0  0
    0.5458    0.0435    1.2929 O   0  0  0  0  0  0  0  0  0  0  0  0
    0.0176   -0.4952    0.0723 C   0  0  0  0  0  0  0  0  0  0  0  0
   -1.0055   -1.5185    0.2751 C   0  0  0  0  0  0  0  0  0  0  0  0
   -1.1051   -2.7304    0.3996 O   0  0  0  0  0  0  0  0  0  0  0  0
   -2.0090   -0.3861    0.2731 C   0  0  0  0  0  0  0  0  0  0  0  0
   -0.9791    0.3604   -0.5856 C   0  0  0  0  0  0  0  0  0  0  0  0
   -0.9370    1.7093   -0.3971 O   0  0  0  0  0  0  0  0  0  0  0  0
    3.1239    0.6803    0.2529 H   0  0  0  0  0  0  0  0  0  0  0  0
    2.4310    0.4061   -1.4325 H   0  0  0  0  0  0  0  0  0  0  0  0
    1.7043    1.6090   -0.3199 H   0  0  0  0  0  0  0  0  0  0  0  0
    1.9515   -1.3893    0.4681 H   0  0  0  0  0  0  0  0  0  0  0  0
   -2.0356    0.0471    1.2748 H   0  0  0  0  0  0  0  0  0  0  0  0
   -2.9476   -0.6081   -0.2212 H   0  0  0  0  0  0  0  0  0  0  0  0
   -1.1597    0.1100   -1.6504 H   0  0  0  0  0  0  0  0  0  0  0  0
   -1.1745    2.0367    0.4855 H   0  0  0  0  0  0  0  0  0  0  0  0
  1  2  1  0
  2  3  1  0
  3  4  1  0
  4  5  1  0
  5  6  2  0
  5  7  1  0
  7  8  1  0
  8  9  1  0
  4  2  1  0
  8  4  1  0
  1 10  1  0
  1 11  1  0
  1 12  1  0
  2 13  1  0
  7 14  1  0
  7 15  1  0
  8 16  1  0
  9 17  1  0
M  END
