
     RDKit          3D

 23 24  0  0  0  0  0  0  0  0999 V2000
    2.6406   -0.4471    0.3866 C   0  0  0  0  0  0  0  0  0  0  0  0
    1.2241    0.0188    0.7100 C   0  0  0  0  0  0  0  0  0  0  0  0
    1.1594    1.3909    0.8519 O   0  0  0  0  0  0  0  0  0  0  0  0
   -0.1085    1.7856    0.3903 C   0  0  0  0  0  0  0  0  0  0  0  0
   -0.3936    0.8813   -0.7544 C   0  0  0  0  0  0  0  0  0  0  0  0
   -1.8076    0.4297   -0.8714 C   0  0  0  0  0  0  0  0  0  0  0  0
   -1.9685   -0.7210    0.1082 C   0  0  0  0  0  0  0  0  0  0  0  0
   -0.6366   -1.4057    0.0142 C   0  0  0  0  0  0  0  0  0  0  0  0
    0.3529   -0.3758   -0.4382 C   0  0  0  0  0  0  0  0  0  0  0  0
    3.3094    0.4256    0.2695 H   0  0  0  0  0  0  0  0  0  0  0  0
    3.0537   -1.0294    1.2510 H   0  0  0  0  0  0  0  0  0  0  0  0
    2.6601   -1.1036   -0.4998 H   0  0  0  0  0  0  0  0  0  0  0  0
    0.8932   -0.4506    1.6713 H   0  0  0  0  0  0  0  0  0  0  0  0
   -0.8312    1.7543    1.2109 H   0  0  0  0  0  0  0  0  0  0  0  0
    0.0349    2.8378    0.0215 H   0  0  0  0  0  0  0  0  0  0  0  0
    0.0005    1.3538   -1.6779 H   0  0  0  0  0  0  0  0  0  0  0  0
   -2.5616    1.2166   -0.7106 H   0  0  0  0  0  0  0  0  0  0  0  0
   -1.9212   -0.0390   -1.8923 H   0  0  0  0  0  0  0  0  0  0  0  0
   -2.7823   -1.3885   -0.2356 H   0  0  0  0  0  0  0  0  0  0  0  0
   -2.1627   -0.3258    1.1310 H   0  0  0  0  0  0  0  0  0  0  0  0
   -0.3678   -1.7915    1.0313 H   0  0  0  0  0  0  0  0  0  0  0  0
   -0.6808   -2.3011   -0.6370 H   0  0  0  0  0  0  0  0  0  0  0  0
    0.8935   -0.7154   -1.3306 H   0  0  0  0  0  0  0  0  0  0  0  0
  1  2  1  0
  2  3  1  0
  3  4  1  0
  4  5  1  0
  5  6  1  0
  6  7  1  0
  7  8  1  0
  8  9  1  0
  9  2  1  0
  9  5  1  0
  1 10  1  0
  1 11  1  0
  1 12  1  0
  2 13  1  0
  4 14  1  0
  4 15  1  0
  5 16  1  0
  6 17  1  0
  6 18  1  0
  7 19  1  0
  7 20  1  0
  8 21  1  0
  8 22  1  0
  9 23  1  0
M  END
