
     RDKit          3D

 18 18  0  0  0  0  0  0  0  0999 V2000
    2.2696   -0.8865    0.1075 C   0  0  0  0  0  0  0  0  0  0  0  0
    1.7887    0.4653   -0.3345 C   0  0  0  0  0  0  0  0  0  0  0  0
    1.1281    1.1551    0.7552 O   0  0  0  0  0  0  0  0  0  0  0  0
    0.3953    0.8494   -0.3669 C   0  0  0  0  0  0  0  0  0  0  0  0
   -0.7191   -0.1831   -0.2697 C   0  0  0  0  0  0  0  0  0  0  0  0
   -1.2755   -0.2826   -1.5436 O   0  0  0  0  0  0  0  0  0  0  0  0
   -1.7845    0.2852    0.7120 C   0  0  0  0  0  0  0  0  0  0  0  0
   -2.8081   -0.6395    0.7123 O   0  0  0  0  0  0  0  0  0  0  0  0
    3.2379   -0.7546    0.6663 H   0  0  0  0  0  0  0  0  0  0  0  0
    1.5729   -1.3453    0.8405 H   0  0  0  0  0  0  0  0  0  0  0  0
    2.5001   -1.5683   -0.7317 H   0  0  0  0  0  0  0  0  0  0  0  0
    2.5387    1.0653   -0.8836 H   0  0  0  0  0  0  0  0  0  0  0  0
    0.1094    1.7211   -0.9834 H   0  0  0  0  0  0  0  0  0  0  0  0
   -0.3332   -1.1863   -0.0072 H   0  0  0  0  0  0  0  0  0  0  0  0
   -1.9902    0.3824   -1.6121 H   0  0  0  0  0  0  0  0  0  0  0  0
   -1.3921    0.4078    1.7210 H   0  0  0  0  0  0  0  0  0  0  0  0
   -2.1327    1.2714    0.3539 H   0  0  0  0  0  0  0  0  0  0  0  0
   -3.1053   -0.7568   -0.2257 H   0  0  0  0  0  0  0  0  0  0  0  0
  1  2  1  0
  2  3  1  0
  3  4  1  0
  4  5  1  0
  5  6  1  0
  5  7  1  0
  7  8  1  0
  4  2  1  0
  1  9  1  0
  1 10  1  0
  1 11  1  0
  2 12  1  0
  4 13  1  0
  5 14  1  0
  6 15  1  0
  7 16  1  0
  7 17  1  0
  8 18  1  0
M  END
