
     RDKit          3D

 23 23  0  0  0  0  0  0  0  0999 V2000
    1.8811   -1.0398    0.2279 C   0  0  0  0  0  0  0  0  0  0  0  0
    0.8656   -0.0622   -0.2658 C   0  0  0  0  0  0  0  0  0  0  0  0
    1.3216    1.2230    0.0712 O   0  0  0  0  0  0  0  0  0  0  0  0
    0.4180    2.0788   -0.6008 C   0  0  0  0  0  0  0  0  0  0  0  0
   -0.8713    1.9775    0.1393 C   0  0  0  0  0  0  0  0  0  0  0  0
   -1.2692    0.7541    0.5192 O   0  0  0  0  0  0  0  0  0  0  0  0
   -0.5285   -0.3272    0.1808 C   0  0  0  0  0  0  0  0  0  0  0  0
   -1.2644   -1.0792   -0.9264 C   0  0  0  0  0  0  0  0  0  0  0  0
   -0.5380   -1.2721    1.3926 C   0  0  0  0  0  0  0  0  0  0  0  0
    2.8933   -0.5385    0.2125 H   0  0  0  0  0  0  0  0  0  0  0  0
    1.9807   -1.8843   -0.4992 H   0  0  0  0  0  0  0  0  0  0  0  0
    1.7356   -1.3934    1.2466 H   0  0  0  0  0  0  0  0  0  0  0  0
    0.8916   -0.0853   -1.3909 H   0  0  0  0  0  0  0  0  0  0  0  0
    0.3505    1.6935   -1.6511 H   0  0  0  0  0  0  0  0  0  0  0  0
    0.7784    3.1134   -0.5828 H   0  0  0  0  0  0  0  0  0  0  0  0
   -0.7631    2.6230    1.0615 H   0  0  0  0  0  0  0  0  0  0  0  0
   -1.6537    2.5116   -0.4662 H   0  0  0  0  0  0  0  0  0  0  0  0
   -0.7114   -0.9318   -1.8817 H   0  0  0  0  0  0  0  0  0  0  0  0
   -1.3732   -2.1547   -0.6985 H   0  0  0  0  0  0  0  0  0  0  0  0
   -2.2745   -0.6784   -1.0868 H   0  0  0  0  0  0  0  0  0  0  0  0
   -0.1262   -0.8032    2.2822 H   0  0  0  0  0  0  0  0  0  0  0  0
   -0.1085   -2.2584    1.1366 H   0  0  0  0  0  0  0  0  0  0  0  0
   -1.6344   -1.4664    1.5797 H   0  0  0  0  0  0  0  0  0  0  0  0
  1  2  1  0
  2  3  1  0
  3  4  1  0
  4  5  1  0
  5  6  1  0
  6  7  1  0
  7  8  1  0
  7  9  1  0
  7  2  1  0
  1 10  1  0
  1 11  1  0
  1 12  1  0
  2 13  1  0
  4 14  1  0
  4 15  1  0
  5 16  1  0
  5 17  1  0
  8 18  1  0
  8 19  1  0
  8 20  1  0
  9 21  1  0
  9 22  1  0
  9 23  1  0
M  END
