
     RDKit          3D

 19 20  0  0  0  0  0  0  0  0999 V2000
    2.0244    0.6975    0.2606 C   0  0  0  0  0  0  0  0  0  0  0  0
    0.9283    0.3084   -0.7439 C   0  0  0  0  0  0  0  0  0  0  0  0
    1.2908   -0.9509   -1.2720 O   0  0  0  0  0  0  0  0  0  0  0  0
    0.6020   -1.5797   -0.2075 C   0  0  0  0  0  0  0  0  0  0  0  0
   -0.1903   -0.3459   -0.0678 C   0  0  0  0  0  0  0  0  0  0  0  0
   -0.9537    0.1071    1.0512 C   0  0  0  0  0  0  0  0  0  0  0  0
   -0.9401    1.4725    1.3987 O   0  0  0  0  0  0  0  0  0  0  0  0
   -1.5986   -0.2319   -0.3115 C   0  0  0  0  0  0  0  0  0  0  0  0
   -2.2120    0.8116   -0.9899 O   0  0  0  0  0  0  0  0  0  0  0  0
    1.7283    1.6734    0.6605 H   0  0  0  0  0  0  0  0  0  0  0  0
    1.9818   -0.0260    1.0971 H   0  0  0  0  0  0  0  0  0  0  0  0
    3.0225    0.6600   -0.1905 H   0  0  0  0  0  0  0  0  0  0  0  0
    0.7342    1.0825   -1.5024 H   0  0  0  0  0  0  0  0  0  0  0  0
    1.2777   -1.8772    0.6070 H   0  0  0  0  0  0  0  0  0  0  0  0
    0.0215   -2.4563   -0.5909 H   0  0  0  0  0  0  0  0  0  0  0  0
   -1.1511   -0.5603    1.8947 H   0  0  0  0  0  0  0  0  0  0  0  0
   -1.6040    1.9872    0.8894 H   0  0  0  0  0  0  0  0  0  0  0  0
   -2.2136   -1.1779   -0.2671 H   0  0  0  0  0  0  0  0  0  0  0  0
   -2.7482    0.4060   -1.7158 H   0  0  0  0  0  0  0  0  0  0  0  0
  1  2  1  0
  2  3  1  0
  3  4  1  0
  4  5  1  0
  5  6  1  0
  6  7  1  0
  6  8  1  0
  8  9  1  0
  5  2  1  0
  8  5  1  0
  1 10  1  0
  1 11  1  0
  1 12  1  0
  2 13  1  0
  4 14  1  0
  4 15  1  0
  6 16  1  0
  7 17  1  0
  8 18  1  0
  9 19  1  0
M  END
