
     RDKit          3D

 21 21  0  0  0  0  0  0  0  0999 V2000
    2.5212    1.8918   -1.6423 C   0  0  0  0  0  0  0  0  0  0  0  0
    2.8569    0.5636   -0.9536 C   0  0  0  0  0  0  0  0  0  0  0  0
    1.7189    0.1047   -0.1522 C   0  0  0  0  0  0  0  0  0  0  0  0
    0.7696   -0.2970    0.5065 C   0  0  0  0  0  0  0  0  0  0  0  0
   -0.3797   -0.7828    1.2734 C   0  0  0  0  0  0  0  0  0  0  0  0
   -1.7686   -0.2868    0.7704 C   0  0  0  0  0  0  0  0  0  0  0  0
   -2.8047   -0.0178    1.8526 C   0  0  0  0  0  0  0  0  0  0  0  0
   -1.2756   -1.7146    0.5933 C   0  0  0  0  0  0  0  0  0  0  0  0
   -0.9674   -2.1283   -0.7022 O   0  0  0  0  0  0  0  0  0  0  0  0
    3.3298    2.6273   -1.5332 H   0  0  0  0  0  0  0  0  0  0  0  0
    1.6386    2.3188   -1.0825 H   0  0  0  0  0  0  0  0  0  0  0  0
    2.1807    1.7308   -2.6637 H   0  0  0  0  0  0  0  0  0  0  0  0
    3.7265    0.7744   -0.3078 H   0  0  0  0  0  0  0  0  0  0  0  0
    3.0788   -0.2285   -1.6945 H   0  0  0  0  0  0  0  0  0  0  0  0
   -0.2849   -0.8340    2.3850 H   0  0  0  0  0  0  0  0  0  0  0  0
   -1.7250    0.4089   -0.0908 H   0  0  0  0  0  0  0  0  0  0  0  0
   -3.7950   -0.1021    1.3630 H   0  0  0  0  0  0  0  0  0  0  0  0
   -2.6686   -0.7132    2.6853 H   0  0  0  0  0  0  0  0  0  0  0  0
   -2.6595    1.0570    2.1645 H   0  0  0  0  0  0  0  0  0  0  0  0
   -1.7911   -2.4650    1.2481 H   0  0  0  0  0  0  0  0  0  0  0  0
   -1.7010   -1.9070   -1.3240 H   0  0  0  0  0  0  0  0  0  0  0  0
  1  2  1  0
  2  3  1  0
  3  4  3  0
  4  5  1  0
  5  6  1  0
  6  7  1  0
  6  8  1  0
  8  9  1  0
  8  5  1  0
  1 10  1  0
  1 11  1  0
  1 12  1  0
  2 13  1  0
  2 14  1  0
  5 15  1  0
  6 16  1  0
  7 17  1  0
  7 18  1  0
  7 19  1  0
  8 20  1  0
  9 21  1  0
M  END
