
     RDKit          3D

 16 15  0  0  0  0  0  0  0  0999 V2000
    2.8887    0.3045    0.1151 C   0  0  0  0  0  0  0  0  0  0  0  0
    1.9025   -0.6561   -0.4885 C   0  0  0  0  0  0  0  0  0  0  0  0
    0.5173   -0.2023   -0.3396 C   0  0  0  0  0  0  0  0  0  0  0  0
   -0.6264    0.1836   -0.2345 C   0  0  0  0  0  0  0  0  0  0  0  0
   -2.0058    0.6760   -0.1080 C   0  0  0  0  0  0  0  0  0  0  0  0
   -2.8193   -0.3044    0.6681 C   0  0  0  0  0  0  0  0  0  0  0  0
    2.4331    1.1536    0.6239 H   0  0  0  0  0  0  0  0  0  0  0  0
    3.5663    0.7342   -0.6803 H   0  0  0  0  0  0  0  0  0  0  0  0
    3.5938   -0.2376    0.8011 H   0  0  0  0  0  0  0  0  0  0  0  0
    1.9899   -1.6281    0.0353 H   0  0  0  0  0  0  0  0  0  0  0  0
    2.1815   -0.8388   -1.5416 H   0  0  0  0  0  0  0  0  0  0  0  0
   -1.9345    1.6636    0.4170 H   0  0  0  0  0  0  0  0  0  0  0  0
   -2.4811    0.8030   -1.1115 H   0  0  0  0  0  0  0  0  0  0  0  0
   -3.8401   -0.3970    0.2292 H   0  0  0  0  0  0  0  0  0  0  0  0
   -2.9983    0.0638    1.7199 H   0  0  0  0  0  0  0  0  0  0  0  0
   -2.3675   -1.3179    0.7266 H   0  0  0  0  0  0  0  0  0  0  0  0
  1  2  1  0
  2  3  1  0
  3  4  3  0
  4  5  1  0
  5  6  1  0
  1  7  1  0
  1  8  1  0
  1  9  1  0
  2 10  1  0
  2 11  1  0
  5 12  1  0
  5 13  1  0
  6 14  1  0
  6 15  1  0
  6 16  1  0
M  END
