
     RDKit          3D

 23 22  0  0  0  0  0  0  0  0999 V2000
    3.7778   -1.2084   -1.4092 C   0  0  0  0  0  0  0  0  0  0  0  0
    2.7160   -0.4080   -2.1630 C   0  0  0  0  0  0  0  0  0  0  0  0
    1.6958   -0.0170   -1.1875 C   0  0  0  0  0  0  0  0  0  0  0  0
    0.8676    0.2967   -0.3702 C   0  0  0  0  0  0  0  0  0  0  0  0
   -0.1806    0.6775    0.6298 C   0  0  0  0  0  0  0  0  0  0  0  0
   -1.0957   -0.5017    0.8394 C   0  0  0  0  0  0  0  0  0  0  0  0
   -2.1525   -0.2575    1.8414 C   0  0  0  0  0  0  0  0  0  0  0  0
   -3.0726    0.8555    1.5160 C   0  0  0  0  0  0  0  0  0  0  0  0
   -2.5153    2.1034    1.4066 O   0  0  0  0  0  0  0  0  0  0  0  0
    4.4683   -0.4717   -0.9605 H   0  0  0  0  0  0  0  0  0  0  0  0
    3.3078   -1.7675   -0.5562 H   0  0  0  0  0  0  0  0  0  0  0  0
    4.2506   -1.9196   -2.0970 H   0  0  0  0  0  0  0  0  0  0  0  0
    2.2900   -1.0721   -2.9530 H   0  0  0  0  0  0  0  0  0  0  0  0
    3.1309    0.4960   -2.6298 H   0  0  0  0  0  0  0  0  0  0  0  0
   -0.7822    1.5179    0.1694 H   0  0  0  0  0  0  0  0  0  0  0  0
    0.3419    0.9866    1.5290 H   0  0  0  0  0  0  0  0  0  0  0  0
   -1.5864   -0.7824   -0.1392 H   0  0  0  0  0  0  0  0  0  0  0  0
   -0.4807   -1.4232    1.0753 H   0  0  0  0  0  0  0  0  0  0  0  0
   -1.6510   -0.1363    2.8349 H   0  0  0  0  0  0  0  0  0  0  0  0
   -2.7894   -1.1877    1.9411 H   0  0  0  0  0  0  0  0  0  0  0  0
   -3.5764    0.6218    0.5335 H   0  0  0  0  0  0  0  0  0  0  0  0
   -3.9102    0.8964    2.2799 H   0  0  0  0  0  0  0  0  0  0  0  0
   -3.0537    2.7014    0.8510 H   0  0  0  0  0  0  0  0  0  0  0  0
  1  2  1  0
  2  3  1  0
  3  4  3  0
  4  5  1  0
  5  6  1  0
  6  7  1  0
  7  8  1  0
  8  9  1  0
  1 10  1  0
  1 11  1  0
  1 12  1  0
  2 13  1  0
  2 14  1  0
  5 15  1  0
  5 16  1  0
  6 17  1  0
  6 18  1  0
  7 19  1  0
  7 20  1  0
  8 21  1  0
  8 22  1  0
  9 23  1  0
M  END
