
     RDKit          3D

 21 21  0  0  0  0  0  0  0  0999 V2000
    3.4518    0.7490    0.1949 C   0  0  0  0  0  0  0  0  0  0  0  0
    2.3810    0.3149    1.1831 C   0  0  0  0  0  0  0  0  0  0  0  0
    1.1743    0.2445    0.5431 C   0  0  0  0  0  0  0  0  0  0  0  0
    0.0491    0.1849   -0.0780 C   0  0  0  0  0  0  0  0  0  0  0  0
   -1.2433    0.1298   -0.8164 C   0  0  0  0  0  0  0  0  0  0  0  0
   -2.2568    0.9109   -0.2323 O   0  0  0  0  0  0  0  0  0  0  0  0
   -2.5160    0.4651    1.0632 C   0  0  0  0  0  0  0  0  0  0  0  0
   -1.7388   -1.3743   -0.8836 C   0  0  0  0  0  0  0  0  0  0  0  0
   -1.3804   -0.5446   -2.0839 C   0  0  0  0  0  0  0  0  0  0  0  0
    3.2843    1.7411   -0.2427 H   0  0  0  0  0  0  0  0  0  0  0  0
    4.4243    0.7215    0.7607 H   0  0  0  0  0  0  0  0  0  0  0  0
    3.5196   -0.0149   -0.5885 H   0  0  0  0  0  0  0  0  0  0  0  0
    2.7704   -0.6874    1.5719 H   0  0  0  0  0  0  0  0  0  0  0  0
    2.4031    0.9814    2.0889 H   0  0  0  0  0  0  0  0  0  0  0  0
   -3.2663    1.0884    1.5435 H   0  0  0  0  0  0  0  0  0  0  0  0
   -1.5509    0.4605    1.5964 H   0  0  0  0  0  0  0  0  0  0  0  0
   -2.9872   -0.5645    1.0599 H   0  0  0  0  0  0  0  0  0  0  0  0
   -0.9865   -2.1331   -0.4921 H   0  0  0  0  0  0  0  0  0  0  0  0
   -2.7623   -1.5868   -0.6306 H   0  0  0  0  0  0  0  0  0  0  0  0
   -2.2592   -0.2632   -2.7130 H   0  0  0  0  0  0  0  0  0  0  0  0
   -0.5100   -0.8229   -2.7295 H   0  0  0  0  0  0  0  0  0  0  0  0
  1  2  1  0
  2  3  1  0
  3  4  3  0
  4  5  1  0
  5  6  1  0
  6  7  1  0
  5  8  1  0
  8  9  1  0
  9  5  1  0
  1 10  1  0
  1 11  1  0
  1 12  1  0
  2 13  1  0
  2 14  1  0
  7 15  1  0
  7 16  1  0
  7 17  1  0
  8 18  1  0
  8 19  1  0
  9 20  1  0
  9 21  1  0
M  END
