
     RDKit          3D

 20 19  0  0  0  0  0  0  0  0999 V2000
   -3.8184    0.3560   -0.5281 C   0  0  0  0  0  0  0  0  0  0  0  0
   -2.7600    1.0495    0.2908 C   0  0  0  0  0  0  0  0  0  0  0  0
   -1.4981    0.3195    0.1681 C   0  0  0  0  0  0  0  0  0  0  0  0
   -0.4470   -0.2686    0.0563 C   0  0  0  0  0  0  0  0  0  0  0  0
    0.8333   -0.9564   -0.0756 C   0  0  0  0  0  0  0  0  0  0  0  0
    1.9007    0.0008    0.4206 C   0  0  0  0  0  0  0  0  0  0  0  0
    3.2282   -0.7203    0.2807 C   0  0  0  0  0  0  0  0  0  0  0  0
    4.2671    0.0805    0.7117 O   0  0  0  0  0  0  0  0  0  0  0  0
   -3.7876    0.8008   -1.5496 H   0  0  0  0  0  0  0  0  0  0  0  0
   -4.8255    0.4354   -0.0695 H   0  0  0  0  0  0  0  0  0  0  0  0
   -3.5042   -0.7013   -0.6535 H   0  0  0  0  0  0  0  0  0  0  0  0
   -2.5774    2.0903   -0.0999 H   0  0  0  0  0  0  0  0  0  0  0  0
   -3.0521    1.1899    1.3519 H   0  0  0  0  0  0  0  0  0  0  0  0
    1.0162   -1.2092   -1.1557 H   0  0  0  0  0  0  0  0  0  0  0  0
    0.8463   -1.9019    0.5149 H   0  0  0  0  0  0  0  0  0  0  0  0
    1.8493    0.9008   -0.2071 H   0  0  0  0  0  0  0  0  0  0  0  0
    1.6865    0.1981    1.4922 H   0  0  0  0  0  0  0  0  0  0  0  0
    3.3123   -1.0071   -0.7970 H   0  0  0  0  0  0  0  0  0  0  0  0
    3.1638   -1.6613    0.8521 H   0  0  0  0  0  0  0  0  0  0  0  0
    4.1666    1.0046    0.4197 H   0  0  0  0  0  0  0  0  0  0  0  0
  1  2  1  0
  2  3  1  0
  3  4  3  0
  4  5  1  0
  5  6  1  0
  6  7  1  0
  7  8  1  0
  1  9  1  0
  1 10  1  0
  1 11  1  0
  2 12  1  0
  2 13  1  0
  5 14  1  0
  5 15  1  0
  6 16  1  0
  6 17  1  0
  7 18  1  0
  7 19  1  0
  8 20  1  0
M  END
