
     RDKit          3D

 23 23  0  0  0  0  0  0  0  0999 V2000
    3.5163   -0.5819   -1.1391 C   0  0  0  0  0  0  0  0  0  0  0  0
    3.3378    0.7120   -0.3886 C   0  0  0  0  0  0  0  0  0  0  0  0
    1.8971    0.9011   -0.1247 C   0  0  0  0  0  0  0  0  0  0  0  0
    0.7243    1.0634    0.1007 C   0  0  0  0  0  0  0  0  0  0  0  0
   -0.7181    1.2431    0.3941 C   0  0  0  0  0  0  0  0  0  0  0  0
   -1.4499    0.0795   -0.2017 C   0  0  0  0  0  0  0  0  0  0  0  0
   -2.9499    0.2179    0.0747 C   0  0  0  0  0  0  0  0  0  0  0  0
   -2.8263   -0.9266    1.0469 C   0  0  0  0  0  0  0  0  0  0  0  0
   -1.4134   -1.1997    0.5723 C   0  0  0  0  0  0  0  0  0  0  0  0
    4.3205   -0.4617   -1.8917 H   0  0  0  0  0  0  0  0  0  0  0  0
    3.7867   -1.4021   -0.4532 H   0  0  0  0  0  0  0  0  0  0  0  0
    2.5871   -0.7930   -1.7213 H   0  0  0  0  0  0  0  0  0  0  0  0
    3.7480    1.5476   -0.9999 H   0  0  0  0  0  0  0  0  0  0  0  0
    3.8381    0.7294    0.5902 H   0  0  0  0  0  0  0  0  0  0  0  0
   -1.0935    2.2036   -0.0045 H   0  0  0  0  0  0  0  0  0  0  0  0
   -0.8185    1.2692    1.4845 H   0  0  0  0  0  0  0  0  0  0  0  0
   -1.2068   -0.0852   -1.2757 H   0  0  0  0  0  0  0  0  0  0  0  0
   -3.2354    1.1675    0.5701 H   0  0  0  0  0  0  0  0  0  0  0  0
   -3.5394   -0.0107   -0.8440 H   0  0  0  0  0  0  0  0  0  0  0  0
   -3.5692   -1.7143    0.7726 H   0  0  0  0  0  0  0  0  0  0  0  0
   -2.8527   -0.5898    2.0854 H   0  0  0  0  0  0  0  0  0  0  0  0
   -0.6692   -1.2404    1.4051 H   0  0  0  0  0  0  0  0  0  0  0  0
   -1.4138   -2.1287   -0.0523 H   0  0  0  0  0  0  0  0  0  0  0  0
  1  2  1  0
  2  3  1  0
  3  4  3  0
  4  5  1  0
  5  6  1  0
  6  7  1  0
  7  8  1  0
  8  9  1  0
  9  6  1  0
  1 10  1  0
  1 11  1  0
  1 12  1  0
  2 13  1  0
  2 14  1  0
  5 15  1  0
  5 16  1  0
  6 17  1  0
  7 18  1  0
  7 19  1  0
  8 20  1  0
  8 21  1  0
  9 22  1  0
  9 23  1  0
M  END
