
     RDKit          3D

 19 18  0  0  0  0  0  0  0  0999 V2000
   -2.7116   -0.0140    1.6914 C   0  0  0  0  0  0  0  0  0  0  0  0
   -2.4096    0.6097    0.3575 C   0  0  0  0  0  0  0  0  0  0  0  0
   -1.2046    0.0536   -0.2643 C   0  0  0  0  0  0  0  0  0  0  0  0
   -0.2235   -0.4045   -0.7938 C   0  0  0  0  0  0  0  0  0  0  0  0
    0.9774   -0.9396   -1.4262 C   0  0  0  0  0  0  0  0  0  0  0  0
    2.1276   -0.0335   -1.0623 C   0  0  0  0  0  0  0  0  0  0  0  0
    1.9015    1.2492   -1.5063 O   0  0  0  0  0  0  0  0  0  0  0  0
    2.4942   -0.1042    0.3653 C   0  0  0  0  0  0  0  0  0  0  0  0
    2.5956    0.8505    1.1044 O   0  0  0  0  0  0  0  0  0  0  0  0
   -1.8710   -0.6621    2.0532 H   0  0  0  0  0  0  0  0  0  0  0  0
   -2.9470    0.7578    2.4692 H   0  0  0  0  0  0  0  0  0  0  0  0
   -3.5902   -0.6897    1.6251 H   0  0  0  0  0  0  0  0  0  0  0  0
   -3.3131    0.4617   -0.2931 H   0  0  0  0  0  0  0  0  0  0  0  0
   -2.2247    1.7071    0.5253 H   0  0  0  0  0  0  0  0  0  0  0  0
    1.1549   -1.9375   -1.0015 H   0  0  0  0  0  0  0  0  0  0  0  0
    0.8989   -1.0330   -2.5087 H   0  0  0  0  0  0  0  0  0  0  0  0
    3.0178   -0.4250   -1.6373 H   0  0  0  0  0  0  0  0  0  0  0  0
    2.6392    1.6322   -2.0075 H   0  0  0  0  0  0  0  0  0  0  0  0
    2.6881   -1.0786    0.7898 H   0  0  0  0  0  0  0  0  0  0  0  0
  1  2  1  0
  2  3  1  0
  3  4  3  0
  4  5  1  0
  5  6  1  0
  6  7  1  0
  6  8  1  0
  8  9  2  0
  1 10  1  0
  1 11  1  0
  1 12  1  0
  2 13  1  0
  2 14  1  0
  5 15  1  0
  5 16  1  0
  6 17  1  0
  7 18  1  0
  8 19  1  0
M  END
