
     RDKit          3D

 17 16  0  0  0  0  0  0  0  0999 V2000
    2.8912   -0.0558    0.4018 C   0  0  0  0  0  0  0  0  0  0  0  0
    2.1622   -0.7425   -0.7324 C   0  0  0  0  0  0  0  0  0  0  0  0
    0.7685   -0.2637   -0.6651 C   0  0  0  0  0  0  0  0  0  0  0  0
   -0.3747    0.1322   -0.5933 C   0  0  0  0  0  0  0  0  0  0  0  0
   -1.7660    0.6091   -0.4808 C   0  0  0  0  0  0  0  0  0  0  0  0
   -2.4852   -0.0971    0.6503 C   0  0  0  0  0  0  0  0  0  0  0  0
   -2.4264    0.3913   -1.7009 O   0  0  0  0  0  0  0  0  0  0  0  0
    3.9759   -0.0240    0.1829 H   0  0  0  0  0  0  0  0  0  0  0  0
    2.6526   -0.6278    1.3273 H   0  0  0  0  0  0  0  0  0  0  0  0
    2.4924    0.9658    0.5683 H   0  0  0  0  0  0  0  0  0  0  0  0
    2.6578   -0.4309   -1.6705 H   0  0  0  0  0  0  0  0  0  0  0  0
    2.2110   -1.8398   -0.6225 H   0  0  0  0  0  0  0  0  0  0  0  0
   -1.7027    1.7037   -0.3251 H   0  0  0  0  0  0  0  0  0  0  0  0
   -3.0277    0.6052    1.3138 H   0  0  0  0  0  0  0  0  0  0  0  0
   -3.2067   -0.8298    0.1913 H   0  0  0  0  0  0  0  0  0  0  0  0
   -1.7519   -0.6315    1.3203 H   0  0  0  0  0  0  0  0  0  0  0  0
   -3.0706    1.1357   -1.8114 H   0  0  0  0  0  0  0  0  0  0  0  0
  1  2  1  0
  2  3  1  0
  3  4  3  0
  4  5  1  0
  5  6  1  0
  5  7  1  0
  1  8  1  0
  1  9  1  0
  1 10  1  0
  2 11  1  0
  2 12  1  0
  5 13  1  0
  6 14  1  0
  6 15  1  0
  6 16  1  0
  7 17  1  0
M  END
