
     RDKit          3D

 21 21  0  0  0  0  0  0  0  0999 V2000
    3.2037   -1.8432    0.9951 C   0  0  0  0  0  0  0  0  0  0  0  0
    3.0266   -0.8057   -0.0664 C   0  0  0  0  0  0  0  0  0  0  0  0
    1.6548   -0.3016    0.0327 C   0  0  0  0  0  0  0  0  0  0  0  0
    0.5160    0.1364    0.1046 C   0  0  0  0  0  0  0  0  0  0  0  0
   -0.8422    0.6756    0.2109 C   0  0  0  0  0  0  0  0  0  0  0  0
   -1.2272    1.4278   -1.0704 C   0  0  0  0  0  0  0  0  0  0  0  0
   -2.6352    1.0085   -1.3440 C   0  0  0  0  0  0  0  0  0  0  0  0
   -2.9970    0.2318   -0.0924 C   0  0  0  0  0  0  0  0  0  0  0  0
   -1.7763   -0.3611    0.2609 O   0  0  0  0  0  0  0  0  0  0  0  0
    4.1523   -1.6063    1.5448 H   0  0  0  0  0  0  0  0  0  0  0  0
    3.3412   -2.8647    0.5861 H   0  0  0  0  0  0  0  0  0  0  0  0
    2.3858   -1.8533    1.7445 H   0  0  0  0  0  0  0  0  0  0  0  0
    3.7650    0.0132    0.0249 H   0  0  0  0  0  0  0  0  0  0  0  0
    3.1944   -1.3228   -1.0558 H   0  0  0  0  0  0  0  0  0  0  0  0
   -0.9530    1.3843    1.0380 H   0  0  0  0  0  0  0  0  0  0  0  0
   -0.5862    0.9789   -1.8696 H   0  0  0  0  0  0  0  0  0  0  0  0
   -1.0968    2.5056   -0.9631 H   0  0  0  0  0  0  0  0  0  0  0  0
   -3.3216    1.8802   -1.4947 H   0  0  0  0  0  0  0  0  0  0  0  0
   -2.7212    0.3567   -2.2399 H   0  0  0  0  0  0  0  0  0  0  0  0
   -3.3727    0.9181    0.6662 H   0  0  0  0  0  0  0  0  0  0  0  0
   -3.7103   -0.5586   -0.3980 H   0  0  0  0  0  0  0  0  0  0  0  0
  1  2  1  0
  2  3  1  0
  3  4  3  0
  4  5  1  0
  5  6  1  0
  6  7  1  0
  7  8  1  0
  8  9  1  0
  9  5  1  0
  1 10  1  0
  1 11  1  0
  1 12  1  0
  2 13  1  0
  2 14  1  0
  5 15  1  0
  6 16  1  0
  6 17  1  0
  7 18  1  0
  7 19  1  0
  8 20  1  0
  8 21  1  0
M  END
