
     RDKit          3D

 19 19  0  0  0  0  0  0  0  0999 V2000
    3.5556   -0.9049    0.5914 C   0  0  0  0  0  0  0  0  0  0  0  0
    2.5346   -1.7057   -0.1417 C   0  0  0  0  0  0  0  0  0  0  0  0
    1.2733   -0.9030   -0.1415 C   0  0  0  0  0  0  0  0  0  0  0  0
    0.1626   -0.2223   -0.1467 C   0  0  0  0  0  0  0  0  0  0  0  0
   -0.9823    0.4719   -0.1305 C   0  0  0  0  0  0  0  0  0  0  0  0
   -1.6271    0.4499   -1.3904 O   0  0  0  0  0  0  0  0  0  0  0  0
   -2.7074    1.2919   -1.0869 C   0  0  0  0  0  0  0  0  0  0  0  0
   -3.0329    0.9739    0.3573 C   0  0  0  0  0  0  0  0  0  0  0  0
   -2.0522   -0.0044    0.6698 O   0  0  0  0  0  0  0  0  0  0  0  0
    3.1621   -0.7488    1.6320 H   0  0  0  0  0  0  0  0  0  0  0  0
    4.4800   -1.5463    0.6907 H   0  0  0  0  0  0  0  0  0  0  0  0
    3.8557    0.0421    0.0981 H   0  0  0  0  0  0  0  0  0  0  0  0
    2.7593   -2.0259   -1.1485 H   0  0  0  0  0  0  0  0  0  0  0  0
    2.3398   -2.6420    0.4779 H   0  0  0  0  0  0  0  0  0  0  0  0
   -0.8665    1.5970    0.1641 H   0  0  0  0  0  0  0  0  0  0  0  0
   -2.4024    2.3707   -1.1985 H   0  0  0  0  0  0  0  0  0  0  0  0
   -3.5900    1.1379   -1.7327 H   0  0  0  0  0  0  0  0  0  0  0  0
   -2.8368    1.8151    1.0265 H   0  0  0  0  0  0  0  0  0  0  0  0
   -4.0254    0.5529    0.4685 H   0  0  0  0  0  0  0  0  0  0  0  0
  1  2  1  0
  2  3  1  0
  3  4  3  0
  4  5  1  0
  5  6  1  0
  6  7  1  0
  7  8  1  0
  8  9  1  0
  9  5  1  0
  1 10  1  0
  1 11  1  0
  1 12  1  0
  2 13  1  0
  2 14  1  0
  5 15  1  0
  7 16  1  0
  7 17  1  0
  8 18  1  0
  8 19  1  0
M  END
