
     RDKit          3D

 19 18  0  0  0  0  0  0  0  0999 V2000
   -2.6893   -1.5513   -0.5750 C   0  0  0  0  0  0  0  0  0  0  0  0
   -1.2842   -2.0997   -0.6015 C   0  0  0  0  0  0  0  0  0  0  0  0
   -0.3830   -0.9481   -0.3837 C   0  0  0  0  0  0  0  0  0  0  0  0
    0.3630   -0.0203   -0.1932 C   0  0  0  0  0  0  0  0  0  0  0  0
    1.2708    1.1174    0.0633 C   0  0  0  0  0  0  0  0  0  0  0  0
    1.9017    0.9692    1.4414 C   0  0  0  0  0  0  0  0  0  0  0  0
    2.3214    1.1495   -0.8482 O   0  0  0  0  0  0  0  0  0  0  0  0
    0.4433    2.3440   -0.0395 C   0  0  0  0  0  0  0  0  0  0  0  0
   -0.5363    2.5737    0.6406 O   0  0  0  0  0  0  0  0  0  0  0  0
   -2.8142   -0.9084   -1.4704 H   0  0  0  0  0  0  0  0  0  0  0  0
   -3.4126   -2.3887   -0.5540 H   0  0  0  0  0  0  0  0  0  0  0  0
   -2.7865   -0.9017    0.3184 H   0  0  0  0  0  0  0  0  0  0  0  0
   -1.0419   -2.5161   -1.6001 H   0  0  0  0  0  0  0  0  0  0  0  0
   -1.1209   -2.8914    0.1604 H   0  0  0  0  0  0  0  0  0  0  0  0
    2.8079    1.5907    1.4447 H   0  0  0  0  0  0  0  0  0  0  0  0
    2.2529   -0.1016    1.4973 H   0  0  0  0  0  0  0  0  0  0  0  0
    1.1904    1.2169    2.2473 H   0  0  0  0  0  0  0  0  0  0  0  0
    2.7885    0.2788   -0.7787 H   0  0  0  0  0  0  0  0  0  0  0  0
    0.7290    3.0870   -0.7691 H   0  0  0  0  0  0  0  0  0  0  0  0
  1  2  1  0
  2  3  1  0
  3  4  3  0
  4  5  1  0
  5  6  1  0
  5  7  1  0
  5  8  1  0
  8  9  2  0
  1 10  1  0
  1 11  1  0
  1 12  1  0
  2 13  1  0
  2 14  1  0
  6 15  1  0
  6 16  1  0
  6 17  1  0
  7 18  1  0
  8 19  1  0
M  END
