
     RDKit          3D

 20 20  0  0  0  0  0  0  0  0999 V2000
    3.5268    0.5518    1.0703 C   0  0  0  0  0  0  0  0  0  0  0  0
    2.9895   -0.0840   -0.1533 C   0  0  0  0  0  0  0  0  0  0  0  0
    1.5756   -0.3892   -0.0675 C   0  0  0  0  0  0  0  0  0  0  0  0
    0.2561   -0.6904    0.0305 C   0  0  0  0  0  0  0  0  0  0  0  0
   -1.1017   -0.9895    0.1503 C   0  0  0  0  0  0  0  0  0  0  0  0
   -1.8415   -0.1743   -0.9100 C   0  0  0  0  0  0  0  0  0  0  0  0
   -3.3378   -0.2638   -1.0559 C   0  0  0  0  0  0  0  0  0  0  0  0
   -2.6826    0.9581   -0.3713 C   0  0  0  0  0  0  0  0  0  0  0  0
    3.2291    1.6341    1.1114 H   0  0  0  0  0  0  0  0  0  0  0  0
    3.3628    0.0485    2.0340 H   0  0  0  0  0  0  0  0  0  0  0  0
    4.6562    0.6236    0.9486 H   0  0  0  0  0  0  0  0  0  0  0  0
    3.5193   -0.9711   -0.5045 H   0  0  0  0  0  0  0  0  0  0  0  0
    3.1421    0.6733   -1.0006 H   0  0  0  0  0  0  0  0  0  0  0  0
   -1.5123   -0.7135    1.1620 H   0  0  0  0  0  0  0  0  0  0  0  0
   -1.3746   -2.0524    0.0028 H   0  0  0  0  0  0  0  0  0  0  0  0
   -1.2589   -0.0511   -1.8240 H   0  0  0  0  0  0  0  0  0  0  0  0
   -3.7340   -0.0556   -2.0841 H   0  0  0  0  0  0  0  0  0  0  0  0
   -3.8955   -0.9291   -0.3915 H   0  0  0  0  0  0  0  0  0  0  0  0
   -2.8138    0.9492    0.7552 H   0  0  0  0  0  0  0  0  0  0  0  0
   -2.7047    1.9255   -0.9074 H   0  0  0  0  0  0  0  0  0  0  0  0
  1  2  1  0
  2  3  1  0
  3  4  3  0
  4  5  1  0
  5  6  1  0
  6  7  1  0
  7  8  1  0
  8  6  1  0
  1  9  1  0
  1 10  1  0
  1 11  1  0
  2 12  1  0
  2 13  1  0
  5 14  1  0
  5 15  1  0
  6 16  1  0
  7 17  1  0
  7 18  1  0
  8 19  1  0
  8 20  1  0
M  END
