
     RDKit          3D

 19 18  0  0  0  0  0  0  0  0999 V2000
    4.1030    0.3292   -0.7229 C   0  0  0  0  0  0  0  0  0  0  0  0
    3.4062    1.1097    0.3384 C   0  0  0  0  0  0  0  0  0  0  0  0
    1.9640    0.7988    0.2723 C   0  0  0  0  0  0  0  0  0  0  0  0
    0.7820    0.5531    0.2347 C   0  0  0  0  0  0  0  0  0  0  0  0
   -0.6088    0.2387    0.1936 C   0  0  0  0  0  0  0  0  0  0  0  0
   -1.7913   -0.0230    0.1724 C   0  0  0  0  0  0  0  0  0  0  0  0
   -3.2269   -0.3216    0.1312 C   0  0  0  0  0  0  0  0  0  0  0  0
   -3.5832   -0.9477    1.4520 C   0  0  0  0  0  0  0  0  0  0  0  0
   -3.4841   -1.2178   -0.9224 O   0  0  0  0  0  0  0  0  0  0  0  0
    5.1571    0.0968   -0.4626 H   0  0  0  0  0  0  0  0  0  0  0  0
    3.5703   -0.6545   -0.8259 H   0  0  0  0  0  0  0  0  0  0  0  0
    4.0410    0.8711   -1.6963 H   0  0  0  0  0  0  0  0  0  0  0  0
    3.5790    2.2025    0.1093 H   0  0  0  0  0  0  0  0  0  0  0  0
    3.7652    0.8576    1.3593 H   0  0  0  0  0  0  0  0  0  0  0  0
   -3.8108    0.6196   -0.0455 H   0  0  0  0  0  0  0  0  0  0  0  0
   -4.0980   -0.2194    2.1010 H   0  0  0  0  0  0  0  0  0  0  0  0
   -4.3054   -1.7713    1.2448 H   0  0  0  0  0  0  0  0  0  0  0  0
   -2.6827   -1.3547    1.9530 H   0  0  0  0  0  0  0  0  0  0  0  0
   -2.7765   -1.1670   -1.6262 H   0  0  0  0  0  0  0  0  0  0  0  0
  1  2  1  0
  2  3  1  0
  3  4  3  0
  4  5  1  0
  5  6  3  0
  6  7  1  0
  7  8  1  0
  7  9  1  0
  1 10  1  0
  1 11  1  0
  1 12  1  0
  2 13  1  0
  2 14  1  0
  7 15  1  0
  8 16  1  0
  8 17  1  0
  8 18  1  0
  9 19  1  0
M  END
