
     RDKit          3D

 19 18  0  0  0  0  0  0  0  0999 V2000
   -3.7359    0.7377   -0.2708 C   0  0  0  0  0  0  0  0  0  0  0  0
   -2.9326   -0.4904   -0.6884 C   0  0  0  0  0  0  0  0  0  0  0  0
   -1.5086   -0.1820   -0.5438 C   0  0  0  0  0  0  0  0  0  0  0  0
   -0.3161    0.0555   -0.4295 C   0  0  0  0  0  0  0  0  0  0  0  0
    1.0818    0.3584   -0.2918 C   0  0  0  0  0  0  0  0  0  0  0  0
    1.6470    0.8866   -1.2687 O   0  0  0  0  0  0  0  0  0  0  0  0
    1.7742    0.0400    0.9687 C   0  0  0  0  0  0  0  0  0  0  0  0
    3.1008    0.3020    1.0092 O   0  0  0  0  0  0  0  0  0  0  0  0
    3.8448   -0.4120    0.1291 C   0  0  0  0  0  0  0  0  0  0  0  0
   -3.1340    1.2514    0.5069 H   0  0  0  0  0  0  0  0  0  0  0  0
   -4.7123    0.4603    0.1275 H   0  0  0  0  0  0  0  0  0  0  0  0
   -3.8303    1.4515   -1.1163 H   0  0  0  0  0  0  0  0  0  0  0  0
   -3.2532   -1.3391   -0.0720 H   0  0  0  0  0  0  0  0  0  0  0  0
   -3.1262   -0.7180   -1.7650 H   0  0  0  0  0  0  0  0  0  0  0  0
    1.2385    0.6053    1.7932 H   0  0  0  0  0  0  0  0  0  0  0  0
    1.5835   -1.0592    1.1880 H   0  0  0  0  0  0  0  0  0  0  0  0
    4.9418   -0.1872    0.1793 H   0  0  0  0  0  0  0  0  0  0  0  0
    3.5462   -0.2626   -0.8982 H   0  0  0  0  0  0  0  0  0  0  0  0
    3.7905   -1.4981    0.4220 H   0  0  0  0  0  0  0  0  0  0  0  0
  1  2  1  0
  2  3  1  0
  3  4  3  0
  4  5  1  0
  5  6  2  0
  5  7  1  0
  7  8  1  0
  8  9  1  0
  1 10  1  0
  1 11  1  0
  1 12  1  0
  2 13  1  0
  2 14  1  0
  7 15  1  0
  7 16  1  0
  9 17  1  0
  9 18  1  0
  9 19  1  0
M  END
