
     RDKit          3D

 20 19  0  0  0  0  0  0  0  0999 V2000
    2.3699    2.6098   -0.2816 C   0  0  0  0  0  0  0  0  0  0  0  0
    1.6566    2.1530    1.0109 C   0  0  0  0  0  0  0  0  0  0  0  0
    0.8805    1.0266    0.6826 C   0  0  0  0  0  0  0  0  0  0  0  0
    0.1220   -0.0888    0.3821 C   0  0  0  0  0  0  0  0  0  0  0  0
   -0.6113   -1.1422    0.1147 C   0  0  0  0  0  0  0  0  0  0  0  0
   -1.8254   -1.0934    1.1325 C   0  0  0  0  0  0  0  0  0  0  0  0
   -1.2315   -1.0832   -1.1818 O   0  0  0  0  0  0  0  0  0  0  0  0
   -1.4577   -2.2687   -1.7825 C   0  0  0  0  0  0  0  0  0  0  0  0
    2.5398    1.6695   -0.8526 H   0  0  0  0  0  0  0  0  0  0  0  0
    3.3288    3.1176    0.0053 H   0  0  0  0  0  0  0  0  0  0  0  0
    1.6369    3.2549   -0.7772 H   0  0  0  0  0  0  0  0  0  0  0  0
    2.4172    1.9398    1.7890 H   0  0  0  0  0  0  0  0  0  0  0  0
    0.9965    3.0085    1.3924 H   0  0  0  0  0  0  0  0  0  0  0  0
   -0.2758   -2.1603    0.2409 H   0  0  0  0  0  0  0  0  0  0  0  0
   -2.1775   -0.0160    1.0477 H   0  0  0  0  0  0  0  0  0  0  0  0
   -1.3379   -1.1412    2.1090 H   0  0  0  0  0  0  0  0  0  0  0  0
   -2.5793   -1.8160    0.8916 H   0  0  0  0  0  0  0  0  0  0  0  0
   -2.1895   -2.9305   -1.2744 H   0  0  0  0  0  0  0  0  0  0  0  0
   -0.4928   -2.8695   -1.8078 H   0  0  0  0  0  0  0  0  0  0  0  0
   -1.7695   -2.1701   -2.8407 H   0  0  0  0  0  0  0  0  0  0  0  0
  1  2  1  0
  2  3  1  0
  3  4  3  0
  4  5  1  0
  5  6  1  0
  5  7  1  0
  7  8  1  0
  1  9  1  0
  1 10  1  0
  1 11  1  0
  2 12  1  0
  2 13  1  0
  5 14  1  0
  6 15  1  0
  6 16  1  0
  6 17  1  0
  8 18  1  0
  8 19  1  0
  8 20  1  0
M  END
