
     RDKit          3D

 23 23  0  0  0  0  0  0  0  0999 V2000
    3.6117    0.9085   -1.8003 C   0  0  0  0  0  0  0  0  0  0  0  0
    2.8323   -0.2402   -2.3806 C   0  0  0  0  0  0  0  0  0  0  0  0
    1.6065   -0.4330   -1.5542 C   0  0  0  0  0  0  0  0  0  0  0  0
    0.5560   -0.6070   -0.8666 C   0  0  0  0  0  0  0  0  0  0  0  0
   -0.6580   -0.8185   -0.0986 C   0  0  0  0  0  0  0  0  0  0  0  0
   -1.8122    0.0123   -0.6884 C   0  0  0  0  0  0  0  0  0  0  0  0
   -1.1963    0.2589    0.7100 C   0  0  0  0  0  0  0  0  0  0  0  0
   -2.2212    0.2891    1.7463 C   0  0  0  0  0  0  0  0  0  0  0  0
   -2.0961   -0.5065    2.9889 C   0  0  0  0  0  0  0  0  0  0  0  0
    3.2414    1.1321   -0.7504 H   0  0  0  0  0  0  0  0  0  0  0  0
    3.4287    1.8565   -2.3688 H   0  0  0  0  0  0  0  0  0  0  0  0
    4.6662    0.6445   -1.6812 H   0  0  0  0  0  0  0  0  0  0  0  0
    3.3347   -1.1986   -2.4109 H   0  0  0  0  0  0  0  0  0  0  0  0
    2.5150    0.0286   -3.4344 H   0  0  0  0  0  0  0  0  0  0  0  0
   -0.8818   -1.8978    0.0654 H   0  0  0  0  0  0  0  0  0  0  0  0
   -1.5999    0.7304   -1.4677 H   0  0  0  0  0  0  0  0  0  0  0  0
   -2.7749   -0.5144   -0.7358 H   0  0  0  0  0  0  0  0  0  0  0  0
   -0.5311    1.2067    0.7073 H   0  0  0  0  0  0  0  0  0  0  0  0
   -3.2460    0.0420    1.2942 H   0  0  0  0  0  0  0  0  0  0  0  0
   -2.4102    1.3689    2.0851 H   0  0  0  0  0  0  0  0  0  0  0  0
   -3.1346   -0.5523    3.5039 H   0  0  0  0  0  0  0  0  0  0  0  0
   -1.8438   -1.5538    2.7623 H   0  0  0  0  0  0  0  0  0  0  0  0
   -1.3864   -0.1566    3.7494 H   0  0  0  0  0  0  0  0  0  0  0  0
  1  2  1  0
  2  3  1  0
  3  4  3  0
  4  5  1  0
  5  6  1  0
  6  7  1  0
  7  8  1  0
  8  9  1  0
  7  5  1  0
  1 10  1  0
  1 11  1  0
  1 12  1  0
  2 13  1  0
  2 14  1  0
  5 15  1  0
  6 16  1  0
  6 17  1  0
  7 18  1  0
  8 19  1  0
  8 20  1  0
  9 21  1  0
  9 22  1  0
  9 23  1  0
M  END
