
     RDKit          3D

 19 19  0  0  0  0  0  0  0  0999 V2000
   -3.1140    0.5080    0.1149 C   0  0  0  0  0  0  0  0  0  0  0  0
   -2.4471   -0.5613   -0.7216 C   0  0  0  0  0  0  0  0  0  0  0  0
   -1.0050   -0.6040   -0.4583 C   0  0  0  0  0  0  0  0  0  0  0  0
    0.1934   -0.6357   -0.2588 C   0  0  0  0  0  0  0  0  0  0  0  0
    1.6415   -0.6816   -0.0361 C   0  0  0  0  0  0  0  0  0  0  0  0
    2.2603   -1.9451   -0.1009 O   0  0  0  0  0  0  0  0  0  0  0  0
    2.1085    0.2553    1.0538 C   0  0  0  0  0  0  0  0  0  0  0  0
    2.3983    0.4970   -0.4533 C   0  0  0  0  0  0  0  0  0  0  0  0
    1.8225    1.6333   -0.9765 O   0  0  0  0  0  0  0  0  0  0  0  0
   -4.0917    0.7346   -0.3995 H   0  0  0  0  0  0  0  0  0  0  0  0
   -2.5299    1.4444    0.1144 H   0  0  0  0  0  0  0  0  0  0  0  0
   -3.3764    0.1466    1.1173 H   0  0  0  0  0  0  0  0  0  0  0  0
   -2.5763   -0.3773   -1.8045 H   0  0  0  0  0  0  0  0  0  0  0  0
   -2.9408   -1.5297   -0.4691 H   0  0  0  0  0  0  0  0  0  0  0  0
    1.7181   -2.5264    0.4990 H   0  0  0  0  0  0  0  0  0  0  0  0
    1.3653    0.9578    1.5191 H   0  0  0  0  0  0  0  0  0  0  0  0
    2.9494   -0.1178    1.6665 H   0  0  0  0  0  0  0  0  0  0  0  0
    3.4821    0.3359   -0.7202 H   0  0  0  0  0  0  0  0  0  0  0  0
    2.1420    2.4659   -0.5049 H   0  0  0  0  0  0  0  0  0  0  0  0
  1  2  1  0
  2  3  1  0
  3  4  3  0
  4  5  1  0
  5  6  1  0
  5  7  1  0
  7  8  1  0
  8  9  1  0
  8  5  1  0
  1 10  1  0
  1 11  1  0
  1 12  1  0
  2 13  1  0
  2 14  1  0
  6 15  1  0
  7 16  1  0
  7 17  1  0
  8 18  1  0
  9 19  1  0
M  END
