
     RDKit          3D

 23 23  0  0  0  0  0  0  0  0999 V2000
    3.5619    0.9709    0.0247 C   0  0  0  0  0  0  0  0  0  0  0  0
    3.0403   -0.3836   -0.4059 C   0  0  0  0  0  0  0  0  0  0  0  0
    1.5918   -0.3724   -0.2617 C   0  0  0  0  0  0  0  0  0  0  0  0
    0.3727   -0.3694   -0.1609 C   0  0  0  0  0  0  0  0  0  0  0  0
   -1.0831   -0.3904   -0.0332 C   0  0  0  0  0  0  0  0  0  0  0  0
   -1.5697   -1.7238    0.4454 C   0  0  0  0  0  0  0  0  0  0  0  0
   -1.7247    0.1430   -1.2839 C   0  0  0  0  0  0  0  0  0  0  0  0
   -2.7206    0.8797   -0.3794 C   0  0  0  0  0  0  0  0  0  0  0  0
   -1.6445    0.8030    0.7091 C   0  0  0  0  0  0  0  0  0  0  0  0
    3.7963    1.5290   -0.9077 H   0  0  0  0  0  0  0  0  0  0  0  0
    2.8167    1.4732    0.6514 H   0  0  0  0  0  0  0  0  0  0  0  0
    4.5142    0.7785    0.5753 H   0  0  0  0  0  0  0  0  0  0  0  0
    3.2801   -0.5931   -1.4682 H   0  0  0  0  0  0  0  0  0  0  0  0
    3.5068   -1.2036    0.2015 H   0  0  0  0  0  0  0  0  0  0  0  0
   -1.4171   -2.4572   -0.3871 H   0  0  0  0  0  0  0  0  0  0  0  0
   -0.8646   -2.0524    1.2562 H   0  0  0  0  0  0  0  0  0  0  0  0
   -2.5964   -1.7276    0.8269 H   0  0  0  0  0  0  0  0  0  0  0  0
   -1.0880    0.8448   -1.8425 H   0  0  0  0  0  0  0  0  0  0  0  0
   -2.2308   -0.5745   -1.9277 H   0  0  0  0  0  0  0  0  0  0  0  0
   -2.9150    1.8735   -0.7732 H   0  0  0  0  0  0  0  0  0  0  0  0
   -3.5814    0.2690   -0.0775 H   0  0  0  0  0  0  0  0  0  0  0  0
   -2.0703    0.6116    1.6929 H   0  0  0  0  0  0  0  0  0  0  0  0
   -0.9745    1.6717    0.6038 H   0  0  0  0  0  0  0  0  0  0  0  0
  1  2  1  0
  2  3  1  0
  3  4  3  0
  4  5  1  0
  5  6  1  0
  5  7  1  0
  7  8  1  0
  8  9  1  0
  9  5  1  0
  1 10  1  0
  1 11  1  0
  1 12  1  0
  2 13  1  0
  2 14  1  0
  6 15  1  0
  6 16  1  0
  6 17  1  0
  7 18  1  0
  7 19  1  0
  8 20  1  0
  8 21  1  0
  9 22  1  0
  9 23  1  0
M  END
