
     RDKit          3D

 21 20  0  0  0  0  0  0  0  0999 V2000
   -3.9580   -1.1558   -0.5919 C   0  0  0  0  0  0  0  0  0  0  0  0
   -2.9577   -2.3463   -0.2620 C   0  0  0  0  0  0  0  0  0  0  0  0
   -1.7321   -1.9476   -0.6193 C   0  0  0  0  0  0  0  0  0  0  0  0
   -0.3300   -1.4633   -1.0335 C   0  0  0  0  0  0  0  0  0  0  0  0
    0.8098   -1.0879   -1.3551 C   0  0  0  0  0  0  0  0  0  0  0  0
    1.4082   -0.2008   -0.5887 C   0  0  0  0  0  0  0  0  0  0  0  0
    2.0562    0.7951    0.2830 C   0  0  0  0  0  0  0  0  0  0  0  0
    2.6311    1.6508    1.0585 C   0  0  0  0  0  0  0  0  0  0  0  0
    3.0214    2.9906    0.3807 C   0  0  0  0  0  0  0  0  0  0  0  0
   -4.9299   -1.1849   -0.1351 H   0  0  0  0  0  0  0  0  0  0  0  0
   -3.7749   -0.8452   -1.6546 H   0  0  0  0  0  0  0  0  0  0  0  0
   -3.3703   -0.2083   -0.0810 H   0  0  0  0  0  0  0  0  0  0  0  0
   -3.2961   -3.1747   -0.9971 H   0  0  0  0  0  0  0  0  0  0  0  0
   -3.1441   -2.5759    0.7893 H   0  0  0  0  0  0  0  0  0  0  0  0
    1.5485   -1.8912   -1.7908 H   0  0  0  0  0  0  0  0  0  0  0  0
    0.7184   -0.4409   -2.4976 H   0  0  0  0  0  0  0  0  0  0  0  0
    3.6770    1.2588    1.4759 H   0  0  0  0  0  0  0  0  0  0  0  0
    2.0966    1.8814    2.0357 H   0  0  0  0  0  0  0  0  0  0  0  0
    3.3017    3.7623    1.0936 H   0  0  0  0  0  0  0  0  0  0  0  0
    4.0131    2.8620   -0.2161 H   0  0  0  0  0  0  0  0  0  0  0  0
    2.2111    3.3216   -0.2882 H   0  0  0  0  0  0  0  0  0  0  0  0
  1  2  1  0
  2  3  1  0
  3  4  3  0
  4  5  1  0
  5  6  1  0
  6  7  3  0
  7  8  1  0
  8  9  1  0
  1 10  1  0
  1 11  1  0
  1 12  1  0
  2 13  1  0
  2 14  1  0
  5 15  1  0
  5 16  1  0
  8 17  1  0
  8 18  1  0
  9 19  1  0
  9 20  1  0
  9 21  1  0
M  END
