
     RDKit          3D

 21 21  0  0  0  0  0  0  0  0999 V2000
    3.4674    1.0039   -0.1516 C   0  0  0  0  0  0  0  0  0  0  0  0
    2.8870   -0.1599    0.5857 C   0  0  0  0  0  0  0  0  0  0  0  0
    1.4865   -0.3091    0.1462 C   0  0  0  0  0  0  0  0  0  0  0  0
    0.3336   -0.4314   -0.2118 C   0  0  0  0  0  0  0  0  0  0  0  0
   -1.0577   -0.5547   -0.6482 C   0  0  0  0  0  0  0  0  0  0  0  0
   -1.8555   -1.0912    0.5205 C   0  0  0  0  0  0  0  0  0  0  0  0
   -3.1463   -0.3544    0.3989 C   0  0  0  0  0  0  0  0  0  0  0  0
   -2.9857    0.7089   -0.4432 O   0  0  0  0  0  0  0  0  0  0  0  0
   -1.6772    0.8149   -0.8209 C   0  0  0  0  0  0  0  0  0  0  0  0
    4.5499    0.8106   -0.3084 H   0  0  0  0  0  0  0  0  0  0  0  0
    2.9276    1.1484   -1.1093 H   0  0  0  0  0  0  0  0  0  0  0  0
    3.4146    1.9527    0.4449 H   0  0  0  0  0  0  0  0  0  0  0  0
    3.4801   -1.0720    0.3176 H   0  0  0  0  0  0  0  0  0  0  0  0
    2.9438    0.0498    1.6811 H   0  0  0  0  0  0  0  0  0  0  0  0
   -1.1662   -1.1811   -1.5535 H   0  0  0  0  0  0  0  0  0  0  0  0
   -1.3576   -0.8331    1.4819 H   0  0  0  0  0  0  0  0  0  0  0  0
   -2.0539   -2.1679    0.4070 H   0  0  0  0  0  0  0  0  0  0  0  0
   -3.5492    0.0011    1.3633 H   0  0  0  0  0  0  0  0  0  0  0  0
   -3.9520   -1.0085   -0.0444 H   0  0  0  0  0  0  0  0  0  0  0  0
   -1.5901    1.1678   -1.8799 H   0  0  0  0  0  0  0  0  0  0  0  0
   -1.0993    1.5049   -0.1409 H   0  0  0  0  0  0  0  0  0  0  0  0
  1  2  1  0
  2  3  1  0
  3  4  3  0
  4  5  1  0
  5  6  1  0
  6  7  1  0
  7  8  1  0
  8  9  1  0
  9  5  1  0
  1 10  1  0
  1 11  1  0
  1 12  1  0
  2 13  1  0
  2 14  1  0
  5 15  1  0
  6 16  1  0
  6 17  1  0
  7 18  1  0
  7 19  1  0
  9 20  1  0
  9 21  1  0
M  END
