
     RDKit          3D

 17 16  0  0  0  0  0  0  0  0999 V2000
   -3.6366   -0.7744   -0.5597 C   0  0  0  0  0  0  0  0  0  0  0  0
   -2.7582   -1.5329    0.3740 C   0  0  0  0  0  0  0  0  0  0  0  0
   -1.3640   -1.0206    0.3082 C   0  0  0  0  0  0  0  0  0  0  0  0
   -0.2467   -0.6073    0.2347 C   0  0  0  0  0  0  0  0  0  0  0  0
    1.1028   -0.1095    0.1284 C   0  0  0  0  0  0  0  0  0  0  0  0
    2.2014    0.2871    0.0377 C   0  0  0  0  0  0  0  0  0  0  0  0
    3.6177    0.8019   -0.0556 C   0  0  0  0  0  0  0  0  0  0  0  0
    3.5593    2.2297    0.3153 C   0  0  0  0  0  0  0  0  0  0  0  0
    2.5037    2.7475    0.6212 O   0  0  0  0  0  0  0  0  0  0  0  0
   -3.9731   -1.4393   -1.3898 H   0  0  0  0  0  0  0  0  0  0  0  0
   -3.1577    0.1393   -0.9967 H   0  0  0  0  0  0  0  0  0  0  0  0
   -4.5784   -0.4378   -0.0741 H   0  0  0  0  0  0  0  0  0  0  0  0
   -3.1577   -1.4455    1.4015 H   0  0  0  0  0  0  0  0  0  0  0  0
   -2.7169   -2.6210    0.1435 H   0  0  0  0  0  0  0  0  0  0  0  0
    3.8862    0.6691   -1.1235 H   0  0  0  0  0  0  0  0  0  0  0  0
    4.2719    0.2654    0.6551 H   0  0  0  0  0  0  0  0  0  0  0  0
    4.4462    2.8482    0.3252 H   0  0  0  0  0  0  0  0  0  0  0  0
  1  2  1  0
  2  3  1  0
  3  4  3  0
  4  5  1  0
  5  6  3  0
  6  7  1  0
  7  8  1  0
  8  9  2  0
  1 10  1  0
  1 11  1  0
  1 12  1  0
  2 13  1  0
  2 14  1  0
  7 15  1  0
  7 16  1  0
  8 17  1  0
M  END
