
     RDKit          3D

 19 18  0  0  0  0  0  0  0  0999 V2000
    2.7575    1.7350   -0.3994 C   0  0  0  0  0  0  0  0  0  0  0  0
    2.4616    0.4015    0.2778 C   0  0  0  0  0  0  0  0  0  0  0  0
    1.1554   -0.1127   -0.1358 C   0  0  0  0  0  0  0  0  0  0  0  0
    0.1013   -0.5224   -0.4781 C   0  0  0  0  0  0  0  0  0  0  0  0
   -1.2004   -1.0097   -0.9175 C   0  0  0  0  0  0  0  0  0  0  0  0
   -2.3304   -0.4450   -0.0874 C   0  0  0  0  0  0  0  0  0  0  0  0
   -2.2317   -0.7877    1.3608 C   0  0  0  0  0  0  0  0  0  0  0  0
    3.1708    1.5302   -1.3978 H   0  0  0  0  0  0  0  0  0  0  0  0
    3.4928    2.3255    0.1833 H   0  0  0  0  0  0  0  0  0  0  0  0
    1.8256    2.3353   -0.4591 H   0  0  0  0  0  0  0  0  0  0  0  0
    3.2867   -0.3094   -0.0043 H   0  0  0  0  0  0  0  0  0  0  0  0
    2.5278    0.4906    1.3853 H   0  0  0  0  0  0  0  0  0  0  0  0
   -1.4030   -0.6675   -1.9749 H   0  0  0  0  0  0  0  0  0  0  0  0
   -1.2547   -2.1164   -0.9657 H   0  0  0  0  0  0  0  0  0  0  0  0
   -3.2659   -0.9458   -0.4761 H   0  0  0  0  0  0  0  0  0  0  0  0
   -2.4810    0.6227   -0.2324 H   0  0  0  0  0  0  0  0  0  0  0  0
   -1.7114   -1.7595    1.5191 H   0  0  0  0  0  0  0  0  0  0  0  0
   -3.2348   -0.8077    1.8420 H   0  0  0  0  0  0  0  0  0  0  0  0
   -1.6662    0.0430    1.8642 H   0  0  0  0  0  0  0  0  0  0  0  0
  1  2  1  0
  2  3  1  0
  3  4  3  0
  4  5  1  0
  5  6  1  0
  6  7  1  0
  1  8  1  0
  1  9  1  0
  1 10  1  0
  2 11  1  0
  2 12  1  0
  5 13  1  0
  5 14  1  0
  6 15  1  0
  6 16  1  0
  7 17  1  0
  7 18  1  0
  7 19  1  0
M  END
