
     RDKit          3D

 19 20  0  0  0  0  0  0  0  0999 V2000
    2.8452   -1.2257    1.5949 C   0  0  0  0  0  0  0  0  0  0  0  0
    2.4724   -0.1437    0.5775 C   0  0  0  0  0  0  0  0  0  0  0  0
    1.0021   -0.2200    0.3074 C   0  0  0  0  0  0  0  0  0  0  0  0
   -0.3156   -0.2894    0.0861 C   0  0  0  0  0  0  0  0  0  0  0  0
   -1.7376   -0.3413   -0.1633 C   0  0  0  0  0  0  0  0  0  0  0  0
   -2.2961    0.9786    0.0718 C   0  0  0  0  0  0  0  0  0  0  0  0
   -1.8038    1.3253   -1.3788 C   0  0  0  0  0  0  0  0  0  0  0  0
   -2.6865    0.6667   -2.3037 O   0  0  0  0  0  0  0  0  0  0  0  0
   -1.6603   -0.0017   -1.7400 C   0  0  0  0  0  0  0  0  0  0  0  0
    2.0621   -2.0549    1.5212 H   0  0  0  0  0  0  0  0  0  0  0  0
    3.8087   -1.7267    1.2955 H   0  0  0  0  0  0  0  0  0  0  0  0
    2.8361   -0.8501    2.6133 H   0  0  0  0  0  0  0  0  0  0  0  0
    3.0054   -0.3193   -0.3709 H   0  0  0  0  0  0  0  0  0  0  0  0
    2.6253    0.8769    0.9798 H   0  0  0  0  0  0  0  0  0  0  0  0
   -2.2481   -1.2279    0.0251 H   0  0  0  0  0  0  0  0  0  0  0  0
   -3.4139    1.0947    0.0628 H   0  0  0  0  0  0  0  0  0  0  0  0
   -1.8042    1.7589    0.6878 H   0  0  0  0  0  0  0  0  0  0  0  0
   -1.6333    2.3722   -1.5577 H   0  0  0  0  0  0  0  0  0  0  0  0
   -1.0580   -0.6726   -2.3087 H   0  0  0  0  0  0  0  0  0  0  0  0
  1  2  1  0
  2  3  1  0
  3  4  3  0
  4  5  1  0
  5  6  1  0
  6  7  1  0
  7  8  1  0
  8  9  1  0
  9  5  1  0
  9  7  1  0
  1 10  1  0
  1 11  1  0
  1 12  1  0
  2 13  1  0
  2 14  1  0
  5 15  1  0
  6 16  1  0
  6 17  1  0
  7 18  1  0
  9 19  1  0
M  END
