
     RDKit          3D

 19 18  0  0  0  0  0  0  0  0999 V2000
    3.1225   -0.0838    1.5067 C   0  0  0  0  0  0  0  0  0  0  0  0
    2.3160    0.9305    0.7507 C   0  0  0  0  0  0  0  0  0  0  0  0
    1.2795    0.2877   -0.0531 C   0  0  0  0  0  0  0  0  0  0  0  0
    0.4041   -0.2624   -0.7099 C   0  0  0  0  0  0  0  0  0  0  0  0
   -0.6583   -0.9157   -1.4765 C   0  0  0  0  0  0  0  0  0  0  0  0
   -1.9794   -0.1583   -1.3278 C   0  0  0  0  0  0  0  0  0  0  0  0
   -2.2965   -0.1625    0.0471 O   0  0  0  0  0  0  0  0  0  0  0  0
   -3.4301    0.4341    0.5573 C   0  0  0  0  0  0  0  0  0  0  0  0
   -4.2214    1.0107   -0.2392 O   0  0  0  0  0  0  0  0  0  0  0  0
    4.0725   -0.3276    0.9484 H   0  0  0  0  0  0  0  0  0  0  0  0
    2.5884   -1.0303    1.6991 H   0  0  0  0  0  0  0  0  0  0  0  0
    3.4613    0.3302    2.4971 H   0  0  0  0  0  0  0  0  0  0  0  0
    3.0440    1.4912    0.0968 H   0  0  0  0  0  0  0  0  0  0  0  0
    1.8997    1.7085    1.4320 H   0  0  0  0  0  0  0  0  0  0  0  0
   -0.4300   -0.9134   -2.5731 H   0  0  0  0  0  0  0  0  0  0  0  0
   -0.8052   -1.9585   -1.1570 H   0  0  0  0  0  0  0  0  0  0  0  0
   -1.9314    0.8359   -1.7752 H   0  0  0  0  0  0  0  0  0  0  0  0
   -2.7556   -0.7718   -1.8335 H   0  0  0  0  0  0  0  0  0  0  0  0
   -3.6800    0.4351    1.6101 H   0  0  0  0  0  0  0  0  0  0  0  0
  1  2  1  0
  2  3  1  0
  3  4  3  0
  4  5  1  0
  5  6  1  0
  6  7  1  0
  7  8  1  0
  8  9  2  0
  1 10  1  0
  1 11  1  0
  1 12  1  0
  2 13  1  0
  2 14  1  0
  5 15  1  0
  5 16  1  0
  6 17  1  0
  6 18  1  0
  8 19  1  0
M  END
