
     RDKit          3D

 21 21  0  0  0  0  0  0  0  0999 V2000
    3.2239    1.5155    1.6498 C   0  0  0  0  0  0  0  0  0  0  0  0
    3.2316    0.5074    0.5031 C   0  0  0  0  0  0  0  0  0  0  0  0
    1.8515    0.2557    0.1070 C   0  0  0  0  0  0  0  0  0  0  0  0
    0.6796    0.0267   -0.2201 C   0  0  0  0  0  0  0  0  0  0  0  0
   -0.7154   -0.2249   -0.6141 C   0  0  0  0  0  0  0  0  0  0  0  0
   -1.3359    0.2115   -1.6639 C   0  0  0  0  0  0  0  0  0  0  0  0
   -2.7288   -0.2555   -1.7251 C   0  0  0  0  0  0  0  0  0  0  0  0
   -2.8914   -1.2118   -0.5638 C   0  0  0  0  0  0  0  0  0  0  0  0
   -1.6312   -1.0846    0.1975 C   0  0  0  0  0  0  0  0  0  0  0  0
    2.2820    1.3928    2.2631 H   0  0  0  0  0  0  0  0  0  0  0  0
    4.0704    1.2592    2.3130 H   0  0  0  0  0  0  0  0  0  0  0  0
    3.3486    2.5617    1.3055 H   0  0  0  0  0  0  0  0  0  0  0  0
    3.8497    0.9050   -0.3099 H   0  0  0  0  0  0  0  0  0  0  0  0
    3.6937   -0.4354    0.8598 H   0  0  0  0  0  0  0  0  0  0  0  0
   -0.9340    0.8571   -2.4570 H   0  0  0  0  0  0  0  0  0  0  0  0
   -2.8347   -0.8248   -2.7008 H   0  0  0  0  0  0  0  0  0  0  0  0
   -3.4148    0.6034   -1.6930 H   0  0  0  0  0  0  0  0  0  0  0  0
   -3.0287   -2.2622   -0.9532 H   0  0  0  0  0  0  0  0  0  0  0  0
   -3.8281   -0.9322    0.0005 H   0  0  0  0  0  0  0  0  0  0  0  0
   -1.1504   -2.1192    0.2179 H   0  0  0  0  0  0  0  0  0  0  0  0
   -1.7377   -0.7455    1.2461 H   0  0  0  0  0  0  0  0  0  0  0  0
  1  2  1  0
  2  3  1  0
  3  4  3  0
  4  5  1  0
  5  6  2  0
  6  7  1  0
  7  8  1  0
  8  9  1  0
  9  5  1  0
  1 10  1  0
  1 11  1  0
  1 12  1  0
  2 13  1  0
  2 14  1  0
  6 15  1  0
  7 16  1  0
  7 17  1  0
  8 18  1  0
  8 19  1  0
  9 20  1  0
  9 21  1  0
M  END
