
     RDKit          3D

 21 20  0  0  0  0  0  0  0  0999 V2000
    4.3327    0.1935   -0.1491 C   0  0  0  0  0  0  0  0  0  0  0  0
    3.2673   -0.9268   -0.1566 C   0  0  0  0  0  0  0  0  0  0  0  0
    2.0054   -0.4219    0.2211 C   0  0  0  0  0  0  0  0  0  0  0  0
    0.7911    0.0586    0.5602 C   0  0  0  0  0  0  0  0  0  0  0  0
   -0.4429    0.5366    0.9250 C   0  0  0  0  0  0  0  0  0  0  0  0
   -0.6975    1.4677    1.5527 O   0  0  0  0  0  0  0  0  0  0  0  0
   -1.6674   -0.3905    0.4245 C   0  0  0  0  0  0  0  0  0  0  0  0
   -2.6373    0.6082   -0.2008 C   0  0  0  0  0  0  0  0  0  0  0  0
   -4.0096    0.0674   -0.4924 C   0  0  0  0  0  0  0  0  0  0  0  0
    3.8974    1.1810   -0.1180 H   0  0  0  0  0  0  0  0  0  0  0  0
    5.1040    0.0038    0.5826 H   0  0  0  0  0  0  0  0  0  0  0  0
    4.8685    0.0961   -1.1859 H   0  0  0  0  0  0  0  0  0  0  0  0
    3.6298   -1.7318    0.5499 H   0  0  0  0  0  0  0  0  0  0  0  0
    3.2043   -1.3391   -1.1495 H   0  0  0  0  0  0  0  0  0  0  0  0
   -1.2848   -1.1048   -0.2285 H   0  0  0  0  0  0  0  0  0  0  0  0
   -2.1793   -0.7514    1.3223 H   0  0  0  0  0  0  0  0  0  0  0  0
   -2.1997    0.9017   -1.2066 H   0  0  0  0  0  0  0  0  0  0  0  0
   -2.6925    1.4899    0.4372 H   0  0  0  0  0  0  0  0  0  0  0  0
   -4.1222   -1.0112   -0.5477 H   0  0  0  0  0  0  0  0  0  0  0  0
   -4.4164    0.5504   -1.4335 H   0  0  0  0  0  0  0  0  0  0  0  0
   -4.7509    0.5225    0.2930 H   0  0  0  0  0  0  0  0  0  0  0  0
  1  2  1  0
  2  3  1  0
  3  4  3  0
  4  5  1  0
  5  6  2  0
  5  7  1  0
  7  8  1  0
  8  9  1  0
  1 10  1  0
  1 11  1  0
  1 12  1  0
  2 13  1  0
  2 14  1  0
  7 15  1  0
  7 16  1  0
  8 17  1  0
  8 18  1  0
  9 19  1  0
  9 20  1  0
  9 21  1  0
M  END
