
     RDKit          3D

 23 22  0  0  0  0  0  0  0  0999 V2000
    2.3913    2.6223    2.4045 C   0  0  0  0  0  0  0  0  0  0  0  0
    0.9892    2.0305    2.3286 C   0  0  0  0  0  0  0  0  0  0  0  0
    0.8178    1.1638    1.2025 C   0  0  0  0  0  0  0  0  0  0  0  0
    0.6858    0.3860    0.2001 C   0  0  0  0  0  0  0  0  0  0  0  0
    0.5293   -0.4983   -0.9014 C   0  0  0  0  0  0  0  0  0  0  0  0
   -0.8396   -1.1026   -0.9325 C   0  0  0  0  0  0  0  0  0  0  0  0
   -1.8634    0.0297   -1.0469 C   0  0  0  0  0  0  0  0  0  0  0  0
   -0.9083   -1.7948   -2.1582 O   0  0  0  0  0  0  0  0  0  0  0  0
   -1.2952   -3.1151   -2.0193 C   0  0  0  0  0  0  0  0  0  0  0  0
    2.6753    2.6346    3.4854 H   0  0  0  0  0  0  0  0  0  0  0  0
    2.4012    3.6906    2.0579 H   0  0  0  0  0  0  0  0  0  0  0  0
    3.1287    2.0618    1.8445 H   0  0  0  0  0  0  0  0  0  0  0  0
    0.7423    1.5014    3.3058 H   0  0  0  0  0  0  0  0  0  0  0  0
    0.2962    2.9035    2.2376 H   0  0  0  0  0  0  0  0  0  0  0  0
    0.6306    0.0422   -1.9015 H   0  0  0  0  0  0  0  0  0  0  0  0
    1.2663   -1.3375   -0.9029 H   0  0  0  0  0  0  0  0  0  0  0  0
   -1.0871   -1.7468   -0.0882 H   0  0  0  0  0  0  0  0  0  0  0  0
   -2.5294   -0.0590   -0.1678 H   0  0  0  0  0  0  0  0  0  0  0  0
   -1.3452    1.0112   -1.1048 H   0  0  0  0  0  0  0  0  0  0  0  0
   -2.4716   -0.0702   -1.9712 H   0  0  0  0  0  0  0  0  0  0  0  0
   -1.2884   -3.5313   -3.0720 H   0  0  0  0  0  0  0  0  0  0  0  0
   -2.3503   -3.1824   -1.6484 H   0  0  0  0  0  0  0  0  0  0  0  0
   -0.5756   -3.6396   -1.3761 H   0  0  0  0  0  0  0  0  0  0  0  0
  1  2  1  0
  2  3  1  0
  3  4  3  0
  4  5  1  0
  5  6  1  0
  6  7  1  0
  6  8  1  0
  8  9  1  0
  1 10  1  0
  1 11  1  0
  1 12  1  0
  2 13  1  0
  2 14  1  0
  5 15  1  0
  5 16  1  0
  6 17  1  0
  7 18  1  0
  7 19  1  0
  7 20  1  0
  9 21  1  0
  9 22  1  0
  9 23  1  0
M  END
