
     RDKit          3D

 21 21  0  0  0  0  0  0  0  0999 V2000
    3.9389   -0.3548   -1.8882 C   0  0  0  0  0  0  0  0  0  0  0  0
    2.4855   -0.3281   -2.3166 C   0  0  0  0  0  0  0  0  0  0  0  0
    1.6006   -0.2982   -1.1339 C   0  0  0  0  0  0  0  0  0  0  0  0
    0.8713   -0.2522   -0.1581 C   0  0  0  0  0  0  0  0  0  0  0  0
   -0.0187   -0.1836    0.9987 C   0  0  0  0  0  0  0  0  0  0  0  0
   -1.2483    0.2799    0.5509 O   0  0  0  0  0  0  0  0  0  0  0  0
   -2.0923    0.3410    1.6583 C   0  0  0  0  0  0  0  0  0  0  0  0
   -3.2955    1.2227    1.6185 C   0  0  0  0  0  0  0  0  0  0  0  0
   -3.5078   -0.2075    1.3704 C   0  0  0  0  0  0  0  0  0  0  0  0
    4.5059   -0.8259   -2.7194 H   0  0  0  0  0  0  0  0  0  0  0  0
    4.2713    0.6933   -1.8260 H   0  0  0  0  0  0  0  0  0  0  0  0
    4.0547   -0.9202   -0.9396 H   0  0  0  0  0  0  0  0  0  0  0  0
    2.2861   -1.2792   -2.8920 H   0  0  0  0  0  0  0  0  0  0  0  0
    2.2570    0.5622   -2.9221 H   0  0  0  0  0  0  0  0  0  0  0  0
    0.3362    0.5430    1.7562 H   0  0  0  0  0  0  0  0  0  0  0  0
   -0.1533   -1.1995    1.4575 H   0  0  0  0  0  0  0  0  0  0  0  0
   -1.6745    0.0312    2.6408 H   0  0  0  0  0  0  0  0  0  0  0  0
   -3.6507    1.6300    2.5976 H   0  0  0  0  0  0  0  0  0  0  0  0
   -3.2926    1.9827    0.8144 H   0  0  0  0  0  0  0  0  0  0  0  0
   -3.9706   -0.8212    2.1707 H   0  0  0  0  0  0  0  0  0  0  0  0
   -3.7032   -0.6154    0.3633 H   0  0  0  0  0  0  0  0  0  0  0  0
  1  2  1  0
  2  3  1  0
  3  4  3  0
  4  5  1  0
  5  6  1  0
  6  7  1  0
  7  8  1  0
  8  9  1  0
  9  7  1  0
  1 10  1  0
  1 11  1  0
  1 12  1  0
  2 13  1  0
  2 14  1  0
  5 15  1  0
  5 16  1  0
  7 17  1  0
  8 18  1  0
  8 19  1  0
  9 20  1  0
  9 21  1  0
M  END
