
     RDKit          3D

 23 23  0  0  0  0  0  0  0  0999 V2000
    3.7456   -0.2924    0.0454 C   0  0  0  0  0  0  0  0  0  0  0  0
    2.9154   -0.8156   -1.1292 C   0  0  0  0  0  0  0  0  0  0  0  0
    1.4995   -0.8335   -0.7172 C   0  0  0  0  0  0  0  0  0  0  0  0
    0.3340   -0.8641   -0.3678 C   0  0  0  0  0  0  0  0  0  0  0  0
   -1.0698   -0.9233    0.0492 C   0  0  0  0  0  0  0  0  0  0  0  0
   -2.1201   -0.3404   -0.9228 C   0  0  0  0  0  0  0  0  0  0  0  0
   -1.7489    0.3557    0.3274 C   0  0  0  0  0  0  0  0  0  0  0  0
   -1.0241    1.6812    0.2198 C   0  0  0  0  0  0  0  0  0  0  0  0
   -2.7868    0.3164    1.4346 C   0  0  0  0  0  0  0  0  0  0  0  0
    3.4320    0.7315    0.3267 H   0  0  0  0  0  0  0  0  0  0  0  0
    4.7943   -0.1967   -0.3091 H   0  0  0  0  0  0  0  0  0  0  0  0
    3.6418   -0.9357    0.9260 H   0  0  0  0  0  0  0  0  0  0  0  0
    3.0764   -0.2025   -2.0272 H   0  0  0  0  0  0  0  0  0  0  0  0
    3.1927   -1.8602   -1.3191 H   0  0  0  0  0  0  0  0  0  0  0  0
   -1.3966   -1.8346    0.6205 H   0  0  0  0  0  0  0  0  0  0  0  0
   -3.0591   -0.9211   -0.9969 H   0  0  0  0  0  0  0  0  0  0  0  0
   -1.7297    0.0462   -1.8762 H   0  0  0  0  0  0  0  0  0  0  0  0
   -0.3857    1.6035   -0.7077 H   0  0  0  0  0  0  0  0  0  0  0  0
   -1.8029    2.4620    0.0827 H   0  0  0  0  0  0  0  0  0  0  0  0
   -0.3801    1.8615    1.1070 H   0  0  0  0  0  0  0  0  0  0  0  0
   -2.6923    1.1955    2.1249 H   0  0  0  0  0  0  0  0  0  0  0  0
   -3.8193    0.3410    1.0237 H   0  0  0  0  0  0  0  0  0  0  0  0
   -2.6163   -0.5744    2.0854 H   0  0  0  0  0  0  0  0  0  0  0  0
  1  2  1  0
  2  3  1  0
  3  4  3  0
  4  5  1  0
  5  6  1  0
  6  7  1  0
  7  8  1  0
  7  9  1  0
  7  5  1  0
  1 10  1  0
  1 11  1  0
  1 12  1  0
  2 13  1  0
  2 14  1  0
  5 15  1  0
  6 16  1  0
  6 17  1  0
  8 18  1  0
  8 19  1  0
  8 20  1  0
  9 21  1  0
  9 22  1  0
  9 23  1  0
M  END
