
     RDKit          3D

 16 15  0  0  0  0  0  0  0  0999 V2000
    2.7700    0.5164    0.3548 C   0  0  0  0  0  0  0  0  0  0  0  0
    2.0193   -0.2625   -0.7060 C   0  0  0  0  0  0  0  0  0  0  0  0
    0.5919    0.0919   -0.5528 C   0  0  0  0  0  0  0  0  0  0  0  0
   -0.5783    0.3674   -0.4193 C   0  0  0  0  0  0  0  0  0  0  0  0
   -1.9691    0.6766   -0.2609 C   0  0  0  0  0  0  0  0  0  0  0  0
   -2.4898    1.7307   -0.7094 O   0  0  0  0  0  0  0  0  0  0  0  0
   -2.8570   -0.2671    0.4577 C   0  0  0  0  0  0  0  0  0  0  0  0
   -2.1008   -1.3583    0.8711 O   0  0  0  0  0  0  0  0  0  0  0  0
    2.8171   -0.0144    1.3202 H   0  0  0  0  0  0  0  0  0  0  0  0
    2.3481    1.5405    0.4854 H   0  0  0  0  0  0  0  0  0  0  0  0
    3.8060    0.6714   -0.0489 H   0  0  0  0  0  0  0  0  0  0  0  0
    2.1896   -1.3283   -0.5105 H   0  0  0  0  0  0  0  0  0  0  0  0
    2.3913    0.0428   -1.7223 H   0  0  0  0  0  0  0  0  0  0  0  0
   -3.3835    0.2250    1.2978 H   0  0  0  0  0  0  0  0  0  0  0  0
   -3.5736   -0.6620   -0.3068 H   0  0  0  0  0  0  0  0  0  0  0  0
   -1.9812   -1.9701    0.0978 H   0  0  0  0  0  0  0  0  0  0  0  0
  1  2  1  0
  2  3  1  0
  3  4  3  0
  4  5  1  0
  5  6  2  0
  5  7  1  0
  7  8  1  0
  1  9  1  0
  1 10  1  0
  1 11  1  0
  2 12  1  0
  2 13  1  0
  7 14  1  0
  7 15  1  0
  8 16  1  0
M  END
