
     RDKit          3D

 23 23  0  0  0  0  0  0  0  0999 V2000
    3.9182   -0.3148    0.5811 C   0  0  0  0  0  0  0  0  0  0  0  0
    3.3623   -0.0157   -0.7780 C   0  0  0  0  0  0  0  0  0  0  0  0
    1.8825    0.0492   -0.7262 C   0  0  0  0  0  0  0  0  0  0  0  0
    0.6804    0.0944   -0.6868 C   0  0  0  0  0  0  0  0  0  0  0  0
   -0.7828    0.1486   -0.6618 C   0  0  0  0  0  0  0  0  0  0  0  0
   -1.4044    0.9005    0.4258 C   0  0  0  0  0  0  0  0  0  0  0  0
   -2.7674    1.5423    0.1822 C   0  0  0  0  0  0  0  0  0  0  0  0
   -1.3859   -0.5719    0.5529 C   0  0  0  0  0  0  0  0  0  0  0  0
   -2.5740   -1.4195    0.2240 C   0  0  0  0  0  0  0  0  0  0  0  0
    3.2177   -0.8931    1.2223 H   0  0  0  0  0  0  0  0  0  0  0  0
    4.8371   -0.9521    0.4960 H   0  0  0  0  0  0  0  0  0  0  0  0
    4.2610    0.6167    1.0931 H   0  0  0  0  0  0  0  0  0  0  0  0
    3.6864   -0.7986   -1.4942 H   0  0  0  0  0  0  0  0  0  0  0  0
    3.7884    0.9362   -1.1475 H   0  0  0  0  0  0  0  0  0  0  0  0
   -1.3351    0.0958   -1.6195 H   0  0  0  0  0  0  0  0  0  0  0  0
   -0.7746    1.5186    1.1047 H   0  0  0  0  0  0  0  0  0  0  0  0
   -2.6348    2.3246   -0.5745 H   0  0  0  0  0  0  0  0  0  0  0  0
   -3.5043    0.8072   -0.2042 H   0  0  0  0  0  0  0  0  0  0  0  0
   -3.1826    1.9310    1.1402 H   0  0  0  0  0  0  0  0  0  0  0  0
   -0.7085   -0.9846    1.3097 H   0  0  0  0  0  0  0  0  0  0  0  0
   -3.4213   -1.2487    0.9153 H   0  0  0  0  0  0  0  0  0  0  0  0
   -2.9188   -1.2689   -0.8389 H   0  0  0  0  0  0  0  0  0  0  0  0
   -2.2397   -2.4971    0.2440 H   0  0  0  0  0  0  0  0  0  0  0  0
  1  2  1  0
  2  3  1  0
  3  4  3  0
  4  5  1  0
  5  6  1  0
  6  7  1  0
  6  8  1  0
  8  9  1  0
  8  5  1  0
  1 10  1  0
  1 11  1  0
  1 12  1  0
  2 13  1  0
  2 14  1  0
  5 15  1  0
  6 16  1  0
  7 17  1  0
  7 18  1  0
  7 19  1  0
  8 20  1  0
  9 21  1  0
  9 22  1  0
  9 23  1  0
M  END
