
     RDKit          3D

 19 18  0  0  0  0  0  0  0  0999 V2000
    2.8861   -1.5863   -0.1950 C   0  0  0  0  0  0  0  0  0  0  0  0
    1.5003   -1.8148   -0.7952 C   0  0  0  0  0  0  0  0  0  0  0  0
    0.5901   -0.8178   -0.1997 C   0  0  0  0  0  0  0  0  0  0  0  0
   -0.1425    0.0070    0.3022 C   0  0  0  0  0  0  0  0  0  0  0  0
   -1.0294    0.9902    0.9281 C   0  0  0  0  0  0  0  0  0  0  0  0
   -0.5432    2.3413    0.6024 C   0  0  0  0  0  0  0  0  0  0  0  0
   -0.8576    2.9392   -0.4132 O   0  0  0  0  0  0  0  0  0  0  0  0
   -2.4512    0.8578    0.3888 C   0  0  0  0  0  0  0  0  0  0  0  0
   -2.5197    1.0557   -0.9725 O   0  0  0  0  0  0  0  0  0  0  0  0
    2.9772   -0.5209    0.1122 H   0  0  0  0  0  0  0  0  0  0  0  0
    3.6515   -1.8402   -0.9771 H   0  0  0  0  0  0  0  0  0  0  0  0
    3.0521   -2.2539    0.6857 H   0  0  0  0  0  0  0  0  0  0  0  0
    1.1962   -2.8428   -0.5602 H   0  0  0  0  0  0  0  0  0  0  0  0
    1.5178   -1.6952   -1.8947 H   0  0  0  0  0  0  0  0  0  0  0  0
   -1.1043    0.8070    2.0185 H   0  0  0  0  0  0  0  0  0  0  0  0
    0.1289    2.8533    1.2821 H   0  0  0  0  0  0  0  0  0  0  0  0
   -3.1558    1.4392    0.9835 H   0  0  0  0  0  0  0  0  0  0  0  0
   -2.7206   -0.2256    0.5633 H   0  0  0  0  0  0  0  0  0  0  0  0
   -2.9761    0.3067   -1.4504 H   0  0  0  0  0  0  0  0  0  0  0  0
  1  2  1  0
  2  3  1  0
  3  4  3  0
  4  5  1  0
  5  6  1  0
  6  7  2  0
  5  8  1  0
  8  9  1  0
  1 10  1  0
  1 11  1  0
  1 12  1  0
  2 13  1  0
  2 14  1  0
  5 15  1  0
  6 16  1  0
  8 17  1  0
  8 18  1  0
  9 19  1  0
M  END
