
     RDKit          3D

 19 19  0  0  0  0  0  0  0  0999 V2000
    2.5946   -0.3274    1.2333 C   0  0  0  0  0  0  0  0  0  0  0  0
    2.6537   -0.1119   -0.2720 C   0  0  0  0  0  0  0  0  0  0  0  0
    1.2823   -0.2178   -0.7805 C   0  0  0  0  0  0  0  0  0  0  0  0
    0.1468   -0.3172   -1.1831 C   0  0  0  0  0  0  0  0  0  0  0  0
   -1.2187   -0.4314   -1.6625 C   0  0  0  0  0  0  0  0  0  0  0  0
   -1.4709   -0.7926   -2.8423 O   0  0  0  0  0  0  0  0  0  0  0  0
   -2.3058   -0.1196   -0.7518 C   0  0  0  0  0  0  0  0  0  0  0  0
   -2.1055    1.1932    0.0399 C   0  0  0  0  0  0  0  0  0  0  0  0
   -2.1691   -0.1841    0.7234 C   0  0  0  0  0  0  0  0  0  0  0  0
    2.0386   -1.2503    1.4241 H   0  0  0  0  0  0  0  0  0  0  0  0
    3.6495   -0.4782    1.5761 H   0  0  0  0  0  0  0  0  0  0  0  0
    2.2204    0.5582    1.7728 H   0  0  0  0  0  0  0  0  0  0  0  0
    3.3356   -0.8278   -0.7300 H   0  0  0  0  0  0  0  0  0  0  0  0
    3.0667    0.9075   -0.4664 H   0  0  0  0  0  0  0  0  0  0  0  0
   -3.3287   -0.2174   -1.1504 H   0  0  0  0  0  0  0  0  0  0  0  0
   -2.9765    1.8543    0.1717 H   0  0  0  0  0  0  0  0  0  0  0  0
   -1.0895    1.6562   -0.0023 H   0  0  0  0  0  0  0  0  0  0  0  0
   -3.0835   -0.3658    1.3188 H   0  0  0  0  0  0  0  0  0  0  0  0
   -1.2399   -0.5278    1.2042 H   0  0  0  0  0  0  0  0  0  0  0  0
  1  2  1  0
  2  3  1  0
  3  4  3  0
  4  5  1  0
  5  6  2  0
  5  7  1  0
  7  8  1  0
  8  9  1  0
  9  7  1  0
  1 10  1  0
  1 11  1  0
  1 12  1  0
  2 13  1  0
  2 14  1  0
  7 15  1  0
  8 16  1  0
  8 17  1  0
  9 18  1  0
  9 19  1  0
M  END
