
     RDKit          3D

 21 20  0  0  0  0  0  0  0  0999 V2000
    4.3087   -0.2255    0.0578 C   0  0  0  0  0  0  0  0  0  0  0  0
    3.6525    0.8985   -0.7025 C   0  0  0  0  0  0  0  0  0  0  0  0
    2.2397    0.8942   -0.5360 C   0  0  0  0  0  0  0  0  0  0  0  0
    0.6814    0.8760   -0.3463 C   0  0  0  0  0  0  0  0  0  0  0  0
   -0.1580    0.8693   -0.2587 C   0  0  0  0  0  0  0  0  0  0  0  0
   -1.5162    0.8620   -0.1374 C   0  0  0  0  0  0  0  0  0  0  0  0
   -2.9830    0.8463   -0.0298 C   0  0  0  0  0  0  0  0  0  0  0  0
   -3.3236   -0.6328   -0.2488 C   0  0  0  0  0  0  0  0  0  0  0  0
   -2.7342   -1.4745    0.8443 C   0  0  0  0  0  0  0  0  0  0  0  0
    4.1056   -1.2136   -0.4648 H   0  0  0  0  0  0  0  0  0  0  0  0
    5.4030    0.0011    0.1042 H   0  0  0  0  0  0  0  0  0  0  0  0
    3.9345   -0.3103    1.0774 H   0  0  0  0  0  0  0  0  0  0  0  0
    3.8457    0.9457   -1.7839 H   0  0  0  0  0  0  0  0  0  0  0  0
    4.0349    1.9255   -0.3024 H   0  0  0  0  0  0  0  0  0  0  0  0
   -3.2830    1.2016    0.9014 H   0  0  0  0  0  0  0  0  0  0  0  0
   -3.4289    1.3184   -0.9792 H   0  0  0  0  0  0  0  0  0  0  0  0
   -2.7638   -0.8674   -1.1900 H   0  0  0  0  0  0  0  0  0  0  0  0
   -4.3552   -0.7177   -0.3214 H   0  0  0  0  0  0  0  0  0  0  0  0
   -2.7406   -0.9580    1.8348 H   0  0  0  0  0  0  0  0  0  0  0  0
   -1.6501   -1.7930    0.6205 H   0  0  0  0  0  0  0  0  0  0  0  0
   -3.2694   -2.4457    0.8662 H   0  0  0  0  0  0  0  0  0  0  0  0
  1  2  1  0
  2  3  1  0
  3  4  3  0
  4  5  1  0
  5  6  3  0
  6  7  1  0
  7  8  1  0
  8  9  1  0
  1 10  1  0
  1 11  1  0
  1 12  1  0
  2 13  1  0
  2 14  1  0
  7 15  1  0
  7 16  1  0
  8 17  1  0
  8 18  1  0
  9 19  1  0
  9 20  1  0
  9 21  1  0
M  END
