
     RDKit          3D

 18 17  0  0  0  0  0  0  0  0999 V2000
    3.9211   -0.2491    0.7640 C   0  0  0  0  0  0  0  0  0  0  0  0
    3.1470    1.1374    1.2734 C   0  0  0  0  0  0  0  0  0  0  0  0
    1.7472    0.6585    0.7908 C   0  0  0  0  0  0  0  0  0  0  0  0
    0.7181    0.2867    0.4374 C   0  0  0  0  0  0  0  0  0  0  0  0
   -0.5781   -0.1647   -0.0263 C   0  0  0  0  0  0  0  0  0  0  0  0
   -1.7181   -0.5631   -0.4435 C   0  0  0  0  0  0  0  0  0  0  0  0
   -3.0981   -1.0487   -0.9775 C   0  0  0  0  0  0  0  0  0  0  0  0
   -3.9924    0.1337   -0.3727 C   0  0  0  0  0  0  0  0  0  0  0  0
    3.1424   -1.0917    0.9026 H   0  0  0  0  0  0  0  0  0  0  0  0
    3.9972   -0.1918   -0.3545 H   0  0  0  0  0  0  0  0  0  0  0  0
    4.8181   -0.4368    1.2685 H   0  0  0  0  0  0  0  0  0  0  0  0
    3.2355    1.1431    2.2811 H   0  0  0  0  0  0  0  0  0  0  0  0
    3.5039    1.8131    0.5598 H   0  0  0  0  0  0  0  0  0  0  0  0
   -3.3451   -1.9526   -0.5932 H   0  0  0  0  0  0  0  0  0  0  0  0
   -3.0234   -0.8768   -2.0552 H   0  0  0  0  0  0  0  0  0  0  0  0
   -5.0406   -0.1445   -0.2996 H   0  0  0  0  0  0  0  0  0  0  0  0
   -3.4755    0.5868    0.4476 H   0  0  0  0  0  0  0  0  0  0  0  0
   -3.9593    0.9603   -1.1725 H   0  0  0  0  0  0  0  0  0  0  0  0
  1  2  1  0
  2  3  1  0
  3  4  3  0
  4  5  1  0
  5  6  3  0
  6  7  1  0
  7  8  1  0
  1  9  1  0
  1 10  1  0
  1 11  1  0
  2 12  1  0
  2 13  1  0
  7 14  1  0
  7 15  1  0
  8 16  1  0
  8 17  1  0
  8 18  1  0
M  END
