
     RDKit          3D

 23 23  0  0  0  0  0  0  0  0999 V2000
    4.0450    0.2474    0.2197 C   0  0  0  0  0  0  0  0  0  0  0  0
    2.9218    0.0140    1.2104 C   0  0  0  0  0  0  0  0  0  0  0  0
    1.7271   -0.4603    0.4990 C   0  0  0  0  0  0  0  0  0  0  0  0
    0.7478   -0.8701   -0.0974 C   0  0  0  0  0  0  0  0  0  0  0  0
   -0.4342   -1.3634   -0.7945 C   0  0  0  0  0  0  0  0  0  0  0  0
   -1.7033   -1.1109   -0.0318 C   0  0  0  0  0  0  0  0  0  0  0  0
   -1.9859    0.3196    0.2396 C   0  0  0  0  0  0  0  0  0  0  0  0
   -2.1632    1.3388   -0.7909 C   0  0  0  0  0  0  0  0  0  0  0  0
   -3.4013    0.7928   -0.2150 C   0  0  0  0  0  0  0  0  0  0  0  0
    5.0016    0.2684    0.7448 H   0  0  0  0  0  0  0  0  0  0  0  0
    4.0661   -0.6058   -0.4836 H   0  0  0  0  0  0  0  0  0  0  0  0
    3.8056    1.1787   -0.3335 H   0  0  0  0  0  0  0  0  0  0  0  0
    3.2798   -0.7169    1.9651 H   0  0  0  0  0  0  0  0  0  0  0  0
    2.6340    0.9642    1.7015 H   0  0  0  0  0  0  0  0  0  0  0  0
   -0.5017   -0.9629   -1.8324 H   0  0  0  0  0  0  0  0  0  0  0  0
   -0.3595   -2.4771   -0.9230 H   0  0  0  0  0  0  0  0  0  0  0  0
   -1.6261   -1.6665    0.9282 H   0  0  0  0  0  0  0  0  0  0  0  0
   -2.5264   -1.6048   -0.5989 H   0  0  0  0  0  0  0  0  0  0  0  0
   -1.6745    0.6813    1.2543 H   0  0  0  0  0  0  0  0  0  0  0  0
   -1.9489    1.1574   -1.8758 H   0  0  0  0  0  0  0  0  0  0  0  0
   -1.9413    2.4052   -0.5183 H   0  0  0  0  0  0  0  0  0  0  0  0
   -3.9846    1.3000    0.5656 H   0  0  0  0  0  0  0  0  0  0  0  0
   -3.9778    0.0783   -0.8332 H   0  0  0  0  0  0  0  0  0  0  0  0
  1  2  1  0
  2  3  1  0
  3  4  3  0
  4  5  1  0
  5  6  1  0
  6  7  1  0
  7  8  1  0
  8  9  1  0
  9  7  1  0
  1 10  1  0
  1 11  1  0
  1 12  1  0
  2 13  1  0
  2 14  1  0
  5 15  1  0
  5 16  1  0
  6 17  1  0
  6 18  1  0
  7 19  1  0
  8 20  1  0
  8 21  1  0
  9 22  1  0
  9 23  1  0
M  END
