
     RDKit          3D

 14 13  0  0  0  0  0  0  0  0999 V2000
   -2.2926    0.7892    0.0707 C   0  0  0  0  0  0  0  0  0  0  0  0
   -1.6832   -0.5021   -0.4140 C   0  0  0  0  0  0  0  0  0  0  0  0
   -0.2255   -0.4887   -0.1624 C   0  0  0  0  0  0  0  0  0  0  0  0
    0.9617   -0.4691    0.0608 C   0  0  0  0  0  0  0  0  0  0  0  0
    2.4021   -0.4412    0.3353 C   0  0  0  0  0  0  0  0  0  0  0  0
    3.0290    0.1326   -0.7511 O   0  0  0  0  0  0  0  0  0  0  0  0
   -3.2027    0.6404    0.6823 H   0  0  0  0  0  0  0  0  0  0  0  0
   -1.5511    1.2842    0.7542 H   0  0  0  0  0  0  0  0  0  0  0  0
   -2.5360    1.4647   -0.7741 H   0  0  0  0  0  0  0  0  0  0  0  0
   -1.8491   -0.5518   -1.5188 H   0  0  0  0  0  0  0  0  0  0  0  0
   -2.1533   -1.3879    0.0850 H   0  0  0  0  0  0  0  0  0  0  0  0
    2.7912   -1.4539    0.5886 H   0  0  0  0  0  0  0  0  0  0  0  0
    2.5670    0.2227    1.2037 H   0  0  0  0  0  0  0  0  0  0  0  0
    3.7424    0.7610   -0.4496 H   0  0  0  0  0  0  0  0  0  0  0  0
  1  2  1  0
  2  3  1  0
  3  4  3  0
  4  5  1  0
  5  6  1  0
  1  7  1  0
  1  8  1  0
  1  9  1  0
  2 10  1  0
  2 11  1  0
  5 12  1  0
  5 13  1  0
  6 14  1  0
M  END
