
     RDKit          3D

 19 18  0  0  0  0  0  0  0  0999 V2000
   -3.1268   -0.3666    1.0873 C   0  0  0  0  0  0  0  0  0  0  0  0
   -2.7660    0.0241   -0.3039 C   0  0  0  0  0  0  0  0  0  0  0  0
   -1.3156   -0.2077   -0.4854 C   0  0  0  0  0  0  0  0  0  0  0  0
   -0.1356   -0.4042   -0.6530 C   0  0  0  0  0  0  0  0  0  0  0  0
    1.2888   -0.6347   -0.8799 C   0  0  0  0  0  0  0  0  0  0  0  0
    1.7401    0.0827   -2.0067 O   0  0  0  0  0  0  0  0  0  0  0  0
    2.0796   -0.2262    0.2993 C   0  0  0  0  0  0  0  0  0  0  0  0
    3.1503    0.7932    0.1746 C   0  0  0  0  0  0  0  0  0  0  0  0
    1.8463   -0.7332    1.3754 O   0  0  0  0  0  0  0  0  0  0  0  0
   -3.3157   -1.4624    1.2005 H   0  0  0  0  0  0  0  0  0  0  0  0
   -2.2403   -0.1474    1.7429 H   0  0  0  0  0  0  0  0  0  0  0  0
   -4.0370    0.1394    1.4743 H   0  0  0  0  0  0  0  0  0  0  0  0
   -2.9890    1.1226   -0.4014 H   0  0  0  0  0  0  0  0  0  0  0  0
   -3.3537   -0.4715   -1.0965 H   0  0  0  0  0  0  0  0  0  0  0  0
    1.4561   -1.7150   -1.1593 H   0  0  0  0  0  0  0  0  0  0  0  0
    1.3988    1.0202   -1.8469 H   0  0  0  0  0  0  0  0  0  0  0  0
    3.1455    1.2502   -0.8196 H   0  0  0  0  0  0  0  0  0  0  0  0
    3.0007    1.5782    0.9739 H   0  0  0  0  0  0  0  0  0  0  0  0
    4.1736    0.3583    0.3474 H   0  0  0  0  0  0  0  0  0  0  0  0
  1  2  1  0
  2  3  1  0
  3  4  3  0
  4  5  1  0
  5  6  1  0
  5  7  1  0
  7  8  1  0
  7  9  2  0
  1 10  1  0
  1 11  1  0
  1 12  1  0
  2 13  1  0
  2 14  1  0
  5 15  1  0
  6 16  1  0
  8 17  1  0
  8 18  1  0
  8 19  1  0
M  END
