
     RDKit          3D

 21 21  0  0  0  0  0  0  0  0999 V2000
   -3.7098    0.3928   -0.8369 C   0  0  0  0  0  0  0  0  0  0  0  0
   -3.0693    0.6141    0.5093 C   0  0  0  0  0  0  0  0  0  0  0  0
   -1.6980    0.1085    0.4421 C   0  0  0  0  0  0  0  0  0  0  0  0
   -0.5613   -0.3217    0.4040 C   0  0  0  0  0  0  0  0  0  0  0  0
    0.7808   -0.8477    0.3400 C   0  0  0  0  0  0  0  0  0  0  0  0
    1.3796   -1.2819   -0.9197 C   0  0  0  0  0  0  0  0  0  0  0  0
    1.7633    0.0365   -0.4224 C   0  0  0  0  0  0  0  0  0  0  0  0
    3.0377    0.2965    0.3296 C   0  0  0  0  0  0  0  0  0  0  0  0
    3.9261    1.0920   -0.3521 O   0  0  0  0  0  0  0  0  0  0  0  0
   -3.1741   -0.4193   -1.3971 H   0  0  0  0  0  0  0  0  0  0  0  0
   -4.7668    0.0710   -0.7214 H   0  0  0  0  0  0  0  0  0  0  0  0
   -3.6583    1.3107   -1.4493 H   0  0  0  0  0  0  0  0  0  0  0  0
   -3.6583    0.1488    1.3249 H   0  0  0  0  0  0  0  0  0  0  0  0
   -3.0485    1.7006    0.6897 H   0  0  0  0  0  0  0  0  0  0  0  0
    1.1275   -1.3471    1.2674 H   0  0  0  0  0  0  0  0  0  0  0  0
    2.1103   -2.1227   -0.8811 H   0  0  0  0  0  0  0  0  0  0  0  0
    0.8112   -1.2883   -1.8908 H   0  0  0  0  0  0  0  0  0  0  0  0
    1.3638    0.9416   -0.9355 H   0  0  0  0  0  0  0  0  0  0  0  0
    2.7418    0.8676    1.2588 H   0  0  0  0  0  0  0  0  0  0  0  0
    3.5067   -0.6348    0.7128 H   0  0  0  0  0  0  0  0  0  0  0  0
    4.7956    0.6831   -0.5312 H   0  0  0  0  0  0  0  0  0  0  0  0
  1  2  1  0
  2  3  1  0
  3  4  3  0
  4  5  1  0
  5  6  1  0
  6  7  1  0
  7  8  1  0
  8  9  1  0
  7  5  1  0
  1 10  1  0
  1 11  1  0
  1 12  1  0
  2 13  1  0
  2 14  1  0
  5 15  1  0
  6 16  1  0
  6 17  1  0
  7 18  1  0
  8 19  1  0
  8 20  1  0
  9 21  1  0
M  END
