
     RDKit          3D

 16 15  0  0  0  0  0  0  0  0999 V2000
   -3.5507    0.2748   -0.6105 C   0  0  0  0  0  0  0  0  0  0  0  0
   -2.7358   -1.0001   -0.4390 C   0  0  0  0  0  0  0  0  0  0  0  0
   -1.3217   -0.6814   -0.2192 C   0  0  0  0  0  0  0  0  0  0  0  0
   -0.1603   -0.4141   -0.0187 C   0  0  0  0  0  0  0  0  0  0  0  0
    1.1987   -0.1102    0.2387 C   0  0  0  0  0  0  0  0  0  0  0  0
    2.3727    0.1397    0.4662 C   0  0  0  0  0  0  0  0  0  0  0  0
    3.7783    0.4603    0.7275 C   0  0  0  0  0  0  0  0  0  0  0  0
    4.6132   -0.2809   -0.1302 O   0  0  0  0  0  0  0  0  0  0  0  0
   -3.7606    0.4918   -1.6635 H   0  0  0  0  0  0  0  0  0  0  0  0
   -4.4607    0.1637    0.0114 H   0  0  0  0  0  0  0  0  0  0  0  0
   -2.9410    1.0837   -0.1205 H   0  0  0  0  0  0  0  0  0  0  0  0
   -3.0667   -1.5763    0.4473 H   0  0  0  0  0  0  0  0  0  0  0  0
   -2.8874   -1.6632   -1.3186 H   0  0  0  0  0  0  0  0  0  0  0  0
    4.0176    0.2839    1.7865 H   0  0  0  0  0  0  0  0  0  0  0  0
    3.9380    1.5594    0.5327 H   0  0  0  0  0  0  0  0  0  0  0  0
    4.9664   -1.0903    0.3099 H   0  0  0  0  0  0  0  0  0  0  0  0
  1  2  1  0
  2  3  1  0
  3  4  3  0
  4  5  1  0
  5  6  3  0
  6  7  1  0
  7  8  1  0
  1  9  1  0
  1 10  1  0
  1 11  1  0
  2 12  1  0
  2 13  1  0
  7 14  1  0
  7 15  1  0
  8 16  1  0
M  END
