
     RDKit          3D

 23 23  0  0  0  0  0  0  0  0999 V2000
    3.1754    0.2158    0.8865 C   0  0  0  0  0  0  0  0  0  0  0  0
    2.7353   -0.8450   -0.0675 C   0  0  0  0  0  0  0  0  0  0  0  0
    1.2787   -0.7809   -0.3222 C   0  0  0  0  0  0  0  0  0  0  0  0
    0.0853   -0.7315   -0.5097 C   0  0  0  0  0  0  0  0  0  0  0  0
   -1.3501   -0.6615   -0.7587 C   0  0  0  0  0  0  0  0  0  0  0  0
   -1.6417   -0.3004   -2.1905 C   0  0  0  0  0  0  0  0  0  0  0  0
   -1.9407    0.4082    0.1209 C   0  0  0  0  0  0  0  0  0  0  0  0
   -1.7960    0.2540    1.6061 C   0  0  0  0  0  0  0  0  0  0  0  0
   -1.1151    1.3702    0.8570 C   0  0  0  0  0  0  0  0  0  0  0  0
    4.0433    0.7967    0.5194 H   0  0  0  0  0  0  0  0  0  0  0  0
    2.3379    0.9419    1.0673 H   0  0  0  0  0  0  0  0  0  0  0  0
    3.3907   -0.2463    1.8606 H   0  0  0  0  0  0  0  0  0  0  0  0
    2.9376   -1.8375    0.3441 H   0  0  0  0  0  0  0  0  0  0  0  0
    3.2972   -0.6973   -1.0161 H   0  0  0  0  0  0  0  0  0  0  0  0
   -1.8633   -1.6304   -0.5560 H   0  0  0  0  0  0  0  0  0  0  0  0
   -1.2617    0.7176   -2.4217 H   0  0  0  0  0  0  0  0  0  0  0  0
   -1.2487   -1.0519   -2.9142 H   0  0  0  0  0  0  0  0  0  0  0  0
   -2.7334   -0.2679   -2.3328 H   0  0  0  0  0  0  0  0  0  0  0  0
   -2.9501    0.7579   -0.2093 H   0  0  0  0  0  0  0  0  0  0  0  0
   -2.6618    0.4619    2.2531 H   0  0  0  0  0  0  0  0  0  0  0  0
   -1.1606   -0.6227    1.9237 H   0  0  0  0  0  0  0  0  0  0  0  0
   -1.5465    2.3769    1.0823 H   0  0  0  0  0  0  0  0  0  0  0  0
   -0.0116    1.3724    0.7778 H   0  0  0  0  0  0  0  0  0  0  0  0
  1  2  1  0
  2  3  1  0
  3  4  3  0
  4  5  1  0
  5  6  1  0
  5  7  1  0
  7  8  1  0
  8  9  1  0
  9  7  1  0
  1 10  1  0
  1 11  1  0
  1 12  1  0
  2 13  1  0
  2 14  1  0
  5 15  1  0
  6 16  1  0
  6 17  1  0
  6 18  1  0
  7 19  1  0
  8 20  1  0
  8 21  1  0
  9 22  1  0
  9 23  1  0
M  END
