
     RDKit          3D

 17 16  0  0  0  0  0  0  0  0999 V2000
    2.9291    1.2739    0.6699 C   0  0  0  0  0  0  0  0  0  0  0  0
    1.7225    1.0728    1.5722 C   0  0  0  0  0  0  0  0  0  0  0  0
    0.7246    0.3517    0.8495 C   0  0  0  0  0  0  0  0  0  0  0  0
   -0.1721   -0.2795    0.1852 C   0  0  0  0  0  0  0  0  0  0  0  0
   -1.1779   -0.9702   -0.5401 C   0  0  0  0  0  0  0  0  0  0  0  0
   -2.2509   -0.1840   -0.9522 O   0  0  0  0  0  0  0  0  0  0  0  0
   -3.0453   -1.0135   -1.7472 C   0  0  0  0  0  0  0  0  0  0  0  0
    3.6531    0.4417    0.8379 H   0  0  0  0  0  0  0  0  0  0  0  0
    3.4520    2.1987    1.0568 H   0  0  0  0  0  0  0  0  0  0  0  0
    2.7073    1.3622   -0.3876 H   0  0  0  0  0  0  0  0  0  0  0  0
    2.0858    0.4985    2.4813 H   0  0  0  0  0  0  0  0  0  0  0  0
    1.3606    2.0570    1.9380 H   0  0  0  0  0  0  0  0  0  0  0  0
   -1.6186   -1.8007    0.0493 H   0  0  0  0  0  0  0  0  0  0  0  0
   -0.6949   -1.3788   -1.4766 H   0  0  0  0  0  0  0  0  0  0  0  0
   -2.3916   -1.3692   -2.5944 H   0  0  0  0  0  0  0  0  0  0  0  0
   -3.8295   -0.4059   -2.2585 H   0  0  0  0  0  0  0  0  0  0  0  0
   -3.4542   -1.8547   -1.2234 H   0  0  0  0  0  0  0  0  0  0  0  0
  1  2  1  0
  2  3  1  0
  3  4  3  0
  4  5  1  0
  5  6  1  0
  6  7  1  0
  1  8  1  0
  1  9  1  0
  1 10  1  0
  2 11  1  0
  2 12  1  0
  5 13  1  0
  5 14  1  0
  7 15  1  0
  7 16  1  0
  7 17  1  0
M  END
