
     RDKit          3D

 19 18  0  0  0  0  0  0  0  0999 V2000
    2.8813    1.2355   -0.0011 C   0  0  0  0  0  0  0  0  0  0  0  0
    1.6166    1.9849   -0.3442 C   0  0  0  0  0  0  0  0  0  0  0  0
    0.5218    1.0032   -0.3464 C   0  0  0  0  0  0  0  0  0  0  0  0
   -0.3775    0.1749   -0.3412 C   0  0  0  0  0  0  0  0  0  0  0  0
   -1.4646   -0.8049   -0.3551 C   0  0  0  0  0  0  0  0  0  0  0  0
   -0.8852   -2.1688   -0.0738 C   0  0  0  0  0  0  0  0  0  0  0  0
   -2.5499   -0.4502    0.6407 C   0  0  0  0  0  0  0  0  0  0  0  0
    3.0559    0.4211   -0.7554 H   0  0  0  0  0  0  0  0  0  0  0  0
    2.7236    0.7635    1.0048 H   0  0  0  0  0  0  0  0  0  0  0  0
    3.7510    1.8896    0.0391 H   0  0  0  0  0  0  0  0  0  0  0  0
    1.4626    2.7634    0.4376 H   0  0  0  0  0  0  0  0  0  0  0  0
    1.6639    2.4650   -1.3274 H   0  0  0  0  0  0  0  0  0  0  0  0
   -1.9318   -0.8232   -1.3514 H   0  0  0  0  0  0  0  0  0  0  0  0
   -1.6627   -2.9481   -0.1570 H   0  0  0  0  0  0  0  0  0  0  0  0
   -0.3933   -2.1442    0.9258 H   0  0  0  0  0  0  0  0  0  0  0  0
   -0.1049   -2.3654   -0.8367 H   0  0  0  0  0  0  0  0  0  0  0  0
   -3.3030    0.2369    0.2395 H   0  0  0  0  0  0  0  0  0  0  0  0
   -2.9724   -1.3491    1.1324 H   0  0  0  0  0  0  0  0  0  0  0  0
   -2.0313    0.1160    1.4697 H   0  0  0  0  0  0  0  0  0  0  0  0
  1  2  1  0
  2  3  1  0
  3  4  3  0
  4  5  1  0
  5  6  1  0
  5  7  1  0
  1  8  1  0
  1  9  1  0
  1 10  1  0
  2 11  1  0
  2 12  1  0
  5 13  1  0
  6 14  1  0
  6 15  1  0
  6 16  1  0
  7 17  1  0
  7 18  1  0
  7 19  1  0
M  END
