
     RDKit          3D

 19 19  0  0  0  0  0  0  0  0999 V2000
    3.1318    1.4548   -0.0071 C   0  0  0  0  0  0  0  0  0  0  0  0
    1.6524    1.7582    0.1120 C   0  0  0  0  0  0  0  0  0  0  0  0
    0.9509    0.4890   -0.1315 C   0  0  0  0  0  0  0  0  0  0  0  0
    0.3902   -0.5581   -0.3433 C   0  0  0  0  0  0  0  0  0  0  0  0
   -0.3090   -1.8193   -0.6152 C   0  0  0  0  0  0  0  0  0  0  0  0
   -0.9564   -2.4835    0.3930 O   0  0  0  0  0  0  0  0  0  0  0  0
   -1.8146   -1.8597   -0.5266 C   0  0  0  0  0  0  0  0  0  0  0  0
   -2.5536   -0.6817    0.0688 C   0  0  0  0  0  0  0  0  0  0  0  0
   -3.3910   -0.0951   -0.8764 O   0  0  0  0  0  0  0  0  0  0  0  0
    3.6659    2.3678    0.3870 H   0  0  0  0  0  0  0  0  0  0  0  0
    3.3564    0.5519    0.5823 H   0  0  0  0  0  0  0  0  0  0  0  0
    3.4459    1.2805   -1.0397 H   0  0  0  0  0  0  0  0  0  0  0  0
    1.4194    2.1849    1.1087 H   0  0  0  0  0  0  0  0  0  0  0  0
    1.3326    2.5273   -0.6292 H   0  0  0  0  0  0  0  0  0  0  0  0
    0.1211   -2.3950   -1.4592 H   0  0  0  0  0  0  0  0  0  0  0  0
   -2.3876   -2.4800   -1.2333 H   0  0  0  0  0  0  0  0  0  0  0  0
   -3.1482   -1.0995    0.9313 H   0  0  0  0  0  0  0  0  0  0  0  0
   -1.8759    0.0687    0.5041 H   0  0  0  0  0  0  0  0  0  0  0  0
   -3.0302    0.7888   -1.1184 H   0  0  0  0  0  0  0  0  0  0  0  0
  1  2  1  0
  2  3  1  0
  3  4  3  0
  4  5  1  0
  5  6  1  0
  6  7  1  0
  7  8  1  0
  8  9  1  0
  7  5  1  0
  1 10  1  0
  1 11  1  0
  1 12  1  0
  2 13  1  0
  2 14  1  0
  5 15  1  0
  7 16  1  0
  8 17  1  0
  8 18  1  0
  9 19  1  0
M  END
