
     RDKit          3D

 21 21  0  0  0  0  0  0  0  0999 V2000
    3.5978    0.4404   -1.5541 C   0  0  0  0  0  0  0  0  0  0  0  0
    3.3033    0.0557   -0.1198 C   0  0  0  0  0  0  0  0  0  0  0  0
    1.8664    0.2401    0.1925 C   0  0  0  0  0  0  0  0  0  0  0  0
    0.7083    0.4048    0.4310 C   0  0  0  0  0  0  0  0  0  0  0  0
   -0.6865    0.6255    0.7069 C   0  0  0  0  0  0  0  0  0  0  0  0
   -1.3948   -0.5259    1.4317 C   0  0  0  0  0  0  0  0  0  0  0  0
   -2.5357    0.1307    0.6444 C   0  0  0  0  0  0  0  0  0  0  0  0
   -3.6358   -0.7855    0.2422 C   0  0  0  0  0  0  0  0  0  0  0  0
   -1.5618    0.3779   -0.3523 O   0  0  0  0  0  0  0  0  0  0  0  0
    4.1617    1.3793   -1.5978 H   0  0  0  0  0  0  0  0  0  0  0  0
    4.2461   -0.3591   -1.9691 H   0  0  0  0  0  0  0  0  0  0  0  0
    2.6497    0.4701   -2.1445 H   0  0  0  0  0  0  0  0  0  0  0  0
    3.9284    0.7039    0.5410 H   0  0  0  0  0  0  0  0  0  0  0  0
    3.6284   -0.9884    0.1064 H   0  0  0  0  0  0  0  0  0  0  0  0
   -0.9388    1.5769    1.2328 H   0  0  0  0  0  0  0  0  0  0  0  0
   -1.4872   -0.3865    2.5094 H   0  0  0  0  0  0  0  0  0  0  0  0
   -1.0976   -1.5126    1.0651 H   0  0  0  0  0  0  0  0  0  0  0  0
   -2.8186    1.0887    1.0969 H   0  0  0  0  0  0  0  0  0  0  0  0
   -3.4877   -1.3029   -0.7092 H   0  0  0  0  0  0  0  0  0  0  0  0
   -4.5666   -0.1555    0.1226 H   0  0  0  0  0  0  0  0  0  0  0  0
   -3.8791   -1.4778    1.0814 H   0  0  0  0  0  0  0  0  0  0  0  0
  1  2  1  0
  2  3  1  0
  3  4  3  0
  4  5  1  0
  5  6  1  0
  6  7  1  0
  7  8  1  0
  7  9  1  0
  9  5  1  0
  1 10  1  0
  1 11  1  0
  1 12  1  0
  2 13  1  0
  2 14  1  0
  5 15  1  0
  6 16  1  0
  6 17  1  0
  7 18  1  0
  8 19  1  0
  8 20  1  0
  8 21  1  0
M  END
