
     RDKit          3D

 21 20  0  0  0  0  0  0  0  0999 V2000
    3.8236   -0.3282   -0.1729 C   0  0  0  0  0  0  0  0  0  0  0  0
    2.6002   -1.0934   -0.6811 C   0  0  0  0  0  0  0  0  0  0  0  0
    1.3838   -0.3102   -0.4573 C   0  0  0  0  0  0  0  0  0  0  0  0
    0.3824    0.3560   -0.2695 C   0  0  0  0  0  0  0  0  0  0  0  0
   -0.8022    1.1720   -0.0386 C   0  0  0  0  0  0  0  0  0  0  0  0
   -1.9524    0.2313    0.2442 C   0  0  0  0  0  0  0  0  0  0  0  0
   -2.2154   -0.7095   -0.9052 C   0  0  0  0  0  0  0  0  0  0  0  0
   -3.1645    1.1039    0.4456 C   0  0  0  0  0  0  0  0  0  0  0  0
   -3.0395    2.0316    1.2167 O   0  0  0  0  0  0  0  0  0  0  0  0
    3.7083   -0.2822    0.9434 H   0  0  0  0  0  0  0  0  0  0  0  0
    3.7506    0.6985   -0.5521 H   0  0  0  0  0  0  0  0  0  0  0  0
    4.7322   -0.8505   -0.4659 H   0  0  0  0  0  0  0  0  0  0  0  0
    2.7626   -1.2132   -1.7759 H   0  0  0  0  0  0  0  0  0  0  0  0
    2.5178   -2.0919   -0.2253 H   0  0  0  0  0  0  0  0  0  0  0  0
   -1.0891    1.7695   -0.9240 H   0  0  0  0  0  0  0  0  0  0  0  0
   -0.6879    1.8057    0.8742 H   0  0  0  0  0  0  0  0  0  0  0  0
   -1.7507   -0.3601    1.1695 H   0  0  0  0  0  0  0  0  0  0  0  0
   -1.9481   -1.7407   -0.6055 H   0  0  0  0  0  0  0  0  0  0  0  0
   -1.6118   -0.3708   -1.7654 H   0  0  0  0  0  0  0  0  0  0  0  0
   -3.3047   -0.7316   -1.1822 H   0  0  0  0  0  0  0  0  0  0  0  0
   -4.0952    0.9138   -0.0689 H   0  0  0  0  0  0  0  0  0  0  0  0
  1  2  1  0
  2  3  1  0
  3  4  3  0
  4  5  1  0
  5  6  1  0
  6  7  1  0
  6  8  1  0
  8  9  2  0
  1 10  1  0
  1 11  1  0
  1 12  1  0
  2 13  1  0
  2 14  1  0
  5 15  1  0
  5 16  1  0
  6 17  1  0
  7 18  1  0
  7 19  1  0
  7 20  1  0
  8 21  1  0
M  END
