
     RDKit          3D

 21 22  0  0  0  0  0  0  0  0999 V2000
    3.4991   -0.5070   -0.4191 C   0  0  0  0  0  0  0  0  0  0  0  0
    2.7882    0.7896   -0.5896 C   0  0  0  0  0  0  0  0  0  0  0  0
    1.4405    0.6313    0.0106 C   0  0  0  0  0  0  0  0  0  0  0  0
    0.3530    0.5008    0.4914 C   0  0  0  0  0  0  0  0  0  0  0  0
   -0.9907    0.3425    1.0743 C   0  0  0  0  0  0  0  0  0  0  0  0
   -2.0063    1.1713    0.3315 C   0  0  0  0  0  0  0  0  0  0  0  0
   -2.8481   -0.0828    0.1770 C   0  0  0  0  0  0  0  0  0  0  0  0
   -2.2596   -1.1682   -0.6250 C   0  0  0  0  0  0  0  0  0  0  0  0
   -1.6524   -0.9323    0.7064 C   0  0  0  0  0  0  0  0  0  0  0  0
    3.1291   -1.1270    0.4259 H   0  0  0  0  0  0  0  0  0  0  0  0
    4.5730   -0.3097   -0.2229 H   0  0  0  0  0  0  0  0  0  0  0  0
    3.4643   -1.1381   -1.3310 H   0  0  0  0  0  0  0  0  0  0  0  0
    2.6825    0.9772   -1.6857 H   0  0  0  0  0  0  0  0  0  0  0  0
    3.3564    1.5845   -0.1010 H   0  0  0  0  0  0  0  0  0  0  0  0
   -1.0362    0.5947    2.1604 H   0  0  0  0  0  0  0  0  0  0  0  0
   -2.5399    1.9333    0.9481 H   0  0  0  0  0  0  0  0  0  0  0  0
   -1.6977    1.5408   -0.6454 H   0  0  0  0  0  0  0  0  0  0  0  0
   -3.7891   -0.1774    0.7300 H   0  0  0  0  0  0  0  0  0  0  0  0
   -1.7351   -0.9117   -1.5600 H   0  0  0  0  0  0  0  0  0  0  0  0
   -2.8614   -2.0951   -0.7098 H   0  0  0  0  0  0  0  0  0  0  0  0
   -1.8697   -1.6165    1.5406 H   0  0  0  0  0  0  0  0  0  0  0  0
  1  2  1  0
  2  3  1  0
  3  4  3  0
  4  5  1  0
  5  6  1  0
  6  7  1  0
  7  8  1  0
  8  9  1  0
  9  5  1  0
  9  7  1  0
  1 10  1  0
  1 11  1  0
  1 12  1  0
  2 13  1  0
  2 14  1  0
  5 15  1  0
  6 16  1  0
  6 17  1  0
  7 18  1  0
  8 19  1  0
  8 20  1  0
  9 21  1  0
M  END
