
     RDKit          3D

 25 24  0  0  0  0  0  0  0  0999 V2000
    3.8350   -1.1732   -0.6194 C   0  0  0  0  0  0  0  0  0  0  0  0
    3.1553   -0.4482    0.4896 C   0  0  0  0  0  0  0  0  0  0  0  0
    1.7750   -0.1619    0.0759 C   0  0  0  0  0  0  0  0  0  0  0  0
    0.6367    0.0842   -0.2466 C   0  0  0  0  0  0  0  0  0  0  0  0
   -0.7446    0.3940   -0.6151 C   0  0  0  0  0  0  0  0  0  0  0  0
   -1.2467    1.6464    0.0595 C   0  0  0  0  0  0  0  0  0  0  0  0
   -2.6504    1.9929   -0.2928 C   0  0  0  0  0  0  0  0  0  0  0  0
   -1.5979   -0.7963   -0.3543 C   0  0  0  0  0  0  0  0  0  0  0  0
   -1.6235   -1.2563    1.0600 C   0  0  0  0  0  0  0  0  0  0  0  0
    3.1251   -1.6126   -1.3596 H   0  0  0  0  0  0  0  0  0  0  0  0
    4.4212   -2.0196   -0.1556 H   0  0  0  0  0  0  0  0  0  0  0  0
    4.6050   -0.5412   -1.1171 H   0  0  0  0  0  0  0  0  0  0  0  0
    3.1750   -1.0217    1.4576 H   0  0  0  0  0  0  0  0  0  0  0  0
    3.7186    0.5012    0.7009 H   0  0  0  0  0  0  0  0  0  0  0  0
   -0.7410    0.5915   -1.7075 H   0  0  0  0  0  0  0  0  0  0  0  0
   -1.2261    1.4303    1.1663 H   0  0  0  0  0  0  0  0  0  0  0  0
   -0.6013    2.5101   -0.0920 H   0  0  0  0  0  0  0  0  0  0  0  0
   -2.7688    2.2298   -1.3713 H   0  0  0  0  0  0  0  0  0  0  0  0
   -2.9186    2.9206    0.2539 H   0  0  0  0  0  0  0  0  0  0  0  0
   -3.3657    1.2174    0.0437 H   0  0  0  0  0  0  0  0  0  0  0  0
   -2.6607   -0.5638   -0.6574 H   0  0  0  0  0  0  0  0  0  0  0  0
   -1.2944   -1.6319   -1.0158 H   0  0  0  0  0  0  0  0  0  0  0  0
   -2.0275   -2.3095    1.0774 H   0  0  0  0  0  0  0  0  0  0  0  0
   -0.6297   -1.3046    1.5285 H   0  0  0  0  0  0  0  0  0  0  0  0
   -2.3501   -0.6774    1.6914 H   0  0  0  0  0  0  0  0  0  0  0  0
  1  2  1  0
  2  3  1  0
  3  4  3  0
  4  5  1  0
  5  6  1  0
  6  7  1  0
  5  8  1  0
  8  9  1  0
  1 10  1  0
  1 11  1  0
  1 12  1  0
  2 13  1  0
  2 14  1  0
  5 15  1  0
  6 16  1  0
  6 17  1  0
  7 18  1  0
  7 19  1  0
  7 20  1  0
  8 21  1  0
  8 22  1  0
  9 23  1  0
  9 24  1  0
  9 25  1  0
M  END
