
     RDKit          3D

 23 23  0  0  0  0  0  0  0  0999 V2000
    3.9471   -0.9724   -0.4363 C   0  0  0  0  0  0  0  0  0  0  0  0
    3.0036    0.2005   -0.4561 C   0  0  0  0  0  0  0  0  0  0  0  0
    1.6417   -0.1896   -0.0307 C   0  0  0  0  0  0  0  0  0  0  0  0
    0.5227   -0.4914    0.3067 C   0  0  0  0  0  0  0  0  0  0  0  0
   -0.8355   -0.8447    0.7382 C   0  0  0  0  0  0  0  0  0  0  0  0
   -1.7721    0.2293    0.2599 C   0  0  0  0  0  0  0  0  0  0  0  0
   -1.4862    1.6187    0.7792 C   0  0  0  0  0  0  0  0  0  0  0  0
   -3.2243   -0.1849    0.0933 C   0  0  0  0  0  0  0  0  0  0  0  0
   -2.3396    0.1133   -1.0973 C   0  0  0  0  0  0  0  0  0  0  0  0
    3.3872   -1.9101   -0.5415 H   0  0  0  0  0  0  0  0  0  0  0  0
    4.6483   -0.8918   -1.3143 H   0  0  0  0  0  0  0  0  0  0  0  0
    4.5710   -0.9823    0.4843 H   0  0  0  0  0  0  0  0  0  0  0  0
    3.3301    1.0479    0.1523 H   0  0  0  0  0  0  0  0  0  0  0  0
    2.8933    0.5589   -1.5219 H   0  0  0  0  0  0  0  0  0  0  0  0
   -0.9259   -0.9072    1.8356 H   0  0  0  0  0  0  0  0  0  0  0  0
   -1.0685   -1.8335    0.3279 H   0  0  0  0  0  0  0  0  0  0  0  0
   -0.4042    1.8328    0.6623 H   0  0  0  0  0  0  0  0  0  0  0  0
   -2.0142    2.3446    0.1283 H   0  0  0  0  0  0  0  0  0  0  0  0
   -1.8019    1.7212    1.8443 H   0  0  0  0  0  0  0  0  0  0  0  0
   -3.9416    0.5770    0.4403 H   0  0  0  0  0  0  0  0  0  0  0  0
   -3.4859   -1.2619    0.2390 H   0  0  0  0  0  0  0  0  0  0  0  0
   -2.0031   -0.7588   -1.6943 H   0  0  0  0  0  0  0  0  0  0  0  0
   -2.6419    0.9844   -1.6963 H   0  0  0  0  0  0  0  0  0  0  0  0
  1  2  1  0
  2  3  1  0
  3  4  3  0
  4  5  1  0
  5  6  1  0
  6  7  1  0
  6  8  1  0
  8  9  1  0
  9  6  1  0
  1 10  1  0
  1 11  1  0
  1 12  1  0
  2 13  1  0
  2 14  1  0
  5 15  1  0
  5 16  1  0
  7 17  1  0
  7 18  1  0
  7 19  1  0
  8 20  1  0
  8 21  1  0
  9 22  1  0
  9 23  1  0
M  END
