
     RDKit          3D

 21 21  0  0  0  0  0  0  0  0999 V2000
    3.0815    0.4655   -0.6718 C   0  0  0  0  0  0  0  0  0  0  0  0
    2.6966   -0.4326    0.4768 C   0  0  0  0  0  0  0  0  0  0  0  0
    1.2685   -0.7871    0.3199 C   0  0  0  0  0  0  0  0  0  0  0  0
    0.1075   -1.0821    0.1849 C   0  0  0  0  0  0  0  0  0  0  0  0
   -1.2948   -1.4196    0.0401 C   0  0  0  0  0  0  0  0  0  0  0  0
   -2.1009   -0.1522    0.0033 C   0  0  0  0  0  0  0  0  0  0  0  0
   -3.4758   -0.3703   -0.1351 O   0  0  0  0  0  0  0  0  0  0  0  0
   -1.6681    1.0901    0.6431 C   0  0  0  0  0  0  0  0  0  0  0  0
   -1.4585    0.9564   -0.8074 C   0  0  0  0  0  0  0  0  0  0  0  0
    3.7915   -0.0881   -1.3519 H   0  0  0  0  0  0  0  0  0  0  0  0
    3.6510    1.3244   -0.2797 H   0  0  0  0  0  0  0  0  0  0  0  0
    2.1960    0.8065   -1.2539 H   0  0  0  0  0  0  0  0  0  0  0  0
    2.7827    0.0668    1.4555 H   0  0  0  0  0  0  0  0  0  0  0  0
    3.3407   -1.3200    0.5002 H   0  0  0  0  0  0  0  0  0  0  0  0
   -1.6611   -2.1515    0.7798 H   0  0  0  0  0  0  0  0  0  0  0  0
   -1.4047   -1.9165   -0.9622 H   0  0  0  0  0  0  0  0  0  0  0  0
   -3.9839   -0.2067    0.6755 H   0  0  0  0  0  0  0  0  0  0  0  0
   -2.4843    1.8085    0.9395 H   0  0  0  0  0  0  0  0  0  0  0  0
   -0.7775    1.1682    1.2842 H   0  0  0  0  0  0  0  0  0  0  0  0
   -2.1665    1.4221   -1.5345 H   0  0  0  0  0  0  0  0  0  0  0  0
   -0.4397    0.8183   -1.2053 H   0  0  0  0  0  0  0  0  0  0  0  0
  1  2  1  0
  2  3  1  0
  3  4  3  0
  4  5  1  0
  5  6  1  0
  6  7  1  0
  6  8  1  0
  8  9  1  0
  9  6  1  0
  1 10  1  0
  1 11  1  0
  1 12  1  0
  2 13  1  0
  2 14  1  0
  5 15  1  0
  5 16  1  0
  7 17  1  0
  8 18  1  0
  8 19  1  0
  9 20  1  0
  9 21  1  0
M  END
