
     RDKit          3D

 21 20  0  0  0  0  0  0  0  0999 V2000
    3.1293   -1.6038    0.0304 C   0  0  0  0  0  0  0  0  0  0  0  0
    2.0193   -1.6323   -0.9907 C   0  0  0  0  0  0  0  0  0  0  0  0
    0.9564   -0.7394   -0.4717 C   0  0  0  0  0  0  0  0  0  0  0  0
    0.1080   -0.0002   -0.0486 C   0  0  0  0  0  0  0  0  0  0  0  0
   -0.9277    0.9040    0.4939 C   0  0  0  0  0  0  0  0  0  0  0  0
   -0.8713    2.1575   -0.3617 C   0  0  0  0  0  0  0  0  0  0  0  0
   -1.0823    1.7915   -1.6958 O   0  0  0  0  0  0  0  0  0  0  0  0
   -2.1354    0.2627    0.4038 O   0  0  0  0  0  0  0  0  0  0  0  0
   -2.7472    0.0208    1.6106 C   0  0  0  0  0  0  0  0  0  0  0  0
    3.0821   -0.6961    0.6632 H   0  0  0  0  0  0  0  0  0  0  0  0
    3.1210   -2.5418    0.6461 H   0  0  0  0  0  0  0  0  0  0  0  0
    4.0928   -1.5750   -0.5175 H   0  0  0  0  0  0  0  0  0  0  0  0
    2.3883   -1.2676   -1.9542 H   0  0  0  0  0  0  0  0  0  0  0  0
    1.6327   -2.6871   -1.0451 H   0  0  0  0  0  0  0  0  0  0  0  0
   -0.6402    1.1236    1.5239 H   0  0  0  0  0  0  0  0  0  0  0  0
    0.1732    2.5638   -0.2313 H   0  0  0  0  0  0  0  0  0  0  0  0
   -1.5482    2.9451   -0.0142 H   0  0  0  0  0  0  0  0  0  0  0  0
   -1.9049    1.2536   -1.7085 H   0  0  0  0  0  0  0  0  0  0  0  0
   -3.7183   -0.5054    1.3746 H   0  0  0  0  0  0  0  0  0  0  0  0
   -2.9996    0.9053    2.1984 H   0  0  0  0  0  0  0  0  0  0  0  0
   -2.1280   -0.6792    2.2460 H   0  0  0  0  0  0  0  0  0  0  0  0
  1  2  1  0
  2  3  1  0
  3  4  3  0
  4  5  1  0
  5  6  1  0
  6  7  1  0
  5  8  1  0
  8  9  1  0
  1 10  1  0
  1 11  1  0
  1 12  1  0
  2 13  1  0
  2 14  1  0
  5 15  1  0
  6 16  1  0
  6 17  1  0
  7 18  1  0
  9 19  1  0
  9 20  1  0
  9 21  1  0
M  END
