
     RDKit          3D

 21 21  0  0  0  0  0  0  0  0999 V2000
    3.7820    0.6852   -0.0777 C   0  0  0  0  0  0  0  0  0  0  0  0
    3.0794   -0.6294   -0.2764 C   0  0  0  0  0  0  0  0  0  0  0  0
    1.7146   -0.5137    0.2428 C   0  0  0  0  0  0  0  0  0  0  0  0
    0.5909   -0.3986    0.6632 C   0  0  0  0  0  0  0  0  0  0  0  0
   -0.7895   -0.2316    1.1773 C   0  0  0  0  0  0  0  0  0  0  0  0
   -1.6963   -0.9508    0.2380 C   0  0  0  0  0  0  0  0  0  0  0  0
   -1.5825   -0.3826   -1.1111 O   0  0  0  0  0  0  0  0  0  0  0  0
   -2.8379   -0.3823   -0.3699 C   0  0  0  0  0  0  0  0  0  0  0  0
   -3.3675    0.9796   -0.0217 C   0  0  0  0  0  0  0  0  0  0  0  0
    3.1269    1.4411    0.4099 H   0  0  0  0  0  0  0  0  0  0  0  0
    4.1316    1.0864   -1.0564 H   0  0  0  0  0  0  0  0  0  0  0  0
    4.6763    0.5791    0.5726 H   0  0  0  0  0  0  0  0  0  0  0  0
    3.0455   -0.9186   -1.3488 H   0  0  0  0  0  0  0  0  0  0  0  0
    3.6411   -1.4047    0.2971 H   0  0  0  0  0  0  0  0  0  0  0  0
   -0.8724   -0.6680    2.1946 H   0  0  0  0  0  0  0  0  0  0  0  0
   -0.9750    0.8535    1.2148 H   0  0  0  0  0  0  0  0  0  0  0  0
   -1.5599   -2.0654    0.2486 H   0  0  0  0  0  0  0  0  0  0  0  0
   -3.5607   -1.0208   -0.9137 H   0  0  0  0  0  0  0  0  0  0  0  0
   -4.4421    0.8600    0.2281 H   0  0  0  0  0  0  0  0  0  0  0  0
   -3.2178    1.6288   -0.9159 H   0  0  0  0  0  0  0  0  0  0  0  0
   -2.8867    1.4528    0.8339 H   0  0  0  0  0  0  0  0  0  0  0  0
  1  2  1  0
  2  3  1  0
  3  4  3  0
  4  5  1  0
  5  6  1  0
  6  7  1  0
  7  8  1  0
  8  9  1  0
  8  6  1  0
  1 10  1  0
  1 11  1  0
  1 12  1  0
  2 13  1  0
  2 14  1  0
  5 15  1  0
  5 16  1  0
  6 17  1  0
  8 18  1  0
  9 19  1  0
  9 20  1  0
  9 21  1  0
M  END
