
     RDKit          3D

 21 20  0  0  0  0  0  0  0  0999 V2000
    3.2377   -0.4641    0.1611 C   0  0  0  0  0  0  0  0  0  0  0  0
    2.5174    0.0838   -1.0460 C   0  0  0  0  0  0  0  0  0  0  0  0
    1.1159    0.3648   -0.6875 C   0  0  0  0  0  0  0  0  0  0  0  0
   -0.0283    0.5917   -0.3753 C   0  0  0  0  0  0  0  0  0  0  0  0
   -1.4251    0.8724    0.0273 C   0  0  0  0  0  0  0  0  0  0  0  0
   -1.5387    1.1320    1.4620 C   0  0  0  0  0  0  0  0  0  0  0  0
   -1.1829    2.2037    1.9119 O   0  0  0  0  0  0  0  0  0  0  0  0
   -2.2441   -0.2939   -0.4512 C   0  0  0  0  0  0  0  0  0  0  0  0
   -1.8318   -1.6025    0.1229 C   0  0  0  0  0  0  0  0  0  0  0  0
    3.1795   -1.5812    0.1815 H   0  0  0  0  0  0  0  0  0  0  0  0
    2.7150   -0.1058    1.0728 H   0  0  0  0  0  0  0  0  0  0  0  0
    4.2954   -0.1329    0.2117 H   0  0  0  0  0  0  0  0  0  0  0  0
    3.0547    1.0303   -1.3386 H   0  0  0  0  0  0  0  0  0  0  0  0
    2.5770   -0.6046   -1.9175 H   0  0  0  0  0  0  0  0  0  0  0  0
   -1.8058    1.7737   -0.5308 H   0  0  0  0  0  0  0  0  0  0  0  0
   -1.9275    0.4194    2.1738 H   0  0  0  0  0  0  0  0  0  0  0  0
   -2.1472   -0.3225   -1.5620 H   0  0  0  0  0  0  0  0  0  0  0  0
   -3.3151   -0.0348   -0.2604 H   0  0  0  0  0  0  0  0  0  0  0  0
   -2.7470   -2.0770    0.5771 H   0  0  0  0  0  0  0  0  0  0  0  0
   -1.0573   -1.5398    0.9118 H   0  0  0  0  0  0  0  0  0  0  0  0
   -1.4420   -2.3046   -0.6446 H   0  0  0  0  0  0  0  0  0  0  0  0
  1  2  1  0
  2  3  1  0
  3  4  3  0
  4  5  1  0
  5  6  1  0
  6  7  2  0
  5  8  1  0
  8  9  1  0
  1 10  1  0
  1 11  1  0
  1 12  1  0
  2 13  1  0
  2 14  1  0
  5 15  1  0
  6 16  1  0
  8 17  1  0
  8 18  1  0
  9 19  1  0
  9 20  1  0
  9 21  1  0
M  END
