
     RDKit          3D

 23 22  0  0  0  0  0  0  0  0999 V2000
    3.4067    2.6514    0.7537 C   0  0  0  0  0  0  0  0  0  0  0  0
    2.9975    2.1342   -0.5856 C   0  0  0  0  0  0  0  0  0  0  0  0
    1.5933    1.6150   -0.5032 C   0  0  0  0  0  0  0  0  0  0  0  0
    0.4520    1.1705   -0.4397 C   0  0  0  0  0  0  0  0  0  0  0  0
   -0.9225    0.6111   -0.3560 C   0  0  0  0  0  0  0  0  0  0  0  0
   -0.6559   -0.7919   -0.3154 O   0  0  0  0  0  0  0  0  0  0  0  0
   -1.8820   -1.4149   -0.1374 C   0  0  0  0  0  0  0  0  0  0  0  0
   -1.8785   -2.2669    1.1310 C   0  0  0  0  0  0  0  0  0  0  0  0
   -2.2889   -2.2600   -1.3260 C   0  0  0  0  0  0  0  0  0  0  0  0
    2.8185    3.5361    1.0613 H   0  0  0  0  0  0  0  0  0  0  0  0
    4.4990    2.7763    0.7408 H   0  0  0  0  0  0  0  0  0  0  0  0
    3.2231    1.8164    1.5110 H   0  0  0  0  0  0  0  0  0  0  0  0
    3.6670    1.2206   -0.7816 H   0  0  0  0  0  0  0  0  0  0  0  0
    3.1230    2.8145   -1.4279 H   0  0  0  0  0  0  0  0  0  0  0  0
   -1.5344    0.7945   -1.2186 H   0  0  0  0  0  0  0  0  0  0  0  0
   -1.3827    0.9515    0.6059 H   0  0  0  0  0  0  0  0  0  0  0  0
   -2.6433   -0.6005    0.0185 H   0  0  0  0  0  0  0  0  0  0  0  0
   -2.0563   -3.3077    0.8349 H   0  0  0  0  0  0  0  0  0  0  0  0
   -0.8765   -2.1401    1.6318 H   0  0  0  0  0  0  0  0  0  0  0  0
   -2.6940   -1.9380    1.8170 H   0  0  0  0  0  0  0  0  0  0  0  0
   -1.3852   -2.8717   -1.6028 H   0  0  0  0  0  0  0  0  0  0  0  0
   -3.1241   -2.9185   -1.1138 H   0  0  0  0  0  0  0  0  0  0  0  0
   -2.4557   -1.5819   -2.1829 H   0  0  0  0  0  0  0  0  0  0  0  0
  1  2  1  0
  2  3  1  0
  3  4  3  0
  4  5  1  0
  5  6  1  0
  6  7  1  0
  7  8  1  0
  7  9  1  0
  1 10  1  0
  1 11  1  0
  1 12  1  0
  2 13  1  0
  2 14  1  0
  5 15  1  0
  5 16  1  0
  7 17  1  0
  8 18  1  0
  8 19  1  0
  8 20  1  0
  9 21  1  0
  9 22  1  0
  9 23  1  0
M  END
