
     RDKit          3D

 21 21  0  0  0  0  0  0  0  0999 V2000
    2.8674   -2.2902    0.8189 C   0  0  0  0  0  0  0  0  0  0  0  0
    2.8880   -0.8005    0.5900 C   0  0  0  0  0  0  0  0  0  0  0  0
    1.4911   -0.3351    0.6463 C   0  0  0  0  0  0  0  0  0  0  0  0
    0.3551    0.0257    0.6796 C   0  0  0  0  0  0  0  0  0  0  0  0
   -1.0412    0.4457    0.7325 C   0  0  0  0  0  0  0  0  0  0  0  0
   -1.1701    1.9472    0.4456 C   0  0  0  0  0  0  0  0  0  0  0  0
   -2.6079    2.0033    0.0055 C   0  0  0  0  0  0  0  0  0  0  0  0
   -2.9658    0.8292   -0.4965 C   0  0  0  0  0  0  0  0  0  0  0  0
   -1.8167   -0.1169   -0.4426 C   0  0  0  0  0  0  0  0  0  0  0  0
    3.8211   -2.6932    0.4141 H   0  0  0  0  0  0  0  0  0  0  0  0
    2.8550   -2.5493    1.9015 H   0  0  0  0  0  0  0  0  0  0  0  0
    2.0463   -2.7950    0.2587 H   0  0  0  0  0  0  0  0  0  0  0  0
    3.5054   -0.3452    1.3862 H   0  0  0  0  0  0  0  0  0  0  0  0
    3.3342   -0.6295   -0.4146 H   0  0  0  0  0  0  0  0  0  0  0  0
   -1.5416    0.1873    1.6674 H   0  0  0  0  0  0  0  0  0  0  0  0
   -0.5315    2.1765   -0.4257 H   0  0  0  0  0  0  0  0  0  0  0  0
   -0.9747    2.5544    1.3291 H   0  0  0  0  0  0  0  0  0  0  0  0
   -3.1983    2.9133    0.1178 H   0  0  0  0  0  0  0  0  0  0  0  0
   -3.9456    0.5881   -0.8888 H   0  0  0  0  0  0  0  0  0  0  0  0
   -2.1278   -1.1564   -0.3010 H   0  0  0  0  0  0  0  0  0  0  0  0
   -1.2422    0.0408   -1.3850 H   0  0  0  0  0  0  0  0  0  0  0  0
  1  2  1  0
  2  3  1  0
  3  4  3  0
  4  5  1  0
  5  6  1  0
  6  7  1  0
  7  8  2  0
  8  9  1  0
  9  5  1  0
  1 10  1  0
  1 11  1  0
  1 12  1  0
  2 13  1  0
  2 14  1  0
  5 15  1  0
  6 16  1  0
  6 17  1  0
  7 18  1  0
  8 19  1  0
  9 20  1  0
  9 21  1  0
M  END
