
     RDKit          3D

 18 17  0  0  0  0  0  0  0  0999 V2000
   -3.3519    0.5325    0.3433 C   0  0  0  0  0  0  0  0  0  0  0  0
   -2.5387   -0.2733   -0.6221 C   0  0  0  0  0  0  0  0  0  0  0  0
   -1.1367   -0.4634   -0.1687 C   0  0  0  0  0  0  0  0  0  0  0  0
   -0.0036   -0.6181    0.2056 C   0  0  0  0  0  0  0  0  0  0  0  0
    1.4042   -0.8191    0.6592 C   0  0  0  0  0  0  0  0  0  0  0  0
    2.1933    0.4233    0.2931 C   0  0  0  0  0  0  0  0  0  0  0  0
    3.4589    0.2986   -0.4711 C   0  0  0  0  0  0  0  0  0  0  0  0
    1.8036    1.5410    0.6148 O   0  0  0  0  0  0  0  0  0  0  0  0
   -3.9148    1.3138   -0.2515 H   0  0  0  0  0  0  0  0  0  0  0  0
   -2.6451    1.0255    1.0670 H   0  0  0  0  0  0  0  0  0  0  0  0
   -4.0864   -0.0695    0.8974 H   0  0  0  0  0  0  0  0  0  0  0  0
   -2.5494    0.1838   -1.6563 H   0  0  0  0  0  0  0  0  0  0  0  0
   -2.9863   -1.2857   -0.7279 H   0  0  0  0  0  0  0  0  0  0  0  0
    1.3729   -0.9073    1.7346 H   0  0  0  0  0  0  0  0  0  0  0  0
    1.7831   -1.6793    0.1016 H   0  0  0  0  0  0  0  0  0  0  0  0
    3.2031   -0.3419   -1.3703 H   0  0  0  0  0  0  0  0  0  0  0  0
    4.2141   -0.1725    0.1740 H   0  0  0  0  0  0  0  0  0  0  0  0
    3.7797    1.3118   -0.8229 H   0  0  0  0  0  0  0  0  0  0  0  0
  1  2  1  0
  2  3  1  0
  3  4  3  0
  4  5  1  0
  5  6  1  0
  6  7  1  0
  6  8  2  0
  1  9  1  0
  1 10  1  0
  1 11  1  0
  2 12  1  0
  2 13  1  0
  5 14  1  0
  5 15  1  0
  7 16  1  0
  7 17  1  0
  7 18  1  0
M  END
