
     RDKit          3D

 19 18  0  0  0  0  0  0  0  0999 V2000
    4.4951   -0.8043    0.1408 C   0  0  0  0  0  0  0  0  0  0  0  0
    3.7690   -0.3405   -1.1198 C   0  0  0  0  0  0  0  0  0  0  0  0
    2.3236   -0.2585   -0.8999 C   0  0  0  0  0  0  0  0  0  0  0  0
    1.1310   -0.1699   -0.7210 C   0  0  0  0  0  0  0  0  0  0  0  0
   -0.2737   -0.0824   -0.5245 C   0  0  0  0  0  0  0  0  0  0  0  0
   -1.4669   -0.0127   -0.3513 C   0  0  0  0  0  0  0  0  0  0  0  0
   -2.9032    0.0762   -0.1634 C   0  0  0  0  0  0  0  0  0  0  0  0
   -3.1609    0.6008    1.1091 O   0  0  0  0  0  0  0  0  0  0  0  0
   -4.5213    0.7123    1.3538 C   0  0  0  0  0  0  0  0  0  0  0  0
    5.3394   -0.1042    0.3460 H   0  0  0  0  0  0  0  0  0  0  0  0
    3.7785   -0.8073    1.0034 H   0  0  0  0  0  0  0  0  0  0  0  0
    4.8513   -1.8445    0.0191 H   0  0  0  0  0  0  0  0  0  0  0  0
    3.9536   -1.0475   -1.9407 H   0  0  0  0  0  0  0  0  0  0  0  0
    4.1048    0.6931   -1.3635 H   0  0  0  0  0  0  0  0  0  0  0  0
   -3.3657    0.7537   -0.9289 H   0  0  0  0  0  0  0  0  0  0  0  0
   -3.3480   -0.9244   -0.1963 H   0  0  0  0  0  0  0  0  0  0  0  0
   -4.6478    1.1282    2.3642 H   0  0  0  0  0  0  0  0  0  0  0  0
   -5.0623   -0.2402    1.2488 H   0  0  0  0  0  0  0  0  0  0  0  0
   -4.9964    1.4247    0.6240 H   0  0  0  0  0  0  0  0  0  0  0  0
  1  2  1  0
  2  3  1  0
  3  4  3  0
  4  5  1  0
  5  6  3  0
  6  7  1  0
  7  8  1  0
  8  9  1  0
  1 10  1  0
  1 11  1  0
  1 12  1  0
  2 13  1  0
  2 14  1  0
  7 15  1  0
  7 16  1  0
  9 17  1  0
  9 18  1  0
  9 19  1  0
M  END
