
     RDKit          3D

 25 24  0  0  0  0  0  0  0  0999 V2000
    3.1134   -2.1327   -0.0245 C   0  0  0  0  0  0  0  0  0  0  0  0
    2.6989   -0.6954   -0.1331 C   0  0  0  0  0  0  0  0  0  0  0  0
    1.2584   -0.5960    0.0891 C   0  0  0  0  0  0  0  0  0  0  0  0
    0.0419   -0.4912    0.2825 C   0  0  0  0  0  0  0  0  0  0  0  0
   -1.4040   -0.3790    0.4944 C   0  0  0  0  0  0  0  0  0  0  0  0
   -1.7574   -0.6796    1.9543 C   0  0  0  0  0  0  0  0  0  0  0  0
   -1.8804    0.9926    0.2263 C   0  0  0  0  0  0  0  0  0  0  0  0
   -1.7367    1.5762   -1.1208 C   0  0  0  0  0  0  0  0  0  0  0  0
   -0.2963    1.6845   -1.5260 C   0  0  0  0  0  0  0  0  0  0  0  0
    2.2649   -2.7802    0.2971 H   0  0  0  0  0  0  0  0  0  0  0  0
    3.9770   -2.2095    0.6673 H   0  0  0  0  0  0  0  0  0  0  0  0
    3.4749   -2.4677   -1.0215 H   0  0  0  0  0  0  0  0  0  0  0  0
    3.0293   -0.2340   -1.0891 H   0  0  0  0  0  0  0  0  0  0  0  0
    3.2728   -0.1191    0.6512 H   0  0  0  0  0  0  0  0  0  0  0  0
   -1.9513   -1.0924   -0.2052 H   0  0  0  0  0  0  0  0  0  0  0  0
   -0.8679   -0.3561    2.5520 H   0  0  0  0  0  0  0  0  0  0  0  0
   -2.5621    0.0292    2.2427 H   0  0  0  0  0  0  0  0  0  0  0  0
   -1.9486   -1.7189    2.1652 H   0  0  0  0  0  0  0  0  0  0  0  0
   -1.4084    1.6677    1.0138 H   0  0  0  0  0  0  0  0  0  0  0  0
   -2.9744    1.0451    0.5102 H   0  0  0  0  0  0  0  0  0  0  0  0
   -2.1531    2.6386   -1.1633 H   0  0  0  0  0  0  0  0  0  0  0  0
   -2.3492    1.0516   -1.8886 H   0  0  0  0  0  0  0  0  0  0  0  0
   -0.2159    2.5460   -2.2564 H   0  0  0  0  0  0  0  0  0  0  0  0
    0.3379    1.9448   -0.6573 H   0  0  0  0  0  0  0  0  0  0  0  0
    0.0361    0.7756   -2.0602 H   0  0  0  0  0  0  0  0  0  0  0  0
  1  2  1  0
  2  3  1  0
  3  4  3  0
  4  5  1  0
  5  6  1  0
  5  7  1  0
  7  8  1  0
  8  9  1  0
  1 10  1  0
  1 11  1  0
  1 12  1  0
  2 13  1  0
  2 14  1  0
  5 15  1  0
  6 16  1  0
  6 17  1  0
  6 18  1  0
  7 19  1  0
  7 20  1  0
  8 21  1  0
  8 22  1  0
  9 23  1  0
  9 24  1  0
  9 25  1  0
M  END
