
     RDKit          3D

 17 16  0  0  0  0  0  0  0  0999 V2000
   -3.1888   -0.9770    0.3720 C   0  0  0  0  0  0  0  0  0  0  0  0
   -2.2238   -0.0161    1.0924 C   0  0  0  0  0  0  0  0  0  0  0  0
   -1.2480    0.4222    0.3402 C   0  0  0  0  0  0  0  0  0  0  0  0
   -0.2090    0.8967   -0.4919 C   0  0  0  0  0  0  0  0  0  0  0  0
    0.8640    1.3640   -1.3282 C   0  0  0  0  0  0  0  0  0  0  0  0
    2.1456    0.5837   -1.0859 C   0  0  0  0  0  0  0  0  0  0  0  0
    3.1028    0.0017   -0.8851 C   0  0  0  0  0  0  0  0  0  0  0  0
    4.3311   -0.7303   -0.6073 C   0  0  0  0  0  0  0  0  0  0  0  0
    5.1465   -0.0750    0.1203 O   0  0  0  0  0  0  0  0  0  0  0  0
   -2.9339   -0.9038   -0.7149 H   0  0  0  0  0  0  0  0  0  0  0  0
   -2.9661   -1.9996    0.7104 H   0  0  0  0  0  0  0  0  0  0  0  0
   -4.1977   -0.6540    0.6545 H   0  0  0  0  0  0  0  0  0  0  0  0
   -2.8553    0.8225    1.5285 H   0  0  0  0  0  0  0  0  0  0  0  0
   -1.8602   -0.5992    2.0403 H   0  0  0  0  0  0  0  0  0  0  0  0
    0.9792    2.4192   -1.2992 H   0  0  0  0  0  0  0  0  0  0  0  0
    0.5766    1.1188   -2.4184 H   0  0  0  0  0  0  0  0  0  0  0  0
    4.5370   -1.6738   -0.9568 H   0  0  0  0  0  0  0  0  0  0  0  0
  1  2  1  0
  2  3  1  0
  3  4  3  0
  4  5  1  0
  5  6  1  0
  6  7  3  0
  7  8  1  0
  8  9  2  0
  1 10  1  0
  1 11  1  0
  1 12  1  0
  2 13  1  0
  2 14  1  0
  5 15  1  0
  5 16  1  0
  8 17  1  0
M  END
