
     RDKit          3D

 25 24  0  0  0  0  0  0  0  0999 V2000
    4.5287   -0.3385    0.8050 C   0  0  0  0  0  0  0  0  0  0  0  0
    3.5522   -1.3873    0.2762 C   0  0  0  0  0  0  0  0  0  0  0  0
    2.1712   -0.8894    0.3455 C   0  0  0  0  0  0  0  0  0  0  0  0
    1.0186   -0.4962    0.3992 C   0  0  0  0  0  0  0  0  0  0  0  0
   -0.3620   -0.0194    0.4767 C   0  0  0  0  0  0  0  0  0  0  0  0
   -0.9431   -0.0283   -0.9163 C   0  0  0  0  0  0  0  0  0  0  0  0
   -2.3587    0.4598   -0.8404 C   0  0  0  0  0  0  0  0  0  0  0  0
   -3.2240   -0.4048    0.0449 C   0  0  0  0  0  0  0  0  0  0  0  0
   -2.4758    1.8778   -0.3540 C   0  0  0  0  0  0  0  0  0  0  0  0
    5.4539   -0.8070    1.1897 H   0  0  0  0  0  0  0  0  0  0  0  0
    4.6994    0.3697   -0.0210 H   0  0  0  0  0  0  0  0  0  0  0  0
    3.9797    0.2172    1.5952 H   0  0  0  0  0  0  0  0  0  0  0  0
    3.7857   -1.6570   -0.7674 H   0  0  0  0  0  0  0  0  0  0  0  0
    3.6874   -2.2839    0.9392 H   0  0  0  0  0  0  0  0  0  0  0  0
   -0.9044   -0.6505    1.1765 H   0  0  0  0  0  0  0  0  0  0  0  0
   -0.4250    1.0239    0.8479 H   0  0  0  0  0  0  0  0  0  0  0  0
   -0.3904    0.6620   -1.5859 H   0  0  0  0  0  0  0  0  0  0  0  0
   -0.9369   -1.0136   -1.3858 H   0  0  0  0  0  0  0  0  0  0  0  0
   -2.8075    0.4352   -1.8647 H   0  0  0  0  0  0  0  0  0  0  0  0
   -2.8347   -1.4443   -0.0022 H   0  0  0  0  0  0  0  0  0  0  0  0
   -3.2478   -0.0329    1.1007 H   0  0  0  0  0  0  0  0  0  0  0  0
   -4.2703   -0.3329   -0.3148 H   0  0  0  0  0  0  0  0  0  0  0  0
   -1.9210    2.5982   -0.9943 H   0  0  0  0  0  0  0  0  0  0  0  0
   -2.2159    1.9920    0.7203 H   0  0  0  0  0  0  0  0  0  0  0  0
   -3.5596    2.1504   -0.4280 H   0  0  0  0  0  0  0  0  0  0  0  0
  1  2  1  0
  2  3  1  0
  3  4  3  0
  4  5  1  0
  5  6  1  0
  6  7  1  0
  7  8  1  0
  7  9  1  0
  1 10  1  0
  1 11  1  0
  1 12  1  0
  2 13  1  0
  2 14  1  0
  5 15  1  0
  5 16  1  0
  6 17  1  0
  6 18  1  0
  7 19  1  0
  8 20  1  0
  8 21  1  0
  8 22  1  0
  9 23  1  0
  9 24  1  0
  9 25  1  0
M  END
