
     RDKit          3D

 19 18  0  0  0  0  0  0  0  0999 V2000
   -2.2985   -1.8186    1.9084 C   0  0  0  0  0  0  0  0  0  0  0  0
   -2.2186   -0.7464    0.8752 C   0  0  0  0  0  0  0  0  0  0  0  0
   -1.0999   -0.7767    0.1294 C   0  0  0  0  0  0  0  0  0  0  0  0
    0.0178   -0.7855   -0.6274 C   0  0  0  0  0  0  0  0  0  0  0  0
    1.2966   -0.7944   -1.5262 C   0  0  0  0  0  0  0  0  0  0  0  0
    2.0883    0.3307   -0.7605 C   0  0  0  0  0  0  0  0  0  0  0  0
    2.9585   -0.0760    0.1061 O   0  0  0  0  0  0  0  0  0  0  0  0
    1.9033    1.5095   -0.9637 O   0  0  0  0  0  0  0  0  0  0  0  0
    1.8306    2.8503   -1.0663 C   0  0  0  0  0  0  0  0  0  0  0  0
   -3.3759   -2.2126    1.8345 H   0  0  0  0  0  0  0  0  0  0  0  0
   -1.6875   -2.7279    1.6884 H   0  0  0  0  0  0  0  0  0  0  0  0
   -2.0950   -1.4576    2.8881 H   0  0  0  0  0  0  0  0  0  0  0  0
   -2.5325    0.2547    1.1846 H   0  0  0  0  0  0  0  0  0  0  0  0
   -3.0796   -1.1122    0.1117 H   0  0  0  0  0  0  0  0  0  0  0  0
    0.9736   -0.5401   -2.4416 H   0  0  0  0  0  0  0  0  0  0  0  0
    1.7519   -1.7389   -1.2305 H   0  0  0  0  0  0  0  0  0  0  0  0
    2.0207    3.4482   -0.1234 H   0  0  0  0  0  0  0  0  0  0  0  0
    0.8859    3.2168   -1.5349 H   0  0  0  0  0  0  0  0  0  0  0  0
    2.6606    3.1766   -1.7988 H   0  0  0  0  0  0  0  0  0  0  0  0
  1  2  1  0
  2  3  1  0
  3  4  3  0
  4  5  1  0
  5  6  1  0
  6  7  2  0
  6  8  1  0
  8  9  1  0
  1 10  1  0
  1 11  1  0
  1 12  1  0
  2 13  1  0
  2 14  1  0
  5 15  1  0
  5 16  1  0
  9 17  1  0
  9 18  1  0
  9 19  1  0
M  END
