
     RDKit          3D

 19 19  0  0  0  0  0  0  0  0999 V2000
    3.3582    0.2918    0.5661 C   0  0  0  0  0  0  0  0  0  0  0  0
    2.4729   -0.7279    0.0586 C   0  0  0  0  0  0  0  0  0  0  0  0
    1.2725   -0.5103   -0.0252 C   0  0  0  0  0  0  0  0  0  0  0  0
   -0.1573   -0.2647   -0.1466 C   0  0  0  0  0  0  0  0  0  0  0  0
   -1.7378    0.0090   -0.2964 C   0  0  0  0  0  0  0  0  0  0  0  0
   -2.1469   -0.7919   -1.5198 C   0  0  0  0  0  0  0  0  0  0  0  0
   -2.8461   -0.3081   -2.3251 O   0  0  0  0  0  0  0  0  0  0  0  0
   -2.1312    1.4334   -0.0677 C   0  0  0  0  0  0  0  0  0  0  0  0
   -2.4975    0.1674    0.7859 C   0  0  0  0  0  0  0  0  0  0  0  0
    4.1928   -0.1718    1.1350 H   0  0  0  0  0  0  0  0  0  0  0  0
    2.7854    0.9758    1.2307 H   0  0  0  0  0  0  0  0  0  0  0  0
    3.7974    0.7921   -0.2838 H   0  0  0  0  0  0  0  0  0  0  0  0
    2.9302   -1.1490   -0.8973 H   0  0  0  0  0  0  0  0  0  0  0  0
    2.6002   -1.7154    0.8041 H   0  0  0  0  0  0  0  0  0  0  0  0
   -1.7254   -1.7816   -1.5416 H   0  0  0  0  0  0  0  0  0  0  0  0
   -2.8812    1.7991   -0.8446 H   0  0  0  0  0  0  0  0  0  0  0  0
   -1.5832    2.1886    0.4100 H   0  0  0  0  0  0  0  0  0  0  0  0
   -3.5301   -0.3344    0.6537 H   0  0  0  0  0  0  0  0  0  0  0  0
   -2.1729    0.0979    1.8031 H   0  0  0  0  0  0  0  0  0  0  0  0
  1  2  1  0
  2  3  1  0
  3  4  3  0
  4  5  1  0
  5  6  1  0
  6  7  2  0
  5  8  1  0
  8  9  1  0
  9  5  1  0
  1 10  1  0
  1 11  1  0
  1 12  1  0
  2 13  1  0
  2 14  1  0
  6 15  1  0
  8 16  1  0
  8 17  1  0
  9 18  1  0
  9 19  1  0
M  END
