
     RDKit          3D

 19 18  0  0  0  0  0  0  0  0999 V2000
    4.4609   -0.1533    0.7325 C   0  0  0  0  0  0  0  0  0  0  0  0
    3.5595   -0.9977   -0.1469 C   0  0  0  0  0  0  0  0  0  0  0  0
    2.1715   -0.5726   -0.0134 C   0  0  0  0  0  0  0  0  0  0  0  0
    1.0070   -0.2197    0.1155 C   0  0  0  0  0  0  0  0  0  0  0  0
   -0.3435    0.1752    0.2555 C   0  0  0  0  0  0  0  0  0  0  0  0
   -1.4955    0.5172    0.3956 C   0  0  0  0  0  0  0  0  0  0  0  0
   -2.8935    0.9179    0.5742 C   0  0  0  0  0  0  0  0  0  0  0  0
   -3.8286   -0.0447   -0.1651 C   0  0  0  0  0  0  0  0  0  0  0  0
   -5.1333    0.4346    0.0753 O   0  0  0  0  0  0  0  0  0  0  0  0
    5.5139   -0.2043    0.3941 H   0  0  0  0  0  0  0  0  0  0  0  0
    4.3486   -0.5714    1.7711 H   0  0  0  0  0  0  0  0  0  0  0  0
    4.0517    0.8844    0.7179 H   0  0  0  0  0  0  0  0  0  0  0  0
    3.8377   -0.9098   -1.2278 H   0  0  0  0  0  0  0  0  0  0  0  0
    3.5990   -2.0759    0.1759 H   0  0  0  0  0  0  0  0  0  0  0  0
   -3.0983    0.8936    1.6682 H   0  0  0  0  0  0  0  0  0  0  0  0
   -3.0957    1.9289    0.1707 H   0  0  0  0  0  0  0  0  0  0  0  0
   -3.7126   -1.0705    0.2503 H   0  0  0  0  0  0  0  0  0  0  0  0
   -3.5546    0.0262   -1.2334 H   0  0  0  0  0  0  0  0  0  0  0  0
   -5.3942    1.0418   -0.6859 H   0  0  0  0  0  0  0  0  0  0  0  0
  1  2  1  0
  2  3  1  0
  3  4  3  0
  4  5  1  0
  5  6  3  0
  6  7  1  0
  7  8  1  0
  8  9  1  0
  1 10  1  0
  1 11  1  0
  1 12  1  0
  2 13  1  0
  2 14  1  0
  7 15  1  0
  7 16  1  0
  8 17  1  0
  8 18  1  0
  9 19  1  0
M  END
