
     RDKit          3D

 21 20  0  0  0  0  0  0  0  0999 V2000
    3.3376    0.2163    0.3099 C   0  0  0  0  0  0  0  0  0  0  0  0
    2.5759   -0.9297   -0.2929 C   0  0  0  0  0  0  0  0  0  0  0  0
    1.1409   -0.6025   -0.2013 C   0  0  0  0  0  0  0  0  0  0  0  0
   -0.0361   -0.3422   -0.1206 C   0  0  0  0  0  0  0  0  0  0  0  0
   -1.4730   -0.0031   -0.0246 C   0  0  0  0  0  0  0  0  0  0  0  0
   -1.8748    0.9144   -1.1637 C   0  0  0  0  0  0  0  0  0  0  0  0
   -1.6773    0.7098    1.2813 C   0  0  0  0  0  0  0  0  0  0  0  0
   -2.2499   -1.2493   -0.1315 C   0  0  0  0  0  0  0  0  0  0  0  0
   -2.3174   -1.8307   -1.1876 O   0  0  0  0  0  0  0  0  0  0  0  0
    3.7460   -0.0533    1.3171 H   0  0  0  0  0  0  0  0  0  0  0  0
    4.2219    0.4150   -0.3296 H   0  0  0  0  0  0  0  0  0  0  0  0
    2.7585    1.1405    0.4074 H   0  0  0  0  0  0  0  0  0  0  0  0
    2.8607   -1.0603   -1.3523 H   0  0  0  0  0  0  0  0  0  0  0  0
    2.8348   -1.8378    0.2830 H   0  0  0  0  0  0  0  0  0  0  0  0
   -2.5397    1.7192   -0.7845 H   0  0  0  0  0  0  0  0  0  0  0  0
   -2.4578    0.3633   -1.9362 H   0  0  0  0  0  0  0  0  0  0  0  0
   -0.9896    1.3886   -1.6255 H   0  0  0  0  0  0  0  0  0  0  0  0
   -2.4636    1.4969    1.2195 H   0  0  0  0  0  0  0  0  0  0  0  0
   -0.7358    1.2362    1.5386 H   0  0  0  0  0  0  0  0  0  0  0  0
   -1.9017   -0.0435    2.0694 H   0  0  0  0  0  0  0  0  0  0  0  0
   -2.7595   -1.6482    0.7241 H   0  0  0  0  0  0  0  0  0  0  0  0
  1  2  1  0
  2  3  1  0
  3  4  3  0
  4  5  1  0
  5  6  1  0
  5  7  1  0
  5  8  1  0
  8  9  2  0
  1 10  1  0
  1 11  1  0
  1 12  1  0
  2 13  1  0
  2 14  1  0
  6 15  1  0
  6 16  1  0
  6 17  1  0
  7 18  1  0
  7 19  1  0
  7 20  1  0
  8 21  1  0
M  END
