
     RDKit          3D

 21 21  0  0  0  0  0  0  0  0999 V2000
   -3.6876   -0.6695   -0.4867 C   0  0  0  0  0  0  0  0  0  0  0  0
   -3.0402    0.2420    0.5124 C   0  0  0  0  0  0  0  0  0  0  0  0
   -1.6106    0.2922    0.2009 C   0  0  0  0  0  0  0  0  0  0  0  0
   -0.4152    0.3223   -0.0710 C   0  0  0  0  0  0  0  0  0  0  0  0
    1.0117    0.3337   -0.4025 C   0  0  0  0  0  0  0  0  0  0  0  0
    1.3794   -0.1054   -1.6600 O   0  0  0  0  0  0  0  0  0  0  0  0
    1.8418    1.4330    0.2597 C   0  0  0  0  0  0  0  0  0  0  0  0
    1.9537   -0.0038    0.6909 C   0  0  0  0  0  0  0  0  0  0  0  0
    3.2980   -0.6274    0.3711 C   0  0  0  0  0  0  0  0  0  0  0  0
   -4.5852   -1.1847   -0.0935 H   0  0  0  0  0  0  0  0  0  0  0  0
   -3.9940   -0.0460   -1.3670 H   0  0  0  0  0  0  0  0  0  0  0  0
   -2.9302   -1.3898   -0.8421 H   0  0  0  0  0  0  0  0  0  0  0  0
   -3.2010   -0.0792    1.5637 H   0  0  0  0  0  0  0  0  0  0  0  0
   -3.5140    1.2525    0.4117 H   0  0  0  0  0  0  0  0  0  0  0  0
    1.1781   -1.0913   -1.7642 H   0  0  0  0  0  0  0  0  0  0  0  0
    2.5985    1.8858   -0.3894 H   0  0  0  0  0  0  0  0  0  0  0  0
    1.3014    2.0744    1.0078 H   0  0  0  0  0  0  0  0  0  0  0  0
    1.5187   -0.3226    1.6391 H   0  0  0  0  0  0  0  0  0  0  0  0
    3.2065   -1.7225    0.1947 H   0  0  0  0  0  0  0  0  0  0  0  0
    3.6376   -0.1928   -0.5910 H   0  0  0  0  0  0  0  0  0  0  0  0
    4.0528   -0.4008    1.1601 H   0  0  0  0  0  0  0  0  0  0  0  0
  1  2  1  0
  2  3  1  0
  3  4  3  0
  4  5  1  0
  5  6  1  0
  5  7  1  0
  7  8  1  0
  8  9  1  0
  8  5  1  0
  1 10  1  0
  1 11  1  0
  1 12  1  0
  2 13  1  0
  2 14  1  0
  6 15  1  0
  7 16  1  0
  7 17  1  0
  8 18  1  0
  9 19  1  0
  9 20  1  0
  9 21  1  0
M  END
