
     RDKit          3D

 21 20  0  0  0  0  0  0  0  0999 V2000
   -1.9603   -0.3711    2.0848 C   0  0  0  0  0  0  0  0  0  0  0  0
   -2.2196    0.7808    1.1274 C   0  0  0  0  0  0  0  0  0  0  0  0
   -1.2261    0.7696    0.1251 C   0  0  0  0  0  0  0  0  0  0  0  0
   -0.3235    0.7451   -0.8051 C   0  0  0  0  0  0  0  0  0  0  0  0
    0.6705    0.7181   -1.7941 C   0  0  0  0  0  0  0  0  0  0  0  0
    0.0716    0.5388   -3.0981 O   0  0  0  0  0  0  0  0  0  0  0  0
    1.7327   -0.2776   -1.6870 C   0  0  0  0  0  0  0  0  0  0  0  0
    2.4777   -0.4161   -0.5867 O   0  0  0  0  0  0  0  0  0  0  0  0
    1.9711   -0.9355    0.5578 C   0  0  0  0  0  0  0  0  0  0  0  0
   -1.4161   -1.2147    1.5586 H   0  0  0  0  0  0  0  0  0  0  0  0
   -2.9052   -0.7801    2.4961 H   0  0  0  0  0  0  0  0  0  0  0  0
   -1.2831   -0.0312    2.8879 H   0  0  0  0  0  0  0  0  0  0  0  0
   -3.2645    0.7017    0.7622 H   0  0  0  0  0  0  0  0  0  0  0  0
   -2.1928    1.6989    1.7662 H   0  0  0  0  0  0  0  0  0  0  0  0
    1.1588    1.7435   -1.9535 H   0  0  0  0  0  0  0  0  0  0  0  0
   -0.5482    1.3012   -3.2078 H   0  0  0  0  0  0  0  0  0  0  0  0
    1.3182   -1.3142   -1.9278 H   0  0  0  0  0  0  0  0  0  0  0  0
    2.4124   -0.1236   -2.6140 H   0  0  0  0  0  0  0  0  0  0  0  0
    1.1355   -0.4322    1.0432 H   0  0  0  0  0  0  0  0  0  0  0  0
    1.6148   -2.0128    0.3975 H   0  0  0  0  0  0  0  0  0  0  0  0
    2.7760   -1.0886    1.3391 H   0  0  0  0  0  0  0  0  0  0  0  0
  1  2  1  0
  2  3  1  0
  3  4  3  0
  4  5  1  0
  5  6  1  0
  5  7  1  0
  7  8  1  0
  8  9  1  0
  1 10  1  0
  1 11  1  0
  1 12  1  0
  2 13  1  0
  2 14  1  0
  5 15  1  0
  6 16  1  0
  7 17  1  0
  7 18  1  0
  9 19  1  0
  9 20  1  0
  9 21  1  0
M  END
