
     RDKit          3D

 21 21  0  0  0  0  0  0  0  0999 V2000
    3.5193   -0.5581    0.6130 C   0  0  0  0  0  0  0  0  0  0  0  0
    2.5955   -1.3612   -0.2972 C   0  0  0  0  0  0  0  0  0  0  0  0
    1.2427   -0.7642   -0.1986 C   0  0  0  0  0  0  0  0  0  0  0  0
    0.1359   -0.2938   -0.1062 C   0  0  0  0  0  0  0  0  0  0  0  0
   -1.2085    0.3025   -0.0048 C   0  0  0  0  0  0  0  0  0  0  0  0
   -2.3387   -0.4932   -0.6178 C   0  0  0  0  0  0  0  0  0  0  0  0
   -3.5419    0.1526   -0.4665 O   0  0  0  0  0  0  0  0  0  0  0  0
   -1.4387    1.2068    1.1297 C   0  0  0  0  0  0  0  0  0  0  0  0
   -1.3283    1.8103   -0.2066 C   0  0  0  0  0  0  0  0  0  0  0  0
    4.4411   -1.1440    0.7196 H   0  0  0  0  0  0  0  0  0  0  0  0
    3.7817    0.3662    0.0525 H   0  0  0  0  0  0  0  0  0  0  0  0
    3.0637   -0.3755    1.5905 H   0  0  0  0  0  0  0  0  0  0  0  0
    2.8856   -1.2495   -1.3596 H   0  0  0  0  0  0  0  0  0  0  0  0
    2.5914   -2.4242   -0.0299 H   0  0  0  0  0  0  0  0  0  0  0  0
   -2.1218   -0.5483   -1.7092 H   0  0  0  0  0  0  0  0  0  0  0  0
   -2.3684   -1.5329   -0.2503 H   0  0  0  0  0  0  0  0  0  0  0  0
   -4.1969   -0.2725   -1.0549 H   0  0  0  0  0  0  0  0  0  0  0  0
   -2.4418    1.2764    1.6291 H   0  0  0  0  0  0  0  0  0  0  0  0
   -0.6145    1.4145    1.8369 H   0  0  0  0  0  0  0  0  0  0  0  0
   -0.4081    2.2899   -0.5765 H   0  0  0  0  0  0  0  0  0  0  0  0
   -2.2494    2.1981   -0.6931 H   0  0  0  0  0  0  0  0  0  0  0  0
  1  2  1  0
  2  3  1  0
  3  4  3  0
  4  5  1  0
  5  6  1  0
  6  7  1  0
  5  8  1  0
  8  9  1  0
  9  5  1  0
  1 10  1  0
  1 11  1  0
  1 12  1  0
  2 13  1  0
  2 14  1  0
  6 15  1  0
  6 16  1  0
  7 17  1  0
  8 18  1  0
  8 19  1  0
  9 20  1  0
  9 21  1  0
M  END
