
     RDKit          3D

 18 18  0  0  0  0  0  0  0  0999 V2000
    2.3794    0.2171    1.6705 C   0  0  0  0  0  0  0  0  0  0  0  0
    2.3505   -0.5970    0.3954 C   0  0  0  0  0  0  0  0  0  0  0  0
    1.0433   -0.5659   -0.2448 C   0  0  0  0  0  0  0  0  0  0  0  0
   -0.0187   -0.5207   -0.7589 C   0  0  0  0  0  0  0  0  0  0  0  0
   -1.3635   -0.4762   -1.4356 C   0  0  0  0  0  0  0  0  0  0  0  0
   -2.0385    0.8571   -1.2140 C   0  0  0  0  0  0  0  0  0  0  0  0
   -2.4491    0.1690    0.0806 C   0  0  0  0  0  0  0  0  0  0  0  0
   -2.2795   -1.0525   -0.5698 O   0  0  0  0  0  0  0  0  0  0  0  0
    2.1170   -0.4266    2.5618 H   0  0  0  0  0  0  0  0  0  0  0  0
    1.6677    1.0438    1.6379 H   0  0  0  0  0  0  0  0  0  0  0  0
    3.4421    0.5452    1.8143 H   0  0  0  0  0  0  0  0  0  0  0  0
    2.6437   -1.6434    0.5323 H   0  0  0  0  0  0  0  0  0  0  0  0
    3.1219   -0.1210   -0.2845 H   0  0  0  0  0  0  0  0  0  0  0  0
   -1.3693   -0.8832   -2.4483 H   0  0  0  0  0  0  0  0  0  0  0  0
   -2.8333    1.0964   -1.9202 H   0  0  0  0  0  0  0  0  0  0  0  0
   -1.2547    1.6495   -1.0676 H   0  0  0  0  0  0  0  0  0  0  0  0
   -1.6672    0.3317    0.8326 H   0  0  0  0  0  0  0  0  0  0  0  0
   -3.4919    0.3768    0.4183 H   0  0  0  0  0  0  0  0  0  0  0  0
  1  2  1  0
  2  3  1  0
  3  4  3  0
  4  5  1  0
  5  6  1  0
  6  7  1  0
  7  8  1  0
  8  5  1  0
  1  9  1  0
  1 10  1  0
  1 11  1  0
  2 12  1  0
  2 13  1  0
  5 14  1  0
  6 15  1  0
  6 16  1  0
  7 17  1  0
  7 18  1  0
M  END
