
     RDKit          3D

 20 20  0  0  0  0  0  0  0  0999 V2000
    3.7746    0.2745   -0.1527 C   0  0  0  0  0  0  0  0  0  0  0  0
    2.7695   -0.3291    0.8344 C   0  0  0  0  0  0  0  0  0  0  0  0
    1.4059   -0.2655    0.2531 C   0  0  0  0  0  0  0  0  0  0  0  0
    0.3030   -0.2345   -0.2213 C   0  0  0  0  0  0  0  0  0  0  0  0
   -1.0356   -0.2204   -0.8074 C   0  0  0  0  0  0  0  0  0  0  0  0
   -1.9736   -1.2570   -0.3615 C   0  0  0  0  0  0  0  0  0  0  0  0
   -2.1458    0.0961    0.2053 C   0  0  0  0  0  0  0  0  0  0  0  0
   -3.1721    1.0578   -0.3065 C   0  0  0  0  0  0  0  0  0  0  0  0
    3.2761    0.4927   -1.1226 H   0  0  0  0  0  0  0  0  0  0  0  0
    4.2184    1.2002    0.2214 H   0  0  0  0  0  0  0  0  0  0  0  0
    4.5810   -0.4531   -0.3806 H   0  0  0  0  0  0  0  0  0  0  0  0
    3.0182   -1.3784    0.9986 H   0  0  0  0  0  0  0  0  0  0  0  0
    2.7941    0.2981    1.7285 H   0  0  0  0  0  0  0  0  0  0  0  0
   -1.1591    0.1569   -1.8441 H   0  0  0  0  0  0  0  0  0  0  0  0
   -1.7148   -2.0596    0.3454 H   0  0  0  0  0  0  0  0  0  0  0  0
   -2.7827   -1.5655   -1.0820 H   0  0  0  0  0  0  0  0  0  0  0  0
   -1.8493    0.2619    1.2619 H   0  0  0  0  0  0  0  0  0  0  0  0
   -3.4852    0.8052   -1.3487 H   0  0  0  0  0  0  0  0  0  0  0  0
   -4.1065    1.0564    0.2989 H   0  0  0  0  0  0  0  0  0  0  0  0
   -2.7160    2.0634   -0.3453 H   0  0  0  0  0  0  0  0  0  0  0  0
  1  2  1  0
  2  3  1  0
  3  4  3  0
  4  5  1  0
  5  6  1  0
  6  7  1  0
  7  8  1  0
  7  5  1  0
  1  9  1  0
  1 10  1  0
  1 11  1  0
  2 12  1  0
  2 13  1  0
  5 14  1  0
  6 15  1  0
  6 16  1  0
  7 17  1  0
  8 18  1  0
  8 19  1  0
  8 20  1  0
M  END
