
     RDKit          3D

 14 13  0  0  0  0  0  0  0  0999 V2000
   -2.1155   -0.7797   -1.9469 C   0  0  0  0  0  0  0  0  0  0  0  0
   -2.0875   -0.6392   -0.4760 C   0  0  0  0  0  0  0  0  0  0  0  0
   -0.8597   -0.2237    0.0580 C   0  0  0  0  0  0  0  0  0  0  0  0
    0.2440    0.1676    0.5350 C   0  0  0  0  0  0  0  0  0  0  0  0
    1.5056    0.5984    1.0588 C   0  0  0  0  0  0  0  0  0  0  0  0
    2.6062    0.9681    1.5108 C   0  0  0  0  0  0  0  0  0  0  0  0
    3.8080    1.3498    1.9973 C   0  0  0  0  0  0  0  0  0  0  0  0
    3.8927    1.4984    3.3202 O   0  0  0  0  0  0  0  0  0  0  0  0
   -1.8390   -1.8805   -2.1721 H   0  0  0  0  0  0  0  0  0  0  0  0
   -3.1918   -0.6909   -2.3100 H   0  0  0  0  0  0  0  0  0  0  0  0
   -1.4190   -0.1629   -2.5335 H   0  0  0  0  0  0  0  0  0  0  0  0
   -2.9787   -0.0716   -0.0817 H   0  0  0  0  0  0  0  0  0  0  0  0
   -2.3220   -1.7106   -0.0266 H   0  0  0  0  0  0  0  0  0  0  0  0
    4.7567    1.5768    1.5039 H   0  0  0  0  0  0  0  0  0  0  0  0
  1  2  1  0
  2  3  1  0
  3  4  3  0
  4  5  1  0
  5  6  3  0
  6  7  1  0
  7  8  2  0
  1  9  1  0
  1 10  1  0
  1 11  1  0
  2 12  1  0
  2 13  1  0
  7 14  1  0
M  END
