
     RDKit          3D

 21 21  0  0  0  0  0  0  0  0999 V2000
    3.1682    1.2478   -2.1348 C   0  0  0  0  0  0  0  0  0  0  0  0
    2.6265    1.3112   -0.7180 C   0  0  0  0  0  0  0  0  0  0  0  0
    1.6314    0.4963   -0.4911 C   0  0  0  0  0  0  0  0  0  0  0  0
    0.6769   -0.2931   -0.2534 C   0  0  0  0  0  0  0  0  0  0  0  0
   -0.4601   -1.2334    0.0553 C   0  0  0  0  0  0  0  0  0  0  0  0
   -1.3843   -0.4241    1.0277 C   0  0  0  0  0  0  0  0  0  0  0  0
   -2.4861   -1.2537    1.5848 C   0  0  0  0  0  0  0  0  0  0  0  0
   -3.4156   -0.5313    2.5189 C   0  0  0  0  0  0  0  0  0  0  0  0
   -2.3713   -1.3523    2.9876 O   0  0  0  0  0  0  0  0  0  0  0  0
    4.1386    0.7005   -2.1003 H   0  0  0  0  0  0  0  0  0  0  0  0
    3.5167    2.3207   -2.4042 H   0  0  0  0  0  0  0  0  0  0  0  0
    2.4918    0.8368   -2.8682 H   0  0  0  0  0  0  0  0  0  0  0  0
    3.5559    1.2667   -0.0586 H   0  0  0  0  0  0  0  0  0  0  0  0
    2.3423    2.4481   -0.6320 H   0  0  0  0  0  0  0  0  0  0  0  0
   -0.0444   -2.1222    0.5710 H   0  0  0  0  0  0  0  0  0  0  0  0
   -1.0370   -1.4593   -0.8214 H   0  0  0  0  0  0  0  0  0  0  0  0
   -0.7545    0.0673    1.7573 H   0  0  0  0  0  0  0  0  0  0  0  0
   -1.7609    0.3807    0.3557 H   0  0  0  0  0  0  0  0  0  0  0  0
   -2.8233   -2.0806    1.0231 H   0  0  0  0  0  0  0  0  0  0  0  0
   -3.2139    0.5765    2.6035 H   0  0  0  0  0  0  0  0  0  0  0  0
   -4.3970   -0.9029    2.7946 H   0  0  0  0  0  0  0  0  0  0  0  0
  1  2  1  0
  2  3  1  0
  3  4  3  0
  4  5  1  0
  5  6  1  0
  6  7  1  0
  7  8  1  0
  8  9  1  0
  9  7  1  0
  1 10  1  0
  1 11  1  0
  1 12  1  0
  2 13  1  0
  2 14  1  0
  5 15  1  0
  5 16  1  0
  6 17  1  0
  6 18  1  0
  7 19  1  0
  8 20  1  0
  8 21  1  0
M  END
