
     RDKit          3D

 18 18  0  0  0  0  0  0  0  0999 V2000
    2.0060    2.2967    0.0648 C   0  0  0  0  0  0  0  0  0  0  0  0
    2.2902    0.9487    0.6671 C   0  0  0  0  0  0  0  0  0  0  0  0
    1.1190    0.1028    0.4011 C   0  0  0  0  0  0  0  0  0  0  0  0
    0.1494   -0.6107    0.1771 C   0  0  0  0  0  0  0  0  0  0  0  0
   -1.0057   -1.4296   -0.0861 C   0  0  0  0  0  0  0  0  0  0  0  0
   -2.2571   -0.6202   -0.1524 C   0  0  0  0  0  0  0  0  0  0  0  0
   -2.9343   -1.7207    0.4257 O   0  0  0  0  0  0  0  0  0  0  0  0
   -1.7432   -1.9320    1.1585 C   0  0  0  0  0  0  0  0  0  0  0  0
    0.9949    2.3519   -0.4110 H   0  0  0  0  0  0  0  0  0  0  0  0
    2.7847    2.5217   -0.7098 H   0  0  0  0  0  0  0  0  0  0  0  0
    2.0323    3.0672    0.8466 H   0  0  0  0  0  0  0  0  0  0  0  0
    2.4458    1.0465    1.7599 H   0  0  0  0  0  0  0  0  0  0  0  0
    3.2215    0.5122    0.2345 H   0  0  0  0  0  0  0  0  0  0  0  0
   -0.9088   -2.1840   -0.8827 H   0  0  0  0  0  0  0  0  0  0  0  0
   -2.2878    0.2309    0.5282 H   0  0  0  0  0  0  0  0  0  0  0  0
   -2.6789   -0.4272   -1.1612 H   0  0  0  0  0  0  0  0  0  0  0  0
   -1.6842   -1.1817    1.9428 H   0  0  0  0  0  0  0  0  0  0  0  0
   -1.5438   -2.9724    1.4177 H   0  0  0  0  0  0  0  0  0  0  0  0
  1  2  1  0
  2  3  1  0
  3  4  3  0
  4  5  1  0
  5  6  1  0
  6  7  1  0
  7  8  1  0
  8  5  1  0
  1  9  1  0
  1 10  1  0
  1 11  1  0
  2 12  1  0
  2 13  1  0
  5 14  1  0
  6 15  1  0
  6 16  1  0
  8 17  1  0
  8 18  1  0
M  END
