
     RDKit          3D

 23 22  0  0  0  0  0  0  0  0999 V2000
    3.3357   -0.4810    0.1931 C   0  0  0  0  0  0  0  0  0  0  0  0
    2.6834    0.8494    0.3137 C   0  0  0  0  0  0  0  0  0  0  0  0
    1.2460    0.6625    0.0930 C   0  0  0  0  0  0  0  0  0  0  0  0
    0.0575    0.4955   -0.0923 C   0  0  0  0  0  0  0  0  0  0  0  0
   -1.3750    0.2843   -0.3399 C   0  0  0  0  0  0  0  0  0  0  0  0
   -1.9416    1.3949   -1.2202 C   0  0  0  0  0  0  0  0  0  0  0  0
   -2.1006    0.2832    1.0110 C   0  0  0  0  0  0  0  0  0  0  0  0
   -1.5200   -0.8949   -1.0150 O   0  0  0  0  0  0  0  0  0  0  0  0
   -1.0510   -2.0064   -0.3595 C   0  0  0  0  0  0  0  0  0  0  0  0
    2.6254   -1.2558    0.5375 H   0  0  0  0  0  0  0  0  0  0  0  0
    4.2851   -0.4723    0.7829 H   0  0  0  0  0  0  0  0  0  0  0  0
    3.5936   -0.6459   -0.8777 H   0  0  0  0  0  0  0  0  0  0  0  0
    3.0838    1.6031   -0.4193 H   0  0  0  0  0  0  0  0  0  0  0  0
    2.8836    1.3098    1.3196 H   0  0  0  0  0  0  0  0  0  0  0  0
   -2.8114    1.0439   -1.8060 H   0  0  0  0  0  0  0  0  0  0  0  0
   -2.3423    2.1621   -0.5050 H   0  0  0  0  0  0  0  0  0  0  0  0
   -1.1727    1.8754   -1.8349 H   0  0  0  0  0  0  0  0  0  0  0  0
   -2.4331    1.3200    1.2320 H   0  0  0  0  0  0  0  0  0  0  0  0
   -2.9425   -0.4410    1.0150 H   0  0  0  0  0  0  0  0  0  0  0  0
   -1.3569   -0.0440    1.7747 H   0  0  0  0  0  0  0  0  0  0  0  0
   -1.2347   -2.8860   -1.0240 H   0  0  0  0  0  0  0  0  0  0  0  0
   -1.5494   -2.2243    0.5990 H   0  0  0  0  0  0  0  0  0  0  0  0
    0.0372   -1.9325   -0.1653 H   0  0  0  0  0  0  0  0  0  0  0  0
  1  2  1  0
  2  3  1  0
  3  4  3  0
  4  5  1  0
  5  6  1  0
  5  7  1  0
  5  8  1  0
  8  9  1  0
  1 10  1  0
  1 11  1  0
  1 12  1  0
  2 13  1  0
  2 14  1  0
  6 15  1  0
  6 16  1  0
  6 17  1  0
  7 18  1  0
  7 19  1  0
  7 20  1  0
  9 21  1  0
  9 22  1  0
  9 23  1  0
M  END
