
     RDKit          3D

 23 23  0  0  0  0  0  0  0  0999 V2000
   -2.0442   -1.0246    0.6143 C   0  0  0  0  0  0  0  0  0  0  0  0
   -0.6313   -1.0120    0.0659 C   0  0  0  0  0  0  0  0  0  0  0  0
   -0.1246    0.4048    0.1192 C   0  0  0  0  0  0  0  0  0  0  0  0
   -0.9630    1.1991   -0.6589 O   0  0  0  0  0  0  0  0  0  0  0  0
   -1.6452    2.1349    0.1204 C   0  0  0  0  0  0  0  0  0  0  0  0
    1.2860    0.5497   -0.3604 C   0  0  0  0  0  0  0  0  0  0  0  0
    2.3069   -0.2409    0.4137 C   0  0  0  0  0  0  0  0  0  0  0  0
    2.0173   -0.4704   -1.0851 C   0  0  0  0  0  0  0  0  0  0  0  0
    1.5581   -1.7357   -1.3565 O   0  0  0  0  0  0  0  0  0  0  0  0
   -2.7551   -0.4990   -0.0192 H   0  0  0  0  0  0  0  0  0  0  0  0
   -2.4203   -2.0826    0.7228 H   0  0  0  0  0  0  0  0  0  0  0  0
   -2.1057   -0.5905    1.6347 H   0  0  0  0  0  0  0  0  0  0  0  0
   -0.7088   -1.2906   -1.0043 H   0  0  0  0  0  0  0  0  0  0  0  0
    0.0013   -1.6931    0.6338 H   0  0  0  0  0  0  0  0  0  0  0  0
   -0.2341    0.7450    1.1721 H   0  0  0  0  0  0  0  0  0  0  0  0
   -2.2731    1.6838    0.8866 H   0  0  0  0  0  0  0  0  0  0  0  0
   -0.9522    2.8532    0.6098 H   0  0  0  0  0  0  0  0  0  0  0  0
   -2.2995    2.7303   -0.5474 H   0  0  0  0  0  0  0  0  0  0  0  0
    1.5805    1.6145   -0.5454 H   0  0  0  0  0  0  0  0  0  0  0  0
    1.9414   -0.9896    1.1293 H   0  0  0  0  0  0  0  0  0  0  0  0
    3.2854    0.1924    0.6373 H   0  0  0  0  0  0  0  0  0  0  0  0
    2.8277   -0.1372   -1.7932 H   0  0  0  0  0  0  0  0  0  0  0  0
    2.3526   -2.3416   -1.3895 H   0  0  0  0  0  0  0  0  0  0  0  0
  1  2  1  0
  2  3  1  0
  3  4  1  0
  4  5  1  0
  3  6  1  0
  6  7  1  0
  7  8  1  0
  8  9  1  0
  8  6  1  0
  1 10  1  0
  1 11  1  0
  1 12  1  0
  2 13  1  0
  2 14  1  0
  3 15  1  0
  5 16  1  0
  5 17  1  0
  5 18  1  0
  6 19  1  0
  7 20  1  0
  7 21  1  0
  8 22  1  0
  9 23  1  0
M  END
