
     RDKit          3D

 19 19  0  0  0  0  0  0  0  0999 V2000
   -2.1544    0.2199    0.8665 C   0  0  0  0  0  0  0  0  0  0  0  0
   -1.7852   -0.9441    0.0334 C   0  0  0  0  0  0  0  0  0  0  0  0
   -0.4924   -0.8765   -0.6393 C   0  0  0  0  0  0  0  0  0  0  0  0
   -0.1731   -1.8303   -1.3325 O   0  0  0  0  0  0  0  0  0  0  0  0
    0.4746    0.2398   -0.5640 C   0  0  0  0  0  0  0  0  0  0  0  0
    1.0473    0.2248    0.8579 C   0  0  0  0  0  0  0  0  0  0  0  0
    2.3972   -0.1037    0.6833 O   0  0  0  0  0  0  0  0  0  0  0  0
    2.6426    0.5411   -0.5410 C   0  0  0  0  0  0  0  0  0  0  0  0
    1.6186    0.0020   -1.3217 O   0  0  0  0  0  0  0  0  0  0  0  0
   -2.6689   -0.0520    1.8326 H   0  0  0  0  0  0  0  0  0  0  0  0
   -1.3624    0.9261    1.1021 H   0  0  0  0  0  0  0  0  0  0  0  0
   -2.9410    0.8061    0.3063 H   0  0  0  0  0  0  0  0  0  0  0  0
   -1.7617   -1.8498    0.7105 H   0  0  0  0  0  0  0  0  0  0  0  0
   -2.5750   -1.2124   -0.7287 H   0  0  0  0  0  0  0  0  0  0  0  0
    0.0582    1.2121   -0.8119 H   0  0  0  0  0  0  0  0  0  0  0  0
    0.5329   -0.4898    1.5053 H   0  0  0  0  0  0  0  0  0  0  0  0
    1.0163    1.2639    1.2660 H   0  0  0  0  0  0  0  0  0  0  0  0
    2.4992    1.6284   -0.3489 H   0  0  0  0  0  0  0  0  0  0  0  0
    3.6274    0.2944   -0.9594 H   0  0  0  0  0  0  0  0  0  0  0  0
  1  2  1  0
  2  3  1  0
  3  4  2  0
  3  5  1  0
  5  6  1  0
  6  7  1  0
  7  8  1  0
  8  9  1  0
  9  5  1  0
  1 10  1  0
  1 11  1  0
  1 12  1  0
  2 13  1  0
  2 14  1  0
  5 15  1  0
  6 16  1  0
  6 17  1  0
  8 18  1  0
  8 19  1  0
M  END
