
     RDKit          3D

 19 19  0  0  0  0  0  0  0  0999 V2000
    2.8055    0.2799   -0.7126 C   0  0  0  0  0  0  0  0  0  0  0  0
    1.6822    0.0915    0.2827 C   0  0  0  0  0  0  0  0  0  0  0  0
    0.5460   -0.5543   -0.4203 C   0  0  0  0  0  0  0  0  0  0  0  0
    0.6050   -0.8465   -1.6082 O   0  0  0  0  0  0  0  0  0  0  0  0
   -0.7355   -0.8853    0.2804 C   0  0  0  0  0  0  0  0  0  0  0  0
   -1.6905   -1.4871   -0.5327 O   0  0  0  0  0  0  0  0  0  0  0  0
   -2.5408   -0.3936   -0.5495 C   0  0  0  0  0  0  0  0  0  0  0  0
   -1.5961    0.3612    0.3657 C   0  0  0  0  0  0  0  0  0  0  0  0
   -1.0731    1.4746   -0.2893 O   0  0  0  0  0  0  0  0  0  0  0  0
    2.7132   -0.5294   -1.4693 H   0  0  0  0  0  0  0  0  0  0  0  0
    3.8005    0.2901   -0.2281 H   0  0  0  0  0  0  0  0  0  0  0  0
    2.6216    1.2428   -1.2355 H   0  0  0  0  0  0  0  0  0  0  0  0
    1.3977    1.0714    0.7128 H   0  0  0  0  0  0  0  0  0  0  0  0
    2.0054   -0.5885    1.0896 H   0  0  0  0  0  0  0  0  0  0  0  0
   -0.5961   -1.3923    1.2678 H   0  0  0  0  0  0  0  0  0  0  0  0
   -2.6189    0.0113   -1.5812 H   0  0  0  0  0  0  0  0  0  0  0  0
   -3.5113   -0.5072   -0.0659 H   0  0  0  0  0  0  0  0  0  0  0  0
   -1.9974    0.5509    1.3823 H   0  0  0  0  0  0  0  0  0  0  0  0
   -1.8176    1.8105   -0.8826 H   0  0  0  0  0  0  0  0  0  0  0  0
  1  2  1  0
  2  3  1  0
  3  4  2  0
  3  5  1  0
  5  6  1  0
  6  7  1  0
  7  8  1  0
  8  9  1  0
  8  5  1  0
  1 10  1  0
  1 11  1  0
  1 12  1  0
  2 13  1  0
  2 14  1  0
  5 15  1  0
  7 16  1  0
  7 17  1  0
  8 18  1  0
  9 19  1  0
M  END
