
     RDKit          3D

 13 12  0  0  0  0  0  0  0  0999 V2000
   -1.6658    0.4154   -0.1339 C   0  0  0  0  0  0  0  0  0  0  0  0
   -0.6384   -0.5537    0.4495 C   0  0  0  0  0  0  0  0  0  0  0  0
    0.6026   -0.4966   -0.3219 C   0  0  0  0  0  0  0  0  0  0  0  0
    1.8214    0.2825    0.0433 C   0  0  0  0  0  0  0  0  0  0  0  0
    0.6609   -1.1365   -1.3595 O   0  0  0  0  0  0  0  0  0  0  0  0
   -1.1133    1.2454   -0.6391 H   0  0  0  0  0  0  0  0  0  0  0  0
   -2.3141   -0.0744   -0.8933 H   0  0  0  0  0  0  0  0  0  0  0  0
   -2.2186    0.8659    0.7015 H   0  0  0  0  0  0  0  0  0  0  0  0
   -1.0889   -1.5741    0.3256 H   0  0  0  0  0  0  0  0  0  0  0  0
   -0.5154   -0.4054    1.5328 H   0  0  0  0  0  0  0  0  0  0  0  0
    2.6959   -0.3728   -0.1584 H   0  0  0  0  0  0  0  0  0  0  0  0
    1.8092    0.6299    1.0948 H   0  0  0  0  0  0  0  0  0  0  0  0
    1.9644    1.1744   -0.6413 H   0  0  0  0  0  0  0  0  0  0  0  0
  1  2  1  0
  2  3  1  0
  3  4  1  0
  3  5  2  0
  1  6  1  0
  1  7  1  0
  1  8  1  0
  2  9  1  0
  2 10  1  0
  4 11  1  0
  4 12  1  0
  4 13  1  0
M  END
