
     RDKit          3D

 21 20  0  0  0  0  0  0  0  0999 V2000
    2.6853    0.8862   -0.2810 C   0  0  0  0  0  0  0  0  0  0  0  0
    3.0556   -0.4767    0.1823 C   0  0  0  0  0  0  0  0  0  0  0  0
    1.8897   -1.3866    0.3246 C   0  0  0  0  0  0  0  0  0  0  0  0
    2.1435   -2.5635    0.7175 O   0  0  0  0  0  0  0  0  0  0  0  0
    0.5530   -0.9421    0.0293 C   0  0  0  0  0  0  0  0  0  0  0  0
   -0.5643   -0.5631   -0.2303 C   0  0  0  0  0  0  0  0  0  0  0  0
   -1.9392   -0.1008   -0.5235 C   0  0  0  0  0  0  0  0  0  0  0  0
   -2.0418    1.3872   -0.3615 C   0  0  0  0  0  0  0  0  0  0  0  0
   -2.9488   -0.7455    0.4038 C   0  0  0  0  0  0  0  0  0  0  0  0
    1.6476    1.1773   -0.0635 H   0  0  0  0  0  0  0  0  0  0  0  0
    3.3883    1.6671    0.1128 H   0  0  0  0  0  0  0  0  0  0  0  0
    2.8062    0.9174   -1.3915 H   0  0  0  0  0  0  0  0  0  0  0  0
    3.5245   -0.4228    1.2066 H   0  0  0  0  0  0  0  0  0  0  0  0
    3.8260   -0.9516   -0.4728 H   0  0  0  0  0  0  0  0  0  0  0  0
   -2.1711   -0.3596   -1.5813 H   0  0  0  0  0  0  0  0  0  0  0  0
   -1.8161    1.9488   -1.2981 H   0  0  0  0  0  0  0  0  0  0  0  0
   -1.4589    1.7678    0.4993 H   0  0  0  0  0  0  0  0  0  0  0  0
   -3.1158    1.6088   -0.1378 H   0  0  0  0  0  0  0  0  0  0  0  0
   -3.5405   -1.4790   -0.1839 H   0  0  0  0  0  0  0  0  0  0  0  0
   -2.3589   -1.3730    1.1310 H   0  0  0  0  0  0  0  0  0  0  0  0
   -3.5643    0.0036    0.9073 H   0  0  0  0  0  0  0  0  0  0  0  0
  1  2  1  0
  2  3  1  0
  3  4  2  0
  3  5  1  0
  5  6  3  0
  6  7  1  0
  7  8  1  0
  7  9  1  0
  1 10  1  0
  1 11  1  0
  1 12  1  0
  2 13  1  0
  2 14  1  0
  7 15  1  0
  8 16  1  0
  8 17  1  0
  8 18  1  0
  9 19  1  0
  9 20  1  0
  9 21  1  0
M  END
