
     RDKit          3D

 19 18  0  0  0  0  0  0  0  0999 V2000
   -2.5727    0.0587   -0.5043 C   0  0  0  0  0  0  0  0  0  0  0  0
   -1.4881   -0.6447    0.2454 C   0  0  0  0  0  0  0  0  0  0  0  0
   -0.1008   -0.2328   -0.2279 C   0  0  0  0  0  0  0  0  0  0  0  0
    0.1132    1.1165   -0.0662 O   0  0  0  0  0  0  0  0  0  0  0  0
    0.9499   -1.0140    0.5128 C   0  0  0  0  0  0  0  0  0  0  0  0
    2.2128   -0.8142    0.0944 O   0  0  0  0  0  0  0  0  0  0  0  0
    2.7825    0.4085    0.1408 C   0  0  0  0  0  0  0  0  0  0  0  0
   -2.3708    0.0659   -1.5871 H   0  0  0  0  0  0  0  0  0  0  0  0
   -2.7786    1.0720   -0.1489 H   0  0  0  0  0  0  0  0  0  0  0  0
   -3.5092   -0.5492   -0.3754 H   0  0  0  0  0  0  0  0  0  0  0  0
   -1.5906   -1.7412    0.0332 H   0  0  0  0  0  0  0  0  0  0  0  0
   -1.5907   -0.4789    1.3382 H   0  0  0  0  0  0  0  0  0  0  0  0
   -0.0475   -0.4989   -1.3254 H   0  0  0  0  0  0  0  0  0  0  0  0
   -0.6026    1.6492   -0.4656 H   0  0  0  0  0  0  0  0  0  0  0  0
    0.8107   -0.9378    1.6216 H   0  0  0  0  0  0  0  0  0  0  0  0
    0.6942   -2.1025    0.2979 H   0  0  0  0  0  0  0  0  0  0  0  0
    2.3176    1.2109   -0.4572 H   0  0  0  0  0  0  0  0  0  0  0  0
    3.8223    0.3090   -0.3016 H   0  0  0  0  0  0  0  0  0  0  0  0
    2.9484    0.7992    1.1754 H   0  0  0  0  0  0  0  0  0  0  0  0
  1  2  1  0
  2  3  1  0
  3  4  1  0
  3  5  1  0
  5  6  1  0
  6  7  1  0
  1  8  1  0
  1  9  1  0
  1 10  1  0
  2 11  1  0
  2 12  1  0
  3 13  1  0
  4 14  1  0
  5 15  1  0
  5 16  1  0
  7 17  1  0
  7 18  1  0
  7 19  1  0
M  END
