
     RDKit          3D

 21 21  0  0  0  0  0  0  0  0999 V2000
    2.4376   -0.0186    0.7304 C   0  0  0  0  0  0  0  0  0  0  0  0
    1.3064   -0.4268   -0.1597 C   0  0  0  0  0  0  0  0  0  0  0  0
    0.0818    0.4610    0.0454 C   0  0  0  0  0  0  0  0  0  0  0  0
    0.4284    1.8595   -0.2585 C   0  0  0  0  0  0  0  0  0  0  0  0
    1.3278    2.0421   -1.0666 O   0  0  0  0  0  0  0  0  0  0  0  0
   -1.0300   -0.0984   -0.7691 C   0  0  0  0  0  0  0  0  0  0  0  0
   -1.3491   -1.5142   -0.3379 C   0  0  0  0  0  0  0  0  0  0  0  0
   -2.7059   -1.2219   -0.3512 O   0  0  0  0  0  0  0  0  0  0  0  0
   -2.4261    0.1550   -0.3596 C   0  0  0  0  0  0  0  0  0  0  0  0
    2.3149    1.0653    0.9956 H   0  0  0  0  0  0  0  0  0  0  0  0
    3.3943   -0.2236    0.2215 H   0  0  0  0  0  0  0  0  0  0  0  0
    2.3898   -0.6067    1.6699 H   0  0  0  0  0  0  0  0  0  0  0  0
    1.5653   -0.3894   -1.2380 H   0  0  0  0  0  0  0  0  0  0  0  0
    1.0350   -1.4742    0.0866 H   0  0  0  0  0  0  0  0  0  0  0  0
   -0.1501    0.4039    1.1293 H   0  0  0  0  0  0  0  0  0  0  0  0
   -0.0293    2.7315    0.1582 H   0  0  0  0  0  0  0  0  0  0  0  0
   -0.8786    0.0228   -1.8613 H   0  0  0  0  0  0  0  0  0  0  0  0
   -1.0182   -2.2527   -1.0964 H   0  0  0  0  0  0  0  0  0  0  0  0
   -1.0114   -1.7456    0.6930 H   0  0  0  0  0  0  0  0  0  0  0  0
   -2.6129    0.6026    0.6290 H   0  0  0  0  0  0  0  0  0  0  0  0
   -3.0695    0.6284   -1.1320 H   0  0  0  0  0  0  0  0  0  0  0  0
  1  2  1  0
  2  3  1  0
  3  4  1  0
  4  5  2  0
  3  6  1  0
  6  7  1  0
  7  8  1  0
  8  9  1  0
  9  6  1  0
  1 10  1  0
  1 11  1  0
  1 12  1  0
  2 13  1  0
  2 14  1  0
  3 15  1  0
  4 16  1  0
  6 17  1  0
  7 18  1  0
  7 19  1  0
  9 20  1  0
  9 21  1  0
M  END
