
     RDKit          3D

 25 25  0  0  0  0  0  0  0  0999 V2000
   -2.6052   -0.9156    0.6967 C   0  0  0  0  0  0  0  0  0  0  0  0
   -1.0979   -1.0203    0.6555 C   0  0  0  0  0  0  0  0  0  0  0  0
   -0.4754    0.0529   -0.2004 C   0  0  0  0  0  0  0  0  0  0  0  0
   -1.0061   -0.0848   -1.6127 C   0  0  0  0  0  0  0  0  0  0  0  0
   -0.8241    1.3932    0.3993 C   0  0  0  0  0  0  0  0  0  0  0  0
    1.0064   -0.1783   -0.2675 C   0  0  0  0  0  0  0  0  0  0  0  0
    1.6128    0.8859   -1.1145 O   0  0  0  0  0  0  0  0  0  0  0  0
    2.0129    0.6351    0.2731 C   0  0  0  0  0  0  0  0  0  0  0  0
    3.4380    0.1269    0.2922 C   0  0  0  0  0  0  0  0  0  0  0  0
   -2.9436   -1.7110    1.4214 H   0  0  0  0  0  0  0  0  0  0  0  0
   -2.9668    0.0336    1.1126 H   0  0  0  0  0  0  0  0  0  0  0  0
   -3.0818   -1.1930   -0.2677 H   0  0  0  0  0  0  0  0  0  0  0  0
   -0.8631   -2.0261    0.2238 H   0  0  0  0  0  0  0  0  0  0  0  0
   -0.7398   -1.0157    1.6898 H   0  0  0  0  0  0  0  0  0  0  0  0
   -0.5804   -1.0484   -2.0039 H   0  0  0  0  0  0  0  0  0  0  0  0
   -2.1074   -0.0654   -1.6609 H   0  0  0  0  0  0  0  0  0  0  0  0
   -0.5349    0.7209   -2.2065 H   0  0  0  0  0  0  0  0  0  0  0  0
   -0.6422    1.3314    1.4863 H   0  0  0  0  0  0  0  0  0  0  0  0
   -0.2058    2.2134   -0.0176 H   0  0  0  0  0  0  0  0  0  0  0  0
   -1.9086    1.5563    0.2628 H   0  0  0  0  0  0  0  0  0  0  0  0
    1.2716   -1.1378   -0.7743 H   0  0  0  0  0  0  0  0  0  0  0  0
    1.8519    1.5437    0.8558 H   0  0  0  0  0  0  0  0  0  0  0  0
    3.7925   -0.0270    1.3225 H   0  0  0  0  0  0  0  0  0  0  0  0
    3.4792   -0.8713   -0.2313 H   0  0  0  0  0  0  0  0  0  0  0  0
    4.1179    0.8014   -0.2804 H   0  0  0  0  0  0  0  0  0  0  0  0
  1  2  1  0
  2  3  1  0
  3  4  1  0
  3  5  1  0
  3  6  1  0
  6  7  1  0
  7  8  1  0
  8  9  1  0
  8  6  1  0
  1 10  1  0
  1 11  1  0
  1 12  1  0
  2 13  1  0
  2 14  1  0
  4 15  1  0
  4 16  1  0
  4 17  1  0
  5 18  1  0
  5 19  1  0
  5 20  1  0
  6 21  1  0
  8 22  1  0
  9 23  1  0
  9 24  1  0
  9 25  1  0
M  END
