
     RDKit          3D

 21 21  0  0  0  0  0  0  0  0999 V2000
    2.5399    0.7173    0.2703 C   0  0  0  0  0  0  0  0  0  0  0  0
    1.0301    0.6781    0.2282 C   0  0  0  0  0  0  0  0  0  0  0  0
    0.5425   -0.7362    0.0663 C   0  0  0  0  0  0  0  0  0  0  0  0
    1.0646   -1.2252   -1.1310 O   0  0  0  0  0  0  0  0  0  0  0  0
   -0.9480   -0.8456    0.0092 C   0  0  0  0  0  0  0  0  0  0  0  0
   -1.6611   -0.1362   -1.0702 C   0  0  0  0  0  0  0  0  0  0  0  0
   -2.0591    0.9110   -0.1078 C   0  0  0  0  0  0  0  0  0  0  0  0
   -2.4848    2.0314   -0.2146 O   0  0  0  0  0  0  0  0  0  0  0  0
   -1.7152    0.0060    1.0045 C   0  0  0  0  0  0  0  0  0  0  0  0
    2.9194    1.6673    0.7009 H   0  0  0  0  0  0  0  0  0  0  0  0
    2.9856    0.6329   -0.7463 H   0  0  0  0  0  0  0  0  0  0  0  0
    2.9121   -0.1667    0.8434 H   0  0  0  0  0  0  0  0  0  0  0  0
    0.6637    1.1720    1.1472 H   0  0  0  0  0  0  0  0  0  0  0  0
    0.7179    1.2704   -0.6753 H   0  0  0  0  0  0  0  0  0  0  0  0
    0.9653   -1.3417    0.8900 H   0  0  0  0  0  0  0  0  0  0  0  0
    1.1812   -2.2045   -1.1262 H   0  0  0  0  0  0  0  0  0  0  0  0
   -1.2616   -1.9144    0.0845 H   0  0  0  0  0  0  0  0  0  0  0  0
   -1.0758    0.2545   -1.9187 H   0  0  0  0  0  0  0  0  0  0  0  0
   -2.5541   -0.6874   -1.4385 H   0  0  0  0  0  0  0  0  0  0  0  0
   -1.1149    0.4398    1.8209 H   0  0  0  0  0  0  0  0  0  0  0  0
   -2.6478   -0.5225    1.3632 H   0  0  0  0  0  0  0  0  0  0  0  0
  1  2  1  0
  2  3  1  0
  3  4  1  0
  3  5  1  0
  5  6  1  0
  6  7  1  0
  7  8  2  0
  7  9  1  0
  9  5  1  0
  1 10  1  0
  1 11  1  0
  1 12  1  0
  2 13  1  0
  2 14  1  0
  3 15  1  0
  4 16  1  0
  5 17  1  0
  6 18  1  0
  6 19  1  0
  9 20  1  0
  9 21  1  0
M  END
