
     RDKit          3D

 21 20  0  0  0  0  0  0  0  0999 V2000
    1.6341   -0.5641    1.6305 C   0  0  0  0  0  0  0  0  0  0  0  0
    0.9220   -0.7678    0.3039 C   0  0  0  0  0  0  0  0  0  0  0  0
    0.0568    0.3890   -0.0622 C   0  0  0  0  0  0  0  0  0  0  0  0
   -0.6180    0.1446   -1.3853 C   0  0  0  0  0  0  0  0  0  0  0  0
   -1.4954   -1.0802   -1.3708 C   0  0  0  0  0  0  0  0  0  0  0  0
   -2.5004   -0.9662   -0.3964 O   0  0  0  0  0  0  0  0  0  0  0  0
    0.7461    1.6207   -0.0745 O   0  0  0  0  0  0  0  0  0  0  0  0
    0.3876    2.6322    0.8012 C   0  0  0  0  0  0  0  0  0  0  0  0
   -0.5625    2.3947    1.5865 O   0  0  0  0  0  0  0  0  0  0  0  0
    2.4742   -1.2913    1.6485 H   0  0  0  0  0  0  0  0  0  0  0  0
    2.0817    0.4504    1.6894 H   0  0  0  0  0  0  0  0  0  0  0  0
    0.9907   -0.7911    2.4959 H   0  0  0  0  0  0  0  0  0  0  0  0
    1.6722   -0.9467   -0.4612 H   0  0  0  0  0  0  0  0  0  0  0  0
    0.3121   -1.6926    0.4272 H   0  0  0  0  0  0  0  0  0  0  0  0
   -0.7477    0.4349    0.7326 H   0  0  0  0  0  0  0  0  0  0  0  0
   -1.3116    1.0072   -1.6144 H   0  0  0  0  0  0  0  0  0  0  0  0
    0.1040    0.0673   -2.2224 H   0  0  0  0  0  0  0  0  0  0  0  0
   -1.9533   -1.1754   -2.3873 H   0  0  0  0  0  0  0  0  0  0  0  0
   -0.8449   -1.9489   -1.1640 H   0  0  0  0  0  0  0  0  0  0  0  0
   -2.2485   -1.5167    0.3923 H   0  0  0  0  0  0  0  0  0  0  0  0
    0.9006    3.6000    0.8190 H   0  0  0  0  0  0  0  0  0  0  0  0
  1  2  1  0
  2  3  1  0
  3  4  1  0
  4  5  1  0
  5  6  1  0
  3  7  1  0
  7  8  1  0
  8  9  2  0
  1 10  1  0
  1 11  1  0
  1 12  1  0
  2 13  1  0
  2 14  1  0
  3 15  1  0
  4 16  1  0
  4 17  1  0
  5 18  1  0
  5 19  1  0
  6 20  1  0
  8 21  1  0
M  END
