
     RDKit          3D

 20 19  0  0  0  0  0  0  0  0999 V2000
    1.8881    0.8731    0.2245 C   0  0  0  0  0  0  0  0  0  0  0  0
    0.9410    0.1058    1.1258 C   0  0  0  0  0  0  0  0  0  0  0  0
   -0.1714   -0.5218    0.3170 C   0  0  0  0  0  0  0  0  0  0  0  0
    0.3448   -1.4760   -0.7063 C   0  0  0  0  0  0  0  0  0  0  0  0
   -0.9865    0.6091   -0.2687 C   0  0  0  0  0  0  0  0  0  0  0  0
   -1.4817    1.3533    0.7980 O   0  0  0  0  0  0  0  0  0  0  0  0
   -2.1274    0.1334   -1.0693 C   0  0  0  0  0  0  0  0  0  0  0  0
   -3.2516    0.4198   -0.7346 O   0  0  0  0  0  0  0  0  0  0  0  0
    1.6840    1.9691    0.2503 H   0  0  0  0  0  0  0  0  0  0  0  0
    2.9208    0.7406    0.5987 H   0  0  0  0  0  0  0  0  0  0  0  0
    1.8634    0.5223   -0.8108 H   0  0  0  0  0  0  0  0  0  0  0  0
    0.4790    0.8452    1.8120 H   0  0  0  0  0  0  0  0  0  0  0  0
    1.4853   -0.6187    1.7470 H   0  0  0  0  0  0  0  0  0  0  0  0
   -0.7913   -1.1039    1.0388 H   0  0  0  0  0  0  0  0  0  0  0  0
    0.7433   -1.0100   -1.6114 H   0  0  0  0  0  0  0  0  0  0  0  0
    1.1642   -2.0742   -0.2566 H   0  0  0  0  0  0  0  0  0  0  0  0
   -0.4550   -2.1857   -0.9768 H   0  0  0  0  0  0  0  0  0  0  0  0
   -0.2852    1.1945   -0.8993 H   0  0  0  0  0  0  0  0  0  0  0  0
   -1.9798    0.6915    1.3732 H   0  0  0  0  0  0  0  0  0  0  0  0
   -1.9841   -0.4673   -1.9515 H   0  0  0  0  0  0  0  0  0  0  0  0
  1  2  1  0
  2  3  1  0
  3  4  1  0
  3  5  1  0
  5  6  1  0
  5  7  1  0
  7  8  2  0
  1  9  1  0
  1 10  1  0
  1 11  1  0
  2 12  1  0
  2 13  1  0
  3 14  1  0
  4 15  1  0
  4 16  1  0
  4 17  1  0
  5 18  1  0
  6 19  1  0
  7 20  1  0
M  END
