
     RDKit          3D

 22 22  0  0  0  0  0  0  0  0999 V2000
   -1.7513   -1.5056   -0.1825 C   0  0  0  0  0  0  0  0  0  0  0  0
   -0.3761   -1.0033   -0.5637 C   0  0  0  0  0  0  0  0  0  0  0  0
    0.2041   -0.1524    0.5457 C   0  0  0  0  0  0  0  0  0  0  0  0
   -0.6746    1.0488    0.8274 C   0  0  0  0  0  0  0  0  0  0  0  0
   -0.8498    1.9473   -0.3451 C   0  0  0  0  0  0  0  0  0  0  0  0
    1.5703    0.3245    0.1898 C   0  0  0  0  0  0  0  0  0  0  0  0
    2.6567   -0.6949   -0.0834 C   0  0  0  0  0  0  0  0  0  0  0  0
    1.9999    0.0145   -1.0780 O   0  0  0  0  0  0  0  0  0  0  0  0
   -2.5168   -1.1222   -0.9084 H   0  0  0  0  0  0  0  0  0  0  0  0
   -2.0594   -1.2250    0.8278 H   0  0  0  0  0  0  0  0  0  0  0  0
   -1.7320   -2.6308   -0.2575 H   0  0  0  0  0  0  0  0  0  0  0  0
   -0.4651   -0.3869   -1.4985 H   0  0  0  0  0  0  0  0  0  0  0  0
    0.3433   -1.8464   -0.7226 H   0  0  0  0  0  0  0  0  0  0  0  0
    0.1833   -0.7763    1.4628 H   0  0  0  0  0  0  0  0  0  0  0  0
   -1.6493    0.7374    1.2045 H   0  0  0  0  0  0  0  0  0  0  0  0
   -0.1730    1.5952    1.6776 H   0  0  0  0  0  0  0  0  0  0  0  0
   -0.9672    2.9935    0.0190 H   0  0  0  0  0  0  0  0  0  0  0  0
   -0.0147    1.9488   -1.0612 H   0  0  0  0  0  0  0  0  0  0  0  0
   -1.7637    1.6402   -0.9194 H   0  0  0  0  0  0  0  0  0  0  0  0
    1.9734    1.2429    0.6987 H   0  0  0  0  0  0  0  0  0  0  0  0
    3.7145   -0.4071    0.0416 H   0  0  0  0  0  0  0  0  0  0  0  0
    2.3471   -1.7421    0.1253 H   0  0  0  0  0  0  0  0  0  0  0  0
  1  2  1  0
  2  3  1  0
  3  4  1  0
  4  5  1  0
  3  6  1  0
  6  7  1  0
  7  8  1  0
  8  6  1  0
  1  9  1  0
  1 10  1  0
  1 11  1  0
  2 12  1  0
  2 13  1  0
  3 14  1  0
  4 15  1  0
  4 16  1  0
  5 17  1  0
  5 18  1  0
  5 19  1  0
  6 20  1  0
  7 21  1  0
  7 22  1  0
M  END
