
     RDKit          3D

 27 27  0  0  0  0  0  0  0  0999 V2000
    1.9243    1.5796    1.0630 C   0  0  0  0  0  0  0  0  0  0  0  0
    1.4712    1.1770   -0.3133 C   0  0  0  0  0  0  0  0  0  0  0  0
    0.8754   -0.1991   -0.3614 C   0  0  0  0  0  0  0  0  0  0  0  0
    1.9388   -1.1748    0.1019 C   0  0  0  0  0  0  0  0  0  0  0  0
   -0.3134   -0.3568    0.5484 C   0  0  0  0  0  0  0  0  0  0  0  0
   -0.8087   -1.7764    0.4014 C   0  0  0  0  0  0  0  0  0  0  0  0
   -1.4153    0.5882    0.2856 C   0  0  0  0  0  0  0  0  0  0  0  0
   -2.1509    0.7003   -0.9670 C   0  0  0  0  0  0  0  0  0  0  0  0
   -2.8112   -0.0023    0.2104 C   0  0  0  0  0  0  0  0  0  0  0  0
    1.1634    1.4357    1.8430 H   0  0  0  0  0  0  0  0  0  0  0  0
    2.1968    2.6720    0.9946 H   0  0  0  0  0  0  0  0  0  0  0  0
    2.8843    1.0612    1.2759 H   0  0  0  0  0  0  0  0  0  0  0  0
    2.3809    1.1587   -0.9604 H   0  0  0  0  0  0  0  0  0  0  0  0
    0.8245    1.9664   -0.7003 H   0  0  0  0  0  0  0  0  0  0  0  0
    0.5741   -0.4003   -1.4032 H   0  0  0  0  0  0  0  0  0  0  0  0
    2.9612   -0.7790   -0.0501 H   0  0  0  0  0  0  0  0  0  0  0  0
    1.7931   -1.3937    1.1760 H   0  0  0  0  0  0  0  0  0  0  0  0
    1.8671   -2.1524   -0.4422 H   0  0  0  0  0  0  0  0  0  0  0  0
    0.0814   -0.2757    1.5943 H   0  0  0  0  0  0  0  0  0  0  0  0
   -1.3105   -1.9442   -0.5732 H   0  0  0  0  0  0  0  0  0  0  0  0
   -1.5516   -2.0564    1.1945 H   0  0  0  0  0  0  0  0  0  0  0  0
    0.0514   -2.5001    0.4237 H   0  0  0  0  0  0  0  0  0  0  0  0
   -1.3813    1.5034    0.9184 H   0  0  0  0  0  0  0  0  0  0  0  0
   -2.0141    0.0389   -1.8344 H   0  0  0  0  0  0  0  0  0  0  0  0
   -2.5970    1.6780   -1.2375 H   0  0  0  0  0  0  0  0  0  0  0  0
   -3.6534    0.5336    0.7004 H   0  0  0  0  0  0  0  0  0  0  0  0
   -2.9804   -1.0817    0.1570 H   0  0  0  0  0  0  0  0  0  0  0  0
  1  2  1  0
  2  3  1  0
  3  4  1  0
  3  5  1  0
  5  6  1  0
  5  7  1  0
  7  8  1  0
  8  9  1  0
  9  7  1  0
  1 10  1  0
  1 11  1  0
  1 12  1  0
  2 13  1  0
  2 14  1  0
  3 15  1  0
  4 16  1  0
  4 17  1  0
  4 18  1  0
  5 19  1  0
  6 20  1  0
  6 21  1  0
  6 22  1  0
  7 23  1  0
  8 24  1  0
  8 25  1  0
  9 26  1  0
  9 27  1  0
M  END
