
     RDKit          3D

 21 20  0  0  0  0  0  0  0  0999 V2000
   -2.3424   -1.0390   -0.2001 C   0  0  0  0  0  0  0  0  0  0  0  0
   -1.6653   -0.1987    0.8374 C   0  0  0  0  0  0  0  0  0  0  0  0
   -0.9876    1.0079    0.2626 C   0  0  0  0  0  0  0  0  0  0  0  0
   -0.3771    1.7651    1.2654 O   0  0  0  0  0  0  0  0  0  0  0  0
    0.0242    0.6716   -0.8207 C   0  0  0  0  0  0  0  0  0  0  0  0
    1.1190   -0.1866   -0.3746 C   0  0  0  0  0  0  0  0  0  0  0  0
    0.9676   -1.4300   -0.2739 O   0  0  0  0  0  0  0  0  0  0  0  0
    2.3792    0.2991   -0.0369 O   0  0  0  0  0  0  0  0  0  0  0  0
    3.4358   -0.5172    0.3919 C   0  0  0  0  0  0  0  0  0  0  0  0
   -3.1194   -0.4087   -0.7148 H   0  0  0  0  0  0  0  0  0  0  0  0
   -1.6757   -1.4752   -0.9617 H   0  0  0  0  0  0  0  0  0  0  0  0
   -2.9278   -1.8432    0.3308 H   0  0  0  0  0  0  0  0  0  0  0  0
   -2.4487    0.1733    1.5296 H   0  0  0  0  0  0  0  0  0  0  0  0
   -0.9739   -0.8048    1.4553 H   0  0  0  0  0  0  0  0  0  0  0  0
   -1.7570    1.6468   -0.2096 H   0  0  0  0  0  0  0  0  0  0  0  0
   -0.7172    2.6918    1.2803 H   0  0  0  0  0  0  0  0  0  0  0  0
    0.3562    1.6444   -1.2409 H   0  0  0  0  0  0  0  0  0  0  0  0
   -0.5634    0.1726   -1.6288 H   0  0  0  0  0  0  0  0  0  0  0  0
    4.3287   -0.4573   -0.2624 H   0  0  0  0  0  0  0  0  0  0  0  0
    3.7830   -0.1407    1.3931 H   0  0  0  0  0  0  0  0  0  0  0  0
    3.1619   -1.5713    0.5403 H   0  0  0  0  0  0  0  0  0  0  0  0
  1  2  1  0
  2  3  1  0
  3  4  1  0
  3  5  1  0
  5  6  1  0
  6  7  2  0
  6  8  1  0
  8  9  1  0
  1 10  1  0
  1 11  1  0
  1 12  1  0
  2 13  1  0
  2 14  1  0
  3 15  1  0
  4 16  1  0
  5 17  1  0
  5 18  1  0
  9 19  1  0
  9 20  1  0
  9 21  1  0
M  END
