
     RDKit          3D

 19 18  0  0  0  0  0  0  0  0999 V2000
   -2.4528    0.7875   -0.0720 C   0  0  0  0  0  0  0  0  0  0  0  0
   -2.1056   -0.4999    0.5936 C   0  0  0  0  0  0  0  0  0  0  0  0
   -1.0365   -1.2822   -0.1322 C   0  0  0  0  0  0  0  0  0  0  0  0
   -0.7999   -2.4577    0.5815 O   0  0  0  0  0  0  0  0  0  0  0  0
    0.2081   -0.5074   -0.2409 C   0  0  0  0  0  0  0  0  0  0  0  0
    1.2278    0.1270   -0.3511 C   0  0  0  0  0  0  0  0  0  0  0  0
    2.4495    0.8640   -0.4973 C   0  0  0  0  0  0  0  0  0  0  0  0
    3.5440    0.8632    0.4988 C   0  0  0  0  0  0  0  0  0  0  0  0
    2.5962    1.5521   -1.5373 O   0  0  0  0  0  0  0  0  0  0  0  0
   -2.1545    0.8720   -1.1148 H   0  0  0  0  0  0  0  0  0  0  0  0
   -3.5713    0.9275   -0.0458 H   0  0  0  0  0  0  0  0  0  0  0  0
   -2.0541    1.6630    0.5208 H   0  0  0  0  0  0  0  0  0  0  0  0
   -1.7811   -0.3063    1.6306 H   0  0  0  0  0  0  0  0  0  0  0  0
   -3.0101   -1.1531    0.6171 H   0  0  0  0  0  0  0  0  0  0  0  0
   -1.3516   -1.5788   -1.1414 H   0  0  0  0  0  0  0  0  0  0  0  0
   -1.2402   -2.4303    1.4537 H   0  0  0  0  0  0  0  0  0  0  0  0
    3.4348    1.6862    1.2521 H   0  0  0  0  0  0  0  0  0  0  0  0
    3.5864   -0.1114    1.0653 H   0  0  0  0  0  0  0  0  0  0  0  0
    4.5108    0.9846   -0.0572 H   0  0  0  0  0  0  0  0  0  0  0  0
  1  2  1  0
  2  3  1  0
  3  4  1  0
  3  5  1  0
  5  6  3  0
  6  7  1  0
  7  8  1  0
  7  9  2  0
  1 10  1  0
  1 11  1  0
  1 12  1  0
  2 13  1  0
  2 14  1  0
  3 15  1  0
  4 16  1  0
  8 17  1  0
  8 18  1  0
  8 19  1  0
M  END
