
     RDKit          3D

 23 23  0  0  0  0  0  0  0  0999 V2000
    2.0800    0.5046    0.5893 C   0  0  0  0  0  0  0  0  0  0  0  0
    1.1640   -0.6317    0.1929 C   0  0  0  0  0  0  0  0  0  0  0  0
   -0.1741   -0.1813   -0.3199 C   0  0  0  0  0  0  0  0  0  0  0  0
    0.1125    0.6910   -1.5524 C   0  0  0  0  0  0  0  0  0  0  0  0
   -0.8467   -1.2782   -0.7949 O   0  0  0  0  0  0  0  0  0  0  0  0
   -1.1035   -2.2858    0.0827 C   0  0  0  0  0  0  0  0  0  0  0  0
   -0.9810    0.5523    0.7035 C   0  0  0  0  0  0  0  0  0  0  0  0
   -1.4770    1.9202    0.2910 C   0  0  0  0  0  0  0  0  0  0  0  0
   -0.4981    1.6843    1.3073 O   0  0  0  0  0  0  0  0  0  0  0  0
    3.0467   -0.0002    0.8915 H   0  0  0  0  0  0  0  0  0  0  0  0
    2.3477    1.1730   -0.2277 H   0  0  0  0  0  0  0  0  0  0  0  0
    1.7202    0.9911    1.5060 H   0  0  0  0  0  0  0  0  0  0  0  0
    1.7066   -1.2531   -0.5462 H   0  0  0  0  0  0  0  0  0  0  0  0
    1.0310   -1.2332    1.1291 H   0  0  0  0  0  0  0  0  0  0  0  0
   -0.7904    0.8414   -2.1539 H   0  0  0  0  0  0  0  0  0  0  0  0
    0.6561    1.5932   -1.2766 H   0  0  0  0  0  0  0  0  0  0  0  0
    0.8124    0.0868   -2.1952 H   0  0  0  0  0  0  0  0  0  0  0  0
   -0.1871   -2.7294    0.5194 H   0  0  0  0  0  0  0  0  0  0  0  0
   -1.5632   -3.1238   -0.5205 H   0  0  0  0  0  0  0  0  0  0  0  0
   -1.8662   -2.0464    0.8510 H   0  0  0  0  0  0  0  0  0  0  0  0
   -1.7110   -0.0091    1.3360 H   0  0  0  0  0  0  0  0  0  0  0  0
   -2.4157    2.3051    0.7655 H   0  0  0  0  0  0  0  0  0  0  0  0
   -1.0631    2.4294   -0.5782 H   0  0  0  0  0  0  0  0  0  0  0  0
  1  2  1  0
  2  3  1  0
  3  4  1  0
  3  5  1  0
  5  6  1  0
  3  7  1  0
  7  8  1  0
  8  9  1  0
  9  7  1  0
  1 10  1  0
  1 11  1  0
  1 12  1  0
  2 13  1  0
  2 14  1  0
  4 15  1  0
  4 16  1  0
  4 17  1  0
  6 18  1  0
  6 19  1  0
  6 20  1  0
  7 21  1  0
  8 22  1  0
  8 23  1  0
M  END
