
     RDKit          3D

 19 18  0  0  0  0  0  0  0  0999 V2000
   -2.9727   -0.3953    0.4685 C   0  0  0  0  0  0  0  0  0  0  0  0
   -1.7895    0.4387    0.0375 C   0  0  0  0  0  0  0  0  0  0  0  0
   -0.6155   -0.4155   -0.0724 C   0  0  0  0  0  0  0  0  0  0  0  0
   -0.7316   -1.6022    0.1782 O   0  0  0  0  0  0  0  0  0  0  0  0
    0.7438    0.0233   -0.4691 C   0  0  0  0  0  0  0  0  0  0  0  0
    0.7116    1.3819   -0.7179 O   0  0  0  0  0  0  0  0  0  0  0  0
    1.8060   -0.3147    0.5188 C   0  0  0  0  0  0  0  0  0  0  0  0
    3.1045    0.1859   -0.0154 C   0  0  0  0  0  0  0  0  0  0  0  0
    4.1446    0.0346    0.6098 O   0  0  0  0  0  0  0  0  0  0  0  0
   -3.8840   -0.0739   -0.0514 H   0  0  0  0  0  0  0  0  0  0  0  0
   -3.1060   -0.3979    1.5696 H   0  0  0  0  0  0  0  0  0  0  0  0
   -2.7891   -1.4589    0.1834 H   0  0  0  0  0  0  0  0  0  0  0  0
   -2.0352    0.8144   -0.9869 H   0  0  0  0  0  0  0  0  0  0  0  0
   -1.6994    1.2624    0.7685 H   0  0  0  0  0  0  0  0  0  0  0  0
    0.9824   -0.4852   -1.4263 H   0  0  0  0  0  0  0  0  0  0  0  0
    1.3764    1.6852   -1.3842 H   0  0  0  0  0  0  0  0  0  0  0  0
    1.9112   -1.4349    0.5903 H   0  0  0  0  0  0  0  0  0  0  0  0
    1.6456    0.0514    1.5286 H   0  0  0  0  0  0  0  0  0  0  0  0
    3.1970    0.7006   -0.9668 H   0  0  0  0  0  0  0  0  0  0  0  0
  1  2  1  0
  2  3  1  0
  3  4  2  0
  3  5  1  0
  5  6  1  0
  5  7  1  0
  7  8  1  0
  8  9  2  0
  1 10  1  0
  1 11  1  0
  1 12  1  0
  2 13  1  0
  2 14  1  0
  5 15  1  0
  6 16  1  0
  7 17  1  0
  7 18  1  0
  8 19  1  0
M  END
