
     RDKit          3D

 22 21  0  0  0  0  0  0  0  0999 V2000
   -1.0783    1.7922    0.2080 C   0  0  0  0  0  0  0  0  0  0  0  0
   -1.3984    0.5027   -0.4670 C   0  0  0  0  0  0  0  0  0  0  0  0
   -0.6882   -0.6845    0.1028 C   0  0  0  0  0  0  0  0  0  0  0  0
   -1.1242   -1.9098   -0.6949 C   0  0  0  0  0  0  0  0  0  0  0  0
   -0.9225   -0.9332    1.4175 O   0  0  0  0  0  0  0  0  0  0  0  0
    0.8052   -0.5294   -0.1000 C   0  0  0  0  0  0  0  0  0  0  0  0
    1.3151    0.5223    0.6575 O   0  0  0  0  0  0  0  0  0  0  0  0
    2.6837    0.5840    0.4051 C   0  0  0  0  0  0  0  0  0  0  0  0
   -1.8502    2.5424   -0.1331 H   0  0  0  0  0  0  0  0  0  0  0  0
   -0.1051    2.2262   -0.0826 H   0  0  0  0  0  0  0  0  0  0  0  0
   -1.2069    1.7432    1.3120 H   0  0  0  0  0  0  0  0  0  0  0  0
   -1.1523    0.6089   -1.5437 H   0  0  0  0  0  0  0  0  0  0  0  0
   -2.5011    0.3599   -0.4219 H   0  0  0  0  0  0  0  0  0  0  0  0
   -1.2937   -1.5795   -1.7394 H   0  0  0  0  0  0  0  0  0  0  0  0
   -0.2774   -2.6336   -0.6949 H   0  0  0  0  0  0  0  0  0  0  0  0
   -2.0383   -2.3217   -0.2224 H   0  0  0  0  0  0  0  0  0  0  0  0
   -0.6311   -0.2608    2.0573 H   0  0  0  0  0  0  0  0  0  0  0  0
    1.3486   -1.4447    0.2150 H   0  0  0  0  0  0  0  0  0  0  0  0
    1.0300   -0.4090   -1.1885 H   0  0  0  0  0  0  0  0  0  0  0  0
    3.1134    1.4114    0.9947 H   0  0  0  0  0  0  0  0  0  0  0  0
    3.1966   -0.3631    0.6213 H   0  0  0  0  0  0  0  0  0  0  0  0
    2.7753    0.7763   -0.7026 H   0  0  0  0  0  0  0  0  0  0  0  0
  1  2  1  0
  2  3  1  0
  3  4  1  0
  3  5  1  0
  3  6  1  0
  6  7  1  0
  7  8  1  0
  1  9  1  0
  1 10  1  0
  1 11  1  0
  2 12  1  0
  2 13  1  0
  4 14  1  0
  4 15  1  0
  4 16  1  0
  5 17  1  0
  6 18  1  0
  6 19  1  0
  8 20  1  0
  8 21  1  0
  8 22  1  0
M  END
