
     RDKit          3D

 23 23  0  0  0  0  0  0  0  0999 V2000
   -3.3988    0.1226    0.0369 C   0  0  0  0  0  0  0  0  0  0  0  0
   -2.1202    0.7565   -0.4758 C   0  0  0  0  0  0  0  0  0  0  0  0
   -0.9693   -0.1521   -0.1331 C   0  0  0  0  0  0  0  0  0  0  0  0
   -0.9099   -0.3065    1.2516 O   0  0  0  0  0  0  0  0  0  0  0  0
    0.3212    0.3930   -0.7022 C   0  0  0  0  0  0  0  0  0  0  0  0
    1.4784   -0.5047   -0.3670 C   0  0  0  0  0  0  0  0  0  0  0  0
    2.7883    0.0127   -0.9227 C   0  0  0  0  0  0  0  0  0  0  0  0
    3.2555   -0.6598    0.3640 C   0  0  0  0  0  0  0  0  0  0  0  0
    2.0251   -0.2850    0.9167 O   0  0  0  0  0  0  0  0  0  0  0  0
   -3.5531    0.4153    1.1002 H   0  0  0  0  0  0  0  0  0  0  0  0
   -4.2865    0.4754   -0.5492 H   0  0  0  0  0  0  0  0  0  0  0  0
   -3.3629   -0.9698   -0.0631 H   0  0  0  0  0  0  0  0  0  0  0  0
   -2.1737    0.8644   -1.5788 H   0  0  0  0  0  0  0  0  0  0  0  0
   -1.9675    1.7709   -0.0544 H   0  0  0  0  0  0  0  0  0  0  0  0
   -1.2079   -1.1493   -0.5494 H   0  0  0  0  0  0  0  0  0  0  0  0
   -1.4942    0.3143    1.7321 H   0  0  0  0  0  0  0  0  0  0  0  0
    0.2062    0.3833   -1.8085 H   0  0  0  0  0  0  0  0  0  0  0  0
    0.5359    1.4108   -0.3855 H   0  0  0  0  0  0  0  0  0  0  0  0
    1.3365   -1.5717   -0.5893 H   0  0  0  0  0  0  0  0  0  0  0  0
    2.9198    1.0980   -0.8459 H   0  0  0  0  0  0  0  0  0  0  0  0
    3.1454   -0.4756   -1.8429 H   0  0  0  0  0  0  0  0  0  0  0  0
    4.1334   -0.1729    0.8334 H   0  0  0  0  0  0  0  0  0  0  0  0
    3.2985   -1.7697    0.3018 H   0  0  0  0  0  0  0  0  0  0  0  0
  1  2  1  0
  2  3  1  0
  3  4  1  0
  3  5  1  0
  5  6  1  0
  6  7  1  0
  7  8  1  0
  8  9  1  0
  9  6  1  0
  1 10  1  0
  1 11  1  0
  1 12  1  0
  2 13  1  0
  2 14  1  0
  3 15  1  0
  4 16  1  0
  5 17  1  0
  5 18  1  0
  6 19  1  0
  7 20  1  0
  7 21  1  0
  8 22  1  0
  8 23  1  0
M  END
