
     RDKit          3D

 21 20  0  0  0  0  0  0  0  0999 V2000
   -3.3171   -0.2540   -0.3970 C   0  0  0  0  0  0  0  0  0  0  0  0
   -2.4284   -1.4056   -0.0282 C   0  0  0  0  0  0  0  0  0  0  0  0
   -0.9853   -1.0209   -0.0382 C   0  0  0  0  0  0  0  0  0  0  0  0
   -0.1149   -1.8750    0.2493 O   0  0  0  0  0  0  0  0  0  0  0  0
   -0.5474    0.2546   -0.3543 O   0  0  0  0  0  0  0  0  0  0  0  0
    0.7910    0.6544   -0.3752 C   0  0  0  0  0  0  0  0  0  0  0  0
    1.4755    0.4961    0.9614 C   0  0  0  0  0  0  0  0  0  0  0  0
    2.9123    0.9557    0.8263 C   0  0  0  0  0  0  0  0  0  0  0  0
    3.6185    0.2294   -0.1103 O   0  0  0  0  0  0  0  0  0  0  0  0
   -4.3615   -0.5964   -0.3124 H   0  0  0  0  0  0  0  0  0  0  0  0
   -3.1727    0.6271    0.2517 H   0  0  0  0  0  0  0  0  0  0  0  0
   -3.1053    0.0237   -1.4452 H   0  0  0  0  0  0  0  0  0  0  0  0
   -2.5663   -2.1890   -0.8206 H   0  0  0  0  0  0  0  0  0  0  0  0
   -2.7230   -1.8764    0.9217 H   0  0  0  0  0  0  0  0  0  0  0  0
    1.4017    0.1051   -1.1244 H   0  0  0  0  0  0  0  0  0  0  0  0
    0.8194    1.7196   -0.6782 H   0  0  0  0  0  0  0  0  0  0  0  0
    1.0145    1.1668    1.7359 H   0  0  0  0  0  0  0  0  0  0  0  0
    1.4476   -0.5179    1.3464 H   0  0  0  0  0  0  0  0  0  0  0  0
    3.4497    0.9138    1.7806 H   0  0  0  0  0  0  0  0  0  0  0  0
    2.8528    2.0111    0.4300 H   0  0  0  0  0  0  0  0  0  0  0  0
    3.5390    0.5777   -1.0285 H   0  0  0  0  0  0  0  0  0  0  0  0
  1  2  1  0
  2  3  1  0
  3  4  2  0
  3  5  1  0
  5  6  1  0
  6  7  1  0
  7  8  1  0
  8  9  1  0
  1 10  1  0
  1 11  1  0
  1 12  1  0
  2 13  1  0
  2 14  1  0
  6 15  1  0
  6 16  1  0
  7 17  1  0
  7 18  1  0
  8 19  1  0
  8 20  1  0
  9 21  1  0
M  END
