
     RDKit          3D

 21 20  0  0  0  0  0  0  0  0999 V2000
   -3.9283    0.2949    0.4515 C   0  0  0  0  0  0  0  0  0  0  0  0
   -2.5830   -0.2923    0.1415 C   0  0  0  0  0  0  0  0  0  0  0  0
   -1.5063    0.7174    0.5533 C   0  0  0  0  0  0  0  0  0  0  0  0
   -1.7620    1.8690   -0.2073 O   0  0  0  0  0  0  0  0  0  0  0  0
   -0.1729    0.1724    0.2482 C   0  0  0  0  0  0  0  0  0  0  0  0
    0.9318   -0.2584    0.0060 C   0  0  0  0  0  0  0  0  0  0  0  0
    2.2730   -0.7788   -0.2721 C   0  0  0  0  0  0  0  0  0  0  0  0
    3.2146    0.1154    0.2231 O   0  0  0  0  0  0  0  0  0  0  0  0
    4.5149   -0.3074   -0.0018 C   0  0  0  0  0  0  0  0  0  0  0  0
   -4.3009    0.9676   -0.3535 H   0  0  0  0  0  0  0  0  0  0  0  0
   -4.6719   -0.5127    0.6190 H   0  0  0  0  0  0  0  0  0  0  0  0
   -3.8382    0.8249    1.4294 H   0  0  0  0  0  0  0  0  0  0  0  0
   -2.4558   -0.5033   -0.9331 H   0  0  0  0  0  0  0  0  0  0  0  0
   -2.4826   -1.2393    0.6889 H   0  0  0  0  0  0  0  0  0  0  0  0
   -1.5747    0.9180    1.6422 H   0  0  0  0  0  0  0  0  0  0  0  0
   -1.1123    1.8345   -0.9626 H   0  0  0  0  0  0  0  0  0  0  0  0
    2.4330   -0.9426   -1.3663 H   0  0  0  0  0  0  0  0  0  0  0  0
    2.3787   -1.7447    0.2683 H   0  0  0  0  0  0  0  0  0  0  0  0
    5.2102    0.4487    0.4165 H   0  0  0  0  0  0  0  0  0  0  0  0
    4.6824   -0.3006   -1.1065 H   0  0  0  0  0  0  0  0  0  0  0  0
    4.7503   -1.2826    0.4231 H   0  0  0  0  0  0  0  0  0  0  0  0
  1  2  1  0
  2  3  1  0
  3  4  1  0
  3  5  1  0
  5  6  3  0
  6  7  1  0
  7  8  1  0
  8  9  1  0
  1 10  1  0
  1 11  1  0
  1 12  1  0
  2 13  1  0
  2 14  1  0
  3 15  1  0
  4 16  1  0
  7 17  1  0
  7 18  1  0
  9 19  1  0
  9 20  1  0
  9 21  1  0
M  END
