
     RDKit          3D

 23 22  0  0  0  0  0  0  0  0999 V2000
   -0.7202    2.0365    0.4225 C   0  0  0  0  0  0  0  0  0  0  0  0
   -0.3215    0.7260    0.9934 C   0  0  0  0  0  0  0  0  0  0  0  0
   -0.2995   -0.4047    0.0002 C   0  0  0  0  0  0  0  0  0  0  0  0
    0.1248   -1.6526    0.7495 C   0  0  0  0  0  0  0  0  0  0  0  0
   -1.6821   -0.6655   -0.5372 C   0  0  0  0  0  0  0  0  0  0  0  0
    0.6914   -0.1711   -1.1122 C   0  0  0  0  0  0  0  0  0  0  0  0
    2.0752   -0.0285   -0.5882 C   0  0  0  0  0  0  0  0  0  0  0  0
   -1.3704    2.0024   -0.4513 H   0  0  0  0  0  0  0  0  0  0  0  0
    0.1403    2.6983    0.1624 H   0  0  0  0  0  0  0  0  0  0  0  0
   -1.2808    2.6108    1.2179 H   0  0  0  0  0  0  0  0  0  0  0  0
   -1.0579    0.4383    1.7854 H   0  0  0  0  0  0  0  0  0  0  0  0
    0.6963    0.7770    1.4447 H   0  0  0  0  0  0  0  0  0  0  0  0
    0.5322   -2.4295    0.0516 H   0  0  0  0  0  0  0  0  0  0  0  0
   -0.7502   -2.1432    1.2448 H   0  0  0  0  0  0  0  0  0  0  0  0
    0.8607   -1.4587    1.5266 H   0  0  0  0  0  0  0  0  0  0  0  0
   -2.1880   -1.4904    0.0167 H   0  0  0  0  0  0  0  0  0  0  0  0
   -1.5860   -0.9010   -1.6047 H   0  0  0  0  0  0  0  0  0  0  0  0
   -2.3571    0.2144   -0.4444 H   0  0  0  0  0  0  0  0  0  0  0  0
    0.4061    0.7889   -1.6157 H   0  0  0  0  0  0  0  0  0  0  0  0
    0.6415   -1.0256   -1.8051 H   0  0  0  0  0  0  0  0  0  0  0  0
    2.2601   -0.5015    0.3873 H   0  0  0  0  0  0  0  0  0  0  0  0
    2.7786   -0.4586   -1.3585 H   0  0  0  0  0  0  0  0  0  0  0  0
    2.4065    1.0382   -0.4857 H   0  0  0  0  0  0  0  0  0  0  0  0
  1  2  1  0
  2  3  1  0
  3  4  1  0
  3  5  1  0
  3  6  1  0
  6  7  1  0
  1  8  1  0
  1  9  1  0
  1 10  1  0
  2 11  1  0
  2 12  1  0
  4 13  1  0
  4 14  1  0
  4 15  1  0
  5 16  1  0
  5 17  1  0
  5 18  1  0
  6 19  1  0
  6 20  1  0
  7 21  1  0
  7 22  1  0
  7 23  1  0
M  END
