
     RDKit          3D

 25 25  0  0  0  0  0  0  0  0999 V2000
   -3.3665    0.0057    0.3110 C   0  0  0  0  0  0  0  0  0  0  0  0
   -2.2622    0.4937   -0.5911 C   0  0  0  0  0  0  0  0  0  0  0  0
   -0.9053    0.0845   -0.0224 C   0  0  0  0  0  0  0  0  0  0  0  0
   -0.9175   -1.3272    0.0420 O   0  0  0  0  0  0  0  0  0  0  0  0
    0.1303    0.5101   -0.9831 C   0  0  0  0  0  0  0  0  0  0  0  0
    1.5304    0.2254   -0.6493 C   0  0  0  0  0  0  0  0  0  0  0  0
    2.0538    0.8548    0.6483 C   0  0  0  0  0  0  0  0  0  0  0  0
    3.0439   -0.3200    0.6568 C   0  0  0  0  0  0  0  0  0  0  0  0
    1.9381   -1.0895   -0.0907 C   0  0  0  0  0  0  0  0  0  0  0  0
   -2.9670   -0.0158    1.3528 H   0  0  0  0  0  0  0  0  0  0  0  0
   -3.7006   -1.0211    0.0362 H   0  0  0  0  0  0  0  0  0  0  0  0
   -4.2184    0.7012    0.1913 H   0  0  0  0  0  0  0  0  0  0  0  0
   -2.4313    0.0017   -1.5859 H   0  0  0  0  0  0  0  0  0  0  0  0
   -2.3508    1.5686   -0.7266 H   0  0  0  0  0  0  0  0  0  0  0  0
   -0.8412    0.4888    0.9820 H   0  0  0  0  0  0  0  0  0  0  0  0
   -1.6197   -1.6307    0.6765 H   0  0  0  0  0  0  0  0  0  0  0  0
   -0.0923    0.0362   -1.9691 H   0  0  0  0  0  0  0  0  0  0  0  0
    0.0483    1.6180   -1.1898 H   0  0  0  0  0  0  0  0  0  0  0  0
    2.2525    0.5167   -1.4576 H   0  0  0  0  0  0  0  0  0  0  0  0
    1.3333    0.7313    1.4803 H   0  0  0  0  0  0  0  0  0  0  0  0
    2.5228    1.8321    0.5285 H   0  0  0  0  0  0  0  0  0  0  0  0
    3.8875   -0.1790   -0.0451 H   0  0  0  0  0  0  0  0  0  0  0  0
    3.2716   -0.7132    1.6457 H   0  0  0  0  0  0  0  0  0  0  0  0
    1.3036   -1.5543    0.6860 H   0  0  0  0  0  0  0  0  0  0  0  0
    2.3566   -1.8181   -0.8304 H   0  0  0  0  0  0  0  0  0  0  0  0
  1  2  1  0
  2  3  1  0
  3  4  1  0
  3  5  1  0
  5  6  1  0
  6  7  1  0
  7  8  1  0
  8  9  1  0
  9  6  1  0
  1 10  1  0
  1 11  1  0
  1 12  1  0
  2 13  1  0
  2 14  1  0
  3 15  1  0
  4 16  1  0
  5 17  1  0
  5 18  1  0
  6 19  1  0
  7 20  1  0
  7 21  1  0
  8 22  1  0
  8 23  1  0
  9 24  1  0
  9 25  1  0
M  END
