
     RDKit          3D

 19 18  0  0  0  0  0  0  0  0999 V2000
   -2.8765   -0.6360    0.0372 C   0  0  0  0  0  0  0  0  0  0  0  0
   -2.1079    0.6108   -0.2281 C   0  0  0  0  0  0  0  0  0  0  0  0
   -0.6510    0.4694   -0.0722 C   0  0  0  0  0  0  0  0  0  0  0  0
    0.0451    1.4498   -0.2734 O   0  0  0  0  0  0  0  0  0  0  0  0
   -0.0017   -0.8117    0.3177 C   0  0  0  0  0  0  0  0  0  0  0  0
    1.4752   -0.6700    0.4010 C   0  0  0  0  0  0  0  0  0  0  0  0
    2.2375   -1.5915    0.7060 O   0  0  0  0  0  0  0  0  0  0  0  0
    2.0164    0.5772    0.1168 O   0  0  0  0  0  0  0  0  0  0  0  0
    3.3819    0.8735    0.1503 C   0  0  0  0  0  0  0  0  0  0  0  0
   -2.2027   -1.4718    0.2547 H   0  0  0  0  0  0  0  0  0  0  0  0
   -3.5730   -0.8862   -0.8056 H   0  0  0  0  0  0  0  0  0  0  0  0
   -3.5625   -0.4393    0.9091 H   0  0  0  0  0  0  0  0  0  0  0  0
   -2.4406    1.4782    0.3846 H   0  0  0  0  0  0  0  0  0  0  0  0
   -2.3092    0.9164   -1.2931 H   0  0  0  0  0  0  0  0  0  0  0  0
   -0.2817   -1.6214   -0.4150 H   0  0  0  0  0  0  0  0  0  0  0  0
   -0.4094   -1.1541    1.2947 H   0  0  0  0  0  0  0  0  0  0  0  0
    3.8426    0.5785   -0.8177 H   0  0  0  0  0  0  0  0  0  0  0  0
    3.4794    1.9854    0.2270 H   0  0  0  0  0  0  0  0  0  0  0  0
    3.9383    0.3429    0.9365 H   0  0  0  0  0  0  0  0  0  0  0  0
  1  2  1  0
  2  3  1  0
  3  4  2  0
  3  5  1  0
  5  6  1  0
  6  7  2  0
  6  8  1  0
  8  9  1  0
  1 10  1  0
  1 11  1  0
  1 12  1  0
  2 13  1  0
  2 14  1  0
  5 15  1  0
  5 16  1  0
  9 17  1  0
  9 18  1  0
  9 19  1  0
M  END
