
     RDKit          3D

 25 25  0  0  0  0  0  0  0  0999 V2000
   -2.3348    1.2151   -0.7217 C   0  0  0  0  0  0  0  0  0  0  0  0
   -1.8936   -0.2035   -0.7512 C   0  0  0  0  0  0  0  0  0  0  0  0
   -1.2016   -0.6954    0.4746 C   0  0  0  0  0  0  0  0  0  0  0  0
   -0.8401   -2.1578    0.2348 C   0  0  0  0  0  0  0  0  0  0  0  0
    0.0679    0.0106    0.8146 C   0  0  0  0  0  0  0  0  0  0  0  0
    0.1098    1.3644    1.0734 O   0  0  0  0  0  0  0  0  0  0  0  0
    0.7456    0.8249   -0.1268 C   0  0  0  0  0  0  0  0  0  0  0  0
    2.1888    1.1404   -0.1837 C   0  0  0  0  0  0  0  0  0  0  0  0
    3.0950   -0.0463   -0.3425 C   0  0  0  0  0  0  0  0  0  0  0  0
   -3.4590    1.2992   -0.6712 H   0  0  0  0  0  0  0  0  0  0  0  0
   -1.9526    1.8287    0.0883 H   0  0  0  0  0  0  0  0  0  0  0  0
   -2.0660    1.6886   -1.6952 H   0  0  0  0  0  0  0  0  0  0  0  0
   -2.8042   -0.8423   -0.8829 H   0  0  0  0  0  0  0  0  0  0  0  0
   -1.2699   -0.4349   -1.6636 H   0  0  0  0  0  0  0  0  0  0  0  0
   -1.9218   -0.6276    1.3217 H   0  0  0  0  0  0  0  0  0  0  0  0
   -1.7736   -2.7470    0.2686 H   0  0  0  0  0  0  0  0  0  0  0  0
   -0.1446   -2.4456    1.0482 H   0  0  0  0  0  0  0  0  0  0  0  0
   -0.3666   -2.2283   -0.7567 H   0  0  0  0  0  0  0  0  0  0  0  0
    0.6881   -0.5665    1.5650 H   0  0  0  0  0  0  0  0  0  0  0  0
    0.1786    1.1501   -1.0443 H   0  0  0  0  0  0  0  0  0  0  0  0
    2.4059    1.9030   -0.9902 H   0  0  0  0  0  0  0  0  0  0  0  0
    2.5080    1.6493    0.7466 H   0  0  0  0  0  0  0  0  0  0  0  0
    2.5945   -1.0122   -0.1677 H   0  0  0  0  0  0  0  0  0  0  0  0
    3.9863    0.0048    0.3068 H   0  0  0  0  0  0  0  0  0  0  0  0
    3.4600   -0.0717   -1.3953 H   0  0  0  0  0  0  0  0  0  0  0  0
  1  2  1  0
  2  3  1  0
  3  4  1  0
  3  5  1  0
  5  6  1  0
  6  7  1  0
  7  8  1  0
  8  9  1  0
  7  5  1  0
  1 10  1  0
  1 11  1  0
  1 12  1  0
  2 13  1  0
  2 14  1  0
  3 15  1  0
  4 16  1  0
  4 17  1  0
  4 18  1  0
  5 19  1  0
  7 20  1  0
  8 21  1  0
  8 22  1  0
  9 23  1  0
  9 24  1  0
  9 25  1  0
M  END
