
     RDKit          3D

 25 24  0  0  0  0  0  0  0  0999 V2000
   -1.9425   -1.4338    0.5383 C   0  0  0  0  0  0  0  0  0  0  0  0
   -1.8330   -0.1009   -0.0918 C   0  0  0  0  0  0  0  0  0  0  0  0
   -0.7042    0.7769    0.2948 C   0  0  0  0  0  0  0  0  0  0  0  0
   -0.9199    2.0933   -0.5175 C   0  0  0  0  0  0  0  0  0  0  0  0
    0.0999    2.9642   -0.2069 O   0  0  0  0  0  0  0  0  0  0  0  0
    0.6356    0.3090   -0.1629 C   0  0  0  0  0  0  0  0  0  0  0  0
    1.1227   -1.0049    0.3047 C   0  0  0  0  0  0  0  0  0  0  0  0
    2.5270   -1.1708   -0.3352 C   0  0  0  0  0  0  0  0  0  0  0  0
    1.3334   -1.0799    1.6729 O   0  0  0  0  0  0  0  0  0  0  0  0
   -1.7825   -2.2348   -0.2287 H   0  0  0  0  0  0  0  0  0  0  0  0
   -3.0212   -1.6330    0.8615 H   0  0  0  0  0  0  0  0  0  0  0  0
   -1.3237   -1.6431    1.4060 H   0  0  0  0  0  0  0  0  0  0  0  0
   -2.8315    0.4251    0.0473 H   0  0  0  0  0  0  0  0  0  0  0  0
   -1.8093   -0.2167   -1.2255 H   0  0  0  0  0  0  0  0  0  0  0  0
   -0.7063    1.0824    1.3537 H   0  0  0  0  0  0  0  0  0  0  0  0
   -0.7805    1.7718   -1.5801 H   0  0  0  0  0  0  0  0  0  0  0  0
   -1.9298    2.4817   -0.3455 H   0  0  0  0  0  0  0  0  0  0  0  0
    0.7728    3.0815   -0.9201 H   0  0  0  0  0  0  0  0  0  0  0  0
    1.4402    1.0553    0.0581 H   0  0  0  0  0  0  0  0  0  0  0  0
    0.6209    0.2582   -1.2978 H   0  0  0  0  0  0  0  0  0  0  0  0
    0.5073   -1.8440   -0.0342 H   0  0  0  0  0  0  0  0  0  0  0  0
    2.4847   -0.8990   -1.4092 H   0  0  0  0  0  0  0  0  0  0  0  0
    2.8370   -2.2233   -0.2454 H   0  0  0  0  0  0  0  0  0  0  0  0
    3.2495   -0.4950    0.1568 H   0  0  0  0  0  0  0  0  0  0  0  0
    1.9535   -0.3201    1.9069 H   0  0  0  0  0  0  0  0  0  0  0  0
  1  2  1  0
  2  3  1  0
  3  4  1  0
  4  5  1  0
  3  6  1  0
  6  7  1  0
  7  8  1  0
  7  9  1  0
  1 10  1  0
  1 11  1  0
  1 12  1  0
  2 13  1  0
  2 14  1  0
  3 15  1  0
  4 16  1  0
  4 17  1  0
  5 18  1  0
  6 19  1  0
  6 20  1  0
  7 21  1  0
  8 22  1  0
  8 23  1  0
  8 24  1  0
  9 25  1  0
M  END
