
     RDKit          3D

 23 23  0  0  0  0  0  0  0  0999 V2000
   -0.9131   -1.5340    0.6540 C   0  0  0  0  0  0  0  0  0  0  0  0
   -0.6636   -0.8993   -0.6832 C   0  0  0  0  0  0  0  0  0  0  0  0
   -0.0632    0.4690   -0.6267 C   0  0  0  0  0  0  0  0  0  0  0  0
   -0.8980    1.4779    0.1092 C   0  0  0  0  0  0  0  0  0  0  0  0
   -2.2095    1.6608   -0.5310 C   0  0  0  0  0  0  0  0  0  0  0  0
   -2.4797    1.0905   -1.5586 O   0  0  0  0  0  0  0  0  0  0  0  0
    1.3819    0.4987   -0.1901 C   0  0  0  0  0  0  0  0  0  0  0  0
    1.8456    0.0031    1.1044 C   0  0  0  0  0  0  0  0  0  0  0  0
    2.2178   -0.7438   -0.2158 C   0  0  0  0  0  0  0  0  0  0  0  0
   -1.8729   -2.1259    0.5688 H   0  0  0  0  0  0  0  0  0  0  0  0
   -0.1596   -2.2986    0.9365 H   0  0  0  0  0  0  0  0  0  0  0  0
   -1.1080   -0.7879    1.4166 H   0  0  0  0  0  0  0  0  0  0  0  0
    0.0296   -1.6257   -1.2178 H   0  0  0  0  0  0  0  0  0  0  0  0
   -1.5999   -0.9528   -1.2759 H   0  0  0  0  0  0  0  0  0  0  0  0
   -0.0826    0.8409   -1.7077 H   0  0  0  0  0  0  0  0  0  0  0  0
   -0.3907    2.4803    0.0659 H   0  0  0  0  0  0  0  0  0  0  0  0
   -1.0771    1.2181    1.1737 H   0  0  0  0  0  0  0  0  0  0  0  0
   -2.9800    2.3178   -0.0978 H   0  0  0  0  0  0  0  0  0  0  0  0
    1.9619    1.3972   -0.5750 H   0  0  0  0  0  0  0  0  0  0  0  0
    1.2397   -0.5749    1.8187 H   0  0  0  0  0  0  0  0  0  0  0  0
    2.7156    0.5196    1.6085 H   0  0  0  0  0  0  0  0  0  0  0  0
    1.8087   -1.7496   -0.2974 H   0  0  0  0  0  0  0  0  0  0  0  0
    3.2972   -0.6814   -0.4794 H   0  0  0  0  0  0  0  0  0  0  0  0
  1  2  1  0
  2  3  1  0
  3  4  1  0
  4  5  1  0
  5  6  2  0
  3  7  1  0
  7  8  1  0
  8  9  1  0
  9  7  1  0
  1 10  1  0
  1 11  1  0
  1 12  1  0
  2 13  1  0
  2 14  1  0
  3 15  1  0
  4 16  1  0
  4 17  1  0
  5 18  1  0
  7 19  1  0
  8 20  1  0
  8 21  1  0
  9 22  1  0
  9 23  1  0
M  END
