
     RDKit          3D

 25 25  0  0  0  0  0  0  0  0999 V2000
   -1.4014   -1.9016   -0.5347 C   0  0  0  0  0  0  0  0  0  0  0  0
   -1.3693   -0.4109   -0.3313 C   0  0  0  0  0  0  0  0  0  0  0  0
   -0.4667    0.0647    0.7449 C   0  0  0  0  0  0  0  0  0  0  0  0
   -0.5660    1.6120    0.8773 C   0  0  0  0  0  0  0  0  0  0  0  0
   -0.1862    2.3263   -0.3644 C   0  0  0  0  0  0  0  0  0  0  0  0
    0.9555   -0.3012    0.6937 C   0  0  0  0  0  0  0  0  0  0  0  0
    1.7829    0.1472   -0.4981 C   0  0  0  0  0  0  0  0  0  0  0  0
    2.6791   -0.8863   -0.0790 O   0  0  0  0  0  0  0  0  0  0  0  0
    1.4477   -1.5935    0.1749 C   0  0  0  0  0  0  0  0  0  0  0  0
   -1.0601   -2.2231   -1.5341 H   0  0  0  0  0  0  0  0  0  0  0  0
   -0.8647   -2.4005    0.2833 H   0  0  0  0  0  0  0  0  0  0  0  0
   -2.4660   -2.2860   -0.4274 H   0  0  0  0  0  0  0  0  0  0  0  0
   -1.2388    0.1321   -1.2973 H   0  0  0  0  0  0  0  0  0  0  0  0
   -2.4157   -0.1094   -0.0174 H   0  0  0  0  0  0  0  0  0  0  0  0
   -0.8727   -0.3005    1.7180 H   0  0  0  0  0  0  0  0  0  0  0  0
   -1.6025    1.8410    1.1704 H   0  0  0  0  0  0  0  0  0  0  0  0
    0.1045    1.8501    1.7242 H   0  0  0  0  0  0  0  0  0  0  0  0
    0.0034    1.7251   -1.2516 H   0  0  0  0  0  0  0  0  0  0  0  0
    0.6590    3.0527   -0.1636 H   0  0  0  0  0  0  0  0  0  0  0  0
   -1.0323    3.0199   -0.6551 H   0  0  0  0  0  0  0  0  0  0  0  0
    1.5197   -0.0132    1.6153 H   0  0  0  0  0  0  0  0  0  0  0  0
    2.2158    1.1550   -0.4226 H   0  0  0  0  0  0  0  0  0  0  0  0
    1.4149   -0.1800   -1.4914 H   0  0  0  0  0  0  0  0  0  0  0  0
    1.1340   -1.9314   -0.8343 H   0  0  0  0  0  0  0  0  0  0  0  0
    1.6258   -2.3884    0.9002 H   0  0  0  0  0  0  0  0  0  0  0  0
  1  2  1  0
  2  3  1  0
  3  4  1  0
  4  5  1  0
  3  6  1  0
  6  7  1  0
  7  8  1  0
  8  9  1  0
  9  6  1  0
  1 10  1  0
  1 11  1  0
  1 12  1  0
  2 13  1  0
  2 14  1  0
  3 15  1  0
  4 16  1  0
  4 17  1  0
  5 18  1  0
  5 19  1  0
  5 20  1  0
  6 21  1  0
  7 22  1  0
  7 23  1  0
  9 24  1  0
  9 25  1  0
M  END
