
     RDKit          3D

 19 19  0  0  0  0  0  0  0  0999 V2000
   -2.5169   -0.0698   -0.6199 C   0  0  0  0  0  0  0  0  0  0  0  0
   -1.7830   -0.1326    0.7020 C   0  0  0  0  0  0  0  0  0  0  0  0
   -0.4001   -0.6103    0.5731 C   0  0  0  0  0  0  0  0  0  0  0  0
   -0.1795   -1.8055    0.4978 O   0  0  0  0  0  0  0  0  0  0  0  0
    0.7697    0.3106    0.5282 C   0  0  0  0  0  0  0  0  0  0  0  0
    0.2969    1.6312    0.6256 O   0  0  0  0  0  0  0  0  0  0  0  0
    1.5057    0.1241   -0.7792 C   0  0  0  0  0  0  0  0  0  0  0  0
    2.9375   -0.4222   -0.7003 C   0  0  0  0  0  0  0  0  0  0  0  0
    2.6123    0.8962   -1.0483 O   0  0  0  0  0  0  0  0  0  0  0  0
   -3.3333    0.6746   -0.5162 H   0  0  0  0  0  0  0  0  0  0  0  0
   -2.9931   -1.0303   -0.8968 H   0  0  0  0  0  0  0  0  0  0  0  0
   -1.8619    0.2776   -1.4498 H   0  0  0  0  0  0  0  0  0  0  0  0
   -2.3836   -0.8412    1.3446 H   0  0  0  0  0  0  0  0  0  0  0  0
   -1.8353    0.8465    1.2170 H   0  0  0  0  0  0  0  0  0  0  0  0
    1.4817    0.1682    1.3427 H   0  0  0  0  0  0  0  0  0  0  0  0
    0.2619    1.9767   -0.3112 H   0  0  0  0  0  0  0  0  0  0  0  0
    0.8904   -0.2374   -1.6261 H   0  0  0  0  0  0  0  0  0  0  0  0
    3.2046   -1.1436   -1.4937 H   0  0  0  0  0  0  0  0  0  0  0  0
    3.3261   -0.6126    0.3165 H   0  0  0  0  0  0  0  0  0  0  0  0
  1  2  1  0
  2  3  1  0
  3  4  2  0
  3  5  1  0
  5  6  1  0
  5  7  1  0
  7  8  1  0
  8  9  1  0
  9  7  1  0
  1 10  1  0
  1 11  1  0
  1 12  1  0
  2 13  1  0
  2 14  1  0
  5 15  1  0
  6 16  1  0
  7 17  1  0
  8 18  1  0
  8 19  1  0
M  END
