
     RDKit          3D

 23 23  0  0  0  0  0  0  0  0999 V2000
    1.8824   -1.6229    0.2603 C   0  0  0  0  0  0  0  0  0  0  0  0
    1.7602   -0.2260   -0.2901 C   0  0  0  0  0  0  0  0  0  0  0  0
    0.5097    0.4742    0.1738 C   0  0  0  0  0  0  0  0  0  0  0  0
    0.5353    1.8640   -0.4653 C   0  0  0  0  0  0  0  0  0  0  0  0
   -0.5679    2.5998   -0.1090 O   0  0  0  0  0  0  0  0  0  0  0  0
   -0.6991   -0.2323   -0.4015 C   0  0  0  0  0  0  0  0  0  0  0  0
   -2.0619    0.2561   -0.0994 C   0  0  0  0  0  0  0  0  0  0  0  0
   -1.5173   -1.0150    0.5342 C   0  0  0  0  0  0  0  0  0  0  0  0
   -2.2047   -2.1559    0.1601 O   0  0  0  0  0  0  0  0  0  0  0  0
    1.0811   -2.2967   -0.0569 H   0  0  0  0  0  0  0  0  0  0  0  0
    1.9575   -1.6348    1.3677 H   0  0  0  0  0  0  0  0  0  0  0  0
    2.8442   -2.0342   -0.1210 H   0  0  0  0  0  0  0  0  0  0  0  0
    1.7352   -0.2926   -1.3831 H   0  0  0  0  0  0  0  0  0  0  0  0
    2.6721    0.3348   -0.0049 H   0  0  0  0  0  0  0  0  0  0  0  0
    0.4228    0.5606    1.2557 H   0  0  0  0  0  0  0  0  0  0  0  0
    0.5845    1.7774   -1.5646 H   0  0  0  0  0  0  0  0  0  0  0  0
    1.4485    2.3889   -0.1162 H   0  0  0  0  0  0  0  0  0  0  0  0
   -0.2970    3.5535   -0.0687 H   0  0  0  0  0  0  0  0  0  0  0  0
   -0.5348   -0.5688   -1.4596 H   0  0  0  0  0  0  0  0  0  0  0  0
   -2.8620    0.1674   -0.8689 H   0  0  0  0  0  0  0  0  0  0  0  0
   -2.2552    1.0578    0.6275 H   0  0  0  0  0  0  0  0  0  0  0  0
   -1.2462   -0.9984    1.6097 H   0  0  0  0  0  0  0  0  0  0  0  0
   -3.1876   -1.9569    0.2602 H   0  0  0  0  0  0  0  0  0  0  0  0
  1  2  1  0
  2  3  1  0
  3  4  1  0
  4  5  1  0
  3  6  1  0
  6  7  1  0
  7  8  1  0
  8  9  1  0
  8  6  1  0
  1 10  1  0
  1 11  1  0
  1 12  1  0
  2 13  1  0
  2 14  1  0
  3 15  1  0
  4 16  1  0
  4 17  1  0
  5 18  1  0
  6 19  1  0
  7 20  1  0
  7 21  1  0
  8 22  1  0
  9 23  1  0
M  END
