
     RDKit          3D

 25 24  0  0  0  0  0  0  0  0999 V2000
    3.5257    0.8033    0.0388 C   0  0  0  0  0  0  0  0  0  0  0  0
    2.4977   -0.2639   -0.1907 C   0  0  0  0  0  0  0  0  0  0  0  0
    1.1040    0.2273   -0.0020 C   0  0  0  0  0  0  0  0  0  0  0  0
    0.9196    1.3903    0.3060 O   0  0  0  0  0  0  0  0  0  0  0  0
    0.0128   -0.7449   -0.2042 C   0  0  0  0  0  0  0  0  0  0  0  0
   -1.3547   -0.1665    0.0059 C   0  0  0  0  0  0  0  0  0  0  0  0
   -1.5538    0.3757    1.3964 C   0  0  0  0  0  0  0  0  0  0  0  0
   -1.7343    0.8810   -0.9837 C   0  0  0  0  0  0  0  0  0  0  0  0
   -2.3353   -1.3398   -0.1412 C   0  0  0  0  0  0  0  0  0  0  0  0
    4.4144    0.5532   -0.6087 H   0  0  0  0  0  0  0  0  0  0  0  0
    3.1422    1.8092   -0.2139 H   0  0  0  0  0  0  0  0  0  0  0  0
    3.8956    0.7640    1.0725 H   0  0  0  0  0  0  0  0  0  0  0  0
    2.7325   -1.0999    0.5255 H   0  0  0  0  0  0  0  0  0  0  0  0
    2.6358   -0.6996   -1.2052 H   0  0  0  0  0  0  0  0  0  0  0  0
    0.0670   -1.0867   -1.2611 H   0  0  0  0  0  0  0  0  0  0  0  0
    0.1537   -1.5639    0.5199 H   0  0  0  0  0  0  0  0  0  0  0  0
   -2.6690    0.4959    1.5249 H   0  0  0  0  0  0  0  0  0  0  0  0
   -1.2515   -0.3653    2.1488 H   0  0  0  0  0  0  0  0  0  0  0  0
   -1.1107    1.3751    1.5318 H   0  0  0  0  0  0  0  0  0  0  0  0
   -2.7153    0.6350   -1.4883 H   0  0  0  0  0  0  0  0  0  0  0  0
   -0.9720    1.0411   -1.7726 H   0  0  0  0  0  0  0  0  0  0  0  0
   -1.9218    1.8869   -0.5169 H   0  0  0  0  0  0  0  0  0  0  0  0
   -3.3715   -1.0076   -0.1613 H   0  0  0  0  0  0  0  0  0  0  0  0
   -2.0070   -1.8806   -1.0480 H   0  0  0  0  0  0  0  0  0  0  0  0
   -2.1043   -2.0193    0.7271 H   0  0  0  0  0  0  0  0  0  0  0  0
  1  2  1  0
  2  3  1  0
  3  4  2  0
  3  5  1  0
  5  6  1  0
  6  7  1  0
  6  8  1  0
  6  9  1  0
  1 10  1  0
  1 11  1  0
  1 12  1  0
  2 13  1  0
  2 14  1  0
  5 15  1  0
  5 16  1  0
  7 17  1  0
  7 18  1  0
  7 19  1  0
  8 20  1  0
  8 21  1  0
  8 22  1  0
  9 23  1  0
  9 24  1  0
  9 25  1  0
M  END
