
     RDKit          3D

 25 24  0  0  0  0  0  0  0  0999 V2000
   -2.7413    1.4545    0.1962 C   0  0  0  0  0  0  0  0  0  0  0  0
   -1.7147    0.7259   -0.6275 C   0  0  0  0  0  0  0  0  0  0  0  0
   -1.0451   -0.3829    0.1988 C   0  0  0  0  0  0  0  0  0  0  0  0
   -2.1805   -1.3229    0.6149 C   0  0  0  0  0  0  0  0  0  0  0  0
   -0.1329   -0.9787   -0.6092 O   0  0  0  0  0  0  0  0  0  0  0  0
    1.1748   -0.9410   -0.2253 C   0  0  0  0  0  0  0  0  0  0  0  0
    1.6906    0.4579   -0.0964 C   0  0  0  0  0  0  0  0  0  0  0  0
    3.0056    0.5411    0.2885 O   0  0  0  0  0  0  0  0  0  0  0  0
    3.9014   -0.0616   -0.5627 C   0  0  0  0  0  0  0  0  0  0  0  0
   -3.7458    1.1320   -0.1486 H   0  0  0  0  0  0  0  0  0  0  0  0
   -2.6115    1.2658    1.2936 H   0  0  0  0  0  0  0  0  0  0  0  0
   -2.6773    2.5501    0.0218 H   0  0  0  0  0  0  0  0  0  0  0  0
   -2.1548    0.2871   -1.5208 H   0  0  0  0  0  0  0  0  0  0  0  0
   -0.9075    1.4612   -0.9018 H   0  0  0  0  0  0  0  0  0  0  0  0
   -0.6873    0.0901    1.1069 H   0  0  0  0  0  0  0  0  0  0  0  0
   -2.7964   -0.7650    1.3483 H   0  0  0  0  0  0  0  0  0  0  0  0
   -1.7647   -2.2380    1.0850 H   0  0  0  0  0  0  0  0  0  0  0  0
   -2.8294   -1.5824   -0.2419 H   0  0  0  0  0  0  0  0  0  0  0  0
    1.7601   -1.5140   -0.9867 H   0  0  0  0  0  0  0  0  0  0  0  0
    1.3381   -1.5038    0.7337 H   0  0  0  0  0  0  0  0  0  0  0  0
    1.0959    0.9747    0.6865 H   0  0  0  0  0  0  0  0  0  0  0  0
    1.4671    0.9857   -1.0456 H   0  0  0  0  0  0  0  0  0  0  0  0
    3.7463   -1.1400   -0.7102 H   0  0  0  0  0  0  0  0  0  0  0  0
    4.9111    0.0427   -0.1053 H   0  0  0  0  0  0  0  0  0  0  0  0
    3.8982    0.4614   -1.5465 H   0  0  0  0  0  0  0  0  0  0  0  0
  1  2  1  0
  2  3  1  0
  3  4  1  0
  3  5  1  0
  5  6  1  0
  6  7  1  0
  7  8  1  0
  8  9  1  0
  1 10  1  0
  1 11  1  0
  1 12  1  0
  2 13  1  0
  2 14  1  0
  3 15  1  0
  4 16  1  0
  4 17  1  0
  4 18  1  0
  6 19  1  0
  6 20  1  0
  7 21  1  0
  7 22  1  0
  9 23  1  0
  9 24  1  0
  9 25  1  0
M  END
