
     RDKit          3D

 23 24  0  0  0  0  0  0  0  0999 V2000
   -1.2131   -1.7373   -0.7698 C   0  0  0  0  0  0  0  0  0  0  0  0
   -1.2629   -0.3689   -0.2064 C   0  0  0  0  0  0  0  0  0  0  0  0
    0.0047    0.4178   -0.1790 C   0  0  0  0  0  0  0  0  0  0  0  0
    1.0610   -0.2410    0.6297 C   0  0  0  0  0  0  0  0  0  0  0  0
    1.5438   -1.5791    0.2144 C   0  0  0  0  0  0  0  0  0  0  0  0
    2.4699   -0.3526    0.2493 C   0  0  0  0  0  0  0  0  0  0  0  0
   -0.3481    1.7547    0.4970 C   0  0  0  0  0  0  0  0  0  0  0  0
   -1.3521    2.5585   -0.1425 C   0  0  0  0  0  0  0  0  0  0  0  0
    0.0107    2.9142   -0.1391 O   0  0  0  0  0  0  0  0  0  0  0  0
   -2.3022   -2.0594   -0.8964 H   0  0  0  0  0  0  0  0  0  0  0  0
   -0.6999   -1.8115   -1.7537 H   0  0  0  0  0  0  0  0  0  0  0  0
   -0.7483   -2.4727   -0.0857 H   0  0  0  0  0  0  0  0  0  0  0  0
   -2.0624    0.2659   -0.6561 H   0  0  0  0  0  0  0  0  0  0  0  0
   -1.5703   -0.4762    0.8812 H   0  0  0  0  0  0  0  0  0  0  0  0
    0.3574    0.6999   -1.2015 H   0  0  0  0  0  0  0  0  0  0  0  0
    0.8990   -0.0824    1.7381 H   0  0  0  0  0  0  0  0  0  0  0  0
    1.4320   -1.9875   -0.8023 H   0  0  0  0  0  0  0  0  0  0  0  0
    1.6917   -2.3140    1.0553 H   0  0  0  0  0  0  0  0  0  0  0  0
    3.2581   -0.3868    1.0223 H   0  0  0  0  0  0  0  0  0  0  0  0
    2.8494    0.0440   -0.7177 H   0  0  0  0  0  0  0  0  0  0  0  0
   -0.2954    1.6741    1.6079 H   0  0  0  0  0  0  0  0  0  0  0  0
   -1.7486    2.2574   -1.1495 H   0  0  0  0  0  0  0  0  0  0  0  0
   -1.9742    3.2829    0.4245 H   0  0  0  0  0  0  0  0  0  0  0  0
  1  2  1  0
  2  3  1  0
  3  4  1  0
  4  5  1  0
  5  6  1  0
  3  7  1  0
  7  8  1  0
  8  9  1  0
  6  4  1  0
  9  7  1  0
  1 10  1  0
  1 11  1  0
  1 12  1  0
  2 13  1  0
  2 14  1  0
  3 15  1  0
  4 16  1  0
  5 17  1  0
  5 18  1  0
  6 19  1  0
  6 20  1  0
  7 21  1  0
  8 22  1  0
  8 23  1  0
M  END
