
     RDKit          3D

 20 20  0  0  0  0  0  0  0  0999 V2000
    2.5359   -0.0019    0.3153 C   0  0  0  0  0  0  0  0  0  0  0  0
    1.1426   -0.4982    0.5052 C   0  0  0  0  0  0  0  0  0  0  0  0
    0.2339   -0.2249   -0.6667 C   0  0  0  0  0  0  0  0  0  0  0  0
    0.1536    1.2454   -0.8974 C   0  0  0  0  0  0  0  0  0  0  0  0
    0.5692    1.7863   -1.9054 O   0  0  0  0  0  0  0  0  0  0  0  0
   -1.1395   -0.7835   -0.2812 C   0  0  0  0  0  0  0  0  0  0  0  0
   -1.7187   -0.1513    0.9517 C   0  0  0  0  0  0  0  0  0  0  0  0
   -2.3391    0.0576   -0.4251 C   0  0  0  0  0  0  0  0  0  0  0  0
    2.6818    0.9529    0.8386 H   0  0  0  0  0  0  0  0  0  0  0  0
    3.2242   -0.7613    0.7919 H   0  0  0  0  0  0  0  0  0  0  0  0
    2.8450    0.0231   -0.7510 H   0  0  0  0  0  0  0  0  0  0  0  0
    1.0868   -1.5740    0.7685 H   0  0  0  0  0  0  0  0  0  0  0  0
    0.6920    0.0401    1.3857 H   0  0  0  0  0  0  0  0  0  0  0  0
    0.5732   -0.6897   -1.5995 H   0  0  0  0  0  0  0  0  0  0  0  0
   -0.2987    1.8973   -0.1353 H   0  0  0  0  0  0  0  0  0  0  0  0
   -1.2809   -1.8724   -0.4274 H   0  0  0  0  0  0  0  0  0  0  0  0
   -2.2077   -0.8296    1.6516 H   0  0  0  0  0  0  0  0  0  0  0  0
   -1.2366    0.7718    1.3515 H   0  0  0  0  0  0  0  0  0  0  0  0
   -2.2032    1.0425   -0.9237 H   0  0  0  0  0  0  0  0  0  0  0  0
   -3.3138   -0.4300   -0.5475 H   0  0  0  0  0  0  0  0  0  0  0  0
  1  2  1  0
  2  3  1  0
  3  4  1  0
  4  5  2  0
  3  6  1  0
  6  7  1  0
  7  8  1  0
  8  6  1  0
  1  9  1  0
  1 10  1  0
  1 11  1  0
  2 12  1  0
  2 13  1  0
  3 14  1  0
  4 15  1  0
  6 16  1  0
  7 17  1  0
  7 18  1  0
  8 19  1  0
  8 20  1  0
M  END
