
     RDKit          3D

 23 22  0  0  0  0  0  0  0  0999 V2000
    2.8249   -0.1234    0.0670 C   0  0  0  0  0  0  0  0  0  0  0  0
    1.6833    0.7197   -0.4563 C   0  0  0  0  0  0  0  0  0  0  0  0
    0.4734   -0.1271   -0.7100 C   0  0  0  0  0  0  0  0  0  0  0  0
    0.4692   -0.7738   -1.7219 O   0  0  0  0  0  0  0  0  0  0  0  0
   -0.6635   -0.1850    0.2108 C   0  0  0  0  0  0  0  0  0  0  0  0
   -0.1498   -0.7600    1.5285 C   0  0  0  0  0  0  0  0  0  0  0  0
   -1.2289    1.1753    0.5397 C   0  0  0  0  0  0  0  0  0  0  0  0
   -1.7143   -0.9872   -0.1791 O   0  0  0  0  0  0  0  0  0  0  0  0
   -2.3305   -0.6393   -1.3502 C   0  0  0  0  0  0  0  0  0  0  0  0
    2.5740   -1.2168    0.0373 H   0  0  0  0  0  0  0  0  0  0  0  0
    2.9788    0.1883    1.1381 H   0  0  0  0  0  0  0  0  0  0  0  0
    3.7577    0.0078   -0.5137 H   0  0  0  0  0  0  0  0  0  0  0  0
    1.9787    1.1368   -1.4416 H   0  0  0  0  0  0  0  0  0  0  0  0
    1.4217    1.5457    0.2360 H   0  0  0  0  0  0  0  0  0  0  0  0
    0.4064   -1.7023    1.2525 H   0  0  0  0  0  0  0  0  0  0  0  0
   -0.9854   -1.0912    2.1763 H   0  0  0  0  0  0  0  0  0  0  0  0
    0.4821   -0.0598    2.0790 H   0  0  0  0  0  0  0  0  0  0  0  0
   -1.3241    1.8427   -0.3209 H   0  0  0  0  0  0  0  0  0  0  0  0
   -2.2441    1.0164    0.9584 H   0  0  0  0  0  0  0  0  0  0  0  0
   -0.6495    1.6702    1.3692 H   0  0  0  0  0  0  0  0  0  0  0  0
   -2.7243    0.4041   -1.2212 H   0  0  0  0  0  0  0  0  0  0  0  0
   -1.7625   -0.7811   -2.2663 H   0  0  0  0  0  0  0  0  0  0  0  0
   -3.2730   -1.2601   -1.4116 H   0  0  0  0  0  0  0  0  0  0  0  0
  1  2  1  0
  2  3  1  0
  3  4  2  0
  3  5  1  0
  5  6  1  0
  5  7  1  0
  5  8  1  0
  8  9  1  0
  1 10  1  0
  1 11  1  0
  1 12  1  0
  2 13  1  0
  2 14  1  0
  6 15  1  0
  6 16  1  0
  6 17  1  0
  7 18  1  0
  7 19  1  0
  7 20  1  0
  9 21  1  0
  9 22  1  0
  9 23  1  0
M  END
