
     RDKit          3D

 25 24  0  0  0  0  0  0  0  0999 V2000
    3.1192    0.1348    0.1066 C   0  0  0  0  0  0  0  0  0  0  0  0
    1.6929    0.1937   -0.3934 C   0  0  0  0  0  0  0  0  0  0  0  0
    0.7797   -0.3047    0.7050 C   0  0  0  0  0  0  0  0  0  0  0  0
    0.9397    0.5177    1.8204 O   0  0  0  0  0  0  0  0  0  0  0  0
   -0.6766   -0.2066    0.2976 C   0  0  0  0  0  0  0  0  0  0  0  0
   -1.4856   -0.6760    1.4891 C   0  0  0  0  0  0  0  0  0  0  0  0
   -0.9815   -1.0962   -0.8885 C   0  0  0  0  0  0  0  0  0  0  0  0
   -0.9190    1.1345    0.0006 O   0  0  0  0  0  0  0  0  0  0  0  0
   -2.2313    1.3424   -0.3872 C   0  0  0  0  0  0  0  0  0  0  0  0
    3.1713   -0.5569    0.9710 H   0  0  0  0  0  0  0  0  0  0  0  0
    3.8158   -0.2734   -0.6552 H   0  0  0  0  0  0  0  0  0  0  0  0
    3.4305    1.1518    0.4631 H   0  0  0  0  0  0  0  0  0  0  0  0
    1.3751    1.2126   -0.6532 H   0  0  0  0  0  0  0  0  0  0  0  0
    1.6415   -0.4696   -1.2815 H   0  0  0  0  0  0  0  0  0  0  0  0
    1.0689   -1.3464    0.9602 H   0  0  0  0  0  0  0  0  0  0  0  0
    1.0529    1.4508    1.4546 H   0  0  0  0  0  0  0  0  0  0  0  0
   -2.5591   -0.7511    1.2681 H   0  0  0  0  0  0  0  0  0  0  0  0
   -1.0489   -1.6731    1.7864 H   0  0  0  0  0  0  0  0  0  0  0  0
   -1.2944    0.0040    2.3360 H   0  0  0  0  0  0  0  0  0  0  0  0
   -0.5303   -2.0892   -0.6674 H   0  0  0  0  0  0  0  0  0  0  0  0
   -0.6305   -0.6686   -1.8329 H   0  0  0  0  0  0  0  0  0  0  0  0
   -2.0834   -1.2582   -0.9121 H   0  0  0  0  0  0  0  0  0  0  0  0
   -2.9442    1.0572    0.3881 H   0  0  0  0  0  0  0  0  0  0  0  0
   -2.3673    0.7514   -1.3400 H   0  0  0  0  0  0  0  0  0  0  0  0
   -2.3353    2.4189   -0.6418 H   0  0  0  0  0  0  0  0  0  0  0  0
  1  2  1  0
  2  3  1  0
  3  4  1  0
  3  5  1  0
  5  6  1  0
  5  7  1  0
  5  8  1  0
  8  9  1  0
  1 10  1  0
  1 11  1  0
  1 12  1  0
  2 13  1  0
  2 14  1  0
  3 15  1  0
  4 16  1  0
  6 17  1  0
  6 18  1  0
  6 19  1  0
  7 20  1  0
  7 21  1  0
  7 22  1  0
  9 23  1  0
  9 24  1  0
  9 25  1  0
M  END
