
     RDKit          3D

 27 26  0  0  0  0  0  0  0  0999 V2000
   -3.3488   -0.1016    0.7702 C   0  0  0  0  0  0  0  0  0  0  0  0
   -2.1936   -0.8716    0.1555 C   0  0  0  0  0  0  0  0  0  0  0  0
   -1.1289    0.1593   -0.2167 C   0  0  0  0  0  0  0  0  0  0  0  0
   -1.7749    1.1058   -1.2039 C   0  0  0  0  0  0  0  0  0  0  0  0
    0.0028   -0.4457   -0.7306 O   0  0  0  0  0  0  0  0  0  0  0  0
    1.1262   -0.2187    0.0499 C   0  0  0  0  0  0  0  0  0  0  0  0
    1.7183   -1.5062    0.5882 C   0  0  0  0  0  0  0  0  0  0  0  0
    2.2220    0.4909   -0.6953 C   0  0  0  0  0  0  0  0  0  0  0  0
    3.3791    0.6815    0.2417 C   0  0  0  0  0  0  0  0  0  0  0  0
   -3.6738   -0.5864    1.7111 H   0  0  0  0  0  0  0  0  0  0  0  0
   -4.2255   -0.0951    0.0910 H   0  0  0  0  0  0  0  0  0  0  0  0
   -3.0939    0.9518    0.9693 H   0  0  0  0  0  0  0  0  0  0  0  0
   -1.7995   -1.6345    0.8402 H   0  0  0  0  0  0  0  0  0  0  0  0
   -2.5616   -1.3488   -0.7768 H   0  0  0  0  0  0  0  0  0  0  0  0
   -0.8567    0.6865    0.7089 H   0  0  0  0  0  0  0  0  0  0  0  0
   -1.4418    2.1541   -1.0650 H   0  0  0  0  0  0  0  0  0  0  0  0
   -1.5649    0.8070   -2.2484 H   0  0  0  0  0  0  0  0  0  0  0  0
   -2.8820    1.1173   -1.0648 H   0  0  0  0  0  0  0  0  0  0  0  0
    0.8290    0.4093    0.9167 H   0  0  0  0  0  0  0  0  0  0  0  0
    2.2527   -2.0091   -0.2544 H   0  0  0  0  0  0  0  0  0  0  0  0
    0.9580   -2.1585    1.0576 H   0  0  0  0  0  0  0  0  0  0  0  0
    2.5031   -1.2061    1.3140 H   0  0  0  0  0  0  0  0  0  0  0  0
    1.9219    1.4864   -1.0683 H   0  0  0  0  0  0  0  0  0  0  0  0
    2.5260   -0.1253   -1.5674 H   0  0  0  0  0  0  0  0  0  0  0  0
    4.1294   -0.1326    0.1571 H   0  0  0  0  0  0  0  0  0  0  0  0
    3.0629    0.7556    1.3153 H   0  0  0  0  0  0  0  0  0  0  0  0
    3.9143    1.6345    0.0046 H   0  0  0  0  0  0  0  0  0  0  0  0
  1  2  1  0
  2  3  1  0
  3  4  1  0
  3  5  1  0
  5  6  1  0
  6  7  1  0
  6  8  1  0
  8  9  1  0
  1 10  1  0
  1 11  1  0
  1 12  1  0
  2 13  1  0
  2 14  1  0
  3 15  1  0
  4 16  1  0
  4 17  1  0
  4 18  1  0
  6 19  1  0
  7 20  1  0
  7 21  1  0
  7 22  1  0
  8 23  1  0
  8 24  1  0
  9 25  1  0
  9 26  1  0
  9 27  1  0
M  END
