
     RDKit          3D

 25 24  0  0  0  0  0  0  0  0999 V2000
   -1.7443    1.7119    0.5601 C   0  0  0  0  0  0  0  0  0  0  0  0
   -1.6215    0.7397   -0.6030 C   0  0  0  0  0  0  0  0  0  0  0  0
   -0.5886   -0.3434   -0.2672 C   0  0  0  0  0  0  0  0  0  0  0  0
   -0.5258   -1.2648   -1.4672 C   0  0  0  0  0  0  0  0  0  0  0  0
   -1.1113   -1.1711    0.8867 C   0  0  0  0  0  0  0  0  0  0  0  0
    0.5842    0.2980    0.0016 O   0  0  0  0  0  0  0  0  0  0  0  0
    1.6450   -0.4886    0.3270 C   0  0  0  0  0  0  0  0  0  0  0  0
    2.8419    0.4321    0.5853 C   0  0  0  0  0  0  0  0  0  0  0  0
    3.1355    1.1807   -0.5573 O   0  0  0  0  0  0  0  0  0  0  0  0
   -2.2449    1.2666    1.4322 H   0  0  0  0  0  0  0  0  0  0  0  0
   -2.3904    2.5456    0.2050 H   0  0  0  0  0  0  0  0  0  0  0  0
   -0.7536    2.0821    0.8877 H   0  0  0  0  0  0  0  0  0  0  0  0
   -1.2796    1.3239   -1.4736 H   0  0  0  0  0  0  0  0  0  0  0  0
   -2.6081    0.3071   -0.7701 H   0  0  0  0  0  0  0  0  0  0  0  0
   -0.2277   -2.2744   -1.0858 H   0  0  0  0  0  0  0  0  0  0  0  0
    0.1417   -0.9012   -2.2549 H   0  0  0  0  0  0  0  0  0  0  0  0
   -1.5879   -1.3573   -1.8330 H   0  0  0  0  0  0  0  0  0  0  0  0
   -1.4252   -0.5836    1.7436 H   0  0  0  0  0  0  0  0  0  0  0  0
   -2.0155   -1.7181    0.4890 H   0  0  0  0  0  0  0  0  0  0  0  0
   -0.3608   -1.9517    1.1025 H   0  0  0  0  0  0  0  0  0  0  0  0
    1.4715   -1.0309    1.2681 H   0  0  0  0  0  0  0  0  0  0  0  0
    1.9714   -1.2033   -0.4370 H   0  0  0  0  0  0  0  0  0  0  0  0
    3.7179   -0.2161    0.7782 H   0  0  0  0  0  0  0  0  0  0  0  0
    2.6588    1.0796    1.4691 H   0  0  0  0  0  0  0  0  0  0  0  0
    2.3176    1.5372   -0.9868 H   0  0  0  0  0  0  0  0  0  0  0  0
  1  2  1  0
  2  3  1  0
  3  4  1  0
  3  5  1  0
  3  6  1  0
  6  7  1  0
  7  8  1  0
  8  9  1  0
  1 10  1  0
  1 11  1  0
  1 12  1  0
  2 13  1  0
  2 14  1  0
  4 15  1  0
  4 16  1  0
  4 17  1  0
  5 18  1  0
  5 19  1  0
  5 20  1  0
  7 21  1  0
  7 22  1  0
  8 23  1  0
  8 24  1  0
  9 25  1  0
M  END
