
     RDKit          3D

 23 23  0  0  0  0  0  0  0  0999 V2000
    2.6019   -1.0788    0.5863 C   0  0  0  0  0  0  0  0  0  0  0  0
    1.5486   -0.7104   -0.4381 C   0  0  0  0  0  0  0  0  0  0  0  0
    0.5134    0.1217    0.2496 C   0  0  0  0  0  0  0  0  0  0  0  0
    1.1876    1.3368    0.7855 C   0  0  0  0  0  0  0  0  0  0  0  0
    2.3076    1.6838    0.4648 O   0  0  0  0  0  0  0  0  0  0  0  0
   -0.5883    0.5918   -0.6610 C   0  0  0  0  0  0  0  0  0  0  0  0
   -1.6315    1.4383    0.0638 C   0  0  0  0  0  0  0  0  0  0  0  0
   -1.9613    0.1048   -0.5737 C   0  0  0  0  0  0  0  0  0  0  0  0
   -2.4039   -0.9798    0.3537 C   0  0  0  0  0  0  0  0  0  0  0  0
    2.7838   -2.1665    0.5860 H   0  0  0  0  0  0  0  0  0  0  0  0
    3.5767   -0.5887    0.3934 H   0  0  0  0  0  0  0  0  0  0  0  0
    2.3055   -0.7881    1.6155 H   0  0  0  0  0  0  0  0  0  0  0  0
    2.0698   -0.1042   -1.2177 H   0  0  0  0  0  0  0  0  0  0  0  0
    1.1215   -1.6419   -0.8807 H   0  0  0  0  0  0  0  0  0  0  0  0
    0.0721   -0.5015    1.0642 H   0  0  0  0  0  0  0  0  0  0  0  0
    0.6546    1.9490    1.5014 H   0  0  0  0  0  0  0  0  0  0  0  0
   -0.2398    1.0357   -1.6028 H   0  0  0  0  0  0  0  0  0  0  0  0
   -1.9768    2.3717   -0.4080 H   0  0  0  0  0  0  0  0  0  0  0  0
   -1.6285    1.4648    1.1647 H   0  0  0  0  0  0  0  0  0  0  0  0
   -2.5845    0.2119   -1.4938 H   0  0  0  0  0  0  0  0  0  0  0  0
   -2.8557   -0.4793    1.2580 H   0  0  0  0  0  0  0  0  0  0  0  0
   -3.2498   -1.5759   -0.0851 H   0  0  0  0  0  0  0  0  0  0  0  0
   -1.6229   -1.6952    0.6253 H   0  0  0  0  0  0  0  0  0  0  0  0
  1  2  1  0
  2  3  1  0
  3  4  1  0
  4  5  2  0
  3  6  1  0
  6  7  1  0
  7  8  1  0
  8  9  1  0
  8  6  1  0
  1 10  1  0
  1 11  1  0
  1 12  1  0
  2 13  1  0
  2 14  1  0
  3 15  1  0
  4 16  1  0
  6 17  1  0
  7 18  1  0
  7 19  1  0
  8 20  1  0
  9 21  1  0
  9 22  1  0
  9 23  1  0
M  END
