
     RDKit          3D

 23 22  0  0  0  0  0  0  0  0999 V2000
    3.0432    0.2545    0.0505 C   0  0  0  0  0  0  0  0  0  0  0  0
    1.7203   -0.2045   -0.4651 C   0  0  0  0  0  0  0  0  0  0  0  0
    0.5938    0.2696    0.3864 C   0  0  0  0  0  0  0  0  0  0  0  0
    0.8763    0.9472    1.3606 O   0  0  0  0  0  0  0  0  0  0  0  0
   -0.8117   -0.0717    0.0577 C   0  0  0  0  0  0  0  0  0  0  0  0
   -1.2492    0.4249   -1.2850 C   0  0  0  0  0  0  0  0  0  0  0  0
   -0.9705   -1.5998    0.0027 C   0  0  0  0  0  0  0  0  0  0  0  0
   -1.7029    0.3818    1.1800 C   0  0  0  0  0  0  0  0  0  0  0  0
   -1.6648    1.7234    1.4305 O   0  0  0  0  0  0  0  0  0  0  0  0
    2.9447    1.0765    0.8187 H   0  0  0  0  0  0  0  0  0  0  0  0
    3.6565   -0.5725    0.4865 H   0  0  0  0  0  0  0  0  0  0  0  0
    3.6101    0.7067   -0.7981 H   0  0  0  0  0  0  0  0  0  0  0  0
    1.5287    0.1693   -1.5011 H   0  0  0  0  0  0  0  0  0  0  0  0
    1.7109   -1.3288   -0.4770 H   0  0  0  0  0  0  0  0  0  0  0  0
   -2.1424   -0.1845   -1.6066 H   0  0  0  0  0  0  0  0  0  0  0  0
   -1.5728    1.4679   -1.3094 H   0  0  0  0  0  0  0  0  0  0  0  0
   -0.4408    0.3021   -2.0161 H   0  0  0  0  0  0  0  0  0  0  0  0
   -0.4581   -2.0024   -0.9100 H   0  0  0  0  0  0  0  0  0  0  0  0
   -2.0442   -1.8232   -0.1397 H   0  0  0  0  0  0  0  0  0  0  0  0
   -0.5881   -2.0817    0.9005 H   0  0  0  0  0  0  0  0  0  0  0  0
   -2.7162   -0.0251    1.0080 H   0  0  0  0  0  0  0  0  0  0  0  0
   -1.3289   -0.1317    2.1076 H   0  0  0  0  0  0  0  0  0  0  0  0
   -1.9940    2.3022    0.7181 H   0  0  0  0  0  0  0  0  0  0  0  0
  1  2  1  0
  2  3  1  0
  3  4  2  0
  3  5  1  0
  5  6  1  0
  5  7  1  0
  5  8  1  0
  8  9  1  0
  1 10  1  0
  1 11  1  0
  1 12  1  0
  2 13  1  0
  2 14  1  0
  6 15  1  0
  6 16  1  0
  6 17  1  0
  7 18  1  0
  7 19  1  0
  7 20  1  0
  8 21  1  0
  8 22  1  0
  9 23  1  0
M  END
