
     RDKit          3D

 21 21  0  0  0  0  0  0  0  0999 V2000
    3.7006   -0.4616    0.1455 C   0  0  0  0  0  0  0  0  0  0  0  0
    2.2764   -0.8274    0.4304 C   0  0  0  0  0  0  0  0  0  0  0  0
    1.3351    0.0289   -0.3092 C   0  0  0  0  0  0  0  0  0  0  0  0
    1.8230    0.9191   -1.0531 O   0  0  0  0  0  0  0  0  0  0  0  0
   -0.0522   -0.1156   -0.2107 O   0  0  0  0  0  0  0  0  0  0  0  0
   -0.8374    0.7679   -0.9707 C   0  0  0  0  0  0  0  0  0  0  0  0
   -2.3039    0.5594   -0.8196 C   0  0  0  0  0  0  0  0  0  0  0  0
   -3.0010    0.6735    0.4717 C   0  0  0  0  0  0  0  0  0  0  0  0
   -2.8665   -0.6794   -0.2315 C   0  0  0  0  0  0  0  0  0  0  0  0
    4.3043   -1.3783   -0.1194 H   0  0  0  0  0  0  0  0  0  0  0  0
    3.7990    0.2664   -0.6955 H   0  0  0  0  0  0  0  0  0  0  0  0
    4.2213   -0.0326    1.0303 H   0  0  0  0  0  0  0  0  0  0  0  0
    2.1018   -0.6216    1.5240 H   0  0  0  0  0  0  0  0  0  0  0  0
    2.1387   -1.9062    0.2188 H   0  0  0  0  0  0  0  0  0  0  0  0
   -0.5531    0.7274   -2.0360 H   0  0  0  0  0  0  0  0  0  0  0  0
   -0.6131    1.8160   -0.6202 H   0  0  0  0  0  0  0  0  0  0  0  0
   -2.8941    0.9502   -1.7015 H   0  0  0  0  0  0  0  0  0  0  0  0
   -2.4954    0.7369    1.4363 H   0  0  0  0  0  0  0  0  0  0  0  0
   -4.0368    1.1176    0.5025 H   0  0  0  0  0  0  0  0  0  0  0  0
   -3.8130   -1.0980   -0.6317 H   0  0  0  0  0  0  0  0  0  0  0  0
   -2.2335   -1.4426    0.2552 H   0  0  0  0  0  0  0  0  0  0  0  0
  1  2  1  0
  2  3  1  0
  3  4  2  0
  3  5  1  0
  5  6  1  0
  6  7  1  0
  7  8  1  0
  8  9  1  0
  9  7  1  0
  1 10  1  0
  1 11  1  0
  1 12  1  0
  2 13  1  0
  2 14  1  0
  6 15  1  0
  6 16  1  0
  7 17  1  0
  8 18  1  0
  8 19  1  0
  9 20  1  0
  9 21  1  0
M  END
