
     RDKit          3D

 24 24  0  0  0  0  0  0  0  0999 V2000
    1.8696    0.9341    0.7629 C   0  0  0  0  0  0  0  0  0  0  0  0
    1.4049    0.3186   -0.5069 C   0  0  0  0  0  0  0  0  0  0  0  0
    0.0992   -0.3928   -0.4692 C   0  0  0  0  0  0  0  0  0  0  0  0
   -0.1383   -0.9329   -1.8884 C   0  0  0  0  0  0  0  0  0  0  0  0
    0.1181   -1.6057    0.4365 C   0  0  0  0  0  0  0  0  0  0  0  0
   -1.0069    0.5505   -0.1694 C   0  0  0  0  0  0  0  0  0  0  0  0
   -1.1401    1.3567    1.0426 C   0  0  0  0  0  0  0  0  0  0  0  0
   -2.0797    0.1864    0.7724 C   0  0  0  0  0  0  0  0  0  0  0  0
    3.0027    0.9568    0.7083 H   0  0  0  0  0  0  0  0  0  0  0  0
    1.6603    0.3276    1.6637 H   0  0  0  0  0  0  0  0  0  0  0  0
    1.5252    2.0033    0.8775 H   0  0  0  0  0  0  0  0  0  0  0  0
    2.1855   -0.3789   -0.8983 H   0  0  0  0  0  0  0  0  0  0  0  0
    1.3251    1.1088   -1.2878 H   0  0  0  0  0  0  0  0  0  0  0  0
    0.2619   -0.1930   -2.6095 H   0  0  0  0  0  0  0  0  0  0  0  0
    0.4204   -1.9020   -1.9853 H   0  0  0  0  0  0  0  0  0  0  0  0
   -1.2198   -1.1324   -2.0281 H   0  0  0  0  0  0  0  0  0  0  0  0
   -0.8616   -2.1325    0.2849 H   0  0  0  0  0  0  0  0  0  0  0  0
    0.8847   -2.2959    0.0174 H   0  0  0  0  0  0  0  0  0  0  0  0
    0.2903   -1.3240    1.4768 H   0  0  0  0  0  0  0  0  0  0  0  0
   -1.3650    1.0876   -1.1071 H   0  0  0  0  0  0  0  0  0  0  0  0
   -0.4890    1.3091    1.9286 H   0  0  0  0  0  0  0  0  0  0  0  0
   -1.6542    2.3598    0.9889 H   0  0  0  0  0  0  0  0  0  0  0  0
   -3.1331    0.4232    0.4955 H   0  0  0  0  0  0  0  0  0  0  0  0
   -1.9604   -0.6323    1.4944 H   0  0  0  0  0  0  0  0  0  0  0  0
  1  2  1  0
  2  3  1  0
  3  4  1  0
  3  5  1  0
  3  6  1  0
  6  7  1  0
  7  8  1  0
  8  6  1  0
  1  9  1  0
  1 10  1  0
  1 11  1  0
  2 12  1  0
  2 13  1  0
  4 14  1  0
  4 15  1  0
  4 16  1  0
  5 17  1  0
  5 18  1  0
  5 19  1  0
  6 20  1  0
  7 21  1  0
  7 22  1  0
  8 23  1  0
  8 24  1  0
M  END
