
     RDKit          3D

 27 26  0  0  0  0  0  0  0  0999 V2000
    2.5967   -0.4680    1.5262 C   0  0  0  0  0  0  0  0  0  0  0  0
    2.4669   -0.4177    0.0292 C   0  0  0  0  0  0  0  0  0  0  0  0
    1.2380    0.3296   -0.4268 C   0  0  0  0  0  0  0  0  0  0  0  0
    1.2297    0.3047   -1.9420 C   0  0  0  0  0  0  0  0  0  0  0  0
   -0.0393   -0.3434    0.0304 C   0  0  0  0  0  0  0  0  0  0  0  0
   -1.1845    0.4993   -0.4886 C   0  0  0  0  0  0  0  0  0  0  0  0
   -2.5252   -0.0813   -0.0895 C   0  0  0  0  0  0  0  0  0  0  0  0
   -2.6735   -0.1640    1.4092 C   0  0  0  0  0  0  0  0  0  0  0  0
   -3.5513    0.7094   -0.6007 O   0  0  0  0  0  0  0  0  0  0  0  0
    1.8900    0.2212    2.0482 H   0  0  0  0  0  0  0  0  0  0  0  0
    2.4761   -1.4999    1.9166 H   0  0  0  0  0  0  0  0  0  0  0  0
    3.6164   -0.1422    1.8536 H   0  0  0  0  0  0  0  0  0  0  0  0
    2.5152   -1.4343   -0.3591 H   0  0  0  0  0  0  0  0  0  0  0  0
    3.3429    0.1321   -0.3728 H   0  0  0  0  0  0  0  0  0  0  0  0
    1.2915    1.3724   -0.1128 H   0  0  0  0  0  0  0  0  0  0  0  0
    0.6544    1.1499   -2.3767 H   0  0  0  0  0  0  0  0  0  0  0  0
    2.2575    0.3957   -2.3468 H   0  0  0  0  0  0  0  0  0  0  0  0
    0.7175   -0.6232   -2.2518 H   0  0  0  0  0  0  0  0  0  0  0  0
   -0.0214   -0.3342    1.1368 H   0  0  0  0  0  0  0  0  0  0  0  0
   -0.0617   -1.3724   -0.3801 H   0  0  0  0  0  0  0  0  0  0  0  0
   -1.1085    1.5183   -0.0665 H   0  0  0  0  0  0  0  0  0  0  0  0
   -1.1392    0.5850   -1.5858 H   0  0  0  0  0  0  0  0  0  0  0  0
   -2.6565   -1.0913   -0.5623 H   0  0  0  0  0  0  0  0  0  0  0  0
   -3.5899    0.3851    1.7667 H   0  0  0  0  0  0  0  0  0  0  0  0
   -2.7349   -1.2311    1.6876 H   0  0  0  0  0  0  0  0  0  0  0  0
   -1.8139    0.3472    1.9127 H   0  0  0  0  0  0  0  0  0  0  0  0
   -3.1931    1.2530   -1.3549 H   0  0  0  0  0  0  0  0  0  0  0  0
  1  2  1  0
  2  3  1  0
  3  4  1  0
  3  5  1  0
  5  6  1  0
  6  7  1  0
  7  8  1  0
  7  9  1  0
  1 10  1  0
  1 11  1  0
  1 12  1  0
  2 13  1  0
  2 14  1  0
  3 15  1  0
  4 16  1  0
  4 17  1  0
  4 18  1  0
  5 19  1  0
  5 20  1  0
  6 21  1  0
  6 22  1  0
  7 23  1  0
  8 24  1  0
  8 25  1  0
  8 26  1  0
  9 27  1  0
M  END
