
     RDKit          3D

 16 15  0  0  0  0  0  0  0  0999 V2000
   -2.3076    0.1860   -0.7798 C   0  0  0  0  0  0  0  0  0  0  0  0
   -1.5395   -0.4519    0.3527 C   0  0  0  0  0  0  0  0  0  0  0  0
   -0.0936   -0.5542    0.0893 C   0  0  0  0  0  0  0  0  0  0  0  0
    0.4129   -1.6897   -0.0706 O   0  0  0  0  0  0  0  0  0  0  0  0
    0.7789    0.6112    0.0032 C   0  0  0  0  0  0  0  0  0  0  0  0
    0.3333    1.7773    0.1131 O   0  0  0  0  0  0  0  0  0  0  0  0
    2.2318    0.4556   -0.2162 C   0  0  0  0  0  0  0  0  0  0  0  0
    2.5584   -0.9170   -0.2857 O   0  0  0  0  0  0  0  0  0  0  0  0
   -2.8750   -0.5460   -1.3830 H   0  0  0  0  0  0  0  0  0  0  0  0
   -1.6439    0.8337   -1.4115 H   0  0  0  0  0  0  0  0  0  0  0  0
   -3.0618    0.8709   -0.3475 H   0  0  0  0  0  0  0  0  0  0  0  0
   -1.9526   -1.4866    0.4721 H   0  0  0  0  0  0  0  0  0  0  0  0
   -1.7222    0.0871    1.2945 H   0  0  0  0  0  0  0  0  0  0  0  0
    2.5804    0.9394   -1.1436 H   0  0  0  0  0  0  0  0  0  0  0  0
    2.8080    0.8387    0.6606 H   0  0  0  0  0  0  0  0  0  0  0  0
    3.4926   -0.9544   -0.6187 H   0  0  0  0  0  0  0  0  0  0  0  0
  1  2  1  0
  2  3  1  0
  3  4  2  0
  3  5  1  0
  5  6  2  0
  5  7  1  0
  7  8  1  0
  1  9  1  0
  1 10  1  0
  1 11  1  0
  2 12  1  0
  2 13  1  0
  7 14  1  0
  7 15  1  0
  8 16  1  0
M  END
