
     RDKit          3D

 23 22  0  0  0  0  0  0  0  0999 V2000
   -1.9187   -1.4115    0.7194 C   0  0  0  0  0  0  0  0  0  0  0  0
   -1.3593   -0.0125    0.8042 C   0  0  0  0  0  0  0  0  0  0  0  0
   -0.6364    0.4263   -0.4412 C   0  0  0  0  0  0  0  0  0  0  0  0
   -0.1291    1.8141   -0.2452 C   0  0  0  0  0  0  0  0  0  0  0  0
    0.7336    2.0170    0.7919 O   0  0  0  0  0  0  0  0  0  0  0  0
    0.2526   -0.5617   -1.0603 C   0  0  0  0  0  0  0  0  0  0  0  0
    1.3850   -1.1013   -0.2982 C   0  0  0  0  0  0  0  0  0  0  0  0
    2.4185   -0.1296    0.1376 C   0  0  0  0  0  0  0  0  0  0  0  0
    3.0117    0.6065   -0.6664 O   0  0  0  0  0  0  0  0  0  0  0  0
   -2.1611   -1.7214    1.7590 H   0  0  0  0  0  0  0  0  0  0  0  0
   -1.2073   -2.1086    0.2384 H   0  0  0  0  0  0  0  0  0  0  0  0
   -2.8492   -1.3470    0.0886 H   0  0  0  0  0  0  0  0  0  0  0  0
   -0.7383    0.0217    1.7113 H   0  0  0  0  0  0  0  0  0  0  0  0
   -2.2171    0.6889    1.0107 H   0  0  0  0  0  0  0  0  0  0  0  0
   -1.4858    0.5564   -1.1947 H   0  0  0  0  0  0  0  0  0  0  0  0
    0.3434    2.2351   -1.1727 H   0  0  0  0  0  0  0  0  0  0  0  0
   -1.0212    2.4832   -0.0742 H   0  0  0  0  0  0  0  0  0  0  0  0
    1.5008    2.6117    0.5699 H   0  0  0  0  0  0  0  0  0  0  0  0
    0.6708   -0.0820   -1.9844 H   0  0  0  0  0  0  0  0  0  0  0  0
   -0.3500   -1.4078   -1.4552 H   0  0  0  0  0  0  0  0  0  0  0  0
    1.1279   -1.7384    0.5722 H   0  0  0  0  0  0  0  0  0  0  0  0
    1.9358   -1.8091   -0.9945 H   0  0  0  0  0  0  0  0  0  0  0  0
    2.6934   -0.0300    1.1837 H   0  0  0  0  0  0  0  0  0  0  0  0
  1  2  1  0
  2  3  1  0
  3  4  1  0
  4  5  1  0
  3  6  1  0
  6  7  1  0
  7  8  1  0
  8  9  2  0
  1 10  1  0
  1 11  1  0
  1 12  1  0
  2 13  1  0
  2 14  1  0
  3 15  1  0
  4 16  1  0
  4 17  1  0
  5 18  1  0
  6 19  1  0
  6 20  1  0
  7 21  1  0
  7 22  1  0
  8 23  1  0
M  END
