
     RDKit          3D

 20 19  0  0  0  0  0  0  0  0999 V2000
   -2.3267    0.7408   -0.0936 C   0  0  0  0  0  0  0  0  0  0  0  0
   -1.1553    0.4448    0.7816 C   0  0  0  0  0  0  0  0  0  0  0  0
   -0.0354   -0.2732    0.0583 C   0  0  0  0  0  0  0  0  0  0  0  0
   -0.4671   -1.5937   -0.5067 C   0  0  0  0  0  0  0  0  0  0  0  0
    0.5077    0.5974   -0.8781 O   0  0  0  0  0  0  0  0  0  0  0  0
    1.8008    0.9339   -0.5388 C   0  0  0  0  0  0  0  0  0  0  0  0
    2.7324   -0.2147   -0.4597 C   0  0  0  0  0  0  0  0  0  0  0  0
    2.3435   -1.3314   -0.6865 O   0  0  0  0  0  0  0  0  0  0  0  0
   -2.9938   -0.1188   -0.2772 H   0  0  0  0  0  0  0  0  0  0  0  0
   -1.9734    1.2027   -1.0233 H   0  0  0  0  0  0  0  0  0  0  0  0
   -2.9573    1.4991    0.4460 H   0  0  0  0  0  0  0  0  0  0  0  0
   -0.7301    1.4262    1.1009 H   0  0  0  0  0  0  0  0  0  0  0  0
   -1.4367   -0.0759    1.7215 H   0  0  0  0  0  0  0  0  0  0  0  0
    0.7425   -0.4705    0.8234 H   0  0  0  0  0  0  0  0  0  0  0  0
   -1.5723   -1.6661   -0.3229 H   0  0  0  0  0  0  0  0  0  0  0  0
   -0.0446   -2.4757    0.0163 H   0  0  0  0  0  0  0  0  0  0  0  0
   -0.2259   -1.6759   -1.5733 H   0  0  0  0  0  0  0  0  0  0  0  0
    1.8757    1.4723    0.4274 H   0  0  0  0  0  0  0  0  0  0  0  0
    2.1439    1.6750   -1.3168 H   0  0  0  0  0  0  0  0  0  0  0  0
    3.7722   -0.0964   -0.2014 H   0  0  0  0  0  0  0  0  0  0  0  0
  1  2  1  0
  2  3  1  0
  3  4  1  0
  3  5  1  0
  5  6  1  0
  6  7  1  0
  7  8  2  0
  1  9  1  0
  1 10  1  0
  1 11  1  0
  2 12  1  0
  2 13  1  0
  3 14  1  0
  4 15  1  0
  4 16  1  0
  4 17  1  0
  6 18  1  0
  6 19  1  0
  7 20  1  0
M  END
