
     RDKit          3D

 23 23  0  0  0  0  0  0  0  0999 V2000
    2.1235   -0.8609    0.5725 C   0  0  0  0  0  0  0  0  0  0  0  0
    1.6882    0.3460   -0.1879 C   0  0  0  0  0  0  0  0  0  0  0  0
    0.3564    0.1566   -0.8758 C   0  0  0  0  0  0  0  0  0  0  0  0
    0.0571    1.4394   -1.5900 C   0  0  0  0  0  0  0  0  0  0  0  0
   -0.4149    1.4643   -2.7162 O   0  0  0  0  0  0  0  0  0  0  0  0
   -0.7652   -0.0457    0.1236 C   0  0  0  0  0  0  0  0  0  0  0  0
   -1.0404    1.0333    1.1174 C   0  0  0  0  0  0  0  0  0  0  0  0
   -1.0673   -1.4379    0.5132 C   0  0  0  0  0  0  0  0  0  0  0  0
   -2.0272   -0.7324   -0.4151 C   0  0  0  0  0  0  0  0  0  0  0  0
    2.3113   -1.7395   -0.0905 H   0  0  0  0  0  0  0  0  0  0  0  0
    3.0841   -0.6238    1.0697 H   0  0  0  0  0  0  0  0  0  0  0  0
    1.4154   -1.1300    1.3843 H   0  0  0  0  0  0  0  0  0  0  0  0
    2.4536    0.5702   -0.9587 H   0  0  0  0  0  0  0  0  0  0  0  0
    1.6328    1.1958    0.4908 H   0  0  0  0  0  0  0  0  0  0  0  0
    0.3709   -0.6820   -1.5935 H   0  0  0  0  0  0  0  0  0  0  0  0
    0.2549    2.3952   -1.1180 H   0  0  0  0  0  0  0  0  0  0  0  0
   -0.2418    1.8176    1.1517 H   0  0  0  0  0  0  0  0  0  0  0  0
   -1.2657    0.6523    2.1387 H   0  0  0  0  0  0  0  0  0  0  0  0
   -1.9711    1.5765    0.8016 H   0  0  0  0  0  0  0  0  0  0  0  0
   -0.5692   -2.3055    0.0363 H   0  0  0  0  0  0  0  0  0  0  0  0
   -1.3384   -1.6075    1.5614 H   0  0  0  0  0  0  0  0  0  0  0  0
   -2.0537   -0.9964   -1.4782 H   0  0  0  0  0  0  0  0  0  0  0  0
   -2.9934   -0.4856    0.0627 H   0  0  0  0  0  0  0  0  0  0  0  0
  1  2  1  0
  2  3  1  0
  3  4  1  0
  4  5  2  0
  3  6  1  0
  6  7  1  0
  6  8  1  0
  8  9  1  0
  9  6  1  0
  1 10  1  0
  1 11  1  0
  1 12  1  0
  2 13  1  0
  2 14  1  0
  3 15  1  0
  4 16  1  0
  7 17  1  0
  7 18  1  0
  7 19  1  0
  8 20  1  0
  8 21  1  0
  9 22  1  0
  9 23  1  0
M  END
