
     RDKit          3D

 20 19  0  0  0  0  0  0  0  0999 V2000
    2.4726   -0.2689    0.3661 C   0  0  0  0  0  0  0  0  0  0  0  0
    1.3722    0.5185   -0.2763 C   0  0  0  0  0  0  0  0  0  0  0  0
   -0.0021    0.1443    0.2221 C   0  0  0  0  0  0  0  0  0  0  0  0
   -0.9162    0.9485   -0.4552 O   0  0  0  0  0  0  0  0  0  0  0  0
   -1.6297    1.7827    0.4005 C   0  0  0  0  0  0  0  0  0  0  0  0
   -0.3608   -1.2507   -0.0208 C   0  0  0  0  0  0  0  0  0  0  0  0
   -1.5218   -1.6231   -0.8623 C   0  0  0  0  0  0  0  0  0  0  0  0
    0.2896   -2.1596    0.4656 O   0  0  0  0  0  0  0  0  0  0  0  0
    2.6261   -1.2682   -0.0554 H   0  0  0  0  0  0  0  0  0  0  0  0
    3.4248    0.2964    0.1908 H   0  0  0  0  0  0  0  0  0  0  0  0
    2.3248   -0.2909    1.4568 H   0  0  0  0  0  0  0  0  0  0  0  0
    1.5349    1.5876    0.0408 H   0  0  0  0  0  0  0  0  0  0  0  0
    1.4145    0.4886   -1.3753 H   0  0  0  0  0  0  0  0  0  0  0  0
   -0.0970    0.3988    1.2967 H   0  0  0  0  0  0  0  0  0  0  0  0
   -2.1782    1.1109    1.1161 H   0  0  0  0  0  0  0  0  0  0  0  0
   -0.9559    2.4202    1.0253 H   0  0  0  0  0  0  0  0  0  0  0  0
   -2.3382    2.3520   -0.2043 H   0  0  0  0  0  0  0  0  0  0  0  0
   -1.2271   -2.3295   -1.6902 H   0  0  0  0  0  0  0  0  0  0  0  0
   -2.3150   -2.1411   -0.2911 H   0  0  0  0  0  0  0  0  0  0  0  0
   -1.9174   -0.7164   -1.3500 H   0  0  0  0  0  0  0  0  0  0  0  0
  1  2  1  0
  2  3  1  0
  3  4  1  0
  4  5  1  0
  3  6  1  0
  6  7  1  0
  6  8  2  0
  1  9  1  0
  1 10  1  0
  1 11  1  0
  2 12  1  0
  2 13  1  0
  3 14  1  0
  5 15  1  0
  5 16  1  0
  5 17  1  0
  7 18  1  0
  7 19  1  0
  7 20  1  0
M  END
