
     RDKit          3D

 23 22  0  0  0  0  0  0  0  0999 V2000
   -0.4625    2.2593   -0.1468 C   0  0  0  0  0  0  0  0  0  0  0  0
   -0.8624    0.9208   -0.6838 C   0  0  0  0  0  0  0  0  0  0  0  0
   -0.0860   -0.1712   -0.0042 C   0  0  0  0  0  0  0  0  0  0  0  0
   -0.3068   -0.2327    1.4466 C   0  0  0  0  0  0  0  0  0  0  0  0
   -0.1579    0.6119    2.2744 O   0  0  0  0  0  0  0  0  0  0  0  0
    1.3837    0.1407   -0.2559 C   0  0  0  0  0  0  0  0  0  0  0  0
    2.2867   -0.8878    0.3754 C   0  0  0  0  0  0  0  0  0  0  0  0
   -0.3655   -1.4083   -0.6130 O   0  0  0  0  0  0  0  0  0  0  0  0
   -1.6822   -1.7539   -0.5418 C   0  0  0  0  0  0  0  0  0  0  0  0
    0.0814    2.2692    0.7908 H   0  0  0  0  0  0  0  0  0  0  0  0
   -1.3812    2.9101   -0.0339 H   0  0  0  0  0  0  0  0  0  0  0  0
    0.1803    2.7555   -0.9228 H   0  0  0  0  0  0  0  0  0  0  0  0
   -0.5867    0.8311   -1.7775 H   0  0  0  0  0  0  0  0  0  0  0  0
   -1.9631    0.8013   -0.5550 H   0  0  0  0  0  0  0  0  0  0  0  0
   -0.6662   -1.2068    1.8422 H   0  0  0  0  0  0  0  0  0  0  0  0
    1.5904    0.2191   -1.3261 H   0  0  0  0  0  0  0  0  0  0  0  0
    1.6011    1.1029    0.2289 H   0  0  0  0  0  0  0  0  0  0  0  0
    3.3278   -0.5456    0.2004 H   0  0  0  0  0  0  0  0  0  0  0  0
    2.1053   -0.9408    1.4577 H   0  0  0  0  0  0  0  0  0  0  0  0
    2.1651   -1.8401   -0.1500 H   0  0  0  0  0  0  0  0  0  0  0  0
   -2.3988   -1.0823   -1.0206 H   0  0  0  0  0  0  0  0  0  0  0  0
   -1.7918   -2.7362   -1.0904 H   0  0  0  0  0  0  0  0  0  0  0  0
   -2.0107   -2.0161    0.5055 H   0  0  0  0  0  0  0  0  0  0  0  0
  1  2  1  0
  2  3  1  0
  3  4  1  0
  4  5  2  0
  3  6  1  0
  6  7  1  0
  3  8  1  0
  8  9  1  0
  1 10  1  0
  1 11  1  0
  1 12  1  0
  2 13  1  0
  2 14  1  0
  4 15  1  0
  6 16  1  0
  6 17  1  0
  7 18  1  0
  7 19  1  0
  7 20  1  0
  9 21  1  0
  9 22  1  0
  9 23  1  0
M  END
