
     RDKit          3D

 22 21  0  0  0  0  0  0  0  0999 V2000
   -2.3854   -1.0146   -0.2813 C   0  0  0  0  0  0  0  0  0  0  0  0
   -1.0428   -0.8357    0.3939 C   0  0  0  0  0  0  0  0  0  0  0  0
   -0.1909    0.1448   -0.3986 C   0  0  0  0  0  0  0  0  0  0  0  0
   -0.9245    1.4637   -0.4479 C   0  0  0  0  0  0  0  0  0  0  0  0
   -1.1065    1.9091    0.8606 O   0  0  0  0  0  0  0  0  0  0  0  0
    1.1823    0.2957    0.2207 C   0  0  0  0  0  0  0  0  0  0  0  0
    1.8511   -0.9052    0.2552 O   0  0  0  0  0  0  0  0  0  0  0  0
    3.1043   -0.8388    0.8053 C   0  0  0  0  0  0  0  0  0  0  0  0
   -2.8469   -1.9222    0.1842 H   0  0  0  0  0  0  0  0  0  0  0  0
   -2.2964   -1.0957   -1.3776 H   0  0  0  0  0  0  0  0  0  0  0  0
   -3.0732   -0.1775   -0.0342 H   0  0  0  0  0  0  0  0  0  0  0  0
   -0.5296   -1.8100    0.5284 H   0  0  0  0  0  0  0  0  0  0  0  0
   -1.2457   -0.4544    1.4163 H   0  0  0  0  0  0  0  0  0  0  0  0
   -0.0558   -0.2654   -1.4131 H   0  0  0  0  0  0  0  0  0  0  0  0
   -0.3424    2.2255   -1.0053 H   0  0  0  0  0  0  0  0  0  0  0  0
   -1.9189    1.2686   -0.8945 H   0  0  0  0  0  0  0  0  0  0  0  0
   -1.3866    2.8741    0.8353 H   0  0  0  0  0  0  0  0  0  0  0  0
    1.7888    1.0615   -0.2543 H   0  0  0  0  0  0  0  0  0  0  0  0
    1.0427    0.6144    1.2950 H   0  0  0  0  0  0  0  0  0  0  0  0
    3.5427   -1.8615    0.7785 H   0  0  0  0  0  0  0  0  0  0  0  0
    3.0510   -0.5615    1.8977 H   0  0  0  0  0  0  0  0  0  0  0  0
    3.7828   -0.1150    0.3080 H   0  0  0  0  0  0  0  0  0  0  0  0
  1  2  1  0
  2  3  1  0
  3  4  1  0
  4  5  1  0
  3  6  1  0
  6  7  1  0
  7  8  1  0
  1  9  1  0
  1 10  1  0
  1 11  1  0
  2 12  1  0
  2 13  1  0
  3 14  1  0
  4 15  1  0
  4 16  1  0
  5 17  1  0
  6 18  1  0
  6 19  1  0
  8 20  1  0
  8 21  1  0
  8 22  1  0
M  END
