
     RDKit          3D

 19 20  0  0  0  0  0  0  0  0999 V2000
   -2.0642    0.6301    0.9183 C   0  0  0  0  0  0  0  0  0  0  0  0
   -1.5607   -0.1820   -0.2479 C   0  0  0  0  0  0  0  0  0  0  0  0
   -0.6681    0.6818   -1.0656 C   0  0  0  0  0  0  0  0  0  0  0  0
   -1.2261    1.4794   -1.8018 O   0  0  0  0  0  0  0  0  0  0  0  0
    0.8205    0.6073   -1.0160 C   0  0  0  0  0  0  0  0  0  0  0  0
    1.3750    0.3496    0.3089 C   0  0  0  0  0  0  0  0  0  0  0  0
    1.7662   -1.0327    0.8523 C   0  0  0  0  0  0  0  0  0  0  0  0
    2.6762   -0.9511   -0.2384 O   0  0  0  0  0  0  0  0  0  0  0  0
    1.5070   -0.6338   -0.9228 C   0  0  0  0  0  0  0  0  0  0  0  0
   -2.0686    1.6948    0.6049 H   0  0  0  0  0  0  0  0  0  0  0  0
   -3.1379    0.3821    1.1302 H   0  0  0  0  0  0  0  0  0  0  0  0
   -1.4414    0.4631    1.8290 H   0  0  0  0  0  0  0  0  0  0  0  0
   -2.4716   -0.4096   -0.8770 H   0  0  0  0  0  0  0  0  0  0  0  0
   -1.1503   -1.1424    0.0309 H   0  0  0  0  0  0  0  0  0  0  0  0
    1.2831    1.3600   -1.7304 H   0  0  0  0  0  0  0  0  0  0  0  0
    2.2877    1.0071    0.4750 H   0  0  0  0  0  0  0  0  0  0  0  0
    1.0138   -1.8103    0.7704 H   0  0  0  0  0  0  0  0  0  0  0  0
    2.2379   -0.9588    1.8399 H   0  0  0  0  0  0  0  0  0  0  0  0
    0.8215   -1.5345   -0.8597 H   0  0  0  0  0  0  0  0  0  0  0  0
  1  2  1  0
  2  3  1  0
  3  4  2  0
  3  5  1  0
  5  6  1  0
  6  7  1  0
  7  8  1  0
  8  9  1  0
  9  5  1  0
  9  6  1  0
  1 10  1  0
  1 11  1  0
  1 12  1  0
  2 13  1  0
  2 14  1  0
  5 15  1  0
  6 16  1  0
  7 17  1  0
  7 18  1  0
  9 19  1  0
M  END
