
     RDKit          3D

 14 13  0  0  0  0  0  0  0  0999 V2000
   -2.0171    0.2519   -0.4150 C   0  0  0  0  0  0  0  0  0  0  0  0
   -0.6341    0.0356    0.1440 C   0  0  0  0  0  0  0  0  0  0  0  0
    0.3990   -0.1157   -0.8784 C   0  0  0  0  0  0  0  0  0  0  0  0
    0.1377   -0.0673   -2.0680 O   0  0  0  0  0  0  0  0  0  0  0  0
    1.7974   -0.3334   -0.4351 C   0  0  0  0  0  0  0  0  0  0  0  0
    1.8605   -0.3524    0.9546 O   0  0  0  0  0  0  0  0  0  0  0  0
   -2.0051    0.4294   -1.5109 H   0  0  0  0  0  0  0  0  0  0  0  0
   -2.5111    1.1035    0.0910 H   0  0  0  0  0  0  0  0  0  0  0  0
   -2.6110   -0.6584   -0.1472 H   0  0  0  0  0  0  0  0  0  0  0  0
   -0.3711    0.9128    0.7742 H   0  0  0  0  0  0  0  0  0  0  0  0
   -0.5808   -0.8655    0.8124 H   0  0  0  0  0  0  0  0  0  0  0  0
    2.1822   -1.3370   -0.7604 H   0  0  0  0  0  0  0  0  0  0  0  0
    2.5045    0.3924   -0.8819 H   0  0  0  0  0  0  0  0  0  0  0  0
    1.8491    0.6040    1.2617 H   0  0  0  0  0  0  0  0  0  0  0  0
  1  2  1  0
  2  3  1  0
  3  4  2  0
  3  5  1  0
  5  6  1  0
  1  7  1  0
  1  8  1  0
  1  9  1  0
  2 10  1  0
  2 11  1  0
  5 12  1  0
  5 13  1  0
  6 14  1  0
M  END
