
     RDKit          3D

 23 23  0  0  0  0  0  0  0  0999 V2000
    2.3252   -0.9250    1.2065 C   0  0  0  0  0  0  0  0  0  0  0  0
    2.1644    0.2302    0.2430 C   0  0  0  0  0  0  0  0  0  0  0  0
    0.7317    0.6009    0.2141 C   0  0  0  0  0  0  0  0  0  0  0  0
    0.2635    1.2319    1.1349 O   0  0  0  0  0  0  0  0  0  0  0  0
   -0.1160    0.2107   -0.9150 C   0  0  0  0  0  0  0  0  0  0  0  0
   -0.1854   -1.3131   -1.0893 C   0  0  0  0  0  0  0  0  0  0  0  0
   -1.3740   -1.2488   -0.1177 C   0  0  0  0  0  0  0  0  0  0  0  0
   -1.5995    0.1482   -0.6616 C   0  0  0  0  0  0  0  0  0  0  0  0
   -2.1836    1.1548    0.2589 C   0  0  0  0  0  0  0  0  0  0  0  0
    1.3296   -1.3287    1.5216 H   0  0  0  0  0  0  0  0  0  0  0  0
    2.8716   -0.6519    2.1202 H   0  0  0  0  0  0  0  0  0  0  0  0
    2.8268   -1.7426    0.6587 H   0  0  0  0  0  0  0  0  0  0  0  0
    2.4713   -0.0499   -0.7776 H   0  0  0  0  0  0  0  0  0  0  0  0
    2.7270    1.1046    0.6309 H   0  0  0  0  0  0  0  0  0  0  0  0
    0.1312    0.6749   -1.8780 H   0  0  0  0  0  0  0  0  0  0  0  0
    0.6783   -1.8546   -0.7257 H   0  0  0  0  0  0  0  0  0  0  0  0
   -0.5764   -1.5665   -2.0937 H   0  0  0  0  0  0  0  0  0  0  0  0
   -1.0938   -1.3213    0.9309 H   0  0  0  0  0  0  0  0  0  0  0  0
   -2.1834   -1.9703   -0.3414 H   0  0  0  0  0  0  0  0  0  0  0  0
   -2.1259    0.0525   -1.6534 H   0  0  0  0  0  0  0  0  0  0  0  0
   -3.2826    1.2608    0.0177 H   0  0  0  0  0  0  0  0  0  0  0  0
   -1.7547    2.1629   -0.0038 H   0  0  0  0  0  0  0  0  0  0  0  0
   -2.0453    0.9151    1.3199 H   0  0  0  0  0  0  0  0  0  0  0  0
  1  2  1  0
  2  3  1  0
  3  4  2  0
  3  5  1  0
  5  6  1  0
  6  7  1  0
  7  8  1  0
  8  9  1  0
  8  5  1  0
  1 10  1  0
  1 11  1  0
  1 12  1  0
  2 13  1  0
  2 14  1  0
  5 15  1  0
  6 16  1  0
  6 17  1  0
  7 18  1  0
  7 19  1  0
  8 20  1  0
  9 21  1  0
  9 22  1  0
  9 23  1  0
M  END
