
     RDKit          3D

 23 22  0  0  0  0  0  0  0  0999 V2000
    1.7103   -1.3924    0.3235 C   0  0  0  0  0  0  0  0  0  0  0  0
    1.5797   -0.3165   -0.7114 C   0  0  0  0  0  0  0  0  0  0  0  0
    0.7473    0.8366   -0.3790 C   0  0  0  0  0  0  0  0  0  0  0  0
    0.9096    1.7160   -1.5602 O   0  0  0  0  0  0  0  0  0  0  0  0
   -0.7171    0.8002   -0.2564 C   0  0  0  0  0  0  0  0  0  0  0  0
   -1.0815    2.2333    0.1112 C   0  0  0  0  0  0  0  0  0  0  0  0
   -1.0549    2.4776    1.2916 O   0  0  0  0  0  0  0  0  0  0  0  0
   -1.4358   -0.0468    0.6966 C   0  0  0  0  0  0  0  0  0  0  0  0
   -1.3597   -1.5190    0.6140 C   0  0  0  0  0  0  0  0  0  0  0  0
    2.8218   -1.5890    0.4880 H   0  0  0  0  0  0  0  0  0  0  0  0
    1.3215   -2.3773    0.0416 H   0  0  0  0  0  0  0  0  0  0  0  0
    1.3865   -1.0166    1.3170 H   0  0  0  0  0  0  0  0  0  0  0  0
    1.3209   -0.7927   -1.7007 H   0  0  0  0  0  0  0  0  0  0  0  0
    2.6381    0.0511   -0.9218 H   0  0  0  0  0  0  0  0  0  0  0  0
    1.1783    1.4353    0.4499 H   0  0  0  0  0  0  0  0  0  0  0  0
    0.4424    1.1541   -2.2485 H   0  0  0  0  0  0  0  0  0  0  0  0
   -1.1933    0.7011   -1.3089 H   0  0  0  0  0  0  0  0  0  0  0  0
   -1.3379    2.9644   -0.5912 H   0  0  0  0  0  0  0  0  0  0  0  0
   -2.5510    0.2109    0.6649 H   0  0  0  0  0  0  0  0  0  0  0  0
   -1.1682    0.3203    1.7472 H   0  0  0  0  0  0  0  0  0  0  0  0
   -0.7932   -1.9197    1.4745 H   0  0  0  0  0  0  0  0  0  0  0  0
   -0.9724   -1.9539   -0.3020 H   0  0  0  0  0  0  0  0  0  0  0  0
   -2.3913   -1.9768    0.7602 H   0  0  0  0  0  0  0  0  0  0  0  0
  1  2  1  0
  2  3  1  0
  3  4  1  0
  3  5  1  0
  5  6  1  0
  6  7  2  0
  5  8  1  0
  8  9  1  0
  1 10  1  0
  1 11  1  0
  1 12  1  0
  2 13  1  0
  2 14  1  0
  3 15  1  0
  4 16  1  0
  5 17  1  0
  6 18  1  0
  8 19  1  0
  8 20  1  0
  9 21  1  0
  9 22  1  0
  9 23  1  0
M  END
