
     RDKit          3D

 21 20  0  0  0  0  0  0  0  0999 V2000
   -2.1676   -1.2743    0.2487 C   0  0  0  0  0  0  0  0  0  0  0  0
   -1.8814   -0.0652    1.1043 C   0  0  0  0  0  0  0  0  0  0  0  0
   -0.9949    0.9343    0.4087 C   0  0  0  0  0  0  0  0  0  0  0  0
   -1.6337    1.4218   -0.8486 C   0  0  0  0  0  0  0  0  0  0  0  0
    0.3161    0.3555    0.1200 C   0  0  0  0  0  0  0  0  0  0  0  0
    1.4100   -0.1094   -0.1091 C   0  0  0  0  0  0  0  0  0  0  0  0
    2.7093   -0.6502   -0.4010 C   0  0  0  0  0  0  0  0  0  0  0  0
    3.9311   -0.2677    0.3172 C   0  0  0  0  0  0  0  0  0  0  0  0
    2.7749   -1.4938   -1.3253 O   0  0  0  0  0  0  0  0  0  0  0  0
   -2.4299   -1.0039   -0.7848 H   0  0  0  0  0  0  0  0  0  0  0  0
   -2.9909   -1.8328    0.7406 H   0  0  0  0  0  0  0  0  0  0  0  0
   -1.2554   -1.9376    0.2125 H   0  0  0  0  0  0  0  0  0  0  0  0
   -2.8221    0.4115    1.3776 H   0  0  0  0  0  0  0  0  0  0  0  0
   -1.3864   -0.4419    2.0309 H   0  0  0  0  0  0  0  0  0  0  0  0
   -0.9043    1.8075    1.1162 H   0  0  0  0  0  0  0  0  0  0  0  0
   -1.7332    2.5311   -0.8540 H   0  0  0  0  0  0  0  0  0  0  0  0
   -1.0738    1.1552   -1.7697 H   0  0  0  0  0  0  0  0  0  0  0  0
   -2.6840    1.0259   -0.9574 H   0  0  0  0  0  0  0  0  0  0  0  0
    4.1117   -0.9529    1.1727 H   0  0  0  0  0  0  0  0  0  0  0  0
    4.8031   -0.3738   -0.3689 H   0  0  0  0  0  0  0  0  0  0  0  0
    3.9014    0.7607    0.7274 H   0  0  0  0  0  0  0  0  0  0  0  0
  1  2  1  0
  2  3  1  0
  3  4  1  0
  3  5  1  0
  5  6  3  0
  6  7  1  0
  7  8  1  0
  7  9  2  0
  1 10  1  0
  1 11  1  0
  1 12  1  0
  2 13  1  0
  2 14  1  0
  3 15  1  0
  4 16  1  0
  4 17  1  0
  4 18  1  0
  8 19  1  0
  8 20  1  0
  8 21  1  0
M  END
