
     RDKit          3D

 25 24  0  0  0  0  0  0  0  0999 V2000
   -1.0593   -1.4487    1.3455 C   0  0  0  0  0  0  0  0  0  0  0  0
   -0.8155   -0.0094    0.9731 C   0  0  0  0  0  0  0  0  0  0  0  0
   -0.3364    0.1839   -0.4248 C   0  0  0  0  0  0  0  0  0  0  0  0
   -1.4260   -0.3858   -1.3495 C   0  0  0  0  0  0  0  0  0  0  0  0
   -0.2940    1.6621   -0.7174 C   0  0  0  0  0  0  0  0  0  0  0  0
    0.5543    2.3415    0.1350 O   0  0  0  0  0  0  0  0  0  0  0  0
    0.9177   -0.5365   -0.7715 C   0  0  0  0  0  0  0  0  0  0  0  0
    2.1114   -0.1651    0.0541 C   0  0  0  0  0  0  0  0  0  0  0  0
    1.9157   -0.4167    1.4095 O   0  0  0  0  0  0  0  0  0  0  0  0
   -0.2258   -2.1197    1.1476 H   0  0  0  0  0  0  0  0  0  0  0  0
   -1.9654   -1.8121    0.7827 H   0  0  0  0  0  0  0  0  0  0  0  0
   -1.3777   -1.4520    2.4153 H   0  0  0  0  0  0  0  0  0  0  0  0
   -1.8263    0.4939    1.0347 H   0  0  0  0  0  0  0  0  0  0  0  0
   -0.2067    0.4969    1.7442 H   0  0  0  0  0  0  0  0  0  0  0  0
   -2.3579    0.1324   -1.1111 H   0  0  0  0  0  0  0  0  0  0  0  0
   -1.4637   -1.4777   -1.3013 H   0  0  0  0  0  0  0  0  0  0  0  0
   -1.1085   -0.1248   -2.4021 H   0  0  0  0  0  0  0  0  0  0  0  0
   -1.3302    2.0488   -0.5094 H   0  0  0  0  0  0  0  0  0  0  0  0
   -0.1021    1.8339   -1.7809 H   0  0  0  0  0  0  0  0  0  0  0  0
    0.2885    3.2620    0.3013 H   0  0  0  0  0  0  0  0  0  0  0  0
    1.1332   -0.4421   -1.8348 H   0  0  0  0  0  0  0  0  0  0  0  0
    0.7277   -1.6284   -0.5866 H   0  0  0  0  0  0  0  0  0  0  0  0
    2.4782    0.8598   -0.1311 H   0  0  0  0  0  0  0  0  0  0  0  0
    2.9432   -0.8447   -0.2646 H   0  0  0  0  0  0  0  0  0  0  0  0
    2.8255   -0.4515    1.8421 H   0  0  0  0  0  0  0  0  0  0  0  0
  1  2  1  0
  2  3  1  0
  3  4  1  0
  3  5  1  0
  5  6  1  0
  3  7  1  0
  7  8  1  0
  8  9  1  0
  1 10  1  0
  1 11  1  0
  1 12  1  0
  2 13  1  0
  2 14  1  0
  4 15  1  0
  4 16  1  0
  4 17  1  0
  5 18  1  0
  5 19  1  0
  6 20  1  0
  7 21  1  0
  7 22  1  0
  8 23  1  0
  8 24  1  0
  9 25  1  0
M  END
