
     RDKit          3D

 20 19  0  0  0  0  0  0  0  0999 V2000
    2.8512    0.9298    0.1049 C   0  0  0  0  0  0  0  0  0  0  0  0
    1.9022    0.0340   -0.6276 C   0  0  0  0  0  0  0  0  0  0  0  0
    0.6192   -0.1581    0.0819 C   0  0  0  0  0  0  0  0  0  0  0  0
    0.4732    0.4060    1.1403 O   0  0  0  0  0  0  0  0  0  0  0  0
   -0.4511   -0.9942   -0.4534 C   0  0  0  0  0  0  0  0  0  0  0  0
   -1.6752   -1.0648    0.4013 C   0  0  0  0  0  0  0  0  0  0  0  0
   -2.3338    0.2685    0.6374 C   0  0  0  0  0  0  0  0  0  0  0  0
   -2.7258    0.8448   -0.5676 O   0  0  0  0  0  0  0  0  0  0  0  0
    3.2517    1.6758   -0.6120 H   0  0  0  0  0  0  0  0  0  0  0  0
    2.3746    1.5017    0.9234 H   0  0  0  0  0  0  0  0  0  0  0  0
    3.7456    0.3773    0.4979 H   0  0  0  0  0  0  0  0  0  0  0  0
    1.6823    0.4263   -1.6406 H   0  0  0  0  0  0  0  0  0  0  0  0
    2.4332   -0.9373   -0.7952 H   0  0  0  0  0  0  0  0  0  0  0  0
   -0.0773   -2.0506   -0.5548 H   0  0  0  0  0  0  0  0  0  0  0  0
   -0.7098   -0.6853   -1.4957 H   0  0  0  0  0  0  0  0  0  0  0  0
   -1.4813   -1.6247    1.3175 H   0  0  0  0  0  0  0  0  0  0  0  0
   -2.4285   -1.6793   -0.1770 H   0  0  0  0  0  0  0  0  0  0  0  0
   -1.7899    0.9442    1.2943 H   0  0  0  0  0  0  0  0  0  0  0  0
   -3.3006    0.0353    1.1762 H   0  0  0  0  0  0  0  0  0  0  0  0
   -2.3597    1.7507   -0.6513 H   0  0  0  0  0  0  0  0  0  0  0  0
  1  2  1  0
  2  3  1  0
  3  4  2  0
  3  5  1  0
  5  6  1  0
  6  7  1  0
  7  8  1  0
  1  9  1  0
  1 10  1  0
  1 11  1  0
  2 12  1  0
  2 13  1  0
  5 14  1  0
  5 15  1  0
  6 16  1  0
  6 17  1  0
  7 18  1  0
  7 19  1  0
  8 20  1  0
M  END
