
     RDKit          3D

 25 24  0  0  0  0  0  0  0  0999 V2000
    3.8717    0.1007   -0.2089 C   0  0  0  0  0  0  0  0  0  0  0  0
    2.4711    0.3990    0.3002 C   0  0  0  0  0  0  0  0  0  0  0  0
    1.5688   -0.6862   -0.1542 C   0  0  0  0  0  0  0  0  0  0  0  0
    2.0110   -1.5606   -0.8679 O   0  0  0  0  0  0  0  0  0  0  0  0
    0.1118   -0.6979    0.2699 C   0  0  0  0  0  0  0  0  0  0  0  0
   -0.5619    0.3442   -0.5576 C   0  0  0  0  0  0  0  0  0  0  0  0
   -2.0283    0.4963   -0.2867 C   0  0  0  0  0  0  0  0  0  0  0  0
   -2.2903    0.8716    1.1729 C   0  0  0  0  0  0  0  0  0  0  0  0
   -2.8542   -0.6810   -0.6629 C   0  0  0  0  0  0  0  0  0  0  0  0
    4.6602    0.6558    0.3417 H   0  0  0  0  0  0  0  0  0  0  0  0
    3.9398    0.2674   -1.3065 H   0  0  0  0  0  0  0  0  0  0  0  0
    4.0877   -1.0007   -0.0698 H   0  0  0  0  0  0  0  0  0  0  0  0
    2.1690    1.3607   -0.2125 H   0  0  0  0  0  0  0  0  0  0  0  0
    2.4332    0.6030    1.3778 H   0  0  0  0  0  0  0  0  0  0  0  0
   -0.2542   -1.7291    0.0878 H   0  0  0  0  0  0  0  0  0  0  0  0
    0.0156   -0.5098    1.3560 H   0  0  0  0  0  0  0  0  0  0  0  0
   -0.0874    1.3265   -0.2499 H   0  0  0  0  0  0  0  0  0  0  0  0
   -0.3474    0.2142   -1.6361 H   0  0  0  0  0  0  0  0  0  0  0  0
   -2.3656    1.3978   -0.8718 H   0  0  0  0  0  0  0  0  0  0  0  0
   -2.0575   -0.0574    1.7656 H   0  0  0  0  0  0  0  0  0  0  0  0
   -1.6987    1.7425    1.4816 H   0  0  0  0  0  0  0  0  0  0  0  0
   -3.3748    1.1174    1.2335 H   0  0  0  0  0  0  0  0  0  0  0  0
   -2.4217   -1.3262   -1.4494 H   0  0  0  0  0  0  0  0  0  0  0  0
   -3.8299   -0.3101   -1.0887 H   0  0  0  0  0  0  0  0  0  0  0  0
   -3.1681   -1.2597    0.2360 H   0  0  0  0  0  0  0  0  0  0  0  0
  1  2  1  0
  2  3  1  0
  3  4  2  0
  3  5  1  0
  5  6  1  0
  6  7  1  0
  7  8  1  0
  7  9  1  0
  1 10  1  0
  1 11  1  0
  1 12  1  0
  2 13  1  0
  2 14  1  0
  5 15  1  0
  5 16  1  0
  6 17  1  0
  6 18  1  0
  7 19  1  0
  8 20  1  0
  8 21  1  0
  8 22  1  0
  9 23  1  0
  9 24  1  0
  9 25  1  0
M  END
