
     RDKit          3D

 17 16  0  0  0  0  0  0  0  0999 V2000
   -2.0557    0.4837    0.0539 C   0  0  0  0  0  0  0  0  0  0  0  0
   -1.1700   -0.6981    0.1348 C   0  0  0  0  0  0  0  0  0  0  0  0
    0.2609   -0.4092    0.4712 C   0  0  0  0  0  0  0  0  0  0  0  0
    0.9572   -1.6169    0.5087 O   0  0  0  0  0  0  0  0  0  0  0  0
    0.9382    0.5349   -0.4542 C   0  0  0  0  0  0  0  0  0  0  0  0
    2.3428    0.7171    0.0122 C   0  0  0  0  0  0  0  0  0  0  0  0
    3.1305    1.4549   -0.5805 O   0  0  0  0  0  0  0  0  0  0  0  0
   -2.3612    0.8789    1.0534 H   0  0  0  0  0  0  0  0  0  0  0  0
   -1.6465    1.3348   -0.5186 H   0  0  0  0  0  0  0  0  0  0  0  0
   -2.9974    0.1864   -0.4561 H   0  0  0  0  0  0  0  0  0  0  0  0
   -1.2190   -1.2937   -0.7997 H   0  0  0  0  0  0  0  0  0  0  0  0
   -1.5625   -1.3732    0.9373 H   0  0  0  0  0  0  0  0  0  0  0  0
    0.3260    0.0178    1.5060 H   0  0  0  0  0  0  0  0  0  0  0  0
    0.9798   -2.0324   -0.4001 H   0  0  0  0  0  0  0  0  0  0  0  0
    0.9499    0.1029   -1.4952 H   0  0  0  0  0  0  0  0  0  0  0  0
    0.3861    1.5005   -0.4764 H   0  0  0  0  0  0  0  0  0  0  0  0
    2.7406    0.2117    0.8928 H   0  0  0  0  0  0  0  0  0  0  0  0
  1  2  1  0
  2  3  1  0
  3  4  1  0
  3  5  1  0
  5  6  1  0
  6  7  2  0
  1  8  1  0
  1  9  1  0
  1 10  1  0
  2 11  1  0
  2 12  1  0
  3 13  1  0
  4 14  1  0
  5 15  1  0
  5 16  1  0
  6 17  1  0
M  END
