
     RDKit          3D

 23 22  0  0  0  0  0  0  0  0999 V2000
   -1.4439    1.6841    0.6564 C   0  0  0  0  0  0  0  0  0  0  0  0
   -0.7746    1.1910   -0.5788 C   0  0  0  0  0  0  0  0  0  0  0  0
    0.1573    0.0431   -0.3620 C   0  0  0  0  0  0  0  0  0  0  0  0
   -0.4808   -1.1500    0.2023 C   0  0  0  0  0  0  0  0  0  0  0  0
   -1.5947   -1.8976   -0.4489 C   0  0  0  0  0  0  0  0  0  0  0  0
   -0.1051   -1.5940    1.2749 O   0  0  0  0  0  0  0  0  0  0  0  0
    1.3681    0.3974    0.4441 C   0  0  0  0  0  0  0  0  0  0  0  0
    2.2633   -0.8114    0.6222 C   0  0  0  0  0  0  0  0  0  0  0  0
    2.1174    1.4230   -0.1041 O   0  0  0  0  0  0  0  0  0  0  0  0
   -1.8159    0.8678    1.2877 H   0  0  0  0  0  0  0  0  0  0  0  0
   -2.3439    2.2827    0.3452 H   0  0  0  0  0  0  0  0  0  0  0  0
   -0.8134    2.4122    1.2444 H   0  0  0  0  0  0  0  0  0  0  0  0
   -1.5726    0.8429   -1.2796 H   0  0  0  0  0  0  0  0  0  0  0  0
   -0.2506    2.0063   -1.0879 H   0  0  0  0  0  0  0  0  0  0  0  0
    0.5369   -0.2513   -1.3855 H   0  0  0  0  0  0  0  0  0  0  0  0
   -2.5014   -1.8515    0.1748 H   0  0  0  0  0  0  0  0  0  0  0  0
   -1.8286   -1.5239   -1.4601 H   0  0  0  0  0  0  0  0  0  0  0  0
   -1.3266   -2.9822   -0.5587 H   0  0  0  0  0  0  0  0  0  0  0  0
    1.0731    0.7246    1.4761 H   0  0  0  0  0  0  0  0  0  0  0  0
    3.3230   -0.5530    0.3819 H   0  0  0  0  0  0  0  0  0  0  0  0
    2.1780   -1.2526    1.6438 H   0  0  0  0  0  0  0  0  0  0  0  0
    1.9625   -1.5547   -0.1520 H   0  0  0  0  0  0  0  0  0  0  0  0
    1.8723    1.5470   -1.0543 H   0  0  0  0  0  0  0  0  0  0  0  0
  1  2  1  0
  2  3  1  0
  3  4  1  0
  4  5  1  0
  4  6  2  0
  3  7  1  0
  7  8  1  0
  7  9  1  0
  1 10  1  0
  1 11  1  0
  1 12  1  0
  2 13  1  0
  2 14  1  0
  3 15  1  0
  5 16  1  0
  5 17  1  0
  5 18  1  0
  7 19  1  0
  8 20  1  0
  8 21  1  0
  8 22  1  0
  9 23  1  0
M  END
