
     RDKit          3D

 25 25  0  0  0  0  0  0  0  0999 V2000
    2.2712    0.5605   -0.1745 C   0  0  0  0  0  0  0  0  0  0  0  0
    1.1543   -0.3989   -0.5191 C   0  0  0  0  0  0  0  0  0  0  0  0
   -0.0627   -0.1911    0.3592 C   0  0  0  0  0  0  0  0  0  0  0  0
    0.3037   -0.4092    1.8137 C   0  0  0  0  0  0  0  0  0  0  0  0
   -1.0690   -1.0255   -0.0630 O   0  0  0  0  0  0  0  0  0  0  0  0
   -0.8051   -2.3671   -0.0285 C   0  0  0  0  0  0  0  0  0  0  0  0
   -0.5761    1.2263    0.2563 C   0  0  0  0  0  0  0  0  0  0  0  0
   -1.0169    1.6943   -1.1541 C   0  0  0  0  0  0  0  0  0  0  0  0
   -2.0381    1.3787   -0.0886 C   0  0  0  0  0  0  0  0  0  0  0  0
    2.1276    1.5604   -0.6578 H   0  0  0  0  0  0  0  0  0  0  0  0
    2.4891    0.6256    0.8901 H   0  0  0  0  0  0  0  0  0  0  0  0
    3.1937    0.1419   -0.6715 H   0  0  0  0  0  0  0  0  0  0  0  0
    1.5386   -1.4162   -0.3230 H   0  0  0  0  0  0  0  0  0  0  0  0
    0.9154   -0.2952   -1.5758 H   0  0  0  0  0  0  0  0  0  0  0  0
   -0.6438   -0.3888    2.3898 H   0  0  0  0  0  0  0  0  0  0  0  0
    0.8859    0.4717    2.1426 H   0  0  0  0  0  0  0  0  0  0  0  0
    0.8954   -1.3258    1.9624 H   0  0  0  0  0  0  0  0  0  0  0  0
    0.0273   -2.7264   -0.6301 H   0  0  0  0  0  0  0  0  0  0  0  0
   -1.7484   -2.8824   -0.3686 H   0  0  0  0  0  0  0  0  0  0  0  0
   -0.7077   -2.6611    1.0462 H   0  0  0  0  0  0  0  0  0  0  0  0
   -0.1289    2.0073    0.9025 H   0  0  0  0  0  0  0  0  0  0  0  0
   -0.9428    0.9482   -1.9577 H   0  0  0  0  0  0  0  0  0  0  0  0
   -0.8140    2.7308   -1.4286 H   0  0  0  0  0  0  0  0  0  0  0  0
   -2.5882    2.2634    0.3022 H   0  0  0  0  0  0  0  0  0  0  0  0
   -2.6604    0.4787   -0.2210 H   0  0  0  0  0  0  0  0  0  0  0  0
  1  2  1  0
  2  3  1  0
  3  4  1  0
  3  5  1  0
  5  6  1  0
  3  7  1  0
  7  8  1  0
  8  9  1  0
  9  7  1  0
  1 10  1  0
  1 11  1  0
  1 12  1  0
  2 13  1  0
  2 14  1  0
  4 15  1  0
  4 16  1  0
  4 17  1  0
  6 18  1  0
  6 19  1  0
  6 20  1  0
  7 21  1  0
  8 22  1  0
  8 23  1  0
  9 24  1  0
  9 25  1  0
M  END
