
     RDKit          3D

 17 16  0  0  0  0  0  0  0  0999 V2000
   -2.0387   -0.1447   -0.5611 C   0  0  0  0  0  0  0  0  0  0  0  0
   -0.8357   -0.7478    0.1033 C   0  0  0  0  0  0  0  0  0  0  0  0
    0.4332    0.0629   -0.1915 C   0  0  0  0  0  0  0  0  0  0  0  0
    0.2747    1.4533    0.3082 C   0  0  0  0  0  0  0  0  0  0  0  0
   -0.2682    1.6928    1.3665 O   0  0  0  0  0  0  0  0  0  0  0  0
    1.5645   -0.6571    0.5270 C   0  0  0  0  0  0  0  0  0  0  0  0
    2.7780   -0.0444    0.3556 O   0  0  0  0  0  0  0  0  0  0  0  0
   -1.7637    0.6177   -1.3044 H   0  0  0  0  0  0  0  0  0  0  0  0
   -2.6157   -0.9323   -1.1137 H   0  0  0  0  0  0  0  0  0  0  0  0
   -2.7044    0.2675    0.2283 H   0  0  0  0  0  0  0  0  0  0  0  0
   -0.6906   -1.7779   -0.2564 H   0  0  0  0  0  0  0  0  0  0  0  0
   -0.9353   -0.7174    1.2206 H   0  0  0  0  0  0  0  0  0  0  0  0
    0.5823    0.0459   -1.2941 H   0  0  0  0  0  0  0  0  0  0  0  0
    0.6415    2.3069   -0.2598 H   0  0  0  0  0  0  0  0  0  0  0  0
    1.2762   -0.6595    1.6125 H   0  0  0  0  0  0  0  0  0  0  0  0
    1.5760   -1.6931    0.1408 H   0  0  0  0  0  0  0  0  0  0  0  0
    2.7259    0.9272    0.1662 H   0  0  0  0  0  0  0  0  0  0  0  0
  1  2  1  0
  2  3  1  0
  3  4  1  0
  4  5  2  0
  3  6  1  0
  6  7  1  0
  1  8  1  0
  1  9  1  0
  1 10  1  0
  2 11  1  0
  2 12  1  0
  3 13  1  0
  4 14  1  0
  6 15  1  0
  6 16  1  0
  7 17  1  0
M  END
