
     RDKit          3D

 27 26  0  0  0  0  0  0  0  0999 V2000
   -1.8386    1.7920    0.1259 C   0  0  0  0  0  0  0  0  0  0  0  0
   -0.4068    1.4591    0.2263 C   0  0  0  0  0  0  0  0  0  0  0  0
    0.0990    0.2259   -0.4254 C   0  0  0  0  0  0  0  0  0  0  0  0
   -0.4844   -1.0407    0.0469 C   0  0  0  0  0  0  0  0  0  0  0  0
   -1.9274   -1.2828   -0.0904 C   0  0  0  0  0  0  0  0  0  0  0  0
   -2.3625   -1.2515   -1.4297 O   0  0  0  0  0  0  0  0  0  0  0  0
    1.6132    0.2074   -0.1760 C   0  0  0  0  0  0  0  0  0  0  0  0
    2.2524   -1.0060   -0.7843 C   0  0  0  0  0  0  0  0  0  0  0  0
    1.9790    0.3954    1.2628 C   0  0  0  0  0  0  0  0  0  0  0  0
   -2.4317    1.3443   -0.6581 H   0  0  0  0  0  0  0  0  0  0  0  0
   -2.0111    2.9070    0.0292 H   0  0  0  0  0  0  0  0  0  0  0  0
   -2.3307    1.5408    1.1125 H   0  0  0  0  0  0  0  0  0  0  0  0
    0.1508    2.3501   -0.2088 H   0  0  0  0  0  0  0  0  0  0  0  0
   -0.0490    1.4532    1.2923 H   0  0  0  0  0  0  0  0  0  0  0  0
    0.0501    0.3107   -1.5658 H   0  0  0  0  0  0  0  0  0  0  0  0
   -0.2144   -1.1289    1.1427 H   0  0  0  0  0  0  0  0  0  0  0  0
    0.0239   -1.9524   -0.4023 H   0  0  0  0  0  0  0  0  0  0  0  0
   -2.6284   -0.7182    0.5034 H   0  0  0  0  0  0  0  0  0  0  0  0
   -2.0979   -2.3675    0.2143 H   0  0  0  0  0  0  0  0  0  0  0  0
   -3.2135   -1.7639   -1.5358 H   0  0  0  0  0  0  0  0  0  0  0  0
    2.0868    1.0822   -0.7207 H   0  0  0  0  0  0  0  0  0  0  0  0
    2.1540   -1.9118   -0.1531 H   0  0  0  0  0  0  0  0  0  0  0  0
    1.8248   -1.1574   -1.8022 H   0  0  0  0  0  0  0  0  0  0  0  0
    3.3314   -0.7867   -0.9235 H   0  0  0  0  0  0  0  0  0  0  0  0
    3.0530    0.0776    1.4194 H   0  0  0  0  0  0  0  0  0  0  0  0
    1.4062   -0.2465    1.9377 H   0  0  0  0  0  0  0  0  0  0  0  0
    1.9719    1.4687    1.5627 H   0  0  0  0  0  0  0  0  0  0  0  0
  1  2  1  0
  2  3  1  0
  3  4  1  0
  4  5  1  0
  5  6  1  0
  3  7  1  0
  7  8  1  0
  7  9  1  0
  1 10  1  0
  1 11  1  0
  1 12  1  0
  2 13  1  0
  2 14  1  0
  3 15  1  0
  4 16  1  0
  4 17  1  0
  5 18  1  0
  5 19  1  0
  6 20  1  0
  7 21  1  0
  8 22  1  0
  8 23  1  0
  8 24  1  0
  9 25  1  0
  9 26  1  0
  9 27  1  0
M  END
