
     RDKit          3D

 23 23  0  0  0  0  0  0  0  0999 V2000
    2.9882   -0.4709    0.4747 C   0  0  0  0  0  0  0  0  0  0  0  0
    1.5155   -0.6572    0.1711 C   0  0  0  0  0  0  0  0  0  0  0  0
    0.8864    0.6447   -0.2617 C   0  0  0  0  0  0  0  0  0  0  0  0
    1.5730    1.0475   -1.4092 O   0  0  0  0  0  0  0  0  0  0  0  0
   -0.5822    0.5690   -0.4859 C   0  0  0  0  0  0  0  0  0  0  0  0
   -1.4489    0.1718    0.6589 C   0  0  0  0  0  0  0  0  0  0  0  0
   -2.7971    0.8111    0.8677 C   0  0  0  0  0  0  0  0  0  0  0  0
   -1.3491   -0.6669   -0.6173 C   0  0  0  0  0  0  0  0  0  0  0  0
   -0.8317   -1.9255   -0.3717 O   0  0  0  0  0  0  0  0  0  0  0  0
    3.5354   -1.4484    0.3352 H   0  0  0  0  0  0  0  0  0  0  0  0
    3.3885    0.1951   -0.3314 H   0  0  0  0  0  0  0  0  0  0  0  0
    3.1793   -0.0830    1.4761 H   0  0  0  0  0  0  0  0  0  0  0  0
    0.9805   -0.9588    1.1143 H   0  0  0  0  0  0  0  0  0  0  0  0
    1.4616   -1.4353   -0.6028 H   0  0  0  0  0  0  0  0  0  0  0  0
    1.0784    1.4284    0.4999 H   0  0  0  0  0  0  0  0  0  0  0  0
    1.5502    2.0036   -1.5704 H   0  0  0  0  0  0  0  0  0  0  0  0
   -0.9808    1.4528   -1.0531 H   0  0  0  0  0  0  0  0  0  0  0  0
   -0.9425   -0.1562    1.5625 H   0  0  0  0  0  0  0  0  0  0  0  0
   -2.9114    1.1357    1.9052 H   0  0  0  0  0  0  0  0  0  0  0  0
   -3.5594    0.0082    0.6430 H   0  0  0  0  0  0  0  0  0  0  0  0
   -2.9548    1.5941    0.1217 H   0  0  0  0  0  0  0  0  0  0  0  0
   -2.2248   -0.6792   -1.2998 H   0  0  0  0  0  0  0  0  0  0  0  0
   -1.5543   -2.5804   -0.2291 H   0  0  0  0  0  0  0  0  0  0  0  0
  1  2  1  0
  2  3  1  0
  3  4  1  0
  3  5  1  0
  5  6  1  0
  6  7  1  0
  6  8  1  0
  8  9  1  0
  8  5  1  0
  1 10  1  0
  1 11  1  0
  1 12  1  0
  2 13  1  0
  2 14  1  0
  3 15  1  0
  4 16  1  0
  5 17  1  0
  6 18  1  0
  7 19  1  0
  7 20  1  0
  7 21  1  0
  8 22  1  0
  9 23  1  0
M  END
