
     RDKit          3D

 24 23  0  0  0  0  0  0  0  0999 V2000
   -0.5766   -2.6159   -0.2172 C   0  0  0  0  0  0  0  0  0  0  0  0
   -1.2005   -1.3415   -0.7055 C   0  0  0  0  0  0  0  0  0  0  0  0
   -0.6979   -0.1804    0.1642 C   0  0  0  0  0  0  0  0  0  0  0  0
   -1.3624    1.0629   -0.3808 C   0  0  0  0  0  0  0  0  0  0  0  0
   -0.9749    2.3065    0.3658 C   0  0  0  0  0  0  0  0  0  0  0  0
    0.8022   -0.1406   -0.0255 C   0  0  0  0  0  0  0  0  0  0  0  0
    1.4088    0.8618    0.7001 O   0  0  0  0  0  0  0  0  0  0  0  0
    2.7787    0.7933    0.4415 C   0  0  0  0  0  0  0  0  0  0  0  0
   -1.2234   -3.4622   -0.5189 H   0  0  0  0  0  0  0  0  0  0  0  0
   -0.4112   -2.6177    0.8701 H   0  0  0  0  0  0  0  0  0  0  0  0
    0.4133   -2.8028   -0.6905 H   0  0  0  0  0  0  0  0  0  0  0  0
   -2.3010   -1.3927   -0.6975 H   0  0  0  0  0  0  0  0  0  0  0  0
   -0.8929   -1.1840   -1.7555 H   0  0  0  0  0  0  0  0  0  0  0  0
   -1.0095   -0.3046    1.1981 H   0  0  0  0  0  0  0  0  0  0  0  0
   -2.4641    0.9151   -0.2280 H   0  0  0  0  0  0  0  0  0  0  0  0
   -1.1683    1.1853   -1.4838 H   0  0  0  0  0  0  0  0  0  0  0  0
    0.0254    2.6424    0.0724 H   0  0  0  0  0  0  0  0  0  0  0  0
   -1.0757    2.0890    1.4548 H   0  0  0  0  0  0  0  0  0  0  0  0
   -1.7541    3.0822    0.1349 H   0  0  0  0  0  0  0  0  0  0  0  0
    1.0003    0.0024   -1.0929 H   0  0  0  0  0  0  0  0  0  0  0  0
    1.2568   -1.1060    0.2729 H   0  0  0  0  0  0  0  0  0  0  0  0
    3.1346   -0.2145    0.7643 H   0  0  0  0  0  0  0  0  0  0  0  0
    3.3479    1.6133    0.8856 H   0  0  0  0  0  0  0  0  0  0  0  0
    2.9447    0.8088   -0.6695 H   0  0  0  0  0  0  0  0  0  0  0  0
  1  2  1  0
  2  3  1  0
  3  4  1  0
  4  5  1  0
  3  6  1  0
  6  7  1  0
  7  8  1  0
  1  9  1  0
  1 10  1  0
  1 11  1  0
  2 12  1  0
  2 13  1  0
  3 14  1  0
  4 15  1  0
  4 16  1  0
  5 17  1  0
  5 18  1  0
  5 19  1  0
  6 20  1  0
  6 21  1  0
  8 22  1  0
  8 23  1  0
  8 24  1  0
M  END
