
     RDKit          3D

 18 18  0  0  0  0  0  0  0  0999 V2000
    2.3890   -0.4037   -0.4932 C   0  0  0  0  0  0  0  0  0  0  0  0
    1.2070    0.5573   -0.4156 C   0  0  0  0  0  0  0  0  0  0  0  0
    0.4186    0.3057    0.8073 C   0  0  0  0  0  0  0  0  0  0  0  0
    1.0500    0.3090    1.8630 O   0  0  0  0  0  0  0  0  0  0  0  0
   -1.0176    0.0523    0.8483 C   0  0  0  0  0  0  0  0  0  0  0  0
   -1.8963    0.8001   -0.1116 C   0  0  0  0  0  0  0  0  0  0  0  0
   -2.7380   -0.3271   -0.0785 O   0  0  0  0  0  0  0  0  0  0  0  0
   -1.5506   -1.0747    0.0065 C   0  0  0  0  0  0  0  0  0  0  0  0
    2.8585   -0.4122    0.5027 H   0  0  0  0  0  0  0  0  0  0  0  0
    3.0722   -0.0366   -1.2911 H   0  0  0  0  0  0  0  0  0  0  0  0
    1.9540   -1.4043   -0.7406 H   0  0  0  0  0  0  0  0  0  0  0  0
    0.5977    0.5401   -1.3394 H   0  0  0  0  0  0  0  0  0  0  0  0
    1.6586    1.5751   -0.3087 H   0  0  0  0  0  0  0  0  0  0  0  0
   -1.4438    0.0567    1.8584 H   0  0  0  0  0  0  0  0  0  0  0  0
   -1.4264    0.9009   -1.1022 H   0  0  0  0  0  0  0  0  0  0  0  0
   -2.3698    1.7177    0.2986 H   0  0  0  0  0  0  0  0  0  0  0  0
   -1.1217   -1.1111   -1.0219 H   0  0  0  0  0  0  0  0  0  0  0  0
   -1.6413   -2.0450    0.5173 H   0  0  0  0  0  0  0  0  0  0  0  0
  1  2  1  0
  2  3  1  0
  3  4  2  0
  3  5  1  0
  5  6  1  0
  6  7  1  0
  7  8  1  0
  8  5  1  0
  1  9  1  0
  1 10  1  0
  1 11  1  0
  2 12  1  0
  2 13  1  0
  5 14  1  0
  6 15  1  0
  6 16  1  0
  8 17  1  0
  8 18  1  0
M  END
