
     RDKit          3D

 25 24  0  0  0  0  0  0  0  0999 V2000
    1.9122   -1.1068    0.2977 C   0  0  0  0  0  0  0  0  0  0  0  0
    1.2984   -0.2063   -0.7290 C   0  0  0  0  0  0  0  0  0  0  0  0
    0.1948    0.6603   -0.2585 C   0  0  0  0  0  0  0  0  0  0  0  0
    0.6800    1.5746    0.8527 C   0  0  0  0  0  0  0  0  0  0  0  0
   -0.1019    1.5455   -1.3291 O   0  0  0  0  0  0  0  0  0  0  0  0
   -1.0771   -0.0088    0.1088 C   0  0  0  0  0  0  0  0  0  0  0  0
   -1.0304   -1.0532    1.1482 C   0  0  0  0  0  0  0  0  0  0  0  0
   -1.7259   -0.6387   -1.1341 C   0  0  0  0  0  0  0  0  0  0  0  0
   -1.9871    1.0045    0.4986 O   0  0  0  0  0  0  0  0  0  0  0  0
    2.9268   -1.4308   -0.0516 H   0  0  0  0  0  0  0  0  0  0  0  0
    2.0669   -0.6467    1.2725 H   0  0  0  0  0  0  0  0  0  0  0  0
    1.3083   -2.0374    0.3256 H   0  0  0  0  0  0  0  0  0  0  0  0
    2.1173    0.4521   -1.1105 H   0  0  0  0  0  0  0  0  0  0  0  0
    0.9773   -0.8040   -1.6150 H   0  0  0  0  0  0  0  0  0  0  0  0
    0.3761    1.1143    1.8060 H   0  0  0  0  0  0  0  0  0  0  0  0
    1.7631    1.7467    0.8250 H   0  0  0  0  0  0  0  0  0  0  0  0
    0.1413    2.5540    0.7968 H   0  0  0  0  0  0  0  0  0  0  0  0
    0.7461    1.8146   -1.7622 H   0  0  0  0  0  0  0  0  0  0  0  0
   -1.0557   -2.0889    0.6985 H   0  0  0  0  0  0  0  0  0  0  0  0
   -0.2215   -1.0158    1.8663 H   0  0  0  0  0  0  0  0  0  0  0  0
   -1.9818   -0.9885    1.7564 H   0  0  0  0  0  0  0  0  0  0  0  0
   -1.1359   -1.5387   -1.3964 H   0  0  0  0  0  0  0  0  0  0  0  0
   -1.6569    0.1058   -1.9411 H   0  0  0  0  0  0  0  0  0  0  0  0
   -2.7823   -0.8684   -0.9667 H   0  0  0  0  0  0  0  0  0  0  0  0
   -1.7519    1.8607    0.0413 H   0  0  0  0  0  0  0  0  0  0  0  0
  1  2  1  0
  2  3  1  0
  3  4  1  0
  3  5  1  0
  3  6  1  0
  6  7  1  0
  6  8  1  0
  6  9  1  0
  1 10  1  0
  1 11  1  0
  1 12  1  0
  2 13  1  0
  2 14  1  0
  4 15  1  0
  4 16  1  0
  4 17  1  0
  5 18  1  0
  7 19  1  0
  7 20  1  0
  7 21  1  0
  8 22  1  0
  8 23  1  0
  8 24  1  0
  9 25  1  0
M  END
