
     RDKit          3D

 19 18  0  0  0  0  0  0  0  0999 V2000
    1.9535    0.4013   -0.0873 C   0  0  0  0  0  0  0  0  0  0  0  0
    1.1233    0.1407    1.1541 C   0  0  0  0  0  0  0  0  0  0  0  0
   -0.1757   -0.5118    0.7630 C   0  0  0  0  0  0  0  0  0  0  0  0
    0.0427   -1.7239    0.1133 O   0  0  0  0  0  0  0  0  0  0  0  0
   -1.1141    0.3855    0.0447 C   0  0  0  0  0  0  0  0  0  0  0  0
   -0.6204    0.9443   -1.2145 C   0  0  0  0  0  0  0  0  0  0  0  0
   -0.8026    0.3346   -2.2573 O   0  0  0  0  0  0  0  0  0  0  0  0
   -2.3555   -0.4041   -0.2547 C   0  0  0  0  0  0  0  0  0  0  0  0
   -2.6247   -1.3949    0.3904 O   0  0  0  0  0  0  0  0  0  0  0  0
    3.0063    0.0556    0.0525 H   0  0  0  0  0  0  0  0  0  0  0  0
    2.0497    1.5042   -0.2903 H   0  0  0  0  0  0  0  0  0  0  0  0
    1.5704   -0.1557   -0.9605 H   0  0  0  0  0  0  0  0  0  0  0  0
    1.0037    1.0939    1.6655 H   0  0  0  0  0  0  0  0  0  0  0  0
    1.7275   -0.5103    1.8171 H   0  0  0  0  0  0  0  0  0  0  0  0
   -0.6797   -0.7903    1.7366 H   0  0  0  0  0  0  0  0  0  0  0  0
    0.3324   -2.4409    0.6992 H   0  0  0  0  0  0  0  0  0  0  0  0
   -1.3632    1.2375    0.7277 H   0  0  0  0  0  0  0  0  0  0  0  0
   -0.0885    1.8849   -1.3073 H   0  0  0  0  0  0  0  0  0  0  0  0
   -2.9849   -0.0505   -1.0597 H   0  0  0  0  0  0  0  0  0  0  0  0
  1  2  1  0
  2  3  1  0
  3  4  1  0
  3  5  1  0
  5  6  1  0
  6  7  2  0
  5  8  1  0
  8  9  2  0
  1 10  1  0
  1 11  1  0
  1 12  1  0
  2 13  1  0
  2 14  1  0
  3 15  1  0
  4 16  1  0
  5 17  1  0
  6 18  1  0
  8 19  1  0
M  END
