
     RDKit          3D

 23 22  0  0  0  0  0  0  0  0999 V2000
   -2.7206   -0.3397   -0.9619 C   0  0  0  0  0  0  0  0  0  0  0  0
   -1.2644   -0.6748   -0.7749 C   0  0  0  0  0  0  0  0  0  0  0  0
   -0.8194   -0.2571    0.5828 C   0  0  0  0  0  0  0  0  0  0  0  0
   -1.0136    1.2240    0.7323 C   0  0  0  0  0  0  0  0  0  0  0  0
    0.5834   -0.6360    0.9142 C   0  0  0  0  0  0  0  0  0  0  0  0
    1.5284    0.0009   -0.0678 C   0  0  0  0  0  0  0  0  0  0  0  0
    2.8829   -0.3480    0.2294 O   0  0  0  0  0  0  0  0  0  0  0  0
    3.9186    0.1358   -0.5574 C   0  0  0  0  0  0  0  0  0  0  0  0
    3.6196    0.8880   -1.5350 O   0  0  0  0  0  0  0  0  0  0  0  0
   -3.2238   -0.1025    0.0057 H   0  0  0  0  0  0  0  0  0  0  0  0
   -3.2495   -1.2085   -1.4077 H   0  0  0  0  0  0  0  0  0  0  0  0
   -2.8470    0.5511   -1.6033 H   0  0  0  0  0  0  0  0  0  0  0  0
   -0.7018   -0.1454   -1.5773 H   0  0  0  0  0  0  0  0  0  0  0  0
   -1.1026   -1.7568   -0.9557 H   0  0  0  0  0  0  0  0  0  0  0  0
   -1.5206   -0.7427    1.3240 H   0  0  0  0  0  0  0  0  0  0  0  0
   -0.7260    1.7912   -0.1791 H   0  0  0  0  0  0  0  0  0  0  0  0
   -0.4801    1.5660    1.6371 H   0  0  0  0  0  0  0  0  0  0  0  0
   -2.0949    1.4011    0.9256 H   0  0  0  0  0  0  0  0  0  0  0  0
    0.8107   -0.2250    1.9298 H   0  0  0  0  0  0  0  0  0  0  0  0
    0.7259   -1.7392    0.8711 H   0  0  0  0  0  0  0  0  0  0  0  0
    1.2660   -0.3627   -1.0741 H   0  0  0  0  0  0  0  0  0  0  0  0
    1.4727    1.0943   -0.0195 H   0  0  0  0  0  0  0  0  0  0  0  0
    4.9557   -0.1141   -0.3531 H   0  0  0  0  0  0  0  0  0  0  0  0
  1  2  1  0
  2  3  1  0
  3  4  1  0
  3  5  1  0
  5  6  1  0
  6  7  1  0
  7  8  1  0
  8  9  2  0
  1 10  1  0
  1 11  1  0
  1 12  1  0
  2 13  1  0
  2 14  1  0
  3 15  1  0
  4 16  1  0
  4 17  1  0
  4 18  1  0
  5 19  1  0
  5 20  1  0
  6 21  1  0
  6 22  1  0
  8 23  1  0
M  END
