
     RDKit          3D

 20 19  0  0  0  0  0  0  0  0999 V2000
   -1.6818    0.8388    0.5015 C   0  0  0  0  0  0  0  0  0  0  0  0
   -1.1417   -0.5409    0.8083 C   0  0  0  0  0  0  0  0  0  0  0  0
   -0.0576   -0.9836   -0.1359 C   0  0  0  0  0  0  0  0  0  0  0  0
   -0.5233   -1.0316   -1.5447 C   0  0  0  0  0  0  0  0  0  0  0  0
   -0.9608   -2.0150   -2.1095 O   0  0  0  0  0  0  0  0  0  0  0  0
    1.2331   -0.2908    0.0012 C   0  0  0  0  0  0  0  0  0  0  0  0
    1.2513    1.1750   -0.2026 C   0  0  0  0  0  0  0  0  0  0  0  0
    1.8675   -0.5554    1.2299 O   0  0  0  0  0  0  0  0  0  0  0  0
   -1.4751    1.5641    1.3410 H   0  0  0  0  0  0  0  0  0  0  0  0
   -2.8093    0.8389    0.4243 H   0  0  0  0  0  0  0  0  0  0  0  0
   -1.3245    1.2638   -0.4313 H   0  0  0  0  0  0  0  0  0  0  0  0
   -2.0154   -1.2365    0.7652 H   0  0  0  0  0  0  0  0  0  0  0  0
   -0.8270   -0.5305    1.8604 H   0  0  0  0  0  0  0  0  0  0  0  0
    0.1310   -2.0684    0.1372 H   0  0  0  0  0  0  0  0  0  0  0  0
   -0.4704   -0.1179   -2.1191 H   0  0  0  0  0  0  0  0  0  0  0  0
    1.9338   -0.7379   -0.7661 H   0  0  0  0  0  0  0  0  0  0  0  0
    0.9200    1.4763   -1.2409 H   0  0  0  0  0  0  0  0  0  0  0  0
    0.7869    1.7788    0.5829 H   0  0  0  0  0  0  0  0  0  0  0  0
    2.3412    1.4873   -0.1954 H   0  0  0  0  0  0  0  0  0  0  0  0
    2.8220   -0.3144    1.0935 H   0  0  0  0  0  0  0  0  0  0  0  0
  1  2  1  0
  2  3  1  0
  3  4  1  0
  4  5  2  0
  3  6  1  0
  6  7  1  0
  6  8  1  0
  1  9  1  0
  1 10  1  0
  1 11  1  0
  2 12  1  0
  2 13  1  0
  3 14  1  0
  4 15  1  0
  6 16  1  0
  7 17  1  0
  7 18  1  0
  7 19  1  0
  8 20  1  0
M  END
