
     RDKit          3D

 21 20  0  0  0  0  0  0  0  0999 V2000
   -2.2619    1.1556   -0.9378 C   0  0  0  0  0  0  0  0  0  0  0  0
   -1.6038   -0.1539   -1.0679 C   0  0  0  0  0  0  0  0  0  0  0  0
   -0.6330   -0.4824    0.0666 C   0  0  0  0  0  0  0  0  0  0  0  0
   -1.3136   -0.5020    1.3794 C   0  0  0  0  0  0  0  0  0  0  0  0
    0.5757    0.1586   -0.0420 O   0  0  0  0  0  0  0  0  0  0  0  0
    1.7977   -0.3764   -0.3354 C   0  0  0  0  0  0  0  0  0  0  0  0
    1.7879   -1.6090   -0.5251 O   0  0  0  0  0  0  0  0  0  0  0  0
    2.9993    0.4728   -0.4105 C   0  0  0  0  0  0  0  0  0  0  0  0
    4.1374   -0.2678   -0.7214 O   0  0  0  0  0  0  0  0  0  0  0  0
   -1.7258    1.9258   -0.3886 H   0  0  0  0  0  0  0  0  0  0  0  0
   -2.4617    1.5699   -1.9612 H   0  0  0  0  0  0  0  0  0  0  0  0
   -3.2839    1.0625   -0.4692 H   0  0  0  0  0  0  0  0  0  0  0  0
   -2.3976   -0.9555   -0.9990 H   0  0  0  0  0  0  0  0  0  0  0  0
   -1.0792   -0.2623   -2.0393 H   0  0  0  0  0  0  0  0  0  0  0  0
   -0.3972   -1.5752   -0.1437 H   0  0  0  0  0  0  0  0  0  0  0  0
   -0.9244   -1.3134    2.0547 H   0  0  0  0  0  0  0  0  0  0  0  0
   -1.3497    0.4330    1.9316 H   0  0  0  0  0  0  0  0  0  0  0  0
   -2.3874   -0.7869    1.1993 H   0  0  0  0  0  0  0  0  0  0  0  0
    3.1734    1.0031    0.5645 H   0  0  0  0  0  0  0  0  0  0  0  0
    2.8944    1.2568   -1.1700 H   0  0  0  0  0  0  0  0  0  0  0  0
    4.4534   -0.7531    0.0756 H   0  0  0  0  0  0  0  0  0  0  0  0
  1  2  1  0
  2  3  1  0
  3  4  1  0
  3  5  1  0
  5  6  1  0
  6  7  2  0
  6  8  1  0
  8  9  1  0
  1 10  1  0
  1 11  1  0
  1 12  1  0
  2 13  1  0
  2 14  1  0
  3 15  1  0
  4 16  1  0
  4 17  1  0
  4 18  1  0
  8 19  1  0
  8 20  1  0
  9 21  1  0
M  END
