
     RDKit          3D

 24 24  0  0  0  0  0  0  0  0999 V2000
   -2.8587    0.5906    0.1181 C   0  0  0  0  0  0  0  0  0  0  0  0
   -1.3929    0.9889    0.2746 C   0  0  0  0  0  0  0  0  0  0  0  0
   -0.5824   -0.0724   -0.4318 C   0  0  0  0  0  0  0  0  0  0  0  0
   -0.8497   -1.3895    0.2013 C   0  0  0  0  0  0  0  0  0  0  0  0
    0.8444    0.3285   -0.4998 C   0  0  0  0  0  0  0  0  0  0  0  0
    1.5730    0.5610    0.7784 C   0  0  0  0  0  0  0  0  0  0  0  0
    2.8351    0.1584   -0.0088 C   0  0  0  0  0  0  0  0  0  0  0  0
    1.8527   -0.7550   -0.7623 C   0  0  0  0  0  0  0  0  0  0  0  0
   -3.0219    0.1429   -0.8948 H   0  0  0  0  0  0  0  0  0  0  0  0
   -3.5265    1.4761    0.1922 H   0  0  0  0  0  0  0  0  0  0  0  0
   -3.1643   -0.1723    0.8443 H   0  0  0  0  0  0  0  0  0  0  0  0
   -1.2203    1.9963   -0.1439 H   0  0  0  0  0  0  0  0  0  0  0  0
   -1.1814    0.9947    1.3773 H   0  0  0  0  0  0  0  0  0  0  0  0
   -0.9680   -0.1122   -1.4804 H   0  0  0  0  0  0  0  0  0  0  0  0
   -0.6816   -1.4225    1.2869 H   0  0  0  0  0  0  0  0  0  0  0  0
   -1.9320   -1.6398   -0.0095 H   0  0  0  0  0  0  0  0  0  0  0  0
   -0.2805   -2.1984   -0.3271 H   0  0  0  0  0  0  0  0  0  0  0  0
    0.9872    1.1847   -1.1988 H   0  0  0  0  0  0  0  0  0  0  0  0
    1.6051    1.5965    1.1606 H   0  0  0  0  0  0  0  0  0  0  0  0
    1.4184   -0.2321    1.5412 H   0  0  0  0  0  0  0  0  0  0  0  0
    3.1821    0.9422   -0.6985 H   0  0  0  0  0  0  0  0  0  0  0  0
    3.5818   -0.3760    0.5777 H   0  0  0  0  0  0  0  0  0  0  0  0
    2.1133   -0.9559   -1.7949 H   0  0  0  0  0  0  0  0  0  0  0  0
    1.6671   -1.6349   -0.1018 H   0  0  0  0  0  0  0  0  0  0  0  0
  1  2  1  0
  2  3  1  0
  3  4  1  0
  3  5  1  0
  5  6  1  0
  6  7  1  0
  7  8  1  0
  8  5  1  0
  1  9  1  0
  1 10  1  0
  1 11  1  0
  2 12  1  0
  2 13  1  0
  3 14  1  0
  4 15  1  0
  4 16  1  0
  4 17  1  0
  5 18  1  0
  6 19  1  0
  6 20  1  0
  7 21  1  0
  7 22  1  0
  8 23  1  0
  8 24  1  0
M  END
