
     RDKit          3D

 19 18  0  0  0  0  0  0  0  0999 V2000
    2.7217   -0.0598   -0.5113 C   0  0  0  0  0  0  0  0  0  0  0  0
    1.4252   -0.6712   -0.0941 C   0  0  0  0  0  0  0  0  0  0  0  0
    0.3453    0.3548    0.0827 C   0  0  0  0  0  0  0  0  0  0  0  0
    0.6526    1.5114   -0.1287 O   0  0  0  0  0  0  0  0  0  0  0  0
   -1.0215    0.0193    0.4881 C   0  0  0  0  0  0  0  0  0  0  0  0
   -1.7197   -0.9142   -0.4696 C   0  0  0  0  0  0  0  0  0  0  0  0
   -1.7990    1.2893    0.7370 C   0  0  0  0  0  0  0  0  0  0  0  0
    3.2207   -0.6249   -1.3447 H   0  0  0  0  0  0  0  0  0  0  0  0
    2.6430    0.9843   -0.8436 H   0  0  0  0  0  0  0  0  0  0  0  0
    3.4590   -0.0683    0.3311 H   0  0  0  0  0  0  0  0  0  0  0  0
    1.5354   -1.1757    0.8857 H   0  0  0  0  0  0  0  0  0  0  0  0
    1.0742   -1.3865   -0.8901 H   0  0  0  0  0  0  0  0  0  0  0  0
   -0.9736   -0.5056    1.4881 H   0  0  0  0  0  0  0  0  0  0  0  0
   -2.3585   -1.6201    0.1026 H   0  0  0  0  0  0  0  0  0  0  0  0
   -0.9846   -1.5255   -1.0295 H   0  0  0  0  0  0  0  0  0  0  0  0
   -2.3072   -0.3521   -1.2421 H   0  0  0  0  0  0  0  0  0  0  0  0
   -2.6540    1.0169    1.3997 H   0  0  0  0  0  0  0  0  0  0  0  0
   -2.1563    1.7403   -0.2186 H   0  0  0  0  0  0  0  0  0  0  0  0
   -1.1028    1.9877    1.2574 H   0  0  0  0  0  0  0  0  0  0  0  0
  1  2  1  0
  2  3  1  0
  3  4  2  0
  3  5  1  0
  5  6  1  0
  5  7  1  0
  1  8  1  0
  1  9  1  0
  1 10  1  0
  2 11  1  0
  2 12  1  0
  5 13  1  0
  6 14  1  0
  6 15  1  0
  6 16  1  0
  7 17  1  0
  7 18  1  0
  7 19  1  0
M  END
