
     RDKit          3D

 18 18  0  0  0  0  0  0  0  0999 V2000
   -1.7808   -1.0059    0.2572 C   0  0  0  0  0  0  0  0  0  0  0  0
   -1.3427    0.1644   -0.5986 C   0  0  0  0  0  0  0  0  0  0  0  0
    0.0366    0.6755   -0.1527 C   0  0  0  0  0  0  0  0  0  0  0  0
   -0.0721    1.1035    1.2593 C   0  0  0  0  0  0  0  0  0  0  0  0
    0.6407    0.7653    2.1555 O   0  0  0  0  0  0  0  0  0  0  0  0
    1.0961   -0.3049   -0.4344 C   0  0  0  0  0  0  0  0  0  0  0  0
    2.4793   -0.2020   -0.1744 C   0  0  0  0  0  0  0  0  0  0  0  0
    2.0093    0.1575   -1.5106 O   0  0  0  0  0  0  0  0  0  0  0  0
   -2.7636   -0.7794    0.7636 H   0  0  0  0  0  0  0  0  0  0  0  0
   -1.0053   -1.2928    0.9760 H   0  0  0  0  0  0  0  0  0  0  0  0
   -2.0166   -1.8438   -0.4422 H   0  0  0  0  0  0  0  0  0  0  0  0
   -2.0456    1.0021   -0.4273 H   0  0  0  0  0  0  0  0  0  0  0  0
   -1.3567   -0.0641   -1.6790 H   0  0  0  0  0  0  0  0  0  0  0  0
    0.1929    1.5971   -0.7465 H   0  0  0  0  0  0  0  0  0  0  0  0
   -0.8847    1.7935    1.4902 H   0  0  0  0  0  0  0  0  0  0  0  0
    0.6981   -1.3133   -0.7565 H   0  0  0  0  0  0  0  0  0  0  0  0
    2.9945    0.6495    0.2841 H   0  0  0  0  0  0  0  0  0  0  0  0
    3.1206   -1.1021   -0.2636 H   0  0  0  0  0  0  0  0  0  0  0  0
  1  2  1  0
  2  3  1  0
  3  4  1  0
  4  5  2  0
  3  6  1  0
  6  7  1  0
  7  8  1  0
  8  6  1  0
  1  9  1  0
  1 10  1  0
  1 11  1  0
  2 12  1  0
  2 13  1  0
  3 14  1  0
  4 15  1  0
  6 16  1  0
  7 17  1  0
  7 18  1  0
M  END
