
     RDKit          3D

 23 23  0  0  0  0  0  0  0  0999 V2000
    1.9021   -0.1440   -1.0903 C   0  0  0  0  0  0  0  0  0  0  0  0
    1.1056    0.9065   -0.3936 C   0  0  0  0  0  0  0  0  0  0  0  0
    0.2001    0.4660    0.6857 C   0  0  0  0  0  0  0  0  0  0  0  0
    0.9885   -0.2619    1.7750 C   0  0  0  0  0  0  0  0  0  0  0  0
   -0.9993   -0.3181    0.3816 C   0  0  0  0  0  0  0  0  0  0  0  0
   -1.7201   -0.6385    1.5796 O   0  0  0  0  0  0  0  0  0  0  0  0
   -1.0638   -1.2490   -0.7440 C   0  0  0  0  0  0  0  0  0  0  0  0
   -1.9096   -0.0188   -0.7496 C   0  0  0  0  0  0  0  0  0  0  0  0
   -1.6397    1.0279   -1.6210 O   0  0  0  0  0  0  0  0  0  0  0  0
    1.8787   -1.1488   -0.6437 H   0  0  0  0  0  0  0  0  0  0  0  0
    3.0110    0.1379   -1.1152 H   0  0  0  0  0  0  0  0  0  0  0  0
    1.6544   -0.2418   -2.1647 H   0  0  0  0  0  0  0  0  0  0  0  0
    1.8514    1.6286    0.0669 H   0  0  0  0  0  0  0  0  0  0  0  0
    0.6079    1.5574   -1.1616 H   0  0  0  0  0  0  0  0  0  0  0  0
   -0.1605    1.4341    1.2198 H   0  0  0  0  0  0  0  0  0  0  0  0
    0.9690   -1.3644    1.5323 H   0  0  0  0  0  0  0  0  0  0  0  0
    0.3996   -0.1660    2.7075 H   0  0  0  0  0  0  0  0  0  0  0  0
    2.0159    0.1278    1.8520 H   0  0  0  0  0  0  0  0  0  0  0  0
   -2.1184    0.2313    1.8478 H   0  0  0  0  0  0  0  0  0  0  0  0
   -1.6100   -2.2403   -0.6143 H   0  0  0  0  0  0  0  0  0  0  0  0
   -0.2788   -1.3649   -1.5015 H   0  0  0  0  0  0  0  0  0  0  0  0
   -2.9929   -0.1973   -0.6242 H   0  0  0  0  0  0  0  0  0  0  0  0
   -2.0909    1.8363   -1.2245 H   0  0  0  0  0  0  0  0  0  0  0  0
  1  2  1  0
  2  3  1  0
  3  4  1  0
  3  5  1  0
  5  6  1  0
  5  7  1  0
  7  8  1  0
  8  9  1  0
  8  5  1  0
  1 10  1  0
  1 11  1  0
  1 12  1  0
  2 13  1  0
  2 14  1  0
  3 15  1  0
  4 16  1  0
  4 17  1  0
  4 18  1  0
  6 19  1  0
  7 20  1  0
  7 21  1  0
  8 22  1  0
  9 23  1  0
M  END
