
     RDKit          3D

 21 20  0  0  0  0  0  0  0  0999 V2000
   -1.6793   -0.7264    1.0235 C   0  0  0  0  0  0  0  0  0  0  0  0
   -1.3970    0.1731   -0.1386 C   0  0  0  0  0  0  0  0  0  0  0  0
    0.0671    0.3767   -0.4661 C   0  0  0  0  0  0  0  0  0  0  0  0
    0.0048    1.2702   -1.5936 O   0  0  0  0  0  0  0  0  0  0  0  0
    0.5448    2.4862   -1.2253 C   0  0  0  0  0  0  0  0  0  0  0  0
    0.7682   -0.7988   -0.9493 C   0  0  0  0  0  0  0  0  0  0  0  0
    0.9960   -0.9559   -2.1328 O   0  0  0  0  0  0  0  0  0  0  0  0
    1.2387   -1.8524   -0.0329 C   0  0  0  0  0  0  0  0  0  0  0  0
    1.1244   -1.5451    1.2992 O   0  0  0  0  0  0  0  0  0  0  0  0
   -1.5074   -1.8058    0.8054 H   0  0  0  0  0  0  0  0  0  0  0  0
   -2.7964   -0.6248    1.2528 H   0  0  0  0  0  0  0  0  0  0  0  0
   -1.2096   -0.3900    1.9624 H   0  0  0  0  0  0  0  0  0  0  0  0
   -1.9830   -0.0903   -1.0422 H   0  0  0  0  0  0  0  0  0  0  0  0
   -1.7773    1.1998    0.1437 H   0  0  0  0  0  0  0  0  0  0  0  0
    0.5299    0.9288    0.3641 H   0  0  0  0  0  0  0  0  0  0  0  0
    0.4856    3.1545   -2.1069 H   0  0  0  0  0  0  0  0  0  0  0  0
    1.6228    2.2887   -0.9720 H   0  0  0  0  0  0  0  0  0  0  0  0
    0.0084    2.8790   -0.3529 H   0  0  0  0  0  0  0  0  0  0  0  0
    2.3388   -2.0648   -0.1997 H   0  0  0  0  0  0  0  0  0  0  0  0
    0.6666   -2.7761   -0.2812 H   0  0  0  0  0  0  0  0  0  0  0  0
    1.9541   -1.1266    1.6849 H   0  0  0  0  0  0  0  0  0  0  0  0
  1  2  1  0
  2  3  1  0
  3  4  1  0
  4  5  1  0
  3  6  1  0
  6  7  2  0
  6  8  1  0
  8  9  1  0
  1 10  1  0
  1 11  1  0
  1 12  1  0
  2 13  1  0
  2 14  1  0
  3 15  1  0
  5 16  1  0
  5 17  1  0
  5 18  1  0
  8 19  1  0
  8 20  1  0
  9 21  1  0
M  END
