
     RDKit          3D

 20 19  0  0  0  0  0  0  0  0999 V2000
    2.0139    0.5979   -0.4638 C   0  0  0  0  0  0  0  0  0  0  0  0
    1.1013   -0.4783    0.0032 C   0  0  0  0  0  0  0  0  0  0  0  0
   -0.3480   -0.1226    0.0452 C   0  0  0  0  0  0  0  0  0  0  0  0
   -0.8835    0.2697   -1.3168 C   0  0  0  0  0  0  0  0  0  0  0  0
   -1.1115   -1.3769    0.4634 C   0  0  0  0  0  0  0  0  0  0  0  0
   -0.7047    0.9639    0.9994 C   0  0  0  0  0  0  0  0  0  0  0  0
    3.0084    0.1326   -0.6646 H   0  0  0  0  0  0  0  0  0  0  0  0
    2.2029    1.3951    0.2807 H   0  0  0  0  0  0  0  0  0  0  0  0
    1.6697    1.0241   -1.4383 H   0  0  0  0  0  0  0  0  0  0  0  0
    1.4515   -0.8386    0.9910 H   0  0  0  0  0  0  0  0  0  0  0  0
    1.2101   -1.3445   -0.6899 H   0  0  0  0  0  0  0  0  0  0  0  0
   -0.5599   -0.4197   -2.1175 H   0  0  0  0  0  0  0  0  0  0  0  0
   -0.5583    1.3211   -1.5197 H   0  0  0  0  0  0  0  0  0  0  0  0
   -1.9927    0.2712   -1.2287 H   0  0  0  0  0  0  0  0  0  0  0  0
   -0.4208   -2.1606    0.8459 H   0  0  0  0  0  0  0  0  0  0  0  0
   -1.6597   -1.8275   -0.3927 H   0  0  0  0  0  0  0  0  0  0  0  0
   -1.8253   -1.1606    1.2929 H   0  0  0  0  0  0  0  0  0  0  0  0
   -0.1481    0.9373    1.9528 H   0  0  0  0  0  0  0  0  0  0  0  0
   -0.6631    1.9878    0.5292 H   0  0  0  0  0  0  0  0  0  0  0  0
   -1.7821    0.8287    1.2743 H   0  0  0  0  0  0  0  0  0  0  0  0
  1  2  1  0
  2  3  1  0
  3  4  1  0
  3  5  1  0
  3  6  1  0
  1  7  1  0
  1  8  1  0
  1  9  1  0
  2 10  1  0
  2 11  1  0
  4 12  1  0
  4 13  1  0
  4 14  1  0
  5 15  1  0
  5 16  1  0
  5 17  1  0
  6 18  1  0
  6 19  1  0
  6 20  1  0
M  END
