
     RDKit          3D

 21 20  0  0  0  0  0  0  0  0999 V2000
    3.5612   -0.5217    0.0209 C   0  0  0  0  0  0  0  0  0  0  0  0
    2.6859    0.3794   -0.7908 C   0  0  0  0  0  0  0  0  0  0  0  0
    1.4236    0.6610   -0.0783 C   0  0  0  0  0  0  0  0  0  0  0  0
    1.4227    1.5175    0.8423 O   0  0  0  0  0  0  0  0  0  0  0  0
    0.2221    0.0342   -0.3617 O   0  0  0  0  0  0  0  0  0  0  0  0
   -0.9712    0.3514    0.3662 C   0  0  0  0  0  0  0  0  0  0  0  0
   -2.1396   -0.4493   -0.1136 C   0  0  0  0  0  0  0  0  0  0  0  0
   -3.3475   -0.0352    0.7016 C   0  0  0  0  0  0  0  0  0  0  0  0
   -2.3857   -0.1955   -1.4769 O   0  0  0  0  0  0  0  0  0  0  0  0
    3.4487   -0.3540    1.0957 H   0  0  0  0  0  0  0  0  0  0  0  0
    4.6358   -0.3967   -0.2761 H   0  0  0  0  0  0  0  0  0  0  0  0
    3.2431   -1.5701   -0.1864 H   0  0  0  0  0  0  0  0  0  0  0  0
    3.2250    1.3628   -0.8764 H   0  0  0  0  0  0  0  0  0  0  0  0
    2.5297   -0.0367   -1.8090 H   0  0  0  0  0  0  0  0  0  0  0  0
   -0.7682    0.0552    1.4286 H   0  0  0  0  0  0  0  0  0  0  0  0
   -1.1965    1.4187    0.2736 H   0  0  0  0  0  0  0  0  0  0  0  0
   -1.9010   -1.5258   -0.0128 H   0  0  0  0  0  0  0  0  0  0  0  0
   -3.5194   -0.7238    1.5438 H   0  0  0  0  0  0  0  0  0  0  0  0
   -4.2580    0.0681    0.0475 H   0  0  0  0  0  0  0  0  0  0  0  0
   -3.2044    0.9936    1.1440 H   0  0  0  0  0  0  0  0  0  0  0  0
   -2.7062   -1.0332   -1.8866 H   0  0  0  0  0  0  0  0  0  0  0  0
  1  2  1  0
  2  3  1  0
  3  4  2  0
  3  5  1  0
  5  6  1  0
  6  7  1  0
  7  8  1  0
  7  9  1  0
  1 10  1  0
  1 11  1  0
  1 12  1  0
  2 13  1  0
  2 14  1  0
  6 15  1  0
  6 16  1  0
  7 17  1  0
  8 18  1  0
  8 19  1  0
  8 20  1  0
  9 21  1  0
M  END
