
     RDKit          3D

 21 20  0  0  0  0  0  0  0  0999 V2000
    1.8134   -1.1465    0.4231 C   0  0  0  0  0  0  0  0  0  0  0  0
    1.6470    0.3101    0.2245 C   0  0  0  0  0  0  0  0  0  0  0  0
    0.3960    0.7767   -0.4249 C   0  0  0  0  0  0  0  0  0  0  0  0
    0.5013    2.1942   -0.4959 O   0  0  0  0  0  0  0  0  0  0  0  0
   -0.8750    0.5361    0.3062 C   0  0  0  0  0  0  0  0  0  0  0  0
   -1.9617    1.1276   -0.5749 C   0  0  0  0  0  0  0  0  0  0  0  0
   -2.4549    2.2011   -0.3200 O   0  0  0  0  0  0  0  0  0  0  0  0
   -1.2775   -0.9014    0.4917 C   0  0  0  0  0  0  0  0  0  0  0  0
   -1.4639   -1.5885   -0.6984 O   0  0  0  0  0  0  0  0  0  0  0  0
    1.6697   -1.4721    1.4927 H   0  0  0  0  0  0  0  0  0  0  0  0
    1.2024   -1.7642   -0.2371 H   0  0  0  0  0  0  0  0  0  0  0  0
    2.8946   -1.4148    0.2411 H   0  0  0  0  0  0  0  0  0  0  0  0
    1.7967    0.8297    1.1986 H   0  0  0  0  0  0  0  0  0  0  0  0
    2.5104    0.6713   -0.4146 H   0  0  0  0  0  0  0  0  0  0  0  0
    0.3652    0.4536   -1.4896 H   0  0  0  0  0  0  0  0  0  0  0  0
    0.9649    2.4738   -1.3190 H   0  0  0  0  0  0  0  0  0  0  0  0
   -0.8473    1.0139    1.2866 H   0  0  0  0  0  0  0  0  0  0  0  0
   -2.2537    0.5323   -1.4251 H   0  0  0  0  0  0  0  0  0  0  0  0
   -0.6876   -1.4509    1.2394 H   0  0  0  0  0  0  0  0  0  0  0  0
   -2.3139   -0.8473    0.9485 H   0  0  0  0  0  0  0  0  0  0  0  0
   -1.6260   -2.5345   -0.4530 H   0  0  0  0  0  0  0  0  0  0  0  0
  1  2  1  0
  2  3  1  0
  3  4  1  0
  3  5  1  0
  5  6  1  0
  6  7  2  0
  5  8  1  0
  8  9  1  0
  1 10  1  0
  1 11  1  0
  1 12  1  0
  2 13  1  0
  2 14  1  0
  3 15  1  0
  4 16  1  0
  5 17  1  0
  6 18  1  0
  8 19  1  0
  8 20  1  0
  9 21  1  0
M  END
