
     RDKit          3D

 21 20  0  0  0  0  0  0  0  0999 V2000
    2.4600    0.4778   -0.2057 C   0  0  0  0  0  0  0  0  0  0  0  0
    1.5203   -0.6292   -0.5226 C   0  0  0  0  0  0  0  0  0  0  0  0
    0.4198   -0.8088    0.5014 C   0  0  0  0  0  0  0  0  0  0  0  0
    0.9888   -1.0926    1.7522 O   0  0  0  0  0  0  0  0  0  0  0  0
   -0.5199    0.3255    0.5792 C   0  0  0  0  0  0  0  0  0  0  0  0
   -0.7190    0.9518    1.6230 O   0  0  0  0  0  0  0  0  0  0  0  0
   -1.3019    0.8064   -0.5847 C   0  0  0  0  0  0  0  0  0  0  0  0
   -2.7796    0.6518   -0.1990 C   0  0  0  0  0  0  0  0  0  0  0  0
   -1.0873    0.0823   -1.7284 O   0  0  0  0  0  0  0  0  0  0  0  0
    3.0061    0.7512   -1.1431 H   0  0  0  0  0  0  0  0  0  0  0  0
    3.2004    0.1757    0.5566 H   0  0  0  0  0  0  0  0  0  0  0  0
    1.9734    1.4120    0.1343 H   0  0  0  0  0  0  0  0  0  0  0  0
    1.0962   -0.6423   -1.5271 H   0  0  0  0  0  0  0  0  0  0  0  0
    2.1245   -1.5841   -0.4518 H   0  0  0  0  0  0  0  0  0  0  0  0
   -0.1331   -1.7211    0.2003 H   0  0  0  0  0  0  0  0  0  0  0  0
    1.4936   -1.9519    1.6099 H   0  0  0  0  0  0  0  0  0  0  0  0
   -1.0702    1.8965   -0.7063 H   0  0  0  0  0  0  0  0  0  0  0  0
   -2.8407   -0.3646    0.2832 H   0  0  0  0  0  0  0  0  0  0  0  0
   -3.3937    0.6781   -1.1263 H   0  0  0  0  0  0  0  0  0  0  0  0
   -3.0898    1.4327    0.5213 H   0  0  0  0  0  0  0  0  0  0  0  0
   -1.3479   -0.8474   -1.5551 H   0  0  0  0  0  0  0  0  0  0  0  0
  1  2  1  0
  2  3  1  0
  3  4  1  0
  3  5  1  0
  5  6  2  0
  5  7  1  0
  7  8  1  0
  7  9  1  0
  1 10  1  0
  1 11  1  0
  1 12  1  0
  2 13  1  0
  2 14  1  0
  3 15  1  0
  4 16  1  0
  7 17  1  0
  8 18  1  0
  8 19  1  0
  8 20  1  0
  9 21  1  0
M  END
