
     RDKit          3D

 20 20  0  0  0  0  0  0  0  0999 V2000
   -2.5795    0.4658    0.6369 C   0  0  0  0  0  0  0  0  0  0  0  0
   -1.6184    0.3469   -0.5236 C   0  0  0  0  0  0  0  0  0  0  0  0
   -0.2679   -0.0476    0.0632 C   0  0  0  0  0  0  0  0  0  0  0  0
   -0.4139   -1.2657    0.7265 O   0  0  0  0  0  0  0  0  0  0  0  0
    0.7793   -0.1921   -1.0376 C   0  0  0  0  0  0  0  0  0  0  0  0
    2.0598   -0.5802   -0.3464 C   0  0  0  0  0  0  0  0  0  0  0  0
    2.5316    0.4437    0.6626 C   0  0  0  0  0  0  0  0  0  0  0  0
    3.1983    0.1951   -0.5275 O   0  0  0  0  0  0  0  0  0  0  0  0
   -2.2325   -0.1757    1.4694 H   0  0  0  0  0  0  0  0  0  0  0  0
   -2.6194    1.5477    0.9133 H   0  0  0  0  0  0  0  0  0  0  0  0
   -3.5900    0.0865    0.3614 H   0  0  0  0  0  0  0  0  0  0  0  0
   -1.9626   -0.4877   -1.1627 H   0  0  0  0  0  0  0  0  0  0  0  0
   -1.5572    1.3015   -1.0603 H   0  0  0  0  0  0  0  0  0  0  0  0
    0.0689    0.6850    0.8265 H   0  0  0  0  0  0  0  0  0  0  0  0
   -0.3423   -1.9770    0.0518 H   0  0  0  0  0  0  0  0  0  0  0  0
    0.4357   -0.9394   -1.7574 H   0  0  0  0  0  0  0  0  0  0  0  0
    0.9482    0.8114   -1.4912 H   0  0  0  0  0  0  0  0  0  0  0  0
    2.2322   -1.6401   -0.1631 H   0  0  0  0  0  0  0  0  0  0  0  0
    2.9283    0.0224    1.6060 H   0  0  0  0  0  0  0  0  0  0  0  0
    2.0015    1.3993    0.7524 H   0  0  0  0  0  0  0  0  0  0  0  0
  1  2  1  0
  2  3  1  0
  3  4  1  0
  3  5  1  0
  5  6  1  0
  6  7  1  0
  7  8  1  0
  8  6  1  0
  1  9  1  0
  1 10  1  0
  1 11  1  0
  2 12  1  0
  2 13  1  0
  3 14  1  0
  4 15  1  0
  5 16  1  0
  5 17  1  0
  6 18  1  0
  7 19  1  0
  7 20  1  0
M  END
