
     RDKit          3D

 20 19  0  0  0  0  0  0  0  0999 V2000
   -2.7728   -0.6965    0.4131 C   0  0  0  0  0  0  0  0  0  0  0  0
   -1.9935    0.3832   -0.3489 C   0  0  0  0  0  0  0  0  0  0  0  0
   -0.5990    0.3612    0.1863 C   0  0  0  0  0  0  0  0  0  0  0  0
   -0.4636    0.3841    1.3875 O   0  0  0  0  0  0  0  0  0  0  0  0
    0.4734    0.3104   -0.8199 C   0  0  0  0  0  0  0  0  0  0  0  0
    1.8671    0.3279   -0.2294 C   0  0  0  0  0  0  0  0  0  0  0  0
    2.1227   -0.8318    0.6932 C   0  0  0  0  0  0  0  0  0  0  0  0
    2.2228    1.5609    0.2799 O   0  0  0  0  0  0  0  0  0  0  0  0
   -2.9304   -1.5479   -0.3211 H   0  0  0  0  0  0  0  0  0  0  0  0
   -2.2064   -1.0526    1.2789 H   0  0  0  0  0  0  0  0  0  0  0  0
   -3.7737   -0.3863    0.7047 H   0  0  0  0  0  0  0  0  0  0  0  0
   -2.4081    1.3854   -0.0442 H   0  0  0  0  0  0  0  0  0  0  0  0
   -2.0706    0.2593   -1.4267 H   0  0  0  0  0  0  0  0  0  0  0  0
    0.3028   -0.5631   -1.4707 H   0  0  0  0  0  0  0  0  0  0  0  0
    0.4140    1.2186   -1.4630 H   0  0  0  0  0  0  0  0  0  0  0  0
    2.5463    0.1413   -1.1200 H   0  0  0  0  0  0  0  0  0  0  0  0
    2.0069   -0.5511    1.7652 H   0  0  0  0  0  0  0  0  0  0  0  0
    3.1797   -1.1522    0.5959 H   0  0  0  0  0  0  0  0  0  0  0  0
    1.4843   -1.6692    0.4004 H   0  0  0  0  0  0  0  0  0  0  0  0
    2.5983    2.1187   -0.4612 H   0  0  0  0  0  0  0  0  0  0  0  0
  1  2  1  0
  2  3  1  0
  3  4  2  0
  3  5  1  0
  5  6  1  0
  6  7  1  0
  6  8  1  0
  1  9  1  0
  1 10  1  0
  1 11  1  0
  2 12  1  0
  2 13  1  0
  5 14  1  0
  5 15  1  0
  6 16  1  0
  7 17  1  0
  7 18  1  0
  7 19  1  0
  8 20  1  0
M  END
