
     RDKit          3D

 18 17  0  0  0  0  0  0  0  0999 V2000
   -1.4187    1.0778   -0.5835 C   0  0  0  0  0  0  0  0  0  0  0  0
   -1.4878   -0.0044    0.4699 C   0  0  0  0  0  0  0  0  0  0  0  0
   -0.4217   -1.0515    0.2339 C   0  0  0  0  0  0  0  0  0  0  0  0
   -0.5611   -2.0023    1.2462 O   0  0  0  0  0  0  0  0  0  0  0  0
    0.9603   -0.5032    0.3114 C   0  0  0  0  0  0  0  0  0  0  0  0
    1.2324    0.4805   -0.6708 O   0  0  0  0  0  0  0  0  0  0  0  0
    2.4683    1.0685   -0.7127 C   0  0  0  0  0  0  0  0  0  0  0  0
    3.3625    0.7442    0.1109 O   0  0  0  0  0  0  0  0  0  0  0  0
   -0.9748    0.7009   -1.5420 H   0  0  0  0  0  0  0  0  0  0  0  0
   -2.4572    1.4370   -0.8407 H   0  0  0  0  0  0  0  0  0  0  0  0
   -0.8470    1.9605   -0.2136 H   0  0  0  0  0  0  0  0  0  0  0  0
   -2.4998   -0.4458    0.4823 H   0  0  0  0  0  0  0  0  0  0  0  0
   -1.3300    0.4272    1.4877 H   0  0  0  0  0  0  0  0  0  0  0  0
   -0.5601   -1.5445   -0.7335 H   0  0  0  0  0  0  0  0  0  0  0  0
   -1.0940   -2.7771    0.9799 H   0  0  0  0  0  0  0  0  0  0  0  0
    1.2120   -0.0686    1.3024 H   0  0  0  0  0  0  0  0  0  0  0  0
    1.6674   -1.3369    0.1185 H   0  0  0  0  0  0  0  0  0  0  0  0
    2.7492    1.8377   -1.4463 H   0  0  0  0  0  0  0  0  0  0  0  0
  1  2  1  0
  2  3  1  0
  3  4  1  0
  3  5  1  0
  5  6  1  0
  6  7  1  0
  7  8  2  0
  1  9  1  0
  1 10  1  0
  1 11  1  0
  2 12  1  0
  2 13  1  0
  3 14  1  0
  4 15  1  0
  5 16  1  0
  5 17  1  0
  7 18  1  0
M  END
