
     RDKit          3D

 23 24  0  0  0  0  0  0  0  0999 V2000
    2.4539    0.5295    0.5153 C   0  0  0  0  0  0  0  0  0  0  0  0
    1.7792    0.3899   -0.8314 C   0  0  0  0  0  0  0  0  0  0  0  0
    0.6194   -0.6177   -0.7271 C   0  0  0  0  0  0  0  0  0  0  0  0
    1.1790   -1.8448   -0.3218 O   0  0  0  0  0  0  0  0  0  0  0  0
   -0.3181   -0.0676    0.2770 C   0  0  0  0  0  0  0  0  0  0  0  0
   -1.5594   -0.8091    0.6209 C   0  0  0  0  0  0  0  0  0  0  0  0
   -2.1369   -0.3275   -0.6600 C   0  0  0  0  0  0  0  0  0  0  0  0
   -1.4004    0.8625   -0.1632 C   0  0  0  0  0  0  0  0  0  0  0  0
   -2.0194    0.5317    1.1804 C   0  0  0  0  0  0  0  0  0  0  0  0
    1.9467    1.2812    1.1420 H   0  0  0  0  0  0  0  0  0  0  0  0
    2.4667   -0.4151    1.0866 H   0  0  0  0  0  0  0  0  0  0  0  0
    3.5040    0.8648    0.4042 H   0  0  0  0  0  0  0  0  0  0  0  0
    2.4786    0.0871   -1.6333 H   0  0  0  0  0  0  0  0  0  0  0  0
    1.2744    1.3668   -1.0640 H   0  0  0  0  0  0  0  0  0  0  0  0
    0.1918   -0.7101   -1.7212 H   0  0  0  0  0  0  0  0  0  0  0  0
    1.9012   -2.0631   -0.9635 H   0  0  0  0  0  0  0  0  0  0  0  0
    0.1556    0.3087    1.2332 H   0  0  0  0  0  0  0  0  0  0  0  0
   -1.6624   -1.6887    1.0795 H   0  0  0  0  0  0  0  0  0  0  0  0
   -3.2606   -0.2321   -0.5567 H   0  0  0  0  0  0  0  0  0  0  0  0
   -1.8088   -0.7657   -1.6026 H   0  0  0  0  0  0  0  0  0  0  0  0
   -1.3165    1.7746   -0.5621 H   0  0  0  0  0  0  0  0  0  0  0  0
   -1.3753    0.8759    1.9993 H   0  0  0  0  0  0  0  0  0  0  0  0
   -3.0927    0.6687    1.2684 H   0  0  0  0  0  0  0  0  0  0  0  0
  1  2  1  0
  2  3  1  0
  3  4  1  0
  3  5  1  0
  5  6  1  0
  6  7  1  0
  7  8  1  0
  8  9  1  0
  8  5  1  0
  9  6  1  0
  1 10  1  0
  1 11  1  0
  1 12  1  0
  2 13  1  0
  2 14  1  0
  3 15  1  0
  4 16  1  0
  5 17  1  0
  6 18  1  0
  7 19  1  0
  7 20  1  0
  8 21  1  0
  9 22  1  0
  9 23  1  0
M  END
