
     RDKit          3D

 19 18  0  0  0  0  0  0  0  0999 V2000
   -3.1494   -0.1090   -0.0619 C   0  0  0  0  0  0  0  0  0  0  0  0
   -1.7246   -0.5306    0.1579 C   0  0  0  0  0  0  0  0  0  0  0  0
   -0.7912    0.0582   -0.8240 C   0  0  0  0  0  0  0  0  0  0  0  0
   -1.1203    0.8107   -1.7264 O   0  0  0  0  0  0  0  0  0  0  0  0
    0.6519   -0.2899   -0.7056 C   0  0  0  0  0  0  0  0  0  0  0  0
    1.4322    0.8045   -0.0892 C   0  0  0  0  0  0  0  0  0  0  0  0
    0.8775    1.8304    0.2498 O   0  0  0  0  0  0  0  0  0  0  0  0
    2.8922    0.6673    0.1228 C   0  0  0  0  0  0  0  0  0  0  0  0
    3.3078   -0.5956   -0.3439 O   0  0  0  0  0  0  0  0  0  0  0  0
   -3.7244   -0.8576   -0.6402 H   0  0  0  0  0  0  0  0  0  0  0  0
   -3.2342    0.9194   -0.4709 H   0  0  0  0  0  0  0  0  0  0  0  0
   -3.6354   -0.0727    0.9474 H   0  0  0  0  0  0  0  0  0  0  0  0
   -1.6580   -1.6331    0.0817 H   0  0  0  0  0  0  0  0  0  0  0  0
   -1.3907   -0.1897    1.1683 H   0  0  0  0  0  0  0  0  0  0  0  0
    0.7866   -1.2629   -0.1616 H   0  0  0  0  0  0  0  0  0  0  0  0
    1.0109   -0.5057   -1.7502 H   0  0  0  0  0  0  0  0  0  0  0  0
    3.1787    0.7776    1.1950 H   0  0  0  0  0  0  0  0  0  0  0  0
    3.4580    1.4348   -0.4591 H   0  0  0  0  0  0  0  0  0  0  0  0
    2.8322   -1.2561    0.2236 H   0  0  0  0  0  0  0  0  0  0  0  0
  1  2  1  0
  2  3  1  0
  3  4  2  0
  3  5  1  0
  5  6  1  0
  6  7  2  0
  6  8  1  0
  8  9  1  0
  1 10  1  0
  1 11  1  0
  1 12  1  0
  2 13  1  0
  2 14  1  0
  5 15  1  0
  5 16  1  0
  8 17  1  0
  8 18  1  0
  9 19  1  0
M  END
