
     RDKit          3D

 25 24  0  0  0  0  0  0  0  0999 V2000
    1.3925   -1.4279   -0.6011 C   0  0  0  0  0  0  0  0  0  0  0  0
    0.9085   -0.8802    0.7056 C   0  0  0  0  0  0  0  0  0  0  0  0
    0.1997    0.4263    0.6594 C   0  0  0  0  0  0  0  0  0  0  0  0
   -0.1606    0.7302    2.0092 O   0  0  0  0  0  0  0  0  0  0  0  0
    1.1092    1.5442    0.2688 C   0  0  0  0  0  0  0  0  0  0  0  0
    1.6023    1.4970   -1.0014 O   0  0  0  0  0  0  0  0  0  0  0  0
   -1.1089    0.4107   -0.0629 C   0  0  0  0  0  0  0  0  0  0  0  0
   -2.0945   -0.5584    0.5776 C   0  0  0  0  0  0  0  0  0  0  0  0
   -1.0571    0.1185   -1.5165 C   0  0  0  0  0  0  0  0  0  0  0  0
    2.0382   -0.7686   -1.1807 H   0  0  0  0  0  0  0  0  0  0  0  0
    2.0730   -2.2917   -0.3159 H   0  0  0  0  0  0  0  0  0  0  0  0
    0.5971   -1.9304   -1.1911 H   0  0  0  0  0  0  0  0  0  0  0  0
    1.8260   -0.7729    1.3569 H   0  0  0  0  0  0  0  0  0  0  0  0
    0.3208   -1.6805    1.1976 H   0  0  0  0  0  0  0  0  0  0  0  0
   -0.0790   -0.0429    2.5858 H   0  0  0  0  0  0  0  0  0  0  0  0
    0.5645    2.5057    0.4041 H   0  0  0  0  0  0  0  0  0  0  0  0
    1.9615    1.5410    1.0013 H   0  0  0  0  0  0  0  0  0  0  0  0
    1.7694    2.3916   -1.3790 H   0  0  0  0  0  0  0  0  0  0  0  0
   -1.5660    1.4269    0.0790 H   0  0  0  0  0  0  0  0  0  0  0  0
   -1.6350   -0.8970    1.5181 H   0  0  0  0  0  0  0  0  0  0  0  0
   -2.2891   -1.4276   -0.0993 H   0  0  0  0  0  0  0  0  0  0  0  0
   -3.0785   -0.0973    0.7642 H   0  0  0  0  0  0  0  0  0  0  0  0
   -1.7276    0.8457   -2.0647 H   0  0  0  0  0  0  0  0  0  0  0  0
   -0.0785    0.2274   -1.9741 H   0  0  0  0  0  0  0  0  0  0  0  0
   -1.4881   -0.8897   -1.7412 H   0  0  0  0  0  0  0  0  0  0  0  0
  1  2  1  0
  2  3  1  0
  3  4  1  0
  3  5  1  0
  5  6  1  0
  3  7  1  0
  7  8  1  0
  7  9  1  0
  1 10  1  0
  1 11  1  0
  1 12  1  0
  2 13  1  0
  2 14  1  0
  4 15  1  0
  5 16  1  0
  5 17  1  0
  6 18  1  0
  7 19  1  0
  8 20  1  0
  8 21  1  0
  8 22  1  0
  9 23  1  0
  9 24  1  0
  9 25  1  0
M  END
