
     RDKit          3D

 23 23  0  0  0  0  0  0  0  0999 V2000
   -3.0152    0.5910   -0.2251 C   0  0  0  0  0  0  0  0  0  0  0  0
   -1.6664    0.6386    0.4609 C   0  0  0  0  0  0  0  0  0  0  0  0
   -0.7983   -0.5210   -0.0324 C   0  0  0  0  0  0  0  0  0  0  0  0
   -1.4085   -1.7113    0.2548 O   0  0  0  0  0  0  0  0  0  0  0  0
    0.5478   -0.3466    0.6386 C   0  0  0  0  0  0  0  0  0  0  0  0
    1.5231   -1.3759    0.2842 C   0  0  0  0  0  0  0  0  0  0  0  0
    2.7054   -0.8253    0.0329 C   0  0  0  0  0  0  0  0  0  0  0  0
    2.6282    0.6647    0.2003 C   0  0  0  0  0  0  0  0  0  0  0  0
    1.1506    0.8998    0.0280 C   0  0  0  0  0  0  0  0  0  0  0  0
   -3.2253   -0.4397   -0.6146 H   0  0  0  0  0  0  0  0  0  0  0  0
   -3.0344    1.2594   -1.1142 H   0  0  0  0  0  0  0  0  0  0  0  0
   -3.7960    0.9182    0.4663 H   0  0  0  0  0  0  0  0  0  0  0  0
   -1.2066    1.6101    0.1910 H   0  0  0  0  0  0  0  0  0  0  0  0
   -1.8490    0.5565    1.5535 H   0  0  0  0  0  0  0  0  0  0  0  0
   -0.7243   -0.3824   -1.1303 H   0  0  0  0  0  0  0  0  0  0  0  0
   -1.1989   -2.3885   -0.4398 H   0  0  0  0  0  0  0  0  0  0  0  0
    0.4313   -0.2065    1.7393 H   0  0  0  0  0  0  0  0  0  0  0  0
    1.3755   -2.4582    0.2149 H   0  0  0  0  0  0  0  0  0  0  0  0
    3.6470   -1.3007   -0.2576 H   0  0  0  0  0  0  0  0  0  0  0  0
    2.9817    0.9900    1.1787 H   0  0  0  0  0  0  0  0  0  0  0  0
    3.1982    1.1459   -0.6150 H   0  0  0  0  0  0  0  0  0  0  0  0
    0.7983    1.8294    0.4950 H   0  0  0  0  0  0  0  0  0  0  0  0
    0.9357    0.8524   -1.0600 H   0  0  0  0  0  0  0  0  0  0  0  0
  1  2  1  0
  2  3  1  0
  3  4  1  0
  3  5  1  0
  5  6  1  0
  6  7  2  0
  7  8  1  0
  8  9  1  0
  9  5  1  0
  1 10  1  0
  1 11  1  0
  1 12  1  0
  2 13  1  0
  2 14  1  0
  3 15  1  0
  4 16  1  0
  5 17  1  0
  6 18  1  0
  7 19  1  0
  8 20  1  0
  8 21  1  0
  9 22  1  0
  9 23  1  0
M  END
