
     RDKit          3D

 21 20  0  0  0  0  0  0  0  0999 V2000
    2.1901   -0.2930    0.8477 C   0  0  0  0  0  0  0  0  0  0  0  0
    1.3270    0.7956    0.2427 C   0  0  0  0  0  0  0  0  0  0  0  0
    0.2816    0.2599   -0.6856 C   0  0  0  0  0  0  0  0  0  0  0  0
   -0.5010    1.3932   -1.2189 C   0  0  0  0  0  0  0  0  0  0  0  0
   -1.0178    1.3533   -2.3209 O   0  0  0  0  0  0  0  0  0  0  0  0
   -0.6175   -0.7619   -0.0603 C   0  0  0  0  0  0  0  0  0  0  0  0
   -1.3819   -0.2525    1.1222 C   0  0  0  0  0  0  0  0  0  0  0  0
   -1.6393   -1.1371   -1.1046 C   0  0  0  0  0  0  0  0  0  0  0  0
   -2.7347   -1.5340   -0.7552 O   0  0  0  0  0  0  0  0  0  0  0  0
    1.9101   -1.3035    0.5141 H   0  0  0  0  0  0  0  0  0  0  0  0
    2.1718   -0.1925    1.9717 H   0  0  0  0  0  0  0  0  0  0  0  0
    3.2720   -0.1565    0.5537 H   0  0  0  0  0  0  0  0  0  0  0  0
    0.8982    1.4419    1.0383 H   0  0  0  0  0  0  0  0  0  0  0  0
    1.9910    1.4602   -0.3562 H   0  0  0  0  0  0  0  0  0  0  0  0
    0.7997   -0.2270   -1.5363 H   0  0  0  0  0  0  0  0  0  0  0  0
   -0.6410    2.3104   -0.6347 H   0  0  0  0  0  0  0  0  0  0  0  0
   -0.0655   -1.6731    0.1668 H   0  0  0  0  0  0  0  0  0  0  0  0
   -1.0623    0.7503    1.4616 H   0  0  0  0  0  0  0  0  0  0  0  0
   -1.2542   -0.9711    1.9658 H   0  0  0  0  0  0  0  0  0  0  0  0
   -2.4807   -0.1923    0.9482 H   0  0  0  0  0  0  0  0  0  0  0  0
   -1.4455   -1.0704   -2.1601 H   0  0  0  0  0  0  0  0  0  0  0  0
  1  2  1  0
  2  3  1  0
  3  4  1  0
  4  5  2  0
  3  6  1  0
  6  7  1  0
  6  8  1  0
  8  9  2  0
  1 10  1  0
  1 11  1  0
  1 12  1  0
  2 13  1  0
  2 14  1  0
  3 15  1  0
  4 16  1  0
  6 17  1  0
  7 18  1  0
  7 19  1  0
  7 20  1  0
  8 21  1  0
M  END
