
     RDKit          3D

 23 23  0  0  0  0  0  0  0  0999 V2000
   -2.5853    1.1603    0.4491 C   0  0  0  0  0  0  0  0  0  0  0  0
   -2.0203    0.3704   -0.6990 C   0  0  0  0  0  0  0  0  0  0  0  0
   -1.1541   -0.7791   -0.2394 C   0  0  0  0  0  0  0  0  0  0  0  0
   -0.6981   -1.4235   -1.3959 O   0  0  0  0  0  0  0  0  0  0  0  0
    0.0401   -0.3170    0.5402 C   0  0  0  0  0  0  0  0  0  0  0  0
    0.9531   -1.3772    1.0354 C   0  0  0  0  0  0  0  0  0  0  0  0
    1.4048   -0.4062   -0.0212 C   0  0  0  0  0  0  0  0  0  0  0  0
    2.4365    0.5999    0.4658 C   0  0  0  0  0  0  0  0  0  0  0  0
    3.6683    0.3639   -0.1728 O   0  0  0  0  0  0  0  0  0  0  0  0
   -3.3296    1.8743    0.0045 H   0  0  0  0  0  0  0  0  0  0  0  0
   -3.0701    0.5289    1.2166 H   0  0  0  0  0  0  0  0  0  0  0  0
   -1.7893    1.7899    0.8763 H   0  0  0  0  0  0  0  0  0  0  0  0
   -1.3386    1.0767   -1.2490 H   0  0  0  0  0  0  0  0  0  0  0  0
   -2.8481    0.0299   -1.3471 H   0  0  0  0  0  0  0  0  0  0  0  0
   -1.7714   -1.5060    0.3141 H   0  0  0  0  0  0  0  0  0  0  0  0
   -0.5205   -0.7246   -2.0807 H   0  0  0  0  0  0  0  0  0  0  0  0
   -0.1614    0.5933    1.1619 H   0  0  0  0  0  0  0  0  0  0  0  0
    1.3943   -1.3248    2.0526 H   0  0  0  0  0  0  0  0  0  0  0  0
    0.7672   -2.4147    0.6949 H   0  0  0  0  0  0  0  0  0  0  0  0
    1.5331   -0.7361   -1.0670 H   0  0  0  0  0  0  0  0  0  0  0  0
    2.0384    1.6028    0.2286 H   0  0  0  0  0  0  0  0  0  0  0  0
    2.6241    0.5014    1.5594 H   0  0  0  0  0  0  0  0  0  0  0  0
    4.4269    0.5174    0.4600 H   0  0  0  0  0  0  0  0  0  0  0  0
  1  2  1  0
  2  3  1  0
  3  4  1  0
  3  5  1  0
  5  6  1  0
  6  7  1  0
  7  8  1  0
  8  9  1  0
  7  5  1  0
  1 10  1  0
  1 11  1  0
  1 12  1  0
  2 13  1  0
  2 14  1  0
  3 15  1  0
  4 16  1  0
  5 17  1  0
  6 18  1  0
  6 19  1  0
  7 20  1  0
  8 21  1  0
  8 22  1  0
  9 23  1  0
M  END
