
     RDKit          3D

 19 19  0  0  0  0  0  0  0  0999 V2000
   -3.8076   -0.5750    0.5057 C   0  0  0  0  0  0  0  0  0  0  0  0
   -2.4592    0.1059    0.2799 C   0  0  0  0  0  0  0  0  0  0  0  0
   -1.4084   -0.9045    0.0223 C   0  0  0  0  0  0  0  0  0  0  0  0
   -1.6985   -2.1214    0.0141 O   0  0  0  0  0  0  0  0  0  0  0  0
   -0.0746   -0.4134   -0.2108 C   0  0  0  0  0  0  0  0  0  0  0  0
    1.0385   -0.0007   -0.4265 C   0  0  0  0  0  0  0  0  0  0  0  0
    2.4011    0.4924   -0.7133 C   0  0  0  0  0  0  0  0  0  0  0  0
    3.0485    1.2337    0.3801 C   0  0  0  0  0  0  0  0  0  0  0  0
    3.4802   -0.1459    0.0511 C   0  0  0  0  0  0  0  0  0  0  0  0
   -4.6372    0.0840    0.1890 H   0  0  0  0  0  0  0  0  0  0  0  0
   -3.8553   -1.4803   -0.1302 H   0  0  0  0  0  0  0  0  0  0  0  0
   -3.9082   -0.9155    1.5550 H   0  0  0  0  0  0  0  0  0  0  0  0
   -2.5134    0.8217   -0.5663 H   0  0  0  0  0  0  0  0  0  0  0  0
   -2.2471    0.6828    1.2075 H   0  0  0  0  0  0  0  0  0  0  0  0
    2.6125    0.8298   -1.7640 H   0  0  0  0  0  0  0  0  0  0  0  0
    3.6655    2.1172    0.0942 H   0  0  0  0  0  0  0  0  0  0  0  0
    2.5798    1.3604    1.3761 H   0  0  0  0  0  0  0  0  0  0  0  0
    4.4756   -0.2186   -0.4411 H   0  0  0  0  0  0  0  0  0  0  0  0
    3.3081   -0.9524    0.7792 H   0  0  0  0  0  0  0  0  0  0  0  0
  1  2  1  0
  2  3  1  0
  3  4  2  0
  3  5  1  0
  5  6  3  0
  6  7  1  0
  7  8  1  0
  8  9  1  0
  9  7  1  0
  1 10  1  0
  1 11  1  0
  1 12  1  0
  2 13  1  0
  2 14  1  0
  7 15  1  0
  8 16  1  0
  8 17  1  0
  9 18  1  0
  9 19  1  0
M  END
