
     RDKit          3D

 27 26  0  0  0  0  0  0  0  0999 V2000
    2.3754   -0.3129    0.4943 C   0  0  0  0  0  0  0  0  0  0  0  0
    1.0285   -0.1324    1.1160 C   0  0  0  0  0  0  0  0  0  0  0  0
   -0.0741    0.2424    0.1680 C   0  0  0  0  0  0  0  0  0  0  0  0
   -0.3697   -0.7034   -0.9197 C   0  0  0  0  0  0  0  0  0  0  0  0
    0.7061   -1.0146   -1.8929 C   0  0  0  0  0  0  0  0  0  0  0  0
   -1.3115    0.4430    1.0177 C   0  0  0  0  0  0  0  0  0  0  0  0
   -1.7055   -0.7976    1.7934 C   0  0  0  0  0  0  0  0  0  0  0  0
    0.2670    1.5110   -0.3295 O   0  0  0  0  0  0  0  0  0  0  0  0
   -0.6116    2.0386   -1.2280 C   0  0  0  0  0  0  0  0  0  0  0  0
    3.1763    0.1595    1.1452 H   0  0  0  0  0  0  0  0  0  0  0  0
    2.4418    0.1975   -0.4638 H   0  0  0  0  0  0  0  0  0  0  0  0
    2.6839   -1.3886    0.4838 H   0  0  0  0  0  0  0  0  0  0  0  0
    0.8109   -1.0534    1.6928 H   0  0  0  0  0  0  0  0  0  0  0  0
    1.1063    0.6860    1.8623 H   0  0  0  0  0  0  0  0  0  0  0  0
   -0.7153   -1.7036   -0.5110 H   0  0  0  0  0  0  0  0  0  0  0  0
   -1.2585   -0.3297   -1.4776 H   0  0  0  0  0  0  0  0  0  0  0  0
    1.1053   -0.1023   -2.4169 H   0  0  0  0  0  0  0  0  0  0  0  0
    1.4804   -1.7074   -1.5508 H   0  0  0  0  0  0  0  0  0  0  0  0
    0.1972   -1.5663   -2.7449 H   0  0  0  0  0  0  0  0  0  0  0  0
   -2.2057    0.7274    0.4277 H   0  0  0  0  0  0  0  0  0  0  0  0
   -1.0964    1.2309    1.7868 H   0  0  0  0  0  0  0  0  0  0  0  0
   -1.8081   -1.6983    1.1921 H   0  0  0  0  0  0  0  0  0  0  0  0
   -0.9867   -0.9076    2.6315 H   0  0  0  0  0  0  0  0  0  0  0  0
   -2.7226   -0.5482    2.2221 H   0  0  0  0  0  0  0  0  0  0  0  0
   -0.1929    3.0475   -1.5185 H   0  0  0  0  0  0  0  0  0  0  0  0
   -0.7232    1.4771   -2.1819 H   0  0  0  0  0  0  0  0  0  0  0  0
   -1.5972    2.2055   -0.7983 H   0  0  0  0  0  0  0  0  0  0  0  0
  1  2  1  0
  2  3  1  0
  3  4  1  0
  4  5  1  0
  3  6  1  0
  6  7  1  0
  3  8  1  0
  8  9  1  0
  1 10  1  0
  1 11  1  0
  1 12  1  0
  2 13  1  0
  2 14  1  0
  4 15  1  0
  4 16  1  0
  5 17  1  0
  5 18  1  0
  5 19  1  0
  6 20  1  0
  6 21  1  0
  7 22  1  0
  7 23  1  0
  7 24  1  0
  9 25  1  0
  9 26  1  0
  9 27  1  0
M  END
