
     RDKit          3D

 18 17  0  0  0  0  0  0  0  0999 V2000
   -1.2996    1.3715   -0.1815 C   0  0  0  0  0  0  0  0  0  0  0  0
   -1.2602    0.3757    0.9519 C   0  0  0  0  0  0  0  0  0  0  0  0
   -0.3996   -0.8278    0.5655 C   0  0  0  0  0  0  0  0  0  0  0  0
   -0.9452   -1.5226   -0.6505 C   0  0  0  0  0  0  0  0  0  0  0  0
    0.9619   -0.3889    0.2519 C   0  0  0  0  0  0  0  0  0  0  0  0
    2.0947   -0.0156    0.0104 C   0  0  0  0  0  0  0  0  0  0  0  0
    3.4317    0.4471   -0.2619 C   0  0  0  0  0  0  0  0  0  0  0  0
    3.6571    1.2628   -1.1947 O   0  0  0  0  0  0  0  0  0  0  0  0
   -2.1480    1.1647   -0.8665 H   0  0  0  0  0  0  0  0  0  0  0  0
   -0.3309    1.3597   -0.7161 H   0  0  0  0  0  0  0  0  0  0  0  0
   -1.4039    2.3805    0.2625 H   0  0  0  0  0  0  0  0  0  0  0  0
   -2.2526    0.0566    1.2653 H   0  0  0  0  0  0  0  0  0  0  0  0
   -0.7411    0.8736    1.8025 H   0  0  0  0  0  0  0  0  0  0  0  0
   -0.3910   -1.5641    1.3901 H   0  0  0  0  0  0  0  0  0  0  0  0
   -1.0427   -0.8444   -1.5245 H   0  0  0  0  0  0  0  0  0  0  0  0
   -0.2603   -2.3219   -0.9355 H   0  0  0  0  0  0  0  0  0  0  0  0
   -1.9663   -1.9342   -0.4749 H   0  0  0  0  0  0  0  0  0  0  0  0
    4.2960    0.1273    0.3060 H   0  0  0  0  0  0  0  0  0  0  0  0
  1  2  1  0
  2  3  1  0
  3  4  1  0
  3  5  1  0
  5  6  3  0
  6  7  1  0
  7  8  2  0
  1  9  1  0
  1 10  1  0
  1 11  1  0
  2 12  1  0
  2 13  1  0
  3 14  1  0
  4 15  1  0
  4 16  1  0
  4 17  1  0
  7 18  1  0
M  END
