
     RDKit          3D

 21 21  0  0  0  0  0  0  0  0999 V2000
   -3.2162    0.6483    0.1907 C   0  0  0  0  0  0  0  0  0  0  0  0
   -2.0295   -0.1273   -0.3170 C   0  0  0  0  0  0  0  0  0  0  0  0
   -0.8106    0.1306    0.4758 C   0  0  0  0  0  0  0  0  0  0  0  0
   -0.8629    0.8939    1.4067 O   0  0  0  0  0  0  0  0  0  0  0  0
    0.4259   -0.5438    0.1136 C   0  0  0  0  0  0  0  0  0  0  0  0
    1.6419   -0.2358    0.9674 C   0  0  0  0  0  0  0  0  0  0  0  0
    2.4570   -0.3970   -0.3239 C   0  0  0  0  0  0  0  0  0  0  0  0
    3.5325    0.4415   -0.4328 O   0  0  0  0  0  0  0  0  0  0  0  0
    1.1989    0.1166   -1.0385 C   0  0  0  0  0  0  0  0  0  0  0  0
   -3.0415    1.7229    0.0583 H   0  0  0  0  0  0  0  0  0  0  0  0
   -4.1015    0.3083   -0.3963 H   0  0  0  0  0  0  0  0  0  0  0  0
   -3.4034    0.3538    1.2500 H   0  0  0  0  0  0  0  0  0  0  0  0
   -1.8799    0.1407   -1.3988 H   0  0  0  0  0  0  0  0  0  0  0  0
   -2.2612   -1.2248   -0.2810 H   0  0  0  0  0  0  0  0  0  0  0  0
    0.3681   -1.6279   -0.1024 H   0  0  0  0  0  0  0  0  0  0  0  0
    1.6918    0.8193    1.3092 H   0  0  0  0  0  0  0  0  0  0  0  0
    1.9127   -0.9971    1.7000 H   0  0  0  0  0  0  0  0  0  0  0  0
    2.6224   -1.4722   -0.5109 H   0  0  0  0  0  0  0  0  0  0  0  0
    3.5766    1.0563    0.3173 H   0  0  0  0  0  0  0  0  0  0  0  0
    1.1615    1.2208   -0.9793 H   0  0  0  0  0  0  0  0  0  0  0  0
    1.0175   -0.3418   -2.0082 H   0  0  0  0  0  0  0  0  0  0  0  0
  1  2  1  0
  2  3  1  0
  3  4  2  0
  3  5  1  0
  5  6  1  0
  6  7  1  0
  7  8  1  0
  7  9  1  0
  9  5  1  0
  1 10  1  0
  1 11  1  0
  1 12  1  0
  2 13  1  0
  2 14  1  0
  5 15  1  0
  6 16  1  0
  6 17  1  0
  7 18  1  0
  8 19  1  0
  9 20  1  0
  9 21  1  0
M  END
