
     RDKit          3D

 19 20  0  0  0  0  0  0  0  0999 V2000
    0.2241    2.9833    0.3351 C   0  0  0  0  0  0  0  0  0  0  0  0
   -0.6169    1.7356    0.2061 C   0  0  0  0  0  0  0  0  0  0  0  0
    0.2717    0.5573    0.3110 C   0  0  0  0  0  0  0  0  0  0  0  0
    1.4611    0.7324    0.4736 O   0  0  0  0  0  0  0  0  0  0  0  0
   -0.3108   -0.8015    0.2154 C   0  0  0  0  0  0  0  0  0  0  0  0
    0.7301   -1.8544    0.3427 C   0  0  0  0  0  0  0  0  0  0  0  0
   -0.1713   -2.7852   -0.3982 C   0  0  0  0  0  0  0  0  0  0  0  0
   -0.1759   -1.4738   -1.1147 C   0  0  0  0  0  0  0  0  0  0  0  0
    1.1939   -1.4461   -0.9090 O   0  0  0  0  0  0  0  0  0  0  0  0
    0.5297    3.0336    1.4201 H   0  0  0  0  0  0  0  0  0  0  0  0
   -0.4045    3.8468    0.0607 H   0  0  0  0  0  0  0  0  0  0  0  0
    1.1017    2.9749   -0.3153 H   0  0  0  0  0  0  0  0  0  0  0  0
   -1.3544    1.7069    1.0378 H   0  0  0  0  0  0  0  0  0  0  0  0
   -1.1228    1.7362   -0.7790 H   0  0  0  0  0  0  0  0  0  0  0  0
   -1.2645   -0.9600    0.7447 H   0  0  0  0  0  0  0  0  0  0  0  0
    1.3074   -2.0667    1.1423 H   0  0  0  0  0  0  0  0  0  0  0  0
    0.4109   -3.5775   -0.9120 H   0  0  0  0  0  0  0  0  0  0  0  0
   -1.0836   -3.0983    0.1045 H   0  0  0  0  0  0  0  0  0  0  0  0
   -0.6652   -1.2436   -1.9659 H   0  0  0  0  0  0  0  0  0  0  0  0
  1  2  1  0
  2  3  1  0
  3  4  2  0
  3  5  1  0
  5  6  1  0
  6  7  1  0
  7  8  1  0
  8  9  1  0
  8  5  1  0
  9  6  1  0
  1 10  1  0
  1 11  1  0
  1 12  1  0
  2 13  1  0
  2 14  1  0
  5 15  1  0
  6 16  1  0
  7 17  1  0
  7 18  1  0
  8 19  1  0
M  END
