
     RDKit          3D

 27 26  0  0  0  0  0  0  0  0999 V2000
    0.3501   -2.2438   -0.1137 C   0  0  0  0  0  0  0  0  0  0  0  0
   -0.3317   -1.1756    0.6628 C   0  0  0  0  0  0  0  0  0  0  0  0
   -0.0497    0.2273    0.2898 C   0  0  0  0  0  0  0  0  0  0  0  0
    1.3708    0.6603    0.3928 C   0  0  0  0  0  0  0  0  0  0  0  0
    2.3671   -0.0583   -0.4293 C   0  0  0  0  0  0  0  0  0  0  0  0
   -0.5919    0.5053   -1.0923 C   0  0  0  0  0  0  0  0  0  0  0  0
   -2.0624    0.3136   -1.2384 C   0  0  0  0  0  0  0  0  0  0  0  0
   -0.8080    1.1150    1.2908 C   0  0  0  0  0  0  0  0  0  0  0  0
   -0.5807    2.4532    0.9894 O   0  0  0  0  0  0  0  0  0  0  0  0
    0.1692   -2.1536   -1.2261 H   0  0  0  0  0  0  0  0  0  0  0  0
    1.3917   -2.4360    0.1400 H   0  0  0  0  0  0  0  0  0  0  0  0
   -0.1907   -3.2077    0.1384 H   0  0  0  0  0  0  0  0  0  0  0  0
   -0.0973   -1.3807    1.7508 H   0  0  0  0  0  0  0  0  0  0  0  0
   -1.4307   -1.3683    0.5987 H   0  0  0  0  0  0  0  0  0  0  0  0
    1.3795    1.7638    0.1396 H   0  0  0  0  0  0  0  0  0  0  0  0
    1.7103    0.6299    1.4504 H   0  0  0  0  0  0  0  0  0  0  0  0
    3.0459   -0.7085    0.1989 H   0  0  0  0  0  0  0  0  0  0  0  0
    1.9958   -0.6089   -1.2898 H   0  0  0  0  0  0  0  0  0  0  0  0
    3.0909    0.7007   -0.8561 H   0  0  0  0  0  0  0  0  0  0  0  0
   -0.2604    1.5484   -1.3469 H   0  0  0  0  0  0  0  0  0  0  0  0
   -0.0916   -0.2101   -1.7873 H   0  0  0  0  0  0  0  0  0  0  0  0
   -2.4743    1.2735   -1.6662 H   0  0  0  0  0  0  0  0  0  0  0  0
   -2.6049   -0.0039   -0.3474 H   0  0  0  0  0  0  0  0  0  0  0  0
   -2.3172   -0.4491   -2.0338 H   0  0  0  0  0  0  0  0  0  0  0  0
   -0.3511    0.8932    2.2825 H   0  0  0  0  0  0  0  0  0  0  0  0
   -1.8757    0.9370    1.3014 H   0  0  0  0  0  0  0  0  0  0  0  0
   -0.7526    2.9834    1.8013 H   0  0  0  0  0  0  0  0  0  0  0  0
  1  2  1  0
  2  3  1  0
  3  4  1  0
  4  5  1  0
  3  6  1  0
  6  7  1  0
  3  8  1  0
  8  9  1  0
  1 10  1  0
  1 11  1  0
  1 12  1  0
  2 13  1  0
  2 14  1  0
  4 15  1  0
  4 16  1  0
  5 17  1  0
  5 18  1  0
  5 19  1  0
  6 20  1  0
  6 21  1  0
  7 22  1  0
  7 23  1  0
  7 24  1  0
  8 25  1  0
  8 26  1  0
  9 27  1  0
M  END
