
     RDKit          3D

 23 22  0  0  0  0  0  0  0  0999 V2000
   -1.9716   -1.5026    0.0067 C   0  0  0  0  0  0  0  0  0  0  0  0
   -1.7506   -0.0994    0.5344 C   0  0  0  0  0  0  0  0  0  0  0  0
   -1.1202    0.7271   -0.5832 C   0  0  0  0  0  0  0  0  0  0  0  0
   -0.8976    2.1349   -0.0560 C   0  0  0  0  0  0  0  0  0  0  0  0
    0.1478    0.0733   -0.9887 C   0  0  0  0  0  0  0  0  0  0  0  0
    0.2901   -0.3078   -2.1320 O   0  0  0  0  0  0  0  0  0  0  0  0
    1.2124   -0.1058   -0.0100 C   0  0  0  0  0  0  0  0  0  0  0  0
    2.3449   -0.7192   -0.4766 O   0  0  0  0  0  0  0  0  0  0  0  0
    3.2509   -0.8033    0.6001 C   0  0  0  0  0  0  0  0  0  0  0  0
   -1.3785   -1.6940   -0.9139 H   0  0  0  0  0  0  0  0  0  0  0  0
   -1.6712   -2.2760    0.7510 H   0  0  0  0  0  0  0  0  0  0  0  0
   -3.0331   -1.5723   -0.2862 H   0  0  0  0  0  0  0  0  0  0  0  0
   -2.7079    0.3886    0.8253 H   0  0  0  0  0  0  0  0  0  0  0  0
   -1.0991   -0.0825    1.4326 H   0  0  0  0  0  0  0  0  0  0  0  0
   -1.8643    0.7705   -1.4067 H   0  0  0  0  0  0  0  0  0  0  0  0
   -0.0901    2.6656   -0.6119 H   0  0  0  0  0  0  0  0  0  0  0  0
   -1.7994    2.7441   -0.1431 H   0  0  0  0  0  0  0  0  0  0  0  0
   -0.5315    2.0137    0.9920 H   0  0  0  0  0  0  0  0  0  0  0  0
    1.5088    0.9001    0.3742 H   0  0  0  0  0  0  0  0  0  0  0  0
    0.8071   -0.7195    0.8457 H   0  0  0  0  0  0  0  0  0  0  0  0
    2.7509   -1.4073    1.3973 H   0  0  0  0  0  0  0  0  0  0  0  0
    4.1776   -1.3285    0.3194 H   0  0  0  0  0  0  0  0  0  0  0  0
    3.4248    0.2001    1.0422 H   0  0  0  0  0  0  0  0  0  0  0  0
  1  2  1  0
  2  3  1  0
  3  4  1  0
  3  5  1  0
  5  6  2  0
  5  7  1  0
  7  8  1  0
  8  9  1  0
  1 10  1  0
  1 11  1  0
  1 12  1  0
  2 13  1  0
  2 14  1  0
  3 15  1  0
  4 16  1  0
  4 17  1  0
  4 18  1  0
  7 19  1  0
  7 20  1  0
  9 21  1  0
  9 22  1  0
  9 23  1  0
M  END
