
     RDKit          3D

 23 24  0  0  0  0  0  0  0  0999 V2000
    2.9379   -0.2455   -0.2542 C   0  0  0  0  0  0  0  0  0  0  0  0
    1.6323    0.5109   -0.3466 C   0  0  0  0  0  0  0  0  0  0  0  0
    0.5621   -0.3354    0.2810 C   0  0  0  0  0  0  0  0  0  0  0  0
    0.8466   -0.6032    1.6197 O   0  0  0  0  0  0  0  0  0  0  0  0
   -0.7433    0.3557    0.2034 C   0  0  0  0  0  0  0  0  0  0  0  0
   -1.9734   -0.3253    0.7820 C   0  0  0  0  0  0  0  0  0  0  0  0
   -2.3548   -0.6590   -0.6398 C   0  0  0  0  0  0  0  0  0  0  0  0
   -1.3905    0.3155   -1.2069 C   0  0  0  0  0  0  0  0  0  0  0  0
   -1.0151    1.5782   -0.5530 C   0  0  0  0  0  0  0  0  0  0  0  0
    3.2787   -0.4119   -1.3016 H   0  0  0  0  0  0  0  0  0  0  0  0
    2.8186   -1.2154    0.2985 H   0  0  0  0  0  0  0  0  0  0  0  0
    3.6940    0.3843    0.2603 H   0  0  0  0  0  0  0  0  0  0  0  0
    1.3356    0.7280   -1.3935 H   0  0  0  0  0  0  0  0  0  0  0  0
    1.6694    1.4861    0.1771 H   0  0  0  0  0  0  0  0  0  0  0  0
    0.5692   -1.3327   -0.2443 H   0  0  0  0  0  0  0  0  0  0  0  0
    0.7257   -1.5608    1.8424 H   0  0  0  0  0  0  0  0  0  0  0  0
   -2.6381    0.4290    1.2672 H   0  0  0  0  0  0  0  0  0  0  0  0
   -1.6503   -1.1624    1.4118 H   0  0  0  0  0  0  0  0  0  0  0  0
   -3.4129   -0.5524   -0.9007 H   0  0  0  0  0  0  0  0  0  0  0  0
   -2.0284   -1.7178   -0.8530 H   0  0  0  0  0  0  0  0  0  0  0  0
   -0.7640   -0.0338   -2.0383 H   0  0  0  0  0  0  0  0  0  0  0  0
   -1.8740    2.2016   -0.1650 H   0  0  0  0  0  0  0  0  0  0  0  0
   -0.2254    2.1664   -1.0125 H   0  0  0  0  0  0  0  0  0  0  0  0
  1  2  1  0
  2  3  1  0
  3  4  1  0
  3  5  1  0
  5  6  1  0
  6  7  1  0
  7  8  1  0
  8  9  1  0
  8  5  1  0
  9  5  1  0
  1 10  1  0
  1 11  1  0
  1 12  1  0
  2 13  1  0
  2 14  1  0
  3 15  1  0
  4 16  1  0
  6 17  1  0
  6 18  1  0
  7 19  1  0
  7 20  1  0
  8 21  1  0
  9 22  1  0
  9 23  1  0
M  END
