
     RDKit          3D

 19 19  0  0  0  0  0  0  0  0999 V2000
   -3.1732    0.0403    0.1589 C   0  0  0  0  0  0  0  0  0  0  0  0
   -1.8054    0.0655   -0.4851 C   0  0  0  0  0  0  0  0  0  0  0  0
   -0.7888    0.3235    0.5444 C   0  0  0  0  0  0  0  0  0  0  0  0
   -1.1113    0.4761    1.6948 O   0  0  0  0  0  0  0  0  0  0  0  0
    0.6379    0.3972    0.1722 C   0  0  0  0  0  0  0  0  0  0  0  0
    1.4795    0.6431    1.2268 O   0  0  0  0  0  0  0  0  0  0  0  0
    2.6896    0.0679    0.8089 C   0  0  0  0  0  0  0  0  0  0  0  0
    2.3861   -0.7017   -0.4497 C   0  0  0  0  0  0  0  0  0  0  0  0
    0.9942   -0.8409   -0.3639 O   0  0  0  0  0  0  0  0  0  0  0  0
   -3.5590    1.0640    0.3391 H   0  0  0  0  0  0  0  0  0  0  0  0
   -3.8357   -0.5455   -0.5183 H   0  0  0  0  0  0  0  0  0  0  0  0
   -3.0535   -0.4728    1.1445 H   0  0  0  0  0  0  0  0  0  0  0  0
   -1.6591   -0.9091   -0.9982 H   0  0  0  0  0  0  0  0  0  0  0  0
   -1.8200    0.8243   -1.2944 H   0  0  0  0  0  0  0  0  0  0  0  0
    0.7538    1.2000   -0.6007 H   0  0  0  0  0  0  0  0  0  0  0  0
    3.4565    0.8370    0.5817 H   0  0  0  0  0  0  0  0  0  0  0  0
    3.0081   -0.6587    1.5768 H   0  0  0  0  0  0  0  0  0  0  0  0
    2.5731   -0.1039   -1.3693 H   0  0  0  0  0  0  0  0  0  0  0  0
    2.8272   -1.7065   -0.4765 H   0  0  0  0  0  0  0  0  0  0  0  0
  1  2  1  0
  2  3  1  0
  3  4  2  0
  3  5  1  0
  5  6  1  0
  6  7  1  0
  7  8  1  0
  8  9  1  0
  9  5  1  0
  1 10  1  0
  1 11  1  0
  1 12  1  0
  2 13  1  0
  2 14  1  0
  5 15  1  0
  7 16  1  0
  7 17  1  0
  8 18  1  0
  8 19  1  0
M  END
