
     RDKit          3D

 20 19  0  0  0  0  0  0  0  0999 V2000
   -2.1427   -1.1459    0.2379 C   0  0  0  0  0  0  0  0  0  0  0  0
   -0.6708   -0.9731   -0.1383 C   0  0  0  0  0  0  0  0  0  0  0  0
   -0.4391    0.5023   -0.3157 C   0  0  0  0  0  0  0  0  0  0  0  0
   -0.7280    1.2685    0.9225 C   0  0  0  0  0  0  0  0  0  0  0  0
   -0.6299    0.8065    2.0466 O   0  0  0  0  0  0  0  0  0  0  0  0
    0.8914    0.8378   -0.9176 C   0  0  0  0  0  0  0  0  0  0  0  0
    2.0598    0.3681   -0.1192 C   0  0  0  0  0  0  0  0  0  0  0  0
    2.1167   -0.9932    0.0751 O   0  0  0  0  0  0  0  0  0  0  0  0
   -2.4084   -2.2086    0.1009 H   0  0  0  0  0  0  0  0  0  0  0  0
   -2.7662   -0.4704   -0.4109 H   0  0  0  0  0  0  0  0  0  0  0  0
   -2.2502   -0.8487    1.3102 H   0  0  0  0  0  0  0  0  0  0  0  0
   -0.0965   -1.4196    0.6886 H   0  0  0  0  0  0  0  0  0  0  0  0
   -0.4999   -1.4664   -1.1162 H   0  0  0  0  0  0  0  0  0  0  0  0
   -1.2129    0.8468   -1.0656 H   0  0  0  0  0  0  0  0  0  0  0  0
   -1.0453    2.2984    0.8436 H   0  0  0  0  0  0  0  0  0  0  0  0
    0.9368    0.3575   -1.9184 H   0  0  0  0  0  0  0  0  0  0  0  0
    0.9530    1.9300   -1.0169 H   0  0  0  0  0  0  0  0  0  0  0  0
    2.0245    0.8455    0.8819 H   0  0  0  0  0  0  0  0  0  0  0  0
    2.9814    0.6545   -0.6848 H   0  0  0  0  0  0  0  0  0  0  0  0
    2.9265   -1.1900    0.5963 H   0  0  0  0  0  0  0  0  0  0  0  0
  1  2  1  0
  2  3  1  0
  3  4  1  0
  4  5  2  0
  3  6  1  0
  6  7  1  0
  7  8  1  0
  1  9  1  0
  1 10  1  0
  1 11  1  0
  2 12  1  0
  2 13  1  0
  3 14  1  0
  4 15  1  0
  6 16  1  0
  6 17  1  0
  7 18  1  0
  7 19  1  0
  8 20  1  0
M  END
