
     RDKit          3D

 25 24  0  0  0  0  0  0  0  0999 V2000
   -3.6979   -0.4860    0.0489 C   0  0  0  0  0  0  0  0  0  0  0  0
   -2.3915   -0.2455    0.7765 C   0  0  0  0  0  0  0  0  0  0  0  0
   -1.2850   -0.3851   -0.2312 C   0  0  0  0  0  0  0  0  0  0  0  0
   -1.4107    0.5206   -1.2544 O   0  0  0  0  0  0  0  0  0  0  0  0
    0.0917   -0.2884    0.4254 C   0  0  0  0  0  0  0  0  0  0  0  0
    1.0965   -0.4401   -0.6652 C   0  0  0  0  0  0  0  0  0  0  0  0
    2.5218   -0.3711   -0.2035 C   0  0  0  0  0  0  0  0  0  0  0  0
    2.8900    0.9084    0.4580 C   0  0  0  0  0  0  0  0  0  0  0  0
    4.2309    0.8356    0.8331 O   0  0  0  0  0  0  0  0  0  0  0  0
   -3.5509   -0.6496   -1.0412 H   0  0  0  0  0  0  0  0  0  0  0  0
   -4.3659    0.3757    0.1956 H   0  0  0  0  0  0  0  0  0  0  0  0
   -4.2366   -1.3830    0.4584 H   0  0  0  0  0  0  0  0  0  0  0  0
   -2.2550   -0.9936    1.5833 H   0  0  0  0  0  0  0  0  0  0  0  0
   -2.3846    0.7785    1.2355 H   0  0  0  0  0  0  0  0  0  0  0  0
   -1.3601   -1.4107   -0.6611 H   0  0  0  0  0  0  0  0  0  0  0  0
   -1.7705    0.1270   -2.0910 H   0  0  0  0  0  0  0  0  0  0  0  0
    0.1650    0.7520    0.8184 H   0  0  0  0  0  0  0  0  0  0  0  0
    0.1978   -1.0151    1.2292 H   0  0  0  0  0  0  0  0  0  0  0  0
    0.8916    0.3386   -1.4411 H   0  0  0  0  0  0  0  0  0  0  0  0
    0.9210   -1.4151   -1.1635 H   0  0  0  0  0  0  0  0  0  0  0  0
    3.1664   -0.5386   -1.0935 H   0  0  0  0  0  0  0  0  0  0  0  0
    2.7255   -1.1994    0.4906 H   0  0  0  0  0  0  0  0  0  0  0  0
    2.3146    1.0353    1.4077 H   0  0  0  0  0  0  0  0  0  0  0  0
    2.6747    1.8093   -0.1464 H   0  0  0  0  0  0  0  0  0  0  0  0
    4.8214    0.6778    0.0315 H   0  0  0  0  0  0  0  0  0  0  0  0
  1  2  1  0
  2  3  1  0
  3  4  1  0
  3  5  1  0
  5  6  1  0
  6  7  1  0
  7  8  1  0
  8  9  1  0
  1 10  1  0
  1 11  1  0
  1 12  1  0
  2 13  1  0
  2 14  1  0
  3 15  1  0
  4 16  1  0
  5 17  1  0
  5 18  1  0
  6 19  1  0
  6 20  1  0
  7 21  1  0
  7 22  1  0
  8 23  1  0
  8 24  1  0
  9 25  1  0
M  END
