
     RDKit          3D

 18 17  0  0  0  0  0  0  0  0999 V2000
    2.6374    0.4162    0.2937 C   0  0  0  0  0  0  0  0  0  0  0  0
    1.4312   -0.4540    0.4483 C   0  0  0  0  0  0  0  0  0  0  0  0
    0.2686    0.0571   -0.3086 C   0  0  0  0  0  0  0  0  0  0  0  0
    0.4245    1.0795   -0.9392 O   0  0  0  0  0  0  0  0  0  0  0  0
   -1.0548   -0.6015   -0.3377 C   0  0  0  0  0  0  0  0  0  0  0  0
   -1.0749   -1.7597    0.4325 O   0  0  0  0  0  0  0  0  0  0  0  0
   -2.1038    0.3843    0.1544 C   0  0  0  0  0  0  0  0  0  0  0  0
   -2.0969    1.5464   -0.6042 O   0  0  0  0  0  0  0  0  0  0  0  0
    2.5381    1.1526   -0.5337 H   0  0  0  0  0  0  0  0  0  0  0  0
    2.8567    1.0176    1.2093 H   0  0  0  0  0  0  0  0  0  0  0  0
    3.5125   -0.2059    0.0564 H   0  0  0  0  0  0  0  0  0  0  0  0
    1.6461   -1.4754    0.0711 H   0  0  0  0  0  0  0  0  0  0  0  0
    1.1613   -0.5031    1.5430 H   0  0  0  0  0  0  0  0  0  0  0  0
   -1.3245   -0.9219   -1.3835 H   0  0  0  0  0  0  0  0  0  0  0  0
   -1.8497   -1.7107    1.0549 H   0  0  0  0  0  0  0  0  0  0  0  0
   -1.8160    0.6685    1.1872 H   0  0  0  0  0  0  0  0  0  0  0  0
   -3.1123   -0.0798    0.1586 H   0  0  0  0  0  0  0  0  0  0  0  0
   -2.0435    1.3899   -1.5653 H   0  0  0  0  0  0  0  0  0  0  0  0
  1  2  1  0
  2  3  1  0
  3  4  2  0
  3  5  1  0
  5  6  1  0
  5  7  1  0
  7  8  1  0
  1  9  1  0
  1 10  1  0
  1 11  1  0
  2 12  1  0
  2 13  1  0
  5 14  1  0
  6 15  1  0
  7 16  1  0
  7 17  1  0
  8 18  1  0
M  END
