
     RDKit          3D

 21 20  0  0  0  0  0  0  0  0999 V2000
    1.7248   -0.8777    0.7030 C   0  0  0  0  0  0  0  0  0  0  0  0
    1.2909   -0.0389   -0.4428 C   0  0  0  0  0  0  0  0  0  0  0  0
   -0.1231    0.4414   -0.4123 C   0  0  0  0  0  0  0  0  0  0  0  0
   -0.2454    1.2179   -1.6088 O   0  0  0  0  0  0  0  0  0  0  0  0
   -0.3614    1.3984    0.7204 C   0  0  0  0  0  0  0  0  0  0  0  0
   -1.6372    1.9769    0.6064 O   0  0  0  0  0  0  0  0  0  0  0  0
   -1.1785   -0.6046   -0.5621 C   0  0  0  0  0  0  0  0  0  0  0  0
   -1.2003   -1.6668    0.4341 C   0  0  0  0  0  0  0  0  0  0  0  0
   -0.7216   -2.7534    0.1766 O   0  0  0  0  0  0  0  0  0  0  0  0
    2.7793   -0.5591    0.9811 H   0  0  0  0  0  0  0  0  0  0  0  0
    1.8416   -1.9517    0.4571 H   0  0  0  0  0  0  0  0  0  0  0  0
    1.1402   -0.6789    1.6229 H   0  0  0  0  0  0  0  0  0  0  0  0
    1.4670   -0.5186   -1.4352 H   0  0  0  0  0  0  0  0  0  0  0  0
    1.9258    0.8991   -0.4881 H   0  0  0  0  0  0  0  0  0  0  0  0
   -0.2763    0.5254   -2.3292 H   0  0  0  0  0  0  0  0  0  0  0  0
    0.3923    2.1834    0.7333 H   0  0  0  0  0  0  0  0  0  0  0  0
   -0.4001    0.8184    1.6837 H   0  0  0  0  0  0  0  0  0  0  0  0
   -1.5546    2.7560    0.0175 H   0  0  0  0  0  0  0  0  0  0  0  0
   -2.1671   -0.0589   -0.6428 H   0  0  0  0  0  0  0  0  0  0  0  0
   -1.0584   -1.0086   -1.6190 H   0  0  0  0  0  0  0  0  0  0  0  0
   -1.6380   -1.4995    1.4042 H   0  0  0  0  0  0  0  0  0  0  0  0
  1  2  1  0
  2  3  1  0
  3  4  1  0
  3  5  1  0
  5  6  1  0
  3  7  1  0
  7  8  1  0
  8  9  2  0
  1 10  1  0
  1 11  1  0
  1 12  1  0
  2 13  1  0
  2 14  1  0
  4 15  1  0
  5 16  1  0
  5 17  1  0
  6 18  1  0
  7 19  1  0
  7 20  1  0
  8 21  1  0
M  END
