
     RDKit          3D

 25 24  0  0  0  0  0  0  0  0999 V2000
   -1.2987   -0.8490   -1.7793 C   0  0  0  0  0  0  0  0  0  0  0  0
   -1.2141   -0.9824   -0.2822 C   0  0  0  0  0  0  0  0  0  0  0  0
   -0.6343    0.1972    0.4075 C   0  0  0  0  0  0  0  0  0  0  0  0
   -0.6292   -0.1165    1.8949 C   0  0  0  0  0  0  0  0  0  0  0  0
   -1.5570    1.3885    0.1390 C   0  0  0  0  0  0  0  0  0  0  0  0
    0.7333    0.5934    0.0052 C   0  0  0  0  0  0  0  0  0  0  0  0
    1.7903   -0.3772    0.1857 C   0  0  0  0  0  0  0  0  0  0  0  0
    3.1708   -0.0031   -0.2105 C   0  0  0  0  0  0  0  0  0  0  0  0
    1.6409   -1.4886    0.6407 O   0  0  0  0  0  0  0  0  0  0  0  0
   -0.9817   -1.8361   -2.2038 H   0  0  0  0  0  0  0  0  0  0  0  0
   -2.3405   -0.6999   -2.1450 H   0  0  0  0  0  0  0  0  0  0  0  0
   -0.6865   -0.0575   -2.2023 H   0  0  0  0  0  0  0  0  0  0  0  0
   -2.2733   -1.0824    0.0793 H   0  0  0  0  0  0  0  0  0  0  0  0
   -0.7364   -1.9504    0.0342 H   0  0  0  0  0  0  0  0  0  0  0  0
   -0.0612    0.6337    2.4758 H   0  0  0  0  0  0  0  0  0  0  0  0
   -0.2330   -1.1480    2.0014 H   0  0  0  0  0  0  0  0  0  0  0  0
   -1.6953   -0.1517    2.2389 H   0  0  0  0  0  0  0  0  0  0  0  0
   -2.4779    1.0825   -0.3847 H   0  0  0  0  0  0  0  0  0  0  0  0
   -1.7388    1.8886    1.1095 H   0  0  0  0  0  0  0  0  0  0  0  0
   -1.0570    2.1423   -0.5070 H   0  0  0  0  0  0  0  0  0  0  0  0
    0.7229    0.9005   -1.0818 H   0  0  0  0  0  0  0  0  0  0  0  0
    0.9981    1.5244    0.5524 H   0  0  0  0  0  0  0  0  0  0  0  0
    3.1273    0.7655   -1.0356 H   0  0  0  0  0  0  0  0  0  0  0  0
    3.7588   -0.8727   -0.5645 H   0  0  0  0  0  0  0  0  0  0  0  0
    3.6723    0.4987    0.6324 H   0  0  0  0  0  0  0  0  0  0  0  0
  1  2  1  0
  2  3  1  0
  3  4  1  0
  3  5  1  0
  3  6  1  0
  6  7  1  0
  7  8  1  0
  7  9  2  0
  1 10  1  0
  1 11  1  0
  1 12  1  0
  2 13  1  0
  2 14  1  0
  4 15  1  0
  4 16  1  0
  4 17  1  0
  5 18  1  0
  5 19  1  0
  5 20  1  0
  6 21  1  0
  6 22  1  0
  8 23  1  0
  8 24  1  0
  8 25  1  0
M  END
