
     RDKit          3D

 22 22  0  0  0  0  0  0  0  0999 V2000
    2.1392   -1.0991   -0.4311 C   0  0  0  0  0  0  0  0  0  0  0  0
    1.6087    0.0438    0.4103 C   0  0  0  0  0  0  0  0  0  0  0  0
    0.3123    0.6002   -0.1477 C   0  0  0  0  0  0  0  0  0  0  0  0
   -0.1301    1.7187    0.7471 C   0  0  0  0  0  0  0  0  0  0  0  0
   -0.7225   -0.4486   -0.3596 C   0  0  0  0  0  0  0  0  0  0  0  0
   -0.3487   -1.4569   -1.2502 O   0  0  0  0  0  0  0  0  0  0  0  0
   -2.1182    0.0738   -0.6036 C   0  0  0  0  0  0  0  0  0  0  0  0
   -1.8034   -0.6969    0.6267 C   0  0  0  0  0  0  0  0  0  0  0  0
    3.2444   -1.1877   -0.3511 H   0  0  0  0  0  0  0  0  0  0  0  0
    1.8944   -0.8521   -1.5000 H   0  0  0  0  0  0  0  0  0  0  0  0
    1.6536   -2.0490   -0.2011 H   0  0  0  0  0  0  0  0  0  0  0  0
    2.3873    0.8283    0.4017 H   0  0  0  0  0  0  0  0  0  0  0  0
    1.4672   -0.2577    1.4736 H   0  0  0  0  0  0  0  0  0  0  0  0
    0.5657    1.0460   -1.1342 H   0  0  0  0  0  0  0  0  0  0  0  0
    0.7742    2.3779    0.9004 H   0  0  0  0  0  0  0  0  0  0  0  0
   -0.4187    1.3805    1.7576 H   0  0  0  0  0  0  0  0  0  0  0  0
   -0.8768    2.3577    0.2526 H   0  0  0  0  0  0  0  0  0  0  0  0
   -0.6647   -1.1868   -2.1601 H   0  0  0  0  0  0  0  0  0  0  0  0
   -2.7585   -0.4271   -1.3756 H   0  0  0  0  0  0  0  0  0  0  0  0
   -2.3178    1.1620   -0.5561 H   0  0  0  0  0  0  0  0  0  0  0  0
   -1.7173   -0.1861    1.6204 H   0  0  0  0  0  0  0  0  0  0  0  0
   -2.1706   -1.7407    0.6656 H   0  0  0  0  0  0  0  0  0  0  0  0
  1  2  1  0
  2  3  1  0
  3  4  1  0
  3  5  1  0
  5  6  1  0
  5  7  1  0
  7  8  1  0
  8  5  1  0
  1  9  1  0
  1 10  1  0
  1 11  1  0
  2 12  1  0
  2 13  1  0
  3 14  1  0
  4 15  1  0
  4 16  1  0
  4 17  1  0
  6 18  1  0
  7 19  1  0
  7 20  1  0
  8 21  1  0
  8 22  1  0
M  END
