
     RDKit          3D

 21 20  0  0  0  0  0  0  0  0999 V2000
   -2.1344   -0.2297   -0.9822 C   0  0  0  0  0  0  0  0  0  0  0  0
   -1.5740   -0.9737    0.1843 C   0  0  0  0  0  0  0  0  0  0  0  0
   -0.3308   -0.3337    0.7576 C   0  0  0  0  0  0  0  0  0  0  0  0
   -0.5871    1.0696    1.2412 C   0  0  0  0  0  0  0  0  0  0  0  0
    0.8261   -0.3771   -0.1840 C   0  0  0  0  0  0  0  0  0  0  0  0
    2.0061    0.2648    0.4422 C   0  0  0  0  0  0  0  0  0  0  0  0
    1.8802    0.7256    1.6057 O   0  0  0  0  0  0  0  0  0  0  0  0
    3.2824    0.3580   -0.2782 C   0  0  0  0  0  0  0  0  0  0  0  0
    3.3619   -0.1124   -1.4300 O   0  0  0  0  0  0  0  0  0  0  0  0
   -1.3589    0.2335   -1.6073 H   0  0  0  0  0  0  0  0  0  0  0  0
   -2.7066   -0.9600   -1.6057 H   0  0  0  0  0  0  0  0  0  0  0  0
   -2.8920    0.5207   -0.6415 H   0  0  0  0  0  0  0  0  0  0  0  0
   -1.3554   -1.9975   -0.1191 H   0  0  0  0  0  0  0  0  0  0  0  0
   -2.3397   -0.9962    0.9931 H   0  0  0  0  0  0  0  0  0  0  0  0
   -0.0415   -0.9466    1.6477 H   0  0  0  0  0  0  0  0  0  0  0  0
   -1.6664    1.2871    1.0685 H   0  0  0  0  0  0  0  0  0  0  0  0
    0.0365    1.7522    0.6015 H   0  0  0  0  0  0  0  0  0  0  0  0
   -0.3062    1.1417    2.3008 H   0  0  0  0  0  0  0  0  0  0  0  0
    1.1274   -1.4053   -0.4497 H   0  0  0  0  0  0  0  0  0  0  0  0
    0.6250    0.1660   -1.1324 H   0  0  0  0  0  0  0  0  0  0  0  0
    4.1475    0.8129    0.1440 H   0  0  0  0  0  0  0  0  0  0  0  0
  1  2  1  0
  2  3  1  0
  3  4  1  0
  3  5  1  0
  5  6  1  0
  6  7  2  0
  6  8  1  0
  8  9  2  0
  1 10  1  0
  1 11  1  0
  1 12  1  0
  2 13  1  0
  2 14  1  0
  3 15  1  0
  4 16  1  0
  4 17  1  0
  4 18  1  0
  5 19  1  0
  5 20  1  0
  8 21  1  0
M  END
