
     RDKit          3D

 25 24  0  0  0  0  0  0  0  0999 V2000
    2.8453   -0.8135   -0.2811 C   0  0  0  0  0  0  0  0  0  0  0  0
    1.3059   -0.9875   -0.2657 C   0  0  0  0  0  0  0  0  0  0  0  0
    0.7785    0.3840   -0.1136 C   0  0  0  0  0  0  0  0  0  0  0  0
    1.2886    0.8832    1.1108 O   0  0  0  0  0  0  0  0  0  0  0  0
   -0.6606    0.6372   -0.2580 C   0  0  0  0  0  0  0  0  0  0  0  0
   -0.8519    2.1544   -0.0484 C   0  0  0  0  0  0  0  0  0  0  0  0
   -1.6080   -0.0826    0.6179 C   0  0  0  0  0  0  0  0  0  0  0  0
   -1.5445   -1.5801    0.4573 C   0  0  0  0  0  0  0  0  0  0  0  0
   -2.9144    0.3109    0.2421 O   0  0  0  0  0  0  0  0  0  0  0  0
    3.0913   -0.0822   -1.0797 H   0  0  0  0  0  0  0  0  0  0  0  0
    3.3305   -1.7644   -0.5720 H   0  0  0  0  0  0  0  0  0  0  0  0
    3.1705   -0.4420    0.6936 H   0  0  0  0  0  0  0  0  0  0  0  0
    1.0595   -1.7115    0.5142 H   0  0  0  0  0  0  0  0  0  0  0  0
    1.1047   -1.4384   -1.2806 H   0  0  0  0  0  0  0  0  0  0  0  0
    1.3087    1.0155   -0.8967 H   0  0  0  0  0  0  0  0  0  0  0  0
    1.1994    0.1583    1.7733 H   0  0  0  0  0  0  0  0  0  0  0  0
   -0.9626    0.4855   -1.3299 H   0  0  0  0  0  0  0  0  0  0  0  0
    0.1164    2.6885   -0.0715 H   0  0  0  0  0  0  0  0  0  0  0  0
   -1.5650    2.5763   -0.7583 H   0  0  0  0  0  0  0  0  0  0  0  0
   -1.2738    2.2885    0.9675 H   0  0  0  0  0  0  0  0  0  0  0  0
   -1.5340    0.1927    1.6944 H   0  0  0  0  0  0  0  0  0  0  0  0
   -2.5996   -2.0040    0.4324 H   0  0  0  0  0  0  0  0  0  0  0  0
   -1.0907   -1.8823   -0.4872 H   0  0  0  0  0  0  0  0  0  0  0  0
   -1.1117   -2.0585    1.3696 H   0  0  0  0  0  0  0  0  0  0  0  0
   -2.8827    1.0720   -0.3838 H   0  0  0  0  0  0  0  0  0  0  0  0
  1  2  1  0
  2  3  1  0
  3  4  1  0
  3  5  1  0
  5  6  1  0
  5  7  1  0
  7  8  1  0
  7  9  1  0
  1 10  1  0
  1 11  1  0
  1 12  1  0
  2 13  1  0
  2 14  1  0
  3 15  1  0
  4 16  1  0
  5 17  1  0
  6 18  1  0
  6 19  1  0
  6 20  1  0
  7 21  1  0
  8 22  1  0
  8 23  1  0
  8 24  1  0
  9 25  1  0
M  END
