
     RDKit          3D

 21 21  0  0  0  0  0  0  0  0999 V2000
    2.1294   -1.0886    0.3045 C   0  0  0  0  0  0  0  0  0  0  0  0
    0.6671   -0.9388    0.0116 C   0  0  0  0  0  0  0  0  0  0  0  0
    0.2624    0.5181    0.0405 C   0  0  0  0  0  0  0  0  0  0  0  0
    0.5585    0.9804    1.3440 O   0  0  0  0  0  0  0  0  0  0  0  0
    1.0976    1.2897   -0.9090 C   0  0  0  0  0  0  0  0  0  0  0  0
    1.0257    1.0754   -2.1097 O   0  0  0  0  0  0  0  0  0  0  0  0
   -1.1915    0.6987   -0.2431 C   0  0  0  0  0  0  0  0  0  0  0  0
   -2.1216    0.0004    0.7405 C   0  0  0  0  0  0  0  0  0  0  0  0
   -2.0677   -0.4198   -0.6594 C   0  0  0  0  0  0  0  0  0  0  0  0
    2.3371   -1.6746    1.2301 H   0  0  0  0  0  0  0  0  0  0  0  0
    2.6377   -0.0930    0.4208 H   0  0  0  0  0  0  0  0  0  0  0  0
    2.5888   -1.6594   -0.5261 H   0  0  0  0  0  0  0  0  0  0  0  0
    0.4162   -1.3144   -1.0224 H   0  0  0  0  0  0  0  0  0  0  0  0
    0.0431   -1.4872    0.7373 H   0  0  0  0  0  0  0  0  0  0  0  0
    0.3936    1.9411    1.3855 H   0  0  0  0  0  0  0  0  0  0  0  0
    1.7820    2.0483   -0.5894 H   0  0  0  0  0  0  0  0  0  0  0  0
   -1.4777    1.7141   -0.5952 H   0  0  0  0  0  0  0  0  0  0  0  0
   -2.8935    0.6646    1.1603 H   0  0  0  0  0  0  0  0  0  0  0  0
   -1.6564   -0.6637    1.5100 H   0  0  0  0  0  0  0  0  0  0  0  0
   -1.6179   -1.4181   -0.8866 H   0  0  0  0  0  0  0  0  0  0  0  0
   -2.9130   -0.1733   -1.3442 H   0  0  0  0  0  0  0  0  0  0  0  0
  1  2  1  0
  2  3  1  0
  3  4  1  0
  3  5  1  0
  5  6  2  0
  3  7  1  0
  7  8  1  0
  8  9  1  0
  9  7  1  0
  1 10  1  0
  1 11  1  0
  1 12  1  0
  2 13  1  0
  2 14  1  0
  4 15  1  0
  5 16  1  0
  7 17  1  0
  8 18  1  0
  8 19  1  0
  9 20  1  0
  9 21  1  0
M  END
