
     RDKit          3D

 23 22  0  0  0  0  0  0  0  0999 V2000
    3.0120    0.7290    0.6315 C   0  0  0  0  0  0  0  0  0  0  0  0
    1.9816    0.1284   -0.2981 C   0  0  0  0  0  0  0  0  0  0  0  0
    0.6049    0.3033    0.2423 C   0  0  0  0  0  0  0  0  0  0  0  0
    0.4730    0.8689    1.2950 O   0  0  0  0  0  0  0  0  0  0  0  0
   -0.5156   -0.2373   -0.5632 C   0  0  0  0  0  0  0  0  0  0  0  0
   -0.2885   -1.7281   -0.7051 C   0  0  0  0  0  0  0  0  0  0  0  0
   -1.8511   -0.0406    0.0873 C   0  0  0  0  0  0  0  0  0  0  0  0
   -2.1905    1.4076    0.3303 C   0  0  0  0  0  0  0  0  0  0  0  0
   -1.9789   -0.7815    1.2685 O   0  0  0  0  0  0  0  0  0  0  0  0
    3.3946    1.6835    0.2217 H   0  0  0  0  0  0  0  0  0  0  0  0
    2.4942    0.9672    1.5822 H   0  0  0  0  0  0  0  0  0  0  0  0
    3.8312    0.0042    0.8100 H   0  0  0  0  0  0  0  0  0  0  0  0
    2.0980    0.6047   -1.2996 H   0  0  0  0  0  0  0  0  0  0  0  0
    2.2082   -0.9505   -0.4576 H   0  0  0  0  0  0  0  0  0  0  0  0
   -0.5570    0.2121   -1.5664 H   0  0  0  0  0  0  0  0  0  0  0  0
   -0.1173   -2.1498    0.3050 H   0  0  0  0  0  0  0  0  0  0  0  0
   -1.1759   -2.2468   -1.1144 H   0  0  0  0  0  0  0  0  0  0  0  0
    0.6304   -1.9221   -1.3111 H   0  0  0  0  0  0  0  0  0  0  0  0
   -2.6204   -0.4330   -0.6105 H   0  0  0  0  0  0  0  0  0  0  0  0
   -3.2734    1.4221    0.6468 H   0  0  0  0  0  0  0  0  0  0  0  0
   -1.6326    1.8724    1.1416 H   0  0  0  0  0  0  0  0  0  0  0  0
   -2.1234    1.9559   -0.6220 H   0  0  0  0  0  0  0  0  0  0  0  0
   -2.4035   -1.6696    1.0890 H   0  0  0  0  0  0  0  0  0  0  0  0
  1  2  1  0
  2  3  1  0
  3  4  2  0
  3  5  1  0
  5  6  1  0
  5  7  1  0
  7  8  1  0
  7  9  1  0
  1 10  1  0
  1 11  1  0
  1 12  1  0
  2 13  1  0
  2 14  1  0
  5 15  1  0
  6 16  1  0
  6 17  1  0
  6 18  1  0
  7 19  1  0
  8 20  1  0
  8 21  1  0
  8 22  1  0
  9 23  1  0
M  END
