
     RDKit          3D

 24 23  0  0  0  0  0  0  0  0999 V2000
    2.8061   -0.5329    0.4415 C   0  0  0  0  0  0  0  0  0  0  0  0
    1.3252   -0.9341    0.4426 C   0  0  0  0  0  0  0  0  0  0  0  0
    0.5717    0.3132    0.0889 C   0  0  0  0  0  0  0  0  0  0  0  0
    0.9948    0.7365   -1.1668 O   0  0  0  0  0  0  0  0  0  0  0  0
   -0.9206    0.1314    0.0829 C   0  0  0  0  0  0  0  0  0  0  0  0
   -1.4021   -0.8933   -0.8850 C   0  0  0  0  0  0  0  0  0  0  0  0
   -1.5153    1.4750   -0.3638 C   0  0  0  0  0  0  0  0  0  0  0  0
   -1.4581   -0.1279    1.4654 C   0  0  0  0  0  0  0  0  0  0  0  0
    3.4691   -1.3975    0.3563 H   0  0  0  0  0  0  0  0  0  0  0  0
    2.9351    0.1337   -0.4395 H   0  0  0  0  0  0  0  0  0  0  0  0
    2.9964    0.0948    1.3398 H   0  0  0  0  0  0  0  0  0  0  0  0
    1.2308   -1.7300   -0.3182 H   0  0  0  0  0  0  0  0  0  0  0  0
    1.0818   -1.3130    1.4475 H   0  0  0  0  0  0  0  0  0  0  0  0
    0.8265    1.0813    0.8468 H   0  0  0  0  0  0  0  0  0  0  0  0
    1.4705    1.6098   -1.0831 H   0  0  0  0  0  0  0  0  0  0  0  0
   -0.9836   -0.7308   -1.8822 H   0  0  0  0  0  0  0  0  0  0  0  0
   -2.5157   -0.7476   -0.9922 H   0  0  0  0  0  0  0  0  0  0  0  0
   -1.2778   -1.9381   -0.5351 H   0  0  0  0  0  0  0  0  0  0  0  0
   -1.0790    1.7093   -1.3728 H   0  0  0  0  0  0  0  0  0  0  0  0
   -1.0964    2.2402    0.3178 H   0  0  0  0  0  0  0  0  0  0  0  0
   -2.6092    1.4434   -0.3845 H   0  0  0  0  0  0  0  0  0  0  0  0
   -1.7536   -1.1879    1.6224 H   0  0  0  0  0  0  0  0  0  0  0  0
   -0.7067    0.0941    2.2623 H   0  0  0  0  0  0  0  0  0  0  0  0
   -2.3899    0.4704    1.6706 H   0  0  0  0  0  0  0  0  0  0  0  0
  1  2  1  0
  2  3  1  0
  3  4  1  0
  3  5  1  0
  5  6  1  0
  5  7  1  0
  5  8  1  0
  1  9  1  0
  1 10  1  0
  1 11  1  0
  2 12  1  0
  2 13  1  0
  3 14  1  0
  4 15  1  0
  6 16  1  0
  6 17  1  0
  6 18  1  0
  7 19  1  0
  7 20  1  0
  7 21  1  0
  8 22  1  0
  8 23  1  0
  8 24  1  0
M  END
