
     RDKit          3D

 24 23  0  0  0  0  0  0  0  0999 V2000
   -2.7628    0.2631   -0.4945 C   0  0  0  0  0  0  0  0  0  0  0  0
   -1.4294    0.7048    0.0742 C   0  0  0  0  0  0  0  0  0  0  0  0
   -0.3655   -0.1807   -0.4818 C   0  0  0  0  0  0  0  0  0  0  0  0
   -0.6249   -1.6125   -0.1039 C   0  0  0  0  0  0  0  0  0  0  0  0
    1.0284    0.2360   -0.1061 C   0  0  0  0  0  0  0  0  0  0  0  0
    1.3276    1.6386   -0.6098 C   0  0  0  0  0  0  0  0  0  0  0  0
    1.2873    0.2077    1.2323 O   0  0  0  0  0  0  0  0  0  0  0  0
    2.3411   -0.6691    1.4683 C   0  0  0  0  0  0  0  0  0  0  0  0
   -2.9675   -0.8027   -0.2614 H   0  0  0  0  0  0  0  0  0  0  0  0
   -2.7573    0.3694   -1.6167 H   0  0  0  0  0  0  0  0  0  0  0  0
   -3.5994    0.8728   -0.0863 H   0  0  0  0  0  0  0  0  0  0  0  0
   -1.5143    0.6033    1.1816 H   0  0  0  0  0  0  0  0  0  0  0  0
   -1.2472    1.7464   -0.2434 H   0  0  0  0  0  0  0  0  0  0  0  0
   -0.4270   -0.1294   -1.6004 H   0  0  0  0  0  0  0  0  0  0  0  0
   -0.9348   -1.7450    0.9360 H   0  0  0  0  0  0  0  0  0  0  0  0
    0.3105   -2.1926   -0.3322 H   0  0  0  0  0  0  0  0  0  0  0  0
   -1.4422   -2.0734   -0.7310 H   0  0  0  0  0  0  0  0  0  0  0  0
    1.7242   -0.4430   -0.6334 H   0  0  0  0  0  0  0  0  0  0  0  0
    0.5600    1.8719   -1.3691 H   0  0  0  0  0  0  0  0  0  0  0  0
    2.3042    1.7194   -1.0946 H   0  0  0  0  0  0  0  0  0  0  0  0
    1.2288    2.3929    0.1887 H   0  0  0  0  0  0  0  0  0  0  0  0
    3.2669   -0.3665    0.9404 H   0  0  0  0  0  0  0  0  0  0  0  0
    2.5865   -0.6962    2.5557 H   0  0  0  0  0  0  0  0  0  0  0  0
    2.1068   -1.7154    1.1873 H   0  0  0  0  0  0  0  0  0  0  0  0
  1  2  1  0
  2  3  1  0
  3  4  1  0
  3  5  1  0
  5  6  1  0
  5  7  1  0
  7  8  1  0
  1  9  1  0
  1 10  1  0
  1 11  1  0
  2 12  1  0
  2 13  1  0
  3 14  1  0
  4 15  1  0
  4 16  1  0
  4 17  1  0
  5 18  1  0
  6 19  1  0
  6 20  1  0
  6 21  1  0
  8 22  1  0
  8 23  1  0
  8 24  1  0
M  END
