
     RDKit          3D

 23 22  0  0  0  0  0  0  0  0999 V2000
   -2.0403   -1.4612   -0.1293 C   0  0  0  0  0  0  0  0  0  0  0  0
   -0.5360   -1.3098   -0.2044 C   0  0  0  0  0  0  0  0  0  0  0  0
   -0.1047   -0.3233    0.8493 C   0  0  0  0  0  0  0  0  0  0  0  0
    1.3917   -0.1036    0.8535 C   0  0  0  0  0  0  0  0  0  0  0  0
    1.9356    0.4263   -0.4374 C   0  0  0  0  0  0  0  0  0  0  0  0
    3.3267    0.5796   -0.2996 O   0  0  0  0  0  0  0  0  0  0  0  0
   -0.8603    0.9227    0.8588 C   0  0  0  0  0  0  0  0  0  0  0  0
   -0.9860    1.8784   -0.2648 C   0  0  0  0  0  0  0  0  0  0  0  0
   -1.4572    1.2345    1.8785 O   0  0  0  0  0  0  0  0  0  0  0  0
   -2.2659   -1.8349    0.8930 H   0  0  0  0  0  0  0  0  0  0  0  0
   -2.5598   -0.4896   -0.3184 H   0  0  0  0  0  0  0  0  0  0  0  0
   -2.4262   -2.1970   -0.8509 H   0  0  0  0  0  0  0  0  0  0  0  0
   -0.1878   -1.0548   -1.2139 H   0  0  0  0  0  0  0  0  0  0  0  0
   -0.1067   -2.3063    0.0350 H   0  0  0  0  0  0  0  0  0  0  0  0
   -0.2953   -0.8373    1.8392 H   0  0  0  0  0  0  0  0  0  0  0  0
    1.5895    0.6215    1.6880 H   0  0  0  0  0  0  0  0  0  0  0  0
    1.8930   -1.0556    1.1090 H   0  0  0  0  0  0  0  0  0  0  0  0
    1.4970    1.4193   -0.6926 H   0  0  0  0  0  0  0  0  0  0  0  0
    1.7083   -0.2864   -1.2424 H   0  0  0  0  0  0  0  0  0  0  0  0
    3.7396   -0.2305    0.0521 H   0  0  0  0  0  0  0  0  0  0  0  0
   -0.3782    2.7684   -0.0550 H   0  0  0  0  0  0  0  0  0  0  0  0
   -0.8233    1.4248   -1.2594 H   0  0  0  0  0  0  0  0  0  0  0  0
   -2.0537    2.2148   -0.2813 H   0  0  0  0  0  0  0  0  0  0  0  0
  1  2  1  0
  2  3  1  0
  3  4  1  0
  4  5  1  0
  5  6  1  0
  3  7  1  0
  7  8  1  0
  7  9  2  0
  1 10  1  0
  1 11  1  0
  1 12  1  0
  2 13  1  0
  2 14  1  0
  3 15  1  0
  4 16  1  0
  4 17  1  0
  5 18  1  0
  5 19  1  0
  6 20  1  0
  8 21  1  0
  8 22  1  0
  8 23  1  0
M  END
