
     RDKit          3D

 21 22  0  0  0  0  0  0  0  0999 V2000
    2.2887    0.9988   -0.2420 C   0  0  0  0  0  0  0  0  0  0  0  0
    1.7948   -0.0876    0.6695 C   0  0  0  0  0  0  0  0  0  0  0  0
    0.6043   -0.8127    0.1422 C   0  0  0  0  0  0  0  0  0  0  0  0
    0.9347   -1.4079   -1.0871 O   0  0  0  0  0  0  0  0  0  0  0  0
   -0.5741    0.0778   -0.1199 C   0  0  0  0  0  0  0  0  0  0  0  0
   -1.8005   -0.5738   -0.6477 C   0  0  0  0  0  0  0  0  0  0  0  0
   -2.5505    0.6312   -0.1602 C   0  0  0  0  0  0  0  0  0  0  0  0
   -1.6124    0.1814    0.9306 C   0  0  0  0  0  0  0  0  0  0  0  0
   -1.9843   -1.1166    0.6091 O   0  0  0  0  0  0  0  0  0  0  0  0
    2.3970    1.9662    0.3215 H   0  0  0  0  0  0  0  0  0  0  0  0
    1.6175    1.1648   -1.0925 H   0  0  0  0  0  0  0  0  0  0  0  0
    3.3036    0.7724   -0.6300 H   0  0  0  0  0  0  0  0  0  0  0  0
    2.6082   -0.8076    0.8204 H   0  0  0  0  0  0  0  0  0  0  0  0
    1.4889    0.3769    1.6513 H   0  0  0  0  0  0  0  0  0  0  0  0
    0.3236   -1.6215    0.8239 H   0  0  0  0  0  0  0  0  0  0  0  0
    0.8275   -2.3922   -1.0657 H   0  0  0  0  0  0  0  0  0  0  0  0
   -0.3590    1.0444   -0.6024 H   0  0  0  0  0  0  0  0  0  0  0  0
   -1.9248   -1.0352   -1.5349 H   0  0  0  0  0  0  0  0  0  0  0  0
   -3.6127    0.4979    0.0198 H   0  0  0  0  0  0  0  0  0  0  0  0
   -2.2266    1.5644   -0.6604 H   0  0  0  0  0  0  0  0  0  0  0  0
   -1.5437    0.5792    1.8546 H   0  0  0  0  0  0  0  0  0  0  0  0
  1  2  1  0
  2  3  1  0
  3  4  1  0
  3  5  1  0
  5  6  1  0
  6  7  1  0
  7  8  1  0
  8  9  1  0
  8  5  1  0
  9  6  1  0
  1 10  1  0
  1 11  1  0
  1 12  1  0
  2 13  1  0
  2 14  1  0
  3 15  1  0
  4 16  1  0
  5 17  1  0
  6 18  1  0
  7 19  1  0
  7 20  1  0
  8 21  1  0
M  END
