
     RDKit          3D

 25 25  0  0  0  0  0  0  0  0999 V2000
   -2.8179    0.5149   -0.9126 C   0  0  0  0  0  0  0  0  0  0  0  0
   -1.6560    0.5951    0.0542 C   0  0  0  0  0  0  0  0  0  0  0  0
   -0.7194   -0.5602   -0.1649 C   0  0  0  0  0  0  0  0  0  0  0  0
   -1.4874   -1.8502    0.0645 C   0  0  0  0  0  0  0  0  0  0  0  0
    0.4600   -0.5676    0.7450 C   0  0  0  0  0  0  0  0  0  0  0  0
    1.3408    0.6292    0.6491 C   0  0  0  0  0  0  0  0  0  0  0  0
    2.0265    1.0275   -0.5831 C   0  0  0  0  0  0  0  0  0  0  0  0
    2.8395    0.3311    0.4988 C   0  0  0  0  0  0  0  0  0  0  0  0
    3.7231    1.1256    1.2275 O   0  0  0  0  0  0  0  0  0  0  0  0
   -2.7445   -0.3464   -1.6019 H   0  0  0  0  0  0  0  0  0  0  0  0
   -3.7934    0.4345   -0.3874 H   0  0  0  0  0  0  0  0  0  0  0  0
   -2.8826    1.4580   -1.5130 H   0  0  0  0  0  0  0  0  0  0  0  0
   -1.1844    1.5741   -0.0328 H   0  0  0  0  0  0  0  0  0  0  0  0
   -2.0830    0.5216    1.0789 H   0  0  0  0  0  0  0  0  0  0  0  0
   -0.3919   -0.5306   -1.2162 H   0  0  0  0  0  0  0  0  0  0  0  0
   -0.6973   -2.6468    0.1954 H   0  0  0  0  0  0  0  0  0  0  0  0
   -1.9907   -1.7976    1.0667 H   0  0  0  0  0  0  0  0  0  0  0  0
   -2.1602   -2.1078   -0.7511 H   0  0  0  0  0  0  0  0  0  0  0  0
    0.0979   -0.6859    1.7995 H   0  0  0  0  0  0  0  0  0  0  0  0
    1.0405   -1.4895    0.5353 H   0  0  0  0  0  0  0  0  0  0  0  0
    1.0965    1.4331    1.3790 H   0  0  0  0  0  0  0  0  0  0  0  0
    1.9643    0.4541   -1.5277 H   0  0  0  0  0  0  0  0  0  0  0  0
    2.2708    2.1029   -0.7294 H   0  0  0  0  0  0  0  0  0  0  0  0
    3.1534   -0.7119    0.3432 H   0  0  0  0  0  0  0  0  0  0  0  0
    4.5953    1.0928    0.7464 H   0  0  0  0  0  0  0  0  0  0  0  0
  1  2  1  0
  2  3  1  0
  3  4  1  0
  3  5  1  0
  5  6  1  0
  6  7  1  0
  7  8  1  0
  8  9  1  0
  8  6  1  0
  1 10  1  0
  1 11  1  0
  1 12  1  0
  2 13  1  0
  2 14  1  0
  3 15  1  0
  4 16  1  0
  4 17  1  0
  4 18  1  0
  5 19  1  0
  5 20  1  0
  6 21  1  0
  7 22  1  0
  7 23  1  0
  8 24  1  0
  9 25  1  0
M  END
