
     RDKit          3D

 27 27  0  0  0  0  0  0  0  0999 V2000
   -3.2051    0.9520   -0.2120 C   0  0  0  0  0  0  0  0  0  0  0  0
   -1.7242    0.7104   -0.4663 C   0  0  0  0  0  0  0  0  0  0  0  0
   -1.2881   -0.4321    0.4184 C   0  0  0  0  0  0  0  0  0  0  0  0
   -2.1293   -1.6579    0.0327 C   0  0  0  0  0  0  0  0  0  0  0  0
    0.1298   -0.7742    0.0884 C   0  0  0  0  0  0  0  0  0  0  0  0
    1.0951    0.3645    0.2978 C   0  0  0  0  0  0  0  0  0  0  0  0
    2.4782   -0.1779   -0.0893 C   0  0  0  0  0  0  0  0  0  0  0  0
    3.6620    0.7267    0.0120 C   0  0  0  0  0  0  0  0  0  0  0  0
    3.1239    0.4157   -1.3217 C   0  0  0  0  0  0  0  0  0  0  0  0
   -3.5014    0.5605    0.7957 H   0  0  0  0  0  0  0  0  0  0  0  0
   -3.7594    0.4692   -1.0204 H   0  0  0  0  0  0  0  0  0  0  0  0
   -3.4441    2.0310   -0.2182 H   0  0  0  0  0  0  0  0  0  0  0  0
   -1.5414    0.4103   -1.5188 H   0  0  0  0  0  0  0  0  0  0  0  0
   -1.1276    1.6237   -0.2209 H   0  0  0  0  0  0  0  0  0  0  0  0
   -1.4483   -0.1594    1.4697 H   0  0  0  0  0  0  0  0  0  0  0  0
   -2.0839   -2.4346    0.8339 H   0  0  0  0  0  0  0  0  0  0  0  0
   -3.1542   -1.3862   -0.2230 H   0  0  0  0  0  0  0  0  0  0  0  0
   -1.6662   -2.1152   -0.8816 H   0  0  0  0  0  0  0  0  0  0  0  0
    0.1870   -1.0931   -0.9633 H   0  0  0  0  0  0  0  0  0  0  0  0
    0.4509   -1.5871    0.7907 H   0  0  0  0  0  0  0  0  0  0  0  0
    0.8715    1.2464   -0.3330 H   0  0  0  0  0  0  0  0  0  0  0  0
    1.1371    0.6439    1.3842 H   0  0  0  0  0  0  0  0  0  0  0  0
    2.6861   -1.2429    0.1451 H   0  0  0  0  0  0  0  0  0  0  0  0
    3.4442    1.7349    0.4118 H   0  0  0  0  0  0  0  0  0  0  0  0
    4.6390    0.2907    0.3686 H   0  0  0  0  0  0  0  0  0  0  0  0
    3.6076   -0.3324   -1.9781 H   0  0  0  0  0  0  0  0  0  0  0  0
    2.5606    1.2132   -1.8579 H   0  0  0  0  0  0  0  0  0  0  0  0
  1  2  1  0
  2  3  1  0
  3  4  1  0
  3  5  1  0
  5  6  1  0
  6  7  1  0
  7  8  1  0
  8  9  1  0
  9  7  1  0
  1 10  1  0
  1 11  1  0
  1 12  1  0
  2 13  1  0
  2 14  1  0
  3 15  1  0
  4 16  1  0
  4 17  1  0
  4 18  1  0
  5 19  1  0
  5 20  1  0
  6 21  1  0
  6 22  1  0
  7 23  1  0
  8 24  1  0
  8 25  1  0
  9 26  1  0
  9 27  1  0
M  END
