
     RDKit          3D

 27 26  0  0  0  0  0  0  0  0999 V2000
   -2.9290    0.9419    0.4048 C   0  0  0  0  0  0  0  0  0  0  0  0
   -1.5330    0.8179   -0.1676 C   0  0  0  0  0  0  0  0  0  0  0  0
   -0.8891   -0.4728    0.2708 C   0  0  0  0  0  0  0  0  0  0  0  0
   -1.7794   -1.6062   -0.2496 C   0  0  0  0  0  0  0  0  0  0  0  0
    0.4658   -0.6758   -0.3442 C   0  0  0  0  0  0  0  0  0  0  0  0
    1.4503    0.3979   -0.0069 C   0  0  0  0  0  0  0  0  0  0  0  0
    1.7078    0.5288    1.4718 C   0  0  0  0  0  0  0  0  0  0  0  0
    2.7864   -0.0246   -0.6339 C   0  0  0  0  0  0  0  0  0  0  0  0
    2.6783   -0.1565   -2.0067 O   0  0  0  0  0  0  0  0  0  0  0  0
   -2.8805    1.3759    1.4329 H   0  0  0  0  0  0  0  0  0  0  0  0
   -3.5841    1.5252   -0.2350 H   0  0  0  0  0  0  0  0  0  0  0  0
   -3.3967   -0.0765    0.5124 H   0  0  0  0  0  0  0  0  0  0  0  0
   -1.6549    0.8619   -1.2876 H   0  0  0  0  0  0  0  0  0  0  0  0
   -0.9423    1.7078    0.1144 H   0  0  0  0  0  0  0  0  0  0  0  0
   -0.9155   -0.5241    1.3566 H   0  0  0  0  0  0  0  0  0  0  0  0
   -2.3426   -1.2762   -1.1601 H   0  0  0  0  0  0  0  0  0  0  0  0
   -1.1586   -2.4721   -0.5789 H   0  0  0  0  0  0  0  0  0  0  0  0
   -2.4729   -1.9729    0.5154 H   0  0  0  0  0  0  0  0  0  0  0  0
    0.3487   -0.7019   -1.4381 H   0  0  0  0  0  0  0  0  0  0  0  0
    0.8958   -1.6511   -0.0397 H   0  0  0  0  0  0  0  0  0  0  0  0
    1.2016    1.3783   -0.4652 H   0  0  0  0  0  0  0  0  0  0  0  0
    2.3434   -0.3356    1.7741 H   0  0  0  0  0  0  0  0  0  0  0  0
    2.1970    1.4969    1.6770 H   0  0  0  0  0  0  0  0  0  0  0  0
    0.8019    0.4822    2.0849 H   0  0  0  0  0  0  0  0  0  0  0  0
    3.1212   -0.9905   -0.1759 H   0  0  0  0  0  0  0  0  0  0  0  0
    3.5829    0.7064   -0.4198 H   0  0  0  0  0  0  0  0  0  0  0  0
    2.8978    0.7156   -2.4060 H   0  0  0  0  0  0  0  0  0  0  0  0
  1  2  1  0
  2  3  1  0
  3  4  1  0
  3  5  1  0
  5  6  1  0
  6  7  1  0
  6  8  1  0
  8  9  1  0
  1 10  1  0
  1 11  1  0
  1 12  1  0
  2 13  1  0
  2 14  1  0
  3 15  1  0
  4 16  1  0
  4 17  1  0
  4 18  1  0
  5 19  1  0
  5 20  1  0
  6 21  1  0
  7 22  1  0
  7 23  1  0
  7 24  1  0
  8 25  1  0
  8 26  1  0
  9 27  1  0
M  END
