
     RDKit          3D

 21 20  0  0  0  0  0  0  0  0999 V2000
   -2.5462   -0.0570   -0.2352 C   0  0  0  0  0  0  0  0  0  0  0  0
   -1.1462    0.3829   -0.4917 C   0  0  0  0  0  0  0  0  0  0  0  0
   -0.1169   -0.6124   -0.0070 C   0  0  0  0  0  0  0  0  0  0  0  0
   -0.2937   -1.8342   -0.6515 O   0  0  0  0  0  0  0  0  0  0  0  0
   -0.1578   -0.8265    1.4407 C   0  0  0  0  0  0  0  0  0  0  0  0
   -0.3243   -1.9325    1.8946 O   0  0  0  0  0  0  0  0  0  0  0  0
    1.2878   -0.1462   -0.3626 C   0  0  0  0  0  0  0  0  0  0  0  0
    1.6063    1.1883    0.2646 C   0  0  0  0  0  0  0  0  0  0  0  0
    2.8990    1.5267   -0.1148 O   0  0  0  0  0  0  0  0  0  0  0  0
   -2.7098   -1.1471   -0.4503 H   0  0  0  0  0  0  0  0  0  0  0  0
   -2.9096    0.2181    0.7832 H   0  0  0  0  0  0  0  0  0  0  0  0
   -3.2158    0.4781   -0.9426 H   0  0  0  0  0  0  0  0  0  0  0  0
   -1.0112    0.4806   -1.5964 H   0  0  0  0  0  0  0  0  0  0  0  0
   -1.0014    1.3821   -0.0705 H   0  0  0  0  0  0  0  0  0  0  0  0
    0.2118   -1.8054   -1.5052 H   0  0  0  0  0  0  0  0  0  0  0  0
   -0.0424   -0.0152    2.1626 H   0  0  0  0  0  0  0  0  0  0  0  0
    1.4776   -0.1750   -1.4508 H   0  0  0  0  0  0  0  0  0  0  0  0
    1.9769   -0.8898    0.1028 H   0  0  0  0  0  0  0  0  0  0  0  0
    0.9443    1.9978   -0.0455 H   0  0  0  0  0  0  0  0  0  0  0  0
    1.5591    1.0563    1.3610 H   0  0  0  0  0  0  0  0  0  0  0  0
    3.5123    0.7305   -0.0854 H   0  0  0  0  0  0  0  0  0  0  0  0
  1  2  1  0
  2  3  1  0
  3  4  1  0
  3  5  1  0
  5  6  2  0
  3  7  1  0
  7  8  1  0
  8  9  1  0
  1 10  1  0
  1 11  1  0
  1 12  1  0
  2 13  1  0
  2 14  1  0
  4 15  1  0
  5 16  1  0
  7 17  1  0
  7 18  1  0
  8 19  1  0
  8 20  1  0
  9 21  1  0
M  END
