
     RDKit          3D

 26 25  0  0  0  0  0  0  0  0999 V2000
    1.0921    2.1867    0.2338 C   0  0  0  0  0  0  0  0  0  0  0  0
   -0.0806    1.2746   -0.0028 C   0  0  0  0  0  0  0  0  0  0  0  0
    0.1115   -0.1484    0.3280 C   0  0  0  0  0  0  0  0  0  0  0  0
    1.1894   -0.8845   -0.4126 C   0  0  0  0  0  0  0  0  0  0  0  0
    2.5715   -0.3670   -0.2478 C   0  0  0  0  0  0  0  0  0  0  0  0
   -1.1491   -0.9774    0.1958 C   0  0  0  0  0  0  0  0  0  0  0  0
   -1.7112   -0.9616   -1.1923 C   0  0  0  0  0  0  0  0  0  0  0  0
   -2.1892   -0.4721    1.1908 C   0  0  0  0  0  0  0  0  0  0  0  0
    1.8958    2.1240   -0.4963 H   0  0  0  0  0  0  0  0  0  0  0  0
    1.4100    2.0953    1.2943 H   0  0  0  0  0  0  0  0  0  0  0  0
    0.6573    3.2383    0.1751 H   0  0  0  0  0  0  0  0  0  0  0  0
   -0.3476    1.4069   -1.0970 H   0  0  0  0  0  0  0  0  0  0  0  0
   -0.9554    1.7392    0.5246 H   0  0  0  0  0  0  0  0  0  0  0  0
    0.4253   -0.1943    1.4152 H   0  0  0  0  0  0  0  0  0  0  0  0
    0.9223   -1.0453   -1.4864 H   0  0  0  0  0  0  0  0  0  0  0  0
    1.1603   -1.9389    0.0074 H   0  0  0  0  0  0  0  0  0  0  0  0
    2.6921    0.2008    0.6716 H   0  0  0  0  0  0  0  0  0  0  0  0
    2.9566    0.1276   -1.1686 H   0  0  0  0  0  0  0  0  0  0  0  0
    3.2551   -1.2626   -0.1255 H   0  0  0  0  0  0  0  0  0  0  0  0
   -0.9651   -2.0391    0.4621 H   0  0  0  0  0  0  0  0  0  0  0  0
   -2.6695   -1.5221   -1.1660 H   0  0  0  0  0  0  0  0  0  0  0  0
   -1.0383   -1.5298   -1.8587 H   0  0  0  0  0  0  0  0  0  0  0  0
   -1.9326    0.0567   -1.5671 H   0  0  0  0  0  0  0  0  0  0  0  0
   -3.0168   -1.2229    1.2246 H   0  0  0  0  0  0  0  0  0  0  0  0
   -1.7245   -0.4182    2.1884 H   0  0  0  0  0  0  0  0  0  0  0  0
   -2.5593    0.5341    0.9094 H   0  0  0  0  0  0  0  0  0  0  0  0
  1  2  1  0
  2  3  1  0
  3  4  1  0
  4  5  1  0
  3  6  1  0
  6  7  1  0
  6  8  1  0
  1  9  1  0
  1 10  1  0
  1 11  1  0
  2 12  1  0
  2 13  1  0
  3 14  1  0
  4 15  1  0
  4 16  1  0
  5 17  1  0
  5 18  1  0
  5 19  1  0
  6 20  1  0
  7 21  1  0
  7 22  1  0
  7 23  1  0
  8 24  1  0
  8 25  1  0
  8 26  1  0
M  END
