
     RDKit          3D

 21 21  0  0  0  0  0  0  0  0999 V2000
    3.1910   -0.5267    0.5385 C   0  0  0  0  0  0  0  0  0  0  0  0
    2.5140    0.1270   -0.6439 C   0  0  0  0  0  0  0  0  0  0  0  0
    1.2513    0.8007   -0.2463 C   0  0  0  0  0  0  0  0  0  0  0  0
    1.3441    1.9347    0.2930 O   0  0  0  0  0  0  0  0  0  0  0  0
    0.0085    0.2245   -0.4503 O   0  0  0  0  0  0  0  0  0  0  0  0
   -1.1401    0.8997   -0.0566 C   0  0  0  0  0  0  0  0  0  0  0  0
   -2.4154    0.7893   -0.8084 C   0  0  0  0  0  0  0  0  0  0  0  0
   -2.2424    0.0891    0.5148 C   0  0  0  0  0  0  0  0  0  0  0  0
   -2.2167   -1.4192    0.4111 C   0  0  0  0  0  0  0  0  0  0  0  0
    4.2912   -0.4227    0.4390 H   0  0  0  0  0  0  0  0  0  0  0  0
    2.9065   -0.0288    1.4803 H   0  0  0  0  0  0  0  0  0  0  0  0
    2.9612   -1.6111    0.6118 H   0  0  0  0  0  0  0  0  0  0  0  0
    2.3921   -0.6114   -1.4423 H   0  0  0  0  0  0  0  0  0  0  0  0
    3.2177    0.9179   -1.0299 H   0  0  0  0  0  0  0  0  0  0  0  0
   -0.9720    1.8927    0.4109 H   0  0  0  0  0  0  0  0  0  0  0  0
   -2.4696    0.1820   -1.7397 H   0  0  0  0  0  0  0  0  0  0  0  0
   -3.1244    1.6343   -0.7987 H   0  0  0  0  0  0  0  0  0  0  0  0
   -2.7310    0.4646    1.4113 H   0  0  0  0  0  0  0  0  0  0  0  0
   -1.8955   -1.9133    1.3571 H   0  0  0  0  0  0  0  0  0  0  0  0
   -1.6060   -1.6883   -0.4573 H   0  0  0  0  0  0  0  0  0  0  0  0
   -3.2644   -1.7349    0.2056 H   0  0  0  0  0  0  0  0  0  0  0  0
  1  2  1  0
  2  3  1  0
  3  4  2  0
  3  5  1  0
  5  6  1  0
  6  7  1  0
  7  8  1  0
  8  9  1  0
  8  6  1  0
  1 10  1  0
  1 11  1  0
  1 12  1  0
  2 13  1  0
  2 14  1  0
  6 15  1  0
  7 16  1  0
  7 17  1  0
  8 18  1  0
  9 19  1  0
  9 20  1  0
  9 21  1  0
M  END
