
     RDKit          3D

 27 27  0  0  0  0  0  0  0  0999 V2000
   -0.2068    2.1804    0.7404 C   0  0  0  0  0  0  0  0  0  0  0  0
   -0.3774    1.5840   -0.6137 C   0  0  0  0  0  0  0  0  0  0  0  0
   -0.3164    0.0863   -0.6959 C   0  0  0  0  0  0  0  0  0  0  0  0
    0.9565   -0.5138   -0.2508 C   0  0  0  0  0  0  0  0  0  0  0  0
    1.4316   -0.3197    1.1221 C   0  0  0  0  0  0  0  0  0  0  0  0
    2.0736    0.0179   -1.1921 C   0  0  0  0  0  0  0  0  0  0  0  0
   -1.5861   -0.5612   -0.2428 C   0  0  0  0  0  0  0  0  0  0  0  0
   -1.6093   -2.0952   -0.3114 C   0  0  0  0  0  0  0  0  0  0  0  0
   -1.7821   -1.2984    0.9931 C   0  0  0  0  0  0  0  0  0  0  0  0
    0.8719    2.2425    0.9862 H   0  0  0  0  0  0  0  0  0  0  0  0
   -0.8456    1.7333    1.5128 H   0  0  0  0  0  0  0  0  0  0  0  0
   -0.5161    3.2762    0.7481 H   0  0  0  0  0  0  0  0  0  0  0  0
    0.3287    1.9929   -1.3598 H   0  0  0  0  0  0  0  0  0  0  0  0
   -1.3968    1.9055   -0.9825 H   0  0  0  0  0  0  0  0  0  0  0  0
   -0.3193   -0.1087   -1.8242 H   0  0  0  0  0  0  0  0  0  0  0  0
    0.9498   -1.6102   -0.4683 H   0  0  0  0  0  0  0  0  0  0  0  0
    2.3327    0.3668    1.1729 H   0  0  0  0  0  0  0  0  0  0  0  0
    0.7562    0.0435    1.8837 H   0  0  0  0  0  0  0  0  0  0  0  0
    1.8584   -1.2813    1.5540 H   0  0  0  0  0  0  0  0  0  0  0  0
    2.1484    1.1112   -1.0672 H   0  0  0  0  0  0  0  0  0  0  0  0
    3.0508   -0.4044   -0.8923 H   0  0  0  0  0  0  0  0  0  0  0  0
    1.8148   -0.2106   -2.2245 H   0  0  0  0  0  0  0  0  0  0  0  0
   -2.4890   -0.1076   -0.7236 H   0  0  0  0  0  0  0  0  0  0  0  0
   -2.5316   -2.5745   -0.7207 H   0  0  0  0  0  0  0  0  0  0  0  0
   -0.6928   -2.6721   -0.3291 H   0  0  0  0  0  0  0  0  0  0  0  0
   -2.8419   -1.3234    1.3918 H   0  0  0  0  0  0  0  0  0  0  0  0
   -1.0622   -1.4593    1.7938 H   0  0  0  0  0  0  0  0  0  0  0  0
  1  2  1  0
  2  3  1  0
  3  4  1  0
  4  5  1  0
  4  6  1  0
  3  7  1  0
  7  8  1  0
  8  9  1  0
  9  7  1  0
  1 10  1  0
  1 11  1  0
  1 12  1  0
  2 13  1  0
  2 14  1  0
  3 15  1  0
  4 16  1  0
  5 17  1  0
  5 18  1  0
  5 19  1  0
  6 20  1  0
  6 21  1  0
  6 22  1  0
  7 23  1  0
  8 24  1  0
  8 25  1  0
  9 26  1  0
  9 27  1  0
M  END
