
     RDKit          3D

 23 24  0  0  0  0  0  0  0  0999 V2000
    2.9954    0.3346    0.1984 C   0  0  0  0  0  0  0  0  0  0  0  0
    1.6976    0.7252   -0.5026 C   0  0  0  0  0  0  0  0  0  0  0  0
    0.6665   -0.3011   -0.1051 C   0  0  0  0  0  0  0  0  0  0  0  0
    1.1566   -1.5523   -0.5449 O   0  0  0  0  0  0  0  0  0  0  0  0
   -0.6543   -0.0921   -0.7722 C   0  0  0  0  0  0  0  0  0  0  0  0
   -1.6304   -1.1693   -0.3143 C   0  0  0  0  0  0  0  0  0  0  0  0
   -2.4261   -0.1947    0.4820 C   0  0  0  0  0  0  0  0  0  0  0  0
   -1.7932    0.8877    1.2664 C   0  0  0  0  0  0  0  0  0  0  0  0
   -1.5668    0.9278   -0.1874 C   0  0  0  0  0  0  0  0  0  0  0  0
    3.1438   -0.7545    0.0026 H   0  0  0  0  0  0  0  0  0  0  0  0
    2.9074    0.4474    1.2948 H   0  0  0  0  0  0  0  0  0  0  0  0
    3.7904    0.9574   -0.2380 H   0  0  0  0  0  0  0  0  0  0  0  0
    1.8931    0.6192   -1.5906 H   0  0  0  0  0  0  0  0  0  0  0  0
    1.4033    1.7572   -0.2806 H   0  0  0  0  0  0  0  0  0  0  0  0
    0.5646   -0.3835    0.9805 H   0  0  0  0  0  0  0  0  0  0  0  0
    0.8350   -2.2890    0.0287 H   0  0  0  0  0  0  0  0  0  0  0  0
   -0.5340   -0.0695   -1.8821 H   0  0  0  0  0  0  0  0  0  0  0  0
   -2.2008   -1.5814   -1.1759 H   0  0  0  0  0  0  0  0  0  0  0  0
   -1.1770   -1.9974    0.2494 H   0  0  0  0  0  0  0  0  0  0  0  0
   -3.4993   -0.1689    0.2963 H   0  0  0  0  0  0  0  0  0  0  0  0
   -0.8916    0.7158    1.8930 H   0  0  0  0  0  0  0  0  0  0  0  0
   -2.5111    1.5877    1.7552 H   0  0  0  0  0  0  0  0  0  0  0  0
   -2.1691    1.5937   -0.8536 H   0  0  0  0  0  0  0  0  0  0  0  0
  1  2  1  0
  2  3  1  0
  3  4  1  0
  3  5  1  0
  5  6  1  0
  6  7  1  0
  7  8  1  0
  8  9  1  0
  9  5  1  0
  9  7  1  0
  1 10  1  0
  1 11  1  0
  1 12  1  0
  2 13  1  0
  2 14  1  0
  3 15  1  0
  4 16  1  0
  5 17  1  0
  6 18  1  0
  6 19  1  0
  7 20  1  0
  8 21  1  0
  8 22  1  0
  9 23  1  0
M  END
