
     RDKit          3D

 25 25  0  0  0  0  0  0  0  0999 V2000
    2.6788   -0.7731    0.0978 C   0  0  0  0  0  0  0  0  0  0  0  0
    1.9550    0.0065   -0.9558 C   0  0  0  0  0  0  0  0  0  0  0  0
    0.9808    0.9492   -0.2674 C   0  0  0  0  0  0  0  0  0  0  0  0
    0.3251    1.6581   -1.2686 O   0  0  0  0  0  0  0  0  0  0  0  0
    0.0457    0.1172    0.5690 C   0  0  0  0  0  0  0  0  0  0  0  0
   -1.0317    0.7157    1.3752 C   0  0  0  0  0  0  0  0  0  0  0  0
   -1.3565   -0.0952    0.1784 C   0  0  0  0  0  0  0  0  0  0  0  0
   -1.9870    0.6610   -0.9654 C   0  0  0  0  0  0  0  0  0  0  0  0
   -1.8940   -1.5105    0.3248 C   0  0  0  0  0  0  0  0  0  0  0  0
    2.7458   -0.1601    1.0400 H   0  0  0  0  0  0  0  0  0  0  0  0
    3.7146   -0.9611   -0.2652 H   0  0  0  0  0  0  0  0  0  0  0  0
    2.1976   -1.7409    0.3502 H   0  0  0  0  0  0  0  0  0  0  0  0
    1.3237   -0.7176   -1.5333 H   0  0  0  0  0  0  0  0  0  0  0  0
    2.6070    0.5301   -1.6653 H   0  0  0  0  0  0  0  0  0  0  0  0
    1.5707    1.6364    0.3853 H   0  0  0  0  0  0  0  0  0  0  0  0
    0.5890    1.3661   -2.1811 H   0  0  0  0  0  0  0  0  0  0  0  0
    0.5713   -0.7414    1.0716 H   0  0  0  0  0  0  0  0  0  0  0  0
   -1.2256    1.8241    1.3542 H   0  0  0  0  0  0  0  0  0  0  0  0
   -1.3131    0.2667    2.3511 H   0  0  0  0  0  0  0  0  0  0  0  0
   -1.5864    0.3726   -1.9478 H   0  0  0  0  0  0  0  0  0  0  0  0
   -3.0819    0.3901   -0.9492 H   0  0  0  0  0  0  0  0  0  0  0  0
   -1.9666    1.7643   -0.8145 H   0  0  0  0  0  0  0  0  0  0  0  0
   -2.8847   -1.6310   -0.1452 H   0  0  0  0  0  0  0  0  0  0  0  0
   -1.1139   -2.1714   -0.1559 H   0  0  0  0  0  0  0  0  0  0  0  0
   -1.8639   -1.7558    1.3949 H   0  0  0  0  0  0  0  0  0  0  0  0
  1  2  1  0
  2  3  1  0
  3  4  1  0
  3  5  1  0
  5  6  1  0
  6  7  1  0
  7  8  1  0
  7  9  1  0
  7  5  1  0
  1 10  1  0
  1 11  1  0
  1 12  1  0
  2 13  1  0
  2 14  1  0
  3 15  1  0
  4 16  1  0
  5 17  1  0
  6 18  1  0
  6 19  1  0
  8 20  1  0
  8 21  1  0
  8 22  1  0
  9 23  1  0
  9 24  1  0
  9 25  1  0
M  END
