
     RDKit          3D

 23 23  0  0  0  0  0  0  0  0999 V2000
    2.9949    1.0929    0.2879 C   0  0  0  0  0  0  0  0  0  0  0  0
    2.1477    0.0050    0.9003 C   0  0  0  0  0  0  0  0  0  0  0  0
    1.0698   -0.3515   -0.0753 C   0  0  0  0  0  0  0  0  0  0  0  0
    1.0397    0.2230   -1.1453 O   0  0  0  0  0  0  0  0  0  0  0  0
    0.0548   -1.3768    0.2397 C   0  0  0  0  0  0  0  0  0  0  0  0
   -1.1428   -1.3983   -0.6034 C   0  0  0  0  0  0  0  0  0  0  0  0
   -2.1267   -0.3280   -0.5999 C   0  0  0  0  0  0  0  0  0  0  0  0
   -1.9443    1.1095   -0.9298 C   0  0  0  0  0  0  0  0  0  0  0  0
   -2.3517    0.6372    0.4849 C   0  0  0  0  0  0  0  0  0  0  0  0
    3.4087    0.7957   -0.6836 H   0  0  0  0  0  0  0  0  0  0  0  0
    2.4125    2.0409    0.1617 H   0  0  0  0  0  0  0  0  0  0  0  0
    3.8428    1.3242    0.9571 H   0  0  0  0  0  0  0  0  0  0  0  0
    2.7554   -0.8840    1.0805 H   0  0  0  0  0  0  0  0  0  0  0  0
    1.7510    0.3644    1.8694 H   0  0  0  0  0  0  0  0  0  0  0  0
   -0.1537   -1.2704    1.3337 H   0  0  0  0  0  0  0  0  0  0  0  0
    0.6274   -2.3617    0.2071 H   0  0  0  0  0  0  0  0  0  0  0  0
   -0.7916   -1.5838   -1.6878 H   0  0  0  0  0  0  0  0  0  0  0  0
   -1.6446   -2.4112   -0.3957 H   0  0  0  0  0  0  0  0  0  0  0  0
   -3.1413   -0.7075   -1.0295 H   0  0  0  0  0  0  0  0  0  0  0  0
   -1.0178    1.6515   -1.0286 H   0  0  0  0  0  0  0  0  0  0  0  0
   -2.8038    1.6688   -1.4109 H   0  0  0  0  0  0  0  0  0  0  0  0
   -1.6041    0.9106    1.2358 H   0  0  0  0  0  0  0  0  0  0  0  0
   -3.3824    0.8494    0.8317 H   0  0  0  0  0  0  0  0  0  0  0  0
  1  2  1  0
  2  3  1  0
  3  4  2  0
  3  5  1  0
  5  6  1  0
  6  7  1  0
  7  8  1  0
  8  9  1  0
  9  7  1  0
  1 10  1  0
  1 11  1  0
  1 12  1  0
  2 13  1  0
  2 14  1  0
  5 15  1  0
  5 16  1  0
  6 17  1  0
  6 18  1  0
  7 19  1  0
  8 20  1  0
  8 21  1  0
  9 22  1  0
  9 23  1  0
M  END
