
     RDKit          3D

 25 25  0  0  0  0  0  0  0  0999 V2000
   -2.8950    0.7879   -1.0090 C   0  0  0  0  0  0  0  0  0  0  0  0
   -2.5473   -0.2039    0.0706 C   0  0  0  0  0  0  0  0  0  0  0  0
   -1.1871    0.0525    0.6774 C   0  0  0  0  0  0  0  0  0  0  0  0
   -0.9895   -1.0309    1.7455 C   0  0  0  0  0  0  0  0  0  0  0  0
   -0.0986   -0.1357   -0.3841 C   0  0  0  0  0  0  0  0  0  0  0  0
    1.1174    0.1151    0.2437 O   0  0  0  0  0  0  0  0  0  0  0  0
    2.2056   -0.0133   -0.5825 C   0  0  0  0  0  0  0  0  0  0  0  0
    3.5442   -0.3941   -0.0469 C   0  0  0  0  0  0  0  0  0  0  0  0
    3.2982    1.0470   -0.3599 C   0  0  0  0  0  0  0  0  0  0  0  0
   -3.7768    1.3756   -0.6196 H   0  0  0  0  0  0  0  0  0  0  0  0
   -3.2126    0.2279   -1.9218 H   0  0  0  0  0  0  0  0  0  0  0  0
   -2.1072    1.5237   -1.1959 H   0  0  0  0  0  0  0  0  0  0  0  0
   -3.2754   -0.2064    0.9070 H   0  0  0  0  0  0  0  0  0  0  0  0
   -2.5208   -1.2342   -0.3459 H   0  0  0  0  0  0  0  0  0  0  0  0
   -1.0836    1.0569    1.0977 H   0  0  0  0  0  0  0  0  0  0  0  0
   -0.7849   -1.9642    1.1720 H   0  0  0  0  0  0  0  0  0  0  0  0
   -0.1850   -0.7806    2.4412 H   0  0  0  0  0  0  0  0  0  0  0  0
   -1.9821   -1.1736    2.2294 H   0  0  0  0  0  0  0  0  0  0  0  0
   -0.2614    0.6572   -1.1409 H   0  0  0  0  0  0  0  0  0  0  0  0
   -0.1596   -1.1090   -0.8712 H   0  0  0  0  0  0  0  0  0  0  0  0
    2.0411   -0.2995   -1.6601 H   0  0  0  0  0  0  0  0  0  0  0  0
    3.6713   -0.6641    1.0298 H   0  0  0  0  0  0  0  0  0  0  0  0
    4.2727   -0.8892   -0.7135 H   0  0  0  0  0  0  0  0  0  0  0  0
    3.1681    1.7427    0.4909 H   0  0  0  0  0  0  0  0  0  0  0  0
    3.7484    1.5124   -1.2537 H   0  0  0  0  0  0  0  0  0  0  0  0
  1  2  1  0
  2  3  1  0
  3  4  1  0
  3  5  1  0
  5  6  1  0
  6  7  1  0
  7  8  1  0
  8  9  1  0
  9  7  1  0
  1 10  1  0
  1 11  1  0
  1 12  1  0
  2 13  1  0
  2 14  1  0
  3 15  1  0
  4 16  1  0
  4 17  1  0
  4 18  1  0
  5 19  1  0
  5 20  1  0
  7 21  1  0
  8 22  1  0
  8 23  1  0
  9 24  1  0
  9 25  1  0
M  END
