
     RDKit          3D

 21 21  0  0  0  0  0  0  0  0999 V2000
   -3.4959    0.1196    0.3755 C   0  0  0  0  0  0  0  0  0  0  0  0
   -2.0949   -0.0453   -0.1658 C   0  0  0  0  0  0  0  0  0  0  0  0
   -1.1577   -0.4524    0.8954 C   0  0  0  0  0  0  0  0  0  0  0  0
   -1.5958   -0.6022    2.0314 O   0  0  0  0  0  0  0  0  0  0  0  0
    0.2811   -0.6921    0.6766 C   0  0  0  0  0  0  0  0  0  0  0  0
    0.7229   -1.1462   -0.5629 O   0  0  0  0  0  0  0  0  0  0  0  0
    0.8853    0.2184   -0.3924 C   0  0  0  0  0  0  0  0  0  0  0  0
    2.2063    0.7963   -0.0150 C   0  0  0  0  0  0  0  0  0  0  0  0
    3.2730   -0.2208    0.2557 C   0  0  0  0  0  0  0  0  0  0  0  0
   -4.1553    0.6708   -0.2991 H   0  0  0  0  0  0  0  0  0  0  0  0
   -3.8636   -0.8916    0.6364 H   0  0  0  0  0  0  0  0  0  0  0  0
   -3.4462    0.6928    1.3357 H   0  0  0  0  0  0  0  0  0  0  0  0
   -1.8208    0.9359   -0.6248 H   0  0  0  0  0  0  0  0  0  0  0  0
   -2.0625   -0.8225   -0.9553 H   0  0  0  0  0  0  0  0  0  0  0  0
    0.9030   -0.9901    1.5146 H   0  0  0  0  0  0  0  0  0  0  0  0
    0.2139    0.8321   -1.0086 H   0  0  0  0  0  0  0  0  0  0  0  0
    2.5186    1.5629   -0.7638 H   0  0  0  0  0  0  0  0  0  0  0  0
    2.0576    1.3672    0.9440 H   0  0  0  0  0  0  0  0  0  0  0  0
    4.0739    0.2791    0.8378 H   0  0  0  0  0  0  0  0  0  0  0  0
    3.7324   -0.5664   -0.6843 H   0  0  0  0  0  0  0  0  0  0  0  0
    2.8247   -1.0456    0.8289 H   0  0  0  0  0  0  0  0  0  0  0  0
  1  2  1  0
  2  3  1  0
  3  4  2  0
  3  5  1  0
  5  6  1  0
  6  7  1  0
  7  8  1  0
  8  9  1  0
  7  5  1  0
  1 10  1  0
  1 11  1  0
  1 12  1  0
  2 13  1  0
  2 14  1  0
  5 15  1  0
  7 16  1  0
  8 17  1  0
  8 18  1  0
  9 19  1  0
  9 20  1  0
  9 21  1  0
M  END
