
     RDKit          3D

 27 27  0  0  0  0  0  0  0  0999 V2000
    2.6733   -0.8537    1.1155 C   0  0  0  0  0  0  0  0  0  0  0  0
    2.1505   -0.5354   -0.2496 C   0  0  0  0  0  0  0  0  0  0  0  0
    1.0146    0.4805   -0.2109 C   0  0  0  0  0  0  0  0  0  0  0  0
    0.6125    0.6830   -1.6547 C   0  0  0  0  0  0  0  0  0  0  0  0
   -0.1594   -0.0337    0.5508 C   0  0  0  0  0  0  0  0  0  0  0  0
   -1.4018    0.6762    0.7818 C   0  0  0  0  0  0  0  0  0  0  0  0
   -1.7513    2.0080    0.2212 C   0  0  0  0  0  0  0  0  0  0  0  0
   -1.3504   -0.4481   -0.2369 C   0  0  0  0  0  0  0  0  0  0  0  0
   -2.1224   -1.6910    0.1348 C   0  0  0  0  0  0  0  0  0  0  0  0
    2.0259   -1.6236    1.6272 H   0  0  0  0  0  0  0  0  0  0  0  0
    2.8157    0.0277    1.7559 H   0  0  0  0  0  0  0  0  0  0  0  0
    3.6677   -1.3429    0.9899 H   0  0  0  0  0  0  0  0  0  0  0  0
    1.7262   -1.4604   -0.6845 H   0  0  0  0  0  0  0  0  0  0  0  0
    2.9729   -0.1651   -0.8720 H   0  0  0  0  0  0  0  0  0  0  0  0
    1.3690    1.4571    0.1747 H   0  0  0  0  0  0  0  0  0  0  0  0
    1.4620    1.1307   -2.2517 H   0  0  0  0  0  0  0  0  0  0  0  0
    0.4400   -0.3073   -2.1493 H   0  0  0  0  0  0  0  0  0  0  0  0
   -0.2234    1.3862   -1.7876 H   0  0  0  0  0  0  0  0  0  0  0  0
    0.1553   -0.7888    1.3334 H   0  0  0  0  0  0  0  0  0  0  0  0
   -1.9445    0.4498    1.7498 H   0  0  0  0  0  0  0  0  0  0  0  0
   -0.8894    2.6917    0.1046 H   0  0  0  0  0  0  0  0  0  0  0  0
   -2.4672    2.5757    0.8845 H   0  0  0  0  0  0  0  0  0  0  0  0
   -2.3145    1.8755   -0.7275 H   0  0  0  0  0  0  0  0  0  0  0  0
   -1.4101   -0.1978   -1.3058 H   0  0  0  0  0  0  0  0  0  0  0  0
   -3.1274   -1.4017    0.5345 H   0  0  0  0  0  0  0  0  0  0  0  0
   -2.3046   -2.3307   -0.7425 H   0  0  0  0  0  0  0  0  0  0  0  0
   -1.6191   -2.2621    0.9144 H   0  0  0  0  0  0  0  0  0  0  0  0
  1  2  1  0
  2  3  1  0
  3  4  1  0
  3  5  1  0
  5  6  1  0
  6  7  1  0
  6  8  1  0
  8  9  1  0
  8  5  1  0
  1 10  1  0
  1 11  1  0
  1 12  1  0
  2 13  1  0
  2 14  1  0
  3 15  1  0
  4 16  1  0
  4 17  1  0
  4 18  1  0
  5 19  1  0
  6 20  1  0
  7 21  1  0
  7 22  1  0
  7 23  1  0
  8 24  1  0
  9 25  1  0
  9 26  1  0
  9 27  1  0
M  END
