
     RDKit          3D

 27 27  0  0  0  0  0  0  0  0999 V2000
    2.8847   -0.4866    0.9144 C   0  0  0  0  0  0  0  0  0  0  0  0
    1.7088   -0.7158   -0.0013 C   0  0  0  0  0  0  0  0  0  0  0  0
    0.6709    0.4055    0.1312 C   0  0  0  0  0  0  0  0  0  0  0  0
    1.3478    1.6975   -0.2350 C   0  0  0  0  0  0  0  0  0  0  0  0
   -0.4642    0.0575   -0.7613 C   0  0  0  0  0  0  0  0  0  0  0  0
   -1.6246    1.0080   -0.8140 C   0  0  0  0  0  0  0  0  0  0  0  0
   -2.4848   -0.2347   -1.0820 C   0  0  0  0  0  0  0  0  0  0  0  0
   -1.4351   -0.9760   -0.2335 C   0  0  0  0  0  0  0  0  0  0  0  0
   -1.8163   -0.8875    1.2020 C   0  0  0  0  0  0  0  0  0  0  0  0
    3.7747   -0.9420    0.4370 H   0  0  0  0  0  0  0  0  0  0  0  0
    2.6885   -1.0124    1.8693 H   0  0  0  0  0  0  0  0  0  0  0  0
    3.0215    0.6085    1.0797 H   0  0  0  0  0  0  0  0  0  0  0  0
    1.2765   -1.7006    0.2519 H   0  0  0  0  0  0  0  0  0  0  0  0
    2.0758   -0.7879   -1.0433 H   0  0  0  0  0  0  0  0  0  0  0  0
    0.3641    0.3838    1.1978 H   0  0  0  0  0  0  0  0  0  0  0  0
    2.3904    1.5465   -0.6185 H   0  0  0  0  0  0  0  0  0  0  0  0
    1.4255    2.3472    0.6506 H   0  0  0  0  0  0  0  0  0  0  0  0
    0.8055    2.1913   -1.0782 H   0  0  0  0  0  0  0  0  0  0  0  0
   -0.1641   -0.2260   -1.7940 H   0  0  0  0  0  0  0  0  0  0  0  0
   -1.8908    1.4187    0.1765 H   0  0  0  0  0  0  0  0  0  0  0  0
   -1.6227    1.7325   -1.6481 H   0  0  0  0  0  0  0  0  0  0  0  0
   -3.4814   -0.2077   -0.6324 H   0  0  0  0  0  0  0  0  0  0  0  0
   -2.4068   -0.5158   -2.1420 H   0  0  0  0  0  0  0  0  0  0  0  0
   -1.1930   -1.9891   -0.6182 H   0  0  0  0  0  0  0  0  0  0  0  0
   -1.5883    0.0775    1.6797 H   0  0  0  0  0  0  0  0  0  0  0  0
   -2.9242   -1.0421    1.3611 H   0  0  0  0  0  0  0  0  0  0  0  0
   -1.3382   -1.7503    1.7506 H   0  0  0  0  0  0  0  0  0  0  0  0
  1  2  1  0
  2  3  1  0
  3  4  1  0
  3  5  1  0
  5  6  1  0
  6  7  1  0
  7  8  1  0
  8  9  1  0
  8  5  1  0
  1 10  1  0
  1 11  1  0
  1 12  1  0
  2 13  1  0
  2 14  1  0
  3 15  1  0
  4 16  1  0
  4 17  1  0
  4 18  1  0
  5 19  1  0
  6 20  1  0
  6 21  1  0
  7 22  1  0
  7 23  1  0
  8 24  1  0
  9 25  1  0
  9 26  1  0
  9 27  1  0
M  END
