
     RDKit          3D

 18 17  0  0  0  0  0  0  0  0999 V2000
    1.8072   -0.1952   -0.8557 C   0  0  0  0  0  0  0  0  0  0  0  0
    0.7365    0.7718   -0.4396 C   0  0  0  0  0  0  0  0  0  0  0  0
   -0.4535    0.0898    0.2038 C   0  0  0  0  0  0  0  0  0  0  0  0
   -1.1029   -0.8990   -0.7446 C   0  0  0  0  0  0  0  0  0  0  0  0
   -1.4493    1.1375    0.5035 C   0  0  0  0  0  0  0  0  0  0  0  0
   -1.4115    1.6952    1.5704 O   0  0  0  0  0  0  0  0  0  0  0  0
   -0.0883   -0.5676    1.4843 C   0  0  0  0  0  0  0  0  0  0  0  0
   -0.1183    0.0588    2.5279 O   0  0  0  0  0  0  0  0  0  0  0  0
    2.7183    0.3966   -1.0832 H   0  0  0  0  0  0  0  0  0  0  0  0
    1.5284   -0.8248   -1.7155 H   0  0  0  0  0  0  0  0  0  0  0  0
    2.0614   -0.8039    0.0493 H   0  0  0  0  0  0  0  0  0  0  0  0
    0.3398    1.3554   -1.3025 H   0  0  0  0  0  0  0  0  0  0  0  0
    1.1779    1.4349    0.3398 H   0  0  0  0  0  0  0  0  0  0  0  0
   -1.9234   -1.3888   -0.1899 H   0  0  0  0  0  0  0  0  0  0  0  0
   -0.3973   -1.6902   -1.0637 H   0  0  0  0  0  0  0  0  0  0  0  0
   -1.4412   -0.3466   -1.6331 H   0  0  0  0  0  0  0  0  0  0  0  0
   -2.1884    1.3873   -0.2267 H   0  0  0  0  0  0  0  0  0  0  0  0
    0.2045   -1.6114    1.4744 H   0  0  0  0  0  0  0  0  0  0  0  0
  1  2  1  0
  2  3  1  0
  3  4  1  0
  3  5  1  0
  5  6  2  0
  3  7  1  0
  7  8  2  0
  1  9  1  0
  1 10  1  0
  1 11  1  0
  2 12  1  0
  2 13  1  0
  4 14  1  0
  4 15  1  0
  4 16  1  0
  5 17  1  0
  7 18  1  0
M  END
