
     RDKit          3D

 27 26  0  0  0  0  0  0  0  0999 V2000
    2.2075   -1.1908   -0.0726 C   0  0  0  0  0  0  0  0  0  0  0  0
    1.3763   -0.3531    0.8570 C   0  0  0  0  0  0  0  0  0  0  0  0
    0.2245    0.3386    0.2002 C   0  0  0  0  0  0  0  0  0  0  0  0
   -0.4988    1.1329    1.2796 C   0  0  0  0  0  0  0  0  0  0  0  0
    0.7980    1.3409   -0.7698 C   0  0  0  0  0  0  0  0  0  0  0  0
   -0.1657    2.0598   -1.4548 O   0  0  0  0  0  0  0  0  0  0  0  0
   -0.7746   -0.5918   -0.3930 C   0  0  0  0  0  0  0  0  0  0  0  0
   -1.3523   -1.4873    0.6833 C   0  0  0  0  0  0  0  0  0  0  0  0
   -1.9002    0.0528   -1.1132 C   0  0  0  0  0  0  0  0  0  0  0  0
    1.6949   -2.1174   -0.4059 H   0  0  0  0  0  0  0  0  0  0  0  0
    3.0773   -1.5555    0.5494 H   0  0  0  0  0  0  0  0  0  0  0  0
    2.6506   -0.6366   -0.9039 H   0  0  0  0  0  0  0  0  0  0  0  0
    1.0389   -1.0486    1.6831 H   0  0  0  0  0  0  0  0  0  0  0  0
    2.0687    0.3548    1.3578 H   0  0  0  0  0  0  0  0  0  0  0  0
   -0.2933    2.2228    1.2014 H   0  0  0  0  0  0  0  0  0  0  0  0
   -1.6055    1.0300    1.1984 H   0  0  0  0  0  0  0  0  0  0  0  0
   -0.1456    0.8452    2.3053 H   0  0  0  0  0  0  0  0  0  0  0  0
    1.4436    2.0817   -0.2542 H   0  0  0  0  0  0  0  0  0  0  0  0
    1.4396    0.8728   -1.5483 H   0  0  0  0  0  0  0  0  0  0  0  0
    0.2723    2.5419   -2.1749 H   0  0  0  0  0  0  0  0  0  0  0  0
   -0.2319   -1.2350   -1.1468 H   0  0  0  0  0  0  0  0  0  0  0  0
   -1.0837   -1.1539    1.7047 H   0  0  0  0  0  0  0  0  0  0  0  0
   -0.9893   -2.5451    0.5319 H   0  0  0  0  0  0  0  0  0  0  0  0
   -2.4705   -1.5042    0.6548 H   0  0  0  0  0  0  0  0  0  0  0  0
   -2.8487   -0.5500   -0.9713 H   0  0  0  0  0  0  0  0  0  0  0  0
   -1.7669    0.0289   -2.2358 H   0  0  0  0  0  0  0  0  0  0  0  0
   -2.1652    1.0662   -0.7625 H   0  0  0  0  0  0  0  0  0  0  0  0
  1  2  1  0
  2  3  1  0
  3  4  1  0
  3  5  1  0
  5  6  1  0
  3  7  1  0
  7  8  1  0
  7  9  1  0
  1 10  1  0
  1 11  1  0
  1 12  1  0
  2 13  1  0
  2 14  1  0
  4 15  1  0
  4 16  1  0
  4 17  1  0
  5 18  1  0
  5 19  1  0
  6 20  1  0
  7 21  1  0
  8 22  1  0
  8 23  1  0
  8 24  1  0
  9 25  1  0
  9 26  1  0
  9 27  1  0
M  END
