
     RDKit          3D

 25 25  0  0  0  0  0  0  0  0999 V2000
   -2.8120    0.6857    0.3776 C   0  0  0  0  0  0  0  0  0  0  0  0
   -1.3628    1.0769    0.1604 C   0  0  0  0  0  0  0  0  0  0  0  0
   -0.5975   -0.0449   -0.5081 C   0  0  0  0  0  0  0  0  0  0  0  0
    0.8335    0.2866   -0.7462 C   0  0  0  0  0  0  0  0  0  0  0  0
    1.6114    0.5970    0.4984 C   0  0  0  0  0  0  0  0  0  0  0  0
    3.0809    0.9329    0.2086 C   0  0  0  0  0  0  0  0  0  0  0  0
    2.7081   -0.2783    0.9744 C   0  0  0  0  0  0  0  0  0  0  0  0
   -0.6936   -1.2083    0.2193 O   0  0  0  0  0  0  0  0  0  0  0  0
   -1.3396   -2.2199   -0.4912 C   0  0  0  0  0  0  0  0  0  0  0  0
   -2.9134   -0.1269    1.1235 H   0  0  0  0  0  0  0  0  0  0  0  0
   -3.4401    1.5442    0.6450 H   0  0  0  0  0  0  0  0  0  0  0  0
   -3.1920    0.3028   -0.5910 H   0  0  0  0  0  0  0  0  0  0  0  0
   -0.9255    1.2090    1.1739 H   0  0  0  0  0  0  0  0  0  0  0  0
   -1.3464    2.0011   -0.4212 H   0  0  0  0  0  0  0  0  0  0  0  0
   -1.0749   -0.2286   -1.4940 H   0  0  0  0  0  0  0  0  0  0  0  0
    0.9261    1.1920   -1.4144 H   0  0  0  0  0  0  0  0  0  0  0  0
    1.2970   -0.5371   -1.3072 H   0  0  0  0  0  0  0  0  0  0  0  0
    1.1099    1.2703    1.2389 H   0  0  0  0  0  0  0  0  0  0  0  0
    3.4783    1.8407    0.7332 H   0  0  0  0  0  0  0  0  0  0  0  0
    3.4681    0.8146   -0.8019 H   0  0  0  0  0  0  0  0  0  0  0  0
    2.8347   -0.3354    2.0708 H   0  0  0  0  0  0  0  0  0  0  0  0
    2.9002   -1.2453    0.4700 H   0  0  0  0  0  0  0  0  0  0  0  0
   -2.3746   -1.9442   -0.7801 H   0  0  0  0  0  0  0  0  0  0  0  0
   -0.8097   -2.4385   -1.4567 H   0  0  0  0  0  0  0  0  0  0  0  0
   -1.3659   -3.1463    0.1181 H   0  0  0  0  0  0  0  0  0  0  0  0
  1  2  1  0
  2  3  1  0
  3  4  1  0
  4  5  1  0
  5  6  1  0
  6  7  1  0
  3  8  1  0
  8  9  1  0
  7  5  1  0
  1 10  1  0
  1 11  1  0
  1 12  1  0
  2 13  1  0
  2 14  1  0
  3 15  1  0
  4 16  1  0
  4 17  1  0
  5 18  1  0
  6 19  1  0
  6 20  1  0
  7 21  1  0
  7 22  1  0
  9 23  1  0
  9 24  1  0
  9 25  1  0
M  END
