
     RDKit          3D

 21 21  0  0  0  0  0  0  0  0999 V2000
   -3.2644   -0.1106    0.2212 C   0  0  0  0  0  0  0  0  0  0  0  0
   -1.9709    0.4325   -0.2877 C   0  0  0  0  0  0  0  0  0  0  0  0
   -0.7832   -0.4247    0.1078 C   0  0  0  0  0  0  0  0  0  0  0  0
   -0.9032   -1.7191   -0.3929 O   0  0  0  0  0  0  0  0  0  0  0  0
    0.5097    0.1591   -0.4069 C   0  0  0  0  0  0  0  0  0  0  0  0
    0.7477    1.4580    0.0254 O   0  0  0  0  0  0  0  0  0  0  0  0
    1.5675    0.4830    0.5705 C   0  0  0  0  0  0  0  0  0  0  0  0
    3.0119    0.5973    0.1770 C   0  0  0  0  0  0  0  0  0  0  0  0
    3.8036   -0.3979    0.7431 O   0  0  0  0  0  0  0  0  0  0  0  0
   -3.1495   -1.1637    0.6039 H   0  0  0  0  0  0  0  0  0  0  0  0
   -4.0182   -0.1500   -0.6010 H   0  0  0  0  0  0  0  0  0  0  0  0
   -3.7055    0.5055    1.0352 H   0  0  0  0  0  0  0  0  0  0  0  0
   -1.9913    0.4400   -1.3985 H   0  0  0  0  0  0  0  0  0  0  0  0
   -1.7980    1.4569    0.0579 H   0  0  0  0  0  0  0  0  0  0  0  0
   -0.7415   -0.4928    1.2104 H   0  0  0  0  0  0  0  0  0  0  0  0
   -0.4401   -2.3840    0.1864 H   0  0  0  0  0  0  0  0  0  0  0  0
    0.8573   -0.1710   -1.4009 H   0  0  0  0  0  0  0  0  0  0  0  0
    1.3998    0.1354    1.6069 H   0  0  0  0  0  0  0  0  0  0  0  0
    3.3858    1.5710    0.6052 H   0  0  0  0  0  0  0  0  0  0  0  0
    3.1558    0.6810   -0.9214 H   0  0  0  0  0  0  0  0  0  0  0  0
    4.3268   -0.9060    0.0735 H   0  0  0  0  0  0  0  0  0  0  0  0
  1  2  1  0
  2  3  1  0
  3  4  1  0
  3  5  1  0
  5  6  1  0
  6  7  1  0
  7  8  1  0
  8  9  1  0
  7  5  1  0
  1 10  1  0
  1 11  1  0
  1 12  1  0
  2 13  1  0
  2 14  1  0
  3 15  1  0
  4 16  1  0
  5 17  1  0
  7 18  1  0
  8 19  1  0
  8 20  1  0
  9 21  1  0
M  END
