
     RDKit          3D

 25 25  0  0  0  0  0  0  0  0999 V2000
   -2.0834    1.6906    0.9191 C   0  0  0  0  0  0  0  0  0  0  0  0
   -0.9425    1.3267   -0.0129 C   0  0  0  0  0  0  0  0  0  0  0  0
   -0.3314    0.0091    0.3158 C   0  0  0  0  0  0  0  0  0  0  0  0
   -1.2510   -1.1618    0.2524 C   0  0  0  0  0  0  0  0  0  0  0  0
   -1.8866   -1.4322   -1.0517 C   0  0  0  0  0  0  0  0  0  0  0  0
    0.7364   -0.2011   -0.5554 O   0  0  0  0  0  0  0  0  0  0  0  0
    1.9070   -0.2548    0.1495 C   0  0  0  0  0  0  0  0  0  0  0  0
    3.0475    0.5323   -0.5299 C   0  0  0  0  0  0  0  0  0  0  0  0
    3.1240   -0.9248   -0.3484 C   0  0  0  0  0  0  0  0  0  0  0  0
   -1.6840    2.0536    1.8877 H   0  0  0  0  0  0  0  0  0  0  0  0
   -2.7839    0.8726    1.0919 H   0  0  0  0  0  0  0  0  0  0  0  0
   -2.6309    2.5473    0.4708 H   0  0  0  0  0  0  0  0  0  0  0  0
   -1.2208    1.4486   -1.0775 H   0  0  0  0  0  0  0  0  0  0  0  0
   -0.1544    2.1004    0.1727 H   0  0  0  0  0  0  0  0  0  0  0  0
    0.0377    0.0808    1.3713 H   0  0  0  0  0  0  0  0  0  0  0  0
   -0.6986   -2.0629    0.5933 H   0  0  0  0  0  0  0  0  0  0  0  0
   -2.0780   -1.0397    1.0140 H   0  0  0  0  0  0  0  0  0  0  0  0
   -2.9439   -1.0646   -1.0678 H   0  0  0  0  0  0  0  0  0  0  0  0
   -1.3273   -1.0882   -1.9402 H   0  0  0  0  0  0  0  0  0  0  0  0
   -1.9817   -2.5500   -1.1983 H   0  0  0  0  0  0  0  0  0  0  0  0
    1.8052   -0.1267    1.2473 H   0  0  0  0  0  0  0  0  0  0  0  0
    3.5500    1.2448    0.1359 H   0  0  0  0  0  0  0  0  0  0  0  0
    2.8963    0.8910   -1.5569 H   0  0  0  0  0  0  0  0  0  0  0  0
    3.0694   -1.5834   -1.2349 H   0  0  0  0  0  0  0  0  0  0  0  0
    3.8247   -1.3076    0.4219 H   0  0  0  0  0  0  0  0  0  0  0  0
  1  2  1  0
  2  3  1  0
  3  4  1  0
  4  5  1  0
  3  6  1  0
  6  7  1  0
  7  8  1  0
  8  9  1  0
  9  7  1  0
  1 10  1  0
  1 11  1  0
  1 12  1  0
  2 13  1  0
  2 14  1  0
  3 15  1  0
  4 16  1  0
  4 17  1  0
  5 18  1  0
  5 19  1  0
  5 20  1  0
  7 21  1  0
  8 22  1  0
  8 23  1  0
  9 24  1  0
  9 25  1  0
M  END
