
     RDKit          3D

 19 18  0  0  0  0  0  0  0  0999 V2000
   -1.7275   -1.2521   -0.3060 C   0  0  0  0  0  0  0  0  0  0  0  0
   -1.4011    0.1586    0.1294 C   0  0  0  0  0  0  0  0  0  0  0  0
   -0.1160    0.5494   -0.5345 C   0  0  0  0  0  0  0  0  0  0  0  0
    0.9136   -0.3968   -0.0943 C   0  0  0  0  0  0  0  0  0  0  0  0
    1.7597   -1.1821    0.2866 C   0  0  0  0  0  0  0  0  0  0  0  0
    2.7637   -2.1280    0.7175 C   0  0  0  0  0  0  0  0  0  0  0  0
    4.0033   -1.8808    0.5863 O   0  0  0  0  0  0  0  0  0  0  0  0
    0.2925    1.9818   -0.1758 C   0  0  0  0  0  0  0  0  0  0  0  0
   -0.6407    2.9010   -0.5546 O   0  0  0  0  0  0  0  0  0  0  0  0
   -2.7771   -1.3902   -0.5909 H   0  0  0  0  0  0  0  0  0  0  0  0
   -1.4920   -1.9459    0.5500 H   0  0  0  0  0  0  0  0  0  0  0  0
   -1.1016   -1.5710   -1.1866 H   0  0  0  0  0  0  0  0  0  0  0  0
   -2.1783    0.8848   -0.1900 H   0  0  0  0  0  0  0  0  0  0  0  0
   -1.2402    0.2147    1.2262 H   0  0  0  0  0  0  0  0  0  0  0  0
   -0.2202    0.4430   -1.6352 H   0  0  0  0  0  0  0  0  0  0  0  0
    2.3967   -3.0428    1.1508 H   0  0  0  0  0  0  0  0  0  0  0  0
    0.3492    1.9792    0.9531 H   0  0  0  0  0  0  0  0  0  0  0  0
    1.3198    2.1714   -0.5167 H   0  0  0  0  0  0  0  0  0  0  0  0
   -0.9036    3.5058    0.1847 H   0  0  0  0  0  0  0  0  0  0  0  0
  1  2  1  0
  2  3  1  0
  3  4  1  0
  4  5  3  0
  5  6  1  0
  6  7  2  0
  3  8  1  0
  8  9  1  0
  1 10  1  0
  1 11  1  0
  1 12  1  0
  2 13  1  0
  2 14  1  0
  3 15  1  0
  6 16  1  0
  8 17  1  0
  8 18  1  0
  9 19  1  0
M  END
