
     RDKit          3D

 27 27  0  0  0  0  0  0  0  0999 V2000
    0.5927    2.4148    0.2426 C   0  0  0  0  0  0  0  0  0  0  0  0
    1.1676    1.0504   -0.0373 C   0  0  0  0  0  0  0  0  0  0  0  0
    0.2670   -0.0705    0.3711 C   0  0  0  0  0  0  0  0  0  0  0  0
    0.9697   -1.3695    0.0323 C   0  0  0  0  0  0  0  0  0  0  0  0
    2.2635   -1.3848    0.8102 C   0  0  0  0  0  0  0  0  0  0  0  0
   -1.0699   -0.0804   -0.2679 C   0  0  0  0  0  0  0  0  0  0  0  0
   -1.0793   -0.1832   -1.7810 C   0  0  0  0  0  0  0  0  0  0  0  0
   -2.0684   -1.0298    0.4289 C   0  0  0  0  0  0  0  0  0  0  0  0
   -2.2848    0.4430    0.3918 C   0  0  0  0  0  0  0  0  0  0  0  0
    0.5168    2.5426    1.3228 H   0  0  0  0  0  0  0  0  0  0  0  0
    1.3604    3.1548   -0.1106 H   0  0  0  0  0  0  0  0  0  0  0  0
   -0.3309    2.5721   -0.3218 H   0  0  0  0  0  0  0  0  0  0  0  0
    2.1108    0.9734    0.5427 H   0  0  0  0  0  0  0  0  0  0  0  0
    1.4429    0.9862   -1.1088 H   0  0  0  0  0  0  0  0  0  0  0  0
    0.1687   -0.0187    1.4901 H   0  0  0  0  0  0  0  0  0  0  0  0
    0.3385   -2.2512    0.2545 H   0  0  0  0  0  0  0  0  0  0  0  0
    1.2255   -1.3226   -1.0414 H   0  0  0  0  0  0  0  0  0  0  0  0
    3.0238   -0.8286    0.2560 H   0  0  0  0  0  0  0  0  0  0  0  0
    2.0336   -0.9578    1.8128 H   0  0  0  0  0  0  0  0  0  0  0  0
    2.5489   -2.4499    0.9342 H   0  0  0  0  0  0  0  0  0  0  0  0
   -0.5267   -1.1020   -2.0720 H   0  0  0  0  0  0  0  0  0  0  0  0
   -2.1415   -0.3726   -2.1026 H   0  0  0  0  0  0  0  0  0  0  0  0
   -0.6956    0.7313   -2.2686 H   0  0  0  0  0  0  0  0  0  0  0  0
   -1.7880   -1.4812    1.3767 H   0  0  0  0  0  0  0  0  0  0  0  0
   -2.6729   -1.6914   -0.2267 H   0  0  0  0  0  0  0  0  0  0  0  0
   -2.2630    0.9600    1.3551 H   0  0  0  0  0  0  0  0  0  0  0  0
   -3.1095    0.7657   -0.2831 H   0  0  0  0  0  0  0  0  0  0  0  0
  1  2  1  0
  2  3  1  0
  3  4  1  0
  4  5  1  0
  3  6  1  0
  6  7  1  0
  6  8  1  0
  8  9  1  0
  9  6  1  0
  1 10  1  0
  1 11  1  0
  1 12  1  0
  2 13  1  0
  2 14  1  0
  3 15  1  0
  4 16  1  0
  4 17  1  0
  5 18  1  0
  5 19  1  0
  5 20  1  0
  7 21  1  0
  7 22  1  0
  7 23  1  0
  8 24  1  0
  8 25  1  0
  9 26  1  0
  9 27  1  0
M  END
