
     RDKit          3D

 23 23  0  0  0  0  0  0  0  0999 V2000
   -2.0043    1.1245    0.5423 C   0  0  0  0  0  0  0  0  0  0  0  0
   -1.6302   -0.3048    0.2330 C   0  0  0  0  0  0  0  0  0  0  0  0
   -0.2118   -0.4026   -0.2548 C   0  0  0  0  0  0  0  0  0  0  0  0
    0.0729   -1.8811   -0.5405 C   0  0  0  0  0  0  0  0  0  0  0  0
   -0.0704    0.3185   -1.5286 C   0  0  0  0  0  0  0  0  0  0  0  0
   -0.2334   -0.2759   -2.6034 O   0  0  0  0  0  0  0  0  0  0  0  0
    0.7887    0.0268    0.7857 C   0  0  0  0  0  0  0  0  0  0  0  0
    2.2318   -0.0696    0.2977 C   0  0  0  0  0  0  0  0  0  0  0  0
    1.5607    1.2712    0.6724 C   0  0  0  0  0  0  0  0  0  0  0  0
   -1.7495    1.7586   -0.3272 H   0  0  0  0  0  0  0  0  0  0  0  0
   -3.1006    1.1563    0.6744 H   0  0  0  0  0  0  0  0  0  0  0  0
   -1.5278    1.4396    1.4775 H   0  0  0  0  0  0  0  0  0  0  0  0
   -2.2792   -0.7075   -0.5837 H   0  0  0  0  0  0  0  0  0  0  0  0
   -1.8174   -0.9164    1.1308 H   0  0  0  0  0  0  0  0  0  0  0  0
   -0.6537   -2.2868   -1.2530 H   0  0  0  0  0  0  0  0  0  0  0  0
    0.0799   -2.3888    0.4350 H   0  0  0  0  0  0  0  0  0  0  0  0
    1.0793   -1.8940   -1.0172 H   0  0  0  0  0  0  0  0  0  0  0  0
    0.1744    1.3713   -1.6302 H   0  0  0  0  0  0  0  0  0  0  0  0
    0.5807   -0.4077    1.7926 H   0  0  0  0  0  0  0  0  0  0  0  0
    2.9862   -0.4703    1.0064 H   0  0  0  0  0  0  0  0  0  0  0  0
    2.4131   -0.1750   -0.7927 H   0  0  0  0  0  0  0  0  0  0  0  0
    1.9118    1.7105    1.6493 H   0  0  0  0  0  0  0  0  0  0  0  0
    1.3987    2.0033   -0.1260 H   0  0  0  0  0  0  0  0  0  0  0  0
  1  2  1  0
  2  3  1  0
  3  4  1  0
  3  5  1  0
  5  6  2  0
  3  7  1  0
  7  8  1  0
  8  9  1  0
  9  7  1  0
  1 10  1  0
  1 11  1  0
  1 12  1  0
  2 13  1  0
  2 14  1  0
  4 15  1  0
  4 16  1  0
  4 17  1  0
  5 18  1  0
  7 19  1  0
  8 20  1  0
  8 21  1  0
  9 22  1  0
  9 23  1  0
M  END
