
     RDKit          3D

 25 24  0  0  0  0  0  0  0  0999 V2000
   -2.4179   -0.9991    0.4588 C   0  0  0  0  0  0  0  0  0  0  0  0
   -0.9092   -0.7115    0.6301 C   0  0  0  0  0  0  0  0  0  0  0  0
   -0.5083    0.3498   -0.2965 C   0  0  0  0  0  0  0  0  0  0  0  0
   -1.3694    1.6027    0.0526 C   0  0  0  0  0  0  0  0  0  0  0  0
   -2.7077    1.3837   -0.0934 O   0  0  0  0  0  0  0  0  0  0  0  0
    0.8617    0.8785   -0.3309 C   0  0  0  0  0  0  0  0  0  0  0  0
    2.0434    0.0871   -0.6300 C   0  0  0  0  0  0  0  0  0  0  0  0
    2.4311   -1.0100    0.2776 C   0  0  0  0  0  0  0  0  0  0  0  0
    3.6389   -1.6349   -0.1822 O   0  0  0  0  0  0  0  0  0  0  0  0
   -2.7488   -0.8313   -0.5688 H   0  0  0  0  0  0  0  0  0  0  0  0
   -2.6282   -2.0981    0.6519 H   0  0  0  0  0  0  0  0  0  0  0  0
   -2.9725   -0.4293    1.2238 H   0  0  0  0  0  0  0  0  0  0  0  0
   -0.4737   -1.7146    0.4240 H   0  0  0  0  0  0  0  0  0  0  0  0
   -0.6881   -0.4067    1.6632 H   0  0  0  0  0  0  0  0  0  0  0  0
   -0.7742    0.0942   -1.3796 H   0  0  0  0  0  0  0  0  0  0  0  0
   -1.0785    2.4265   -0.6536 H   0  0  0  0  0  0  0  0  0  0  0  0
   -1.0615    1.9568    1.0554 H   0  0  0  0  0  0  0  0  0  0  0  0
   -3.1550    2.1414   -0.5446 H   0  0  0  0  0  0  0  0  0  0  0  0
    0.8252    1.7073   -1.1381 H   0  0  0  0  0  0  0  0  0  0  0  0
    1.0169    1.5499    0.5943 H   0  0  0  0  0  0  0  0  0  0  0  0
    2.9435    0.8023   -0.6238 H   0  0  0  0  0  0  0  0  0  0  0  0
    2.0000   -0.2405   -1.7099 H   0  0  0  0  0  0  0  0  0  0  0  0
    1.6668   -1.7705    0.4170 H   0  0  0  0  0  0  0  0  0  0  0  0
    2.7195   -0.6628    1.3042 H   0  0  0  0  0  0  0  0  0  0  0  0
    3.3460   -2.4709   -0.6271 H   0  0  0  0  0  0  0  0  0  0  0  0
  1  2  1  0
  2  3  1  0
  3  4  1  0
  4  5  1  0
  3  6  1  0
  6  7  1  0
  7  8  1  0
  8  9  1  0
  1 10  1  0
  1 11  1  0
  1 12  1  0
  2 13  1  0
  2 14  1  0
  3 15  1  0
  4 16  1  0
  4 17  1  0
  5 18  1  0
  6 19  1  0
  6 20  1  0
  7 21  1  0
  7 22  1  0
  8 23  1  0
  8 24  1  0
  9 25  1  0
M  END
