
     RDKit          3D

 23 22  0  0  0  0  0  0  0  0999 V2000
   -2.2938   -1.4199   -0.0512 C   0  0  0  0  0  0  0  0  0  0  0  0
   -1.0922   -0.9268   -0.8286 C   0  0  0  0  0  0  0  0  0  0  0  0
   -0.1343   -0.1951    0.0815 C   0  0  0  0  0  0  0  0  0  0  0  0
   -0.7486    0.9946    0.7385 C   0  0  0  0  0  0  0  0  0  0  0  0
   -1.2467    2.0314   -0.2143 C   0  0  0  0  0  0  0  0  0  0  0  0
    1.0902    0.0827   -0.5705 O   0  0  0  0  0  0  0  0  0  0  0  0
    2.3027   -0.4787   -0.1967 C   0  0  0  0  0  0  0  0  0  0  0  0
    3.5702   -0.1445   -0.9285 C   0  0  0  0  0  0  0  0  0  0  0  0
    2.3404   -1.2687    0.7565 O   0  0  0  0  0  0  0  0  0  0  0  0
   -2.8134   -0.5485    0.3986 H   0  0  0  0  0  0  0  0  0  0  0  0
   -1.9700   -2.1378    0.7552 H   0  0  0  0  0  0  0  0  0  0  0  0
   -2.9765   -1.9743   -0.6933 H   0  0  0  0  0  0  0  0  0  0  0  0
   -1.4697   -0.3002   -1.6482 H   0  0  0  0  0  0  0  0  0  0  0  0
   -0.6006   -1.8253   -1.2513 H   0  0  0  0  0  0  0  0  0  0  0  0
    0.1202   -0.9232    0.9037 H   0  0  0  0  0  0  0  0  0  0  0  0
   -1.5301    0.6469    1.4402 H   0  0  0  0  0  0  0  0  0  0  0  0
    0.0368    1.4702    1.3694 H   0  0  0  0  0  0  0  0  0  0  0  0
   -0.4458    2.7133   -0.5636 H   0  0  0  0  0  0  0  0  0  0  0  0
   -1.8220    1.6376   -1.0643 H   0  0  0  0  0  0  0  0  0  0  0  0
   -1.9599    2.6882    0.3619 H   0  0  0  0  0  0  0  0  0  0  0  0
    4.3481   -0.8846   -0.6727 H   0  0  0  0  0  0  0  0  0  0  0  0
    3.3892   -0.0864   -2.0284 H   0  0  0  0  0  0  0  0  0  0  0  0
    3.9059    0.8490   -0.5609 H   0  0  0  0  0  0  0  0  0  0  0  0
  1  2  1  0
  2  3  1  0
  3  4  1  0
  4  5  1  0
  3  6  1  0
  6  7  1  0
  7  8  1  0
  7  9  2  0
  1 10  1  0
  1 11  1  0
  1 12  1  0
  2 13  1  0
  2 14  1  0
  3 15  1  0
  4 16  1  0
  4 17  1  0
  5 18  1  0
  5 19  1  0
  5 20  1  0
  8 21  1  0
  8 22  1  0
  8 23  1  0
M  END
