
     RDKit          3D

 23 23  0  0  0  0  0  0  0  0999 V2000
    2.1336    0.8761   -0.4289 C   0  0  0  0  0  0  0  0  0  0  0  0
    1.2687    0.8177    0.8341 C   0  0  0  0  0  0  0  0  0  0  0  0
    0.5230   -0.5180    0.8751 C   0  0  0  0  0  0  0  0  0  0  0  0
   -0.2356   -0.4982    2.0401 O   0  0  0  0  0  0  0  0  0  0  0  0
   -0.2790   -0.7454   -0.3554 C   0  0  0  0  0  0  0  0  0  0  0  0
   -1.7333   -0.3611   -0.4112 C   0  0  0  0  0  0  0  0  0  0  0  0
   -1.9905    1.0869   -0.1855 C   0  0  0  0  0  0  0  0  0  0  0  0
    0.0332   -2.0161   -1.1188 C   0  0  0  0  0  0  0  0  0  0  0  0
    0.4645   -0.7690   -1.5331 O   0  0  0  0  0  0  0  0  0  0  0  0
    1.5676    1.2767   -1.2845 H   0  0  0  0  0  0  0  0  0  0  0  0
    2.6371   -0.0790   -0.6143 H   0  0  0  0  0  0  0  0  0  0  0  0
    2.9414    1.6214   -0.2200 H   0  0  0  0  0  0  0  0  0  0  0  0
    1.9706    0.9014    1.6869 H   0  0  0  0  0  0  0  0  0  0  0  0
    0.5655    1.6639    0.8016 H   0  0  0  0  0  0  0  0  0  0  0  0
    1.2681   -1.3236    0.9812 H   0  0  0  0  0  0  0  0  0  0  0  0
   -0.3259    0.4127    2.4195 H   0  0  0  0  0  0  0  0  0  0  0  0
   -2.1286   -0.6563   -1.3883 H   0  0  0  0  0  0  0  0  0  0  0  0
   -2.2786   -0.9342    0.3646 H   0  0  0  0  0  0  0  0  0  0  0  0
   -1.2879    1.7642   -0.7209 H   0  0  0  0  0  0  0  0  0  0  0  0
   -3.0021    1.3192   -0.6335 H   0  0  0  0  0  0  0  0  0  0  0  0
   -2.1028    1.3636    0.8924 H   0  0  0  0  0  0  0  0  0  0  0  0
   -0.7433   -2.4578   -1.7744 H   0  0  0  0  0  0  0  0  0  0  0  0
    0.7342   -2.7450   -0.6904 H   0  0  0  0  0  0  0  0  0  0  0  0
  1  2  1  0
  2  3  1  0
  3  4  1  0
  3  5  1  0
  5  6  1  0
  6  7  1  0
  5  8  1  0
  8  9  1  0
  9  5  1  0
  1 10  1  0
  1 11  1  0
  1 12  1  0
  2 13  1  0
  2 14  1  0
  3 15  1  0
  4 16  1  0
  6 17  1  0
  6 18  1  0
  7 19  1  0
  7 20  1  0
  7 21  1  0
  8 22  1  0
  8 23  1  0
M  END
