
     RDKit          3D

 23 22  0  0  0  0  0  0  0  0999 V2000
    2.1073   -1.1536    0.5091 C   0  0  0  0  0  0  0  0  0  0  0  0
    1.6785   -0.0296   -0.3909 C   0  0  0  0  0  0  0  0  0  0  0  0
    0.6427    0.8651    0.1974 C   0  0  0  0  0  0  0  0  0  0  0  0
    0.3113    1.9385   -0.8093 C   0  0  0  0  0  0  0  0  0  0  0  0
   -0.5578    0.2028    0.7521 C   0  0  0  0  0  0  0  0  0  0  0  0
   -1.3778   -0.6163   -0.1831 C   0  0  0  0  0  0  0  0  0  0  0  0
   -1.8949    0.0751   -1.2530 O   0  0  0  0  0  0  0  0  0  0  0  0
   -2.5314   -1.1029    0.6288 C   0  0  0  0  0  0  0  0  0  0  0  0
   -2.3853   -1.7539    1.6496 O   0  0  0  0  0  0  0  0  0  0  0  0
    2.8793   -0.8061    1.2372 H   0  0  0  0  0  0  0  0  0  0  0  0
    1.2987   -1.6567    1.0265 H   0  0  0  0  0  0  0  0  0  0  0  0
    2.6133   -1.9166   -0.1343 H   0  0  0  0  0  0  0  0  0  0  0  0
    2.5888    0.5767   -0.5923 H   0  0  0  0  0  0  0  0  0  0  0  0
    1.3621   -0.4169   -1.3922 H   0  0  0  0  0  0  0  0  0  0  0  0
    1.1274    1.3928    1.0548 H   0  0  0  0  0  0  0  0  0  0  0  0
    1.2402    2.4694   -1.1070 H   0  0  0  0  0  0  0  0  0  0  0  0
   -0.4423    2.6101   -0.3562 H   0  0  0  0  0  0  0  0  0  0  0  0
   -0.1160    1.5175   -1.7487 H   0  0  0  0  0  0  0  0  0  0  0  0
   -1.2109    0.9874    1.1868 H   0  0  0  0  0  0  0  0  0  0  0  0
   -0.2592   -0.4372    1.6008 H   0  0  0  0  0  0  0  0  0  0  0  0
   -0.8202   -1.4867   -0.5966 H   0  0  0  0  0  0  0  0  0  0  0  0
   -2.7034   -0.3654   -1.6177 H   0  0  0  0  0  0  0  0  0  0  0  0
   -3.5503   -0.8936    0.3383 H   0  0  0  0  0  0  0  0  0  0  0  0
  1  2  1  0
  2  3  1  0
  3  4  1  0
  3  5  1  0
  5  6  1  0
  6  7  1  0
  6  8  1  0
  8  9  2  0
  1 10  1  0
  1 11  1  0
  1 12  1  0
  2 13  1  0
  2 14  1  0
  3 15  1  0
  4 16  1  0
  4 17  1  0
  4 18  1  0
  5 19  1  0
  5 20  1  0
  6 21  1  0
  7 22  1  0
  8 23  1  0
M  END
