
     RDKit          3D

 19 19  0  0  0  0  0  0  0  0999 V2000
    1.8239    0.1630   -0.6361 C   0  0  0  0  0  0  0  0  0  0  0  0
    1.2714   -0.8135    0.3816 C   0  0  0  0  0  0  0  0  0  0  0  0
   -0.0310   -0.3261    0.9477 C   0  0  0  0  0  0  0  0  0  0  0  0
    0.2412    0.9189    1.5623 O   0  0  0  0  0  0  0  0  0  0  0  0
   -1.0646   -0.0724   -0.1038 C   0  0  0  0  0  0  0  0  0  0  0  0
   -1.4212   -1.1539   -1.0644 C   0  0  0  0  0  0  0  0  0  0  0  0
   -2.2645   -0.9400   -1.9189 O   0  0  0  0  0  0  0  0  0  0  0  0
   -1.5698    1.2769   -0.3704 C   0  0  0  0  0  0  0  0  0  0  0  0
   -2.2702    0.4788    0.5560 O   0  0  0  0  0  0  0  0  0  0  0  0
    1.0110    0.6144   -1.2579 H   0  0  0  0  0  0  0  0  0  0  0  0
    2.4223    0.9254   -0.1118 H   0  0  0  0  0  0  0  0  0  0  0  0
    2.4753   -0.3791   -1.3525 H   0  0  0  0  0  0  0  0  0  0  0  0
    1.1439   -1.8200   -0.0149 H   0  0  0  0  0  0  0  0  0  0  0  0
    2.0023   -0.8371    1.2304 H   0  0  0  0  0  0  0  0  0  0  0  0
   -0.3868   -0.9797    1.7684 H   0  0  0  0  0  0  0  0  0  0  0  0
    0.7385    1.4783    0.9178 H   0  0  0  0  0  0  0  0  0  0  0  0
   -0.9742   -2.1286   -1.0521 H   0  0  0  0  0  0  0  0  0  0  0  0
   -1.0466    2.1200    0.1172 H   0  0  0  0  0  0  0  0  0  0  0  0
   -2.1010    1.4747   -1.3125 H   0  0  0  0  0  0  0  0  0  0  0  0
  1  2  1  0
  2  3  1  0
  3  4  1  0
  3  5  1  0
  5  6  1  0
  6  7  2  0
  5  8  1  0
  8  9  1  0
  9  5  1  0
  1 10  1  0
  1 11  1  0
  1 12  1  0
  2 13  1  0
  2 14  1  0
  3 15  1  0
  4 16  1  0
  6 17  1  0
  8 18  1  0
  8 19  1  0
M  END
