
     RDKit          3D

 24 23  0  0  0  0  0  0  0  0999 V2000
   -1.0121    2.2066    0.3753 C   0  0  0  0  0  0  0  0  0  0  0  0
   -1.1318    0.9002   -0.3743 C   0  0  0  0  0  0  0  0  0  0  0  0
   -0.1152   -0.1096    0.0460 C   0  0  0  0  0  0  0  0  0  0  0  0
   -0.3018   -1.3677   -0.7403 C   0  0  0  0  0  0  0  0  0  0  0  0
   -1.6759   -1.9628   -0.5272 C   0  0  0  0  0  0  0  0  0  0  0  0
    1.2946    0.4145    0.0068 C   0  0  0  0  0  0  0  0  0  0  0  0
    2.3112   -0.5963    0.4271 C   0  0  0  0  0  0  0  0  0  0  0  0
    1.6483    0.8627   -1.2725 O   0  0  0  0  0  0  0  0  0  0  0  0
   -1.1834    2.0490    1.4426 H   0  0  0  0  0  0  0  0  0  0  0  0
   -0.0685    2.7325    0.1362 H   0  0  0  0  0  0  0  0  0  0  0  0
   -1.8397    2.8645   -0.0047 H   0  0  0  0  0  0  0  0  0  0  0  0
   -2.1406    0.4785   -0.1174 H   0  0  0  0  0  0  0  0  0  0  0  0
   -1.1473    1.0758   -1.4743 H   0  0  0  0  0  0  0  0  0  0  0  0
   -0.3255   -0.3606    1.1189 H   0  0  0  0  0  0  0  0  0  0  0  0
   -0.1982   -1.1940   -1.8382 H   0  0  0  0  0  0  0  0  0  0  0  0
    0.4414   -2.1545   -0.4922 H   0  0  0  0  0  0  0  0  0  0  0  0
   -2.3915   -1.6486   -1.3263 H   0  0  0  0  0  0  0  0  0  0  0  0
   -2.1194   -1.5616    0.4292 H   0  0  0  0  0  0  0  0  0  0  0  0
   -1.6485   -3.0589   -0.4150 H   0  0  0  0  0  0  0  0  0  0  0  0
    1.3990    1.2935    0.6750 H   0  0  0  0  0  0  0  0  0  0  0  0
    2.6928   -1.2093   -0.4337 H   0  0  0  0  0  0  0  0  0  0  0  0
    1.9879   -1.2292    1.2783 H   0  0  0  0  0  0  0  0  0  0  0  0
    3.2179   -0.0397    0.7968 H   0  0  0  0  0  0  0  0  0  0  0  0
    2.3065    1.6150   -1.1948 H   0  0  0  0  0  0  0  0  0  0  0  0
  1  2  1  0
  2  3  1  0
  3  4  1  0
  4  5  1  0
  3  6  1  0
  6  7  1  0
  6  8  1  0
  1  9  1  0
  1 10  1  0
  1 11  1  0
  2 12  1  0
  2 13  1  0
  3 14  1  0
  4 15  1  0
  4 16  1  0
  5 17  1  0
  5 18  1  0
  5 19  1  0
  6 20  1  0
  7 21  1  0
  7 22  1  0
  7 23  1  0
  8 24  1  0
M  END
