
     RDKit          3D

 21 21  0  0  0  0  0  0  0  0999 V2000
   -2.3568    0.6443    0.2757 C   0  0  0  0  0  0  0  0  0  0  0  0
   -1.4999   -0.3960    0.9163 C   0  0  0  0  0  0  0  0  0  0  0  0
   -0.2798   -0.7539    0.1315 C   0  0  0  0  0  0  0  0  0  0  0  0
   -0.5763   -1.2883   -1.2101 C   0  0  0  0  0  0  0  0  0  0  0  0
   -1.0959   -0.5919   -2.0787 O   0  0  0  0  0  0  0  0  0  0  0  0
    0.6323    0.4419    0.0350 C   0  0  0  0  0  0  0  0  0  0  0  0
    1.9071    0.2155   -0.7355 C   0  0  0  0  0  0  0  0  0  0  0  0
    2.6366    0.6457    0.5237 C   0  0  0  0  0  0  0  0  0  0  0  0
    1.3917    0.6257    1.1912 O   0  0  0  0  0  0  0  0  0  0  0  0
   -2.7511    0.3357   -0.7140 H   0  0  0  0  0  0  0  0  0  0  0  0
   -1.8826    1.6344    0.1853 H   0  0  0  0  0  0  0  0  0  0  0  0
   -3.2469    0.7919    0.9379 H   0  0  0  0  0  0  0  0  0  0  0  0
   -2.1403   -1.2894    1.1040 H   0  0  0  0  0  0  0  0  0  0  0  0
   -1.1604    0.0055    1.8978 H   0  0  0  0  0  0  0  0  0  0  0  0
    0.2330   -1.5838    0.6970 H   0  0  0  0  0  0  0  0  0  0  0  0
   -0.3597   -2.3147   -1.5157 H   0  0  0  0  0  0  0  0  0  0  0  0
    0.0776    1.3304   -0.2895 H   0  0  0  0  0  0  0  0  0  0  0  0
    2.0954   -0.8115   -1.0692 H   0  0  0  0  0  0  0  0  0  0  0  0
    1.9853    0.9130   -1.5889 H   0  0  0  0  0  0  0  0  0  0  0  0
    3.2951   -0.1829    0.8697 H   0  0  0  0  0  0  0  0  0  0  0  0
    3.0955    1.6283    0.4363 H   0  0  0  0  0  0  0  0  0  0  0  0
  1  2  1  0
  2  3  1  0
  3  4  1  0
  4  5  2  0
  3  6  1  0
  6  7  1  0
  7  8  1  0
  8  9  1  0
  9  6  1  0
  1 10  1  0
  1 11  1  0
  1 12  1  0
  2 13  1  0
  2 14  1  0
  3 15  1  0
  4 16  1  0
  6 17  1  0
  7 18  1  0
  7 19  1  0
  8 20  1  0
  8 21  1  0
M  END
