
     RDKit          3D

 21 21  0  0  0  0  0  0  0  0999 V2000
   -2.0524   -0.5050    0.6265 C   0  0  0  0  0  0  0  0  0  0  0  0
   -1.6803   -0.0546   -0.7427 C   0  0  0  0  0  0  0  0  0  0  0  0
   -0.3048    0.5005   -0.8654 C   0  0  0  0  0  0  0  0  0  0  0  0
   -0.1126    1.6886    0.0100 C   0  0  0  0  0  0  0  0  0  0  0  0
    0.1470    2.7866   -0.4645 O   0  0  0  0  0  0  0  0  0  0  0  0
    0.7552   -0.5255   -0.4891 C   0  0  0  0  0  0  0  0  0  0  0  0
    2.2020   -0.0181   -0.5935 C   0  0  0  0  0  0  0  0  0  0  0  0
    1.5728   -0.3686    0.7163 C   0  0  0  0  0  0  0  0  0  0  0  0
    2.0040   -1.5341    1.3729 O   0  0  0  0  0  0  0  0  0  0  0  0
   -1.8756    0.2867    1.3931 H   0  0  0  0  0  0  0  0  0  0  0  0
   -3.1735   -0.6500    0.6315 H   0  0  0  0  0  0  0  0  0  0  0  0
   -1.6346   -1.4794    0.9215 H   0  0  0  0  0  0  0  0  0  0  0  0
   -2.3971    0.7317   -1.0552 H   0  0  0  0  0  0  0  0  0  0  0  0
   -1.7925   -0.9060   -1.4400 H   0  0  0  0  0  0  0  0  0  0  0  0
   -0.1617    0.8204   -1.9247 H   0  0  0  0  0  0  0  0  0  0  0  0
   -0.1945    1.6249    1.0852 H   0  0  0  0  0  0  0  0  0  0  0  0
    0.5460   -1.5572   -0.8203 H   0  0  0  0  0  0  0  0  0  0  0  0
    2.9189   -0.7046   -1.0871 H   0  0  0  0  0  0  0  0  0  0  0  0
    2.3373    1.0336   -0.8523 H   0  0  0  0  0  0  0  0  0  0  0  0
    1.4640    0.4832    1.4116 H   0  0  0  0  0  0  0  0  0  0  0  0
    1.4323   -1.6533    2.1661 H   0  0  0  0  0  0  0  0  0  0  0  0
  1  2  1  0
  2  3  1  0
  3  4  1  0
  4  5  2  0
  3  6  1  0
  6  7  1  0
  7  8  1  0
  8  9  1  0
  8  6  1  0
  1 10  1  0
  1 11  1  0
  1 12  1  0
  2 13  1  0
  2 14  1  0
  3 15  1  0
  4 16  1  0
  6 17  1  0
  7 18  1  0
  7 19  1  0
  8 20  1  0
  9 21  1  0
M  END
