
     RDKit          3D

 27 26  0  0  0  0  0  0  0  0999 V2000
    3.4065    0.3294    0.2820 C   0  0  0  0  0  0  0  0  0  0  0  0
    2.2539    0.0479   -0.6604 C   0  0  0  0  0  0  0  0  0  0  0  0
    0.9792    0.1381    0.1612 C   0  0  0  0  0  0  0  0  0  0  0  0
    0.9939   -0.8679    1.2736 C   0  0  0  0  0  0  0  0  0  0  0  0
   -0.2129    0.0489   -0.7372 C   0  0  0  0  0  0  0  0  0  0  0  0
   -1.5371    0.1330   -0.0637 C   0  0  0  0  0  0  0  0  0  0  0  0
   -1.6225    1.4655    0.6587 C   0  0  0  0  0  0  0  0  0  0  0  0
   -2.5708    0.0358   -0.9954 O   0  0  0  0  0  0  0  0  0  0  0  0
   -3.4390   -1.0077   -0.7099 C   0  0  0  0  0  0  0  0  0  0  0  0
    3.3739    1.4012    0.6308 H   0  0  0  0  0  0  0  0  0  0  0  0
    4.3901    0.1261   -0.1857 H   0  0  0  0  0  0  0  0  0  0  0  0
    3.2530   -0.3020    1.1811 H   0  0  0  0  0  0  0  0  0  0  0  0
    2.4163   -0.9767   -1.0623 H   0  0  0  0  0  0  0  0  0  0  0  0
    2.1822    0.8160   -1.4550 H   0  0  0  0  0  0  0  0  0  0  0  0
    1.0065    1.1591    0.6425 H   0  0  0  0  0  0  0  0  0  0  0  0
    1.7551   -1.6764    1.0729 H   0  0  0  0  0  0  0  0  0  0  0  0
    1.3561   -0.4101    2.2413 H   0  0  0  0  0  0  0  0  0  0  0  0
    0.0085   -1.2833    1.5008 H   0  0  0  0  0  0  0  0  0  0  0  0
   -0.1543    0.8874   -1.4659 H   0  0  0  0  0  0  0  0  0  0  0  0
   -0.1433   -0.8785   -1.3516 H   0  0  0  0  0  0  0  0  0  0  0  0
   -1.6933   -0.6705    0.6713 H   0  0  0  0  0  0  0  0  0  0  0  0
   -2.6327    1.5687    1.1008 H   0  0  0  0  0  0  0  0  0  0  0  0
   -0.9019    1.4905    1.4916 H   0  0  0  0  0  0  0  0  0  0  0  0
   -1.3661    2.2993   -0.0170 H   0  0  0  0  0  0  0  0  0  0  0  0
   -2.9324   -2.0014   -0.7010 H   0  0  0  0  0  0  0  0  0  0  0  0
   -3.9445   -0.8635    0.2629 H   0  0  0  0  0  0  0  0  0  0  0  0
   -4.2244   -1.0089   -1.4827 H   0  0  0  0  0  0  0  0  0  0  0  0
  1  2  1  0
  2  3  1  0
  3  4  1  0
  3  5  1  0
  5  6  1  0
  6  7  1  0
  6  8  1  0
  8  9  1  0
  1 10  1  0
  1 11  1  0
  1 12  1  0
  2 13  1  0
  2 14  1  0
  3 15  1  0
  4 16  1  0
  4 17  1  0
  4 18  1  0
  5 19  1  0
  5 20  1  0
  6 21  1  0
  7 22  1  0
  7 23  1  0
  7 24  1  0
  9 25  1  0
  9 26  1  0
  9 27  1  0
M  END
