
     RDKit          3D

 18 17  0  0  0  0  0  0  0  0999 V2000
   -2.8779    0.2073    0.4726 C   0  0  0  0  0  0  0  0  0  0  0  0
   -1.7401   -0.5138   -0.2182 C   0  0  0  0  0  0  0  0  0  0  0  0
   -0.4627    0.2408   -0.0804 C   0  0  0  0  0  0  0  0  0  0  0  0
   -0.4691    1.2824    0.5239 O   0  0  0  0  0  0  0  0  0  0  0  0
    0.7462   -0.3577   -0.7092 C   0  0  0  0  0  0  0  0  0  0  0  0
    1.9589    0.4494   -0.5220 C   0  0  0  0  0  0  0  0  0  0  0  0
    2.9542    0.0899    0.5506 C   0  0  0  0  0  0  0  0  0  0  0  0
    2.1921    1.4174   -1.2173 O   0  0  0  0  0  0  0  0  0  0  0  0
   -3.1822    1.0908   -0.1210 H   0  0  0  0  0  0  0  0  0  0  0  0
   -3.7421   -0.4599    0.5868 H   0  0  0  0  0  0  0  0  0  0  0  0
   -2.5499    0.4880    1.5014 H   0  0  0  0  0  0  0  0  0  0  0  0
   -1.6298   -1.5542    0.1596 H   0  0  0  0  0  0  0  0  0  0  0  0
   -2.0090   -0.5615   -1.3000 H   0  0  0  0  0  0  0  0  0  0  0  0
    0.4996   -0.4362   -1.8099 H   0  0  0  0  0  0  0  0  0  0  0  0
    0.8454   -1.3958   -0.3623 H   0  0  0  0  0  0  0  0  0  0  0  0
    2.4136    0.3186    1.5151 H   0  0  0  0  0  0  0  0  0  0  0  0
    3.1872   -0.9852    0.5424 H   0  0  0  0  0  0  0  0  0  0  0  0
    3.8658    0.6797    0.4878 H   0  0  0  0  0  0  0  0  0  0  0  0
  1  2  1  0
  2  3  1  0
  3  4  2  0
  3  5  1  0
  5  6  1  0
  6  7  1  0
  6  8  2  0
  1  9  1  0
  1 10  1  0
  1 11  1  0
  2 12  1  0
  2 13  1  0
  5 14  1  0
  5 15  1  0
  7 16  1  0
  7 17  1  0
  7 18  1  0
M  END
