
     RDKit          3D

 21 20  0  0  0  0  0  0  0  0999 V2000
   -1.8622   -1.1678   -0.2679 C   0  0  0  0  0  0  0  0  0  0  0  0
   -1.3931    0.0409    0.5076 C   0  0  0  0  0  0  0  0  0  0  0  0
   -0.1248    0.6210   -0.0147 C   0  0  0  0  0  0  0  0  0  0  0  0
    0.2127    1.8235    0.8671 C   0  0  0  0  0  0  0  0  0  0  0  0
   -0.2114    1.1115   -1.4213 C   0  0  0  0  0  0  0  0  0  0  0  0
    0.9762   -0.3577    0.1576 C   0  0  0  0  0  0  0  0  0  0  0  0
    1.8777   -1.1512    0.2781 C   0  0  0  0  0  0  0  0  0  0  0  0
    2.9325   -2.1130    0.4194 C   0  0  0  0  0  0  0  0  0  0  0  0
    3.5077   -2.3365    1.5148 O   0  0  0  0  0  0  0  0  0  0  0  0
   -1.8148   -0.9955   -1.3678 H   0  0  0  0  0  0  0  0  0  0  0  0
   -2.8763   -1.4771    0.0300 H   0  0  0  0  0  0  0  0  0  0  0  0
   -1.1788   -2.0048   -0.0162 H   0  0  0  0  0  0  0  0  0  0  0  0
   -2.1952    0.8030    0.4232 H   0  0  0  0  0  0  0  0  0  0  0  0
   -1.2950   -0.2152    1.5623 H   0  0  0  0  0  0  0  0  0  0  0  0
   -0.6724    2.4912    0.8143 H   0  0  0  0  0  0  0  0  0  0  0  0
    0.3718    1.4875    1.9060 H   0  0  0  0  0  0  0  0  0  0  0  0
    1.0838    2.3503    0.4316 H   0  0  0  0  0  0  0  0  0  0  0  0
    0.6698    0.7040   -1.9721 H   0  0  0  0  0  0  0  0  0  0  0  0
   -1.1748    0.8633   -1.9164 H   0  0  0  0  0  0  0  0  0  0  0  0
   -0.1153    2.2212   -1.4983 H   0  0  0  0  0  0  0  0  0  0  0  0
    3.2819   -2.6985   -0.4374 H   0  0  0  0  0  0  0  0  0  0  0  0
  1  2  1  0
  2  3  1  0
  3  4  1  0
  3  5  1  0
  3  6  1  0
  6  7  3  0
  7  8  1  0
  8  9  2  0
  1 10  1  0
  1 11  1  0
  1 12  1  0
  2 13  1  0
  2 14  1  0
  4 15  1  0
  4 16  1  0
  4 17  1  0
  5 18  1  0
  5 19  1  0
  5 20  1  0
  8 21  1  0
M  END
