
     RDKit          3D

 25 24  0  0  0  0  0  0  0  0999 V2000
   -0.1094    2.3399    0.5040 C   0  0  0  0  0  0  0  0  0  0  0  0
    0.5282    1.0096    0.7171 C   0  0  0  0  0  0  0  0  0  0  0  0
    0.0865   -0.0084   -0.3177 C   0  0  0  0  0  0  0  0  0  0  0  0
    0.4679    0.5068   -1.5625 O   0  0  0  0  0  0  0  0  0  0  0  0
    0.8318   -1.3037   -0.1261 C   0  0  0  0  0  0  0  0  0  0  0  0
    2.3059   -1.1446   -0.2593 C   0  0  0  0  0  0  0  0  0  0  0  0
   -1.3859   -0.1808   -0.3205 C   0  0  0  0  0  0  0  0  0  0  0  0
   -1.9793   -0.6023    0.9820 C   0  0  0  0  0  0  0  0  0  0  0  0
   -1.7502   -1.0648   -1.3376 O   0  0  0  0  0  0  0  0  0  0  0  0
   -0.2859    2.4996   -0.5792 H   0  0  0  0  0  0  0  0  0  0  0  0
   -1.0330    2.4889    1.1058 H   0  0  0  0  0  0  0  0  0  0  0  0
    0.5939    3.1346    0.8322 H   0  0  0  0  0  0  0  0  0  0  0  0
    0.3768    0.6455    1.7578 H   0  0  0  0  0  0  0  0  0  0  0  0
    1.6389    1.1529    0.5811 H   0  0  0  0  0  0  0  0  0  0  0  0
    0.5255   -0.2345   -2.2170 H   0  0  0  0  0  0  0  0  0  0  0  0
    0.5947   -1.7897    0.8444 H   0  0  0  0  0  0  0  0  0  0  0  0
    0.4949   -2.0104   -0.9161 H   0  0  0  0  0  0  0  0  0  0  0  0
    2.7813   -1.0209    0.7579 H   0  0  0  0  0  0  0  0  0  0  0  0
    2.7633   -2.0972   -0.6509 H   0  0  0  0  0  0  0  0  0  0  0  0
    2.6325   -0.3496   -0.9383 H   0  0  0  0  0  0  0  0  0  0  0  0
   -1.8474    0.8013   -0.5923 H   0  0  0  0  0  0  0  0  0  0  0  0
   -1.3702   -0.4019    1.8638 H   0  0  0  0  0  0  0  0  0  0  0  0
   -2.9624   -0.1103    1.1417 H   0  0  0  0  0  0  0  0  0  0  0  0
   -2.2198   -1.7034    0.9190 H   0  0  0  0  0  0  0  0  0  0  0  0
   -1.6786   -0.5568   -2.1893 H   0  0  0  0  0  0  0  0  0  0  0  0
  1  2  1  0
  2  3  1  0
  3  4  1  0
  3  5  1  0
  5  6  1  0
  3  7  1  0
  7  8  1  0
  7  9  1  0
  1 10  1  0
  1 11  1  0
  1 12  1  0
  2 13  1  0
  2 14  1  0
  4 15  1  0
  5 16  1  0
  5 17  1  0
  6 18  1  0
  6 19  1  0
  6 20  1  0
  7 21  1  0
  8 22  1  0
  8 23  1  0
  8 24  1  0
  9 25  1  0
M  END
