
     RDKit          3D

 25 24  0  0  0  0  0  0  0  0999 V2000
   -1.2702   -2.2759    0.7404 C   0  0  0  0  0  0  0  0  0  0  0  0
   -1.6025   -0.9878    0.0202 C   0  0  0  0  0  0  0  0  0  0  0  0
   -0.3780   -0.1725   -0.2799 C   0  0  0  0  0  0  0  0  0  0  0  0
   -0.8167    1.1061   -1.0067 C   0  0  0  0  0  0  0  0  0  0  0  0
   -1.7583    1.9109   -0.1461 C   0  0  0  0  0  0  0  0  0  0  0  0
    0.3785    0.1756    0.7723 O   0  0  0  0  0  0  0  0  0  0  0  0
    1.6926   -0.1550    0.8137 C   0  0  0  0  0  0  0  0  0  0  0  0
    2.4050    0.4985   -0.3519 C   0  0  0  0  0  0  0  0  0  0  0  0
    3.7746    0.1648   -0.3216 O   0  0  0  0  0  0  0  0  0  0  0  0
   -2.1516   -2.6654    1.2908 H   0  0  0  0  0  0  0  0  0  0  0  0
   -0.9364   -3.0740    0.0540 H   0  0  0  0  0  0  0  0  0  0  0  0
   -0.4909   -2.0787    1.5102 H   0  0  0  0  0  0  0  0  0  0  0  0
   -2.4023   -0.4164    0.5073 H   0  0  0  0  0  0  0  0  0  0  0  0
   -2.0248   -1.3030   -0.9796 H   0  0  0  0  0  0  0  0  0  0  0  0
    0.2101   -0.7366   -1.0282 H   0  0  0  0  0  0  0  0  0  0  0  0
    0.0722    1.7169   -1.2150 H   0  0  0  0  0  0  0  0  0  0  0  0
   -1.2951    0.8335   -1.9651 H   0  0  0  0  0  0  0  0  0  0  0  0
   -2.7663    1.5051   -0.0799 H   0  0  0  0  0  0  0  0  0  0  0  0
   -1.8388    2.9207   -0.6292 H   0  0  0  0  0  0  0  0  0  0  0  0
   -1.2909    2.0679    0.8441 H   0  0  0  0  0  0  0  0  0  0  0  0
    1.9025   -1.2414    0.7267 H   0  0  0  0  0  0  0  0  0  0  0  0
    2.2263    0.1758    1.7237 H   0  0  0  0  0  0  0  0  0  0  0  0
    2.3131    1.6017   -0.2932 H   0  0  0  0  0  0  0  0  0  0  0  0
    1.9898    0.1394   -1.3114 H   0  0  0  0  0  0  0  0  0  0  0  0
    4.0580    0.2898    0.6045 H   0  0  0  0  0  0  0  0  0  0  0  0
  1  2  1  0
  2  3  1  0
  3  4  1  0
  4  5  1  0
  3  6  1  0
  6  7  1  0
  7  8  1  0
  8  9  1  0
  1 10  1  0
  1 11  1  0
  1 12  1  0
  2 13  1  0
  2 14  1  0
  3 15  1  0
  4 16  1  0
  4 17  1  0
  5 18  1  0
  5 19  1  0
  5 20  1  0
  7 21  1  0
  7 22  1  0
  8 23  1  0
  8 24  1  0
  9 25  1  0
M  END
