
     RDKit          3D

 27 27  0  0  0  0  0  0  0  0999 V2000
   -1.7499   -0.9777    1.4041 C   0  0  0  0  0  0  0  0  0  0  0  0
   -2.0776    0.1453    0.5099 C   0  0  0  0  0  0  0  0  0  0  0  0
   -0.9831    1.0200    0.0273 C   0  0  0  0  0  0  0  0  0  0  0  0
   -1.6727    2.0797   -0.8626 C   0  0  0  0  0  0  0  0  0  0  0  0
    0.0465    0.3988   -0.8467 C   0  0  0  0  0  0  0  0  0  0  0  0
    0.8503   -0.7145   -0.3146 C   0  0  0  0  0  0  0  0  0  0  0  0
    1.6929   -0.4508    0.8950 C   0  0  0  0  0  0  0  0  0  0  0  0
    2.9066   -1.0110    0.1650 C   0  0  0  0  0  0  0  0  0  0  0  0
    2.1566   -0.8522   -1.1172 C   0  0  0  0  0  0  0  0  0  0  0  0
   -0.8887   -0.8506    2.0502 H   0  0  0  0  0  0  0  0  0  0  0  0
   -1.7095   -1.9287    0.8060 H   0  0  0  0  0  0  0  0  0  0  0  0
   -2.6079   -1.1875    2.1227 H   0  0  0  0  0  0  0  0  0  0  0  0
   -2.6796   -0.1509   -0.3885 H   0  0  0  0  0  0  0  0  0  0  0  0
   -2.7935    0.8176    1.0739 H   0  0  0  0  0  0  0  0  0  0  0  0
   -0.4953    1.6155    0.8279 H   0  0  0  0  0  0  0  0  0  0  0  0
   -2.0164    2.9358   -0.2505 H   0  0  0  0  0  0  0  0  0  0  0  0
   -0.9633    2.4578   -1.6272 H   0  0  0  0  0  0  0  0  0  0  0  0
   -2.5311    1.6570   -1.3922 H   0  0  0  0  0  0  0  0  0  0  0  0
    0.7624    1.1716   -1.2630 H   0  0  0  0  0  0  0  0  0  0  0  0
   -0.4877    0.0524   -1.7748 H   0  0  0  0  0  0  0  0  0  0  0  0
    0.4031   -1.7253   -0.2580 H   0  0  0  0  0  0  0  0  0  0  0  0
    1.4798   -1.1133    1.7656 H   0  0  0  0  0  0  0  0  0  0  0  0
    1.8173    0.6272    1.1724 H   0  0  0  0  0  0  0  0  0  0  0  0
    3.7952   -0.3577    0.3006 H   0  0  0  0  0  0  0  0  0  0  0  0
    3.1392   -2.0612    0.3866 H   0  0  0  0  0  0  0  0  0  0  0  0
    2.4465    0.1205   -1.6013 H   0  0  0  0  0  0  0  0  0  0  0  0
    2.1602   -1.7179   -1.8105 H   0  0  0  0  0  0  0  0  0  0  0  0
  1  2  1  0
  2  3  1  0
  3  4  1  0
  3  5  1  0
  5  6  1  0
  6  7  1  0
  7  8  1  0
  8  9  1  0
  9  6  1  0
  1 10  1  0
  1 11  1  0
  1 12  1  0
  2 13  1  0
  2 14  1  0
  3 15  1  0
  4 16  1  0
  4 17  1  0
  4 18  1  0
  5 19  1  0
  5 20  1  0
  6 21  1  0
  7 22  1  0
  7 23  1  0
  8 24  1  0
  8 25  1  0
  9 26  1  0
  9 27  1  0
M  END
