
     RDKit          3D

 19 19  0  0  0  0  0  0  0  0999 V2000
    3.2862   -0.0413    0.3179 C   0  0  0  0  0  0  0  0  0  0  0  0
    1.9800    0.3794    0.9446 C   0  0  0  0  0  0  0  0  0  0  0  0
    0.8771   -0.1003    0.0747 C   0  0  0  0  0  0  0  0  0  0  0  0
    1.1816   -0.7326   -0.9666 O   0  0  0  0  0  0  0  0  0  0  0  0
   -0.5173    0.1252    0.3690 C   0  0  0  0  0  0  0  0  0  0  0  0
   -0.9208    0.7482    1.3891 O   0  0  0  0  0  0  0  0  0  0  0  0
   -1.5448   -0.3911   -0.5580 C   0  0  0  0  0  0  0  0  0  0  0  0
   -2.9226   -0.6725   -0.0916 C   0  0  0  0  0  0  0  0  0  0  0  0
   -2.6780    0.6019   -0.7921 C   0  0  0  0  0  0  0  0  0  0  0  0
    3.1269   -0.2039   -0.7764 H   0  0  0  0  0  0  0  0  0  0  0  0
    3.5392   -1.0358    0.7430 H   0  0  0  0  0  0  0  0  0  0  0  0
    4.0925    0.6994    0.4796 H   0  0  0  0  0  0  0  0  0  0  0  0
    1.9761    1.4886    1.0050 H   0  0  0  0  0  0  0  0  0  0  0  0
    1.9040   -0.0324    1.9759 H   0  0  0  0  0  0  0  0  0  0  0  0
   -1.1607   -0.9343   -1.4456 H   0  0  0  0  0  0  0  0  0  0  0  0
   -3.1248   -0.6519    1.0010 H   0  0  0  0  0  0  0  0  0  0  0  0
   -3.4307   -1.5248   -0.6206 H   0  0  0  0  0  0  0  0  0  0  0  0
   -2.7064    1.5385   -0.2216 H   0  0  0  0  0  0  0  0  0  0  0  0
   -2.9574    0.7399   -1.8616 H   0  0  0  0  0  0  0  0  0  0  0  0
  1  2  1  0
  2  3  1  0
  3  4  2  0
  3  5  1  0
  5  6  2  0
  5  7  1  0
  7  8  1  0
  8  9  1  0
  9  7  1  0
  1 10  1  0
  1 11  1  0
  1 12  1  0
  2 13  1  0
  2 14  1  0
  7 15  1  0
  8 16  1  0
  8 17  1  0
  9 18  1  0
  9 19  1  0
M  END
