
     RDKit          3D

 21 22  0  0  0  0  0  0  0  0999 V2000
    2.8278   -0.1777   -0.2398 C   0  0  0  0  0  0  0  0  0  0  0  0
    1.6178   -1.1072   -0.1620 C   0  0  0  0  0  0  0  0  0  0  0  0
    0.6725   -0.4884    0.7970 C   0  0  0  0  0  0  0  0  0  0  0  0
    0.6387   -0.8284    1.9555 O   0  0  0  0  0  0  0  0  0  0  0  0
   -0.2317    0.5586    0.3149 C   0  0  0  0  0  0  0  0  0  0  0  0
   -1.1537    0.1688   -0.8070 C   0  0  0  0  0  0  0  0  0  0  0  0
   -1.8975   -0.6480    0.2026 C   0  0  0  0  0  0  0  0  0  0  0  0
   -1.5917    0.6236    0.9356 C   0  0  0  0  0  0  0  0  0  0  0  0
   -1.9776    1.3359   -0.3380 C   0  0  0  0  0  0  0  0  0  0  0  0
    3.7578   -0.7782   -0.3877 H   0  0  0  0  0  0  0  0  0  0  0  0
    2.8929    0.4247    0.6821 H   0  0  0  0  0  0  0  0  0  0  0  0
    2.6813    0.5431   -1.0939 H   0  0  0  0  0  0  0  0  0  0  0  0
    1.9151   -2.1256    0.1927 H   0  0  0  0  0  0  0  0  0  0  0  0
    1.1129   -1.1494   -1.1484 H   0  0  0  0  0  0  0  0  0  0  0  0
    0.2472    1.5480    0.1245 H   0  0  0  0  0  0  0  0  0  0  0  0
   -0.8939   -0.0796   -1.7364 H   0  0  0  0  0  0  0  0  0  0  0  0
   -2.9726   -0.8247   -0.0124 H   0  0  0  0  0  0  0  0  0  0  0  0
   -1.3905   -1.5141    0.6441 H   0  0  0  0  0  0  0  0  0  0  0  0
   -1.8665    0.8708    1.8647 H   0  0  0  0  0  0  0  0  0  0  0  0
   -3.0226    1.3748   -0.6135 H   0  0  0  0  0  0  0  0  0  0  0  0
   -1.3657    2.2727   -0.4417 H   0  0  0  0  0  0  0  0  0  0  0  0
  1  2  1  0
  2  3  1  0
  3  4  2  0
  3  5  1  0
  5  6  1  0
  6  7  1  0
  7  8  1  0
  8  9  1  0
  8  5  1  0
  9  6  1  0
  1 10  1  0
  1 11  1  0
  1 12  1  0
  2 13  1  0
  2 14  1  0
  5 15  1  0
  6 16  1  0
  7 17  1  0
  7 18  1  0
  8 19  1  0
  9 20  1  0
  9 21  1  0
M  END
