
     RDKit          3D

 24 24  0  0  0  0  0  0  0  0999 V2000
    2.7317    0.4390   -0.4665 C   0  0  0  0  0  0  0  0  0  0  0  0
    1.2387    0.5146   -0.7180 C   0  0  0  0  0  0  0  0  0  0  0  0
    0.4659   -0.4282    0.1474 C   0  0  0  0  0  0  0  0  0  0  0  0
    0.6676   -0.1428    1.6291 C   0  0  0  0  0  0  0  0  0  0  0  0
   -1.0011   -0.2985   -0.1397 C   0  0  0  0  0  0  0  0  0  0  0  0
   -1.8510   -1.2421    0.7144 C   0  0  0  0  0  0  0  0  0  0  0  0
   -1.5176    0.0342   -1.4774 C   0  0  0  0  0  0  0  0  0  0  0  0
   -1.6398    1.0342   -0.3295 C   0  0  0  0  0  0  0  0  0  0  0  0
    3.0000    1.2133    0.2783 H   0  0  0  0  0  0  0  0  0  0  0  0
    3.0589   -0.5794   -0.1828 H   0  0  0  0  0  0  0  0  0  0  0  0
    3.2600    0.7112   -1.4091 H   0  0  0  0  0  0  0  0  0  0  0  0
    1.0729    0.2593   -1.7633 H   0  0  0  0  0  0  0  0  0  0  0  0
    0.8979    1.5575   -0.4598 H   0  0  0  0  0  0  0  0  0  0  0  0
    0.7659   -1.4867   -0.0208 H   0  0  0  0  0  0  0  0  0  0  0  0
   -0.0651    0.6439    1.9332 H   0  0  0  0  0  0  0  0  0  0  0  0
    1.6705    0.2176    1.8528 H   0  0  0  0  0  0  0  0  0  0  0  0
    0.4688   -1.1007    2.1810 H   0  0  0  0  0  0  0  0  0  0  0  0
   -1.5944   -1.0476    1.7857 H   0  0  0  0  0  0  0  0  0  0  0  0
   -1.6346   -2.2914    0.4549 H   0  0  0  0  0  0  0  0  0  0  0  0
   -2.9098   -1.0599    0.4993 H   0  0  0  0  0  0  0  0  0  0  0  0
   -0.8900    0.4015   -2.2931 H   0  0  0  0  0  0  0  0  0  0  0  0
   -2.4225   -0.5162   -1.8088 H   0  0  0  0  0  0  0  0  0  0  0  0
   -2.6991    1.1937   -0.0312 H   0  0  0  0  0  0  0  0  0  0  0  0
   -1.0738    1.9736   -0.3763 H   0  0  0  0  0  0  0  0  0  0  0  0
  1  2  1  0
  2  3  1  0
  3  4  1  0
  3  5  1  0
  5  6  1  0
  5  7  1  0
  7  8  1  0
  8  5  1  0
  1  9  1  0
  1 10  1  0
  1 11  1  0
  2 12  1  0
  2 13  1  0
  3 14  1  0
  4 15  1  0
  4 16  1  0
  4 17  1  0
  6 18  1  0
  6 19  1  0
  6 20  1  0
  7 21  1  0
  7 22  1  0
  8 23  1  0
  8 24  1  0
M  END
