
     RDKit          3D

 25 25  0  0  0  0  0  0  0  0999 V2000
   -2.4450   -1.4865   -0.0391 C   0  0  0  0  0  0  0  0  0  0  0  0
   -1.0765   -0.9744    0.2703 C   0  0  0  0  0  0  0  0  0  0  0  0
   -0.8309    0.3611   -0.4311 C   0  0  0  0  0  0  0  0  0  0  0  0
   -1.9020    1.3065    0.1076 C   0  0  0  0  0  0  0  0  0  0  0  0
    0.4884    0.9500   -0.0306 C   0  0  0  0  0  0  0  0  0  0  0  0
    1.6665    0.0820   -0.3584 C   0  0  0  0  0  0  0  0  0  0  0  0
    1.8425   -0.2240   -1.7098 O   0  0  0  0  0  0  0  0  0  0  0  0
    2.9517    0.5055    0.3641 C   0  0  0  0  0  0  0  0  0  0  0  0
    2.2994   -0.8005    0.6358 C   0  0  0  0  0  0  0  0  0  0  0  0
   -3.2180   -1.1398    0.6890 H   0  0  0  0  0  0  0  0  0  0  0  0
   -2.7596   -1.2674   -1.0851 H   0  0  0  0  0  0  0  0  0  0  0  0
   -2.4764   -2.6126    0.0376 H   0  0  0  0  0  0  0  0  0  0  0  0
   -0.9980   -0.7620    1.3681 H   0  0  0  0  0  0  0  0  0  0  0  0
   -0.3381   -1.7321    0.0066 H   0  0  0  0  0  0  0  0  0  0  0  0
   -0.9704    0.2810   -1.5216 H   0  0  0  0  0  0  0  0  0  0  0  0
   -1.7056    2.3401   -0.2747 H   0  0  0  0  0  0  0  0  0  0  0  0
   -1.8462    1.3013    1.2107 H   0  0  0  0  0  0  0  0  0  0  0  0
   -2.9121    1.0069   -0.2076 H   0  0  0  0  0  0  0  0  0  0  0  0
    0.6010    1.9083   -0.5790 H   0  0  0  0  0  0  0  0  0  0  0  0
    0.4564    1.1692    1.0516 H   0  0  0  0  0  0  0  0  0  0  0  0
    1.6343    0.5753   -2.2701 H   0  0  0  0  0  0  0  0  0  0  0  0
    3.8838    0.5563   -0.2493 H   0  0  0  0  0  0  0  0  0  0  0  0
    2.8939    1.2862    1.1235 H   0  0  0  0  0  0  0  0  0  0  0  0
    2.8403   -1.6850    0.2390 H   0  0  0  0  0  0  0  0  0  0  0  0
    1.9205   -0.9453    1.6527 H   0  0  0  0  0  0  0  0  0  0  0  0
  1  2  1  0
  2  3  1  0
  3  4  1  0
  3  5  1  0
  5  6  1  0
  6  7  1  0
  6  8  1  0
  8  9  1  0
  9  6  1  0
  1 10  1  0
  1 11  1  0
  1 12  1  0
  2 13  1  0
  2 14  1  0
  3 15  1  0
  4 16  1  0
  4 17  1  0
  4 18  1  0
  5 19  1  0
  5 20  1  0
  7 21  1  0
  8 22  1  0
  8 23  1  0
  9 24  1  0
  9 25  1  0
M  END
