
     RDKit          3D

 22 22  0  0  0  0  0  0  0  0999 V2000
    3.0059    0.5918    0.1381 C   0  0  0  0  0  0  0  0  0  0  0  0
    1.5982    0.5819   -0.4462 C   0  0  0  0  0  0  0  0  0  0  0  0
    0.8735   -0.5776    0.1379 C   0  0  0  0  0  0  0  0  0  0  0  0
    1.5427   -1.7627   -0.1893 O   0  0  0  0  0  0  0  0  0  0  0  0
   -0.5439   -0.7209   -0.3102 C   0  0  0  0  0  0  0  0  0  0  0  0
   -1.4099    0.4574    0.0220 C   0  0  0  0  0  0  0  0  0  0  0  0
   -2.8522    0.2994   -0.4397 C   0  0  0  0  0  0  0  0  0  0  0  0
   -2.5263    0.3137    1.0066 C   0  0  0  0  0  0  0  0  0  0  0  0
    3.1502    1.4115    0.8655 H   0  0  0  0  0  0  0  0  0  0  0  0
    3.7753    0.7092   -0.6629 H   0  0  0  0  0  0  0  0  0  0  0  0
    3.2430   -0.3668    0.6473 H   0  0  0  0  0  0  0  0  0  0  0  0
    1.1453    1.5420   -0.2020 H   0  0  0  0  0  0  0  0  0  0  0  0
    1.7085    0.4408   -1.5591 H   0  0  0  0  0  0  0  0  0  0  0  0
    0.8999   -0.4961    1.2439 H   0  0  0  0  0  0  0  0  0  0  0  0
    0.8933   -2.5002   -0.1895 H   0  0  0  0  0  0  0  0  0  0  0  0
   -0.5828   -0.9051   -1.4054 H   0  0  0  0  0  0  0  0  0  0  0  0
   -0.9719   -1.6197    0.1789 H   0  0  0  0  0  0  0  0  0  0  0  0
   -0.9922    1.4628   -0.1976 H   0  0  0  0  0  0  0  0  0  0  0  0
   -3.1511   -0.6265   -0.9618 H   0  0  0  0  0  0  0  0  0  0  0  0
   -3.3770    1.1978   -0.8495 H   0  0  0  0  0  0  0  0  0  0  0  0
   -2.5752   -0.6454    1.5907 H   0  0  0  0  0  0  0  0  0  0  0  0
   -2.8534    1.2127    1.5825 H   0  0  0  0  0  0  0  0  0  0  0  0
  1  2  1  0
  2  3  1  0
  3  4  1  0
  3  5  1  0
  5  6  1  0
  6  7  1  0
  7  8  1  0
  8  6  1  0
  1  9  1  0
  1 10  1  0
  1 11  1  0
  2 12  1  0
  2 13  1  0
  3 14  1  0
  4 15  1  0
  5 16  1  0
  5 17  1  0
  6 18  1  0
  7 19  1  0
  7 20  1  0
  8 21  1  0
  8 22  1  0
M  END
