
     RDKit          3D

 23 23  0  0  0  0  0  0  0  0999 V2000
   -2.3389   -0.7012    0.7957 C   0  0  0  0  0  0  0  0  0  0  0  0
   -1.7395   -0.6899   -0.6044 C   0  0  0  0  0  0  0  0  0  0  0  0
   -0.9427    0.5779   -0.8319 C   0  0  0  0  0  0  0  0  0  0  0  0
   -0.4224    0.5493   -2.0973 O   0  0  0  0  0  0  0  0  0  0  0  0
    0.0412    0.8375    0.2561 C   0  0  0  0  0  0  0  0  0  0  0  0
    1.0747   -0.1913    0.4814 C   0  0  0  0  0  0  0  0  0  0  0  0
    2.0184   -0.5619   -0.5860 C   0  0  0  0  0  0  0  0  0  0  0  0
    3.0677   -0.5406    0.3349 O   0  0  0  0  0  0  0  0  0  0  0  0
    2.3438    0.4084    1.0654 C   0  0  0  0  0  0  0  0  0  0  0  0
   -1.6074   -0.9742    1.5655 H   0  0  0  0  0  0  0  0  0  0  0  0
   -3.1660   -1.4562    0.8252 H   0  0  0  0  0  0  0  0  0  0  0  0
   -2.8094    0.2650    1.0559 H   0  0  0  0  0  0  0  0  0  0  0  0
   -2.5967   -0.7245   -1.3067 H   0  0  0  0  0  0  0  0  0  0  0  0
   -1.0880   -1.5707   -0.6926 H   0  0  0  0  0  0  0  0  0  0  0  0
   -1.6769    1.4182   -0.8033 H   0  0  0  0  0  0  0  0  0  0  0  0
   -0.0225    1.4029   -2.3972 H   0  0  0  0  0  0  0  0  0  0  0  0
    0.4965    1.8357    0.0706 H   0  0  0  0  0  0  0  0  0  0  0  0
   -0.5406    0.9486    1.2004 H   0  0  0  0  0  0  0  0  0  0  0  0
    0.7847   -1.0664    1.0952 H   0  0  0  0  0  0  0  0  0  0  0  0
    1.8631   -1.5943   -0.9441 H   0  0  0  0  0  0  0  0  0  0  0  0
    2.2332    0.1582   -1.3826 H   0  0  0  0  0  0  0  0  0  0  0  0
    2.4744    0.2281    2.1579 H   0  0  0  0  0  0  0  0  0  0  0  0
    2.5531    1.4414    0.7419 H   0  0  0  0  0  0  0  0  0  0  0  0
  1  2  1  0
  2  3  1  0
  3  4  1  0
  3  5  1  0
  5  6  1  0
  6  7  1  0
  7  8  1  0
  8  9  1  0
  9  6  1  0
  1 10  1  0
  1 11  1  0
  1 12  1  0
  2 13  1  0
  2 14  1  0
  3 15  1  0
  4 16  1  0
  5 17  1  0
  5 18  1  0
  6 19  1  0
  7 20  1  0
  7 21  1  0
  9 22  1  0
  9 23  1  0
M  END
