
     RDKit          3D

 21 21  0  0  0  0  0  0  0  0999 V2000
    3.1183   -0.2248    0.4680 C   0  0  0  0  0  0  0  0  0  0  0  0
    1.9142   -0.4348   -0.4163 C   0  0  0  0  0  0  0  0  0  0  0  0
    0.7501    0.3618    0.0454 C   0  0  0  0  0  0  0  0  0  0  0  0
    0.8919    1.0547    1.0294 O   0  0  0  0  0  0  0  0  0  0  0  0
   -0.5423    0.3273   -0.6522 C   0  0  0  0  0  0  0  0  0  0  0  0
   -1.5554    1.2128    0.0028 C   0  0  0  0  0  0  0  0  0  0  0  0
   -2.3698    0.0237    0.4496 C   0  0  0  0  0  0  0  0  0  0  0  0
   -1.4264   -0.8558   -0.3399 C   0  0  0  0  0  0  0  0  0  0  0  0
   -2.0874   -1.3271   -1.4790 O   0  0  0  0  0  0  0  0  0  0  0  0
    3.7418   -1.1336    0.5754 H   0  0  0  0  0  0  0  0  0  0  0  0
    2.8210    0.0840    1.5053 H   0  0  0  0  0  0  0  0  0  0  0  0
    3.7443    0.6200    0.0826 H   0  0  0  0  0  0  0  0  0  0  0  0
    2.1915   -0.0336   -1.4314 H   0  0  0  0  0  0  0  0  0  0  0  0
    1.6989   -1.5208   -0.4692 H   0  0  0  0  0  0  0  0  0  0  0  0
   -0.4332    0.4792   -1.7627 H   0  0  0  0  0  0  0  0  0  0  0  0
   -1.2041    1.7734    0.8883 H   0  0  0  0  0  0  0  0  0  0  0  0
   -2.0783    1.8945   -0.6906 H   0  0  0  0  0  0  0  0  0  0  0  0
   -2.3519   -0.1963    1.5268 H   0  0  0  0  0  0  0  0  0  0  0  0
   -3.4030    0.0785    0.0682 H   0  0  0  0  0  0  0  0  0  0  0  0
   -0.9467   -1.6647    0.2374 H   0  0  0  0  0  0  0  0  0  0  0  0
   -2.4733   -0.5184   -1.9414 H   0  0  0  0  0  0  0  0  0  0  0  0
  1  2  1  0
  2  3  1  0
  3  4  2  0
  3  5  1  0
  5  6  1  0
  6  7  1  0
  7  8  1  0
  8  9  1  0
  8  5  1  0
  1 10  1  0
  1 11  1  0
  1 12  1  0
  2 13  1  0
  2 14  1  0
  5 15  1  0
  6 16  1  0
  6 17  1  0
  7 18  1  0
  7 19  1  0
  8 20  1  0
  9 21  1  0
M  END
