
     RDKit          3D

 19 19  0  0  0  0  0  0  0  0999 V2000
   -2.3657   -0.2703    0.0286 C   0  0  0  0  0  0  0  0  0  0  0  0
   -1.0542   -0.4489   -0.7269 C   0  0  0  0  0  0  0  0  0  0  0  0
    0.1141   -0.1658    0.2256 C   0  0  0  0  0  0  0  0  0  0  0  0
   -0.0726    1.2640    0.6855 C   0  0  0  0  0  0  0  0  0  0  0  0
    1.3807   -0.3742   -0.5233 C   0  0  0  0  0  0  0  0  0  0  0  0
    2.6905   -0.2086    0.0239 C   0  0  0  0  0  0  0  0  0  0  0  0
    2.1362   -1.5260    0.0352 O   0  0  0  0  0  0  0  0  0  0  0  0
   -2.1910   -0.3765    1.1362 H   0  0  0  0  0  0  0  0  0  0  0  0
   -3.0766   -1.0722   -0.2593 H   0  0  0  0  0  0  0  0  0  0  0  0
   -2.8428    0.6874   -0.2322 H   0  0  0  0  0  0  0  0  0  0  0  0
   -1.0022    0.2100   -1.6049 H   0  0  0  0  0  0  0  0  0  0  0  0
   -1.0100   -1.5013   -1.0809 H   0  0  0  0  0  0  0  0  0  0  0  0
    0.0244   -0.7930    1.1354 H   0  0  0  0  0  0  0  0  0  0  0  0
   -0.6994    1.2899    1.6058 H   0  0  0  0  0  0  0  0  0  0  0  0
   -0.6380    1.8555   -0.0727 H   0  0  0  0  0  0  0  0  0  0  0  0
    0.8607    1.7832    0.9043 H   0  0  0  0  0  0  0  0  0  0  0  0
    1.2867   -0.4305   -1.6354 H   0  0  0  0  0  0  0  0  0  0  0  0
    2.9042    0.2395    1.0187 H   0  0  0  0  0  0  0  0  0  0  0  0
    3.5551   -0.1622   -0.6633 H   0  0  0  0  0  0  0  0  0  0  0  0
  1  2  1  0
  2  3  1  0
  3  4  1  0
  3  5  1  0
  5  6  1  0
  6  7  1  0
  7  5  1  0
  1  8  1  0
  1  9  1  0
  1 10  1  0
  2 11  1  0
  2 12  1  0
  3 13  1  0
  4 14  1  0
  4 15  1  0
  4 16  1  0
  5 17  1  0
  6 18  1  0
  6 19  1  0
M  END
