
     RDKit          3D

 27 26  0  0  0  0  0  0  0  0999 V2000
   -1.5238   -2.2227    0.2862 C   0  0  0  0  0  0  0  0  0  0  0  0
   -1.7799   -0.7555    0.1063 C   0  0  0  0  0  0  0  0  0  0  0  0
   -0.5942    0.0006   -0.4259 C   0  0  0  0  0  0  0  0  0  0  0  0
   -0.9796    1.4434   -0.5584 C   0  0  0  0  0  0  0  0  0  0  0  0
    0.1039    2.3247   -1.0792 C   0  0  0  0  0  0  0  0  0  0  0  0
    0.6476   -0.2133    0.3926 C   0  0  0  0  0  0  0  0  0  0  0  0
    0.4890    0.2247    1.8258 C   0  0  0  0  0  0  0  0  0  0  0  0
    1.7220    0.3918   -0.2374 O   0  0  0  0  0  0  0  0  0  0  0  0
    2.6722   -0.5487   -0.6306 C   0  0  0  0  0  0  0  0  0  0  0  0
   -2.4644   -2.7557    0.0255 H   0  0  0  0  0  0  0  0  0  0  0  0
   -1.3390   -2.4218    1.3529 H   0  0  0  0  0  0  0  0  0  0  0  0
   -0.7310   -2.6174   -0.3768 H   0  0  0  0  0  0  0  0  0  0  0  0
   -2.6136   -0.5952   -0.6277 H   0  0  0  0  0  0  0  0  0  0  0  0
   -2.1054   -0.3210    1.0630 H   0  0  0  0  0  0  0  0  0  0  0  0
   -0.3840   -0.3854   -1.4450 H   0  0  0  0  0  0  0  0  0  0  0  0
   -1.3631    1.8694    0.4025 H   0  0  0  0  0  0  0  0  0  0  0  0
   -1.8341    1.4948   -1.2654 H   0  0  0  0  0  0  0  0  0  0  0  0
    0.6854    2.8133   -0.2431 H   0  0  0  0  0  0  0  0  0  0  0  0
    0.7705    1.8332   -1.8122 H   0  0  0  0  0  0  0  0  0  0  0  0
   -0.3842    3.1982   -1.6049 H   0  0  0  0  0  0  0  0  0  0  0  0
    0.8426   -1.3057    0.4118 H   0  0  0  0  0  0  0  0  0  0  0  0
    1.2442    1.0132    2.0462 H   0  0  0  0  0  0  0  0  0  0  0  0
   -0.5453    0.5611    2.0475 H   0  0  0  0  0  0  0  0  0  0  0  0
    0.7071   -0.5988    2.5521 H   0  0  0  0  0  0  0  0  0  0  0  0
    3.0741   -1.1192    0.2459 H   0  0  0  0  0  0  0  0  0  0  0  0
    2.1930   -1.3083   -1.2935 H   0  0  0  0  0  0  0  0  0  0  0  0
    3.4903    0.0001   -1.1581 H   0  0  0  0  0  0  0  0  0  0  0  0
  1  2  1  0
  2  3  1  0
  3  4  1  0
  4  5  1  0
  3  6  1  0
  6  7  1  0
  6  8  1  0
  8  9  1  0
  1 10  1  0
  1 11  1  0
  1 12  1  0
  2 13  1  0
  2 14  1  0
  3 15  1  0
  4 16  1  0
  4 17  1  0
  5 18  1  0
  5 19  1  0
  5 20  1  0
  6 21  1  0
  7 22  1  0
  7 23  1  0
  7 24  1  0
  9 25  1  0
  9 26  1  0
  9 27  1  0
M  END
