
     RDKit          3D

 20 19  0  0  0  0  0  0  0  0999 V2000
   -2.1838    0.3170    0.4347 C   0  0  0  0  0  0  0  0  0  0  0  0
   -1.3440    0.0729   -0.7787 C   0  0  0  0  0  0  0  0  0  0  0  0
   -0.0814   -0.6909   -0.4753 C   0  0  0  0  0  0  0  0  0  0  0  0
   -0.3598   -1.9393    0.0729 O   0  0  0  0  0  0  0  0  0  0  0  0
    0.8217    0.0596    0.4824 C   0  0  0  0  0  0  0  0  0  0  0  0
    1.2299    1.3972   -0.0973 C   0  0  0  0  0  0  0  0  0  0  0  0
    2.0478   -0.7394    0.6675 C   0  0  0  0  0  0  0  0  0  0  0  0
    2.8230   -0.8538   -0.2465 O   0  0  0  0  0  0  0  0  0  0  0  0
   -2.3431    1.4279    0.5531 H   0  0  0  0  0  0  0  0  0  0  0  0
   -3.1933   -0.1813    0.3697 H   0  0  0  0  0  0  0  0  0  0  0  0
   -1.7234   -0.0577    1.3713 H   0  0  0  0  0  0  0  0  0  0  0  0
   -1.9228   -0.5322   -1.5037 H   0  0  0  0  0  0  0  0  0  0  0  0
   -1.0824    1.0187   -1.2752 H   0  0  0  0  0  0  0  0  0  0  0  0
    0.4810   -0.8082   -1.4249 H   0  0  0  0  0  0  0  0  0  0  0  0
    0.2779   -2.6258   -0.3018 H   0  0  0  0  0  0  0  0  0  0  0  0
    0.3194    0.2319    1.4597 H   0  0  0  0  0  0  0  0  0  0  0  0
    2.2024    1.7519    0.2944 H   0  0  0  0  0  0  0  0  0  0  0  0
    1.3658    1.2196   -1.2011 H   0  0  0  0  0  0  0  0  0  0  0  0
    0.4256    2.1415   -0.0084 H   0  0  0  0  0  0  0  0  0  0  0  0
    2.2397   -1.2096    1.6071 H   0  0  0  0  0  0  0  0  0  0  0  0
  1  2  1  0
  2  3  1  0
  3  4  1  0
  3  5  1  0
  5  6  1  0
  5  7  1  0
  7  8  2  0
  1  9  1  0
  1 10  1  0
  1 11  1  0
  2 12  1  0
  2 13  1  0
  3 14  1  0
  4 15  1  0
  5 16  1  0
  6 17  1  0
  6 18  1  0
  6 19  1  0
  7 20  1  0
M  END
