
     RDKit          3D

 24 24  0  0  0  0  0  0  0  0999 V2000
   -2.2774    1.3042    0.5297 C   0  0  0  0  0  0  0  0  0  0  0  0
   -2.0897   -0.2046    0.3517 C   0  0  0  0  0  0  0  0  0  0  0  0
   -0.8589   -0.4402   -0.5132 C   0  0  0  0  0  0  0  0  0  0  0  0
   -0.7189   -1.9424   -0.6578 C   0  0  0  0  0  0  0  0  0  0  0  0
    0.3788    0.0590    0.2247 C   0  0  0  0  0  0  0  0  0  0  0  0
    1.6220   -0.1576   -0.6024 C   0  0  0  0  0  0  0  0  0  0  0  0
    2.9363    0.2766   -0.0288 C   0  0  0  0  0  0  0  0  0  0  0  0
    2.3116    1.1369   -1.0334 C   0  0  0  0  0  0  0  0  0  0  0  0
   -2.0930    1.8402   -0.4194 H   0  0  0  0  0  0  0  0  0  0  0  0
   -3.2938    1.5270    0.9076 H   0  0  0  0  0  0  0  0  0  0  0  0
   -1.5690    1.7129    1.2773 H   0  0  0  0  0  0  0  0  0  0  0  0
   -1.9383   -0.6790    1.3338 H   0  0  0  0  0  0  0  0  0  0  0  0
   -2.9922   -0.6326   -0.0893 H   0  0  0  0  0  0  0  0  0  0  0  0
   -0.9670    0.0448   -1.4945 H   0  0  0  0  0  0  0  0  0  0  0  0
   -0.4164   -2.3115    0.3639 H   0  0  0  0  0  0  0  0  0  0  0  0
    0.0473   -2.2454   -1.3718 H   0  0  0  0  0  0  0  0  0  0  0  0
   -1.7201   -2.3835   -0.8775 H   0  0  0  0  0  0  0  0  0  0  0  0
    0.4446   -0.4209    1.2224 H   0  0  0  0  0  0  0  0  0  0  0  0
    0.1993    1.1398    0.4258 H   0  0  0  0  0  0  0  0  0  0  0  0
    1.6801   -1.0269   -1.2791 H   0  0  0  0  0  0  0  0  0  0  0  0
    2.9049    0.4994    1.0577 H   0  0  0  0  0  0  0  0  0  0  0  0
    3.8614   -0.2898   -0.3053 H   0  0  0  0  0  0  0  0  0  0  0  0
    2.7253    1.0925   -2.0589 H   0  0  0  0  0  0  0  0  0  0  0  0
    1.8233    2.1010   -0.7846 H   0  0  0  0  0  0  0  0  0  0  0  0
  1  2  1  0
  2  3  1  0
  3  4  1  0
  3  5  1  0
  5  6  1  0
  6  7  1  0
  7  8  1  0
  8  6  1  0
  1  9  1  0
  1 10  1  0
  1 11  1  0
  2 12  1  0
  2 13  1  0
  3 14  1  0
  4 15  1  0
  4 16  1  0
  4 17  1  0
  5 18  1  0
  5 19  1  0
  6 20  1  0
  7 21  1  0
  7 22  1  0
  8 23  1  0
  8 24  1  0
M  END
