
     RDKit          3D

 22 21  0  0  0  0  0  0  0  0999 V2000
    2.2026   -0.9754    0.3933 C   0  0  0  0  0  0  0  0  0  0  0  0
    1.5379    0.2708   -0.0668 C   0  0  0  0  0  0  0  0  0  0  0  0
    0.1401    0.4781    0.4738 C   0  0  0  0  0  0  0  0  0  0  0  0
   -0.3592    1.7819   -0.1004 C   0  0  0  0  0  0  0  0  0  0  0  0
   -0.4093    1.8027   -1.4683 O   0  0  0  0  0  0  0  0  0  0  0  0
   -0.7212   -0.6880    0.1513 C   0  0  0  0  0  0  0  0  0  0  0  0
   -2.1216   -0.6032    0.6298 C   0  0  0  0  0  0  0  0  0  0  0  0
   -0.1212   -1.8352    0.6682 O   0  0  0  0  0  0  0  0  0  0  0  0
    3.3160   -0.8023    0.3330 H   0  0  0  0  0  0  0  0  0  0  0  0
    1.9994   -1.2496    1.4493 H   0  0  0  0  0  0  0  0  0  0  0  0
    2.0244   -1.8600   -0.2516 H   0  0  0  0  0  0  0  0  0  0  0  0
    1.4787    0.2544   -1.1682 H   0  0  0  0  0  0  0  0  0  0  0  0
    2.1493    1.1748    0.1970 H   0  0  0  0  0  0  0  0  0  0  0  0
    0.2094    0.6294    1.5791 H   0  0  0  0  0  0  0  0  0  0  0  0
   -1.3749    1.9981    0.3354 H   0  0  0  0  0  0  0  0  0  0  0  0
    0.2777    2.6280    0.2319 H   0  0  0  0  0  0  0  0  0  0  0  0
   -1.2194    2.2978   -1.7410 H   0  0  0  0  0  0  0  0  0  0  0  0
   -0.7489   -0.8030   -0.9685 H   0  0  0  0  0  0  0  0  0  0  0  0
   -2.4603   -1.6129    0.9501 H   0  0  0  0  0  0  0  0  0  0  0  0
   -2.2658    0.0571    1.5087 H   0  0  0  0  0  0  0  0  0  0  0  0
   -2.8171   -0.3199   -0.2121 H   0  0  0  0  0  0  0  0  0  0  0  0
   -0.7165   -2.6234    0.5384 H   0  0  0  0  0  0  0  0  0  0  0  0
  1  2  1  0
  2  3  1  0
  3  4  1  0
  4  5  1  0
  3  6  1  0
  6  7  1  0
  6  8  1  0
  1  9  1  0
  1 10  1  0
  1 11  1  0
  2 12  1  0
  2 13  1  0
  3 14  1  0
  4 15  1  0
  4 16  1  0
  5 17  1  0
  6 18  1  0
  7 19  1  0
  7 20  1  0
  7 21  1  0
  8 22  1  0
M  END
