
     RDKit          3D

 23 22  0  0  0  0  0  0  0  0999 V2000
   -2.0181   -0.9041   -0.0160 C   0  0  0  0  0  0  0  0  0  0  0  0
   -1.2396    0.3344   -0.2698 C   0  0  0  0  0  0  0  0  0  0  0  0
    0.2375    0.1958   -0.0455 C   0  0  0  0  0  0  0  0  0  0  0  0
    0.8658   -0.8497   -0.9301 C   0  0  0  0  0  0  0  0  0  0  0  0
    0.3257   -2.1090   -0.7277 O   0  0  0  0  0  0  0  0  0  0  0  0
    0.5085   -0.0411    1.4133 C   0  0  0  0  0  0  0  0  0  0  0  0
    1.8672   -0.1766    1.6734 O   0  0  0  0  0  0  0  0  0  0  0  0
    0.8484    1.5395   -0.4168 C   0  0  0  0  0  0  0  0  0  0  0  0
    0.3012    2.5471    0.4048 O   0  0  0  0  0  0  0  0  0  0  0  0
   -1.5385   -1.6533    0.6070 H   0  0  0  0  0  0  0  0  0  0  0  0
   -2.3600   -1.3058   -1.0059 H   0  0  0  0  0  0  0  0  0  0  0  0
   -2.9737   -0.6137    0.5113 H   0  0  0  0  0  0  0  0  0  0  0  0
   -1.3991    0.7131   -1.3220 H   0  0  0  0  0  0  0  0  0  0  0  0
   -1.5901    1.1709    0.3793 H   0  0  0  0  0  0  0  0  0  0  0  0
    1.9454   -0.9015   -0.6537 H   0  0  0  0  0  0  0  0  0  0  0  0
    0.8240   -0.5345   -1.9760 H   0  0  0  0  0  0  0  0  0  0  0  0
    0.9733   -2.7981   -1.0080 H   0  0  0  0  0  0  0  0  0  0  0  0
    0.1558    0.8632    1.9621 H   0  0  0  0  0  0  0  0  0  0  0  0
   -0.0880   -0.8871    1.8236 H   0  0  0  0  0  0  0  0  0  0  0  0
    2.2560   -1.0107    1.3599 H   0  0  0  0  0  0  0  0  0  0  0  0
    0.5839    1.8086   -1.4527 H   0  0  0  0  0  0  0  0  0  0  0  0
    1.9348    1.5663   -0.2228 H   0  0  0  0  0  0  0  0  0  0  0  0
   -0.4204    3.0463   -0.0874 H   0  0  0  0  0  0  0  0  0  0  0  0
  1  2  1  0
  2  3  1  0
  3  4  1  0
  4  5  1  0
  3  6  1  0
  6  7  1  0
  3  8  1  0
  8  9  1  0
  1 10  1  0
  1 11  1  0
  1 12  1  0
  2 13  1  0
  2 14  1  0
  4 15  1  0
  4 16  1  0
  5 17  1  0
  6 18  1  0
  6 19  1  0
  7 20  1  0
  8 21  1  0
  8 22  1  0
  9 23  1  0
M  END
