
     RDKit          3D

 21 20  0  0  0  0  0  0  0  0999 V2000
    2.4284    0.3726   -0.0035 C   0  0  0  0  0  0  0  0  0  0  0  0
    1.3414   -0.6298   -0.2038 C   0  0  0  0  0  0  0  0  0  0  0  0
   -0.0287   -0.1008    0.1443 C   0  0  0  0  0  0  0  0  0  0  0  0
   -0.3884    0.9937   -0.6118 O   0  0  0  0  0  0  0  0  0  0  0  0
   -0.6914    2.1186    0.1537 C   0  0  0  0  0  0  0  0  0  0  0  0
   -1.0203   -1.2475   -0.0662 C   0  0  0  0  0  0  0  0  0  0  0  0
   -1.0649   -1.6413   -1.3868 O   0  0  0  0  0  0  0  0  0  0  0  0
   -2.3568   -0.8193    0.3872 C   0  0  0  0  0  0  0  0  0  0  0  0
   -3.2934   -0.8462   -0.3661 O   0  0  0  0  0  0  0  0  0  0  0  0
    3.4000   -0.1947    0.0731 H   0  0  0  0  0  0  0  0  0  0  0  0
    2.3204    0.9631    0.9368 H   0  0  0  0  0  0  0  0  0  0  0  0
    2.5709    1.0601   -0.8641 H   0  0  0  0  0  0  0  0  0  0  0  0
    1.5509   -1.5043    0.4460 H   0  0  0  0  0  0  0  0  0  0  0  0
    1.3455   -0.9362   -1.2764 H   0  0  0  0  0  0  0  0  0  0  0  0
   -0.0474    0.1185    1.2287 H   0  0  0  0  0  0  0  0  0  0  0  0
   -1.5346    1.9431    0.8506 H   0  0  0  0  0  0  0  0  0  0  0  0
    0.1678    2.4891    0.7390 H   0  0  0  0  0  0  0  0  0  0  0  0
   -1.0009    2.9145   -0.5509 H   0  0  0  0  0  0  0  0  0  0  0  0
   -0.6834   -2.1198    0.5321 H   0  0  0  0  0  0  0  0  0  0  0  0
   -0.5246   -2.4506   -1.5772 H   0  0  0  0  0  0  0  0  0  0  0  0
   -2.4906   -0.4827    1.3942 H   0  0  0  0  0  0  0  0  0  0  0  0
  1  2  1  0
  2  3  1  0
  3  4  1  0
  4  5  1  0
  3  6  1  0
  6  7  1  0
  6  8  1  0
  8  9  2  0
  1 10  1  0
  1 11  1  0
  1 12  1  0
  2 13  1  0
  2 14  1  0
  3 15  1  0
  5 16  1  0
  5 17  1  0
  5 18  1  0
  6 19  1  0
  7 20  1  0
  8 21  1  0
M  END
