
     RDKit          3D

 19 18  0  0  0  0  0  0  0  0999 V2000
    3.0386    0.0607    0.0098 C   0  0  0  0  0  0  0  0  0  0  0  0
    1.8876   -0.8824   -0.2842 C   0  0  0  0  0  0  0  0  0  0  0  0
    0.6039   -0.3952    0.2966 C   0  0  0  0  0  0  0  0  0  0  0  0
    0.4373   -0.5772    1.5245 O   0  0  0  0  0  0  0  0  0  0  0  0
   -0.4107    0.2554   -0.5098 C   0  0  0  0  0  0  0  0  0  0  0  0
   -0.1824    0.4283   -1.7309 O   0  0  0  0  0  0  0  0  0  0  0  0
   -1.7031    0.7286    0.0312 C   0  0  0  0  0  0  0  0  0  0  0  0
   -2.5538   -0.4769    0.4783 C   0  0  0  0  0  0  0  0  0  0  0  0
   -2.4333    1.4248   -0.9523 O   0  0  0  0  0  0  0  0  0  0  0  0
    3.2278    0.7287   -0.8861 H   0  0  0  0  0  0  0  0  0  0  0  0
    2.7659    0.7723    0.8280 H   0  0  0  0  0  0  0  0  0  0  0  0
    3.9825   -0.4705    0.2114 H   0  0  0  0  0  0  0  0  0  0  0  0
    2.1263   -1.8511    0.2149 H   0  0  0  0  0  0  0  0  0  0  0  0
    1.7834   -1.0381   -1.3669 H   0  0  0  0  0  0  0  0  0  0  0  0
   -1.5536    1.3435    0.9334 H   0  0  0  0  0  0  0  0  0  0  0  0
   -3.4267   -0.0792    1.0151 H   0  0  0  0  0  0  0  0  0  0  0  0
   -1.8797   -1.1158    1.0748 H   0  0  0  0  0  0  0  0  0  0  0  0
   -2.8807   -1.0728   -0.4169 H   0  0  0  0  0  0  0  0  0  0  0  0
   -2.8294    2.2168   -0.4712 H   0  0  0  0  0  0  0  0  0  0  0  0
  1  2  1  0
  2  3  1  0
  3  4  2  0
  3  5  1  0
  5  6  2  0
  5  7  1  0
  7  8  1  0
  7  9  1  0
  1 10  1  0
  1 11  1  0
  1 12  1  0
  2 13  1  0
  2 14  1  0
  7 15  1  0
  8 16  1  0
  8 17  1  0
  8 18  1  0
  9 19  1  0
M  END
