
     RDKit          3D

 23 23  0  0  0  0  0  0  0  0999 V2000
   -2.3719   -1.2932    0.3381 C   0  0  0  0  0  0  0  0  0  0  0  0
   -1.8277    0.0706    0.0676 C   0  0  0  0  0  0  0  0  0  0  0  0
   -0.3490    0.0201   -0.3773 C   0  0  0  0  0  0  0  0  0  0  0  0
    0.0761    1.4397   -0.6160 C   0  0  0  0  0  0  0  0  0  0  0  0
   -0.0129    2.2206    0.5459 O   0  0  0  0  0  0  0  0  0  0  0  0
    0.4526   -0.7379    0.6075 C   0  0  0  0  0  0  0  0  0  0  0  0
    1.8889   -0.9284    0.3788 C   0  0  0  0  0  0  0  0  0  0  0  0
    2.8522    0.1528    0.2841 C   0  0  0  0  0  0  0  0  0  0  0  0
    2.2586   -0.3586   -0.9428 O   0  0  0  0  0  0  0  0  0  0  0  0
   -2.3238   -1.5667    1.4181 H   0  0  0  0  0  0  0  0  0  0  0  0
   -3.4264   -1.4305   -0.0009 H   0  0  0  0  0  0  0  0  0  0  0  0
   -1.7756   -2.0531   -0.2031 H   0  0  0  0  0  0  0  0  0  0  0  0
   -2.3825    0.4853   -0.7995 H   0  0  0  0  0  0  0  0  0  0  0  0
   -1.9747    0.7284    0.9220 H   0  0  0  0  0  0  0  0  0  0  0  0
   -0.3379   -0.5092   -1.3480 H   0  0  0  0  0  0  0  0  0  0  0  0
    1.0670    1.5238   -1.0402 H   0  0  0  0  0  0  0  0  0  0  0  0
   -0.6692    1.8981   -1.3625 H   0  0  0  0  0  0  0  0  0  0  0  0
   -0.1706    3.1556    0.2406 H   0  0  0  0  0  0  0  0  0  0  0  0
    0.3453   -0.1672    1.6014 H   0  0  0  0  0  0  0  0  0  0  0  0
   -0.0149   -1.7237    0.8749 H   0  0  0  0  0  0  0  0  0  0  0  0
    2.2300   -2.0032    0.4532 H   0  0  0  0  0  0  0  0  0  0  0  0
    2.5241    1.1342    0.6447 H   0  0  0  0  0  0  0  0  0  0  0  0
    3.9423   -0.0573    0.2351 H   0  0  0  0  0  0  0  0  0  0  0  0
  1  2  1  0
  2  3  1  0
  3  4  1  0
  4  5  1  0
  3  6  1  0
  6  7  1  0
  7  8  1  0
  8  9  1  0
  9  7  1  0
  1 10  1  0
  1 11  1  0
  1 12  1  0
  2 13  1  0
  2 14  1  0
  3 15  1  0
  4 16  1  0
  4 17  1  0
  5 18  1  0
  6 19  1  0
  6 20  1  0
  7 21  1  0
  8 22  1  0
  8 23  1  0
M  END
