
     RDKit          3D

 21 20  0  0  0  0  0  0  0  0999 V2000
    1.7870   -1.2695   -0.0968 C   0  0  0  0  0  0  0  0  0  0  0  0
    0.3107   -1.2313    0.0996 C   0  0  0  0  0  0  0  0  0  0  0  0
   -0.2098    0.1571    0.4052 C   0  0  0  0  0  0  0  0  0  0  0  0
    0.4021    0.7013    1.6495 C   0  0  0  0  0  0  0  0  0  0  0  0
   -0.2825    1.0864    2.5808 O   0  0  0  0  0  0  0  0  0  0  0  0
    0.2164    1.1030   -0.7174 C   0  0  0  0  0  0  0  0  0  0  0  0
   -0.1492    2.4098   -0.4452 O   0  0  0  0  0  0  0  0  0  0  0  0
   -1.5619    0.1973    0.5602 O   0  0  0  0  0  0  0  0  0  0  0  0
   -2.3172   -0.1991   -0.5031 C   0  0  0  0  0  0  0  0  0  0  0  0
    2.3683   -0.8063    0.7216 H   0  0  0  0  0  0  0  0  0  0  0  0
    2.0980   -2.3378   -0.1269 H   0  0  0  0  0  0  0  0  0  0  0  0
    2.0925   -0.8273   -1.0824 H   0  0  0  0  0  0  0  0  0  0  0  0
   -0.1535   -1.5761   -0.8478 H   0  0  0  0  0  0  0  0  0  0  0  0
    0.0225   -1.9468    0.8753 H   0  0  0  0  0  0  0  0  0  0  0  0
    1.4761    0.7846    1.7958 H   0  0  0  0  0  0  0  0  0  0  0  0
   -0.2267    0.8271   -1.6933 H   0  0  0  0  0  0  0  0  0  0  0  0
    1.3264    1.0587   -0.8596 H   0  0  0  0  0  0  0  0  0  0  0  0
    0.5630    2.9312   -0.0026 H   0  0  0  0  0  0  0  0  0  0  0  0
   -3.4078   -0.1178   -0.2429 H   0  0  0  0  0  0  0  0  0  0  0  0
   -2.1630   -1.3099   -0.6403 H   0  0  0  0  0  0  0  0  0  0  0  0
   -2.1914    0.3654   -1.4296 H   0  0  0  0  0  0  0  0  0  0  0  0
  1  2  1  0
  2  3  1  0
  3  4  1  0
  4  5  2  0
  3  6  1  0
  6  7  1  0
  3  8  1  0
  8  9  1  0
  1 10  1  0
  1 11  1  0
  1 12  1  0
  2 13  1  0
  2 14  1  0
  4 15  1  0
  6 16  1  0
  6 17  1  0
  7 18  1  0
  9 19  1  0
  9 20  1  0
  9 21  1  0
M  END
