
     RDKit          3D

 21 20  0  0  0  0  0  0  0  0999 V2000
   -3.6024    0.7400   -0.7140 C   0  0  0  0  0  0  0  0  0  0  0  0
   -2.5137   -0.1186   -0.1501 C   0  0  0  0  0  0  0  0  0  0  0  0
   -1.1580    0.4732   -0.2569 C   0  0  0  0  0  0  0  0  0  0  0  0
   -0.9610    1.5520   -0.7813 O   0  0  0  0  0  0  0  0  0  0  0  0
   -0.0536   -0.3450    0.3255 C   0  0  0  0  0  0  0  0  0  0  0  0
    1.2642    0.3119    0.1799 C   0  0  0  0  0  0  0  0  0  0  0  0
    1.3196    1.3803   -0.3750 O   0  0  0  0  0  0  0  0  0  0  0  0
    2.4646   -0.3541    0.7091 C   0  0  0  0  0  0  0  0  0  0  0  0
    3.6035   -0.4092   -0.3172 C   0  0  0  0  0  0  0  0  0  0  0  0
   -3.2496    1.4829   -1.4533 H   0  0  0  0  0  0  0  0  0  0  0  0
   -4.3444    0.0713   -1.2081 H   0  0  0  0  0  0  0  0  0  0  0  0
   -4.1554    1.2593    0.1071 H   0  0  0  0  0  0  0  0  0  0  0  0
   -2.4689   -1.0760   -0.7178 H   0  0  0  0  0  0  0  0  0  0  0  0
   -2.7341   -0.3922    0.8893 H   0  0  0  0  0  0  0  0  0  0  0  0
    0.0441   -1.2892   -0.3010 H   0  0  0  0  0  0  0  0  0  0  0  0
   -0.2548   -0.7089    1.3332 H   0  0  0  0  0  0  0  0  0  0  0  0
    2.8839    0.2367    1.5934 H   0  0  0  0  0  0  0  0  0  0  0  0
    2.2912   -1.3717    1.0619 H   0  0  0  0  0  0  0  0  0  0  0  0
    3.5965   -1.4492   -0.7647 H   0  0  0  0  0  0  0  0  0  0  0  0
    3.4711    0.3618   -1.0729 H   0  0  0  0  0  0  0  0  0  0  0  0
    4.5570   -0.3555    0.2420 H   0  0  0  0  0  0  0  0  0  0  0  0
  1  2  1  0
  2  3  1  0
  3  4  2  0
  3  5  1  0
  5  6  1  0
  6  7  2  0
  6  8  1  0
  8  9  1  0
  1 10  1  0
  1 11  1  0
  1 12  1  0
  2 13  1  0
  2 14  1  0
  5 15  1  0
  5 16  1  0
  8 17  1  0
  8 18  1  0
  9 19  1  0
  9 20  1  0
  9 21  1  0
M  END
