
     RDKit          3D

 16 15  0  0  0  0  0  0  0  0999 V2000
   -2.5179   -0.5034   -0.3258 C   0  0  0  0  0  0  0  0  0  0  0  0
   -1.2411    0.2768   -0.2459 C   0  0  0  0  0  0  0  0  0  0  0  0
   -0.1129   -0.6856   -0.0107 C   0  0  0  0  0  0  0  0  0  0  0  0
   -0.0549   -1.5868   -1.0585 O   0  0  0  0  0  0  0  0  0  0  0  0
    1.1158    0.1026    0.1183 C   0  0  0  0  0  0  0  0  0  0  0  0
    2.1448    0.7555    0.2114 C   0  0  0  0  0  0  0  0  0  0  0  0
    3.3420    1.5447    0.3181 C   0  0  0  0  0  0  0  0  0  0  0  0
    4.3579    1.2655   -0.3717 O   0  0  0  0  0  0  0  0  0  0  0  0
   -3.3989    0.1194   -0.6153 H   0  0  0  0  0  0  0  0  0  0  0  0
   -2.3941   -1.3886   -0.9948 H   0  0  0  0  0  0  0  0  0  0  0  0
   -2.7767   -0.9161    0.6832 H   0  0  0  0  0  0  0  0  0  0  0  0
   -1.2976    0.9885    0.6123 H   0  0  0  0  0  0  0  0  0  0  0  0
   -1.0916    0.8783   -1.1560 H   0  0  0  0  0  0  0  0  0  0  0  0
   -0.3400   -1.2225    0.9427 H   0  0  0  0  0  0  0  0  0  0  0  0
    0.8322   -2.0258   -1.0425 H   0  0  0  0  0  0  0  0  0  0  0  0
    3.4330    2.3975    0.9783 H   0  0  0  0  0  0  0  0  0  0  0  0
  1  2  1  0
  2  3  1  0
  3  4  1  0
  3  5  1  0
  5  6  3  0
  6  7  1  0
  7  8  2  0
  1  9  1  0
  1 10  1  0
  1 11  1  0
  2 12  1  0
  2 13  1  0
  3 14  1  0
  4 15  1  0
  7 16  1  0
M  END
