
     RDKit          3D

 27 27  0  0  0  0  0  0  0  0999 V2000
    0.0901    2.6383   -0.5797 C   0  0  0  0  0  0  0  0  0  0  0  0
   -0.8455    1.7426    0.1389 C   0  0  0  0  0  0  0  0  0  0  0  0
   -0.7333    0.2846   -0.1185 C   0  0  0  0  0  0  0  0  0  0  0  0
   -1.8180   -0.3811    0.7400 C   0  0  0  0  0  0  0  0  0  0  0  0
   -1.8575   -1.8598    0.6081 C   0  0  0  0  0  0  0  0  0  0  0  0
    0.5834   -0.2695    0.2982 C   0  0  0  0  0  0  0  0  0  0  0  0
    1.8111    0.3011   -0.3697 C   0  0  0  0  0  0  0  0  0  0  0  0
    2.4088   -1.0893   -0.5217 C   0  0  0  0  0  0  0  0  0  0  0  0
    0.9859   -1.6092   -0.2713 C   0  0  0  0  0  0  0  0  0  0  0  0
    0.1053    2.4836   -1.6812 H   0  0  0  0  0  0  0  0  0  0  0  0
   -0.3416    3.6849   -0.4695 H   0  0  0  0  0  0  0  0  0  0  0  0
    1.0951    2.7241   -0.1626 H   0  0  0  0  0  0  0  0  0  0  0  0
   -0.7535    1.9277    1.2287 H   0  0  0  0  0  0  0  0  0  0  0  0
   -1.8888    2.0596   -0.1382 H   0  0  0  0  0  0  0  0  0  0  0  0
   -0.9656    0.0553   -1.1894 H   0  0  0  0  0  0  0  0  0  0  0  0
   -2.8273    0.0167    0.4431 H   0  0  0  0  0  0  0  0  0  0  0  0
   -1.6820   -0.0946    1.7968 H   0  0  0  0  0  0  0  0  0  0  0  0
   -2.8891   -2.1818    0.9431 H   0  0  0  0  0  0  0  0  0  0  0  0
   -1.6433   -2.2658   -0.3788 H   0  0  0  0  0  0  0  0  0  0  0  0
   -1.1826   -2.3968    1.3341 H   0  0  0  0  0  0  0  0  0  0  0  0
    0.6677   -0.3195    1.4096 H   0  0  0  0  0  0  0  0  0  0  0  0
    1.6869    0.7444   -1.3559 H   0  0  0  0  0  0  0  0  0  0  0  0
    2.4675    0.8517    0.3579 H   0  0  0  0  0  0  0  0  0  0  0  0
    2.8071   -1.3045   -1.5236 H   0  0  0  0  0  0  0  0  0  0  0  0
    3.1231   -1.3942    0.2500 H   0  0  0  0  0  0  0  0  0  0  0  0
    0.5597   -1.8964   -1.2287 H   0  0  0  0  0  0  0  0  0  0  0  0
    1.0365   -2.4521    0.4402 H   0  0  0  0  0  0  0  0  0  0  0  0
  1  2  1  0
  2  3  1  0
  3  4  1  0
  4  5  1  0
  3  6  1  0
  6  7  1  0
  7  8  1  0
  8  9  1  0
  9  6  1  0
  1 10  1  0
  1 11  1  0
  1 12  1  0
  2 13  1  0
  2 14  1  0
  3 15  1  0
  4 16  1  0
  4 17  1  0
  5 18  1  0
  5 19  1  0
  5 20  1  0
  6 21  1  0
  7 22  1  0
  7 23  1  0
  8 24  1  0
  8 25  1  0
  9 26  1  0
  9 27  1  0
M  END
