
     RDKit          3D

 25 25  0  0  0  0  0  0  0  0999 V2000
    3.0379   -0.3999    0.0501 C   0  0  0  0  0  0  0  0  0  0  0  0
    1.8179    0.0819   -0.6868 C   0  0  0  0  0  0  0  0  0  0  0  0
    0.5471   -0.1302    0.1463 C   0  0  0  0  0  0  0  0  0  0  0  0
    0.7080    0.6438    1.4111 C   0  0  0  0  0  0  0  0  0  0  0  0
   -0.6260    0.4054   -0.6176 C   0  0  0  0  0  0  0  0  0  0  0  0
   -1.9958    0.3728   -0.1306 C   0  0  0  0  0  0  0  0  0  0  0  0
   -2.4196   -0.3325    1.1221 C   0  0  0  0  0  0  0  0  0  0  0  0
   -1.5621   -0.5666   -1.2753 C   0  0  0  0  0  0  0  0  0  0  0  0
   -2.0525   -0.3007   -2.5446 O   0  0  0  0  0  0  0  0  0  0  0  0
    3.4758    0.3910    0.6972 H   0  0  0  0  0  0  0  0  0  0  0  0
    2.8298   -1.3409    0.6219 H   0  0  0  0  0  0  0  0  0  0  0  0
    3.8303   -0.6836   -0.6990 H   0  0  0  0  0  0  0  0  0  0  0  0
    1.9620    1.1742   -0.8925 H   0  0  0  0  0  0  0  0  0  0  0  0
    1.6995   -0.3884   -1.6851 H   0  0  0  0  0  0  0  0  0  0  0  0
    0.4715   -1.2197    0.3351 H   0  0  0  0  0  0  0  0  0  0  0  0
    0.5672   -0.0327    2.3053 H   0  0  0  0  0  0  0  0  0  0  0  0
    1.7192    1.0970    1.5282 H   0  0  0  0  0  0  0  0  0  0  0  0
   -0.0385    1.4552    1.5458 H   0  0  0  0  0  0  0  0  0  0  0  0
   -0.3517    1.2656   -1.2913 H   0  0  0  0  0  0  0  0  0  0  0  0
   -2.6996    1.1846   -0.4774 H   0  0  0  0  0  0  0  0  0  0  0  0
   -1.8160   -0.0913    2.0074 H   0  0  0  0  0  0  0  0  0  0  0  0
   -2.4030   -1.4495    0.9988 H   0  0  0  0  0  0  0  0  0  0  0  0
   -3.4712   -0.0832    1.3715 H   0  0  0  0  0  0  0  0  0  0  0  0
   -1.4882   -1.6467   -1.0458 H   0  0  0  0  0  0  0  0  0  0  0  0
   -1.7420    0.5943   -2.7947 H   0  0  0  0  0  0  0  0  0  0  0  0
  1  2  1  0
  2  3  1  0
  3  4  1  0
  3  5  1  0
  5  6  1  0
  6  7  1  0
  6  8  1  0
  8  9  1  0
  8  5  1  0
  1 10  1  0
  1 11  1  0
  1 12  1  0
  2 13  1  0
  2 14  1  0
  3 15  1  0
  4 16  1  0
  4 17  1  0
  4 18  1  0
  5 19  1  0
  6 20  1  0
  7 21  1  0
  7 22  1  0
  7 23  1  0
  8 24  1  0
  9 25  1  0
M  END
