
     RDKit          3D

 25 25  0  0  0  0  0  0  0  0999 V2000
   -3.1635    0.4039   -0.5339 C   0  0  0  0  0  0  0  0  0  0  0  0
   -1.8770   -0.2622   -0.8825 C   0  0  0  0  0  0  0  0  0  0  0  0
   -0.9220   -0.3261    0.2899 C   0  0  0  0  0  0  0  0  0  0  0  0
   -0.6143    1.0502    0.7519 C   0  0  0  0  0  0  0  0  0  0  0  0
    0.2730   -1.1651   -0.0276 C   0  0  0  0  0  0  0  0  0  0  0  0
    1.2840   -1.2797    1.1031 C   0  0  0  0  0  0  0  0  0  0  0  0
    1.6186   -0.6412   -0.2573 C   0  0  0  0  0  0  0  0  0  0  0  0
    1.9748    0.6713   -0.1494 O   0  0  0  0  0  0  0  0  0  0  0  0
    3.1252    0.9297   -0.8894 C   0  0  0  0  0  0  0  0  0  0  0  0
   -3.9911   -0.1288   -1.0223 H   0  0  0  0  0  0  0  0  0  0  0  0
   -3.2327    1.4625   -0.8455 H   0  0  0  0  0  0  0  0  0  0  0  0
   -3.3640    0.3809    0.5559 H   0  0  0  0  0  0  0  0  0  0  0  0
   -1.4290    0.2253   -1.7677 H   0  0  0  0  0  0  0  0  0  0  0  0
   -2.0802   -1.3160   -1.1798 H   0  0  0  0  0  0  0  0  0  0  0  0
   -1.4930   -0.8396    1.1165 H   0  0  0  0  0  0  0  0  0  0  0  0
   -1.5230    1.4368    1.2934 H   0  0  0  0  0  0  0  0  0  0  0  0
   -0.4786    1.7236   -0.1178 H   0  0  0  0  0  0  0  0  0  0  0  0
    0.2058    1.1068    1.4857 H   0  0  0  0  0  0  0  0  0  0  0  0
    0.0296   -2.1501   -0.4735 H   0  0  0  0  0  0  0  0  0  0  0  0
    1.7576   -2.2517    1.3115 H   0  0  0  0  0  0  0  0  0  0  0  0
    1.1535   -0.6382    1.9704 H   0  0  0  0  0  0  0  0  0  0  0  0
    2.2956   -1.2534   -0.9017 H   0  0  0  0  0  0  0  0  0  0  0  0
    2.9655    0.6998   -1.9818 H   0  0  0  0  0  0  0  0  0  0  0  0
    3.5309    1.9384   -0.7298 H   0  0  0  0  0  0  0  0  0  0  0  0
    3.9544    0.2229   -0.5903 H   0  0  0  0  0  0  0  0  0  0  0  0
  1  2  1  0
  2  3  1  0
  3  4  1  0
  3  5  1  0
  5  6  1  0
  6  7  1  0
  7  8  1  0
  8  9  1  0
  7  5  1  0
  1 10  1  0
  1 11  1  0
  1 12  1  0
  2 13  1  0
  2 14  1  0
  3 15  1  0
  4 16  1  0
  4 17  1  0
  4 18  1  0
  5 19  1  0
  6 20  1  0
  6 21  1  0
  7 22  1  0
  9 23  1  0
  9 24  1  0
  9 25  1  0
M  END
