
     RDKit          3D

 18 17  0  0  0  0  0  0  0  0999 V2000
   -1.7862   -0.9542    0.3676 C   0  0  0  0  0  0  0  0  0  0  0  0
   -1.0979    0.3656    0.4417 C   0  0  0  0  0  0  0  0  0  0  0  0
   -0.0848    0.5670   -0.6830 C   0  0  0  0  0  0  0  0  0  0  0  0
    0.5251    1.9072   -0.4962 C   0  0  0  0  0  0  0  0  0  0  0  0
    0.7652    2.6821   -1.4004 O   0  0  0  0  0  0  0  0  0  0  0  0
    0.9256   -0.5139   -0.7166 C   0  0  0  0  0  0  0  0  0  0  0  0
    1.8272   -0.8060    0.4179 C   0  0  0  0  0  0  0  0  0  0  0  0
    1.0388   -1.2092   -1.7143 O   0  0  0  0  0  0  0  0  0  0  0  0
   -2.8087   -0.8223    0.8301 H   0  0  0  0  0  0  0  0  0  0  0  0
   -1.3112   -1.7587    0.9518 H   0  0  0  0  0  0  0  0  0  0  0  0
   -1.9868   -1.2485   -0.6807 H   0  0  0  0  0  0  0  0  0  0  0  0
   -0.5861    0.5149    1.4101 H   0  0  0  0  0  0  0  0  0  0  0  0
   -1.8831    1.1552    0.2551 H   0  0  0  0  0  0  0  0  0  0  0  0
   -0.6513    0.5880   -1.6189 H   0  0  0  0  0  0  0  0  0  0  0  0
    0.7727    2.2154    0.5123 H   0  0  0  0  0  0  0  0  0  0  0  0
    1.9018    0.0409    1.1391 H   0  0  0  0  0  0  0  0  0  0  0  0
    1.5621   -1.7603    0.9321 H   0  0  0  0  0  0  0  0  0  0  0  0
    2.8774   -0.9631    0.0523 H   0  0  0  0  0  0  0  0  0  0  0  0
  1  2  1  0
  2  3  1  0
  3  4  1  0
  4  5  2  0
  3  6  1  0
  6  7  1  0
  6  8  2  0
  1  9  1  0
  1 10  1  0
  1 11  1  0
  2 12  1  0
  2 13  1  0
  3 14  1  0
  4 15  1  0
  7 16  1  0
  7 17  1  0
  7 18  1  0
M  END
