
     RDKit          3D

 20 20  0  0  0  0  0  0  0  0999 V2000
   -1.8824    0.8154    0.5700 C   0  0  0  0  0  0  0  0  0  0  0  0
   -1.7162   -0.1189   -0.5853 C   0  0  0  0  0  0  0  0  0  0  0  0
   -0.6950   -1.1862   -0.3492 C   0  0  0  0  0  0  0  0  0  0  0  0
   -1.0483   -1.9489    0.7370 O   0  0  0  0  0  0  0  0  0  0  0  0
    0.7089   -0.6960   -0.2510 C   0  0  0  0  0  0  0  0  0  0  0  0
    1.0352    0.1196   -1.4509 O   0  0  0  0  0  0  0  0  0  0  0  0
    1.1507    0.6374   -0.0634 C   0  0  0  0  0  0  0  0  0  0  0  0
    2.6179    0.8616    0.2728 C   0  0  0  0  0  0  0  0  0  0  0  0
   -1.8224    1.8484    0.1908 H   0  0  0  0  0  0  0  0  0  0  0  0
   -1.1607    0.6168    1.4077 H   0  0  0  0  0  0  0  0  0  0  0  0
   -2.8927    0.7130    1.0589 H   0  0  0  0  0  0  0  0  0  0  0  0
   -2.6907   -0.6177   -0.7678 H   0  0  0  0  0  0  0  0  0  0  0  0
   -1.4720    0.4284   -1.5426 H   0  0  0  0  0  0  0  0  0  0  0  0
   -0.7331   -1.8745   -1.2421 H   0  0  0  0  0  0  0  0  0  0  0  0
   -0.2771   -2.3587    1.1777 H   0  0  0  0  0  0  0  0  0  0  0  0
    1.4644   -1.5176   -0.2289 H   0  0  0  0  0  0  0  0  0  0  0  0
    0.5475    1.5374   -0.0010 H   0  0  0  0  0  0  0  0  0  0  0  0
    2.6833    1.2129    1.3070 H   0  0  0  0  0  0  0  0  0  0  0  0
    2.9900    1.6159   -0.4330 H   0  0  0  0  0  0  0  0  0  0  0  0
    3.1926   -0.0885    0.1934 H   0  0  0  0  0  0  0  0  0  0  0  0
  1  2  1  0
  2  3  1  0
  3  4  1  0
  3  5  1  0
  5  6  1  0
  6  7  1  0
  7  8  1  0
  7  5  1  0
  1  9  1  0
  1 10  1  0
  1 11  1  0
  2 12  1  0
  2 13  1  0
  3 14  1  0
  4 15  1  0
  5 16  1  0
  7 17  1  0
  8 18  1  0
  8 19  1  0
  8 20  1  0
M  END
