
     RDKit          3D

 18 17  0  0  0  0  0  0  0  0999 V2000
    2.5406   -0.3808    0.0881 C   0  0  0  0  0  0  0  0  0  0  0  0
    1.1026    0.0062    0.3101 C   0  0  0  0  0  0  0  0  0  0  0  0
    0.2550   -0.2906   -0.8843 C   0  0  0  0  0  0  0  0  0  0  0  0
    0.7153   -0.7907   -1.9049 O   0  0  0  0  0  0  0  0  0  0  0  0
   -1.1947    0.0562   -0.7698 C   0  0  0  0  0  0  0  0  0  0  0  0
   -1.8011   -0.7341    0.3985 C   0  0  0  0  0  0  0  0  0  0  0  0
   -1.3779    1.4960   -0.3870 C   0  0  0  0  0  0  0  0  0  0  0  0
   -2.4969    1.8221   -0.0234 O   0  0  0  0  0  0  0  0  0  0  0  0
    2.8880    0.1571   -0.8226 H   0  0  0  0  0  0  0  0  0  0  0  0
    3.1168    0.0220    0.9547 H   0  0  0  0  0  0  0  0  0  0  0  0
    2.6667   -1.4785   -0.0219 H   0  0  0  0  0  0  0  0  0  0  0  0
    1.0890    1.1216    0.4342 H   0  0  0  0  0  0  0  0  0  0  0  0
    0.6432   -0.4535    1.1876 H   0  0  0  0  0  0  0  0  0  0  0  0
   -1.7496   -0.0948   -1.7005 H   0  0  0  0  0  0  0  0  0  0  0  0
   -1.4001   -0.2984    1.3391 H   0  0  0  0  0  0  0  0  0  0  0  0
   -1.5132   -1.8095    0.3415 H   0  0  0  0  0  0  0  0  0  0  0  0
   -2.8825   -0.5748    0.3721 H   0  0  0  0  0  0  0  0  0  0  0  0
   -0.6011    2.2245   -0.4168 H   0  0  0  0  0  0  0  0  0  0  0  0
  1  2  1  0
  2  3  1  0
  3  4  2  0
  3  5  1  0
  5  6  1  0
  5  7  1  0
  7  8  2  0
  1  9  1  0
  1 10  1  0
  1 11  1  0
  2 12  1  0
  2 13  1  0
  5 14  1  0
  6 15  1  0
  6 16  1  0
  6 17  1  0
  7 18  1  0
M  END
