
     RDKit          3D

 19 18  0  0  0  0  0  0  0  0999 V2000
   -1.8689    0.7603    0.0215 C   0  0  0  0  0  0  0  0  0  0  0  0
   -1.2684   -0.6081    0.2636 C   0  0  0  0  0  0  0  0  0  0  0  0
   -0.1404   -0.8045   -0.7135 C   0  0  0  0  0  0  0  0  0  0  0  0
    0.4762   -2.0379   -0.5678 O   0  0  0  0  0  0  0  0  0  0  0  0
    0.8592    0.3059   -0.5561 C   0  0  0  0  0  0  0  0  0  0  0  0
    1.4581    0.3769    0.8086 C   0  0  0  0  0  0  0  0  0  0  0  0
    2.3686    1.4588    0.7982 O   0  0  0  0  0  0  0  0  0  0  0  0
   -1.4933    1.5113    0.7477 H   0  0  0  0  0  0  0  0  0  0  0  0
   -1.6180    1.0930   -1.0125 H   0  0  0  0  0  0  0  0  0  0  0  0
   -2.9837    0.6821    0.0735 H   0  0  0  0  0  0  0  0  0  0  0  0
   -0.8840   -0.6246    1.3043 H   0  0  0  0  0  0  0  0  0  0  0  0
   -2.0599   -1.3785    0.1589 H   0  0  0  0  0  0  0  0  0  0  0  0
   -0.5884   -0.7907   -1.7283 H   0  0  0  0  0  0  0  0  0  0  0  0
   -0.1109   -2.7167   -0.1579 H   0  0  0  0  0  0  0  0  0  0  0  0
    1.7002    0.1403   -1.2769 H   0  0  0  0  0  0  0  0  0  0  0  0
    0.4018    1.2834   -0.7973 H   0  0  0  0  0  0  0  0  0  0  0  0
    0.7252    0.5864    1.6080 H   0  0  0  0  0  0  0  0  0  0  0  0
    2.0229   -0.5496    1.0561 H   0  0  0  0  0  0  0  0  0  0  0  0
    3.0036    1.3121    0.0672 H   0  0  0  0  0  0  0  0  0  0  0  0
  1  2  1  0
  2  3  1  0
  3  4  1  0
  3  5  1  0
  5  6  1  0
  6  7  1  0
  1  8  1  0
  1  9  1  0
  1 10  1  0
  2 11  1  0
  2 12  1  0
  3 13  1  0
  4 14  1  0
  5 15  1  0
  5 16  1  0
  6 17  1  0
  6 18  1  0
  7 19  1  0
M  END
