
     RDKit          3D

 23 22  0  0  0  0  0  0  0  0999 V2000
   -1.9927   -1.0578    0.1497 C   0  0  0  0  0  0  0  0  0  0  0  0
   -1.4780   -0.1491   -0.9320 C   0  0  0  0  0  0  0  0  0  0  0  0
   -0.0391    0.2963   -0.6832 C   0  0  0  0  0  0  0  0  0  0  0  0
   -0.0055    1.0184    0.6112 C   0  0  0  0  0  0  0  0  0  0  0  0
   -0.8949    2.2083    0.5709 C   0  0  0  0  0  0  0  0  0  0  0  0
   -1.0182    2.8713    1.5959 O   0  0  0  0  0  0  0  0  0  0  0  0
    0.8720   -0.8478   -0.8636 C   0  0  0  0  0  0  0  0  0  0  0  0
    2.3243   -0.6144   -0.6679 C   0  0  0  0  0  0  0  0  0  0  0  0
    2.6358   -0.1826    0.6142 O   0  0  0  0  0  0  0  0  0  0  0  0
   -2.9728   -1.4783   -0.2190 H   0  0  0  0  0  0  0  0  0  0  0  0
   -1.3631   -1.9312    0.3600 H   0  0  0  0  0  0  0  0  0  0  0  0
   -2.1925   -0.4507    1.0746 H   0  0  0  0  0  0  0  0  0  0  0  0
   -2.1092    0.7587   -0.9345 H   0  0  0  0  0  0  0  0  0  0  0  0
   -1.5562   -0.6531   -1.9280 H   0  0  0  0  0  0  0  0  0  0  0  0
    0.1583    1.0189   -1.5296 H   0  0  0  0  0  0  0  0  0  0  0  0
    0.9924    1.3702    0.9410 H   0  0  0  0  0  0  0  0  0  0  0  0
   -0.3436    0.3249    1.4313 H   0  0  0  0  0  0  0  0  0  0  0  0
   -1.4427    2.5345   -0.2980 H   0  0  0  0  0  0  0  0  0  0  0  0
    0.6996   -1.2436   -1.9084 H   0  0  0  0  0  0  0  0  0  0  0  0
    0.5695   -1.7124   -0.2041 H   0  0  0  0  0  0  0  0  0  0  0  0
    2.7807    0.0467   -1.4345 H   0  0  0  0  0  0  0  0  0  0  0  0
    2.8709   -1.5956   -0.7895 H   0  0  0  0  0  0  0  0  0  0  0  0
    3.5050   -0.5314    0.9360 H   0  0  0  0  0  0  0  0  0  0  0  0
  1  2  1  0
  2  3  1  0
  3  4  1  0
  4  5  1  0
  5  6  2  0
  3  7  1  0
  7  8  1  0
  8  9  1  0
  1 10  1  0
  1 11  1  0
  1 12  1  0
  2 13  1  0
  2 14  1  0
  3 15  1  0
  4 16  1  0
  4 17  1  0
  5 18  1  0
  7 19  1  0
  7 20  1  0
  8 21  1  0
  8 22  1  0
  9 23  1  0
M  END
