
     RDKit          3D

 23 22  0  0  0  0  0  0  0  0999 V2000
   -3.7194    0.3590   -0.0913 C   0  0  0  0  0  0  0  0  0  0  0  0
   -2.6010   -0.6591   -0.1140 C   0  0  0  0  0  0  0  0  0  0  0  0
   -1.2748   -0.0280   -0.3613 C   0  0  0  0  0  0  0  0  0  0  0  0
   -0.9274    0.2376   -1.5195 O   0  0  0  0  0  0  0  0  0  0  0  0
   -0.4674    0.2437    0.7318 O   0  0  0  0  0  0  0  0  0  0  0  0
    0.7880    0.8366    0.5308 C   0  0  0  0  0  0  0  0  0  0  0  0
    1.7053   -0.0085   -0.3393 C   0  0  0  0  0  0  0  0  0  0  0  0
    1.8577   -1.3337    0.4158 C   0  0  0  0  0  0  0  0  0  0  0  0
    3.0609    0.7201   -0.2795 C   0  0  0  0  0  0  0  0  0  0  0  0
   -3.8307    0.8062    0.9155 H   0  0  0  0  0  0  0  0  0  0  0  0
   -4.6690   -0.1561   -0.3252 H   0  0  0  0  0  0  0  0  0  0  0  0
   -3.5688    1.1446   -0.8518 H   0  0  0  0  0  0  0  0  0  0  0  0
   -2.5654   -1.2084    0.8484 H   0  0  0  0  0  0  0  0  0  0  0  0
   -2.7728   -1.4080   -0.9157 H   0  0  0  0  0  0  0  0  0  0  0  0
    0.6877    1.8751    0.1176 H   0  0  0  0  0  0  0  0  0  0  0  0
    1.3247    0.8872    1.5160 H   0  0  0  0  0  0  0  0  0  0  0  0
    1.3668   -0.1348   -1.3633 H   0  0  0  0  0  0  0  0  0  0  0  0
    2.2632   -2.0857   -0.2690 H   0  0  0  0  0  0  0  0  0  0  0  0
    0.8115   -1.6069    0.7262 H   0  0  0  0  0  0  0  0  0  0  0  0
    2.5054   -1.1127    1.2872 H   0  0  0  0  0  0  0  0  0  0  0  0
    3.3237    0.7448    0.7931 H   0  0  0  0  0  0  0  0  0  0  0  0
    2.9255    1.7482   -0.6751 H   0  0  0  0  0  0  0  0  0  0  0  0
    3.7765    0.1384   -0.8890 H   0  0  0  0  0  0  0  0  0  0  0  0
  1  2  1  0
  2  3  1  0
  3  4  2  0
  3  5  1  0
  5  6  1  0
  6  7  1  0
  7  8  1  0
  7  9  1  0
  1 10  1  0
  1 11  1  0
  1 12  1  0
  2 13  1  0
  2 14  1  0
  6 15  1  0
  6 16  1  0
  7 17  1  0
  8 18  1  0
  8 19  1  0
  8 20  1  0
  9 21  1  0
  9 22  1  0
  9 23  1  0
M  END
