
     RDKit          3D

 25 25  0  0  0  0  0  0  0  0999 V2000
    3.2279    0.4199    0.7608 C   0  0  0  0  0  0  0  0  0  0  0  0
    1.7504    0.1790    0.8077 C   0  0  0  0  0  0  0  0  0  0  0  0
    1.2365   -0.1542   -0.5737 C   0  0  0  0  0  0  0  0  0  0  0  0
    1.4849    0.8814   -1.4486 O   0  0  0  0  0  0  0  0  0  0  0  0
   -0.2050   -0.5610   -0.5699 C   0  0  0  0  0  0  0  0  0  0  0  0
   -0.5497   -1.7497    0.2365 C   0  0  0  0  0  0  0  0  0  0  0  0
   -1.0343   -0.3373    0.6135 C   0  0  0  0  0  0  0  0  0  0  0  0
   -2.5330   -0.1550    0.5169 C   0  0  0  0  0  0  0  0  0  0  0  0
   -2.9105    1.0274   -0.3266 C   0  0  0  0  0  0  0  0  0  0  0  0
    3.8290   -0.4863    1.0408 H   0  0  0  0  0  0  0  0  0  0  0  0
    3.5567    1.2226    1.4307 H   0  0  0  0  0  0  0  0  0  0  0  0
    3.5836    0.6824   -0.2735 H   0  0  0  0  0  0  0  0  0  0  0  0
    1.5676   -0.7006    1.4595 H   0  0  0  0  0  0  0  0  0  0  0  0
    1.2482    1.0918    1.2145 H   0  0  0  0  0  0  0  0  0  0  0  0
    1.8294   -1.0462   -0.9186 H   0  0  0  0  0  0  0  0  0  0  0  0
    1.3167    1.7285   -0.9459 H   0  0  0  0  0  0  0  0  0  0  0  0
   -0.6726   -0.5227   -1.5935 H   0  0  0  0  0  0  0  0  0  0  0  0
    0.1763   -2.1902    0.9621 H   0  0  0  0  0  0  0  0  0  0  0  0
   -1.2848   -2.4570   -0.1496 H   0  0  0  0  0  0  0  0  0  0  0  0
   -0.5460    0.1446    1.4863 H   0  0  0  0  0  0  0  0  0  0  0  0
   -2.9785   -0.0262    1.5203 H   0  0  0  0  0  0  0  0  0  0  0  0
   -3.0141   -1.0557    0.0669 H   0  0  0  0  0  0  0  0  0  0  0  0
   -3.3568    0.7093   -1.2927 H   0  0  0  0  0  0  0  0  0  0  0  0
   -2.0415    1.7106   -0.5262 H   0  0  0  0  0  0  0  0  0  0  0  0
   -3.6805    1.6447    0.1800 H   0  0  0  0  0  0  0  0  0  0  0  0
  1  2  1  0
  2  3  1  0
  3  4  1  0
  3  5  1  0
  5  6  1  0
  6  7  1  0
  7  8  1  0
  8  9  1  0
  7  5  1  0
  1 10  1  0
  1 11  1  0
  1 12  1  0
  2 13  1  0
  2 14  1  0
  3 15  1  0
  4 16  1  0
  5 17  1  0
  6 18  1  0
  6 19  1  0
  7 20  1  0
  8 21  1  0
  8 22  1  0
  9 23  1  0
  9 24  1  0
  9 25  1  0
M  END
