
     RDKit          3D

 18 17  0  0  0  0  0  0  0  0999 V2000
   -2.8857    0.2808    0.0345 C   0  0  0  0  0  0  0  0  0  0  0  0
   -1.5983   -0.4811    0.2058 C   0  0  0  0  0  0  0  0  0  0  0  0
   -0.5230    0.2008   -0.5198 C   0  0  0  0  0  0  0  0  0  0  0  0
   -0.7674    1.2403   -1.1250 O   0  0  0  0  0  0  0  0  0  0  0  0
    0.8863   -0.3062   -0.5743 C   0  0  0  0  0  0  0  0  0  0  0  0
    1.7521    0.4136    0.4625 C   0  0  0  0  0  0  0  0  0  0  0  0
    3.1192   -0.1341    0.3372 C   0  0  0  0  0  0  0  0  0  0  0  0
    3.7029   -0.0836   -0.7171 O   0  0  0  0  0  0  0  0  0  0  0  0
   -3.2778    0.0093   -0.9851 H   0  0  0  0  0  0  0  0  0  0  0  0
   -3.6004    0.0195    0.8338 H   0  0  0  0  0  0  0  0  0  0  0  0
   -2.6384    1.3409   -0.0187 H   0  0  0  0  0  0  0  0  0  0  0  0
   -1.7332   -1.5104   -0.1915 H   0  0  0  0  0  0  0  0  0  0  0  0
   -1.3647   -0.6045    1.2937 H   0  0  0  0  0  0  0  0  0  0  0  0
    0.8793   -1.4009   -0.3692 H   0  0  0  0  0  0  0  0  0  0  0  0
    1.3272   -0.1854   -1.5762 H   0  0  0  0  0  0  0  0  0  0  0  0
    1.8045    1.4864    0.2360 H   0  0  0  0  0  0  0  0  0  0  0  0
    1.3378    0.2897    1.4747 H   0  0  0  0  0  0  0  0  0  0  0  0
    3.5797   -0.5752    1.1986 H   0  0  0  0  0  0  0  0  0  0  0  0
  1  2  1  0
  2  3  1  0
  3  4  2  0
  3  5  1  0
  5  6  1  0
  6  7  1  0
  7  8  2  0
  1  9  1  0
  1 10  1  0
  1 11  1  0
  2 12  1  0
  2 13  1  0
  5 14  1  0
  5 15  1  0
  6 16  1  0
  6 17  1  0
  7 18  1  0
M  END
