
     RDKit          3D

 21 21  0  0  0  0  0  0  0  0999 V2000
    2.3406   -0.2750    0.4023 C   0  0  0  0  0  0  0  0  0  0  0  0
    1.0153   -0.9431    0.1722 C   0  0  0  0  0  0  0  0  0  0  0  0
   -0.0460   -0.0058   -0.3365 C   0  0  0  0  0  0  0  0  0  0  0  0
    0.3811    0.5258   -1.5404 O   0  0  0  0  0  0  0  0  0  0  0  0
   -0.4222    1.0523    0.6622 C   0  0  0  0  0  0  0  0  0  0  0  0
    0.6294    1.9048    0.9752 O   0  0  0  0  0  0  0  0  0  0  0  0
   -1.2848   -0.8323   -0.6132 C   0  0  0  0  0  0  0  0  0  0  0  0
   -2.5643   -0.5369   -0.0243 C   0  0  0  0  0  0  0  0  0  0  0  0
   -1.7709   -1.4208    0.6686 O   0  0  0  0  0  0  0  0  0  0  0  0
    2.3392    0.0836    1.4675 H   0  0  0  0  0  0  0  0  0  0  0  0
    3.1195   -1.0713    0.3414 H   0  0  0  0  0  0  0  0  0  0  0  0
    2.5864    0.5078   -0.3177 H   0  0  0  0  0  0  0  0  0  0  0  0
    0.6766   -1.4194    1.0911 H   0  0  0  0  0  0  0  0  0  0  0  0
    1.1713   -1.7118   -0.6221 H   0  0  0  0  0  0  0  0  0  0  0  0
    1.0502    1.2453   -1.4437 H   0  0  0  0  0  0  0  0  0  0  0  0
   -0.8573    0.5847    1.5495 H   0  0  0  0  0  0  0  0  0  0  0  0
   -1.2030    1.6864    0.1790 H   0  0  0  0  0  0  0  0  0  0  0  0
    0.2331    2.7313    1.3452 H   0  0  0  0  0  0  0  0  0  0  0  0
   -1.1581   -1.5701   -1.4018 H   0  0  0  0  0  0  0  0  0  0  0  0
   -3.4734   -0.9479   -0.5148 H   0  0  0  0  0  0  0  0  0  0  0  0
   -2.7626    0.4124    0.5025 H   0  0  0  0  0  0  0  0  0  0  0  0
  1  2  1  0
  2  3  1  0
  3  4  1  0
  3  5  1  0
  5  6  1  0
  3  7  1  0
  7  8  1  0
  8  9  1  0
  9  7  1  0
  1 10  1  0
  1 11  1  0
  1 12  1  0
  2 13  1  0
  2 14  1  0
  4 15  1  0
  5 16  1  0
  5 17  1  0
  6 18  1  0
  7 19  1  0
  8 20  1  0
  8 21  1  0
M  END
