
     RDKit          3D

 24 23  0  0  0  0  0  0  0  0999 V2000
   -2.9090    0.3416    0.9595 C   0  0  0  0  0  0  0  0  0  0  0  0
   -1.5042   -0.1865    1.1709 C   0  0  0  0  0  0  0  0  0  0  0  0
   -0.7103   -0.1073   -0.1148 C   0  0  0  0  0  0  0  0  0  0  0  0
   -1.3705   -0.9300   -1.2034 C   0  0  0  0  0  0  0  0  0  0  0  0
    0.5759   -0.5446    0.0115 O   0  0  0  0  0  0  0  0  0  0  0  0
    1.5526    0.3683   -0.2614 C   0  0  0  0  0  0  0  0  0  0  0  0
    2.4825   -0.0733   -1.3903 C   0  0  0  0  0  0  0  0  0  0  0  0
    2.4026    0.4899    1.0123 C   0  0  0  0  0  0  0  0  0  0  0  0
   -3.6318   -0.5031    0.8448 H   0  0  0  0  0  0  0  0  0  0  0  0
   -3.2071    0.8659    1.9000 H   0  0  0  0  0  0  0  0  0  0  0  0
   -2.9565    1.0201    0.0785 H   0  0  0  0  0  0  0  0  0  0  0  0
   -1.6084   -1.2174    1.5357 H   0  0  0  0  0  0  0  0  0  0  0  0
   -0.9957    0.4300    1.9400 H   0  0  0  0  0  0  0  0  0  0  0  0
   -0.7419    0.9707   -0.4340 H   0  0  0  0  0  0  0  0  0  0  0  0
   -0.5875   -1.0847   -1.9870 H   0  0  0  0  0  0  0  0  0  0  0  0
   -1.6544   -1.9348   -0.8479 H   0  0  0  0  0  0  0  0  0  0  0  0
   -2.2187   -0.3834   -1.6614 H   0  0  0  0  0  0  0  0  0  0  0  0
    1.1859    1.3712   -0.5576 H   0  0  0  0  0  0  0  0  0  0  0  0
    2.6031   -1.1700   -1.4153 H   0  0  0  0  0  0  0  0  0  0  0  0
    2.1651    0.3500   -2.3628 H   0  0  0  0  0  0  0  0  0  0  0  0
    3.4713    0.3763   -1.1559 H   0  0  0  0  0  0  0  0  0  0  0  0
    3.0753   -0.3791    1.0253 H   0  0  0  0  0  0  0  0  0  0  0  0
    1.6652    0.4767    1.8552 H   0  0  0  0  0  0  0  0  0  0  0  0
    2.9168    1.4534    1.0582 H   0  0  0  0  0  0  0  0  0  0  0  0
  1  2  1  0
  2  3  1  0
  3  4  1  0
  3  5  1  0
  5  6  1  0
  6  7  1  0
  6  8  1  0
  1  9  1  0
  1 10  1  0
  1 11  1  0
  2 12  1  0
  2 13  1  0
  3 14  1  0
  4 15  1  0
  4 16  1  0
  4 17  1  0
  6 18  1  0
  7 19  1  0
  7 20  1  0
  7 21  1  0
  8 22  1  0
  8 23  1  0
  8 24  1  0
M  END
