
     RDKit          3D

 27 27  0  0  0  0  0  0  0  0999 V2000
   -2.5840    0.8695   -0.3755 C   0  0  0  0  0  0  0  0  0  0  0  0
   -1.0990    0.9646   -0.1018 C   0  0  0  0  0  0  0  0  0  0  0  0
   -0.4136   -0.3602   -0.1584 C   0  0  0  0  0  0  0  0  0  0  0  0
   -1.0677   -1.2459    0.9117 C   0  0  0  0  0  0  0  0  0  0  0  0
   -0.6367   -1.0911   -1.4683 C   0  0  0  0  0  0  0  0  0  0  0  0
    1.0346   -0.3605    0.0636 C   0  0  0  0  0  0  0  0  0  0  0  0
    1.6032    0.1441    1.3477 C   0  0  0  0  0  0  0  0  0  0  0  0
    2.8357    0.5231    0.5093 C   0  0  0  0  0  0  0  0  0  0  0  0
    1.8131    0.7847   -0.6014 C   0  0  0  0  0  0  0  0  0  0  0  0
   -3.0137    1.8235   -0.7146 H   0  0  0  0  0  0  0  0  0  0  0  0
   -2.8318    0.1153   -1.1461 H   0  0  0  0  0  0  0  0  0  0  0  0
   -3.1511    0.5384    0.5440 H   0  0  0  0  0  0  0  0  0  0  0  0
   -0.9973    1.4046    0.9128 H   0  0  0  0  0  0  0  0  0  0  0  0
   -0.6922    1.7140   -0.7998 H   0  0  0  0  0  0  0  0  0  0  0  0
   -1.9574   -1.7621    0.5248 H   0  0  0  0  0  0  0  0  0  0  0  0
   -0.3432   -1.9611    1.3093 H   0  0  0  0  0  0  0  0  0  0  0  0
   -1.3827   -0.6004    1.7672 H   0  0  0  0  0  0  0  0  0  0  0  0
    0.0359   -1.9964   -1.4115 H   0  0  0  0  0  0  0  0  0  0  0  0
   -1.6563   -1.4975   -1.5662 H   0  0  0  0  0  0  0  0  0  0  0  0
   -0.2876   -0.5215   -2.3437 H   0  0  0  0  0  0  0  0  0  0  0  0
    1.5304   -1.3113   -0.2228 H   0  0  0  0  0  0  0  0  0  0  0  0
    1.8142   -0.6053    2.1238 H   0  0  0  0  0  0  0  0  0  0  0  0
    1.2067    1.0793    1.7528 H   0  0  0  0  0  0  0  0  0  0  0  0
    3.4115   -0.3782    0.2886 H   0  0  0  0  0  0  0  0  0  0  0  0
    3.3659    1.4113    0.8556 H   0  0  0  0  0  0  0  0  0  0  0  0
    1.3081    1.7347   -0.3930 H   0  0  0  0  0  0  0  0  0  0  0  0
    2.1552    0.5846   -1.6079 H   0  0  0  0  0  0  0  0  0  0  0  0
  1  2  1  0
  2  3  1  0
  3  4  1  0
  3  5  1  0
  3  6  1  0
  6  7  1  0
  7  8  1  0
  8  9  1  0
  9  6  1  0
  1 10  1  0
  1 11  1  0
  1 12  1  0
  2 13  1  0
  2 14  1  0
  4 15  1  0
  4 16  1  0
  4 17  1  0
  5 18  1  0
  5 19  1  0
  5 20  1  0
  6 21  1  0
  7 22  1  0
  7 23  1  0
  8 24  1  0
  8 25  1  0
  9 26  1  0
  9 27  1  0
M  END
