
     RDKit          3D

 19 18  0  0  0  0  0  0  0  0999 V2000
   -1.5265   -1.0302    1.0921 C   0  0  0  0  0  0  0  0  0  0  0  0
   -1.8494    0.2636    0.3542 C   0  0  0  0  0  0  0  0  0  0  0  0
   -1.0112    0.4027   -0.8970 C   0  0  0  0  0  0  0  0  0  0  0  0
    0.3906    0.4066   -0.4747 C   0  0  0  0  0  0  0  0  0  0  0  0
    1.5603    0.4103   -0.1109 C   0  0  0  0  0  0  0  0  0  0  0  0
    2.9512    0.4011    0.3362 C   0  0  0  0  0  0  0  0  0  0  0  0
    3.1477    1.3991    1.2591 O   0  0  0  0  0  0  0  0  0  0  0  0
   -1.2258   -0.6805   -1.8585 C   0  0  0  0  0  0  0  0  0  0  0  0
   -2.3035   -1.2429   -1.9588 O   0  0  0  0  0  0  0  0  0  0  0  0
   -2.2308   -1.1776    1.9230 H   0  0  0  0  0  0  0  0  0  0  0  0
   -1.6449   -1.8759    0.3793 H   0  0  0  0  0  0  0  0  0  0  0  0
   -0.4989   -1.0491    1.4613 H   0  0  0  0  0  0  0  0  0  0  0  0
   -2.9386    0.2412    0.1432 H   0  0  0  0  0  0  0  0  0  0  0  0
   -1.6752    1.1320    1.0214 H   0  0  0  0  0  0  0  0  0  0  0  0
   -1.2735    1.3724   -1.3557 H   0  0  0  0  0  0  0  0  0  0  0  0
    3.6606    0.5421   -0.5114 H   0  0  0  0  0  0  0  0  0  0  0  0
    3.1512   -0.5789    0.8099 H   0  0  0  0  0  0  0  0  0  0  0  0
    3.7485    2.0860    0.9043 H   0  0  0  0  0  0  0  0  0  0  0  0
   -0.4318   -1.0219   -2.5173 H   0  0  0  0  0  0  0  0  0  0  0  0
  1  2  1  0
  2  3  1  0
  3  4  1  0
  4  5  3  0
  5  6  1  0
  6  7  1  0
  3  8  1  0
  8  9  2  0
  1 10  1  0
  1 11  1  0
  1 12  1  0
  2 13  1  0
  2 14  1  0
  3 15  1  0
  6 16  1  0
  6 17  1  0
  7 18  1  0
  8 19  1  0
M  END
