
     RDKit          3D

 21 20  0  0  0  0  0  0  0  0999 V2000
   -2.3685   -0.1466   -0.3428 C   0  0  0  0  0  0  0  0  0  0  0  0
   -1.1911   -0.8733    0.1952 C   0  0  0  0  0  0  0  0  0  0  0  0
    0.1512   -0.2694   -0.1201 C   0  0  0  0  0  0  0  0  0  0  0  0
    0.3898    1.1018    0.3884 C   0  0  0  0  0  0  0  0  0  0  0  0
   -0.5025    2.1636   -0.0626 C   0  0  0  0  0  0  0  0  0  0  0  0
   -1.4476    2.5105    0.6190 O   0  0  0  0  0  0  0  0  0  0  0  0
    1.2272   -1.1544    0.4397 C   0  0  0  0  0  0  0  0  0  0  0  0
    2.6488   -0.7909    0.2630 C   0  0  0  0  0  0  0  0  0  0  0  0
    0.9659   -2.1709    1.0401 O   0  0  0  0  0  0  0  0  0  0  0  0
   -2.9837    0.2760    0.4890 H   0  0  0  0  0  0  0  0  0  0  0  0
   -2.1683    0.5769   -1.1441 H   0  0  0  0  0  0  0  0  0  0  0  0
   -3.0716   -0.9018   -0.8274 H   0  0  0  0  0  0  0  0  0  0  0  0
   -1.1476   -1.9313   -0.2010 H   0  0  0  0  0  0  0  0  0  0  0  0
   -1.3080   -1.0364    1.3096 H   0  0  0  0  0  0  0  0  0  0  0  0
    0.2274   -0.3083   -1.2555 H   0  0  0  0  0  0  0  0  0  0  0  0
    1.4535    1.3683    0.1374 H   0  0  0  0  0  0  0  0  0  0  0  0
    0.4057    1.0214    1.5229 H   0  0  0  0  0  0  0  0  0  0  0  0
   -0.3725    2.6845   -1.0023 H   0  0  0  0  0  0  0  0  0  0  0  0
    3.2766   -1.7018    0.3117 H   0  0  0  0  0  0  0  0  0  0  0  0
    2.9517   -0.1205    1.1176 H   0  0  0  0  0  0  0  0  0  0  0  0
    2.8636   -0.2975   -0.7090 H   0  0  0  0  0  0  0  0  0  0  0  0
  1  2  1  0
  2  3  1  0
  3  4  1  0
  4  5  1  0
  5  6  2  0
  3  7  1  0
  7  8  1  0
  7  9  2  0
  1 10  1  0
  1 11  1  0
  1 12  1  0
  2 13  1  0
  2 14  1  0
  3 15  1  0
  4 16  1  0
  4 17  1  0
  5 18  1  0
  8 19  1  0
  8 20  1  0
  8 21  1  0
M  END
