
     RDKit          3D

 20 19  0  0  0  0  0  0  0  0999 V2000
    2.3192   -0.2018    0.3975 C   0  0  0  0  0  0  0  0  0  0  0  0
    1.2557    0.0686   -0.6615 C   0  0  0  0  0  0  0  0  0  0  0  0
   -0.1283   -0.1347   -0.0272 C   0  0  0  0  0  0  0  0  0  0  0  0
   -0.3118    0.8176    1.1326 C   0  0  0  0  0  0  0  0  0  0  0  0
   -0.1574   -1.4294    0.4305 O   0  0  0  0  0  0  0  0  0  0  0  0
   -1.2429    0.1446   -1.0035 C   0  0  0  0  0  0  0  0  0  0  0  0
   -2.5150   -0.0936   -0.2861 C   0  0  0  0  0  0  0  0  0  0  0  0
   -3.2239    0.7377    0.2247 O   0  0  0  0  0  0  0  0  0  0  0  0
    1.9403   -0.9485    1.1081 H   0  0  0  0  0  0  0  0  0  0  0  0
    3.2085   -0.6086   -0.1260 H   0  0  0  0  0  0  0  0  0  0  0  0
    2.5661    0.7295    0.9452 H   0  0  0  0  0  0  0  0  0  0  0  0
    1.3548    1.0822   -1.0863 H   0  0  0  0  0  0  0  0  0  0  0  0
    1.3535   -0.7368   -1.4179 H   0  0  0  0  0  0  0  0  0  0  0  0
    0.3902    0.6166    1.9519 H   0  0  0  0  0  0  0  0  0  0  0  0
   -0.1888    1.8409    0.6977 H   0  0  0  0  0  0  0  0  0  0  0  0
   -1.3328    0.7225    1.4923 H   0  0  0  0  0  0  0  0  0  0  0  0
   -0.0895   -2.0953   -0.2904 H   0  0  0  0  0  0  0  0  0  0  0  0
   -1.1558   -0.5529   -1.8631 H   0  0  0  0  0  0  0  0  0  0  0  0
   -1.2017    1.1850   -1.4000 H   0  0  0  0  0  0  0  0  0  0  0  0
   -2.8403   -1.1434   -0.2185 H   0  0  0  0  0  0  0  0  0  0  0  0
  1  2  1  0
  2  3  1  0
  3  4  1  0
  3  5  1  0
  3  6  1  0
  6  7  1  0
  7  8  2  0
  1  9  1  0
  1 10  1  0
  1 11  1  0
  2 12  1  0
  2 13  1  0
  4 14  1  0
  4 15  1  0
  4 16  1  0
  5 17  1  0
  6 18  1  0
  6 19  1  0
  7 20  1  0
M  END
