
     RDKit          3D

 27 26  0  0  0  0  0  0  0  0999 V2000
    2.7548   -0.5946    0.1245 C   0  0  0  0  0  0  0  0  0  0  0  0
    1.4146   -0.1735    0.7224 C   0  0  0  0  0  0  0  0  0  0  0  0
    0.4273   -0.1470   -0.4206 C   0  0  0  0  0  0  0  0  0  0  0  0
    0.9656    0.8741   -1.4265 C   0  0  0  0  0  0  0  0  0  0  0  0
   -0.9287    0.3216   -0.0085 C   0  0  0  0  0  0  0  0  0  0  0  0
   -1.5355   -0.5733    1.0626 C   0  0  0  0  0  0  0  0  0  0  0  0
   -1.6321   -1.9568    0.4639 C   0  0  0  0  0  0  0  0  0  0  0  0
   -0.9135    1.7259    0.5569 C   0  0  0  0  0  0  0  0  0  0  0  0
   -2.2472    2.0293    0.8984 O   0  0  0  0  0  0  0  0  0  0  0  0
    3.5272   -0.7410    0.9064 H   0  0  0  0  0  0  0  0  0  0  0  0
    2.6017   -1.5405   -0.3961 H   0  0  0  0  0  0  0  0  0  0  0  0
    3.0538    0.1647   -0.6145 H   0  0  0  0  0  0  0  0  0  0  0  0
    1.1126   -0.8971    1.5130 H   0  0  0  0  0  0  0  0  0  0  0  0
    1.5180    0.8296    1.1740 H   0  0  0  0  0  0  0  0  0  0  0  0
    0.3560   -1.1423   -0.8536 H   0  0  0  0  0  0  0  0  0  0  0  0
    0.1350    1.3172   -2.0012 H   0  0  0  0  0  0  0  0  0  0  0  0
    1.5032    1.6743   -0.8575 H   0  0  0  0  0  0  0  0  0  0  0  0
    1.6258    0.3122   -2.1029 H   0  0  0  0  0  0  0  0  0  0  0  0
   -1.5650    0.3548   -0.9159 H   0  0  0  0  0  0  0  0  0  0  0  0
   -0.8787   -0.5804    1.9513 H   0  0  0  0  0  0  0  0  0  0  0  0
   -2.5192   -0.2243    1.3826 H   0  0  0  0  0  0  0  0  0  0  0  0
   -0.6297   -2.4256    0.3878 H   0  0  0  0  0  0  0  0  0  0  0  0
   -2.3529   -2.6018    0.9985 H   0  0  0  0  0  0  0  0  0  0  0  0
   -1.9789   -1.8138   -0.5982 H   0  0  0  0  0  0  0  0  0  0  0  0
   -0.6223    2.4795   -0.2082 H   0  0  0  0  0  0  0  0  0  0  0  0
   -0.3268    1.7814    1.4809 H   0  0  0  0  0  0  0  0  0  0  0  0
   -2.8649    1.5474    0.2991 H   0  0  0  0  0  0  0  0  0  0  0  0
  1  2  1  0
  2  3  1  0
  3  4  1  0
  3  5  1  0
  5  6  1  0
  6  7  1  0
  5  8  1  0
  8  9  1  0
  1 10  1  0
  1 11  1  0
  1 12  1  0
  2 13  1  0
  2 14  1  0
  3 15  1  0
  4 16  1  0
  4 17  1  0
  4 18  1  0
  5 19  1  0
  6 20  1  0
  6 21  1  0
  7 22  1  0
  7 23  1  0
  7 24  1  0
  8 25  1  0
  8 26  1  0
  9 27  1  0
M  END
