
     RDKit          3D

 21 20  0  0  0  0  0  0  0  0999 V2000
   -2.2475   -1.6359   -0.6465 C   0  0  0  0  0  0  0  0  0  0  0  0
   -0.8456   -1.2474   -0.1757 C   0  0  0  0  0  0  0  0  0  0  0  0
   -0.3873    0.0224   -0.8734 C   0  0  0  0  0  0  0  0  0  0  0  0
    0.9479    0.3308   -0.3791 C   0  0  0  0  0  0  0  0  0  0  0  0
    2.0619    0.6083    0.0440 C   0  0  0  0  0  0  0  0  0  0  0  0
    3.4039    0.9354    0.5285 C   0  0  0  0  0  0  0  0  0  0  0  0
    4.3032    0.1644   -0.2083 O   0  0  0  0  0  0  0  0  0  0  0  0
   -1.2872    1.1817   -0.5815 C   0  0  0  0  0  0  0  0  0  0  0  0
   -2.5902    0.9716   -0.9842 O   0  0  0  0  0  0  0  0  0  0  0  0
   -2.4540   -1.2589   -1.6695 H   0  0  0  0  0  0  0  0  0  0  0  0
   -2.3392   -2.7238   -0.6532 H   0  0  0  0  0  0  0  0  0  0  0  0
   -2.9468   -1.2310    0.1097 H   0  0  0  0  0  0  0  0  0  0  0  0
   -0.8291   -1.1327    0.9165 H   0  0  0  0  0  0  0  0  0  0  0  0
   -0.1838   -2.0912   -0.4573 H   0  0  0  0  0  0  0  0  0  0  0  0
   -0.3811   -0.1459   -1.9620 H   0  0  0  0  0  0  0  0  0  0  0  0
    3.4459    0.6195    1.5969 H   0  0  0  0  0  0  0  0  0  0  0  0
    3.6029    2.0217    0.4006 H   0  0  0  0  0  0  0  0  0  0  0  0
    3.8867   -0.7406   -0.2791 H   0  0  0  0  0  0  0  0  0  0  0  0
   -1.2072    1.4407    0.4977 H   0  0  0  0  0  0  0  0  0  0  0  0
   -0.8900    2.0583   -1.1335 H   0  0  0  0  0  0  0  0  0  0  0  0
   -3.0632    1.8526   -0.9449 H   0  0  0  0  0  0  0  0  0  0  0  0
  1  2  1  0
  2  3  1  0
  3  4  1  0
  4  5  3  0
  5  6  1  0
  6  7  1  0
  3  8  1  0
  8  9  1  0
  1 10  1  0
  1 11  1  0
  1 12  1  0
  2 13  1  0
  2 14  1  0
  3 15  1  0
  6 16  1  0
  6 17  1  0
  7 18  1  0
  8 19  1  0
  8 20  1  0
  9 21  1  0
M  END
