
     RDKit          3D

 23 23  0  0  0  0  0  0  0  0999 V2000
    2.5551   -0.5427    0.3650 C   0  0  0  0  0  0  0  0  0  0  0  0
    1.1606   -0.4022    0.9801 C   0  0  0  0  0  0  0  0  0  0  0  0
    0.2271   -0.0438   -0.1452 C   0  0  0  0  0  0  0  0  0  0  0  0
    0.7053    1.2628   -0.7483 C   0  0  0  0  0  0  0  0  0  0  0  0
   -0.1559    1.6032   -1.7941 O   0  0  0  0  0  0  0  0  0  0  0  0
   -1.1883    0.1411    0.2879 C   0  0  0  0  0  0  0  0  0  0  0  0
   -1.8585   -1.0441    0.9283 C   0  0  0  0  0  0  0  0  0  0  0  0
   -3.0505   -0.6336    0.2841 O   0  0  0  0  0  0  0  0  0  0  0  0
   -2.2192   -0.2131   -0.7776 C   0  0  0  0  0  0  0  0  0  0  0  0
    2.5053   -0.6316   -0.7347 H   0  0  0  0  0  0  0  0  0  0  0  0
    3.2084    0.3096    0.6485 H   0  0  0  0  0  0  0  0  0  0  0  0
    3.0480   -1.4865    0.7240 H   0  0  0  0  0  0  0  0  0  0  0  0
    1.2027    0.4480    1.6924 H   0  0  0  0  0  0  0  0  0  0  0  0
    0.8795   -1.2988    1.5286 H   0  0  0  0  0  0  0  0  0  0  0  0
    0.2427   -0.8308   -0.9331 H   0  0  0  0  0  0  0  0  0  0  0  0
    0.6967    2.0296    0.0529 H   0  0  0  0  0  0  0  0  0  0  0  0
    1.7133    1.2010   -1.1651 H   0  0  0  0  0  0  0  0  0  0  0  0
   -0.2220    2.5982   -1.7721 H   0  0  0  0  0  0  0  0  0  0  0  0
   -1.4629    1.0822    0.7585 H   0  0  0  0  0  0  0  0  0  0  0  0
   -1.5649   -2.0220    0.4885 H   0  0  0  0  0  0  0  0  0  0  0  0
   -1.9435   -1.0247    2.0282 H   0  0  0  0  0  0  0  0  0  0  0  0
   -1.8819   -1.1195   -1.3293 H   0  0  0  0  0  0  0  0  0  0  0  0
   -2.5970    0.6178   -1.3677 H   0  0  0  0  0  0  0  0  0  0  0  0
  1  2  1  0
  2  3  1  0
  3  4  1  0
  4  5  1  0
  3  6  1  0
  6  7  1  0
  7  8  1  0
  8  9  1  0
  9  6  1  0
  1 10  1  0
  1 11  1  0
  1 12  1  0
  2 13  1  0
  2 14  1  0
  3 15  1  0
  4 16  1  0
  4 17  1  0
  5 18  1  0
  6 19  1  0
  7 20  1  0
  7 21  1  0
  9 22  1  0
  9 23  1  0
M  END
