
     RDKit          3D

 21 21  0  0  0  0  0  0  0  0999 V2000
    3.0202   -0.5747    0.0435 C   0  0  0  0  0  0  0  0  0  0  0  0
    1.8921    0.3899   -0.1643 C   0  0  0  0  0  0  0  0  0  0  0  0
    0.5705   -0.2828   -0.1705 C   0  0  0  0  0  0  0  0  0  0  0  0
    0.5188   -1.4823   -0.0056 O   0  0  0  0  0  0  0  0  0  0  0  0
   -0.6768    0.4720   -0.3705 C   0  0  0  0  0  0  0  0  0  0  0  0
   -1.9956   -0.1285    0.0471 C   0  0  0  0  0  0  0  0  0  0  0  0
   -2.3124   -1.4238   -0.6621 C   0  0  0  0  0  0  0  0  0  0  0  0
   -0.6254    1.9910   -0.2062 C   0  0  0  0  0  0  0  0  0  0  0  0
   -0.7147    1.3944   -1.4508 O   0  0  0  0  0  0  0  0  0  0  0  0
    2.9874   -1.2947   -0.8165 H   0  0  0  0  0  0  0  0  0  0  0  0
    3.9847   -0.0486   -0.0171 H   0  0  0  0  0  0  0  0  0  0  0  0
    2.8435   -1.0985    0.9974 H   0  0  0  0  0  0  0  0  0  0  0  0
    2.0519    0.9716   -1.1001 H   0  0  0  0  0  0  0  0  0  0  0  0
    1.8471    1.1313    0.6883 H   0  0  0  0  0  0  0  0  0  0  0  0
   -2.0247   -0.3282    1.1282 H   0  0  0  0  0  0  0  0  0  0  0  0
   -2.7915    0.5984   -0.2642 H   0  0  0  0  0  0  0  0  0  0  0  0
   -2.3230   -1.3097   -1.7743 H   0  0  0  0  0  0  0  0  0  0  0  0
   -1.7184   -2.2820   -0.3139 H   0  0  0  0  0  0  0  0  0  0  0  0
   -3.3809   -1.6586   -0.3794 H   0  0  0  0  0  0  0  0  0  0  0  0
    0.3602    2.4331    0.0845 H   0  0  0  0  0  0  0  0  0  0  0  0
   -1.5130    2.5304    0.1219 H   0  0  0  0  0  0  0  0  0  0  0  0
  1  2  1  0
  2  3  1  0
  3  4  2  0
  3  5  1  0
  5  6  1  0
  6  7  1  0
  5  8  1  0
  8  9  1  0
  9  5  1  0
  1 10  1  0
  1 11  1  0
  1 12  1  0
  2 13  1  0
  2 14  1  0
  6 15  1  0
  6 16  1  0
  7 17  1  0
  7 18  1  0
  7 19  1  0
  8 20  1  0
  8 21  1  0
M  END
