
     RDKit          3D

 23 23  0  0  0  0  0  0  0  0999 V2000
   -2.4426    1.2025    0.2664 C   0  0  0  0  0  0  0  0  0  0  0  0
   -2.2417   -0.2646    0.0269 C   0  0  0  0  0  0  0  0  0  0  0  0
   -0.9911   -0.5445   -0.7494 C   0  0  0  0  0  0  0  0  0  0  0  0
   -0.8247   -1.8893   -0.9583 O   0  0  0  0  0  0  0  0  0  0  0  0
    0.2444    0.0455   -0.1652 C   0  0  0  0  0  0  0  0  0  0  0  0
    1.4788   -0.5752   -0.8018 C   0  0  0  0  0  0  0  0  0  0  0  0
    1.9978   -0.4883    0.5955 C   0  0  0  0  0  0  0  0  0  0  0  0
    2.7468    0.8001    0.8271 C   0  0  0  0  0  0  0  0  0  0  0  0
    0.6622   -0.4562    1.0458 O   0  0  0  0  0  0  0  0  0  0  0  0
   -2.5695    1.7187   -0.6931 H   0  0  0  0  0  0  0  0  0  0  0  0
   -1.6752    1.6212    0.9194 H   0  0  0  0  0  0  0  0  0  0  0  0
   -3.4170    1.3021    0.8257 H   0  0  0  0  0  0  0  0  0  0  0  0
   -3.1018   -0.5980   -0.6265 H   0  0  0  0  0  0  0  0  0  0  0  0
   -2.3404   -0.8553    0.9538 H   0  0  0  0  0  0  0  0  0  0  0  0
   -1.1333   -0.0732   -1.7642 H   0  0  0  0  0  0  0  0  0  0  0  0
   -1.2473   -2.4642   -0.2739 H   0  0  0  0  0  0  0  0  0  0  0  0
    0.2818    1.1713   -0.2133 H   0  0  0  0  0  0  0  0  0  0  0  0
    1.2792   -1.6281   -1.1148 H   0  0  0  0  0  0  0  0  0  0  0  0
    1.9708    0.0491   -1.5646 H   0  0  0  0  0  0  0  0  0  0  0  0
    2.5528   -1.4008    0.8748 H   0  0  0  0  0  0  0  0  0  0  0  0
    3.7735    0.6516    0.4529 H   0  0  0  0  0  0  0  0  0  0  0  0
    2.2348    1.5934    0.2283 H   0  0  0  0  0  0  0  0  0  0  0  0
    2.7617    1.0822    1.9086 H   0  0  0  0  0  0  0  0  0  0  0  0
  1  2  1  0
  2  3  1  0
  3  4  1  0
  3  5  1  0
  5  6  1  0
  6  7  1  0
  7  8  1  0
  7  9  1  0
  9  5  1  0
  1 10  1  0
  1 11  1  0
  1 12  1  0
  2 13  1  0
  2 14  1  0
  3 15  1  0
  4 16  1  0
  5 17  1  0
  6 18  1  0
  6 19  1  0
  7 20  1  0
  8 21  1  0
  8 22  1  0
  8 23  1  0
M  END
