
     RDKit          3D

 16 15  0  0  0  0  0  0  0  0999 V2000
    2.4278   -0.3651   -0.3696 C   0  0  0  0  0  0  0  0  0  0  0  0
    1.2631    0.5671   -0.0564 C   0  0  0  0  0  0  0  0  0  0  0  0
    0.0155   -0.0514   -0.5887 C   0  0  0  0  0  0  0  0  0  0  0  0
    0.0760   -0.5965   -1.6823 O   0  0  0  0  0  0  0  0  0  0  0  0
   -1.2817    0.0131    0.1311 C   0  0  0  0  0  0  0  0  0  0  0  0
   -2.4366   -0.0635   -0.8548 C   0  0  0  0  0  0  0  0  0  0  0  0
    2.0976   -1.2683   -0.9164 H   0  0  0  0  0  0  0  0  0  0  0  0
    3.2182    0.1881   -0.9366 H   0  0  0  0  0  0  0  0  0  0  0  0
    2.9112   -0.6104    0.6102 H   0  0  0  0  0  0  0  0  0  0  0  0
    1.1232    0.6820    1.0470 H   0  0  0  0  0  0  0  0  0  0  0  0
    1.4724    1.5507   -0.5442 H   0  0  0  0  0  0  0  0  0  0  0  0
   -1.4136   -0.8534    0.8266 H   0  0  0  0  0  0  0  0  0  0  0  0
   -1.3791    0.9297    0.7650 H   0  0  0  0  0  0  0  0  0  0  0  0
   -3.3750   -0.3988   -0.3837 H   0  0  0  0  0  0  0  0  0  0  0  0
   -2.1068   -0.6840   -1.7022 H   0  0  0  0  0  0  0  0  0  0  0  0
   -2.6121    0.9607   -1.2208 H   0  0  0  0  0  0  0  0  0  0  0  0
  1  2  1  0
  2  3  1  0
  3  4  2  0
  3  5  1  0
  5  6  1  0
  1  7  1  0
  1  8  1  0
  1  9  1  0
  2 10  1  0
  2 11  1  0
  5 12  1  0
  5 13  1  0
  6 14  1  0
  6 15  1  0
  6 16  1  0
M  END
