
     RDKit          3D

 23 22  0  0  0  0  0  0  0  0999 V2000
   -2.6488    0.1423    0.4632 C   0  0  0  0  0  0  0  0  0  0  0  0
   -1.7910   -0.7107    1.3798 C   0  0  0  0  0  0  0  0  0  0  0  0
   -0.6517   -1.3485    0.5149 C   0  0  0  0  0  0  0  0  0  0  0  0
   -1.4310   -2.1660   -0.6368 C   0  0  0  0  0  0  0  0  0  0  0  0
    0.2789   -0.7682    0.2384 C   0  0  0  0  0  0  0  0  0  0  0  0
    1.5282    0.0296   -0.1532 C   0  0  0  0  0  0  0  0  0  0  0  0
    2.6450    0.7401   -0.4784 C   0  0  0  0  0  0  0  0  0  0  0  0
    2.2793    2.2065    0.0073 C   0  0  0  0  0  0  0  0  0  0  0  0
    3.3041    3.0561   -0.1511 O   0  0  0  0  0  0  0  0  0  0  0  0
   -3.6812   -0.1980    0.4108 H   0  0  0  0  0  0  0  0  0  0  0  0
   -2.6702    1.1740    0.8932 H   0  0  0  0  0  0  0  0  0  0  0  0
   -2.1557    0.2866   -0.5597 H   0  0  0  0  0  0  0  0  0  0  0  0
   -1.3602   -0.0659    2.1182 H   0  0  0  0  0  0  0  0  0  0  0  0
   -2.3832   -1.5002    1.8391 H   0  0  0  0  0  0  0  0  0  0  0  0
   -0.4777   -2.4354    1.1756 H   0  0  0  0  0  0  0  0  0  0  0  0
   -2.2148   -2.7551   -0.1911 H   0  0  0  0  0  0  0  0  0  0  0  0
   -0.6488   -2.7977   -1.0390 H   0  0  0  0  0  0  0  0  0  0  0  0
   -1.8116   -1.4625   -1.3452 H   0  0  0  0  0  0  0  0  0  0  0  0
    3.5545    0.4722    0.0345 H   0  0  0  0  0  0  0  0  0  0  0  0
    2.7995    0.8855   -1.5911 H   0  0  0  0  0  0  0  0  0  0  0  0
    1.9096    2.1112    1.0296 H   0  0  0  0  0  0  0  0  0  0  0  0
    1.4141    2.5167   -0.6973 H   0  0  0  0  0  0  0  0  0  0  0  0
    4.2125    2.5873   -0.1553 H   0  0  0  0  0  0  0  0  0  0  0  0
  1  2  1  0
  2  3  1  0
  3  4  1  0
  3  5  1  0
  5  6  3  0
  6  7  1  0
  7  8  1  0
  8  9  1  0
  1 10  1  0
  1 11  1  0
  1 12  1  0
  2 13  1  0
  2 14  1  0
  3 15  1  0
  4 16  1  0
  4 17  1  0
  4 18  1  0
  7 19  1  0
  7 20  1  0
  8 21  1  0
  8 22  1  0
  9 23  1  0
M  END
