
     RDKit          3D

 21 21  0  0  0  0  0  0  0  0999 V2000
    2.7713   -0.1642    0.6826 C   0  0  0  0  0  0  0  0  0  0  0  0
    2.3176    0.5180   -0.5590 C   0  0  0  0  0  0  0  0  0  0  0  0
    0.9008    0.2976   -0.8949 C   0  0  0  0  0  0  0  0  0  0  0  0
    0.4632    0.8276   -1.8998 O   0  0  0  0  0  0  0  0  0  0  0  0
   -0.0592   -0.5204   -0.1150 C   0  0  0  0  0  0  0  0  0  0  0  0
   -0.9323   -1.3119   -0.8492 O   0  0  0  0  0  0  0  0  0  0  0  0
   -1.4718   -0.2652   -0.0497 C   0  0  0  0  0  0  0  0  0  0  0  0
   -2.2416   -0.8022    1.1390 C   0  0  0  0  0  0  0  0  0  0  0  0
   -2.1681    0.8462   -0.8023 C   0  0  0  0  0  0  0  0  0  0  0  0
    2.4509   -1.2018    0.7908 H   0  0  0  0  0  0  0  0  0  0  0  0
    2.5386    0.4720    1.5733 H   0  0  0  0  0  0  0  0  0  0  0  0
    3.9008   -0.1931    0.6502 H   0  0  0  0  0  0  0  0  0  0  0  0
    3.0010    0.1941   -1.3968 H   0  0  0  0  0  0  0  0  0  0  0  0
    2.5513    1.6163   -0.4373 H   0  0  0  0  0  0  0  0  0  0  0  0
    0.4235   -0.9761    0.7992 H   0  0  0  0  0  0  0  0  0  0  0  0
   -1.8819   -1.7993    1.4582 H   0  0  0  0  0  0  0  0  0  0  0  0
   -3.3222   -0.9057    0.9423 H   0  0  0  0  0  0  0  0  0  0  0  0
   -2.1540   -0.0644    1.9814 H   0  0  0  0  0  0  0  0  0  0  0  0
   -2.1152    0.6971   -1.9036 H   0  0  0  0  0  0  0  0  0  0  0  0
   -3.2422    0.8883   -0.5277 H   0  0  0  0  0  0  0  0  0  0  0  0
   -1.7303    1.8471   -0.5818 H   0  0  0  0  0  0  0  0  0  0  0  0
  1  2  1  0
  2  3  1  0
  3  4  2  0
  3  5  1  0
  5  6  1  0
  6  7  1  0
  7  8  1  0
  7  9  1  0
  7  5  1  0
  1 10  1  0
  1 11  1  0
  1 12  1  0
  2 13  1  0
  2 14  1  0
  5 15  1  0
  8 16  1  0
  8 17  1  0
  8 18  1  0
  9 19  1  0
  9 20  1  0
  9 21  1  0
M  END
