
     RDKit          3D

 24 24  0  0  0  0  0  0  0  0999 V2000
    2.3292    0.8260    1.2652 C   0  0  0  0  0  0  0  0  0  0  0  0
    1.9878   -0.1077    0.1408 C   0  0  0  0  0  0  0  0  0  0  0  0
    0.7601    0.3190   -0.6312 C   0  0  0  0  0  0  0  0  0  0  0  0
    0.5349   -0.6976   -1.7192 C   0  0  0  0  0  0  0  0  0  0  0  0
   -0.4526    0.4692    0.2268 C   0  0  0  0  0  0  0  0  0  0  0  0
   -0.9573   -0.7462    0.9974 C   0  0  0  0  0  0  0  0  0  0  0  0
   -1.6718   -0.2994   -0.2322 C   0  0  0  0  0  0  0  0  0  0  0  0
   -3.0351    0.3267   -0.0164 C   0  0  0  0  0  0  0  0  0  0  0  0
    2.5745    0.1859    2.1599 H   0  0  0  0  0  0  0  0  0  0  0  0
    3.2708    1.4071    1.0745 H   0  0  0  0  0  0  0  0  0  0  0  0
    1.5089    1.4840    1.5542 H   0  0  0  0  0  0  0  0  0  0  0  0
    2.8403   -0.0625   -0.5845 H   0  0  0  0  0  0  0  0  0  0  0  0
    1.8893   -1.1580    0.4643 H   0  0  0  0  0  0  0  0  0  0  0  0
    0.9543    1.2901   -1.1215 H   0  0  0  0  0  0  0  0  0  0  0  0
    1.5410   -0.8531   -2.2081 H   0  0  0  0  0  0  0  0  0  0  0  0
   -0.2196   -0.3770   -2.4682 H   0  0  0  0  0  0  0  0  0  0  0  0
    0.3003   -1.6744   -1.2508 H   0  0  0  0  0  0  0  0  0  0  0  0
   -0.6345    1.4355    0.7404 H   0  0  0  0  0  0  0  0  0  0  0  0
   -1.4610   -0.5530    1.9870 H   0  0  0  0  0  0  0  0  0  0  0  0
   -0.3576   -1.6611    1.0106 H   0  0  0  0  0  0  0  0  0  0  0  0
   -1.6079   -0.9758   -1.1022 H   0  0  0  0  0  0  0  0  0  0  0  0
   -3.3091    0.2701    1.0556 H   0  0  0  0  0  0  0  0  0  0  0  0
   -3.7948   -0.2333   -0.5728 H   0  0  0  0  0  0  0  0  0  0  0  0
   -2.9904    1.3856   -0.3367 H   0  0  0  0  0  0  0  0  0  0  0  0
  1  2  1  0
  2  3  1  0
  3  4  1  0
  3  5  1  0
  5  6  1  0
  6  7  1  0
  7  8  1  0
  7  5  1  0
  1  9  1  0
  1 10  1  0
  1 11  1  0
  2 12  1  0
  2 13  1  0
  3 14  1  0
  4 15  1  0
  4 16  1  0
  4 17  1  0
  5 18  1  0
  6 19  1  0
  6 20  1  0
  7 21  1  0
  8 22  1  0
  8 23  1  0
  8 24  1  0
M  END
