
     RDKit          3D

 29 28  0  0  0  0  0  0  0  0999 V2000
   -1.8999   -0.1467    1.9708 C   0  0  0  0  0  0  0  0  0  0  0  0
   -2.0967    0.2108    0.5298 C   0  0  0  0  0  0  0  0  0  0  0  0
   -0.8652   -0.1399   -0.3224 C   0  0  0  0  0  0  0  0  0  0  0  0
   -0.6922   -1.6296   -0.1656 C   0  0  0  0  0  0  0  0  0  0  0  0
   -1.2543    0.1165   -1.7638 C   0  0  0  0  0  0  0  0  0  0  0  0
    0.2508    0.6976    0.1452 C   0  0  0  0  0  0  0  0  0  0  0  0
    1.5679    0.5705   -0.5196 C   0  0  0  0  0  0  0  0  0  0  0  0
    2.2034   -0.7923   -0.4542 C   0  0  0  0  0  0  0  0  0  0  0  0
    2.5497    1.5333    0.1692 C   0  0  0  0  0  0  0  0  0  0  0  0
   -2.8909    0.0734    2.4690 H   0  0  0  0  0  0  0  0  0  0  0  0
   -1.1787    0.5158    2.4969 H   0  0  0  0  0  0  0  0  0  0  0  0
   -1.7203   -1.2136    2.1587 H   0  0  0  0  0  0  0  0  0  0  0  0
   -2.3076    1.2992    0.4833 H   0  0  0  0  0  0  0  0  0  0  0  0
   -2.9982   -0.2996    0.1553 H   0  0  0  0  0  0  0  0  0  0  0  0
   -1.6835   -2.1513   -0.3449 H   0  0  0  0  0  0  0  0  0  0  0  0
   -0.0236   -2.0847   -0.9200 H   0  0  0  0  0  0  0  0  0  0  0  0
   -0.3801   -1.9608    0.8203 H   0  0  0  0  0  0  0  0  0  0  0  0
   -2.0869   -0.6119   -1.9859 H   0  0  0  0  0  0  0  0  0  0  0  0
   -0.4082   -0.1493   -2.4316 H   0  0  0  0  0  0  0  0  0  0  0  0
   -1.6581    1.1162   -1.9361 H   0  0  0  0  0  0  0  0  0  0  0  0
    0.4209    0.4747    1.2355 H   0  0  0  0  0  0  0  0  0  0  0  0
   -0.0921    1.7715    0.0648 H   0  0  0  0  0  0  0  0  0  0  0  0
    1.5673    0.9133   -1.5829 H   0  0  0  0  0  0  0  0  0  0  0  0
    2.1365   -1.2685   -1.4702 H   0  0  0  0  0  0  0  0  0  0  0  0
    3.3246   -0.6856   -0.3121 H   0  0  0  0  0  0  0  0  0  0  0  0
    1.8859   -1.4257    0.3681 H   0  0  0  0  0  0  0  0  0  0  0  0
    3.0226    1.0320    1.0482 H   0  0  0  0  0  0  0  0  0  0  0  0
    3.3444    1.8529   -0.5048 H   0  0  0  0  0  0  0  0  0  0  0  0
    1.9625    2.3818    0.5990 H   0  0  0  0  0  0  0  0  0  0  0  0
  1  2  1  0
  2  3  1  0
  3  4  1  0
  3  5  1  0
  3  6  1  0
  6  7  1  0
  7  8  1  0
  7  9  1  0
  1 10  1  0
  1 11  1  0
  1 12  1  0
  2 13  1  0
  2 14  1  0
  4 15  1  0
  4 16  1  0
  4 17  1  0
  5 18  1  0
  5 19  1  0
  5 20  1  0
  6 21  1  0
  6 22  1  0
  7 23  1  0
  8 24  1  0
  8 25  1  0
  8 26  1  0
  9 27  1  0
  9 28  1  0
  9 29  1  0
M  END
