
     RDKit          3D

 25 25  0  0  0  0  0  0  0  0999 V2000
    2.0955   -0.5040    1.1494 C   0  0  0  0  0  0  0  0  0  0  0  0
    1.5286   -0.5502   -0.2497 C   0  0  0  0  0  0  0  0  0  0  0  0
    0.4023    0.3828   -0.4649 C   0  0  0  0  0  0  0  0  0  0  0  0
   -0.0246    0.2086   -1.9482 C   0  0  0  0  0  0  0  0  0  0  0  0
    0.8851    1.6930   -0.3917 O   0  0  0  0  0  0  0  0  0  0  0  0
   -0.8263    0.2116    0.3326 C   0  0  0  0  0  0  0  0  0  0  0  0
   -1.8813    1.2845   -0.0328 C   0  0  0  0  0  0  0  0  0  0  0  0
   -1.0375   -0.4794    1.5795 C   0  0  0  0  0  0  0  0  0  0  0  0
   -1.3518   -1.2292    0.3121 C   0  0  0  0  0  0  0  0  0  0  0  0
    1.9193   -1.4407    1.7119 H   0  0  0  0  0  0  0  0  0  0  0  0
    1.6182    0.3208    1.7112 H   0  0  0  0  0  0  0  0  0  0  0  0
    3.1906   -0.2861    1.1435 H   0  0  0  0  0  0  0  0  0  0  0  0
    2.3846   -0.3045   -0.9351 H   0  0  0  0  0  0  0  0  0  0  0  0
    1.2981   -1.6099   -0.4874 H   0  0  0  0  0  0  0  0  0  0  0  0
   -0.3723    1.1685   -2.3607 H   0  0  0  0  0  0  0  0  0  0  0  0
   -0.8390   -0.5160   -2.0367 H   0  0  0  0  0  0  0  0  0  0  0  0
    0.8263   -0.1629   -2.5335 H   0  0  0  0  0  0  0  0  0  0  0  0
    1.8248    1.6865   -0.7072 H   0  0  0  0  0  0  0  0  0  0  0  0
   -2.8417    1.0383    0.4548 H   0  0  0  0  0  0  0  0  0  0  0  0
   -1.5037    2.2080    0.4686 H   0  0  0  0  0  0  0  0  0  0  0  0
   -1.9731    1.3964   -1.1165 H   0  0  0  0  0  0  0  0  0  0  0  0
   -1.9939   -0.2329    2.1399 H   0  0  0  0  0  0  0  0  0  0  0  0
   -0.3181   -0.9186    2.2639 H   0  0  0  0  0  0  0  0  0  0  0  0
   -0.6507   -2.0352    0.0681 H   0  0  0  0  0  0  0  0  0  0  0  0
   -2.3594   -1.3294   -0.0712 H   0  0  0  0  0  0  0  0  0  0  0  0
  1  2  1  0
  2  3  1  0
  3  4  1  0
  3  5  1  0
  3  6  1  0
  6  7  1  0
  6  8  1  0
  8  9  1  0
  9  6  1  0
  1 10  1  0
  1 11  1  0
  1 12  1  0
  2 13  1  0
  2 14  1  0
  4 15  1  0
  4 16  1  0
  4 17  1  0
  5 18  1  0
  7 19  1  0
  7 20  1  0
  7 21  1  0
  8 22  1  0
  8 23  1  0
  9 24  1  0
  9 25  1  0
M  END
