
     RDKit          3D

 21 21  0  0  0  0  0  0  0  0999 V2000
   -3.3703   -0.5906    0.3219 C   0  0  0  0  0  0  0  0  0  0  0  0
   -2.5927   -0.0379   -0.8757 C   0  0  0  0  0  0  0  0  0  0  0  0
   -1.1880   -0.5150   -0.7001 C   0  0  0  0  0  0  0  0  0  0  0  0
   -0.9088   -1.6367   -1.0419 O   0  0  0  0  0  0  0  0  0  0  0  0
   -0.1666    0.3835   -0.1165 C   0  0  0  0  0  0  0  0  0  0  0  0
    1.0406   -0.3010   -0.0575 O   0  0  0  0  0  0  0  0  0  0  0  0
    2.0105    0.5373    0.4989 C   0  0  0  0  0  0  0  0  0  0  0  0
    2.9814   -0.1944    1.4233 C   0  0  0  0  0  0  0  0  0  0  0  0
    3.4417    0.3940    0.1344 C   0  0  0  0  0  0  0  0  0  0  0  0
   -3.0679   -0.0121    1.2233 H   0  0  0  0  0  0  0  0  0  0  0  0
   -2.9885   -1.6272    0.4825 H   0  0  0  0  0  0  0  0  0  0  0  0
   -4.4455   -0.5936    0.1463 H   0  0  0  0  0  0  0  0  0  0  0  0
   -3.0515   -0.4287   -1.8252 H   0  0  0  0  0  0  0  0  0  0  0  0
   -2.6657    1.0692   -0.8837 H   0  0  0  0  0  0  0  0  0  0  0  0
   -0.5344    0.6622    0.8987 H   0  0  0  0  0  0  0  0  0  0  0  0
   -0.0526    1.3161   -0.7330 H   0  0  0  0  0  0  0  0  0  0  0  0
    1.6833    1.5538    0.7866 H   0  0  0  0  0  0  0  0  0  0  0  0
    2.9551   -1.2953    1.4685 H   0  0  0  0  0  0  0  0  0  0  0  0
    3.1214    0.3254    2.3855 H   0  0  0  0  0  0  0  0  0  0  0  0
    4.0944    1.2843    0.2234 H   0  0  0  0  0  0  0  0  0  0  0  0
    3.7040   -0.2932   -0.6944 H   0  0  0  0  0  0  0  0  0  0  0  0
  1  2  1  0
  2  3  1  0
  3  4  2  0
  3  5  1  0
  5  6  1  0
  6  7  1  0
  7  8  1  0
  8  9  1  0
  9  7  1  0
  1 10  1  0
  1 11  1  0
  1 12  1  0
  2 13  1  0
  2 14  1  0
  5 15  1  0
  5 16  1  0
  7 17  1  0
  8 18  1  0
  8 19  1  0
  9 20  1  0
  9 21  1  0
M  END
