
     RDKit          3D

 23 24  0  0  0  0  0  0  0  0999 V2000
    2.8403   -0.0290   -0.0741 C   0  0  0  0  0  0  0  0  0  0  0  0
    1.5443    0.6506   -0.4192 C   0  0  0  0  0  0  0  0  0  0  0  0
    0.4380    0.1074    0.4208 C   0  0  0  0  0  0  0  0  0  0  0  0
    0.2779   -1.3556    0.1972 C   0  0  0  0  0  0  0  0  0  0  0  0
   -0.8299    0.8918    0.1312 C   0  0  0  0  0  0  0  0  0  0  0  0
   -1.9636    0.3495    0.9784 C   0  0  0  0  0  0  0  0  0  0  0  0
   -2.5589   -0.2169   -0.2844 C   0  0  0  0  0  0  0  0  0  0  0  0
   -1.7834   -0.9094   -1.1827 O   0  0  0  0  0  0  0  0  0  0  0  0
   -1.5781    0.4357   -1.0735 C   0  0  0  0  0  0  0  0  0  0  0  0
    3.0473   -0.8604   -0.7732 H   0  0  0  0  0  0  0  0  0  0  0  0
    3.6626    0.7113   -0.1946 H   0  0  0  0  0  0  0  0  0  0  0  0
    2.8187   -0.4388    0.9513 H   0  0  0  0  0  0  0  0  0  0  0  0
    1.6490    1.7281   -0.2603 H   0  0  0  0  0  0  0  0  0  0  0  0
    1.2990    0.4251   -1.4908 H   0  0  0  0  0  0  0  0  0  0  0  0
    0.7414    0.2398    1.5006 H   0  0  0  0  0  0  0  0  0  0  0  0
    0.3949   -1.6794   -0.8556 H   0  0  0  0  0  0  0  0  0  0  0  0
    1.1307   -1.8607    0.7410 H   0  0  0  0  0  0  0  0  0  0  0  0
   -0.6360   -1.7873    0.6496 H   0  0  0  0  0  0  0  0  0  0  0  0
   -0.7060    1.9915    0.2381 H   0  0  0  0  0  0  0  0  0  0  0  0
   -2.5891    1.1674    1.3739 H   0  0  0  0  0  0  0  0  0  0  0  0
   -1.6900   -0.4082    1.7213 H   0  0  0  0  0  0  0  0  0  0  0  0
   -3.6329   -0.2934   -0.4278 H   0  0  0  0  0  0  0  0  0  0  0  0
   -1.8762    1.1409   -1.8671 H   0  0  0  0  0  0  0  0  0  0  0  0
  1  2  1  0
  2  3  1  0
  3  4  1  0
  3  5  1  0
  5  6  1  0
  6  7  1  0
  7  8  1  0
  8  9  1  0
  9  5  1  0
  9  7  1  0
  1 10  1  0
  1 11  1  0
  1 12  1  0
  2 13  1  0
  2 14  1  0
  3 15  1  0
  4 16  1  0
  4 17  1  0
  4 18  1  0
  5 19  1  0
  6 20  1  0
  6 21  1  0
  7 22  1  0
  9 23  1  0
M  END
