
     RDKit          3D

 25 25  0  0  0  0  0  0  0  0999 V2000
   -2.4408   -1.2213   -0.5871 C   0  0  0  0  0  0  0  0  0  0  0  0
   -1.0152   -1.3291   -0.2215 C   0  0  0  0  0  0  0  0  0  0  0  0
   -0.1699   -0.0929   -0.3557 C   0  0  0  0  0  0  0  0  0  0  0  0
   -0.5832    1.0667    0.4678 C   0  0  0  0  0  0  0  0  0  0  0  0
   -1.9577    1.6197    0.2190 C   0  0  0  0  0  0  0  0  0  0  0  0
    1.2204   -0.5417    0.0468 C   0  0  0  0  0  0  0  0  0  0  0  0
    2.2674    0.5058    0.0002 C   0  0  0  0  0  0  0  0  0  0  0  0
    3.6438   -0.0255    0.4180 C   0  0  0  0  0  0  0  0  0  0  0  0
    3.3293    0.4202   -0.8858 O   0  0  0  0  0  0  0  0  0  0  0  0
   -3.1316   -1.2668    0.2844 H   0  0  0  0  0  0  0  0  0  0  0  0
   -2.6205   -0.3881   -1.2733 H   0  0  0  0  0  0  0  0  0  0  0  0
   -2.7168   -2.1382   -1.2063 H   0  0  0  0  0  0  0  0  0  0  0  0
   -0.8458   -1.7183    0.8129 H   0  0  0  0  0  0  0  0  0  0  0  0
   -0.5121   -2.0817   -0.9083 H   0  0  0  0  0  0  0  0  0  0  0  0
   -0.1800    0.1644   -1.4603 H   0  0  0  0  0  0  0  0  0  0  0  0
   -0.4333    0.9090    1.5622 H   0  0  0  0  0  0  0  0  0  0  0  0
    0.1198    1.9163    0.2222 H   0  0  0  0  0  0  0  0  0  0  0  0
   -1.9403    2.6449    0.7221 H   0  0  0  0  0  0  0  0  0  0  0  0
   -2.0861    1.8729   -0.8571 H   0  0  0  0  0  0  0  0  0  0  0  0
   -2.7790    1.0319    0.6348 H   0  0  0  0  0  0  0  0  0  0  0  0
    1.5118   -1.3644   -0.6455 H   0  0  0  0  0  0  0  0  0  0  0  0
    1.1195   -0.9560    1.0836 H   0  0  0  0  0  0  0  0  0  0  0  0
    2.0810    1.5049    0.4647 H   0  0  0  0  0  0  0  0  0  0  0  0
    4.3086    0.5883    1.0285 H   0  0  0  0  0  0  0  0  0  0  0  0
    3.8106   -1.1211    0.4339 H   0  0  0  0  0  0  0  0  0  0  0  0
  1  2  1  0
  2  3  1  0
  3  4  1  0
  4  5  1  0
  3  6  1  0
  6  7  1  0
  7  8  1  0
  8  9  1  0
  9  7  1  0
  1 10  1  0
  1 11  1  0
  1 12  1  0
  2 13  1  0
  2 14  1  0
  3 15  1  0
  4 16  1  0
  4 17  1  0
  5 18  1  0
  5 19  1  0
  5 20  1  0
  6 21  1  0
  6 22  1  0
  7 23  1  0
  8 24  1  0
  8 25  1  0
M  END
