
     RDKit          3D

 23 23  0  0  0  0  0  0  0  0999 V2000
    3.7268    0.0018    0.7198 C   0  0  0  0  0  0  0  0  0  0  0  0
    2.3048   -0.1300    1.1912 C   0  0  0  0  0  0  0  0  0  0  0  0
    1.3522    0.1463    0.0922 C   0  0  0  0  0  0  0  0  0  0  0  0
    1.8142    0.4311   -0.9989 O   0  0  0  0  0  0  0  0  0  0  0  0
   -0.1223    0.0820    0.2993 C   0  0  0  0  0  0  0  0  0  0  0  0
   -0.9089    1.1492   -0.4449 C   0  0  0  0  0  0  0  0  0  0  0  0
   -1.0373   -0.2594   -0.7904 C   0  0  0  0  0  0  0  0  0  0  0  0
   -2.3367   -0.9558   -0.4745 C   0  0  0  0  0  0  0  0  0  0  0  0
   -3.1304   -0.0643    0.4448 C   0  0  0  0  0  0  0  0  0  0  0  0
    4.1574    0.9300    1.1063 H   0  0  0  0  0  0  0  0  0  0  0  0
    3.7082    0.1024   -0.4038 H   0  0  0  0  0  0  0  0  0  0  0  0
    4.3295   -0.8962    0.9278 H   0  0  0  0  0  0  0  0  0  0  0  0
    2.1129    0.4797    2.0929 H   0  0  0  0  0  0  0  0  0  0  0  0
    2.1623   -1.2177    1.4624 H   0  0  0  0  0  0  0  0  0  0  0  0
   -0.4265   -0.1865    1.3322 H   0  0  0  0  0  0  0  0  0  0  0  0
   -1.6360    1.7081    0.1603 H   0  0  0  0  0  0  0  0  0  0  0  0
   -0.3334    1.8142   -1.1452 H   0  0  0  0  0  0  0  0  0  0  0  0
   -0.5753   -0.6037   -1.7355 H   0  0  0  0  0  0  0  0  0  0  0  0
   -2.9542   -1.1309   -1.3757 H   0  0  0  0  0  0  0  0  0  0  0  0
   -2.1856   -1.9280    0.0370 H   0  0  0  0  0  0  0  0  0  0  0  0
   -4.0085   -0.6126    0.8850 H   0  0  0  0  0  0  0  0  0  0  0  0
   -2.5392    0.2843    1.3101 H   0  0  0  0  0  0  0  0  0  0  0  0
   -3.4742    0.8561   -0.0918 H   0  0  0  0  0  0  0  0  0  0  0  0
  1  2  1  0
  2  3  1  0
  3  4  2  0
  3  5  1  0
  5  6  1  0
  6  7  1  0
  7  8  1  0
  8  9  1  0
  7  5  1  0
  1 10  1  0
  1 11  1  0
  1 12  1  0
  2 13  1  0
  2 14  1  0
  5 15  1  0
  6 16  1  0
  6 17  1  0
  7 18  1  0
  8 19  1  0
  8 20  1  0
  9 21  1  0
  9 22  1  0
  9 23  1  0
M  END
