
     RDKit          3D

 21 21  0  0  0  0  0  0  0  0999 V2000
   -2.3631    0.7796   -0.3961 C   0  0  0  0  0  0  0  0  0  0  0  0
   -1.3108    0.3367    0.5899 C   0  0  0  0  0  0  0  0  0  0  0  0
   -0.0615   -0.0395   -0.1868 C   0  0  0  0  0  0  0  0  0  0  0  0
   -0.4626   -1.1663   -1.1187 C   0  0  0  0  0  0  0  0  0  0  0  0
    1.0229   -0.5553    0.7313 C   0  0  0  0  0  0  0  0  0  0  0  0
    1.4343    0.3581    1.7003 O   0  0  0  0  0  0  0  0  0  0  0  0
    2.4000    0.8095    0.7941 C   0  0  0  0  0  0  0  0  0  0  0  0
    2.3814   -0.5192    0.1745 C   0  0  0  0  0  0  0  0  0  0  0  0
    3.1125   -1.2173   -0.4640 O   0  0  0  0  0  0  0  0  0  0  0  0
   -2.9746   -0.0678   -0.7650 H   0  0  0  0  0  0  0  0  0  0  0  0
   -1.8939    1.2497   -1.3099 H   0  0  0  0  0  0  0  0  0  0  0  0
   -2.9940    1.5961    0.0370 H   0  0  0  0  0  0  0  0  0  0  0  0
   -1.7034   -0.5317    1.1599 H   0  0  0  0  0  0  0  0  0  0  0  0
   -1.0243    1.1561    1.2725 H   0  0  0  0  0  0  0  0  0  0  0  0
    0.2559    0.8158   -0.7881 H   0  0  0  0  0  0  0  0  0  0  0  0
   -1.3062   -0.7719   -1.7329 H   0  0  0  0  0  0  0  0  0  0  0  0
   -0.8864   -2.0249   -0.5378 H   0  0  0  0  0  0  0  0  0  0  0  0
    0.3689   -1.4803   -1.7785 H   0  0  0  0  0  0  0  0  0  0  0  0
    0.7047   -1.5070    1.1926 H   0  0  0  0  0  0  0  0  0  0  0  0
    1.9494    1.6346    0.1804 H   0  0  0  0  0  0  0  0  0  0  0  0
    3.3507    1.1451    1.2454 H   0  0  0  0  0  0  0  0  0  0  0  0
  1  2  1  0
  2  3  1  0
  3  4  1  0
  3  5  1  0
  5  6  1  0
  6  7  1  0
  7  8  1  0
  8  9  2  0
  8  5  1  0
  1 10  1  0
  1 11  1  0
  1 12  1  0
  2 13  1  0
  2 14  1  0
  3 15  1  0
  4 16  1  0
  4 17  1  0
  4 18  1  0
  5 19  1  0
  7 20  1  0
  7 21  1  0
M  END
