
     RDKit          3D

 23 22  0  0  0  0  0  0  0  0999 V2000
   -3.3324   -0.1464   -0.3645 C   0  0  0  0  0  0  0  0  0  0  0  0
   -1.9447    0.3968   -0.3787 C   0  0  0  0  0  0  0  0  0  0  0  0
   -0.9420   -0.5508    0.1707 C   0  0  0  0  0  0  0  0  0  0  0  0
   -1.3686   -1.6354    0.5581 O   0  0  0  0  0  0  0  0  0  0  0  0
    0.4994   -0.1902    0.2412 C   0  0  0  0  0  0  0  0  0  0  0  0
    1.2539   -1.2447   -0.5491 C   0  0  0  0  0  0  0  0  0  0  0  0
    2.7338   -1.0031   -0.5623 C   0  0  0  0  0  0  0  0  0  0  0  0
    0.6563    1.0692   -0.2603 O   0  0  0  0  0  0  0  0  0  0  0  0
    1.1457    1.9928    0.6477 C   0  0  0  0  0  0  0  0  0  0  0  0
   -3.4510   -0.8352   -1.2479 H   0  0  0  0  0  0  0  0  0  0  0  0
   -4.0781    0.6647   -0.4277 H   0  0  0  0  0  0  0  0  0  0  0  0
   -3.4983   -0.7827    0.5516 H   0  0  0  0  0  0  0  0  0  0  0  0
   -1.9383    1.3506    0.2018 H   0  0  0  0  0  0  0  0  0  0  0  0
   -1.6791    0.6235   -1.4504 H   0  0  0  0  0  0  0  0  0  0  0  0
    0.7961   -0.2659    1.3146 H   0  0  0  0  0  0  0  0  0  0  0  0
    1.0735   -2.2251   -0.0636 H   0  0  0  0  0  0  0  0  0  0  0  0
    0.8135   -1.3207   -1.5648 H   0  0  0  0  0  0  0  0  0  0  0  0
    3.3272   -1.9407   -0.6285 H   0  0  0  0  0  0  0  0  0  0  0  0
    3.0460   -0.3702   -1.4298 H   0  0  0  0  0  0  0  0  0  0  0  0
    3.0348   -0.4432    0.3674 H   0  0  0  0  0  0  0  0  0  0  0  0
    2.1382    1.6981    1.0307 H   0  0  0  0  0  0  0  0  0  0  0  0
    1.2863    2.9468    0.0974 H   0  0  0  0  0  0  0  0  0  0  0  0
    0.4278    2.2120    1.4655 H   0  0  0  0  0  0  0  0  0  0  0  0
  1  2  1  0
  2  3  1  0
  3  4  2  0
  3  5  1  0
  5  6  1  0
  6  7  1  0
  5  8  1  0
  8  9  1  0
  1 10  1  0
  1 11  1  0
  1 12  1  0
  2 13  1  0
  2 14  1  0
  5 15  1  0
  6 16  1  0
  6 17  1  0
  7 18  1  0
  7 19  1  0
  7 20  1  0
  9 21  1  0
  9 22  1  0
  9 23  1  0
M  END
