
     RDKit          3D

 27 26  0  0  0  0  0  0  0  0999 V2000
   -3.7384    0.5780   -0.1316 C   0  0  0  0  0  0  0  0  0  0  0  0
   -2.3801    0.7293    0.5049 C   0  0  0  0  0  0  0  0  0  0  0  0
   -1.2659    0.2067   -0.3878 C   0  0  0  0  0  0  0  0  0  0  0  0
   -1.5544   -1.2609   -0.6270 C   0  0  0  0  0  0  0  0  0  0  0  0
    0.0180    0.3191    0.4102 C   0  0  0  0  0  0  0  0  0  0  0  0
    1.1141   -0.1233   -0.2850 O   0  0  0  0  0  0  0  0  0  0  0  0
    2.2408    0.0142    0.5156 C   0  0  0  0  0  0  0  0  0  0  0  0
    3.2512    0.9665   -0.1013 C   0  0  0  0  0  0  0  0  0  0  0  0
    2.9513   -1.3137    0.7145 C   0  0  0  0  0  0  0  0  0  0  0  0
   -3.6522    0.9437   -1.1851 H   0  0  0  0  0  0  0  0  0  0  0  0
   -4.1200   -0.4482   -0.0579 H   0  0  0  0  0  0  0  0  0  0  0  0
   -4.4270    1.2596    0.4478 H   0  0  0  0  0  0  0  0  0  0  0  0
   -2.3406    0.1897    1.4711 H   0  0  0  0  0  0  0  0  0  0  0  0
   -2.2005    1.8011    0.7425 H   0  0  0  0  0  0  0  0  0  0  0  0
   -1.2145    0.7553   -1.3390 H   0  0  0  0  0  0  0  0  0  0  0  0
   -1.4167   -1.7674    0.3726 H   0  0  0  0  0  0  0  0  0  0  0  0
   -0.7995   -1.7267   -1.2950 H   0  0  0  0  0  0  0  0  0  0  0  0
   -2.5874   -1.4515   -0.9559 H   0  0  0  0  0  0  0  0  0  0  0  0
    0.2088    1.3715    0.7116 H   0  0  0  0  0  0  0  0  0  0  0  0
   -0.0707   -0.2911    1.3304 H   0  0  0  0  0  0  0  0  0  0  0  0
    1.9657    0.4421    1.5011 H   0  0  0  0  0  0  0  0  0  0  0  0
    3.8906    0.4587   -0.8601 H   0  0  0  0  0  0  0  0  0  0  0  0
    3.9278    1.3060    0.7151 H   0  0  0  0  0  0  0  0  0  0  0  0
    2.7712    1.8622   -0.5423 H   0  0  0  0  0  0  0  0  0  0  0  0
    3.5948   -1.5439   -0.1435 H   0  0  0  0  0  0  0  0  0  0  0  0
    3.6195   -1.1664    1.6016 H   0  0  0  0  0  0  0  0  0  0  0  0
    2.2142   -2.1106    0.8796 H   0  0  0  0  0  0  0  0  0  0  0  0
  1  2  1  0
  2  3  1  0
  3  4  1  0
  3  5  1  0
  5  6  1  0
  6  7  1  0
  7  8  1  0
  7  9  1  0
  1 10  1  0
  1 11  1  0
  1 12  1  0
  2 13  1  0
  2 14  1  0
  3 15  1  0
  4 16  1  0
  4 17  1  0
  4 18  1  0
  5 19  1  0
  5 20  1  0
  7 21  1  0
  8 22  1  0
  8 23  1  0
  8 24  1  0
  9 25  1  0
  9 26  1  0
  9 27  1  0
M  END
