
     RDKit          3D

 21 22  0  0  0  0  0  0  0  0999 V2000
    3.4895   -0.2058   -0.1280 C   0  0  0  0  0  0  0  0  0  0  0  0
    2.2220   -0.2635    0.6797 C   0  0  0  0  0  0  0  0  0  0  0  0
    1.0576    0.0238   -0.1883 C   0  0  0  0  0  0  0  0  0  0  0  0
    1.2613    0.2548   -1.3664 O   0  0  0  0  0  0  0  0  0  0  0  0
   -0.3488    0.0312    0.3692 C   0  0  0  0  0  0  0  0  0  0  0  0
   -1.3476   -0.5919   -0.5317 C   0  0  0  0  0  0  0  0  0  0  0  0
   -2.8007   -0.6024   -0.1592 C   0  0  0  0  0  0  0  0  0  0  0  0
   -2.7501    0.9189   -0.1239 C   0  0  0  0  0  0  0  0  0  0  0  0
   -1.2796    0.9110   -0.3412 C   0  0  0  0  0  0  0  0  0  0  0  0
    4.0622    0.7270    0.0429 H   0  0  0  0  0  0  0  0  0  0  0  0
    4.1070   -1.1144   -0.0054 H   0  0  0  0  0  0  0  0  0  0  0  0
    3.2223   -0.1823   -1.2252 H   0  0  0  0  0  0  0  0  0  0  0  0
    2.1062   -1.3349    1.0093 H   0  0  0  0  0  0  0  0  0  0  0  0
    2.2471    0.4166    1.5533 H   0  0  0  0  0  0  0  0  0  0  0  0
   -0.4559   -0.1856    1.4405 H   0  0  0  0  0  0  0  0  0  0  0  0
   -1.0469   -1.0412   -1.4860 H   0  0  0  0  0  0  0  0  0  0  0  0
   -3.4389   -1.0277   -0.9484 H   0  0  0  0  0  0  0  0  0  0  0  0
   -3.0474   -0.9729    0.8505 H   0  0  0  0  0  0  0  0  0  0  0  0
   -3.3245    1.3268   -0.9802 H   0  0  0  0  0  0  0  0  0  0  0  0
   -3.0194    1.3722    0.8320 H   0  0  0  0  0  0  0  0  0  0  0  0
   -0.9154    1.5405   -1.1702 H   0  0  0  0  0  0  0  0  0  0  0  0
  1  2  1  0
  2  3  1  0
  3  4  2  0
  3  5  1  0
  5  6  1  0
  6  7  1  0
  7  8  1  0
  8  9  1  0
  9  5  1  0
  9  6  1  0
  1 10  1  0
  1 11  1  0
  1 12  1  0
  2 13  1  0
  2 14  1  0
  5 15  1  0
  6 16  1  0
  7 17  1  0
  7 18  1  0
  8 19  1  0
  8 20  1  0
  9 21  1  0
M  END
