
     RDKit          3D

 19 18  0  0  0  0  0  0  0  0999 V2000
    1.1828   -1.1054   -1.2987 C   0  0  0  0  0  0  0  0  0  0  0  0
    0.9282    0.3119   -0.9245 C   0  0  0  0  0  0  0  0  0  0  0  0
    0.2583    0.5490    0.3782 C   0  0  0  0  0  0  0  0  0  0  0  0
    0.1455    2.0604    0.4959 C   0  0  0  0  0  0  0  0  0  0  0  0
    0.4187    2.6437    1.5076 O   0  0  0  0  0  0  0  0  0  0  0  0
   -1.1241    0.0402    0.5502 C   0  0  0  0  0  0  0  0  0  0  0  0
   -1.5231    0.3988    1.8652 O   0  0  0  0  0  0  0  0  0  0  0  0
   -1.3586   -1.3820    0.3678 C   0  0  0  0  0  0  0  0  0  0  0  0
   -1.7804   -2.0566    1.2892 O   0  0  0  0  0  0  0  0  0  0  0  0
    0.5390   -1.4906   -2.1181 H   0  0  0  0  0  0  0  0  0  0  0  0
    1.1851   -1.7627   -0.4283 H   0  0  0  0  0  0  0  0  0  0  0  0
    2.2245   -1.1703   -1.7435 H   0  0  0  0  0  0  0  0  0  0  0  0
    1.9334    0.8280   -0.8460 H   0  0  0  0  0  0  0  0  0  0  0  0
    0.4459    0.8683   -1.7736 H   0  0  0  0  0  0  0  0  0  0  0  0
    0.9169    0.2304    1.1886 H   0  0  0  0  0  0  0  0  0  0  0  0
   -0.1963    2.5759   -0.3891 H   0  0  0  0  0  0  0  0  0  0  0  0
   -1.8625    0.5911   -0.1038 H   0  0  0  0  0  0  0  0  0  0  0  0
   -1.1513   -0.2409    2.5284 H   0  0  0  0  0  0  0  0  0  0  0  0
   -1.1820   -1.8893   -0.5454 H   0  0  0  0  0  0  0  0  0  0  0  0
  1  2  1  0
  2  3  1  0
  3  4  1  0
  4  5  2  0
  3  6  1  0
  6  7  1  0
  6  8  1  0
  8  9  2  0
  1 10  1  0
  1 11  1  0
  1 12  1  0
  2 13  1  0
  2 14  1  0
  3 15  1  0
  4 16  1  0
  6 17  1  0
  7 18  1  0
  8 19  1  0
M  END
