
     RDKit          3D

 21 22  0  0  0  0  0  0  0  0999 V2000
    2.7670    0.0628   -0.0852 C   0  0  0  0  0  0  0  0  0  0  0  0
    1.3615    0.1441    0.5020 C   0  0  0  0  0  0  0  0  0  0  0  0
    0.3552    0.1177   -0.6218 C   0  0  0  0  0  0  0  0  0  0  0  0
    0.4829   -1.0459   -1.3397 O   0  0  0  0  0  0  0  0  0  0  0  0
   -1.0329    0.3657   -0.1082 C   0  0  0  0  0  0  0  0  0  0  0  0
   -2.1917    0.3801   -1.0772 C   0  0  0  0  0  0  0  0  0  0  0  0
   -2.6832   -0.7409   -0.4298 O   0  0  0  0  0  0  0  0  0  0  0  0
   -1.7614   -0.7383    0.5827 C   0  0  0  0  0  0  0  0  0  0  0  0
   -1.3619    0.4852    1.3071 C   0  0  0  0  0  0  0  0  0  0  0  0
    3.3739   -0.4911    0.6588 H   0  0  0  0  0  0  0  0  0  0  0  0
    2.6750   -0.4609   -1.0524 H   0  0  0  0  0  0  0  0  0  0  0  0
    3.1517    1.1036   -0.2020 H   0  0  0  0  0  0  0  0  0  0  0  0
    1.3073    1.0768    1.0944 H   0  0  0  0  0  0  0  0  0  0  0  0
    1.1485   -0.7363    1.1532 H   0  0  0  0  0  0  0  0  0  0  0  0
    0.5988    0.9622   -1.3181 H   0  0  0  0  0  0  0  0  0  0  0  0
    0.5424   -1.8662   -0.7916 H   0  0  0  0  0  0  0  0  0  0  0  0
   -1.8397    0.2472   -2.0991 H   0  0  0  0  0  0  0  0  0  0  0  0
   -2.8306    1.2673   -0.8813 H   0  0  0  0  0  0  0  0  0  0  0  0
   -1.2503   -1.6837    0.8323 H   0  0  0  0  0  0  0  0  0  0  0  0
   -0.6040    0.3661    2.0858 H   0  0  0  0  0  0  0  0  0  0  0  0
   -2.2085    1.1847    1.5599 H   0  0  0  0  0  0  0  0  0  0  0  0
  1  2  1  0
  2  3  1  0
  3  4  1  0
  3  5  1  0
  5  6  1  0
  6  7  1  0
  7  8  1  0
  8  9  1  0
  8  5  1  0
  9  5  1  0
  1 10  1  0
  1 11  1  0
  1 12  1  0
  2 13  1  0
  2 14  1  0
  3 15  1  0
  4 16  1  0
  6 17  1  0
  6 18  1  0
  8 19  1  0
  9 20  1  0
  9 21  1  0
M  END
