
     RDKit          3D

 25 24  0  0  0  0  0  0  0  0999 V2000
    3.6102    0.6952    0.4362 C   0  0  0  0  0  0  0  0  0  0  0  0
    2.4600   -0.2611    0.6612 C   0  0  0  0  0  0  0  0  0  0  0  0
    1.4025   -0.1539   -0.3836 C   0  0  0  0  0  0  0  0  0  0  0  0
    1.5501    0.6597   -1.2752 O   0  0  0  0  0  0  0  0  0  0  0  0
    0.2259   -1.0274   -0.3025 C   0  0  0  0  0  0  0  0  0  0  0  0
   -1.0111   -0.3601    0.2559 C   0  0  0  0  0  0  0  0  0  0  0  0
   -2.0805   -1.4633    0.2433 C   0  0  0  0  0  0  0  0  0  0  0  0
   -1.4601    0.8133   -0.5877 C   0  0  0  0  0  0  0  0  0  0  0  0
   -2.7071    1.4516    0.0164 C   0  0  0  0  0  0  0  0  0  0  0  0
    4.3786    0.4180    1.2109 H   0  0  0  0  0  0  0  0  0  0  0  0
    3.2657    1.7186    0.5780 H   0  0  0  0  0  0  0  0  0  0  0  0
    4.0740    0.5032   -0.5593 H   0  0  0  0  0  0  0  0  0  0  0  0
    2.8864   -1.3036    0.6583 H   0  0  0  0  0  0  0  0  0  0  0  0
    2.0174   -0.0513    1.6605 H   0  0  0  0  0  0  0  0  0  0  0  0
    0.0187   -1.5222   -1.2759 H   0  0  0  0  0  0  0  0  0  0  0  0
    0.4303   -1.8780    0.3981 H   0  0  0  0  0  0  0  0  0  0  0  0
   -0.7666   -0.0563    1.2890 H   0  0  0  0  0  0  0  0  0  0  0  0
   -1.5614   -2.3749    0.6190 H   0  0  0  0  0  0  0  0  0  0  0  0
   -2.9613   -1.1937    0.8404 H   0  0  0  0  0  0  0  0  0  0  0  0
   -2.3222   -1.6210   -0.8329 H   0  0  0  0  0  0  0  0  0  0  0  0
   -0.6679    1.5839   -0.5395 H   0  0  0  0  0  0  0  0  0  0  0  0
   -1.7008    0.5234   -1.6122 H   0  0  0  0  0  0  0  0  0  0  0  0
   -2.9832    2.3432   -0.5750 H   0  0  0  0  0  0  0  0  0  0  0  0
   -2.5214    1.8023    1.0529 H   0  0  0  0  0  0  0  0  0  0  0  0
   -3.5762    0.7545   -0.0220 H   0  0  0  0  0  0  0  0  0  0  0  0
  1  2  1  0
  2  3  1  0
  3  4  2  0
  3  5  1  0
  5  6  1  0
  6  7  1  0
  6  8  1  0
  8  9  1  0
  1 10  1  0
  1 11  1  0
  1 12  1  0
  2 13  1  0
  2 14  1  0
  5 15  1  0
  5 16  1  0
  6 17  1  0
  7 18  1  0
  7 19  1  0
  7 20  1  0
  8 21  1  0
  8 22  1  0
  9 23  1  0
  9 24  1  0
  9 25  1  0
M  END
