
     RDKit          3D

 25 24  0  0  0  0  0  0  0  0999 V2000
   -2.4527   -1.0134    0.3538 C   0  0  0  0  0  0  0  0  0  0  0  0
   -1.1355   -0.8309   -0.3840 C   0  0  0  0  0  0  0  0  0  0  0  0
   -0.2192    0.0757    0.3617 C   0  0  0  0  0  0  0  0  0  0  0  0
   -0.7945    1.4572    0.5717 C   0  0  0  0  0  0  0  0  0  0  0  0
   -1.1145    2.1843   -0.6890 C   0  0  0  0  0  0  0  0  0  0  0  0
    1.1586    0.1351   -0.1772 C   0  0  0  0  0  0  0  0  0  0  0  0
    1.8851   -1.1529   -0.1736 C   0  0  0  0  0  0  0  0  0  0  0  0
    3.2653   -1.1929   -0.7504 C   0  0  0  0  0  0  0  0  0  0  0  0
    1.4516   -2.1966    0.2637 O   0  0  0  0  0  0  0  0  0  0  0  0
   -2.9021   -2.0113    0.1656 H   0  0  0  0  0  0  0  0  0  0  0  0
   -3.1903   -0.2495    0.0845 H   0  0  0  0  0  0  0  0  0  0  0  0
   -2.2680   -0.9766    1.4567 H   0  0  0  0  0  0  0  0  0  0  0  0
   -0.6810   -1.8340   -0.4326 H   0  0  0  0  0  0  0  0  0  0  0  0
   -1.3178   -0.5232   -1.4340 H   0  0  0  0  0  0  0  0  0  0  0  0
   -0.1442   -0.3578    1.4062 H   0  0  0  0  0  0  0  0  0  0  0  0
   -0.0118    2.0439    1.1204 H   0  0  0  0  0  0  0  0  0  0  0  0
   -1.6740    1.4205    1.2397 H   0  0  0  0  0  0  0  0  0  0  0  0
   -2.1074    1.9349   -1.1230 H   0  0  0  0  0  0  0  0  0  0  0  0
   -0.3138    2.1069   -1.4330 H   0  0  0  0  0  0  0  0  0  0  0  0
   -1.1757    3.2820   -0.4253 H   0  0  0  0  0  0  0  0  0  0  0  0
    1.0813    0.4228   -1.2700 H   0  0  0  0  0  0  0  0  0  0  0  0
    1.7854    0.9412    0.2576 H   0  0  0  0  0  0  0  0  0  0  0  0
    3.5313   -2.2297   -1.0689 H   0  0  0  0  0  0  0  0  0  0  0  0
    3.9596   -0.9373    0.0642 H   0  0  0  0  0  0  0  0  0  0  0  0
    3.3842   -0.4984   -1.5849 H   0  0  0  0  0  0  0  0  0  0  0  0
  1  2  1  0
  2  3  1  0
  3  4  1  0
  4  5  1  0
  3  6  1  0
  6  7  1  0
  7  8  1  0
  7  9  2  0
  1 10  1  0
  1 11  1  0
  1 12  1  0
  2 13  1  0
  2 14  1  0
  3 15  1  0
  4 16  1  0
  4 17  1  0
  5 18  1  0
  5 19  1  0
  5 20  1  0
  6 21  1  0
  6 22  1  0
  8 23  1  0
  8 24  1  0
  8 25  1  0
M  END
