
     RDKit          3D

 21 20  0  0  0  0  0  0  0  0999 V2000
    3.1730   -0.4656    0.2016 C   0  0  0  0  0  0  0  0  0  0  0  0
    1.9640    0.4279    0.3470 C   0  0  0  0  0  0  0  0  0  0  0  0
    0.8546   -0.1029   -0.4466 C   0  0  0  0  0  0  0  0  0  0  0  0
    1.0139   -1.1240   -1.0858 O   0  0  0  0  0  0  0  0  0  0  0  0
   -0.4965    0.5647   -0.5111 C   0  0  0  0  0  0  0  0  0  0  0  0
   -0.4193    1.6914    0.2922 O   0  0  0  0  0  0  0  0  0  0  0  0
   -1.5446   -0.4119   -0.0246 C   0  0  0  0  0  0  0  0  0  0  0  0
   -2.8799    0.2362    0.1770 C   0  0  0  0  0  0  0  0  0  0  0  0
   -1.6011   -1.5238   -0.8420 O   0  0  0  0  0  0  0  0  0  0  0  0
    3.0500   -1.1130   -0.7097 H   0  0  0  0  0  0  0  0  0  0  0  0
    4.1089    0.1084    0.0231 H   0  0  0  0  0  0  0  0  0  0  0  0
    3.2786   -1.1805    1.0541 H   0  0  0  0  0  0  0  0  0  0  0  0
    1.6819    0.3860    1.4368 H   0  0  0  0  0  0  0  0  0  0  0  0
    2.1949    1.4925    0.1348 H   0  0  0  0  0  0  0  0  0  0  0  0
   -0.7655    0.8319   -1.5546 H   0  0  0  0  0  0  0  0  0  0  0  0
   -1.2221    2.2703    0.1675 H   0  0  0  0  0  0  0  0  0  0  0  0
   -1.1973   -0.7613    0.9873 H   0  0  0  0  0  0  0  0  0  0  0  0
   -2.9011    0.7818    1.1327 H   0  0  0  0  0  0  0  0  0  0  0  0
   -3.6400   -0.5846    0.2660 H   0  0  0  0  0  0  0  0  0  0  0  0
   -3.1935    0.8560   -0.6946 H   0  0  0  0  0  0  0  0  0  0  0  0
   -1.4587   -2.3792   -0.3510 H   0  0  0  0  0  0  0  0  0  0  0  0
  1  2  1  0
  2  3  1  0
  3  4  2  0
  3  5  1  0
  5  6  1  0
  5  7  1  0
  7  8  1  0
  7  9  1  0
  1 10  1  0
  1 11  1  0
  1 12  1  0
  2 13  1  0
  2 14  1  0
  5 15  1  0
  6 16  1  0
  7 17  1  0
  8 18  1  0
  8 19  1  0
  8 20  1  0
  9 21  1  0
M  END
