
     RDKit          3D

 23 22  0  0  0  0  0  0  0  0999 V2000
   -2.4073   -1.3814    0.7643 C   0  0  0  0  0  0  0  0  0  0  0  0
   -1.0722   -0.6908    0.9670 C   0  0  0  0  0  0  0  0  0  0  0  0
   -0.4304   -0.2947   -0.3170 C   0  0  0  0  0  0  0  0  0  0  0  0
   -0.1532   -1.4662   -1.2304 C   0  0  0  0  0  0  0  0  0  0  0  0
   -1.3363    0.6554   -1.0546 C   0  0  0  0  0  0  0  0  0  0  0  0
    0.8568    0.3559    0.0259 C   0  0  0  0  0  0  0  0  0  0  0  0
    1.8990    0.8993    0.2909 C   0  0  0  0  0  0  0  0  0  0  0  0
    3.1862    1.5585    0.5928 C   0  0  0  0  0  0  0  0  0  0  0  0
    2.9710    2.8303    1.1405 O   0  0  0  0  0  0  0  0  0  0  0  0
   -2.2754   -2.4504    1.0712 H   0  0  0  0  0  0  0  0  0  0  0  0
   -2.7106   -1.3738   -0.3035 H   0  0  0  0  0  0  0  0  0  0  0  0
   -3.1912   -0.9710    1.4271 H   0  0  0  0  0  0  0  0  0  0  0  0
   -0.3936   -1.3233    1.6006 H   0  0  0  0  0  0  0  0  0  0  0  0
   -1.2672    0.2431    1.5442 H   0  0  0  0  0  0  0  0  0  0  0  0
   -0.9996   -2.1900   -1.0943 H   0  0  0  0  0  0  0  0  0  0  0  0
   -0.0538   -1.1489   -2.2902 H   0  0  0  0  0  0  0  0  0  0  0  0
    0.8153   -1.9326   -0.9554 H   0  0  0  0  0  0  0  0  0  0  0  0
   -2.2240    0.8410   -0.4234 H   0  0  0  0  0  0  0  0  0  0  0  0
   -1.7077    0.2276   -2.0070 H   0  0  0  0  0  0  0  0  0  0  0  0
   -0.7902    1.6089   -1.2812 H   0  0  0  0  0  0  0  0  0  0  0  0
    3.7457    1.7287   -0.3594 H   0  0  0  0  0  0  0  0  0  0  0  0
    3.7235    0.9261    1.2962 H   0  0  0  0  0  0  0  0  0  0  0  0
    3.8153    3.3483    1.0102 H   0  0  0  0  0  0  0  0  0  0  0  0
  1  2  1  0
  2  3  1  0
  3  4  1  0
  3  5  1  0
  3  6  1  0
  6  7  3  0
  7  8  1  0
  8  9  1  0
  1 10  1  0
  1 11  1  0
  1 12  1  0
  2 13  1  0
  2 14  1  0
  4 15  1  0
  4 16  1  0
  4 17  1  0
  5 18  1  0
  5 19  1  0
  5 20  1  0
  8 21  1  0
  8 22  1  0
  9 23  1  0
M  END
