
     RDKit          3D

 25 24  0  0  0  0  0  0  0  0999 V2000
   -1.0921    2.5926   -0.1289 C   0  0  0  0  0  0  0  0  0  0  0  0
   -1.2683    1.1044   -0.1963 C   0  0  0  0  0  0  0  0  0  0  0  0
   -0.0990    0.3220    0.2800 C   0  0  0  0  0  0  0  0  0  0  0  0
   -0.4821   -1.1461    0.1287 C   0  0  0  0  0  0  0  0  0  0  0  0
   -1.5978   -1.3353    0.9113 O   0  0  0  0  0  0  0  0  0  0  0  0
   -2.0260   -2.6551    0.8382 C   0  0  0  0  0  0  0  0  0  0  0  0
    1.1548    0.5361   -0.5121 C   0  0  0  0  0  0  0  0  0  0  0  0
    2.1748   -0.2404    0.0198 O   0  0  0  0  0  0  0  0  0  0  0  0
    3.3641   -0.0803   -0.6782 C   0  0  0  0  0  0  0  0  0  0  0  0
   -0.5354    2.9688   -0.9977 H   0  0  0  0  0  0  0  0  0  0  0  0
   -2.1191    3.0439   -0.2056 H   0  0  0  0  0  0  0  0  0  0  0  0
   -0.6928    2.9276    0.8399 H   0  0  0  0  0  0  0  0  0  0  0  0
   -2.1424    0.8362    0.4309 H   0  0  0  0  0  0  0  0  0  0  0  0
   -1.4719    0.8303   -1.2459 H   0  0  0  0  0  0  0  0  0  0  0  0
    0.1497    0.5227    1.3496 H   0  0  0  0  0  0  0  0  0  0  0  0
    0.3568   -1.8199    0.3663 H   0  0  0  0  0  0  0  0  0  0  0  0
   -0.8162   -1.2525   -0.9399 H   0  0  0  0  0  0  0  0  0  0  0  0
   -2.2734   -2.8957   -0.2082 H   0  0  0  0  0  0  0  0  0  0  0  0
   -1.1966   -3.2881    1.2055 H   0  0  0  0  0  0  0  0  0  0  0  0
   -2.9395   -2.7265    1.4693 H   0  0  0  0  0  0  0  0  0  0  0  0
    1.0022    0.2052   -1.5625 H   0  0  0  0  0  0  0  0  0  0  0  0
    1.4397    1.6139   -0.5768 H   0  0  0  0  0  0  0  0  0  0  0  0
    3.6437    0.9993   -0.6103 H   0  0  0  0  0  0  0  0  0  0  0  0
    4.1612   -0.6421   -0.1768 H   0  0  0  0  0  0  0  0  0  0  0  0
    3.3060   -0.4209   -1.7253 H   0  0  0  0  0  0  0  0  0  0  0  0
  1  2  1  0
  2  3  1  0
  3  4  1  0
  4  5  1  0
  5  6  1  0
  3  7  1  0
  7  8  1  0
  8  9  1  0
  1 10  1  0
  1 11  1  0
  1 12  1  0
  2 13  1  0
  2 14  1  0
  3 15  1  0
  4 16  1  0
  4 17  1  0
  6 18  1  0
  6 19  1  0
  6 20  1  0
  7 21  1  0
  7 22  1  0
  9 23  1  0
  9 24  1  0
  9 25  1  0
M  END
