
     RDKit          3D

 23 23  0  0  0  0  0  0  0  0999 V2000
   -2.6242   -0.7517    0.5107 C   0  0  0  0  0  0  0  0  0  0  0  0
   -2.0086    0.1198   -0.5263 C   0  0  0  0  0  0  0  0  0  0  0  0
   -0.7637   -0.3130   -1.1635 C   0  0  0  0  0  0  0  0  0  0  0  0
   -0.7059   -0.9370   -2.2305 O   0  0  0  0  0  0  0  0  0  0  0  0
    0.5635    0.0169   -0.5157 C   0  0  0  0  0  0  0  0  0  0  0  0
    0.8063   -0.7035    0.7629 C   0  0  0  0  0  0  0  0  0  0  0  0
    2.1353   -0.3354    1.4028 C   0  0  0  0  0  0  0  0  0  0  0  0
    0.7288    1.5222   -0.4797 C   0  0  0  0  0  0  0  0  0  0  0  0
    1.5549    0.6166   -1.3952 C   0  0  0  0  0  0  0  0  0  0  0  0
   -3.6618   -1.0742    0.1531 H   0  0  0  0  0  0  0  0  0  0  0  0
   -2.0364   -1.6379    0.7932 H   0  0  0  0  0  0  0  0  0  0  0  0
   -2.8161   -0.1508    1.4681 H   0  0  0  0  0  0  0  0  0  0  0  0
   -2.7748    0.3599   -1.3421 H   0  0  0  0  0  0  0  0  0  0  0  0
   -1.8455    1.1531   -0.0719 H   0  0  0  0  0  0  0  0  0  0  0  0
    0.0122   -0.6534    1.5001 H   0  0  0  0  0  0  0  0  0  0  0  0
    0.9562   -1.8050    0.4767 H   0  0  0  0  0  0  0  0  0  0  0  0
    2.9386   -0.4056    0.6694 H   0  0  0  0  0  0  0  0  0  0  0  0
    2.0800    0.6547    1.9029 H   0  0  0  0  0  0  0  0  0  0  0  0
    2.3072   -1.0757    2.2088 H   0  0  0  0  0  0  0  0  0  0  0  0
    1.2252    1.8981    0.4639 H   0  0  0  0  0  0  0  0  0  0  0  0
   -0.0698    2.1530   -0.8970 H   0  0  0  0  0  0  0  0  0  0  0  0
    2.6486    0.6284   -1.1946 H   0  0  0  0  0  0  0  0  0  0  0  0
    1.3502    0.7205   -2.4960 H   0  0  0  0  0  0  0  0  0  0  0  0
  1  2  1  0
  2  3  1  0
  3  4  2  0
  3  5  1  0
  5  6  1  0
  6  7  1  0
  5  8  1  0
  8  9  1  0
  9  5  1  0
  1 10  1  0
  1 11  1  0
  1 12  1  0
  2 13  1  0
  2 14  1  0
  6 15  1  0
  6 16  1  0
  7 17  1  0
  7 18  1  0
  7 19  1  0
  8 20  1  0
  8 21  1  0
  9 22  1  0
  9 23  1  0
M  END
