
     RDKit          3D

 27 26  0  0  0  0  0  0  0  0999 V2000
   -2.4776    1.2594   -0.6524 C   0  0  0  0  0  0  0  0  0  0  0  0
   -2.1664    0.0584    0.2088 C   0  0  0  0  0  0  0  0  0  0  0  0
   -0.7050   -0.3575    0.0886 C   0  0  0  0  0  0  0  0  0  0  0  0
   -0.4289   -0.6981   -1.3280 C   0  0  0  0  0  0  0  0  0  0  0  0
   -0.5597   -1.6241    0.9202 C   0  0  0  0  0  0  0  0  0  0  0  0
    0.1142    0.7657    0.6395 C   0  0  0  0  0  0  0  0  0  0  0  0
    1.5987    0.5126    0.5945 C   0  0  0  0  0  0  0  0  0  0  0  0
    2.0099    0.3176   -0.7142 O   0  0  0  0  0  0  0  0  0  0  0  0
    3.3548    0.0803   -0.8394 C   0  0  0  0  0  0  0  0  0  0  0  0
   -2.8850    2.0447    0.0048 H   0  0  0  0  0  0  0  0  0  0  0  0
   -3.2980    0.9885   -1.3570 H   0  0  0  0  0  0  0  0  0  0  0  0
   -1.6297    1.5898   -1.2659 H   0  0  0  0  0  0  0  0  0  0  0  0
   -2.3113    0.2924    1.3035 H   0  0  0  0  0  0  0  0  0  0  0  0
   -2.8147   -0.7987   -0.0555 H   0  0  0  0  0  0  0  0  0  0  0  0
    0.4576   -1.3727   -1.4359 H   0  0  0  0  0  0  0  0  0  0  0  0
   -1.2931   -1.3154   -1.7053 H   0  0  0  0  0  0  0  0  0  0  0  0
   -0.3583    0.1601   -2.0117 H   0  0  0  0  0  0  0  0  0  0  0  0
   -0.7429   -2.5322    0.2810 H   0  0  0  0  0  0  0  0  0  0  0  0
    0.4552   -1.6667    1.3134 H   0  0  0  0  0  0  0  0  0  0  0  0
   -1.2857   -1.6510    1.7563 H   0  0  0  0  0  0  0  0  0  0  0  0
   -0.0885    1.6744    0.0695 H   0  0  0  0  0  0  0  0  0  0  0  0
   -0.2237    0.9487    1.6806 H   0  0  0  0  0  0  0  0  0  0  0  0
    2.0861    1.4683    0.9324 H   0  0  0  0  0  0  0  0  0  0  0  0
    1.9376   -0.2653    1.2834 H   0  0  0  0  0  0  0  0  0  0  0  0
    3.6997   -0.8162   -0.2964 H   0  0  0  0  0  0  0  0  0  0  0  0
    3.9602    0.9465   -0.4549 H   0  0  0  0  0  0  0  0  0  0  0  0
    3.5943   -0.0096   -1.9166 H   0  0  0  0  0  0  0  0  0  0  0  0
  1  2  1  0
  2  3  1  0
  3  4  1  0
  3  5  1  0
  3  6  1  0
  6  7  1  0
  7  8  1  0
  8  9  1  0
  1 10  1  0
  1 11  1  0
  1 12  1  0
  2 13  1  0
  2 14  1  0
  4 15  1  0
  4 16  1  0
  4 17  1  0
  5 18  1  0
  5 19  1  0
  5 20  1  0
  6 21  1  0
  6 22  1  0
  7 23  1  0
  7 24  1  0
  9 25  1  0
  9 26  1  0
  9 27  1  0
M  END
