
     RDKit          3D

 17 16  0  0  0  0  0  0  0  0999 V2000
   -1.4463   -0.6830    0.7377 C   0  0  0  0  0  0  0  0  0  0  0  0
   -1.2207    0.5713   -0.0482 C   0  0  0  0  0  0  0  0  0  0  0  0
   -0.0298    0.5046   -0.9618 C   0  0  0  0  0  0  0  0  0  0  0  0
    0.0966    1.7307   -1.6683 O   0  0  0  0  0  0  0  0  0  0  0  0
    1.2570    0.2457   -0.3051 C   0  0  0  0  0  0  0  0  0  0  0  0
    1.6178   -0.9493    0.4687 C   0  0  0  0  0  0  0  0  0  0  0  0
    2.1285    1.1236   -0.4149 O   0  0  0  0  0  0  0  0  0  0  0  0
   -0.8874   -1.5674    0.3743 H   0  0  0  0  0  0  0  0  0  0  0  0
   -2.5378   -0.9236    0.8476 H   0  0  0  0  0  0  0  0  0  0  0  0
   -1.1090   -0.5289    1.8045 H   0  0  0  0  0  0  0  0  0  0  0  0
   -1.1802    1.4774    0.6016 H   0  0  0  0  0  0  0  0  0  0  0  0
   -2.1110    0.7175   -0.6991 H   0  0  0  0  0  0  0  0  0  0  0  0
   -0.2285   -0.2704   -1.7275 H   0  0  0  0  0  0  0  0  0  0  0  0
    0.3196    2.4294   -0.9925 H   0  0  0  0  0  0  0  0  0  0  0  0
    1.1838   -1.0495    1.4546 H   0  0  0  0  0  0  0  0  0  0  0  0
    2.7362   -0.9248    0.6316 H   0  0  0  0  0  0  0  0  0  0  0  0
    1.4110   -1.9032   -0.1031 H   0  0  0  0  0  0  0  0  0  0  0  0
  1  2  1  0
  2  3  1  0
  3  4  1  0
  3  5  1  0
  5  6  1  0
  5  7  2  0
  1  8  1  0
  1  9  1  0
  1 10  1  0
  2 11  1  0
  2 12  1  0
  3 13  1  0
  4 14  1  0
  6 15  1  0
  6 16  1  0
  6 17  1  0
M  END
