
     RDKit          3D

 25 25  0  0  0  0  0  0  0  0999 V2000
   -1.7303   -1.3583    0.7946 C   0  0  0  0  0  0  0  0  0  0  0  0
   -1.1329   -0.0201    1.0073 C   0  0  0  0  0  0  0  0  0  0  0  0
   -0.2413    0.5093   -0.0589 C   0  0  0  0  0  0  0  0  0  0  0  0
   -0.9348    0.6392   -1.4005 C   0  0  0  0  0  0  0  0  0  0  0  0
    0.0363    1.9746    0.3559 C   0  0  0  0  0  0  0  0  0  0  0  0
    1.0546   -0.2456   -0.1500 C   0  0  0  0  0  0  0  0  0  0  0  0
    1.0733   -1.7205   -0.4530 C   0  0  0  0  0  0  0  0  0  0  0  0
    2.2744    0.4812   -0.2902 C   0  0  0  0  0  0  0  0  0  0  0  0
    1.8806    0.0093    1.0642 O   0  0  0  0  0  0  0  0  0  0  0  0
   -1.8424   -1.6686   -0.2532 H   0  0  0  0  0  0  0  0  0  0  0  0
   -2.7870   -1.4258    1.2080 H   0  0  0  0  0  0  0  0  0  0  0  0
   -1.1922   -2.1354    1.3806 H   0  0  0  0  0  0  0  0  0  0  0  0
   -0.5387    0.0283    1.9649 H   0  0  0  0  0  0  0  0  0  0  0  0
   -1.9858    0.6957    1.2004 H   0  0  0  0  0  0  0  0  0  0  0  0
   -0.8526   -0.2754   -2.0139 H   0  0  0  0  0  0  0  0  0  0  0  0
   -1.9501    0.9928   -1.2341 H   0  0  0  0  0  0  0  0  0  0  0  0
   -0.3692    1.4294   -1.9687 H   0  0  0  0  0  0  0  0  0  0  0  0
    0.6976    1.9314    1.2205 H   0  0  0  0  0  0  0  0  0  0  0  0
    0.5366    2.5189   -0.4459 H   0  0  0  0  0  0  0  0  0  0  0  0
   -0.9421    2.3833    0.6427 H   0  0  0  0  0  0  0  0  0  0  0  0
    0.3162   -1.9634   -1.2017 H   0  0  0  0  0  0  0  0  0  0  0  0
    1.0030   -2.3396    0.4877 H   0  0  0  0  0  0  0  0  0  0  0  0
    2.0566   -1.9758   -0.9410 H   0  0  0  0  0  0  0  0  0  0  0  0
    3.2271   -0.0384   -0.5521 H   0  0  0  0  0  0  0  0  0  0  0  0
    2.3430    1.5735   -0.3635 H   0  0  0  0  0  0  0  0  0  0  0  0
  1  2  1  0
  2  3  1  0
  3  4  1  0
  3  5  1  0
  3  6  1  0
  6  7  1  0
  6  8  1  0
  8  9  1  0
  9  6  1  0
  1 10  1  0
  1 11  1  0
  1 12  1  0
  2 13  1  0
  2 14  1  0
  4 15  1  0
  4 16  1  0
  4 17  1  0
  5 18  1  0
  5 19  1  0
  5 20  1  0
  7 21  1  0
  7 22  1  0
  7 23  1  0
  8 24  1  0
  8 25  1  0
M  END
