
     RDKit          3D

 21 20  0  0  0  0  0  0  0  0999 V2000
    2.6009   -0.7327   -0.5854 C   0  0  0  0  0  0  0  0  0  0  0  0
    1.0829   -0.6945   -0.6939 C   0  0  0  0  0  0  0  0  0  0  0  0
    0.5889    0.1153    0.4943 C   0  0  0  0  0  0  0  0  0  0  0  0
    1.1424    1.3707    0.3964 O   0  0  0  0  0  0  0  0  0  0  0  0
   -0.9261    0.1604    0.5403 C   0  0  0  0  0  0  0  0  0  0  0  0
   -1.2921    0.9808    1.7180 C   0  0  0  0  0  0  0  0  0  0  0  0
   -0.9442    0.6643    2.8321 O   0  0  0  0  0  0  0  0  0  0  0  0
   -1.4502    0.7483   -0.6012 O   0  0  0  0  0  0  0  0  0  0  0  0
   -2.3167   -0.1510   -1.2112 C   0  0  0  0  0  0  0  0  0  0  0  0
    2.8332   -1.3991    0.2804 H   0  0  0  0  0  0  0  0  0  0  0  0
    3.0849   -1.0385   -1.5119 H   0  0  0  0  0  0  0  0  0  0  0  0
    2.8936    0.3082   -0.2583 H   0  0  0  0  0  0  0  0  0  0  0  0
    0.7512   -0.2194   -1.6368 H   0  0  0  0  0  0  0  0  0  0  0  0
    0.6339   -1.6952   -0.6130 H   0  0  0  0  0  0  0  0  0  0  0  0
    0.9261   -0.3947    1.4104 H   0  0  0  0  0  0  0  0  0  0  0  0
    1.2538    1.8112    1.2797 H   0  0  0  0  0  0  0  0  0  0  0  0
   -1.3569   -0.8590    0.6277 H   0  0  0  0  0  0  0  0  0  0  0  0
   -1.8758    1.8711    1.5821 H   0  0  0  0  0  0  0  0  0  0  0  0
   -2.7663    0.2692   -2.1330 H   0  0  0  0  0  0  0  0  0  0  0  0
   -1.7711   -1.0863   -1.4690 H   0  0  0  0  0  0  0  0  0  0  0  0
   -3.0926   -0.4145   -0.4475 H   0  0  0  0  0  0  0  0  0  0  0  0
  1  2  1  0
  2  3  1  0
  3  4  1  0
  3  5  1  0
  5  6  1  0
  6  7  2  0
  5  8  1  0
  8  9  1  0
  1 10  1  0
  1 11  1  0
  1 12  1  0
  2 13  1  0
  2 14  1  0
  3 15  1  0
  4 16  1  0
  5 17  1  0
  6 18  1  0
  9 19  1  0
  9 20  1  0
  9 21  1  0
M  END
