
     RDKit          3D

 20 19  0  0  0  0  0  0  0  0999 V2000
   -1.7477   -0.8788   -0.8432 C   0  0  0  0  0  0  0  0  0  0  0  0
   -0.2484   -0.8180   -0.7604 C   0  0  0  0  0  0  0  0  0  0  0  0
    0.2225    0.0036    0.4319 C   0  0  0  0  0  0  0  0  0  0  0  0
   -0.2122   -0.5020    1.6313 O   0  0  0  0  0  0  0  0  0  0  0  0
    1.7535    0.0164    0.3647 C   0  0  0  0  0  0  0  0  0  0  0  0
    2.2504   -1.2788    0.5016 O   0  0  0  0  0  0  0  0  0  0  0  0
   -0.2423    1.4223    0.1791 C   0  0  0  0  0  0  0  0  0  0  0  0
   -1.6134    1.5368    0.1581 O   0  0  0  0  0  0  0  0  0  0  0  0
   -2.0147   -1.8954   -1.2004 H   0  0  0  0  0  0  0  0  0  0  0  0
   -2.2395   -0.7474    0.1422 H   0  0  0  0  0  0  0  0  0  0  0  0
   -2.1588   -0.1655   -1.6034 H   0  0  0  0  0  0  0  0  0  0  0  0
    0.2070   -1.8056   -0.6722 H   0  0  0  0  0  0  0  0  0  0  0  0
    0.1171   -0.2751   -1.6655 H   0  0  0  0  0  0  0  0  0  0  0  0
    0.3930   -0.3738    2.3809 H   0  0  0  0  0  0  0  0  0  0  0  0
    2.1197    0.6784    1.1971 H   0  0  0  0  0  0  0  0  0  0  0  0
    2.1081    0.4082   -0.5957 H   0  0  0  0  0  0  0  0  0  0  0  0
    2.7785   -1.5613   -0.2991 H   0  0  0  0  0  0  0  0  0  0  0  0
    0.2111    1.7254   -0.8022 H   0  0  0  0  0  0  0  0  0  0  0  0
    0.2300    2.0819    0.9533 H   0  0  0  0  0  0  0  0  0  0  0  0
   -1.9141    2.4285    0.5018 H   0  0  0  0  0  0  0  0  0  0  0  0
  1  2  1  0
  2  3  1  0
  3  4  1  0
  3  5  1  0
  5  6  1  0
  3  7  1  0
  7  8  1  0
  1  9  1  0
  1 10  1  0
  1 11  1  0
  2 12  1  0
  2 13  1  0
  4 14  1  0
  5 15  1  0
  5 16  1  0
  6 17  1  0
  7 18  1  0
  7 19  1  0
  8 20  1  0
M  END
