
     RDKit          3D

 27 26  0  0  0  0  0  0  0  0999 V2000
   -2.2483   -0.3144    1.2945 C   0  0  0  0  0  0  0  0  0  0  0  0
   -1.6422   -0.8920    0.0691 C   0  0  0  0  0  0  0  0  0  0  0  0
   -0.8314    0.0706   -0.7453 C   0  0  0  0  0  0  0  0  0  0  0  0
   -1.7226    1.2093   -1.1846 C   0  0  0  0  0  0  0  0  0  0  0  0
    0.3452    0.6353   -0.0351 C   0  0  0  0  0  0  0  0  0  0  0  0
    1.0084    1.5048   -0.8881 O   0  0  0  0  0  0  0  0  0  0  0  0
    1.3196   -0.3792    0.4624 C   0  0  0  0  0  0  0  0  0  0  0  0
    2.4515    0.3833    1.1591 C   0  0  0  0  0  0  0  0  0  0  0  0
    1.9440   -1.2026   -0.6286 C   0  0  0  0  0  0  0  0  0  0  0  0
   -3.1671   -0.9268    1.5344 H   0  0  0  0  0  0  0  0  0  0  0  0
   -2.5936    0.7106    1.1749 H   0  0  0  0  0  0  0  0  0  0  0  0
   -1.6150   -0.3914    2.2006 H   0  0  0  0  0  0  0  0  0  0  0  0
   -1.0628   -1.8085    0.3024 H   0  0  0  0  0  0  0  0  0  0  0  0
   -2.4859   -1.2371   -0.5921 H   0  0  0  0  0  0  0  0  0  0  0  0
   -0.5000   -0.4657   -1.6606 H   0  0  0  0  0  0  0  0  0  0  0  0
   -2.7652    1.1065   -0.8187 H   0  0  0  0  0  0  0  0  0  0  0  0
   -1.8135    1.2496   -2.3091 H   0  0  0  0  0  0  0  0  0  0  0  0
   -1.3189    2.1993   -0.8970 H   0  0  0  0  0  0  0  0  0  0  0  0
   -0.0018    1.2305    0.8285 H   0  0  0  0  0  0  0  0  0  0  0  0
    1.1115    1.0663   -1.7745 H   0  0  0  0  0  0  0  0  0  0  0  0
    0.9035   -1.0825    1.2057 H   0  0  0  0  0  0  0  0  0  0  0  0
    2.0518    1.1123    1.8874 H   0  0  0  0  0  0  0  0  0  0  0  0
    3.0414    0.9092    0.3658 H   0  0  0  0  0  0  0  0  0  0  0  0
    3.1324   -0.3499    1.6170 H   0  0  0  0  0  0  0  0  0  0  0  0
    2.4610   -0.5834   -1.3747 H   0  0  0  0  0  0  0  0  0  0  0  0
    1.2466   -1.9370   -1.0607 H   0  0  0  0  0  0  0  0  0  0  0  0
    2.7514   -1.8173   -0.1324 H   0  0  0  0  0  0  0  0  0  0  0  0
  1  2  1  0
  2  3  1  0
  3  4  1  0
  3  5  1  0
  5  6  1  0
  5  7  1  0
  7  8  1  0
  7  9  1  0
  1 10  1  0
  1 11  1  0
  1 12  1  0
  2 13  1  0
  2 14  1  0
  3 15  1  0
  4 16  1  0
  4 17  1  0
  4 18  1  0
  5 19  1  0
  6 20  1  0
  7 21  1  0
  8 22  1  0
  8 23  1  0
  8 24  1  0
  9 25  1  0
  9 26  1  0
  9 27  1  0
M  END
