
     RDKit          3D

 19 18  0  0  0  0  0  0  0  0999 V2000
   -1.7835   -0.8758    0.1868 C   0  0  0  0  0  0  0  0  0  0  0  0
   -1.7979    0.6101    0.2180 C   0  0  0  0  0  0  0  0  0  0  0  0
   -0.5064    1.2658    0.0285 C   0  0  0  0  0  0  0  0  0  0  0  0
   -0.5146    2.4911    0.0500 O   0  0  0  0  0  0  0  0  0  0  0  0
    0.8015    0.6163   -0.1853 C   0  0  0  0  0  0  0  0  0  0  0  0
    1.3447    1.0861   -1.4884 C   0  0  0  0  0  0  0  0  0  0  0  0
    1.6737    0.2898   -2.3482 O   0  0  0  0  0  0  0  0  0  0  0  0
    0.7717   -0.7476   -0.2012 O   0  0  0  0  0  0  0  0  0  0  0  0
    1.6292   -1.3379    0.7234 C   0  0  0  0  0  0  0  0  0  0  0  0
   -2.8579   -1.2089    0.3020 H   0  0  0  0  0  0  0  0  0  0  0  0
   -1.4282   -1.3231   -0.7344 H   0  0  0  0  0  0  0  0  0  0  0  0
   -1.2480   -1.3043    1.0699 H   0  0  0  0  0  0  0  0  0  0  0  0
   -2.2348    0.9608    1.1690 H   0  0  0  0  0  0  0  0  0  0  0  0
   -2.4714    0.9531   -0.6223 H   0  0  0  0  0  0  0  0  0  0  0  0
    1.5343    0.9770    0.5963 H   0  0  0  0  0  0  0  0  0  0  0  0
    1.4706    2.1346   -1.7292 H   0  0  0  0  0  0  0  0  0  0  0  0
    1.5715   -2.4433    0.6746 H   0  0  0  0  0  0  0  0  0  0  0  0
    2.6912   -1.0750    0.5178 H   0  0  0  0  0  0  0  0  0  0  0  0
    1.3540   -1.0688    1.7726 H   0  0  0  0  0  0  0  0  0  0  0  0
  1  2  1  0
  2  3  1  0
  3  4  2  0
  3  5  1  0
  5  6  1  0
  6  7  2  0
  5  8  1  0
  8  9  1  0
  1 10  1  0
  1 11  1  0
  1 12  1  0
  2 13  1  0
  2 14  1  0
  5 15  1  0
  6 16  1  0
  9 17  1  0
  9 18  1  0
  9 19  1  0
M  END
