
     RDKit          3D

 21 22  0  0  0  0  0  0  0  0999 V2000
   -2.6895   -0.3547   -0.6285 C   0  0  0  0  0  0  0  0  0  0  0  0
   -1.2001   -0.5415   -0.5819 C   0  0  0  0  0  0  0  0  0  0  0  0
   -0.5258    0.5717    0.2315 C   0  0  0  0  0  0  0  0  0  0  0  0
   -0.8461    1.7648   -0.4137 O   0  0  0  0  0  0  0  0  0  0  0  0
    0.8282    0.3417    0.3501 C   0  0  0  0  0  0  0  0  0  0  0  0
    1.8255    0.1736   -0.7362 C   0  0  0  0  0  0  0  0  0  0  0  0
    2.5583    0.0658    0.5562 C   0  0  0  0  0  0  0  0  0  0  0  0
    1.4666   -0.8289    1.0422 C   0  0  0  0  0  0  0  0  0  0  0  0
    1.7624    1.1316    1.0027 O   0  0  0  0  0  0  0  0  0  0  0  0
   -3.0858    0.0516    0.3305 H   0  0  0  0  0  0  0  0  0  0  0  0
   -3.1356   -1.3658   -0.7410 H   0  0  0  0  0  0  0  0  0  0  0  0
   -3.0332    0.2524   -1.4876 H   0  0  0  0  0  0  0  0  0  0  0  0
   -0.8153   -0.4979   -1.6084 H   0  0  0  0  0  0  0  0  0  0  0  0
   -0.9615   -1.5233   -0.1459 H   0  0  0  0  0  0  0  0  0  0  0  0
   -1.0677    0.5973    1.2031 H   0  0  0  0  0  0  0  0  0  0  0  0
   -1.1858    2.4563    0.1836 H   0  0  0  0  0  0  0  0  0  0  0  0
    1.7682   -0.7198   -1.3620 H   0  0  0  0  0  0  0  0  0  0  0  0
    2.0402    1.1098   -1.3203 H   0  0  0  0  0  0  0  0  0  0  0  0
    3.5498   -0.0257    0.7082 H   0  0  0  0  0  0  0  0  0  0  0  0
    1.4397   -1.7839    0.5188 H   0  0  0  0  0  0  0  0  0  0  0  0
    1.3075   -0.8749    2.1392 H   0  0  0  0  0  0  0  0  0  0  0  0
  1  2  1  0
  2  3  1  0
  3  4  1  0
  3  5  1  0
  5  6  1  0
  6  7  1  0
  7  8  1  0
  7  9  1  0
  8  5  1  0
  9  5  1  0
  1 10  1  0
  1 11  1  0
  1 12  1  0
  2 13  1  0
  2 14  1  0
  3 15  1  0
  4 16  1  0
  6 17  1  0
  6 18  1  0
  7 19  1  0
  8 20  1  0
  8 21  1  0
M  END
