
     RDKit          3D

 21 20  0  0  0  0  0  0  0  0999 V2000
    2.7950   -0.5682   -0.0102 C   0  0  0  0  0  0  0  0  0  0  0  0
    1.6809   -0.0921    0.8624 C   0  0  0  0  0  0  0  0  0  0  0  0
    0.3640   -0.7593    0.5653 C   0  0  0  0  0  0  0  0  0  0  0  0
    0.0217   -1.6802    1.2847 O   0  0  0  0  0  0  0  0  0  0  0  0
   -0.4500   -0.2944   -0.5620 C   0  0  0  0  0  0  0  0  0  0  0  0
   -0.7691    1.2094   -0.4748 C   0  0  0  0  0  0  0  0  0  0  0  0
   -1.7788   -1.0184   -0.6769 C   0  0  0  0  0  0  0  0  0  0  0  0
   -2.6049   -0.8435    0.5228 C   0  0  0  0  0  0  0  0  0  0  0  0
   -2.8066   -1.7942    1.2511 O   0  0  0  0  0  0  0  0  0  0  0  0
    2.5321   -1.3499   -0.7300 H   0  0  0  0  0  0  0  0  0  0  0  0
    3.1634    0.3225   -0.6087 H   0  0  0  0  0  0  0  0  0  0  0  0
    3.6991   -0.8889    0.5680 H   0  0  0  0  0  0  0  0  0  0  0  0
    1.9677   -0.3157    1.9293 H   0  0  0  0  0  0  0  0  0  0  0  0
    1.5640    1.0210    0.8345 H   0  0  0  0  0  0  0  0  0  0  0  0
    0.0874   -0.4263   -1.5126 H   0  0  0  0  0  0  0  0  0  0  0  0
   -1.3280    1.4747    0.4166 H   0  0  0  0  0  0  0  0  0  0  0  0
   -1.4255    1.3850   -1.3736 H   0  0  0  0  0  0  0  0  0  0  0  0
    0.2222    1.7145   -0.5904 H   0  0  0  0  0  0  0  0  0  0  0  0
   -1.6096   -2.0891   -0.9046 H   0  0  0  0  0  0  0  0  0  0  0  0
   -2.2849   -0.5835   -1.5788 H   0  0  0  0  0  0  0  0  0  0  0  0
   -3.0399    0.1040    0.7880 H   0  0  0  0  0  0  0  0  0  0  0  0
  1  2  1  0
  2  3  1  0
  3  4  2  0
  3  5  1  0
  5  6  1  0
  5  7  1  0
  7  8  1  0
  8  9  2  0
  1 10  1  0
  1 11  1  0
  1 12  1  0
  2 13  1  0
  2 14  1  0
  5 15  1  0
  6 16  1  0
  6 17  1  0
  6 18  1  0
  7 19  1  0
  7 20  1  0
  8 21  1  0
M  END
