
     RDKit          3D

 19 19  0  0  0  0  0  0  0  0999 V2000
    2.6586    0.2437    0.1266 C   0  0  0  0  0  0  0  0  0  0  0  0
    1.4109    0.1529   -0.7215 C   0  0  0  0  0  0  0  0  0  0  0  0
    0.2257   -0.1296    0.1273 C   0  0  0  0  0  0  0  0  0  0  0  0
    0.0619    0.8806    1.0524 O   0  0  0  0  0  0  0  0  0  0  0  0
   -1.0268   -0.4175   -0.6518 C   0  0  0  0  0  0  0  0  0  0  0  0
   -2.2576   -0.7109    0.2327 C   0  0  0  0  0  0  0  0  0  0  0  0
   -2.1862    0.4674   -0.6644 C   0  0  0  0  0  0  0  0  0  0  0  0
    3.1785    1.2212    0.0219 H   0  0  0  0  0  0  0  0  0  0  0  0
    3.3356   -0.5909   -0.1161 H   0  0  0  0  0  0  0  0  0  0  0  0
    2.3830    0.1297    1.1940 H   0  0  0  0  0  0  0  0  0  0  0  0
    1.5790   -0.5725   -1.5323 H   0  0  0  0  0  0  0  0  0  0  0  0
    1.2951    1.1475   -1.2152 H   0  0  0  0  0  0  0  0  0  0  0  0
    0.4497   -1.0686    0.7149 H   0  0  0  0  0  0  0  0  0  0  0  0
   -0.1975    0.5170    1.9342 H   0  0  0  0  0  0  0  0  0  0  0  0
   -0.8807   -1.1040   -1.5157 H   0  0  0  0  0  0  0  0  0  0  0  0
   -2.1601   -0.4775    1.3176 H   0  0  0  0  0  0  0  0  0  0  0  0
   -2.8367   -1.6113   -0.0158 H   0  0  0  0  0  0  0  0  0  0  0  0
   -2.8481    0.4318   -1.5724 H   0  0  0  0  0  0  0  0  0  0  0  0
   -2.1843    1.4911   -0.2175 H   0  0  0  0  0  0  0  0  0  0  0  0
  1  2  1  0
  2  3  1  0
  3  4  1  0
  3  5  1  0
  5  6  1  0
  6  7  1  0
  7  5  1  0
  1  8  1  0
  1  9  1  0
  1 10  1  0
  2 11  1  0
  2 12  1  0
  3 13  1  0
  4 14  1  0
  5 15  1  0
  6 16  1  0
  6 17  1  0
  7 18  1  0
  7 19  1  0
M  END
