
     RDKit          3D

 24 23  0  0  0  0  0  0  0  0999 V2000
   -2.2855   -1.1796   -0.1385 C   0  0  0  0  0  0  0  0  0  0  0  0
   -0.7773   -1.2376   -0.2799 C   0  0  0  0  0  0  0  0  0  0  0  0
   -0.2101   -0.2142    0.6752 C   0  0  0  0  0  0  0  0  0  0  0  0
   -0.6399    1.1818    0.4339 C   0  0  0  0  0  0  0  0  0  0  0  0
   -0.3435    1.7897   -0.8806 C   0  0  0  0  0  0  0  0  0  0  0  0
    1.2057   -0.3858    1.0458 C   0  0  0  0  0  0  0  0  0  0  0  0
    2.2392   -0.3705   -0.0085 C   0  0  0  0  0  0  0  0  0  0  0  0
    2.3701    0.7603   -0.7559 O   0  0  0  0  0  0  0  0  0  0  0  0
   -2.6982   -0.2598   -0.6102 H   0  0  0  0  0  0  0  0  0  0  0  0
   -2.7722   -2.1036   -0.4824 H   0  0  0  0  0  0  0  0  0  0  0  0
   -2.5200   -1.0879    0.9478 H   0  0  0  0  0  0  0  0  0  0  0  0
   -0.4702   -1.0187   -1.3282 H   0  0  0  0  0  0  0  0  0  0  0  0
   -0.4198   -2.2239    0.0079 H   0  0  0  0  0  0  0  0  0  0  0  0
   -0.7780   -0.4975    1.6605 H   0  0  0  0  0  0  0  0  0  0  0  0
   -1.7401    1.2566    0.6305 H   0  0  0  0  0  0  0  0  0  0  0  0
   -0.1034    1.8120    1.2115 H   0  0  0  0  0  0  0  0  0  0  0  0
   -0.1485    1.0424   -1.6900 H   0  0  0  0  0  0  0  0  0  0  0  0
    0.4148    2.6090   -0.8771 H   0  0  0  0  0  0  0  0  0  0  0  0
   -1.2845    2.3355   -1.2208 H   0  0  0  0  0  0  0  0  0  0  0  0
    1.3740   -1.3394    1.6452 H   0  0  0  0  0  0  0  0  0  0  0  0
    1.4816    0.4041    1.8079 H   0  0  0  0  0  0  0  0  0  0  0  0
    2.1839   -1.3010   -0.6495 H   0  0  0  0  0  0  0  0  0  0  0  0
    3.2313   -0.4991    0.5267 H   0  0  0  0  0  0  0  0  0  0  0  0
    2.6904    0.5272   -1.6711 H   0  0  0  0  0  0  0  0  0  0  0  0
  1  2  1  0
  2  3  1  0
  3  4  1  0
  4  5  1  0
  3  6  1  0
  6  7  1  0
  7  8  1  0
  1  9  1  0
  1 10  1  0
  1 11  1  0
  2 12  1  0
  2 13  1  0
  3 14  1  0
  4 15  1  0
  4 16  1  0
  5 17  1  0
  5 18  1  0
  5 19  1  0
  6 20  1  0
  6 21  1  0
  7 22  1  0
  7 23  1  0
  8 24  1  0
M  END
