
     RDKit          3D

 21 20  0  0  0  0  0  0  0  0999 V2000
    3.1146    0.8758   -0.5150 C   0  0  0  0  0  0  0  0  0  0  0  0
    2.4468   -0.3164    0.0821 C   0  0  0  0  0  0  0  0  0  0  0  0
    1.0899   -0.0602    0.6228 C   0  0  0  0  0  0  0  0  0  0  0  0
    0.9530    0.5291    1.7149 O   0  0  0  0  0  0  0  0  0  0  0  0
   -0.0685   -0.4543   -0.0442 O   0  0  0  0  0  0  0  0  0  0  0  0
   -1.3763   -0.2600    0.3868 C   0  0  0  0  0  0  0  0  0  0  0  0
   -2.0184   -1.6194    0.5518 C   0  0  0  0  0  0  0  0  0  0  0  0
   -2.2320    0.5182   -0.5880 C   0  0  0  0  0  0  0  0  0  0  0  0
   -1.7147    1.7939   -0.8132 O   0  0  0  0  0  0  0  0  0  0  0  0
    3.7129    0.5715   -1.4282 H   0  0  0  0  0  0  0  0  0  0  0  0
    2.3977    1.6798   -0.7470 H   0  0  0  0  0  0  0  0  0  0  0  0
    3.8333    1.3084    0.2397 H   0  0  0  0  0  0  0  0  0  0  0  0
    3.0371   -0.7312    0.9532 H   0  0  0  0  0  0  0  0  0  0  0  0
    2.4354   -1.1256   -0.6885 H   0  0  0  0  0  0  0  0  0  0  0  0
   -1.4646    0.2530    1.3636 H   0  0  0  0  0  0  0  0  0  0  0  0
   -1.6419   -2.1096    1.4804 H   0  0  0  0  0  0  0  0  0  0  0  0
   -3.1059   -1.5847    0.5283 H   0  0  0  0  0  0  0  0  0  0  0  0
   -1.6912   -2.3097   -0.2839 H   0  0  0  0  0  0  0  0  0  0  0  0
   -3.2259    0.6288   -0.1044 H   0  0  0  0  0  0  0  0  0  0  0  0
   -2.4062   -0.0413   -1.5379 H   0  0  0  0  0  0  0  0  0  0  0  0
   -2.0749    2.4540   -0.1670 H   0  0  0  0  0  0  0  0  0  0  0  0
  1  2  1  0
  2  3  1  0
  3  4  2  0
  3  5  1  0
  5  6  1  0
  6  7  1  0
  6  8  1  0
  8  9  1  0
  1 10  1  0
  1 11  1  0
  1 12  1  0
  2 13  1  0
  2 14  1  0
  6 15  1  0
  7 16  1  0
  7 17  1  0
  7 18  1  0
  8 19  1  0
  8 20  1  0
  9 21  1  0
M  END
