
     RDKit          3D

 17 17  0  0  0  0  0  0  0  0999 V2000
   -2.9272   -0.5482   -0.1776 C   0  0  0  0  0  0  0  0  0  0  0  0
   -1.7027   -0.4900    0.6834 C   0  0  0  0  0  0  0  0  0  0  0  0
   -0.5281   -0.0455   -0.0741 C   0  0  0  0  0  0  0  0  0  0  0  0
   -0.6648    0.2243   -1.2958 O   0  0  0  0  0  0  0  0  0  0  0  0
    0.7964    0.1039    0.5047 C   0  0  0  0  0  0  0  0  0  0  0  0
    1.0144   -0.1480    1.7265 O   0  0  0  0  0  0  0  0  0  0  0  0
    1.9622    0.5570   -0.2961 C   0  0  0  0  0  0  0  0  0  0  0  0
    3.2145    0.8444    0.3141 C   0  0  0  0  0  0  0  0  0  0  0  0
    3.0403   -0.4556   -0.2695 O   0  0  0  0  0  0  0  0  0  0  0  0
   -2.6302   -0.8738   -1.1941 H   0  0  0  0  0  0  0  0  0  0  0  0
   -3.4193    0.4518   -0.3052 H   0  0  0  0  0  0  0  0  0  0  0  0
   -3.6684   -1.2909    0.2040 H   0  0  0  0  0  0  0  0  0  0  0  0
   -1.5573   -1.5242    1.1129 H   0  0  0  0  0  0  0  0  0  0  0  0
   -1.9359    0.1686    1.5506 H   0  0  0  0  0  0  0  0  0  0  0  0
    1.7385    0.7669   -1.3516 H   0  0  0  0  0  0  0  0  0  0  0  0
    3.2864    0.8285    1.4331 H   0  0  0  0  0  0  0  0  0  0  0  0
    3.9815    1.4310   -0.2057 H   0  0  0  0  0  0  0  0  0  0  0  0
  1  2  1  0
  2  3  1  0
  3  4  2  0
  3  5  1  0
  5  6  2  0
  5  7  1  0
  7  8  1  0
  8  9  1  0
  9  7  1  0
  1 10  1  0
  1 11  1  0
  1 12  1  0
  2 13  1  0
  2 14  1  0
  7 15  1  0
  8 16  1  0
  8 17  1  0
M  END
