
     RDKit          3D

 27 26  0  0  0  0  0  0  0  0999 V2000
    3.3907    0.6422   -0.1885 C   0  0  0  0  0  0  0  0  0  0  0  0
    1.9651    0.5972    0.3217 C   0  0  0  0  0  0  0  0  0  0  0  0
    1.0731   -0.1899   -0.6207 C   0  0  0  0  0  0  0  0  0  0  0  0
    1.5933   -1.6189   -0.7484 C   0  0  0  0  0  0  0  0  0  0  0  0
   -0.3197   -0.3207   -0.0226 C   0  0  0  0  0  0  0  0  0  0  0  0
   -0.9793    0.9754    0.2195 C   0  0  0  0  0  0  0  0  0  0  0  0
   -2.3291    0.8176    0.8502 C   0  0  0  0  0  0  0  0  0  0  0  0
   -3.3444    0.0390    0.0776 C   0  0  0  0  0  0  0  0  0  0  0  0
   -2.9381   -1.2526   -0.1093 O   0  0  0  0  0  0  0  0  0  0  0  0
    4.0556    0.4096    0.6684 H   0  0  0  0  0  0  0  0  0  0  0  0
    3.5886   -0.1250   -0.9588 H   0  0  0  0  0  0  0  0  0  0  0  0
    3.6817    1.6653   -0.5337 H   0  0  0  0  0  0  0  0  0  0  0  0
    1.9113    0.1921    1.3351 H   0  0  0  0  0  0  0  0  0  0  0  0
    1.6145    1.6578    0.3660 H   0  0  0  0  0  0  0  0  0  0  0  0
    1.0786    0.2747   -1.6100 H   0  0  0  0  0  0  0  0  0  0  0  0
    0.8727   -2.3770   -0.3942 H   0  0  0  0  0  0  0  0  0  0  0  0
    1.8107   -1.8711   -1.8078 H   0  0  0  0  0  0  0  0  0  0  0  0
    2.4931   -1.7178   -0.1216 H   0  0  0  0  0  0  0  0  0  0  0  0
   -0.2746   -0.9142    0.8855 H   0  0  0  0  0  0  0  0  0  0  0  0
   -0.9115   -0.8505   -0.8320 H   0  0  0  0  0  0  0  0  0  0  0  0
   -1.1151    1.5033   -0.7738 H   0  0  0  0  0  0  0  0  0  0  0  0
   -0.3456    1.6992    0.8068 H   0  0  0  0  0  0  0  0  0  0  0  0
   -2.7658    1.8081    1.1399 H   0  0  0  0  0  0  0  0  0  0  0  0
   -2.2398    0.2933    1.8583 H   0  0  0  0  0  0  0  0  0  0  0  0
   -3.6042    0.5663   -0.8702 H   0  0  0  0  0  0  0  0  0  0  0  0
   -4.2668   -0.0032    0.7355 H   0  0  0  0  0  0  0  0  0  0  0  0
   -3.6950   -1.9001   -0.1483 H   0  0  0  0  0  0  0  0  0  0  0  0
  1  2  1  0
  2  3  1  0
  3  4  1  0
  3  5  1  0
  5  6  1  0
  6  7  1  0
  7  8  1  0
  8  9  1  0
  1 10  1  0
  1 11  1  0
  1 12  1  0
  2 13  1  0
  2 14  1  0
  3 15  1  0
  4 16  1  0
  4 17  1  0
  4 18  1  0
  5 19  1  0
  5 20  1  0
  6 21  1  0
  6 22  1  0
  7 23  1  0
  7 24  1  0
  8 25  1  0
  8 26  1  0
  9 27  1  0
M  END
