
     RDKit          3D

 21 20  0  0  0  0  0  0  0  0999 V2000
    3.3980    0.2950   -0.2450 C   0  0  0  0  0  0  0  0  0  0  0  0
    2.2388   -0.5883    0.1123 C   0  0  0  0  0  0  0  0  0  0  0  0
    0.9385    0.1343    0.0517 C   0  0  0  0  0  0  0  0  0  0  0  0
    0.9833    1.3097   -0.2693 O   0  0  0  0  0  0  0  0  0  0  0  0
   -0.3579   -0.5270    0.3633 C   0  0  0  0  0  0  0  0  0  0  0  0
   -1.4605    0.4699    0.2088 C   0  0  0  0  0  0  0  0  0  0  0  0
   -1.4886    0.9533   -1.0985 O   0  0  0  0  0  0  0  0  0  0  0  0
   -2.8182   -0.0599    0.5356 C   0  0  0  0  0  0  0  0  0  0  0  0
   -3.2235   -1.0886   -0.2981 O   0  0  0  0  0  0  0  0  0  0  0  0
    4.2918   -0.3727   -0.3547 H   0  0  0  0  0  0  0  0  0  0  0  0
    3.5978    1.0832    0.4935 H   0  0  0  0  0  0  0  0  0  0  0  0
    3.1773    0.7497   -1.2378 H   0  0  0  0  0  0  0  0  0  0  0  0
    2.3915   -1.0202    1.1278 H   0  0  0  0  0  0  0  0  0  0  0  0
    2.2089   -1.4148   -0.6250 H   0  0  0  0  0  0  0  0  0  0  0  0
   -0.4535   -1.4076   -0.2930 H   0  0  0  0  0  0  0  0  0  0  0  0
   -0.3079   -0.8771    1.4140 H   0  0  0  0  0  0  0  0  0  0  0  0
   -1.2508    1.3112    0.9035 H   0  0  0  0  0  0  0  0  0  0  0  0
   -1.2197    1.9058   -1.1088 H   0  0  0  0  0  0  0  0  0  0  0  0
   -2.9172   -0.3780    1.6002 H   0  0  0  0  0  0  0  0  0  0  0  0
   -3.5428    0.7736    0.4080 H   0  0  0  0  0  0  0  0  0  0  0  0
   -4.1852   -1.2515   -0.1308 H   0  0  0  0  0  0  0  0  0  0  0  0
  1  2  1  0
  2  3  1  0
  3  4  2  0
  3  5  1  0
  5  6  1  0
  6  7  1  0
  6  8  1  0
  8  9  1  0
  1 10  1  0
  1 11  1  0
  1 12  1  0
  2 13  1  0
  2 14  1  0
  5 15  1  0
  5 16  1  0
  6 17  1  0
  7 18  1  0
  8 19  1  0
  8 20  1  0
  9 21  1  0
M  END
