
     RDKit          3D

 21 21  0  0  0  0  0  0  0  0999 V2000
   -2.2201   -1.0814   -0.1963 C   0  0  0  0  0  0  0  0  0  0  0  0
   -0.7769   -1.1147    0.2076 C   0  0  0  0  0  0  0  0  0  0  0  0
    0.0103    0.0827   -0.1821 C   0  0  0  0  0  0  0  0  0  0  0  0
    1.4099   -0.1146    0.2924 C   0  0  0  0  0  0  0  0  0  0  0  0
    2.2770   -1.2336   -0.1375 C   0  0  0  0  0  0  0  0  0  0  0  0
    1.8676    0.6896    1.0786 O   0  0  0  0  0  0  0  0  0  0  0  0
   -0.5466    1.3893    0.2324 C   0  0  0  0  0  0  0  0  0  0  0  0
    0.2174    2.6151   -0.1417 C   0  0  0  0  0  0  0  0  0  0  0  0
   -0.9862    2.2942   -0.8206 O   0  0  0  0  0  0  0  0  0  0  0  0
   -2.3705   -1.5450   -1.1952 H   0  0  0  0  0  0  0  0  0  0  0  0
   -2.6494   -0.0692   -0.2543 H   0  0  0  0  0  0  0  0  0  0  0  0
   -2.8180   -1.7136    0.5113 H   0  0  0  0  0  0  0  0  0  0  0  0
   -0.3183   -2.0041   -0.2791 H   0  0  0  0  0  0  0  0  0  0  0  0
   -0.7150   -1.2781    1.3004 H   0  0  0  0  0  0  0  0  0  0  0  0
    0.0792    0.0828   -1.3089 H   0  0  0  0  0  0  0  0  0  0  0  0
    2.9677   -1.5689    0.6881 H   0  0  0  0  0  0  0  0  0  0  0  0
    1.7131   -2.1392   -0.4262 H   0  0  0  0  0  0  0  0  0  0  0  0
    2.8632   -0.9253   -1.0409 H   0  0  0  0  0  0  0  0  0  0  0  0
   -1.1806    1.5051    1.1309 H   0  0  0  0  0  0  0  0  0  0  0  0
    0.0917    3.5472    0.4801 H   0  0  0  0  0  0  0  0  0  0  0  0
    1.0845    2.5819   -0.8085 H   0  0  0  0  0  0  0  0  0  0  0  0
  1  2  1  0
  2  3  1  0
  3  4  1  0
  4  5  1  0
  4  6  2  0
  3  7  1  0
  7  8  1  0
  8  9  1  0
  9  7  1  0
  1 10  1  0
  1 11  1  0
  1 12  1  0
  2 13  1  0
  2 14  1  0
  3 15  1  0
  5 16  1  0
  5 17  1  0
  5 18  1  0
  7 19  1  0
  8 20  1  0
  8 21  1  0
M  END
