
     RDKit          3D

 25 25  0  0  0  0  0  0  0  0999 V2000
   -1.1866   -2.1495    0.3887 C   0  0  0  0  0  0  0  0  0  0  0  0
   -1.2200   -0.7717   -0.1657 C   0  0  0  0  0  0  0  0  0  0  0  0
   -0.1384    0.1500    0.2741 C   0  0  0  0  0  0  0  0  0  0  0  0
   -0.4449    1.4845   -0.4453 C   0  0  0  0  0  0  0  0  0  0  0  0
   -1.7795    2.0215   -0.0714 C   0  0  0  0  0  0  0  0  0  0  0  0
    1.2544   -0.2227   -0.0870 C   0  0  0  0  0  0  0  0  0  0  0  0
    2.2703    0.8162    0.4330 C   0  0  0  0  0  0  0  0  0  0  0  0
    1.7826   -1.5431   -0.3255 C   0  0  0  0  0  0  0  0  0  0  0  0
    1.5557   -0.6120   -1.3938 O   0  0  0  0  0  0  0  0  0  0  0  0
   -1.0788   -2.9440   -0.3873 H   0  0  0  0  0  0  0  0  0  0  0  0
   -2.1843   -2.3912    0.8680 H   0  0  0  0  0  0  0  0  0  0  0  0
   -0.4659   -2.2392    1.2236 H   0  0  0  0  0  0  0  0  0  0  0  0
   -2.1862   -0.2889    0.1662 H   0  0  0  0  0  0  0  0  0  0  0  0
   -1.2724   -0.7419   -1.2723 H   0  0  0  0  0  0  0  0  0  0  0  0
   -0.1640    0.3756    1.3616 H   0  0  0  0  0  0  0  0  0  0  0  0
    0.3683    2.2114   -0.2653 H   0  0  0  0  0  0  0  0  0  0  0  0
   -0.4149    1.2210   -1.5249 H   0  0  0  0  0  0  0  0  0  0  0  0
   -1.6838    3.1459   -0.0230 H   0  0  0  0  0  0  0  0  0  0  0  0
   -2.0747    1.6845    0.9600 H   0  0  0  0  0  0  0  0  0  0  0  0
   -2.5808    1.8316   -0.8070 H   0  0  0  0  0  0  0  0  0  0  0  0
    1.8833    1.3112    1.3518 H   0  0  0  0  0  0  0  0  0  0  0  0
    3.2227    0.3268    0.7132 H   0  0  0  0  0  0  0  0  0  0  0  0
    2.3962    1.5320   -0.4077 H   0  0  0  0  0  0  0  0  0  0  0  0
    2.8899   -1.7168   -0.1641 H   0  0  0  0  0  0  0  0  0  0  0  0
    1.2520   -2.4914   -0.3998 H   0  0  0  0  0  0  0  0  0  0  0  0
  1  2  1  0
  2  3  1  0
  3  4  1  0
  4  5  1  0
  3  6  1  0
  6  7  1  0
  6  8  1  0
  8  9  1  0
  9  6  1  0
  1 10  1  0
  1 11  1  0
  1 12  1  0
  2 13  1  0
  2 14  1  0
  3 15  1  0
  4 16  1  0
  4 17  1  0
  5 18  1  0
  5 19  1  0
  5 20  1  0
  7 21  1  0
  7 22  1  0
  7 23  1  0
  8 24  1  0
  8 25  1  0
M  END
