
     RDKit          3D

 21 20  0  0  0  0  0  0  0  0999 V2000
   -1.7368    0.3324   -1.0570 C   0  0  0  0  0  0  0  0  0  0  0  0
   -1.6387   -0.0123    0.4127 C   0  0  0  0  0  0  0  0  0  0  0  0
   -0.3008    0.3576    0.9832 C   0  0  0  0  0  0  0  0  0  0  0  0
   -0.1461    1.7352    0.8170 O   0  0  0  0  0  0  0  0  0  0  0  0
    0.8607   -0.3033    0.3134 C   0  0  0  0  0  0  0  0  0  0  0  0
    0.9510   -1.7746    0.4833 C   0  0  0  0  0  0  0  0  0  0  0  0
    0.8857    0.0215   -1.0643 O   0  0  0  0  0  0  0  0  0  0  0  0
    1.8753    0.7571   -1.6622 C   0  0  0  0  0  0  0  0  0  0  0  0
    2.8263    1.1777   -0.9626 O   0  0  0  0  0  0  0  0  0  0  0  0
   -1.1523    1.2328   -1.2781 H   0  0  0  0  0  0  0  0  0  0  0  0
   -1.3156   -0.4970   -1.6556 H   0  0  0  0  0  0  0  0  0  0  0  0
   -2.8059    0.4989   -1.2991 H   0  0  0  0  0  0  0  0  0  0  0  0
   -2.3972    0.6116    0.9326 H   0  0  0  0  0  0  0  0  0  0  0  0
   -1.9241   -1.0641    0.6051 H   0  0  0  0  0  0  0  0  0  0  0  0
   -0.3172    0.1525    2.0697 H   0  0  0  0  0  0  0  0  0  0  0  0
   -0.3631    2.2460    1.6286 H   0  0  0  0  0  0  0  0  0  0  0  0
    1.7759    0.1463    0.7872 H   0  0  0  0  0  0  0  0  0  0  0  0
    1.8485   -2.0888    1.0772 H   0  0  0  0  0  0  0  0  0  0  0  0
    1.0865   -2.2884   -0.5102 H   0  0  0  0  0  0  0  0  0  0  0  0
    0.0873   -2.2526    0.9593 H   0  0  0  0  0  0  0  0  0  0  0  0
    1.9006    1.0112   -2.7244 H   0  0  0  0  0  0  0  0  0  0  0  0
  1  2  1  0
  2  3  1  0
  3  4  1  0
  3  5  1  0
  5  6  1  0
  5  7  1  0
  7  8  1  0
  8  9  2  0
  1 10  1  0
  1 11  1  0
  1 12  1  0
  2 13  1  0
  2 14  1  0
  3 15  1  0
  4 16  1  0
  5 17  1  0
  6 18  1  0
  6 19  1  0
  6 20  1  0
  8 21  1  0
M  END
