
     RDKit          3D

 20 19  0  0  0  0  0  0  0  0999 V2000
    2.7505   -0.8321   -0.1865 C   0  0  0  0  0  0  0  0  0  0  0  0
    1.7879    0.1114    0.5195 C   0  0  0  0  0  0  0  0  0  0  0  0
    0.4072   -0.4317    0.5618 C   0  0  0  0  0  0  0  0  0  0  0  0
    0.2222   -1.5192    0.0483 O   0  0  0  0  0  0  0  0  0  0  0  0
   -0.6473    0.3449    1.2038 C   0  0  0  0  0  0  0  0  0  0  0  0
   -0.0959    1.5296    1.6821 O   0  0  0  0  0  0  0  0  0  0  0  0
   -1.7882    0.7201    0.3039 C   0  0  0  0  0  0  0  0  0  0  0  0
   -2.5018   -0.4648   -0.2861 C   0  0  0  0  0  0  0  0  0  0  0  0
    2.1188   -1.6251   -0.6488 H   0  0  0  0  0  0  0  0  0  0  0  0
    3.4778   -1.2467    0.5396 H   0  0  0  0  0  0  0  0  0  0  0  0
    3.3608   -0.2941   -0.9552 H   0  0  0  0  0  0  0  0  0  0  0  0
    2.1442    0.2958    1.5753 H   0  0  0  0  0  0  0  0  0  0  0  0
    1.7424    1.0811   -0.0427 H   0  0  0  0  0  0  0  0  0  0  0  0
   -0.9796   -0.2211    2.1028 H   0  0  0  0  0  0  0  0  0  0  0  0
    0.0300    2.1192    0.8980 H   0  0  0  0  0  0  0  0  0  0  0  0
   -1.3599    1.3003   -0.5429 H   0  0  0  0  0  0  0  0  0  0  0  0
   -2.4920    1.3262    0.8758 H   0  0  0  0  0  0  0  0  0  0  0  0
   -1.9307   -0.8980   -1.1364 H   0  0  0  0  0  0  0  0  0  0  0  0
   -2.7964   -1.2152    0.4632 H   0  0  0  0  0  0  0  0  0  0  0  0
   -3.4502   -0.0806   -0.7369 H   0  0  0  0  0  0  0  0  0  0  0  0
  1  2  1  0
  2  3  1  0
  3  4  2  0
  3  5  1  0
  5  6  1  0
  5  7  1  0
  7  8  1  0
  1  9  1  0
  1 10  1  0
  1 11  1  0
  2 12  1  0
  2 13  1  0
  5 14  1  0
  6 15  1  0
  7 16  1  0
  7 17  1  0
  8 18  1  0
  8 19  1  0
  8 20  1  0
M  END
