
     RDKit          3D

 21 21  0  0  0  0  0  0  0  0999 V2000
    2.7159    0.1055    0.7011 C   0  0  0  0  0  0  0  0  0  0  0  0
    1.2413   -0.2641    0.8335 C   0  0  0  0  0  0  0  0  0  0  0  0
    0.5268    0.2858   -0.3431 C   0  0  0  0  0  0  0  0  0  0  0  0
    0.6788    1.6733   -0.3687 O   0  0  0  0  0  0  0  0  0  0  0  0
   -0.9125   -0.1038   -0.4462 C   0  0  0  0  0  0  0  0  0  0  0  0
   -1.5269    0.3457   -1.6321 O   0  0  0  0  0  0  0  0  0  0  0  0
   -1.4747   -1.3128    0.1449 C   0  0  0  0  0  0  0  0  0  0  0  0
   -1.7988    0.0761    0.7681 C   0  0  0  0  0  0  0  0  0  0  0  0
   -3.1082    0.5018    0.5972 O   0  0  0  0  0  0  0  0  0  0  0  0
    2.9983    0.8996    1.4158 H   0  0  0  0  0  0  0  0  0  0  0  0
    3.3686   -0.7975    0.7909 H   0  0  0  0  0  0  0  0  0  0  0  0
    2.9352    0.5241   -0.3155 H   0  0  0  0  0  0  0  0  0  0  0  0
    0.8889    0.1623    1.7940 H   0  0  0  0  0  0  0  0  0  0  0  0
    1.1911   -1.3783    0.8593 H   0  0  0  0  0  0  0  0  0  0  0  0
    1.0394   -0.0920   -1.2651 H   0  0  0  0  0  0  0  0  0  0  0  0
    0.4310    2.0789    0.4926 H   0  0  0  0  0  0  0  0  0  0  0  0
   -1.4750   -0.4263   -2.2626 H   0  0  0  0  0  0  0  0  0  0  0  0
   -2.3341   -1.8193   -0.3656 H   0  0  0  0  0  0  0  0  0  0  0  0
   -0.9327   -1.9849    0.8267 H   0  0  0  0  0  0  0  0  0  0  0  0
   -1.3160    0.2980    1.7393 H   0  0  0  0  0  0  0  0  0  0  0  0
   -3.1364    1.2282   -0.0948 H   0  0  0  0  0  0  0  0  0  0  0  0
  1  2  1  0
  2  3  1  0
  3  4  1  0
  3  5  1  0
  5  6  1  0
  5  7  1  0
  7  8  1  0
  8  9  1  0
  8  5  1  0
  1 10  1  0
  1 11  1  0
  1 12  1  0
  2 13  1  0
  2 14  1  0
  3 15  1  0
  4 16  1  0
  6 17  1  0
  7 18  1  0
  7 19  1  0
  8 20  1  0
  9 21  1  0
M  END
