
     RDKit          3D

 25 24  0  0  0  0  0  0  0  0999 V2000
   -1.9350    1.2241   -0.4923 C   0  0  0  0  0  0  0  0  0  0  0  0
   -1.4440    0.1620    0.4234 C   0  0  0  0  0  0  0  0  0  0  0  0
   -0.3102   -0.6587   -0.1260 C   0  0  0  0  0  0  0  0  0  0  0  0
    0.0405   -1.6732    0.9466 C   0  0  0  0  0  0  0  0  0  0  0  0
   -0.6827   -1.4216   -1.3610 C   0  0  0  0  0  0  0  0  0  0  0  0
    0.9187    0.1641   -0.4229 C   0  0  0  0  0  0  0  0  0  0  0  0
    1.4543    0.8544    0.8108 C   0  0  0  0  0  0  0  0  0  0  0  0
    2.6553    1.6333    0.4173 C   0  0  0  0  0  0  0  0  0  0  0  0
    3.0365    1.6300   -0.7371 O   0  0  0  0  0  0  0  0  0  0  0  0
   -1.3942    2.1971   -0.3923 H   0  0  0  0  0  0  0  0  0  0  0  0
   -2.9955    1.4648   -0.1853 H   0  0  0  0  0  0  0  0  0  0  0  0
   -2.0099    0.9022   -1.5518 H   0  0  0  0  0  0  0  0  0  0  0  0
   -2.2867   -0.5453    0.6108 H   0  0  0  0  0  0  0  0  0  0  0  0
   -1.2049    0.6125    1.4023 H   0  0  0  0  0  0  0  0  0  0  0  0
    0.2124   -1.1771    1.9345 H   0  0  0  0  0  0  0  0  0  0  0  0
   -0.8760   -2.3079    1.0962 H   0  0  0  0  0  0  0  0  0  0  0  0
    0.8651   -2.3403    0.6544 H   0  0  0  0  0  0  0  0  0  0  0  0
   -0.8256   -0.7798   -2.2526 H   0  0  0  0  0  0  0  0  0  0  0  0
    0.2038   -2.0722   -1.6090 H   0  0  0  0  0  0  0  0  0  0  0  0
   -1.5551   -2.0978   -1.1907 H   0  0  0  0  0  0  0  0  0  0  0  0
    1.7263   -0.5051   -0.7856 H   0  0  0  0  0  0  0  0  0  0  0  0
    0.7574    0.9203   -1.1967 H   0  0  0  0  0  0  0  0  0  0  0  0
    0.6642    1.4992    1.2517 H   0  0  0  0  0  0  0  0  0  0  0  0
    1.8019    0.1102    1.5717 H   0  0  0  0  0  0  0  0  0  0  0  0
    3.1834    2.2045    1.1838 H   0  0  0  0  0  0  0  0  0  0  0  0
  1  2  1  0
  2  3  1  0
  3  4  1  0
  3  5  1  0
  3  6  1  0
  6  7  1  0
  7  8  1  0
  8  9  2  0
  1 10  1  0
  1 11  1  0
  1 12  1  0
  2 13  1  0
  2 14  1  0
  4 15  1  0
  4 16  1  0
  4 17  1  0
  5 18  1  0
  5 19  1  0
  5 20  1  0
  6 21  1  0
  6 22  1  0
  7 23  1  0
  7 24  1  0
  8 25  1  0
M  END
