
     RDKit          3D

 25 25  0  0  0  0  0  0  0  0999 V2000
   -2.6337    1.1764    0.0051 C   0  0  0  0  0  0  0  0  0  0  0  0
   -2.1211   -0.1809    0.3625 C   0  0  0  0  0  0  0  0  0  0  0  0
   -0.7992   -0.5098   -0.2936 C   0  0  0  0  0  0  0  0  0  0  0  0
   -0.9744   -0.4579   -1.7924 C   0  0  0  0  0  0  0  0  0  0  0  0
    0.3161    0.3681    0.1880 C   0  0  0  0  0  0  0  0  0  0  0  0
    0.7423    0.4477    1.5745 C   0  0  0  0  0  0  0  0  0  0  0  0
    1.5986   -0.2880    0.5241 C   0  0  0  0  0  0  0  0  0  0  0  0
    2.9144    0.3469    0.1540 C   0  0  0  0  0  0  0  0  0  0  0  0
    3.9411   -0.4856    0.5913 O   0  0  0  0  0  0  0  0  0  0  0  0
   -1.8928    1.7559   -0.6050 H   0  0  0  0  0  0  0  0  0  0  0  0
   -2.9477    1.7601    0.9125 H   0  0  0  0  0  0  0  0  0  0  0  0
   -3.5557    1.1414   -0.6401 H   0  0  0  0  0  0  0  0  0  0  0  0
   -2.8585   -0.9295   -0.0460 H   0  0  0  0  0  0  0  0  0  0  0  0
   -2.0923   -0.3649    1.4591 H   0  0  0  0  0  0  0  0  0  0  0  0
   -0.5619   -1.5559   -0.0163 H   0  0  0  0  0  0  0  0  0  0  0  0
   -0.5067   -1.3125   -2.3148 H   0  0  0  0  0  0  0  0  0  0  0  0
   -2.0598   -0.4007   -2.0816 H   0  0  0  0  0  0  0  0  0  0  0  0
   -0.4934    0.4908   -2.1360 H   0  0  0  0  0  0  0  0  0  0  0  0
    0.4277    1.3124   -0.4182 H   0  0  0  0  0  0  0  0  0  0  0  0
    0.3658   -0.1993    2.3876 H   0  0  0  0  0  0  0  0  0  0  0  0
    1.1742    1.4071    1.9595 H   0  0  0  0  0  0  0  0  0  0  0  0
    1.6372   -1.4114    0.6208 H   0  0  0  0  0  0  0  0  0  0  0  0
    3.0239    1.3065    0.7088 H   0  0  0  0  0  0  0  0  0  0  0  0
    2.9914    0.5502   -0.9339 H   0  0  0  0  0  0  0  0  0  0  0  0
    4.3645   -0.9815   -0.1700 H   0  0  0  0  0  0  0  0  0  0  0  0
  1  2  1  0
  2  3  1  0
  3  4  1  0
  3  5  1  0
  5  6  1  0
  6  7  1  0
  7  8  1  0
  8  9  1  0
  7  5  1  0
  1 10  1  0
  1 11  1  0
  1 12  1  0
  2 13  1  0
  2 14  1  0
  3 15  1  0
  4 16  1  0
  4 17  1  0
  4 18  1  0
  5 19  1  0
  6 20  1  0
  6 21  1  0
  7 22  1  0
  8 23  1  0
  8 24  1  0
  9 25  1  0
M  END
