
     RDKit          3D

 25 24  0  0  0  0  0  0  0  0999 V2000
   -2.5740   -1.4306   -0.1096 C   0  0  0  0  0  0  0  0  0  0  0  0
   -1.1733   -1.0613   -0.5114 C   0  0  0  0  0  0  0  0  0  0  0  0
   -0.9140    0.4206   -0.3100 C   0  0  0  0  0  0  0  0  0  0  0  0
   -1.8601    1.2569   -1.1331 C   0  0  0  0  0  0  0  0  0  0  0  0
   -1.0560    0.6768    1.0495 O   0  0  0  0  0  0  0  0  0  0  0  0
    0.4896    0.7933   -0.7056 C   0  0  0  0  0  0  0  0  0  0  0  0
    1.5333    0.0498    0.1022 C   0  0  0  0  0  0  0  0  0  0  0  0
    2.7729    0.4549   -0.3292 O   0  0  0  0  0  0  0  0  0  0  0  0
    3.8203   -0.1597    0.3394 C   0  0  0  0  0  0  0  0  0  0  0  0
   -3.3212   -1.2565   -0.9189 H   0  0  0  0  0  0  0  0  0  0  0  0
   -2.5934   -2.5239    0.1099 H   0  0  0  0  0  0  0  0  0  0  0  0
   -2.8998   -0.9131    0.8194 H   0  0  0  0  0  0  0  0  0  0  0  0
   -1.0406   -1.3447   -1.5872 H   0  0  0  0  0  0  0  0  0  0  0  0
   -0.4818   -1.6660    0.1052 H   0  0  0  0  0  0  0  0  0  0  0  0
   -1.5561    2.3202   -0.9990 H   0  0  0  0  0  0  0  0  0  0  0  0
   -2.9180    1.0770   -0.9051 H   0  0  0  0  0  0  0  0  0  0  0  0
   -1.6189    1.0282   -2.2113 H   0  0  0  0  0  0  0  0  0  0  0  0
   -1.0734    1.6609    1.1580 H   0  0  0  0  0  0  0  0  0  0  0  0
    0.6173    1.8737   -0.4819 H   0  0  0  0  0  0  0  0  0  0  0  0
    0.6343    0.5597   -1.7720 H   0  0  0  0  0  0  0  0  0  0  0  0
    1.4594   -1.0545   -0.0992 H   0  0  0  0  0  0  0  0  0  0  0  0
    1.3447    0.2330    1.1741 H   0  0  0  0  0  0  0  0  0  0  0  0
    3.7444   -1.2595    0.1802 H   0  0  0  0  0  0  0  0  0  0  0  0
    3.8990    0.1173    1.3992 H   0  0  0  0  0  0  0  0  0  0  0  0
    4.7654    0.1474   -0.1820 H   0  0  0  0  0  0  0  0  0  0  0  0
  1  2  1  0
  2  3  1  0
  3  4  1  0
  3  5  1  0
  3  6  1  0
  6  7  1  0
  7  8  1  0
  8  9  1  0
  1 10  1  0
  1 11  1  0
  1 12  1  0
  2 13  1  0
  2 14  1  0
  4 15  1  0
  4 16  1  0
  4 17  1  0
  5 18  1  0
  6 19  1  0
  6 20  1  0
  7 21  1  0
  7 22  1  0
  9 23  1  0
  9 24  1  0
  9 25  1  0
M  END
