
     RDKit          3D

 25 24  0  0  0  0  0  0  0  0999 V2000
    3.0670   -0.7387    0.1644 C   0  0  0  0  0  0  0  0  0  0  0  0
    1.9211    0.2291   -0.1525 C   0  0  0  0  0  0  0  0  0  0  0  0
    0.6483   -0.4960   -0.3700 C   0  0  0  0  0  0  0  0  0  0  0  0
    0.6925   -1.7295   -0.2358 O   0  0  0  0  0  0  0  0  0  0  0  0
   -0.6250    0.1256   -0.7241 C   0  0  0  0  0  0  0  0  0  0  0  0
   -1.7138   -0.9485   -0.8672 C   0  0  0  0  0  0  0  0  0  0  0  0
   -1.9080   -1.7116    0.4081 C   0  0  0  0  0  0  0  0  0  0  0  0
   -1.1642    1.1349    0.2310 C   0  0  0  0  0  0  0  0  0  0  0  0
   -0.3116    2.3270    0.4767 C   0  0  0  0  0  0  0  0  0  0  0  0
    3.9387   -0.1177    0.4653 H   0  0  0  0  0  0  0  0  0  0  0  0
    2.7685   -1.2862    1.1022 H   0  0  0  0  0  0  0  0  0  0  0  0
    3.2709   -1.4067   -0.6761 H   0  0  0  0  0  0  0  0  0  0  0  0
    2.2397    0.8294   -1.0022 H   0  0  0  0  0  0  0  0  0  0  0  0
    1.8126    0.8204    0.8044 H   0  0  0  0  0  0  0  0  0  0  0  0
   -0.6082    0.6208   -1.7334 H   0  0  0  0  0  0  0  0  0  0  0  0
   -1.4237   -1.6779   -1.6600 H   0  0  0  0  0  0  0  0  0  0  0  0
   -2.6527   -0.4338   -1.1456 H   0  0  0  0  0  0  0  0  0  0  0  0
   -2.9872   -1.6584    0.7352 H   0  0  0  0  0  0  0  0  0  0  0  0
   -1.7159   -2.8129    0.2848 H   0  0  0  0  0  0  0  0  0  0  0  0
   -1.3059   -1.3596    1.2445 H   0  0  0  0  0  0  0  0  0  0  0  0
   -1.4674    0.6977    1.2076 H   0  0  0  0  0  0  0  0  0  0  0  0
   -2.1398    1.4859   -0.2173 H   0  0  0  0  0  0  0  0  0  0  0  0
    0.1350    2.3603    1.4936 H   0  0  0  0  0  0  0  0  0  0  0  0
   -0.9617    3.2426    0.4155 H   0  0  0  0  0  0  0  0  0  0  0  0
    0.4909    2.5042   -0.2490 H   0  0  0  0  0  0  0  0  0  0  0  0
  1  2  1  0
  2  3  1  0
  3  4  2  0
  3  5  1  0
  5  6  1  0
  6  7  1  0
  5  8  1  0
  8  9  1  0
  1 10  1  0
  1 11  1  0
  1 12  1  0
  2 13  1  0
  2 14  1  0
  5 15  1  0
  6 16  1  0
  6 17  1  0
  7 18  1  0
  7 19  1  0
  7 20  1  0
  8 21  1  0
  8 22  1  0
  9 23  1  0
  9 24  1  0
  9 25  1  0
M  END
