
     RDKit          3D

 25 25  0  0  0  0  0  0  0  0999 V2000
    1.6465    0.3862    1.6011 C   0  0  0  0  0  0  0  0  0  0  0  0
    1.8276   -0.3816    0.3416 C   0  0  0  0  0  0  0  0  0  0  0  0
    0.5615   -0.8310   -0.3241 C   0  0  0  0  0  0  0  0  0  0  0  0
    0.9871   -1.5940   -1.5875 C   0  0  0  0  0  0  0  0  0  0  0  0
   -0.2782    0.3198   -0.7726 C   0  0  0  0  0  0  0  0  0  0  0  0
   -1.4746   -0.0240   -1.4058 O   0  0  0  0  0  0  0  0  0  0  0  0
   -1.9375    1.2499   -0.9948 C   0  0  0  0  0  0  0  0  0  0  0  0
   -1.1269    0.9991    0.2785 C   0  0  0  0  0  0  0  0  0  0  0  0
   -1.9233    0.0859    1.1789 C   0  0  0  0  0  0  0  0  0  0  0  0
    2.5714    0.3096    2.2356 H   0  0  0  0  0  0  0  0  0  0  0  0
    1.5502    1.4810    1.3808 H   0  0  0  0  0  0  0  0  0  0  0  0
    0.8037    0.0817    2.2157 H   0  0  0  0  0  0  0  0  0  0  0  0
    2.4483   -1.3012    0.5298 H   0  0  0  0  0  0  0  0  0  0  0  0
    2.3984    0.2093   -0.4205 H   0  0  0  0  0  0  0  0  0  0  0  0
   -0.0065   -1.5275    0.3220 H   0  0  0  0  0  0  0  0  0  0  0  0
    0.2348   -1.5101   -2.3858 H   0  0  0  0  0  0  0  0  0  0  0  0
    1.9319   -1.1511   -1.9901 H   0  0  0  0  0  0  0  0  0  0  0  0
    1.2381   -2.6472   -1.3349 H   0  0  0  0  0  0  0  0  0  0  0  0
    0.2704    1.0805   -1.3442 H   0  0  0  0  0  0  0  0  0  0  0  0
   -1.4986    2.0900   -1.5339 H   0  0  0  0  0  0  0  0  0  0  0  0
   -3.0190    1.2022   -0.8761 H   0  0  0  0  0  0  0  0  0  0  0  0
   -0.7204    1.9042    0.7338 H   0  0  0  0  0  0  0  0  0  0  0  0
   -1.8959   -0.9240    0.7760 H   0  0  0  0  0  0  0  0  0  0  0  0
   -1.5897    0.0892    2.2267 H   0  0  0  0  0  0  0  0  0  0  0  0
   -2.9993    0.4032    1.1496 H   0  0  0  0  0  0  0  0  0  0  0  0
  1  2  1  0
  2  3  1  0
  3  4  1  0
  3  5  1  0
  5  6  1  0
  6  7  1  0
  7  8  1  0
  8  9  1  0
  8  5  1  0
  1 10  1  0
  1 11  1  0
  1 12  1  0
  2 13  1  0
  2 14  1  0
  3 15  1  0
  4 16  1  0
  4 17  1  0
  4 18  1  0
  5 19  1  0
  7 20  1  0
  7 21  1  0
  8 22  1  0
  9 23  1  0
  9 24  1  0
  9 25  1  0
M  END
