
     RDKit          3D

 18 17  0  0  0  0  0  0  0  0999 V2000
   -1.8120    0.6459   -0.6799 C   0  0  0  0  0  0  0  0  0  0  0  0
   -1.0224    0.8000    0.5805 C   0  0  0  0  0  0  0  0  0  0  0  0
    0.0757   -0.2429    0.5945 C   0  0  0  0  0  0  0  0  0  0  0  0
   -0.4682   -1.5182    0.5437 O   0  0  0  0  0  0  0  0  0  0  0  0
    0.9787   -0.1033   -0.6261 C   0  0  0  0  0  0  0  0  0  0  0  0
    1.5691    1.1451   -0.6607 O   0  0  0  0  0  0  0  0  0  0  0  0
    2.0550   -1.1157   -0.4788 C   0  0  0  0  0  0  0  0  0  0  0  0
    3.2214   -0.8159   -0.4085 O   0  0  0  0  0  0  0  0  0  0  0  0
   -2.1591   -0.4235   -0.7607 H   0  0  0  0  0  0  0  0  0  0  0  0
   -1.2046    0.9005   -1.5733 H   0  0  0  0  0  0  0  0  0  0  0  0
   -2.7318    1.2720   -0.6167 H   0  0  0  0  0  0  0  0  0  0  0  0
   -1.6926    0.5537    1.4380 H   0  0  0  0  0  0  0  0  0  0  0  0
   -0.6490    1.8126    0.7146 H   0  0  0  0  0  0  0  0  0  0  0  0
    0.7349   -0.1496    1.4830 H   0  0  0  0  0  0  0  0  0  0  0  0
   -0.0155   -2.1494    1.1638 H   0  0  0  0  0  0  0  0  0  0  0  0
    0.4173   -0.3472   -1.5474 H   0  0  0  0  0  0  0  0  0  0  0  0
    0.9343    1.8900   -0.6734 H   0  0  0  0  0  0  0  0  0  0  0  0
    1.7687   -2.1542   -0.4343 H   0  0  0  0  0  0  0  0  0  0  0  0
  1  2  1  0
  2  3  1  0
  3  4  1  0
  3  5  1  0
  5  6  1  0
  5  7  1  0
  7  8  2  0
  1  9  1  0
  1 10  1  0
  1 11  1  0
  2 12  1  0
  2 13  1  0
  3 14  1  0
  4 15  1  0
  5 16  1  0
  6 17  1  0
  7 18  1  0
M  END
