
     RDKit          3D

 25 25  0  0  0  0  0  0  0  0999 V2000
    1.8955    1.4534    0.8316 C   0  0  0  0  0  0  0  0  0  0  0  0
    1.7024    0.1444    0.1522 C   0  0  0  0  0  0  0  0  0  0  0  0
    0.4527   -0.5959    0.3772 C   0  0  0  0  0  0  0  0  0  0  0  0
    0.6302   -1.9157   -0.4492 C   0  0  0  0  0  0  0  0  0  0  0  0
   -0.8336   -0.0312   -0.0854 C   0  0  0  0  0  0  0  0  0  0  0  0
   -2.0488   -0.9009    0.2135 C   0  0  0  0  0  0  0  0  0  0  0  0
   -0.9287    0.5082   -1.4563 C   0  0  0  0  0  0  0  0  0  0  0  0
   -0.7353    1.7827   -1.0008 O   0  0  0  0  0  0  0  0  0  0  0  0
   -1.1463    1.3863    0.2631 C   0  0  0  0  0  0  0  0  0  0  0  0
    1.5523    2.3409    0.2766 H   0  0  0  0  0  0  0  0  0  0  0  0
    3.0139    1.6687    0.9633 H   0  0  0  0  0  0  0  0  0  0  0  0
    1.5528    1.4008    1.8861 H   0  0  0  0  0  0  0  0  0  0  0  0
    1.9740    0.2157   -0.9396 H   0  0  0  0  0  0  0  0  0  0  0  0
    2.5378   -0.5214    0.5437 H   0  0  0  0  0  0  0  0  0  0  0  0
    0.3683   -0.9025    1.4391 H   0  0  0  0  0  0  0  0  0  0  0  0
   -0.1274   -2.6417   -0.1658 H   0  0  0  0  0  0  0  0  0  0  0  0
    1.6123   -2.3015   -0.1042 H   0  0  0  0  0  0  0  0  0  0  0  0
    0.7071   -1.6722   -1.5039 H   0  0  0  0  0  0  0  0  0  0  0  0
   -2.8631   -0.3368    0.7117 H   0  0  0  0  0  0  0  0  0  0  0  0
   -1.7962   -1.7515    0.8731 H   0  0  0  0  0  0  0  0  0  0  0  0
   -2.4625   -1.2971   -0.7344 H   0  0  0  0  0  0  0  0  0  0  0  0
   -1.9581    0.4347   -1.8854 H   0  0  0  0  0  0  0  0  0  0  0  0
   -0.2210    0.1292   -2.2146 H   0  0  0  0  0  0  0  0  0  0  0  0
   -2.2644    1.5813    0.3299 H   0  0  0  0  0  0  0  0  0  0  0  0
   -0.6140    1.8224    1.1192 H   0  0  0  0  0  0  0  0  0  0  0  0
  1  2  1  0
  2  3  1  0
  3  4  1  0
  3  5  1  0
  5  6  1  0
  5  7  1  0
  7  8  1  0
  8  9  1  0
  9  5  1  0
  1 10  1  0
  1 11  1  0
  1 12  1  0
  2 13  1  0
  2 14  1  0
  3 15  1  0
  4 16  1  0
  4 17  1  0
  4 18  1  0
  6 19  1  0
  6 20  1  0
  6 21  1  0
  7 22  1  0
  7 23  1  0
  9 24  1  0
  9 25  1  0
M  END
