
     RDKit          3D

 21 21  0  0  0  0  0  0  0  0999 V2000
    3.2993    0.2883   -0.5344 C   0  0  0  0  0  0  0  0  0  0  0  0
    2.6243    0.3844    0.8299 C   0  0  0  0  0  0  0  0  0  0  0  0
    1.1873    0.6129    0.7658 C   0  0  0  0  0  0  0  0  0  0  0  0
    0.6999    1.6919    1.1726 O   0  0  0  0  0  0  0  0  0  0  0  0
    0.2433   -0.2787    0.2795 O   0  0  0  0  0  0  0  0  0  0  0  0
   -1.1207    0.0028    0.2548 C   0  0  0  0  0  0  0  0  0  0  0  0
   -2.0565   -1.0217    0.7942 C   0  0  0  0  0  0  0  0  0  0  0  0
   -3.0837   -0.4740   -0.2171 C   0  0  0  0  0  0  0  0  0  0  0  0
   -1.8488   -0.0828   -1.0502 C   0  0  0  0  0  0  0  0  0  0  0  0
    3.2236    1.1950   -1.1366 H   0  0  0  0  0  0  0  0  0  0  0  0
    4.3958    0.0951   -0.3620 H   0  0  0  0  0  0  0  0  0  0  0  0
    2.8122   -0.5521   -1.0663 H   0  0  0  0  0  0  0  0  0  0  0  0
    2.9633   -0.4671    1.4440 H   0  0  0  0  0  0  0  0  0  0  0  0
    3.0896    1.2981    1.3209 H   0  0  0  0  0  0  0  0  0  0  0  0
   -1.3176    0.9910    0.7175 H   0  0  0  0  0  0  0  0  0  0  0  0
   -2.4335   -0.8729    1.8137 H   0  0  0  0  0  0  0  0  0  0  0  0
   -1.8024   -2.0600    0.4999 H   0  0  0  0  0  0  0  0  0  0  0  0
   -3.5658    0.4564    0.1516 H   0  0  0  0  0  0  0  0  0  0  0  0
   -3.7301   -1.2279   -0.6629 H   0  0  0  0  0  0  0  0  0  0  0  0
   -1.9381    0.9290   -1.5107 H   0  0  0  0  0  0  0  0  0  0  0  0
   -1.6414   -0.9077   -1.7306 H   0  0  0  0  0  0  0  0  0  0  0  0
  1  2  1  0
  2  3  1  0
  3  4  2  0
  3  5  1  0
  5  6  1  0
  6  7  1  0
  7  8  1  0
  8  9  1  0
  9  6  1  0
  1 10  1  0
  1 11  1  0
  1 12  1  0
  2 13  1  0
  2 14  1  0
  6 15  1  0
  7 16  1  0
  7 17  1  0
  8 18  1  0
  8 19  1  0
  9 20  1  0
  9 21  1  0
M  END
