
     RDKit          3D

 27 27  0  0  0  0  0  0  0  0999 V2000
    2.2582   -0.5596    0.7656 C   0  0  0  0  0  0  0  0  0  0  0  0
    0.8089   -0.9985    0.8972 C   0  0  0  0  0  0  0  0  0  0  0  0
   -0.0865   -0.1102    0.0198 C   0  0  0  0  0  0  0  0  0  0  0  0
    0.3856   -0.2740   -1.3855 C   0  0  0  0  0  0  0  0  0  0  0  0
   -1.5123   -0.6109    0.2164 C   0  0  0  0  0  0  0  0  0  0  0  0
   -1.6708   -2.0496   -0.1892 C   0  0  0  0  0  0  0  0  0  0  0  0
   -0.0752    1.2924    0.5374 C   0  0  0  0  0  0  0  0  0  0  0  0
   -0.9379    2.2503   -0.2729 C   0  0  0  0  0  0  0  0  0  0  0  0
    0.5659    2.4250   -0.0965 C   0  0  0  0  0  0  0  0  0  0  0  0
    2.9305   -1.4398    0.7244 H   0  0  0  0  0  0  0  0  0  0  0  0
    2.4066   -0.0048   -0.1781 H   0  0  0  0  0  0  0  0  0  0  0  0
    2.5293    0.0646    1.6451 H   0  0  0  0  0  0  0  0  0  0  0  0
    0.4887   -0.9800    1.9390 H   0  0  0  0  0  0  0  0  0  0  0  0
    0.7696   -2.0136    0.4357 H   0  0  0  0  0  0  0  0  0  0  0  0
   -0.4197   -0.6796   -2.0639 H   0  0  0  0  0  0  0  0  0  0  0  0
    0.7468    0.6377   -1.8775 H   0  0  0  0  0  0  0  0  0  0  0  0
    1.2212   -1.0257   -1.4871 H   0  0  0  0  0  0  0  0  0  0  0  0
   -1.7159   -0.5538    1.3061 H   0  0  0  0  0  0  0  0  0  0  0  0
   -2.2527   -0.0058   -0.3067 H   0  0  0  0  0  0  0  0  0  0  0  0
   -1.1362   -2.7376    0.5050 H   0  0  0  0  0  0  0  0  0  0  0  0
   -2.7486   -2.2950   -0.0800 H   0  0  0  0  0  0  0  0  0  0  0  0
   -1.4041   -2.2589   -1.2321 H   0  0  0  0  0  0  0  0  0  0  0  0
   -0.3054    1.3515    1.6262 H   0  0  0  0  0  0  0  0  0  0  0  0
   -1.6208    2.9356    0.2334 H   0  0  0  0  0  0  0  0  0  0  0  0
   -1.2695    1.9501   -1.2825 H   0  0  0  0  0  0  0  0  0  0  0  0
    1.2044    2.4041   -0.9818 H   0  0  0  0  0  0  0  0  0  0  0  0
    0.8397    3.2863    0.5826 H   0  0  0  0  0  0  0  0  0  0  0  0
  1  2  1  0
  2  3  1  0
  3  4  1  0
  3  5  1  0
  5  6  1  0
  3  7  1  0
  7  8  1  0
  8  9  1  0
  9  7  1  0
  1 10  1  0
  1 11  1  0
  1 12  1  0
  2 13  1  0
  2 14  1  0
  4 15  1  0
  4 16  1  0
  4 17  1  0
  5 18  1  0
  5 19  1  0
  6 20  1  0
  6 21  1  0
  6 22  1  0
  7 23  1  0
  8 24  1  0
  8 25  1  0
  9 26  1  0
  9 27  1  0
M  END
