
     RDKit          3D

 22 21  0  0  0  0  0  0  0  0999 V2000
    2.7837    0.1382    0.1415 C   0  0  0  0  0  0  0  0  0  0  0  0
    1.3789    0.6481    0.4547 C   0  0  0  0  0  0  0  0  0  0  0  0
    0.4338   -0.2577   -0.2943 C   0  0  0  0  0  0  0  0  0  0  0  0
    0.5516   -1.5696    0.0921 O   0  0  0  0  0  0  0  0  0  0  0  0
   -0.9906    0.1907   -0.2442 C   0  0  0  0  0  0  0  0  0  0  0  0
   -1.7592   -0.5960   -1.2930 C   0  0  0  0  0  0  0  0  0  0  0  0
   -1.6421   -0.0025    1.0856 C   0  0  0  0  0  0  0  0  0  0  0  0
   -1.0397    1.5416   -0.6515 O   0  0  0  0  0  0  0  0  0  0  0  0
    2.8927    0.2552   -0.9723 H   0  0  0  0  0  0  0  0  0  0  0  0
    3.5615    0.7056    0.6662 H   0  0  0  0  0  0  0  0  0  0  0  0
    2.8203   -0.9356    0.3934 H   0  0  0  0  0  0  0  0  0  0  0  0
    1.3105    1.6682    0.0803 H   0  0  0  0  0  0  0  0  0  0  0  0
    1.1970    0.6330    1.5507 H   0  0  0  0  0  0  0  0  0  0  0  0
    0.7521   -0.2077   -1.3744 H   0  0  0  0  0  0  0  0  0  0  0  0
    0.8727   -1.7187    0.9965 H   0  0  0  0  0  0  0  0  0  0  0  0
   -1.4669   -1.6705   -1.1916 H   0  0  0  0  0  0  0  0  0  0  0  0
   -2.8550   -0.4451   -1.1848 H   0  0  0  0  0  0  0  0  0  0  0  0
   -1.3806   -0.2659   -2.2879 H   0  0  0  0  0  0  0  0  0  0  0  0
   -1.0236   -0.4922    1.8406 H   0  0  0  0  0  0  0  0  0  0  0  0
   -2.5875   -0.6098    0.9815 H   0  0  0  0  0  0  0  0  0  0  0  0
   -2.0132    1.0038    1.4399 H   0  0  0  0  0  0  0  0  0  0  0  0
   -1.7964    1.9869   -0.2290 H   0  0  0  0  0  0  0  0  0  0  0  0
  1  2  1  0
  2  3  1  0
  3  4  1  0
  3  5  1  0
  5  6  1  0
  5  7  1  0
  5  8  1  0
  1  9  1  0
  1 10  1  0
  1 11  1  0
  2 12  1  0
  2 13  1  0
  3 14  1  0
  4 15  1  0
  6 16  1  0
  6 17  1  0
  6 18  1  0
  7 19  1  0
  7 20  1  0
  7 21  1  0
  8 22  1  0
M  END
