
     RDKit          3D

 19 19  0  0  0  0  0  0  0  0999 V2000
    2.9837    0.1941   -0.2031 C   0  0  0  0  0  0  0  0  0  0  0  0
    1.5620    0.5666   -0.5103 C   0  0  0  0  0  0  0  0  0  0  0  0
    0.7099   -0.6450   -0.6343 C   0  0  0  0  0  0  0  0  0  0  0  0
    1.2316   -1.7337   -0.4817 O   0  0  0  0  0  0  0  0  0  0  0  0
   -0.7416   -0.5994   -0.9338 C   0  0  0  0  0  0  0  0  0  0  0  0
   -1.4592   -1.0418    0.2922 C   0  0  0  0  0  0  0  0  0  0  0  0
   -2.4269   -0.1703    0.5262 C   0  0  0  0  0  0  0  0  0  0  0  0
   -2.3647    0.8564   -0.5373 C   0  0  0  0  0  0  0  0  0  0  0  0
   -1.0968    0.7579   -1.0634 O   0  0  0  0  0  0  0  0  0  0  0  0
    3.7197    0.8632   -0.6910 H   0  0  0  0  0  0  0  0  0  0  0  0
    3.1708   -0.8569   -0.4798 H   0  0  0  0  0  0  0  0  0  0  0  0
    3.1491    0.2829    0.8951 H   0  0  0  0  0  0  0  0  0  0  0  0
    1.1278    1.1819    0.3233 H   0  0  0  0  0  0  0  0  0  0  0  0
    1.4819    1.2131   -1.4134 H   0  0  0  0  0  0  0  0  0  0  0  0
   -1.0194   -1.1598   -1.8298 H   0  0  0  0  0  0  0  0  0  0  0  0
   -1.1873   -1.9296    0.8480 H   0  0  0  0  0  0  0  0  0  0  0  0
   -3.1552   -0.2034    1.3697 H   0  0  0  0  0  0  0  0  0  0  0  0
   -2.5965    1.8629   -0.1394 H   0  0  0  0  0  0  0  0  0  0  0  0
   -3.0891    0.5607   -1.3364 H   0  0  0  0  0  0  0  0  0  0  0  0
  1  2  1  0
  2  3  1  0
  3  4  2  0
  3  5  1  0
  5  6  1  0
  6  7  2  0
  7  8  1  0
  8  9  1  0
  9  5  1  0
  1 10  1  0
  1 11  1  0
  1 12  1  0
  2 13  1  0
  2 14  1  0
  5 15  1  0
  6 16  1  0
  7 17  1  0
  8 18  1  0
  8 19  1  0
M  END
