
     RDKit          3D

 25 25  0  0  0  0  0  0  0  0999 V2000
   -2.4652    1.4460    0.1559 C   0  0  0  0  0  0  0  0  0  0  0  0
   -2.1770   -0.0267    0.2814 C   0  0  0  0  0  0  0  0  0  0  0  0
   -0.9045   -0.3922   -0.5109 C   0  0  0  0  0  0  0  0  0  0  0  0
   -0.6915   -1.8405   -0.3392 C   0  0  0  0  0  0  0  0  0  0  0  0
    0.1407    0.5612   -0.1588 C   0  0  0  0  0  0  0  0  0  0  0  0
    0.6262    0.7413    1.1213 O   0  0  0  0  0  0  0  0  0  0  0  0
    1.5406    0.2507    0.1810 C   0  0  0  0  0  0  0  0  0  0  0  0
    2.5729    1.2148   -0.3789 C   0  0  0  0  0  0  0  0  0  0  0  0
    2.0721   -1.0810    0.5629 C   0  0  0  0  0  0  0  0  0  0  0  0
   -1.8024    2.0497    0.8043 H   0  0  0  0  0  0  0  0  0  0  0  0
   -2.3412    1.7254   -0.9301 H   0  0  0  0  0  0  0  0  0  0  0  0
   -3.5427    1.5851    0.4106 H   0  0  0  0  0  0  0  0  0  0  0  0
   -3.0509   -0.5790   -0.0929 H   0  0  0  0  0  0  0  0  0  0  0  0
   -2.0122   -0.2782    1.3509 H   0  0  0  0  0  0  0  0  0  0  0  0
   -1.1702   -0.2238   -1.6019 H   0  0  0  0  0  0  0  0  0  0  0  0
   -0.1384   -2.2748   -1.2247 H   0  0  0  0  0  0  0  0  0  0  0  0
   -1.7079   -2.3580   -0.3956 H   0  0  0  0  0  0  0  0  0  0  0  0
   -0.2567   -2.2005    0.5820 H   0  0  0  0  0  0  0  0  0  0  0  0
   -0.0202    1.5865   -0.6461 H   0  0  0  0  0  0  0  0  0  0  0  0
    2.0837    2.1995   -0.5206 H   0  0  0  0  0  0  0  0  0  0  0  0
    3.4748    1.2702    0.2635 H   0  0  0  0  0  0  0  0  0  0  0  0
    2.8924    0.8644   -1.3822 H   0  0  0  0  0  0  0  0  0  0  0  0
    1.7290   -1.4315    1.5804 H   0  0  0  0  0  0  0  0  0  0  0  0
    1.9498   -1.8160   -0.2276 H   0  0  0  0  0  0  0  0  0  0  0  0
    3.1986   -0.9923    0.7218 H   0  0  0  0  0  0  0  0  0  0  0  0
  1  2  1  0
  2  3  1  0
  3  4  1  0
  3  5  1  0
  5  6  1  0
  6  7  1  0
  7  8  1  0
  7  9  1  0
  7  5  1  0
  1 10  1  0
  1 11  1  0
  1 12  1  0
  2 13  1  0
  2 14  1  0
  3 15  1  0
  4 16  1  0
  4 17  1  0
  4 18  1  0
  5 19  1  0
  8 20  1  0
  8 21  1  0
  8 22  1  0
  9 23  1  0
  9 24  1  0
  9 25  1  0
M  END
