
     RDKit          3D

 23 23  0  0  0  0  0  0  0  0999 V2000
    2.1614    0.4428    0.8412 C   0  0  0  0  0  0  0  0  0  0  0  0
    1.7595   -0.6523   -0.1194 C   0  0  0  0  0  0  0  0  0  0  0  0
    0.4608   -0.3463   -0.8243 C   0  0  0  0  0  0  0  0  0  0  0  0
    0.5336    0.8284   -1.5667 O   0  0  0  0  0  0  0  0  0  0  0  0
   -0.7217   -0.3349    0.0822 C   0  0  0  0  0  0  0  0  0  0  0  0
   -1.0148   -1.6318    0.8205 C   0  0  0  0  0  0  0  0  0  0  0  0
   -1.9746    0.2729   -0.5655 C   0  0  0  0  0  0  0  0  0  0  0  0
   -1.3058    0.8862    0.6520 C   0  0  0  0  0  0  0  0  0  0  0  0
   -0.7939    2.1471    0.4274 O   0  0  0  0  0  0  0  0  0  0  0  0
    3.1390    0.1314    1.2795 H   0  0  0  0  0  0  0  0  0  0  0  0
    1.4642    0.5438    1.6934 H   0  0  0  0  0  0  0  0  0  0  0  0
    2.3627    1.4059    0.3309 H   0  0  0  0  0  0  0  0  0  0  0  0
    1.7181   -1.5999    0.4132 H   0  0  0  0  0  0  0  0  0  0  0  0
    2.5756   -0.7305   -0.8680 H   0  0  0  0  0  0  0  0  0  0  0  0
    0.3054   -1.1693   -1.5646 H   0  0  0  0  0  0  0  0  0  0  0  0
    0.9022    1.5870   -1.0825 H   0  0  0  0  0  0  0  0  0  0  0  0
   -1.5581   -1.4123    1.7864 H   0  0  0  0  0  0  0  0  0  0  0  0
   -0.1076   -2.1782    1.1083 H   0  0  0  0  0  0  0  0  0  0  0  0
   -1.7427   -2.2668    0.2433 H   0  0  0  0  0  0  0  0  0  0  0  0
   -1.8721    0.7807   -1.5364 H   0  0  0  0  0  0  0  0  0  0  0  0
   -2.9384   -0.2315   -0.4285 H   0  0  0  0  0  0  0  0  0  0  0  0
   -1.8609    0.7930    1.6069 H   0  0  0  0  0  0  0  0  0  0  0  0
   -1.4918    2.7346   -0.0021 H   0  0  0  0  0  0  0  0  0  0  0  0
  1  2  1  0
  2  3  1  0
  3  4  1  0
  3  5  1  0
  5  6  1  0
  5  7  1  0
  7  8  1  0
  8  9  1  0
  8  5  1  0
  1 10  1  0
  1 11  1  0
  1 12  1  0
  2 13  1  0
  2 14  1  0
  3 15  1  0
  4 16  1  0
  6 17  1  0
  6 18  1  0
  6 19  1  0
  7 20  1  0
  7 21  1  0
  8 22  1  0
  9 23  1  0
M  END
