
     RDKit          3D

 21 20  0  0  0  0  0  0  0  0999 V2000
   -2.3478   -1.0911   -0.1472 C   0  0  0  0  0  0  0  0  0  0  0  0
   -1.4854   -0.2826   -1.0424 C   0  0  0  0  0  0  0  0  0  0  0  0
   -0.1634    0.1281   -0.3982 C   0  0  0  0  0  0  0  0  0  0  0  0
    0.6577   -1.0395    0.0089 C   0  0  0  0  0  0  0  0  0  0  0  0
    1.8539   -0.6246    0.5446 O   0  0  0  0  0  0  0  0  0  0  0  0
    2.7018    0.0509   -0.2839 C   0  0  0  0  0  0  0  0  0  0  0  0
   -0.4297    0.9038    0.7527 O   0  0  0  0  0  0  0  0  0  0  0  0
   -0.1329    2.2453    0.8407 C   0  0  0  0  0  0  0  0  0  0  0  0
    0.3932    2.8028   -0.1519 O   0  0  0  0  0  0  0  0  0  0  0  0
   -2.4077   -0.5917    0.8611 H   0  0  0  0  0  0  0  0  0  0  0  0
   -2.0559   -2.1540   -0.0661 H   0  0  0  0  0  0  0  0  0  0  0  0
   -3.3857   -1.0652   -0.5396 H   0  0  0  0  0  0  0  0  0  0  0  0
   -2.0091    0.6619   -1.2975 H   0  0  0  0  0  0  0  0  0  0  0  0
   -1.3092   -0.8158   -1.9980 H   0  0  0  0  0  0  0  0  0  0  0  0
    0.3584    0.6857   -1.1995 H   0  0  0  0  0  0  0  0  0  0  0  0
    0.1720   -1.6635    0.8027 H   0  0  0  0  0  0  0  0  0  0  0  0
    0.9438   -1.6944   -0.8669 H   0  0  0  0  0  0  0  0  0  0  0  0
    3.6348    0.3313    0.2722 H   0  0  0  0  0  0  0  0  0  0  0  0
    2.2831    0.9811   -0.6852 H   0  0  0  0  0  0  0  0  0  0  0  0
    3.0776   -0.5935   -1.1183 H   0  0  0  0  0  0  0  0  0  0  0  0
   -0.3496    2.8250    1.7602 H   0  0  0  0  0  0  0  0  0  0  0  0
  1  2  1  0
  2  3  1  0
  3  4  1  0
  4  5  1  0
  5  6  1  0
  3  7  1  0
  7  8  1  0
  8  9  2  0
  1 10  1  0
  1 11  1  0
  1 12  1  0
  2 13  1  0
  2 14  1  0
  3 15  1  0
  4 16  1  0
  4 17  1  0
  6 18  1  0
  6 19  1  0
  6 20  1  0
  8 21  1  0
M  END
