
     RDKit          3D

 25 25  0  0  0  0  0  0  0  0999 V2000
   -2.7414    0.8149    0.0106 C   0  0  0  0  0  0  0  0  0  0  0  0
   -1.2552    0.8102    0.3916 C   0  0  0  0  0  0  0  0  0  0  0  0
   -0.6366   -0.3637   -0.3039 C   0  0  0  0  0  0  0  0  0  0  0  0
   -1.3135   -1.6102    0.1578 C   0  0  0  0  0  0  0  0  0  0  0  0
   -0.9340   -0.2182   -1.6799 O   0  0  0  0  0  0  0  0  0  0  0  0
    0.8581   -0.4140   -0.1992 C   0  0  0  0  0  0  0  0  0  0  0  0
    1.5347    0.8266   -0.8083 C   0  0  0  0  0  0  0  0  0  0  0  0
    1.6403    0.4595    0.6663 C   0  0  0  0  0  0  0  0  0  0  0  0
    3.0476   -0.0307    1.0320 C   0  0  0  0  0  0  0  0  0  0  0  0
   -2.8366    0.5884   -1.0816 H   0  0  0  0  0  0  0  0  0  0  0  0
   -3.1802   -0.0551    0.5509 H   0  0  0  0  0  0  0  0  0  0  0  0
   -3.2138    1.7596    0.2877 H   0  0  0  0  0  0  0  0  0  0  0  0
   -0.7783    1.7676    0.1971 H   0  0  0  0  0  0  0  0  0  0  0  0
   -1.2497    0.6304    1.5000 H   0  0  0  0  0  0  0  0  0  0  0  0
   -2.2985   -1.6797   -0.3882 H   0  0  0  0  0  0  0  0  0  0  0  0
   -0.7201   -2.5371   -0.0427 H   0  0  0  0  0  0  0  0  0  0  0  0
   -1.5670   -1.6074    1.2436 H   0  0  0  0  0  0  0  0  0  0  0  0
   -0.2900   -0.8068   -2.1804 H   0  0  0  0  0  0  0  0  0  0  0  0
    1.2857   -1.4084   -0.4834 H   0  0  0  0  0  0  0  0  0  0  0  0
    0.9233    1.7166   -0.9890 H   0  0  0  0  0  0  0  0  0  0  0  0
    2.3585    0.6042   -1.4879 H   0  0  0  0  0  0  0  0  0  0  0  0
    1.2255    1.1295    1.4251 H   0  0  0  0  0  0  0  0  0  0  0  0
    3.7398    0.7502    0.6066 H   0  0  0  0  0  0  0  0  0  0  0  0
    3.1531   -0.1033    2.1171 H   0  0  0  0  0  0  0  0  0  0  0  0
    3.2483   -1.0229    0.5801 H   0  0  0  0  0  0  0  0  0  0  0  0
  1  2  1  0
  2  3  1  0
  3  4  1  0
  3  5  1  0
  3  6  1  0
  6  7  1  0
  7  8  1  0
  8  9  1  0
  8  6  1  0
  1 10  1  0
  1 11  1  0
  1 12  1  0
  2 13  1  0
  2 14  1  0
  4 15  1  0
  4 16  1  0
  4 17  1  0
  5 18  1  0
  6 19  1  0
  7 20  1  0
  7 21  1  0
  8 22  1  0
  9 23  1  0
  9 24  1  0
  9 25  1  0
M  END
