
     RDKit          3D

 17 16  0  0  0  0  0  0  0  0999 V2000
   -0.8167   -1.4304    1.2129 C   0  0  0  0  0  0  0  0  0  0  0  0
   -1.4430   -0.4102    0.2971 C   0  0  0  0  0  0  0  0  0  0  0  0
   -0.5874    0.8535    0.2788 C   0  0  0  0  0  0  0  0  0  0  0  0
    0.7458    0.4498   -0.2147 C   0  0  0  0  0  0  0  0  0  0  0  0
    1.8422    0.1396   -0.6218 C   0  0  0  0  0  0  0  0  0  0  0  0
    3.1379   -0.2458   -1.1066 C   0  0  0  0  0  0  0  0  0  0  0  0
    3.5215   -1.4317   -0.9394 O   0  0  0  0  0  0  0  0  0  0  0  0
   -1.1363    1.8201   -0.7111 C   0  0  0  0  0  0  0  0  0  0  0  0
   -0.4953    2.2593   -1.6510 O   0  0  0  0  0  0  0  0  0  0  0  0
   -1.6095   -1.8761    1.8558 H   0  0  0  0  0  0  0  0  0  0  0  0
   -0.2377   -2.1696    0.6482 H   0  0  0  0  0  0  0  0  0  0  0  0
   -0.1576   -0.8625    1.9311 H   0  0  0  0  0  0  0  0  0  0  0  0
   -2.4346   -0.1078    0.6485 H   0  0  0  0  0  0  0  0  0  0  0  0
   -1.4594   -0.8551   -0.7160 H   0  0  0  0  0  0  0  0  0  0  0  0
   -0.5149    1.2833    1.2973 H   0  0  0  0  0  0  0  0  0  0  0  0
    3.8187    0.4229   -1.6140 H   0  0  0  0  0  0  0  0  0  0  0  0
   -2.1736    2.1607   -0.5952 H   0  0  0  0  0  0  0  0  0  0  0  0
  1  2  1  0
  2  3  1  0
  3  4  1  0
  4  5  3  0
  5  6  1  0
  6  7  2  0
  3  8  1  0
  8  9  2  0
  1 10  1  0
  1 11  1  0
  1 12  1  0
  2 13  1  0
  2 14  1  0
  3 15  1  0
  6 16  1  0
  8 17  1  0
M  END
