
     RDKit          3D

 27 27  0  0  0  0  0  0  0  0999 V2000
    2.5840    1.5362    0.7248 C   0  0  0  0  0  0  0  0  0  0  0  0
    1.2119    1.0975    0.1896 C   0  0  0  0  0  0  0  0  0  0  0  0
    0.9405   -0.2812    0.6302 C   0  0  0  0  0  0  0  0  0  0  0  0
    2.0231   -1.2237    0.0885 C   0  0  0  0  0  0  0  0  0  0  0  0
   -0.3714   -0.8799    0.3050 C   0  0  0  0  0  0  0  0  0  0  0  0
   -0.8531   -1.0511   -1.0939 C   0  0  0  0  0  0  0  0  0  0  0  0
   -1.6095   -0.2105   -0.0398 C   0  0  0  0  0  0  0  0  0  0  0  0
   -1.7681    1.2097   -0.4425 C   0  0  0  0  0  0  0  0  0  0  0  0
   -2.9390   -0.8541    0.3939 C   0  0  0  0  0  0  0  0  0  0  0  0
    3.3378    0.7597    0.6054 H   0  0  0  0  0  0  0  0  0  0  0  0
    2.5184    1.8183    1.7932 H   0  0  0  0  0  0  0  0  0  0  0  0
    2.9064    2.4368    0.1373 H   0  0  0  0  0  0  0  0  0  0  0  0
    0.4890    1.7876    0.6682 H   0  0  0  0  0  0  0  0  0  0  0  0
    1.3009    1.2286   -0.9083 H   0  0  0  0  0  0  0  0  0  0  0  0
    1.0808   -0.3088    1.7462 H   0  0  0  0  0  0  0  0  0  0  0  0
    2.9142   -1.2378    0.7183 H   0  0  0  0  0  0  0  0  0  0  0  0
    1.6013   -2.2706    0.1184 H   0  0  0  0  0  0  0  0  0  0  0  0
    2.2017   -1.0079   -0.9744 H   0  0  0  0  0  0  0  0  0  0  0  0
   -0.5115   -1.8428    0.9007 H   0  0  0  0  0  0  0  0  0  0  0  0
   -1.3344   -1.9877   -1.4386 H   0  0  0  0  0  0  0  0  0  0  0  0
   -0.2996   -0.5281   -1.8739 H   0  0  0  0  0  0  0  0  0  0  0  0
   -1.0440    1.5923   -1.1677 H   0  0  0  0  0  0  0  0  0  0  0  0
   -2.7654    1.2972   -0.9740 H   0  0  0  0  0  0  0  0  0  0  0  0
   -1.8965    1.8666    0.4540 H   0  0  0  0  0  0  0  0  0  0  0  0
   -3.3378   -0.2142    1.1857 H   0  0  0  0  0  0  0  0  0  0  0  0
   -2.7236   -1.8650    0.8123 H   0  0  0  0  0  0  0  0  0  0  0  0
   -3.6560   -0.8672   -0.4385 H   0  0  0  0  0  0  0  0  0  0  0  0
  1  2  1  0
  2  3  1  0
  3  4  1  0
  3  5  1  0
  5  6  1  0
  6  7  1  0
  7  8  1  0
  7  9  1  0
  7  5  1  0
  1 10  1  0
  1 11  1  0
  1 12  1  0
  2 13  1  0
  2 14  1  0
  3 15  1  0
  4 16  1  0
  4 17  1  0
  4 18  1  0
  5 19  1  0
  6 20  1  0
  6 21  1  0
  8 22  1  0
  8 23  1  0
  8 24  1  0
  9 25  1  0
  9 26  1  0
  9 27  1  0
M  END
