
     RDKit          3D

 25 24  0  0  0  0  0  0  0  0999 V2000
   -2.3224   -0.8563    0.6450 C   0  0  0  0  0  0  0  0  0  0  0  0
   -0.8249   -1.0638    0.5414 C   0  0  0  0  0  0  0  0  0  0  0  0
   -0.2590   -0.1882   -0.5532 C   0  0  0  0  0  0  0  0  0  0  0  0
   -0.4981    1.2714   -0.3092 C   0  0  0  0  0  0  0  0  0  0  0  0
    0.0928    1.8063    0.9448 C   0  0  0  0  0  0  0  0  0  0  0  0
    0.0973    1.9615   -1.3846 O   0  0  0  0  0  0  0  0  0  0  0  0
    1.1453   -0.5382   -0.9196 C   0  0  0  0  0  0  0  0  0  0  0  0
    2.1354   -0.4346    0.1766 C   0  0  0  0  0  0  0  0  0  0  0  0
    1.1644   -1.8508   -1.4032 O   0  0  0  0  0  0  0  0  0  0  0  0
   -2.8000   -1.6700    1.2287 H   0  0  0  0  0  0  0  0  0  0  0  0
   -2.7163   -0.8697   -0.3933 H   0  0  0  0  0  0  0  0  0  0  0  0
   -2.5524    0.1513    1.0533 H   0  0  0  0  0  0  0  0  0  0  0  0
   -0.6746   -2.1199    0.2192 H   0  0  0  0  0  0  0  0  0  0  0  0
   -0.3055   -0.9263    1.5084 H   0  0  0  0  0  0  0  0  0  0  0  0
   -0.8898   -0.4324   -1.4636 H   0  0  0  0  0  0  0  0  0  0  0  0
   -1.5731    1.4466   -0.3210 H   0  0  0  0  0  0  0  0  0  0  0  0
    0.1500    1.0577    1.7643 H   0  0  0  0  0  0  0  0  0  0  0  0
   -0.5758    2.6125    1.3164 H   0  0  0  0  0  0  0  0  0  0  0  0
    1.0814    2.3046    0.7832 H   0  0  0  0  0  0  0  0  0  0  0  0
   -0.5126    1.9859   -2.1645 H   0  0  0  0  0  0  0  0  0  0  0  0
    1.4570    0.1059   -1.7571 H   0  0  0  0  0  0  0  0  0  0  0  0
    2.6304    0.5449    0.2801 H   0  0  0  0  0  0  0  0  0  0  0  0
    1.7589   -0.7229    1.1733 H   0  0  0  0  0  0  0  0  0  0  0  0
    2.9651   -1.1608   -0.0451 H   0  0  0  0  0  0  0  0  0  0  0  0
    1.8267   -2.4148   -0.9202 H   0  0  0  0  0  0  0  0  0  0  0  0
  1  2  1  0
  2  3  1  0
  3  4  1  0
  4  5  1  0
  4  6  1  0
  3  7  1  0
  7  8  1  0
  7  9  1  0
  1 10  1  0
  1 11  1  0
  1 12  1  0
  2 13  1  0
  2 14  1  0
  3 15  1  0
  4 16  1  0
  5 17  1  0
  5 18  1  0
  5 19  1  0
  6 20  1  0
  7 21  1  0
  8 22  1  0
  8 23  1  0
  8 24  1  0
  9 25  1  0
M  END
