
     RDKit          3D

 25 25  0  0  0  0  0  0  0  0999 V2000
   -1.7252    1.4295    0.0524 C   0  0  0  0  0  0  0  0  0  0  0  0
   -1.3047    0.1594    0.7643 C   0  0  0  0  0  0  0  0  0  0  0  0
   -0.5206   -0.7525   -0.1480 C   0  0  0  0  0  0  0  0  0  0  0  0
   -1.3878   -1.1366   -1.3519 C   0  0  0  0  0  0  0  0  0  0  0  0
   -0.2678   -2.0330    0.6101 C   0  0  0  0  0  0  0  0  0  0  0  0
    0.5908   -0.1151   -0.5786 O   0  0  0  0  0  0  0  0  0  0  0  0
    1.5110    0.2948    0.3369 C   0  0  0  0  0  0  0  0  0  0  0  0
    2.9229    0.5651   -0.0361 C   0  0  0  0  0  0  0  0  0  0  0  0
    1.9961    1.7424    0.0966 C   0  0  0  0  0  0  0  0  0  0  0  0
   -1.5595    2.3307    0.6794 H   0  0  0  0  0  0  0  0  0  0  0  0
   -1.1857    1.5940   -0.8928 H   0  0  0  0  0  0  0  0  0  0  0  0
   -2.8206    1.3392   -0.1786 H   0  0  0  0  0  0  0  0  0  0  0  0
   -2.1997   -0.3772    1.1676 H   0  0  0  0  0  0  0  0  0  0  0  0
   -0.6677    0.4071    1.6285 H   0  0  0  0  0  0  0  0  0  0  0  0
   -0.8165   -1.9299   -1.9019 H   0  0  0  0  0  0  0  0  0  0  0  0
   -1.5393   -0.3005   -2.0393 H   0  0  0  0  0  0  0  0  0  0  0  0
   -2.3774   -1.4995   -1.0145 H   0  0  0  0  0  0  0  0  0  0  0  0
   -1.1991   -2.6340    0.5405 H   0  0  0  0  0  0  0  0  0  0  0  0
    0.5448   -2.6459    0.1501 H   0  0  0  0  0  0  0  0  0  0  0  0
   -0.0914   -1.8503    1.6920 H   0  0  0  0  0  0  0  0  0  0  0  0
    1.2997    0.0724    1.4011 H   0  0  0  0  0  0  0  0  0  0  0  0
    3.2865    0.2424   -1.0261 H   0  0  0  0  0  0  0  0  0  0  0  0
    3.6940    0.4799    0.7751 H   0  0  0  0  0  0  0  0  0  0  0  0
    1.7425    2.2230   -0.8562 H   0  0  0  0  0  0  0  0  0  0  0  0
    2.0747    2.3944    0.9845 H   0  0  0  0  0  0  0  0  0  0  0  0
  1  2  1  0
  2  3  1  0
  3  4  1  0
  3  5  1  0
  3  6  1  0
  6  7  1  0
  7  8  1  0
  8  9  1  0
  9  7  1  0
  1 10  1  0
  1 11  1  0
  1 12  1  0
  2 13  1  0
  2 14  1  0
  4 15  1  0
  4 16  1  0
  4 17  1  0
  5 18  1  0
  5 19  1  0
  5 20  1  0
  7 21  1  0
  8 22  1  0
  8 23  1  0
  9 24  1  0
  9 25  1  0
M  END
