
     RDKit          3D

 25 24  0  0  0  0  0  0  0  0999 V2000
    2.1383    1.4726   -0.0506 C   0  0  0  0  0  0  0  0  0  0  0  0
    1.6477    0.5459    1.0214 C   0  0  0  0  0  0  0  0  0  0  0  0
    1.1870   -0.7898    0.4908 C   0  0  0  0  0  0  0  0  0  0  0  0
    2.2440   -1.4585   -0.1572 O   0  0  0  0  0  0  0  0  0  0  0  0
    0.0260   -0.6267   -0.4327 C   0  0  0  0  0  0  0  0  0  0  0  0
   -0.4682   -1.9429   -0.9924 C   0  0  0  0  0  0  0  0  0  0  0  0
   -1.0904    0.1196    0.2482 C   0  0  0  0  0  0  0  0  0  0  0  0
   -2.1645    0.2294   -0.6648 O   0  0  0  0  0  0  0  0  0  0  0  0
   -3.2254    0.9211   -0.0628 C   0  0  0  0  0  0  0  0  0  0  0  0
    2.0502    1.0332   -1.0497 H   0  0  0  0  0  0  0  0  0  0  0  0
    3.1915    1.8068    0.1323 H   0  0  0  0  0  0  0  0  0  0  0  0
    1.4835    2.3827   -0.0227 H   0  0  0  0  0  0  0  0  0  0  0  0
    2.5017    0.3704    1.7281 H   0  0  0  0  0  0  0  0  0  0  0  0
    0.8504    0.9842    1.6285 H   0  0  0  0  0  0  0  0  0  0  0  0
    0.9434   -1.4122    1.3758 H   0  0  0  0  0  0  0  0  0  0  0  0
    2.9417   -0.8204   -0.4296 H   0  0  0  0  0  0  0  0  0  0  0  0
    0.3140   -0.0112   -1.3234 H   0  0  0  0  0  0  0  0  0  0  0  0
   -0.7350   -1.8681   -2.0658 H   0  0  0  0  0  0  0  0  0  0  0  0
    0.2231   -2.7732   -0.8382 H   0  0  0  0  0  0  0  0  0  0  0  0
   -1.4322   -2.2024   -0.4655 H   0  0  0  0  0  0  0  0  0  0  0  0
   -0.7496    1.1457    0.5311 H   0  0  0  0  0  0  0  0  0  0  0  0
   -1.3680   -0.4220    1.1702 H   0  0  0  0  0  0  0  0  0  0  0  0
   -2.9172    1.9462    0.2445 H   0  0  0  0  0  0  0  0  0  0  0  0
   -3.5746    0.3575    0.8165 H   0  0  0  0  0  0  0  0  0  0  0  0
   -4.0174    1.0121   -0.8320 H   0  0  0  0  0  0  0  0  0  0  0  0
  1  2  1  0
  2  3  1  0
  3  4  1  0
  3  5  1  0
  5  6  1  0
  5  7  1  0
  7  8  1  0
  8  9  1  0
  1 10  1  0
  1 11  1  0
  1 12  1  0
  2 13  1  0
  2 14  1  0
  3 15  1  0
  4 16  1  0
  5 17  1  0
  6 18  1  0
  6 19  1  0
  6 20  1  0
  7 21  1  0
  7 22  1  0
  9 23  1  0
  9 24  1  0
  9 25  1  0
M  END
