
     RDKit          3D

 19 19  0  0  0  0  0  0  0  0999 V2000
   -2.8769    0.1688    0.6522 C   0  0  0  0  0  0  0  0  0  0  0  0
   -1.9740   -0.2270   -0.5195 C   0  0  0  0  0  0  0  0  0  0  0  0
   -0.6207   -0.5919   -0.0239 C   0  0  0  0  0  0  0  0  0  0  0  0
   -0.5312   -1.6273    0.6375 O   0  0  0  0  0  0  0  0  0  0  0  0
    0.5917    0.2097   -0.2809 C   0  0  0  0  0  0  0  0  0  0  0  0
    1.5042    0.3690    0.9169 C   0  0  0  0  0  0  0  0  0  0  0  0
    1.8917   -0.5150   -0.2462 C   0  0  0  0  0  0  0  0  0  0  0  0
    3.0423   -0.0218   -1.0359 C   0  0  0  0  0  0  0  0  0  0  0  0
    3.8616   -0.8028   -1.4657 O   0  0  0  0  0  0  0  0  0  0  0  0
   -2.7280    1.2619    0.8353 H   0  0  0  0  0  0  0  0  0  0  0  0
   -3.9236   -0.1137    0.4968 H   0  0  0  0  0  0  0  0  0  0  0  0
   -2.5036   -0.4320    1.5245 H   0  0  0  0  0  0  0  0  0  0  0  0
   -1.9729    0.5172   -1.3156 H   0  0  0  0  0  0  0  0  0  0  0  0
   -2.4337   -1.1797   -0.9183 H   0  0  0  0  0  0  0  0  0  0  0  0
    0.4613    1.1302   -0.8775 H   0  0  0  0  0  0  0  0  0  0  0  0
    2.0489    1.3290    1.0472 H   0  0  0  0  0  0  0  0  0  0  0  0
    1.1875   -0.0771    1.8768 H   0  0  0  0  0  0  0  0  0  0  0  0
    1.8507   -1.5950   -0.0922 H   0  0  0  0  0  0  0  0  0  0  0  0
    3.1247    1.0379   -1.2114 H   0  0  0  0  0  0  0  0  0  0  0  0
  1  2  1  0
  2  3  1  0
  3  4  2  0
  3  5  1  0
  5  6  1  0
  6  7  1  0
  7  8  1  0
  8  9  2  0
  7  5  1  0
  1 10  1  0
  1 11  1  0
  1 12  1  0
  2 13  1  0
  2 14  1  0
  5 15  1  0
  6 16  1  0
  6 17  1  0
  7 18  1  0
  8 19  1  0
M  END
