
     RDKit          3D

 23 23  0  0  0  0  0  0  0  0999 V2000
    2.2687   -0.4599    0.0154 C   0  0  0  0  0  0  0  0  0  0  0  0
    1.4552    0.5970    0.7062 C   0  0  0  0  0  0  0  0  0  0  0  0
    0.0894    0.8024    0.1612 C   0  0  0  0  0  0  0  0  0  0  0  0
    0.1803    1.2137   -1.2937 C   0  0  0  0  0  0  0  0  0  0  0  0
   -0.8742   -0.3163    0.3889 C   0  0  0  0  0  0  0  0  0  0  0  0
   -1.1605   -0.6800    1.8076 C   0  0  0  0  0  0  0  0  0  0  0  0
   -1.9403   -1.5872    2.0741 O   0  0  0  0  0  0  0  0  0  0  0  0
   -2.1452   -0.1912   -0.4759 C   0  0  0  0  0  0  0  0  0  0  0  0
   -1.1901   -1.3336   -0.6214 C   0  0  0  0  0  0  0  0  0  0  0  0
    3.3196   -0.3496    0.4016 H   0  0  0  0  0  0  0  0  0  0  0  0
    2.3253   -0.2513   -1.0631 H   0  0  0  0  0  0  0  0  0  0  0  0
    1.9751   -1.4877    0.2629 H   0  0  0  0  0  0  0  0  0  0  0  0
    1.4517    0.3525    1.7886 H   0  0  0  0  0  0  0  0  0  0  0  0
    2.0099    1.5538    0.6125 H   0  0  0  0  0  0  0  0  0  0  0  0
   -0.3174    1.7073    0.6811 H   0  0  0  0  0  0  0  0  0  0  0  0
   -0.6441    1.9008   -1.5508 H   0  0  0  0  0  0  0  0  0  0  0  0
    1.1235    1.8087   -1.3905 H   0  0  0  0  0  0  0  0  0  0  0  0
    0.2748    0.3589   -1.9804 H   0  0  0  0  0  0  0  0  0  0  0  0
   -0.6608   -0.1208    2.5928 H   0  0  0  0  0  0  0  0  0  0  0  0
   -3.1212   -0.3392    0.0224 H   0  0  0  0  0  0  0  0  0  0  0  0
   -2.1644    0.5440   -1.2789 H   0  0  0  0  0  0  0  0  0  0  0  0
   -0.6677   -1.4162   -1.5923 H   0  0  0  0  0  0  0  0  0  0  0  0
   -1.5876   -2.3062   -0.2684 H   0  0  0  0  0  0  0  0  0  0  0  0
  1  2  1  0
  2  3  1  0
  3  4  1  0
  3  5  1  0
  5  6  1  0
  6  7  2  0
  5  8  1  0
  8  9  1  0
  9  5  1  0
  1 10  1  0
  1 11  1  0
  1 12  1  0
  2 13  1  0
  2 14  1  0
  3 15  1  0
  4 16  1  0
  4 17  1  0
  4 18  1  0
  6 19  1  0
  8 20  1  0
  8 21  1  0
  9 22  1  0
  9 23  1  0
M  END
