
     RDKit          3D

 25 25  0  0  0  0  0  0  0  0999 V2000
   -1.7126    1.4052    1.0390 C   0  0  0  0  0  0  0  0  0  0  0  0
   -2.1574    0.3554    0.0580 C   0  0  0  0  0  0  0  0  0  0  0  0
   -1.2079   -0.7758   -0.0825 C   0  0  0  0  0  0  0  0  0  0  0  0
   -1.7860   -1.7809   -1.1021 C   0  0  0  0  0  0  0  0  0  0  0  0
    0.1549   -0.4603   -0.5761 C   0  0  0  0  0  0  0  0  0  0  0  0
    0.9828    0.4721    0.2207 C   0  0  0  0  0  0  0  0  0  0  0  0
    1.3506    0.2503    1.5225 O   0  0  0  0  0  0  0  0  0  0  0  0
    2.3363   -0.1215    0.6471 C   0  0  0  0  0  0  0  0  0  0  0  0
    3.5786    0.6744    0.4693 C   0  0  0  0  0  0  0  0  0  0  0  0
   -2.6350    1.9471    1.3539 H   0  0  0  0  0  0  0  0  0  0  0  0
   -1.0548    2.1652    0.5779 H   0  0  0  0  0  0  0  0  0  0  0  0
   -1.2693    0.8800    1.9089 H   0  0  0  0  0  0  0  0  0  0  0  0
   -2.4832    0.7912   -0.9142 H   0  0  0  0  0  0  0  0  0  0  0  0
   -3.1075   -0.0789    0.4922 H   0  0  0  0  0  0  0  0  0  0  0  0
   -1.2088   -1.3442    0.8841 H   0  0  0  0  0  0  0  0  0  0  0  0
   -1.5228   -2.8146   -0.8329 H   0  0  0  0  0  0  0  0  0  0  0  0
   -2.8761   -1.6274   -1.1821 H   0  0  0  0  0  0  0  0  0  0  0  0
   -1.3606   -1.5870   -2.1093 H   0  0  0  0  0  0  0  0  0  0  0  0
    0.0172    0.0119   -1.5971 H   0  0  0  0  0  0  0  0  0  0  0  0
    0.6850   -1.4168   -0.7671 H   0  0  0  0  0  0  0  0  0  0  0  0
    1.1131    1.5249   -0.1217 H   0  0  0  0  0  0  0  0  0  0  0  0
    2.4725   -1.2179    0.5529 H   0  0  0  0  0  0  0  0  0  0  0  0
    4.4149    0.0573    0.0786 H   0  0  0  0  0  0  0  0  0  0  0  0
    3.3750    1.4448   -0.3287 H   0  0  0  0  0  0  0  0  0  0  0  0
    3.9013    1.2453    1.3547 H   0  0  0  0  0  0  0  0  0  0  0  0
  1  2  1  0
  2  3  1  0
  3  4  1  0
  3  5  1  0
  5  6  1  0
  6  7  1  0
  7  8  1  0
  8  9  1  0
  8  6  1  0
  1 10  1  0
  1 11  1  0
  1 12  1  0
  2 13  1  0
  2 14  1  0
  3 15  1  0
  4 16  1  0
  4 17  1  0
  4 18  1  0
  5 19  1  0
  5 20  1  0
  6 21  1  0
  8 22  1  0
  9 23  1  0
  9 24  1  0
  9 25  1  0
M  END
