
     RDKit          3D

 19 19  0  0  0  0  0  0  0  0999 V2000
    2.9115   -0.0673    0.2357 C   0  0  0  0  0  0  0  0  0  0  0  0
    1.5617    0.2903   -0.2997 C   0  0  0  0  0  0  0  0  0  0  0  0
    0.4787   -0.6071    0.1865 C   0  0  0  0  0  0  0  0  0  0  0  0
    0.7413   -1.5240    0.9458 O   0  0  0  0  0  0  0  0  0  0  0  0
   -0.8895   -0.3034   -0.3106 C   0  0  0  0  0  0  0  0  0  0  0  0
   -1.3962    1.0785    0.0517 C   0  0  0  0  0  0  0  0  0  0  0  0
   -2.6195    0.3957    0.6043 C   0  0  0  0  0  0  0  0  0  0  0  0
   -3.6554    0.8461    1.0136 O   0  0  0  0  0  0  0  0  0  0  0  0
   -2.0133   -0.9691    0.4275 C   0  0  0  0  0  0  0  0  0  0  0  0
    3.2802    0.7805    0.8554 H   0  0  0  0  0  0  0  0  0  0  0  0
    2.9449   -1.0219    0.7834 H   0  0  0  0  0  0  0  0  0  0  0  0
    3.6476   -0.1791   -0.6123 H   0  0  0  0  0  0  0  0  0  0  0  0
    1.2853    1.3305   -0.0557 H   0  0  0  0  0  0  0  0  0  0  0  0
    1.5806    0.2160   -1.4254 H   0  0  0  0  0  0  0  0  0  0  0  0
   -0.9445   -0.5298   -1.4044 H   0  0  0  0  0  0  0  0  0  0  0  0
   -0.8066    1.5925    0.8360 H   0  0  0  0  0  0  0  0  0  0  0  0
   -1.6256    1.7311   -0.8287 H   0  0  0  0  0  0  0  0  0  0  0  0
   -1.7668   -1.4899    1.3570 H   0  0  0  0  0  0  0  0  0  0  0  0
   -2.7143   -1.5696   -0.2008 H   0  0  0  0  0  0  0  0  0  0  0  0
  1  2  1  0
  2  3  1  0
  3  4  2  0
  3  5  1  0
  5  6  1  0
  6  7  1  0
  7  8  2  0
  7  9  1  0
  9  5  1  0
  1 10  1  0
  1 11  1  0
  1 12  1  0
  2 13  1  0
  2 14  1  0
  5 15  1  0
  6 16  1  0
  6 17  1  0
  9 18  1  0
  9 19  1  0
M  END
