
     RDKit          3D

 21 20  0  0  0  0  0  0  0  0999 V2000
   -2.0700   -0.8578   -1.1933 C   0  0  0  0  0  0  0  0  0  0  0  0
   -0.7481   -0.9136   -0.4539 C   0  0  0  0  0  0  0  0  0  0  0  0
   -0.1126    0.4431   -0.3096 C   0  0  0  0  0  0  0  0  0  0  0  0
   -1.0060    1.3960    0.4585 C   0  0  0  0  0  0  0  0  0  0  0  0
   -0.3247    2.6251    0.5367 O   0  0  0  0  0  0  0  0  0  0  0  0
    1.1270    0.2693    0.4966 C   0  0  0  0  0  0  0  0  0  0  0  0
    1.3238    0.8238    1.5631 O   0  0  0  0  0  0  0  0  0  0  0  0
    2.2053   -0.6257   -0.0013 C   0  0  0  0  0  0  0  0  0  0  0  0
    3.2774   -0.6731    0.8622 O   0  0  0  0  0  0  0  0  0  0  0  0
   -1.8853   -0.2759   -2.1250 H   0  0  0  0  0  0  0  0  0  0  0  0
   -2.3684   -1.9016   -1.4188 H   0  0  0  0  0  0  0  0  0  0  0  0
   -2.8352   -0.4071   -0.5474 H   0  0  0  0  0  0  0  0  0  0  0  0
   -0.0664   -1.5264   -1.0806 H   0  0  0  0  0  0  0  0  0  0  0  0
   -0.8225   -1.4135    0.5253 H   0  0  0  0  0  0  0  0  0  0  0  0
    0.0826    0.8783   -1.2978 H   0  0  0  0  0  0  0  0  0  0  0  0
   -2.0074    1.5022    0.0130 H   0  0  0  0  0  0  0  0  0  0  0  0
   -1.1256    1.0299    1.5191 H   0  0  0  0  0  0  0  0  0  0  0  0
   -0.4054    3.1384   -0.3053 H   0  0  0  0  0  0  0  0  0  0  0  0
    1.7859   -1.6447   -0.2134 H   0  0  0  0  0  0  0  0  0  0  0  0
    2.5110   -0.2355   -1.0147 H   0  0  0  0  0  0  0  0  0  0  0  0
    3.4645   -1.6312    1.0486 H   0  0  0  0  0  0  0  0  0  0  0  0
  1  2  1  0
  2  3  1  0
  3  4  1  0
  4  5  1  0
  3  6  1  0
  6  7  2  0
  6  8  1  0
  8  9  1  0
  1 10  1  0
  1 11  1  0
  1 12  1  0
  2 13  1  0
  2 14  1  0
  3 15  1  0
  4 16  1  0
  4 17  1  0
  5 18  1  0
  8 19  1  0
  8 20  1  0
  9 21  1  0
M  END
