
     RDKit          3D

 23 22  0  0  0  0  0  0  0  0999 V2000
    2.3955    1.4843    0.1643 C   0  0  0  0  0  0  0  0  0  0  0  0
    1.1156    0.7236    0.5470 C   0  0  0  0  0  0  0  0  0  0  0  0
    0.9757   -0.3836   -0.4597 C   0  0  0  0  0  0  0  0  0  0  0  0
    2.1404   -1.1828   -0.3408 O   0  0  0  0  0  0  0  0  0  0  0  0
   -0.1764   -1.3017   -0.2274 C   0  0  0  0  0  0  0  0  0  0  0  0
   -0.0841   -2.2947   -1.2328 O   0  0  0  0  0  0  0  0  0  0  0  0
   -1.5220   -0.6627   -0.3472 C   0  0  0  0  0  0  0  0  0  0  0  0
   -1.6908    0.3126    0.6011 O   0  0  0  0  0  0  0  0  0  0  0  0
   -2.9365    0.9265    0.5141 C   0  0  0  0  0  0  0  0  0  0  0  0
    2.1947    2.2945   -0.5408 H   0  0  0  0  0  0  0  0  0  0  0  0
    3.1551    0.8230   -0.2567 H   0  0  0  0  0  0  0  0  0  0  0  0
    2.8329    1.9328    1.0867 H   0  0  0  0  0  0  0  0  0  0  0  0
    1.2494    0.3816    1.5803 H   0  0  0  0  0  0  0  0  0  0  0  0
    0.3090    1.4931    0.4343 H   0  0  0  0  0  0  0  0  0  0  0  0
    0.9934    0.0444   -1.4618 H   0  0  0  0  0  0  0  0  0  0  0  0
    2.0420   -1.8198    0.4346 H   0  0  0  0  0  0  0  0  0  0  0  0
   -0.0596   -1.7854    0.7537 H   0  0  0  0  0  0  0  0  0  0  0  0
    0.7450   -2.8110   -1.1230 H   0  0  0  0  0  0  0  0  0  0  0  0
   -2.3156   -1.4358   -0.3626 H   0  0  0  0  0  0  0  0  0  0  0  0
   -1.6017   -0.1527   -1.3513 H   0  0  0  0  0  0  0  0  0  0  0  0
   -3.0941    1.4108   -0.4679 H   0  0  0  0  0  0  0  0  0  0  0  0
   -2.9182    1.7658    1.2666 H   0  0  0  0  0  0  0  0  0  0  0  0
   -3.7495    0.2373    0.7891 H   0  0  0  0  0  0  0  0  0  0  0  0
  1  2  1  0
  2  3  1  0
  3  4  1  0
  3  5  1  0
  5  6  1  0
  5  7  1  0
  7  8  1  0
  8  9  1  0
  1 10  1  0
  1 11  1  0
  1 12  1  0
  2 13  1  0
  2 14  1  0
  3 15  1  0
  4 16  1  0
  5 17  1  0
  6 18  1  0
  7 19  1  0
  7 20  1  0
  9 21  1  0
  9 22  1  0
  9 23  1  0
M  END
