
     RDKit          3D

 27 26  0  0  0  0  0  0  0  0999 V2000
   -2.3028   -1.6281   -0.5108 C   0  0  0  0  0  0  0  0  0  0  0  0
   -0.9283   -1.2815    0.0728 C   0  0  0  0  0  0  0  0  0  0  0  0
   -0.7422    0.1889   -0.0888 C   0  0  0  0  0  0  0  0  0  0  0  0
    0.5221    0.7719    0.4191 C   0  0  0  0  0  0  0  0  0  0  0  0
    1.8001    0.2909   -0.1534 C   0  0  0  0  0  0  0  0  0  0  0  0
    2.9181    1.0923    0.5522 C   0  0  0  0  0  0  0  0  0  0  0  0
    2.1299   -1.1464    0.0783 C   0  0  0  0  0  0  0  0  0  0  0  0
   -1.8139    0.8042    0.6039 O   0  0  0  0  0  0  0  0  0  0  0  0
   -2.6412    1.5282   -0.2129 C   0  0  0  0  0  0  0  0  0  0  0  0
   -2.3575   -1.2952   -1.5619 H   0  0  0  0  0  0  0  0  0  0  0  0
   -2.3589   -2.7500   -0.4330 H   0  0  0  0  0  0  0  0  0  0  0  0
   -3.1174   -1.1790    0.0528 H   0  0  0  0  0  0  0  0  0  0  0  0
   -0.8602   -1.5721    1.1295 H   0  0  0  0  0  0  0  0  0  0  0  0
   -0.2208   -1.9136   -0.5017 H   0  0  0  0  0  0  0  0  0  0  0  0
   -0.9258    0.4822   -1.1657 H   0  0  0  0  0  0  0  0  0  0  0  0
    0.5369    0.7285    1.5335 H   0  0  0  0  0  0  0  0  0  0  0  0
    0.4675    1.8782    0.1748 H   0  0  0  0  0  0  0  0  0  0  0  0
    1.8651    0.5100   -1.2316 H   0  0  0  0  0  0  0  0  0  0  0  0
    3.9089    0.6348    0.3478 H   0  0  0  0  0  0  0  0  0  0  0  0
    2.7426    1.0271    1.6250 H   0  0  0  0  0  0  0  0  0  0  0  0
    2.9614    2.1247    0.1528 H   0  0  0  0  0  0  0  0  0  0  0  0
    1.6117   -1.5743    0.9438 H   0  0  0  0  0  0  0  0  0  0  0  0
    2.0857   -1.7550   -0.8511 H   0  0  0  0  0  0  0  0  0  0  0  0
    3.2271   -1.2045    0.3639 H   0  0  0  0  0  0  0  0  0  0  0  0
   -2.0161    2.3289   -0.6925 H   0  0  0  0  0  0  0  0  0  0  0  0
   -3.4482    1.9765    0.4074 H   0  0  0  0  0  0  0  0  0  0  0  0
   -3.0437    0.9326   -1.0543 H   0  0  0  0  0  0  0  0  0  0  0  0
  1  2  1  0
  2  3  1  0
  3  4  1  0
  4  5  1  0
  5  6  1  0
  5  7  1  0
  3  8  1  0
  8  9  1  0
  1 10  1  0
  1 11  1  0
  1 12  1  0
  2 13  1  0
  2 14  1  0
  3 15  1  0
  4 16  1  0
  4 17  1  0
  5 18  1  0
  6 19  1  0
  6 20  1  0
  6 21  1  0
  7 22  1  0
  7 23  1  0
  7 24  1  0
  9 25  1  0
  9 26  1  0
  9 27  1  0
M  END
