
     RDKit          3D

 21 21  0  0  0  0  0  0  0  0999 V2000
   -2.5278    0.8258    0.6069 C   0  0  0  0  0  0  0  0  0  0  0  0
   -1.0693    1.0816    0.3602 C   0  0  0  0  0  0  0  0  0  0  0  0
   -0.2425   -0.1741    0.3212 C   0  0  0  0  0  0  0  0  0  0  0  0
   -0.7096   -1.1100   -0.7840 C   0  0  0  0  0  0  0  0  0  0  0  0
    1.1813    0.2016    0.0913 C   0  0  0  0  0  0  0  0  0  0  0  0
    2.1865   -0.8946    0.0164 C   0  0  0  0  0  0  0  0  0  0  0  0
    2.7606    0.0234   -1.0256 C   0  0  0  0  0  0  0  0  0  0  0  0
    3.8517    0.3653   -1.4934 O   0  0  0  0  0  0  0  0  0  0  0  0
    1.4362    0.3967   -1.3078 O   0  0  0  0  0  0  0  0  0  0  0  0
   -3.0539    1.8051    0.4461 H   0  0  0  0  0  0  0  0  0  0  0  0
   -2.9888    0.1216   -0.1025 H   0  0  0  0  0  0  0  0  0  0  0  0
   -2.6591    0.5257    1.6744 H   0  0  0  0  0  0  0  0  0  0  0  0
   -0.9161    1.6623   -0.5652 H   0  0  0  0  0  0  0  0  0  0  0  0
   -0.6965    1.6779    1.2321 H   0  0  0  0  0  0  0  0  0  0  0  0
   -0.3906   -0.7260    1.2756 H   0  0  0  0  0  0  0  0  0  0  0  0
   -0.6725   -0.5969   -1.7539 H   0  0  0  0  0  0  0  0  0  0  0  0
   -0.1045   -2.0307   -0.7446 H   0  0  0  0  0  0  0  0  0  0  0  0
   -1.7646   -1.4292   -0.6084 H   0  0  0  0  0  0  0  0  0  0  0  0
    1.5698    1.0627    0.6459 H   0  0  0  0  0  0  0  0  0  0  0  0
    1.9045   -1.8332   -0.4560 H   0  0  0  0  0  0  0  0  0  0  0  0
    2.9052   -0.9548    0.8550 H   0  0  0  0  0  0  0  0  0  0  0  0
  1  2  1  0
  2  3  1  0
  3  4  1  0
  3  5  1  0
  5  6  1  0
  6  7  1  0
  7  8  2  0
  7  9  1  0
  9  5  1  0
  1 10  1  0
  1 11  1  0
  1 12  1  0
  2 13  1  0
  2 14  1  0
  3 15  1  0
  4 16  1  0
  4 17  1  0
  4 18  1  0
  5 19  1  0
  6 20  1  0
  6 21  1  0
M  END
