
     RDKit          3D

 22 21  0  0  0  0  0  0  0  0999 V2000
    2.4856    0.3707    0.1888 C   0  0  0  0  0  0  0  0  0  0  0  0
    1.4079   -0.2481    1.0351 C   0  0  0  0  0  0  0  0  0  0  0  0
    0.4106   -1.0301    0.2410 C   0  0  0  0  0  0  0  0  0  0  0  0
    1.0716   -2.0542   -0.4252 O   0  0  0  0  0  0  0  0  0  0  0  0
   -0.3632   -0.1989   -0.7415 C   0  0  0  0  0  0  0  0  0  0  0  0
   -1.1493    0.8966   -0.1139 C   0  0  0  0  0  0  0  0  0  0  0  0
   -2.1565    0.3653    0.8625 C   0  0  0  0  0  0  0  0  0  0  0  0
   -2.9012    1.3641    1.4598 O   0  0  0  0  0  0  0  0  0  0  0  0
    3.5015   -0.0149    0.4260 H   0  0  0  0  0  0  0  0  0  0  0  0
    2.3121    0.1994   -0.9080 H   0  0  0  0  0  0  0  0  0  0  0  0
    2.5268    1.4758    0.3221 H   0  0  0  0  0  0  0  0  0  0  0  0
    0.9162    0.5268    1.6698 H   0  0  0  0  0  0  0  0  0  0  0  0
    1.9025   -0.9525    1.7364 H   0  0  0  0  0  0  0  0  0  0  0  0
   -0.2858   -1.5159    0.9552 H   0  0  0  0  0  0  0  0  0  0  0  0
    1.0561   -2.8867    0.1060 H   0  0  0  0  0  0  0  0  0  0  0  0
    0.2856    0.1463   -1.5704 H   0  0  0  0  0  0  0  0  0  0  0  0
   -1.1021   -0.8998   -1.2279 H   0  0  0  0  0  0  0  0  0  0  0  0
   -0.4935    1.6025    0.4440 H   0  0  0  0  0  0  0  0  0  0  0  0
   -1.6773    1.4477   -0.9163 H   0  0  0  0  0  0  0  0  0  0  0  0
   -2.8032   -0.4268    0.4012 H   0  0  0  0  0  0  0  0  0  0  0  0
   -1.5775   -0.1245    1.6974 H   0  0  0  0  0  0  0  0  0  0  0  0
   -3.3671    1.9574    0.8246 H   0  0  0  0  0  0  0  0  0  0  0  0
  1  2  1  0
  2  3  1  0
  3  4  1  0
  3  5  1  0
  5  6  1  0
  6  7  1  0
  7  8  1  0
  1  9  1  0
  1 10  1  0
  1 11  1  0
  2 12  1  0
  2 13  1  0
  3 14  1  0
  4 15  1  0
  5 16  1  0
  5 17  1  0
  6 18  1  0
  6 19  1  0
  7 20  1  0
  7 21  1  0
  8 22  1  0
M  END
