
     RDKit          3D

 19 20  0  0  0  0  0  0  0  0999 V2000
   -2.4161    0.6761    0.3699 C   0  0  0  0  0  0  0  0  0  0  0  0
   -1.8356   -0.6816    0.7190 C   0  0  0  0  0  0  0  0  0  0  0  0
   -0.6750   -0.9241   -0.1745 C   0  0  0  0  0  0  0  0  0  0  0  0
   -0.7907   -1.7279   -1.0716 O   0  0  0  0  0  0  0  0  0  0  0  0
    0.5581   -0.2005    0.0384 C   0  0  0  0  0  0  0  0  0  0  0  0
    1.4087    0.2262   -1.1658 C   0  0  0  0  0  0  0  0  0  0  0  0
    2.5486    0.3577   -0.1897 C   0  0  0  0  0  0  0  0  0  0  0  0
    1.5959   -0.1977    0.8829 C   0  0  0  0  0  0  0  0  0  0  0  0
    0.5713    0.7120    1.1333 O   0  0  0  0  0  0  0  0  0  0  0  0
   -1.6847    1.4903    0.5940 H   0  0  0  0  0  0  0  0  0  0  0  0
   -2.5471    0.6912   -0.7254 H   0  0  0  0  0  0  0  0  0  0  0  0
   -3.3126    0.9038    0.9410 H   0  0  0  0  0  0  0  0  0  0  0  0
   -1.5324   -0.7890    1.7630 H   0  0  0  0  0  0  0  0  0  0  0  0
   -2.6402   -1.4098    0.5178 H   0  0  0  0  0  0  0  0  0  0  0  0
    1.0490    1.1579   -1.6336 H   0  0  0  0  0  0  0  0  0  0  0  0
    1.5602   -0.6355   -1.8331 H   0  0  0  0  0  0  0  0  0  0  0  0
    2.7254    1.4304    0.0297 H   0  0  0  0  0  0  0  0  0  0  0  0
    3.4208   -0.2681   -0.3761 H   0  0  0  0  0  0  0  0  0  0  0  0
    1.9964   -0.8114    1.6898 H   0  0  0  0  0  0  0  0  0  0  0  0
  1  2  1  0
  2  3  1  0
  3  4  2  0
  3  5  1  0
  5  6  1  0
  6  7  1  0
  7  8  1  0
  8  9  1  0
  8  5  1  0
  9  5  1  0
  1 10  1  0
  1 11  1  0
  1 12  1  0
  2 13  1  0
  2 14  1  0
  6 15  1  0
  6 16  1  0
  7 17  1  0
  7 18  1  0
  8 19  1  0
M  END
