
     RDKit          3D

 23 22  0  0  0  0  0  0  0  0999 V2000
   -3.2394    0.4034   -0.0495 C   0  0  0  0  0  0  0  0  0  0  0  0
   -1.8253    0.7408   -0.3782 C   0  0  0  0  0  0  0  0  0  0  0  0
   -0.8228   -0.1017    0.3772 C   0  0  0  0  0  0  0  0  0  0  0  0
   -1.0069   -1.5456    0.0662 C   0  0  0  0  0  0  0  0  0  0  0  0
   -0.4403   -2.0229   -0.9025 O   0  0  0  0  0  0  0  0  0  0  0  0
    0.5581    0.3211   -0.0941 C   0  0  0  0  0  0  0  0  0  0  0  0
    1.6386   -0.4750    0.6130 C   0  0  0  0  0  0  0  0  0  0  0  0
    3.0102   -0.0857    0.1744 C   0  0  0  0  0  0  0  0  0  0  0  0
    3.2927    1.2582    0.4194 O   0  0  0  0  0  0  0  0  0  0  0  0
   -3.7912    1.3654    0.0962 H   0  0  0  0  0  0  0  0  0  0  0  0
   -3.3631   -0.1638    0.8878 H   0  0  0  0  0  0  0  0  0  0  0  0
   -3.7614   -0.0862   -0.9193 H   0  0  0  0  0  0  0  0  0  0  0  0
   -1.6818    0.5804   -1.4789 H   0  0  0  0  0  0  0  0  0  0  0  0
   -1.5990    1.8084   -0.2020 H   0  0  0  0  0  0  0  0  0  0  0  0
   -0.9412    0.0858    1.4640 H   0  0  0  0  0  0  0  0  0  0  0  0
   -1.6267   -2.1924    0.6687 H   0  0  0  0  0  0  0  0  0  0  0  0
    0.6243    0.2141   -1.1938 H   0  0  0  0  0  0  0  0  0  0  0  0
    0.7576    1.3863    0.1280 H   0  0  0  0  0  0  0  0  0  0  0  0
    1.4826   -1.5375    0.3365 H   0  0  0  0  0  0  0  0  0  0  0  0
    1.5700   -0.4061    1.6970 H   0  0  0  0  0  0  0  0  0  0  0  0
    3.7365   -0.6818    0.7635 H   0  0  0  0  0  0  0  0  0  0  0  0
    3.1498   -0.2440   -0.9280 H   0  0  0  0  0  0  0  0  0  0  0  0
    4.2788    1.3790    0.3845 H   0  0  0  0  0  0  0  0  0  0  0  0
  1  2  1  0
  2  3  1  0
  3  4  1  0
  4  5  2  0
  3  6  1  0
  6  7  1  0
  7  8  1  0
  8  9  1  0
  1 10  1  0
  1 11  1  0
  1 12  1  0
  2 13  1  0
  2 14  1  0
  3 15  1  0
  4 16  1  0
  6 17  1  0
  6 18  1  0
  7 19  1  0
  7 20  1  0
  8 21  1  0
  8 22  1  0
  9 23  1  0
M  END
