
     RDKit          3D

 23 23  0  0  0  0  0  0  0  0999 V2000
    2.8115    0.4776   -0.7073 C   0  0  0  0  0  0  0  0  0  0  0  0
    1.5919   -0.4507   -0.6760 C   0  0  0  0  0  0  0  0  0  0  0  0
    0.6069    0.2014    0.2676 C   0  0  0  0  0  0  0  0  0  0  0  0
    1.2518    0.2921    1.5140 O   0  0  0  0  0  0  0  0  0  0  0  0
   -0.6310   -0.6235    0.4703 C   0  0  0  0  0  0  0  0  0  0  0  0
   -1.5519    0.1342    1.4409 C   0  0  0  0  0  0  0  0  0  0  0  0
   -2.1318    0.8019    0.1851 C   0  0  0  0  0  0  0  0  0  0  0  0
   -1.7159   -0.4549   -0.5556 C   0  0  0  0  0  0  0  0  0  0  0  0
   -1.3325   -0.2971   -1.8552 O   0  0  0  0  0  0  0  0  0  0  0  0
    3.1760    0.5712    0.3394 H   0  0  0  0  0  0  0  0  0  0  0  0
    2.4760    1.4932   -1.0110 H   0  0  0  0  0  0  0  0  0  0  0  0
    3.5836    0.0551   -1.3492 H   0  0  0  0  0  0  0  0  0  0  0  0
    1.9357   -1.3898   -0.1678 H   0  0  0  0  0  0  0  0  0  0  0  0
    1.2011   -0.6137   -1.6797 H   0  0  0  0  0  0  0  0  0  0  0  0
    0.3743    1.1967   -0.1504 H   0  0  0  0  0  0  0  0  0  0  0  0
    1.3527   -0.6377    1.8387 H   0  0  0  0  0  0  0  0  0  0  0  0
   -0.4236   -1.6403    0.8030 H   0  0  0  0  0  0  0  0  0  0  0  0
   -1.0188    0.8138    2.1119 H   0  0  0  0  0  0  0  0  0  0  0  0
   -2.3192   -0.5225    1.8792 H   0  0  0  0  0  0  0  0  0  0  0  0
   -1.5968    1.7209   -0.1185 H   0  0  0  0  0  0  0  0  0  0  0  0
   -3.2089    0.9855    0.2323 H   0  0  0  0  0  0  0  0  0  0  0  0
   -2.5013   -1.2341   -0.3880 H   0  0  0  0  0  0  0  0  0  0  0  0
   -1.9299   -0.8792   -2.4239 H   0  0  0  0  0  0  0  0  0  0  0  0
  1  2  1  0
  2  3  1  0
  3  4  1  0
  3  5  1  0
  5  6  1  0
  6  7  1  0
  7  8  1  0
  8  9  1  0
  8  5  1  0
  1 10  1  0
  1 11  1  0
  1 12  1  0
  2 13  1  0
  2 14  1  0
  3 15  1  0
  4 16  1  0
  5 17  1  0
  6 18  1  0
  6 19  1  0
  7 20  1  0
  7 21  1  0
  8 22  1  0
  9 23  1  0
M  END
