
     RDKit          3D

 20 20  0  0  0  0  0  0  0  0999 V2000
    2.1943    0.7948    0.1038 C   0  0  0  0  0  0  0  0  0  0  0  0
    1.4594   -0.1196   -0.8521 C   0  0  0  0  0  0  0  0  0  0  0  0
    0.3629   -0.8071   -0.0703 C   0  0  0  0  0  0  0  0  0  0  0  0
   -0.3252   -1.6555   -0.9401 O   0  0  0  0  0  0  0  0  0  0  0  0
   -0.6067    0.1509    0.5455 C   0  0  0  0  0  0  0  0  0  0  0  0
   -1.4021    1.0886   -0.2853 C   0  0  0  0  0  0  0  0  0  0  0  0
   -2.0946   -0.1009    0.2572 C   0  0  0  0  0  0  0  0  0  0  0  0
   -2.9288   -0.0093    1.3621 O   0  0  0  0  0  0  0  0  0  0  0  0
    2.4481    0.1556    0.9989 H   0  0  0  0  0  0  0  0  0  0  0  0
    1.5141    1.6104    0.4755 H   0  0  0  0  0  0  0  0  0  0  0  0
    3.1223    1.1969   -0.2976 H   0  0  0  0  0  0  0  0  0  0  0  0
    2.1877   -0.9089   -1.1503 H   0  0  0  0  0  0  0  0  0  0  0  0
    1.1023    0.3721   -1.7542 H   0  0  0  0  0  0  0  0  0  0  0  0
    0.7957   -1.4502    0.7157 H   0  0  0  0  0  0  0  0  0  0  0  0
    0.2032   -2.5014   -1.0820 H   0  0  0  0  0  0  0  0  0  0  0  0
   -0.3507    0.4542    1.5789 H   0  0  0  0  0  0  0  0  0  0  0  0
   -1.2660    1.1285   -1.3936 H   0  0  0  0  0  0  0  0  0  0  0  0
   -1.5472    2.1010    0.1488 H   0  0  0  0  0  0  0  0  0  0  0  0
   -2.3375   -0.9241   -0.4387 H   0  0  0  0  0  0  0  0  0  0  0  0
   -2.5313   -0.5759    2.0779 H   0  0  0  0  0  0  0  0  0  0  0  0
  1  2  1  0
  2  3  1  0
  3  4  1  0
  3  5  1  0
  5  6  1  0
  6  7  1  0
  7  8  1  0
  7  5  1  0
  1  9  1  0
  1 10  1  0
  1 11  1  0
  2 12  1  0
  2 13  1  0
  3 14  1  0
  4 15  1  0
  5 16  1  0
  6 17  1  0
  6 18  1  0
  7 19  1  0
  8 20  1  0
M  END
