
     RDKit          3D

 23 22  0  0  0  0  0  0  0  0999 V2000
   -1.4824   -1.3869    0.1291 C   0  0  0  0  0  0  0  0  0  0  0  0
   -1.5761    0.0262   -0.2895 C   0  0  0  0  0  0  0  0  0  0  0  0
   -0.5595    0.9909    0.1729 C   0  0  0  0  0  0  0  0  0  0  0  0
   -0.9782    2.3524   -0.4455 C   0  0  0  0  0  0  0  0  0  0  0  0
    0.8421    0.7198   -0.0979 C   0  0  0  0  0  0  0  0  0  0  0  0
    1.4299    1.4417   -0.9186 O   0  0  0  0  0  0  0  0  0  0  0  0
    1.6327   -0.3476    0.5193 C   0  0  0  0  0  0  0  0  0  0  0  0
    2.1315   -1.3631   -0.4956 C   0  0  0  0  0  0  0  0  0  0  0  0
    1.0195   -1.0557    1.5278 O   0  0  0  0  0  0  0  0  0  0  0  0
   -1.5907   -1.5755    1.2187 H   0  0  0  0  0  0  0  0  0  0  0  0
   -2.4342   -1.8844   -0.2789 H   0  0  0  0  0  0  0  0  0  0  0  0
   -0.6788   -1.9892   -0.3378 H   0  0  0  0  0  0  0  0  0  0  0  0
   -1.6259    0.0126   -1.4279 H   0  0  0  0  0  0  0  0  0  0  0  0
   -2.6118    0.3791    0.0232 H   0  0  0  0  0  0  0  0  0  0  0  0
   -0.7533    1.1700    1.2821 H   0  0  0  0  0  0  0  0  0  0  0  0
   -2.0568    2.4978   -0.2336 H   0  0  0  0  0  0  0  0  0  0  0  0
   -0.8083    2.3072   -1.5269 H   0  0  0  0  0  0  0  0  0  0  0  0
   -0.4327    3.1764    0.0451 H   0  0  0  0  0  0  0  0  0  0  0  0
    2.5609    0.1615    0.9441 H   0  0  0  0  0  0  0  0  0  0  0  0
    2.1792   -2.3734   -0.0505 H   0  0  0  0  0  0  0  0  0  0  0  0
    3.1405   -1.0787   -0.8387 H   0  0  0  0  0  0  0  0  0  0  0  0
    1.4202   -1.4375   -1.3568 H   0  0  0  0  0  0  0  0  0  0  0  0
    1.2322   -0.7436    2.4359 H   0  0  0  0  0  0  0  0  0  0  0  0
  1  2  1  0
  2  3  1  0
  3  4  1  0
  3  5  1  0
  5  6  2  0
  5  7  1  0
  7  8  1  0
  7  9  1  0
  1 10  1  0
  1 11  1  0
  1 12  1  0
  2 13  1  0
  2 14  1  0
  3 15  1  0
  4 16  1  0
  4 17  1  0
  4 18  1  0
  7 19  1  0
  8 20  1  0
  8 21  1  0
  8 22  1  0
  9 23  1  0
M  END
