
     RDKit          3D

 22 22  0  0  0  0  0  0  0  0999 V2000
    2.3050   -0.7380   -0.1912 C   0  0  0  0  0  0  0  0  0  0  0  0
    1.3498   -0.3221    0.8837 C   0  0  0  0  0  0  0  0  0  0  0  0
    0.0926    0.3174    0.3641 C   0  0  0  0  0  0  0  0  0  0  0  0
    0.4236    1.5588   -0.4286 C   0  0  0  0  0  0  0  0  0  0  0  0
   -0.6262    0.7601    1.4985 O   0  0  0  0  0  0  0  0  0  0  0  0
   -0.7946   -0.6384   -0.3809 C   0  0  0  0  0  0  0  0  0  0  0  0
   -2.0567   -0.1449   -0.9423 C   0  0  0  0  0  0  0  0  0  0  0  0
   -2.1306   -1.0165    0.2439 C   0  0  0  0  0  0  0  0  0  0  0  0
    2.9577   -1.5393    0.2129 H   0  0  0  0  0  0  0  0  0  0  0  0
    1.8519   -1.0797   -1.1143 H   0  0  0  0  0  0  0  0  0  0  0  0
    2.9870    0.1140   -0.4574 H   0  0  0  0  0  0  0  0  0  0  0  0
    1.0420   -1.2009    1.4951 H   0  0  0  0  0  0  0  0  0  0  0  0
    1.8596    0.3921    1.5456 H   0  0  0  0  0  0  0  0  0  0  0  0
   -0.4531    2.2603   -0.4916 H   0  0  0  0  0  0  0  0  0  0  0  0
    0.8605    1.3393   -1.4161 H   0  0  0  0  0  0  0  0  0  0  0  0
    1.1904    2.1160    0.1672 H   0  0  0  0  0  0  0  0  0  0  0  0
   -1.1283    1.5892    1.2618 H   0  0  0  0  0  0  0  0  0  0  0  0
   -0.2584   -1.5175   -0.7896 H   0  0  0  0  0  0  0  0  0  0  0  0
   -2.2582    0.9509   -0.8596 H   0  0  0  0  0  0  0  0  0  0  0  0
   -2.3524   -0.5529   -1.9318 H   0  0  0  0  0  0  0  0  0  0  0  0
   -2.3341   -0.6100    1.2473 H   0  0  0  0  0  0  0  0  0  0  0  0
   -2.5276   -2.0378    0.0834 H   0  0  0  0  0  0  0  0  0  0  0  0
  1  2  1  0
  2  3  1  0
  3  4  1  0
  3  5  1  0
  3  6  1  0
  6  7  1  0
  7  8  1  0
  8  6  1  0
  1  9  1  0
  1 10  1  0
  1 11  1  0
  2 12  1  0
  2 13  1  0
  4 14  1  0
  4 15  1  0
  4 16  1  0
  5 17  1  0
  6 18  1  0
  7 19  1  0
  7 20  1  0
  8 21  1  0
  8 22  1  0
M  END
