
     RDKit          3D

 19 18  0  0  0  0  0  0  0  0999 V2000
   -2.0034   -0.0332   -0.8374 C   0  0  0  0  0  0  0  0  0  0  0  0
   -1.4245    0.5960    0.4072 C   0  0  0  0  0  0  0  0  0  0  0  0
    0.0646    0.3493    0.5212 C   0  0  0  0  0  0  0  0  0  0  0  0
    0.7788    0.8722   -0.5613 O   0  0  0  0  0  0  0  0  0  0  0  0
    1.6963    1.9114   -0.4562 C   0  0  0  0  0  0  0  0  0  0  0  0
    1.9153    2.4294    0.6673 O   0  0  0  0  0  0  0  0  0  0  0  0
    0.3806   -1.0619    0.8105 C   0  0  0  0  0  0  0  0  0  0  0  0
    1.3650   -1.8407    0.0199 C   0  0  0  0  0  0  0  0  0  0  0  0
   -0.1666   -1.6425    1.7242 O   0  0  0  0  0  0  0  0  0  0  0  0
   -1.6253    0.4582   -1.7503 H   0  0  0  0  0  0  0  0  0  0  0  0
   -3.1028    0.1736   -0.8080 H   0  0  0  0  0  0  0  0  0  0  0  0
   -1.8687   -1.1118   -0.8980 H   0  0  0  0  0  0  0  0  0  0  0  0
   -1.5516    1.6940    0.2980 H   0  0  0  0  0  0  0  0  0  0  0  0
   -1.9077    0.1988    1.2964 H   0  0  0  0  0  0  0  0  0  0  0  0
    0.3942    0.9365    1.4292 H   0  0  0  0  0  0  0  0  0  0  0  0
    2.2464    2.3123   -1.2969 H   0  0  0  0  0  0  0  0  0  0  0  0
    1.8239   -1.2509   -0.7948 H   0  0  0  0  0  0  0  0  0  0  0  0
    0.8570   -2.7013   -0.4671 H   0  0  0  0  0  0  0  0  0  0  0  0
    2.1287   -2.2894    0.6960 H   0  0  0  0  0  0  0  0  0  0  0  0
  1  2  1  0
  2  3  1  0
  3  4  1  0
  4  5  1  0
  5  6  2  0
  3  7  1  0
  7  8  1  0
  7  9  2  0
  1 10  1  0
  1 11  1  0
  1 12  1  0
  2 13  1  0
  2 14  1  0
  3 15  1  0
  5 16  1  0
  8 17  1  0
  8 18  1  0
  8 19  1  0
M  END
