
     RDKit          3D

 21 21  0  0  0  0  0  0  0  0999 V2000
    2.8001   -0.9821   -0.6011 C   0  0  0  0  0  0  0  0  0  0  0  0
    1.3848   -0.9625   -0.0148 C   0  0  0  0  0  0  0  0  0  0  0  0
    1.0287    0.4743    0.2096 C   0  0  0  0  0  0  0  0  0  0  0  0
    1.9575    1.0112    1.0984 O   0  0  0  0  0  0  0  0  0  0  0  0
   -0.3623    0.6834    0.6549 C   0  0  0  0  0  0  0  0  0  0  0  0
   -0.5509    1.2776    1.7079 O   0  0  0  0  0  0  0  0  0  0  0  0
   -1.5023    0.1871   -0.1515 C   0  0  0  0  0  0  0  0  0  0  0  0
   -2.7073   -0.3817    0.5325 C   0  0  0  0  0  0  0  0  0  0  0  0
   -2.7698    0.9571   -0.2166 C   0  0  0  0  0  0  0  0  0  0  0  0
    3.1113    0.0285   -0.9396 H   0  0  0  0  0  0  0  0  0  0  0  0
    3.5390   -1.2825    0.1815 H   0  0  0  0  0  0  0  0  0  0  0  0
    2.8501   -1.6322   -1.5014 H   0  0  0  0  0  0  0  0  0  0  0  0
    0.7088   -1.4713   -0.7369 H   0  0  0  0  0  0  0  0  0  0  0  0
    1.3363   -1.5572    0.9209 H   0  0  0  0  0  0  0  0  0  0  0  0
    1.2077    1.0088   -0.7695 H   0  0  0  0  0  0  0  0  0  0  0  0
    1.5702    1.7064    1.6778 H   0  0  0  0  0  0  0  0  0  0  0  0
   -1.2295   -0.3381   -1.0884 H   0  0  0  0  0  0  0  0  0  0  0  0
   -3.2266   -1.2512    0.0816 H   0  0  0  0  0  0  0  0  0  0  0  0
   -2.8246   -0.2678    1.6355 H   0  0  0  0  0  0  0  0  0  0  0  0
   -3.3760    0.9249   -1.1579 H   0  0  0  0  0  0  0  0  0  0  0  0
   -2.9453    1.8674    0.3668 H   0  0  0  0  0  0  0  0  0  0  0  0
  1  2  1  0
  2  3  1  0
  3  4  1  0
  3  5  1  0
  5  6  2  0
  5  7  1  0
  7  8  1  0
  8  9  1  0
  9  7  1  0
  1 10  1  0
  1 11  1  0
  1 12  1  0
  2 13  1  0
  2 14  1  0
  3 15  1  0
  4 16  1  0
  7 17  1  0
  8 18  1  0
  8 19  1  0
  9 20  1  0
  9 21  1  0
M  END
