
     RDKit          3D

 21 20  0  0  0  0  0  0  0  0999 V2000
   -1.2149   -0.8462    1.6923 C   0  0  0  0  0  0  0  0  0  0  0  0
   -1.2959   -1.4805    0.3129 C   0  0  0  0  0  0  0  0  0  0  0  0
   -0.8309   -0.5391   -0.7499 C   0  0  0  0  0  0  0  0  0  0  0  0
    0.6109   -0.1842   -0.4729 C   0  0  0  0  0  0  0  0  0  0  0  0
    1.7616    0.1165   -0.2637 C   0  0  0  0  0  0  0  0  0  0  0  0
    3.1611    0.4814    0.0025 C   0  0  0  0  0  0  0  0  0  0  0  0
    3.4841    1.7397   -0.5160 O   0  0  0  0  0  0  0  0  0  0  0  0
   -1.4771    0.6906   -0.6993 O   0  0  0  0  0  0  0  0  0  0  0  0
   -1.8138    1.0727   -1.9901 C   0  0  0  0  0  0  0  0  0  0  0  0
   -0.7780   -1.5787    2.3956 H   0  0  0  0  0  0  0  0  0  0  0  0
   -0.4805    0.0097    1.6528 H   0  0  0  0  0  0  0  0  0  0  0  0
   -2.2076   -0.5576    2.0617 H   0  0  0  0  0  0  0  0  0  0  0  0
   -2.2787   -1.9193    0.1770 H   0  0  0  0  0  0  0  0  0  0  0  0
   -0.5236   -2.3126    0.3332 H   0  0  0  0  0  0  0  0  0  0  0  0
   -0.8415   -0.9729   -1.7396 H   0  0  0  0  0  0  0  0  0  0  0  0
    3.2890    0.5360    1.1242 H   0  0  0  0  0  0  0  0  0  0  0  0
    3.8611   -0.2439   -0.4360 H   0  0  0  0  0  0  0  0  0  0  0  0
    3.1004    2.4253    0.0923 H   0  0  0  0  0  0  0  0  0  0  0  0
   -0.8577    1.2018   -2.5852 H   0  0  0  0  0  0  0  0  0  0  0  0
   -2.3115    2.0659   -2.0102 H   0  0  0  0  0  0  0  0  0  0  0  0
   -2.3566    0.2952   -2.5507 H   0  0  0  0  0  0  0  0  0  0  0  0
  1  2  1  0
  2  3  1  0
  3  4  1  0
  4  5  3  0
  5  6  1  0
  6  7  1  0
  3  8  1  0
  8  9  1  0
  1 10  1  0
  1 11  1  0
  1 12  1  0
  2 13  1  0
  2 14  1  0
  3 15  1  0
  6 16  1  0
  6 17  1  0
  7 18  1  0
  9 19  1  0
  9 20  1  0
  9 21  1  0
M  END
