
     RDKit          3D

 29 28  0  0  0  0  0  0  0  0999 V2000
    1.8489    1.3709    1.1806 C   0  0  0  0  0  0  0  0  0  0  0  0
    1.9697   -0.0007    0.5912 C   0  0  0  0  0  0  0  0  0  0  0  0
    1.1343   -0.3521   -0.5485 C   0  0  0  0  0  0  0  0  0  0  0  0
    1.5677   -1.8189   -0.9231 C   0  0  0  0  0  0  0  0  0  0  0  0
   -0.3280   -0.4187   -0.5152 C   0  0  0  0  0  0  0  0  0  0  0  0
   -0.8508   -1.4170    0.5282 C   0  0  0  0  0  0  0  0  0  0  0  0
   -1.1921    0.7584   -0.6952 C   0  0  0  0  0  0  0  0  0  0  0  0
   -2.6518    0.1915   -0.6426 C   0  0  0  0  0  0  0  0  0  0  0  0
   -1.2126    1.8124    0.3597 C   0  0  0  0  0  0  0  0  0  0  0  0
    2.8145    1.6452    1.7312 H   0  0  0  0  0  0  0  0  0  0  0  0
    1.1084    1.3683    1.9974 H   0  0  0  0  0  0  0  0  0  0  0  0
    1.6356    2.1517    0.4507 H   0  0  0  0  0  0  0  0  0  0  0  0
    3.0665   -0.0557    0.2624 H   0  0  0  0  0  0  0  0  0  0  0  0
    1.9752   -0.7708    1.4165 H   0  0  0  0  0  0  0  0  0  0  0  0
    1.4327    0.2776   -1.4247 H   0  0  0  0  0  0  0  0  0  0  0  0
    0.7620   -2.3359   -1.4424 H   0  0  0  0  0  0  0  0  0  0  0  0
    1.7823   -2.2991    0.0474 H   0  0  0  0  0  0  0  0  0  0  0  0
    2.5151   -1.7725   -1.4800 H   0  0  0  0  0  0  0  0  0  0  0  0
   -0.5709   -1.0305   -1.4949 H   0  0  0  0  0  0  0  0  0  0  0  0
   -0.1626   -2.2835    0.5712 H   0  0  0  0  0  0  0  0  0  0  0  0
   -0.8573   -0.9720    1.5414 H   0  0  0  0  0  0  0  0  0  0  0  0
   -1.8124   -1.7867    0.1823 H   0  0  0  0  0  0  0  0  0  0  0  0
   -1.0933    1.1461   -1.7152 H   0  0  0  0  0  0  0  0  0  0  0  0
   -3.3540    0.9931   -0.9223 H   0  0  0  0  0  0  0  0  0  0  0  0
   -2.7272   -0.7074   -1.2613 H   0  0  0  0  0  0  0  0  0  0  0  0
   -2.8808   -0.0845    0.4031 H   0  0  0  0  0  0  0  0  0  0  0  0
   -2.2504    2.3097    0.3814 H   0  0  0  0  0  0  0  0  0  0  0  0
   -0.5676    2.6451    0.0502 H   0  0  0  0  0  0  0  0  0  0  0  0
   -1.1012    1.4359    1.3703 H   0  0  0  0  0  0  0  0  0  0  0  0
  1  2  1  0
  2  3  1  0
  3  4  1  0
  3  5  1  0
  5  6  1  0
  5  7  1  0
  7  8  1  0
  7  9  1  0
  1 10  1  0
  1 11  1  0
  1 12  1  0
  2 13  1  0
  2 14  1  0
  3 15  1  0
  4 16  1  0
  4 17  1  0
  4 18  1  0
  5 19  1  0
  6 20  1  0
  6 21  1  0
  6 22  1  0
  7 23  1  0
  8 24  1  0
  8 25  1  0
  8 26  1  0
  9 27  1  0
  9 28  1  0
  9 29  1  0
M  END
