
     RDKit          3D

 21 20  0  0  0  0  0  0  0  0999 V2000
   -1.3250    1.8063    1.5649 C   0  0  0  0  0  0  0  0  0  0  0  0
   -0.0131    1.1651    1.2033 C   0  0  0  0  0  0  0  0  0  0  0  0
   -0.2365   -0.1243    0.4421 C   0  0  0  0  0  0  0  0  0  0  0  0
    1.0617   -0.7136    0.1108 C   0  0  0  0  0  0  0  0  0  0  0  0
    2.1504   -1.1873   -0.1593 C   0  0  0  0  0  0  0  0  0  0  0  0
    3.4350   -1.7432   -0.4810 C   0  0  0  0  0  0  0  0  0  0  0  0
    4.0996   -1.2118   -1.4073 O   0  0  0  0  0  0  0  0  0  0  0  0
   -0.9642    0.1847   -0.8400 C   0  0  0  0  0  0  0  0  0  0  0  0
   -1.2383   -1.0235   -1.6746 C   0  0  0  0  0  0  0  0  0  0  0  0
   -1.2051    2.6051    2.2961 H   0  0  0  0  0  0  0  0  0  0  0  0
   -2.0944    1.1018    1.8982 H   0  0  0  0  0  0  0  0  0  0  0  0
   -1.7203    2.2784    0.6248 H   0  0  0  0  0  0  0  0  0  0  0  0
    0.6290    0.9677    2.0789 H   0  0  0  0  0  0  0  0  0  0  0  0
    0.5462    1.8518    0.5339 H   0  0  0  0  0  0  0  0  0  0  0  0
   -0.8034   -0.8622    1.0474 H   0  0  0  0  0  0  0  0  0  0  0  0
    3.8677   -2.5894    0.0219 H   0  0  0  0  0  0  0  0  0  0  0  0
   -0.4057    0.9701   -1.3898 H   0  0  0  0  0  0  0  0  0  0  0  0
   -1.9409    0.6324   -0.5620 H   0  0  0  0  0  0  0  0  0  0  0  0
   -0.6030   -1.8574   -1.2526 H   0  0  0  0  0  0  0  0  0  0  0  0
   -2.2739   -1.3895   -1.6302 H   0  0  0  0  0  0  0  0  0  0  0  0
   -0.9660   -0.8611   -2.7574 H   0  0  0  0  0  0  0  0  0  0  0  0
  1  2  1  0
  2  3  1  0
  3  4  1  0
  4  5  3  0
  5  6  1  0
  6  7  2  0
  3  8  1  0
  8  9  1  0
  1 10  1  0
  1 11  1  0
  1 12  1  0
  2 13  1  0
  2 14  1  0
  3 15  1  0
  6 16  1  0
  8 17  1  0
  8 18  1  0
  9 19  1  0
  9 20  1  0
  9 21  1  0
M  END
