
     RDKit          3D

 22 21  0  0  0  0  0  0  0  0999 V2000
   -0.8965    1.7408   -0.5986 C   0  0  0  0  0  0  0  0  0  0  0  0
   -1.1433    0.6089    0.3572 C   0  0  0  0  0  0  0  0  0  0  0  0
   -0.1611   -0.5138    0.2401 C   0  0  0  0  0  0  0  0  0  0  0  0
   -0.2239   -1.0947   -1.1801 C   0  0  0  0  0  0  0  0  0  0  0  0
   -0.6240   -1.6184    1.1646 C   0  0  0  0  0  0  0  0  0  0  0  0
    1.2233   -0.1916    0.5135 C   0  0  0  0  0  0  0  0  0  0  0  0
    2.0378    0.8121   -0.2338 C   0  0  0  0  0  0  0  0  0  0  0  0
    1.7729   -0.7863    1.4281 O   0  0  0  0  0  0  0  0  0  0  0  0
   -0.2576    2.5268   -0.1321 H   0  0  0  0  0  0  0  0  0  0  0  0
   -0.5297    1.3802   -1.5589 H   0  0  0  0  0  0  0  0  0  0  0  0
   -1.8689    2.2742   -0.8203 H   0  0  0  0  0  0  0  0  0  0  0  0
   -2.1390    0.1854    0.1010 H   0  0  0  0  0  0  0  0  0  0  0  0
   -1.2076    0.9468    1.4117 H   0  0  0  0  0  0  0  0  0  0  0  0
    0.2447   -2.0983   -1.1145 H   0  0  0  0  0  0  0  0  0  0  0  0
   -1.2819   -1.1862   -1.5076 H   0  0  0  0  0  0  0  0  0  0  0  0
    0.3575   -0.4873   -1.8873 H   0  0  0  0  0  0  0  0  0  0  0  0
   -0.9149   -1.1954    2.1678 H   0  0  0  0  0  0  0  0  0  0  0  0
    0.2011   -2.3419    1.3691 H   0  0  0  0  0  0  0  0  0  0  0  0
   -1.5067   -2.1197    0.7263 H   0  0  0  0  0  0  0  0  0  0  0  0
    2.0051    1.8156    0.2391 H   0  0  0  0  0  0  0  0  0  0  0  0
    1.7952    0.8403   -1.3126 H   0  0  0  0  0  0  0  0  0  0  0  0
    3.1175    0.5023   -0.1908 H   0  0  0  0  0  0  0  0  0  0  0  0
  1  2  1  0
  2  3  1  0
  3  4  1  0
  3  5  1  0
  3  6  1  0
  6  7  1  0
  6  8  2  0
  1  9  1  0
  1 10  1  0
  1 11  1  0
  2 12  1  0
  2 13  1  0
  4 14  1  0
  4 15  1  0
  4 16  1  0
  5 17  1  0
  5 18  1  0
  5 19  1  0
  7 20  1  0
  7 21  1  0
  7 22  1  0
M  END
