
     RDKit          3D

 21 21  0  0  0  0  0  0  0  0999 V2000
   -3.1560    0.8232   -0.1937 C   0  0  0  0  0  0  0  0  0  0  0  0
   -1.6679    1.0039   -0.2242 C   0  0  0  0  0  0  0  0  0  0  0  0
   -0.9290   -0.2355    0.2292 C   0  0  0  0  0  0  0  0  0  0  0  0
   -1.2425   -1.4196   -0.6452 C   0  0  0  0  0  0  0  0  0  0  0  0
    0.5126    0.0288    0.0930 C   0  0  0  0  0  0  0  0  0  0  0  0
    1.6919    0.2650   -0.0262 C   0  0  0  0  0  0  0  0  0  0  0  0
    3.1382    0.5338   -0.1572 C   0  0  0  0  0  0  0  0  0  0  0  0
    4.0373   -0.5304    0.1990 C   0  0  0  0  0  0  0  0  0  0  0  0
    3.8229   -0.0814   -1.1803 O   0  0  0  0  0  0  0  0  0  0  0  0
   -3.4002   -0.0486   -0.8432 H   0  0  0  0  0  0  0  0  0  0  0  0
   -3.6071    1.7707   -0.5695 H   0  0  0  0  0  0  0  0  0  0  0  0
   -3.4648    0.6864    0.8472 H   0  0  0  0  0  0  0  0  0  0  0  0
   -1.2742    1.2633   -1.2296 H   0  0  0  0  0  0  0  0  0  0  0  0
   -1.3564    1.8268    0.4710 H   0  0  0  0  0  0  0  0  0  0  0  0
   -1.2052   -0.4714    1.2599 H   0  0  0  0  0  0  0  0  0  0  0  0
   -0.6147   -2.2646   -0.3624 H   0  0  0  0  0  0  0  0  0  0  0  0
   -1.1888   -1.1545   -1.7229 H   0  0  0  0  0  0  0  0  0  0  0  0
   -2.3095   -1.7335   -0.4761 H   0  0  0  0  0  0  0  0  0  0  0  0
    3.4764    1.5869    0.0383 H   0  0  0  0  0  0  0  0  0  0  0  0
    5.0437   -0.2635    0.6011 H   0  0  0  0  0  0  0  0  0  0  0  0
    3.6933   -1.5856    0.2632 H   0  0  0  0  0  0  0  0  0  0  0  0
  1  2  1  0
  2  3  1  0
  3  4  1  0
  3  5  1  0
  5  6  3  0
  6  7  1  0
  7  8  1  0
  8  9  1  0
  9  7  1  0
  1 10  1  0
  1 11  1  0
  1 12  1  0
  2 13  1  0
  2 14  1  0
  3 15  1  0
  4 16  1  0
  4 17  1  0
  4 18  1  0
  7 19  1  0
  8 20  1  0
  8 21  1  0
M  END
