
     RDKit          3D

 23 23  0  0  0  0  0  0  0  0999 V2000
    3.2128    0.3167    0.4069 C   0  0  0  0  0  0  0  0  0  0  0  0
    1.9186   -0.1635   -0.2191 C   0  0  0  0  0  0  0  0  0  0  0  0
    0.7492    0.7046    0.2694 C   0  0  0  0  0  0  0  0  0  0  0  0
    0.6309    0.6307    1.6506 O   0  0  0  0  0  0  0  0  0  0  0  0
   -0.4920    0.1918   -0.4343 C   0  0  0  0  0  0  0  0  0  0  0  0
   -0.9235   -1.2296   -0.2379 C   0  0  0  0  0  0  0  0  0  0  0  0
   -1.7307   -0.0920    0.2944 C   0  0  0  0  0  0  0  0  0  0  0  0
   -3.0408    0.2698   -0.3910 C   0  0  0  0  0  0  0  0  0  0  0  0
   -1.8020   -0.0326    1.6823 O   0  0  0  0  0  0  0  0  0  0  0  0
    3.2438    0.1816    1.4961 H   0  0  0  0  0  0  0  0  0  0  0  0
    4.0279   -0.2663   -0.0694 H   0  0  0  0  0  0  0  0  0  0  0  0
    3.3187    1.3908    0.1033 H   0  0  0  0  0  0  0  0  0  0  0  0
    1.7174   -1.2313   -0.0334 H   0  0  0  0  0  0  0  0  0  0  0  0
    2.0455   -0.0538   -1.3156 H   0  0  0  0  0  0  0  0  0  0  0  0
    0.8962    1.7563   -0.0496 H   0  0  0  0  0  0  0  0  0  0  0  0
    1.2613   -0.0241    2.0378 H   0  0  0  0  0  0  0  0  0  0  0  0
   -0.5756    0.5705   -1.4810 H   0  0  0  0  0  0  0  0  0  0  0  0
   -0.3026   -1.8133    0.4642 H   0  0  0  0  0  0  0  0  0  0  0  0
   -1.4085   -1.7948   -1.0552 H   0  0  0  0  0  0  0  0  0  0  0  0
   -2.9138    0.3588   -1.4841 H   0  0  0  0  0  0  0  0  0  0  0  0
   -3.8324   -0.4749   -0.2026 H   0  0  0  0  0  0  0  0  0  0  0  0
   -3.3264    1.2709    0.0000 H   0  0  0  0  0  0  0  0  0  0  0  0
   -2.6740   -0.4663    1.9458 H   0  0  0  0  0  0  0  0  0  0  0  0
  1  2  1  0
  2  3  1  0
  3  4  1  0
  3  5  1  0
  5  6  1  0
  6  7  1  0
  7  8  1  0
  7  9  1  0
  7  5  1  0
  1 10  1  0
  1 11  1  0
  1 12  1  0
  2 13  1  0
  2 14  1  0
  3 15  1  0
  4 16  1  0
  5 17  1  0
  6 18  1  0
  6 19  1  0
  8 20  1  0
  8 21  1  0
  8 22  1  0
  9 23  1  0
M  END
