
     RDKit          3D

 25 24  0  0  0  0  0  0  0  0999 V2000
    2.6869   -0.6707   -0.1604 C   0  0  0  0  0  0  0  0  0  0  0  0
    1.2299   -0.9413   -0.1304 C   0  0  0  0  0  0  0  0  0  0  0  0
    0.3226    0.2098   -0.3202 C   0  0  0  0  0  0  0  0  0  0  0  0
    0.4194    1.3167    0.6654 C   0  0  0  0  0  0  0  0  0  0  0  0
    1.6212    1.9421    0.7623 O   0  0  0  0  0  0  0  0  0  0  0  0
   -1.1022   -0.3022   -0.3883 C   0  0  0  0  0  0  0  0  0  0  0  0
   -1.5380   -1.0269    0.8384 C   0  0  0  0  0  0  0  0  0  0  0  0
   -2.0867    0.8232   -0.6470 C   0  0  0  0  0  0  0  0  0  0  0  0
   -1.1921   -1.1725   -1.4783 O   0  0  0  0  0  0  0  0  0  0  0  0
    3.2017   -1.6351   -0.3679 H   0  0  0  0  0  0  0  0  0  0  0  0
    3.0795   -0.3597    0.8511 H   0  0  0  0  0  0  0  0  0  0  0  0
    3.0156    0.0250   -0.9551 H   0  0  0  0  0  0  0  0  0  0  0  0
    1.0073   -1.7363   -0.8737 H   0  0  0  0  0  0  0  0  0  0  0  0
    1.0119   -1.4391    0.8616 H   0  0  0  0  0  0  0  0  0  0  0  0
    0.5212    0.6506   -1.3268 H   0  0  0  0  0  0  0  0  0  0  0  0
    0.1933    0.8743    1.6816 H   0  0  0  0  0  0  0  0  0  0  0  0
   -0.3709    2.0811    0.5166 H   0  0  0  0  0  0  0  0  0  0  0  0
    1.6315    2.4934    1.5798 H   0  0  0  0  0  0  0  0  0  0  0  0
   -1.3040   -0.5081    1.7664 H   0  0  0  0  0  0  0  0  0  0  0  0
   -2.6664   -1.0816    0.7901 H   0  0  0  0  0  0  0  0  0  0  0  0
   -1.2245   -2.0986    0.8566 H   0  0  0  0  0  0  0  0  0  0  0  0
   -1.7234    1.4064   -1.5355 H   0  0  0  0  0  0  0  0  0  0  0  0
   -2.2869    1.4408    0.2264 H   0  0  0  0  0  0  0  0  0  0  0  0
   -3.0523    0.3416   -0.9457 H   0  0  0  0  0  0  0  0  0  0  0  0
   -1.3946   -0.6330   -2.2668 H   0  0  0  0  0  0  0  0  0  0  0  0
  1  2  1  0
  2  3  1  0
  3  4  1  0
  4  5  1  0
  3  6  1  0
  6  7  1  0
  6  8  1  0
  6  9  1  0
  1 10  1  0
  1 11  1  0
  1 12  1  0
  2 13  1  0
  2 14  1  0
  3 15  1  0
  4 16  1  0
  4 17  1  0
  5 18  1  0
  7 19  1  0
  7 20  1  0
  7 21  1  0
  8 22  1  0
  8 23  1  0
  8 24  1  0
  9 25  1  0
M  END
