
     RDKit          3D

 19 18  0  0  0  0  0  0  0  0999 V2000
    2.3704    0.7466   -0.6937 C   0  0  0  0  0  0  0  0  0  0  0  0
    1.1354    0.5824    0.1829 C   0  0  0  0  0  0  0  0  0  0  0  0
    0.6940   -0.8696   -0.0048 C   0  0  0  0  0  0  0  0  0  0  0  0
    1.7346   -1.6866    0.4022 O   0  0  0  0  0  0  0  0  0  0  0  0
   -0.5435   -1.1623    0.7834 C   0  0  0  0  0  0  0  0  0  0  0  0
   -1.6155   -0.2759    0.3245 C   0  0  0  0  0  0  0  0  0  0  0  0
   -2.5098    0.4663   -0.0718 C   0  0  0  0  0  0  0  0  0  0  0  0
   -3.5680    1.3191   -0.5343 C   0  0  0  0  0  0  0  0  0  0  0  0
   -3.9785    2.3085    0.1278 O   0  0  0  0  0  0  0  0  0  0  0  0
    3.2527    0.4844   -0.1114 H   0  0  0  0  0  0  0  0  0  0  0  0
    2.4003    1.8135   -0.9785 H   0  0  0  0  0  0  0  0  0  0  0  0
    2.2613    0.0692   -1.5886 H   0  0  0  0  0  0  0  0  0  0  0  0
    1.3887    0.7541    1.2345 H   0  0  0  0  0  0  0  0  0  0  0  0
    0.3087    1.2092   -0.1960 H   0  0  0  0  0  0  0  0  0  0  0  0
    0.5087   -1.0698   -1.0810 H   0  0  0  0  0  0  0  0  0  0  0  0
    1.4137   -2.5697    0.7678 H   0  0  0  0  0  0  0  0  0  0  0  0
   -0.8359   -2.2231    0.5550 H   0  0  0  0  0  0  0  0  0  0  0  0
   -0.3482   -1.0430    1.8689 H   0  0  0  0  0  0  0  0  0  0  0  0
   -4.0690    1.1464   -1.4900 H   0  0  0  0  0  0  0  0  0  0  0  0
  1  2  1  0
  2  3  1  0
  3  4  1  0
  3  5  1  0
  5  6  1  0
  6  7  3  0
  7  8  1  0
  8  9  2  0
  1 10  1  0
  1 11  1  0
  1 12  1  0
  2 13  1  0
  2 14  1  0
  3 15  1  0
  4 16  1  0
  5 17  1  0
  5 18  1  0
  8 19  1  0
M  END
