
     RDKit          3D

 23 22  0  0  0  0  0  0  0  0999 V2000
   -0.7628    2.4113    0.2038 C   0  0  0  0  0  0  0  0  0  0  0  0
   -1.2971    1.1173    0.7843 C   0  0  0  0  0  0  0  0  0  0  0  0
   -0.6550   -0.0445    0.0326 C   0  0  0  0  0  0  0  0  0  0  0  0
    0.8183    0.1110    0.2605 C   0  0  0  0  0  0  0  0  0  0  0  0
    1.6521   -0.9597   -0.4144 C   0  0  0  0  0  0  0  0  0  0  0  0
    3.0585   -0.6498   -0.0768 C   0  0  0  0  0  0  0  0  0  0  0  0
    3.3968   -0.4965    1.0762 O   0  0  0  0  0  0  0  0  0  0  0  0
   -1.1763   -1.2229    0.5318 O   0  0  0  0  0  0  0  0  0  0  0  0
   -1.8168   -1.9066   -0.4922 C   0  0  0  0  0  0  0  0  0  0  0  0
   -0.4600    2.2681   -0.8728 H   0  0  0  0  0  0  0  0  0  0  0  0
    0.1375    2.7732    0.7744 H   0  0  0  0  0  0  0  0  0  0  0  0
   -1.5715    3.1648    0.3210 H   0  0  0  0  0  0  0  0  0  0  0  0
   -0.9151    1.0435    1.8209 H   0  0  0  0  0  0  0  0  0  0  0  0
   -2.3770    1.0362    0.7305 H   0  0  0  0  0  0  0  0  0  0  0  0
   -0.8913    0.0549   -1.0477 H   0  0  0  0  0  0  0  0  0  0  0  0
    1.0221    0.1084    1.3438 H   0  0  0  0  0  0  0  0  0  0  0  0
    1.1072    1.0700   -0.2511 H   0  0  0  0  0  0  0  0  0  0  0  0
    1.4728   -0.9954   -1.4987 H   0  0  0  0  0  0  0  0  0  0  0  0
    1.4315   -1.9846    0.0013 H   0  0  0  0  0  0  0  0  0  0  0  0
    3.7834   -0.5577   -0.8647 H   0  0  0  0  0  0  0  0  0  0  0  0
   -2.6569   -1.3528   -0.9612 H   0  0  0  0  0  0  0  0  0  0  0  0
   -2.2694   -2.8643   -0.1210 H   0  0  0  0  0  0  0  0  0  0  0  0
   -1.0309   -2.1239   -1.2805 H   0  0  0  0  0  0  0  0  0  0  0  0
  1  2  1  0
  2  3  1  0
  3  4  1  0
  4  5  1  0
  5  6  1  0
  6  7  2  0
  3  8  1  0
  8  9  1  0
  1 10  1  0
  1 11  1  0
  1 12  1  0
  2 13  1  0
  2 14  1  0
  3 15  1  0
  4 16  1  0
  4 17  1  0
  5 18  1  0
  5 19  1  0
  6 20  1  0
  9 21  1  0
  9 22  1  0
  9 23  1  0
M  END
