
     RDKit          3D

 19 19  0  0  0  0  0  0  0  0999 V2000
   -3.0301    0.4418   -0.1712 C   0  0  0  0  0  0  0  0  0  0  0  0
   -2.0257   -0.0191    0.8599 C   0  0  0  0  0  0  0  0  0  0  0  0
   -0.6202    0.2518    0.3964 C   0  0  0  0  0  0  0  0  0  0  0  0
   -0.2263    1.3927    0.5334 O   0  0  0  0  0  0  0  0  0  0  0  0
    0.2323   -0.7858   -0.1851 C   0  0  0  0  0  0  0  0  0  0  0  0
    0.7673   -0.3712   -1.5016 O   0  0  0  0  0  0  0  0  0  0  0  0
    1.6208   -0.7278   -0.3979 C   0  0  0  0  0  0  0  0  0  0  0  0
    2.5854    0.3249    0.0419 C   0  0  0  0  0  0  0  0  0  0  0  0
    3.4246    0.6101   -1.0601 O   0  0  0  0  0  0  0  0  0  0  0  0
   -2.5970    1.3123   -0.6950 H   0  0  0  0  0  0  0  0  0  0  0  0
   -4.0100    0.7074    0.3017 H   0  0  0  0  0  0  0  0  0  0  0  0
   -3.2405   -0.4096   -0.8833 H   0  0  0  0  0  0  0  0  0  0  0  0
   -2.2238    0.5909    1.7783 H   0  0  0  0  0  0  0  0  0  0  0  0
   -2.1457   -1.1000    1.1268 H   0  0  0  0  0  0  0  0  0  0  0  0
   -0.2777   -1.7798   -0.2648 H   0  0  0  0  0  0  0  0  0  0  0  0
    2.1579   -1.6809   -0.6873 H   0  0  0  0  0  0  0  0  0  0  0  0
    2.1038    1.2750    0.3395 H   0  0  0  0  0  0  0  0  0  0  0  0
    3.2373   -0.1000    0.8241 H   0  0  0  0  0  0  0  0  0  0  0  0
    4.2675    0.0673   -0.9951 H   0  0  0  0  0  0  0  0  0  0  0  0
  1  2  1  0
  2  3  1  0
  3  4  2  0
  3  5  1  0
  5  6  1  0
  6  7  1  0
  7  8  1  0
  8  9  1  0
  7  5  1  0
  1 10  1  0
  1 11  1  0
  1 12  1  0
  2 13  1  0
  2 14  1  0
  5 15  1  0
  7 16  1  0
  8 17  1  0
  8 18  1  0
  9 19  1  0
M  END
