
     RDKit          3D

 23 22  0  0  0  0  0  0  0  0999 V2000
   -2.1444    0.6143   -1.1405 C   0  0  0  0  0  0  0  0  0  0  0  0
   -1.3155    1.0391    0.0127 C   0  0  0  0  0  0  0  0  0  0  0  0
   -0.4673    0.0050    0.6448 C   0  0  0  0  0  0  0  0  0  0  0  0
   -1.3590   -1.1079    1.1572 C   0  0  0  0  0  0  0  0  0  0  0  0
    0.6458   -0.5394   -0.1957 C   0  0  0  0  0  0  0  0  0  0  0  0
    1.3022   -1.4976    0.6144 O   0  0  0  0  0  0  0  0  0  0  0  0
    1.6384    0.5029   -0.5706 C   0  0  0  0  0  0  0  0  0  0  0  0
    3.0450    0.4167   -0.0832 C   0  0  0  0  0  0  0  0  0  0  0  0
    1.3015    1.4457   -1.2881 O   0  0  0  0  0  0  0  0  0  0  0  0
   -3.2047    0.3912   -0.8706 H   0  0  0  0  0  0  0  0  0  0  0  0
   -2.2163    1.4863   -1.8561 H   0  0  0  0  0  0  0  0  0  0  0  0
   -1.7747   -0.2243   -1.7208 H   0  0  0  0  0  0  0  0  0  0  0  0
   -2.0323    1.3917    0.8156 H   0  0  0  0  0  0  0  0  0  0  0  0
   -0.6983    1.9364   -0.2021 H   0  0  0  0  0  0  0  0  0  0  0  0
    0.0084    0.4495    1.5461 H   0  0  0  0  0  0  0  0  0  0  0  0
   -1.8602   -1.6611    0.3388 H   0  0  0  0  0  0  0  0  0  0  0  0
   -0.7205   -1.7946    1.7862 H   0  0  0  0  0  0  0  0  0  0  0  0
   -2.0815   -0.6270    1.8562 H   0  0  0  0  0  0  0  0  0  0  0  0
    0.3299   -1.0363   -1.1133 H   0  0  0  0  0  0  0  0  0  0  0  0
    1.3886   -2.3587    0.1592 H   0  0  0  0  0  0  0  0  0  0  0  0
    3.4346   -0.6021   -0.3306 H   0  0  0  0  0  0  0  0  0  0  0  0
    3.1034    0.6096    1.0193 H   0  0  0  0  0  0  0  0  0  0  0  0
    3.6769    1.1607   -0.5791 H   0  0  0  0  0  0  0  0  0  0  0  0
  1  2  1  0
  2  3  1  0
  3  4  1  0
  3  5  1  0
  5  6  1  0
  5  7  1  0
  7  8  1  0
  7  9  2  0
  1 10  1  0
  1 11  1  0
  1 12  1  0
  2 13  1  0
  2 14  1  0
  3 15  1  0
  4 16  1  0
  4 17  1  0
  4 18  1  0
  5 19  1  0
  6 20  1  0
  8 21  1  0
  8 22  1  0
  8 23  1  0
M  END
