
     RDKit          3D

 27 26  0  0  0  0  0  0  0  0999 V2000
    2.9954    0.2459   -0.2989 C   0  0  0  0  0  0  0  0  0  0  0  0
    1.5290    0.2377   -0.6814 C   0  0  0  0  0  0  0  0  0  0  0  0
    0.6877    0.0645    0.5635 C   0  0  0  0  0  0  0  0  0  0  0  0
    1.0334   -1.2451    1.2471 C   0  0  0  0  0  0  0  0  0  0  0  0
   -0.7755    0.2176    0.3022 C   0  0  0  0  0  0  0  0  0  0  0  0
   -1.0100    1.6059   -0.2461 C   0  0  0  0  0  0  0  0  0  0  0  0
   -1.4426    0.0542    1.5178 O   0  0  0  0  0  0  0  0  0  0  0  0
   -1.3443   -0.7667   -0.6689 C   0  0  0  0  0  0  0  0  0  0  0  0
   -2.8220   -0.4525   -0.7998 C   0  0  0  0  0  0  0  0  0  0  0  0
    3.3296   -0.7900   -0.1273 H   0  0  0  0  0  0  0  0  0  0  0  0
    3.6052    0.7192   -1.0938 H   0  0  0  0  0  0  0  0  0  0  0  0
    3.0718    0.7885    0.6619 H   0  0  0  0  0  0  0  0  0  0  0  0
    1.3192    1.1539   -1.2250 H   0  0  0  0  0  0  0  0  0  0  0  0
    1.3516   -0.6147   -1.3763 H   0  0  0  0  0  0  0  0  0  0  0  0
    0.9793    0.8649    1.2772 H   0  0  0  0  0  0  0  0  0  0  0  0
    2.1124   -1.2221    1.4517 H   0  0  0  0  0  0  0  0  0  0  0  0
    0.5302   -1.2481    2.2555 H   0  0  0  0  0  0  0  0  0  0  0  0
    0.7144   -2.1266    0.6475 H   0  0  0  0  0  0  0  0  0  0  0  0
   -2.0372    1.9509   -0.0168 H   0  0  0  0  0  0  0  0  0  0  0  0
   -0.9185    1.5884   -1.3484 H   0  0  0  0  0  0  0  0  0  0  0  0
   -0.2401    2.2928    0.1563 H   0  0  0  0  0  0  0  0  0  0  0  0
   -0.8986    0.2591    2.2985 H   0  0  0  0  0  0  0  0  0  0  0  0
   -0.8947   -0.6706   -1.6818 H   0  0  0  0  0  0  0  0  0  0  0  0
   -1.2438   -1.8179   -0.3512 H   0  0  0  0  0  0  0  0  0  0  0  0
   -3.2836   -0.1855    0.1742 H   0  0  0  0  0  0  0  0  0  0  0  0
   -2.9678    0.4336   -1.4633 H   0  0  0  0  0  0  0  0  0  0  0  0
   -3.3804   -1.3373   -1.1741 H   0  0  0  0  0  0  0  0  0  0  0  0
  1  2  1  0
  2  3  1  0
  3  4  1  0
  3  5  1  0
  5  6  1  0
  5  7  1  0
  5  8  1  0
  8  9  1  0
  1 10  1  0
  1 11  1  0
  1 12  1  0
  2 13  1  0
  2 14  1  0
  3 15  1  0
  4 16  1  0
  4 17  1  0
  4 18  1  0
  6 19  1  0
  6 20  1  0
  6 21  1  0
  7 22  1  0
  8 23  1  0
  8 24  1  0
  9 25  1  0
  9 26  1  0
  9 27  1  0
M  END
