
     RDKit          3D

 25 24  0  0  0  0  0  0  0  0999 V2000
    2.7226   -1.1170    0.3018 C   0  0  0  0  0  0  0  0  0  0  0  0
    1.5501   -0.8840   -0.6182 C   0  0  0  0  0  0  0  0  0  0  0  0
    0.5727    0.0683    0.0651 C   0  0  0  0  0  0  0  0  0  0  0  0
    1.2206    1.3891    0.3726 C   0  0  0  0  0  0  0  0  0  0  0  0
    2.3423    1.2769    1.1654 O   0  0  0  0  0  0  0  0  0  0  0  0
   -0.5412    0.2927   -0.7343 O   0  0  0  0  0  0  0  0  0  0  0  0
   -1.6864   -0.0893   -0.0866 C   0  0  0  0  0  0  0  0  0  0  0  0
   -2.4490   -1.1451   -0.8818 C   0  0  0  0  0  0  0  0  0  0  0  0
   -2.6678    1.0738    0.0804 C   0  0  0  0  0  0  0  0  0  0  0  0
    3.5468   -0.4154    0.0945 H   0  0  0  0  0  0  0  0  0  0  0  0
    2.4145   -1.0507    1.3628 H   0  0  0  0  0  0  0  0  0  0  0  0
    3.1332   -2.1376    0.1627 H   0  0  0  0  0  0  0  0  0  0  0  0
    1.9076   -0.4281   -1.5494 H   0  0  0  0  0  0  0  0  0  0  0  0
    1.0817   -1.8422   -0.8629 H   0  0  0  0  0  0  0  0  0  0  0  0
    0.2520   -0.3690    1.0379 H   0  0  0  0  0  0  0  0  0  0  0  0
    1.4494    1.8752   -0.5953 H   0  0  0  0  0  0  0  0  0  0  0  0
    0.4946    2.0272    0.8885 H   0  0  0  0  0  0  0  0  0  0  0  0
    2.8555    2.1129    1.0875 H   0  0  0  0  0  0  0  0  0  0  0  0
   -1.4556   -0.4888    0.9255 H   0  0  0  0  0  0  0  0  0  0  0  0
   -3.3184   -1.4306   -0.2415 H   0  0  0  0  0  0  0  0  0  0  0  0
   -2.8703   -0.6447   -1.7740 H   0  0  0  0  0  0  0  0  0  0  0  0
   -1.8103   -2.0105   -1.1153 H   0  0  0  0  0  0  0  0  0  0  0  0
   -2.8741    1.4571   -0.9379 H   0  0  0  0  0  0  0  0  0  0  0  0
   -3.6192    0.6712    0.4849 H   0  0  0  0  0  0  0  0  0  0  0  0
   -2.2511    1.8086    0.7704 H   0  0  0  0  0  0  0  0  0  0  0  0
  1  2  1  0
  2  3  1  0
  3  4  1  0
  4  5  1  0
  3  6  1  0
  6  7  1  0
  7  8  1  0
  7  9  1  0
  1 10  1  0
  1 11  1  0
  1 12  1  0
  2 13  1  0
  2 14  1  0
  3 15  1  0
  4 16  1  0
  4 17  1  0
  5 18  1  0
  7 19  1  0
  8 20  1  0
  8 21  1  0
  8 22  1  0
  9 23  1  0
  9 24  1  0
  9 25  1  0
M  END
