
     RDKit          3D

 19 19  0  0  0  0  0  0  0  0999 V2000
   -2.9487   -0.1118    0.4814 C   0  0  0  0  0  0  0  0  0  0  0  0
   -2.2263    0.2526   -0.8044 C   0  0  0  0  0  0  0  0  0  0  0  0
   -0.8383   -0.2165   -0.8562 C   0  0  0  0  0  0  0  0  0  0  0  0
   -0.5303   -1.1415   -1.6848 O   0  0  0  0  0  0  0  0  0  0  0  0
    0.2184    0.2261   -0.1032 O   0  0  0  0  0  0  0  0  0  0  0  0
    1.5425   -0.1868   -0.1305 C   0  0  0  0  0  0  0  0  0  0  0  0
    2.5901    0.8847   -0.2026 C   0  0  0  0  0  0  0  0  0  0  0  0
    3.2952    0.1767    0.7855 O   0  0  0  0  0  0  0  0  0  0  0  0
    2.1702   -0.5489    1.1892 C   0  0  0  0  0  0  0  0  0  0  0  0
   -2.6078   -1.0803    0.8665 H   0  0  0  0  0  0  0  0  0  0  0  0
   -2.7279    0.7104    1.2280 H   0  0  0  0  0  0  0  0  0  0  0  0
   -4.0281   -0.1458    0.2815 H   0  0  0  0  0  0  0  0  0  0  0  0
   -2.7956   -0.2351   -1.6587 H   0  0  0  0  0  0  0  0  0  0  0  0
   -2.3690    1.3436   -0.9468 H   0  0  0  0  0  0  0  0  0  0  0  0
    1.7416   -0.9708   -0.8925 H   0  0  0  0  0  0  0  0  0  0  0  0
    3.1965    0.9455   -1.1196 H   0  0  0  0  0  0  0  0  0  0  0  0
    2.2958    1.9052    0.1158 H   0  0  0  0  0  0  0  0  0  0  0  0
    1.6628   -0.1622    2.0832 H   0  0  0  0  0  0  0  0  0  0  0  0
    2.3592   -1.6451    1.2613 H   0  0  0  0  0  0  0  0  0  0  0  0
  1  2  1  0
  2  3  1  0
  3  4  2  0
  3  5  1  0
  5  6  1  0
  6  7  1  0
  7  8  1  0
  8  9  1  0
  9  6  1  0
  1 10  1  0
  1 11  1  0
  1 12  1  0
  2 13  1  0
  2 14  1  0
  6 15  1  0
  7 16  1  0
  7 17  1  0
  9 18  1  0
  9 19  1  0
M  END
