
     RDKit          3D

 23 22  0  0  0  0  0  0  0  0999 V2000
    2.5860    0.9246    0.0349 C   0  0  0  0  0  0  0  0  0  0  0  0
    1.2140    0.7460    0.6532 C   0  0  0  0  0  0  0  0  0  0  0  0
    0.3980   -0.0868   -0.2752 C   0  0  0  0  0  0  0  0  0  0  0  0
    1.0439   -1.4132   -0.4716 C   0  0  0  0  0  0  0  0  0  0  0  0
    1.2940   -2.0554    0.5397 O   0  0  0  0  0  0  0  0  0  0  0  0
   -1.0364   -0.2586    0.1691 C   0  0  0  0  0  0  0  0  0  0  0  0
   -1.7269    1.0693    0.2725 C   0  0  0  0  0  0  0  0  0  0  0  0
   -1.7342   -1.0958   -0.8795 C   0  0  0  0  0  0  0  0  0  0  0  0
   -1.1078   -0.8741    1.4158 O   0  0  0  0  0  0  0  0  0  0  0  0
    2.6463    0.4684   -0.9810 H   0  0  0  0  0  0  0  0  0  0  0  0
    2.7855    2.0295   -0.0897 H   0  0  0  0  0  0  0  0  0  0  0  0
    3.3892    0.4886    0.6432 H   0  0  0  0  0  0  0  0  0  0  0  0
    0.7225    1.7005    0.8970 H   0  0  0  0  0  0  0  0  0  0  0  0
    1.3680    0.1548    1.5856 H   0  0  0  0  0  0  0  0  0  0  0  0
    0.3700    0.4179   -1.2655 H   0  0  0  0  0  0  0  0  0  0  0  0
    1.2905   -1.8122   -1.4555 H   0  0  0  0  0  0  0  0  0  0  0  0
   -1.5770    1.5552    1.2688 H   0  0  0  0  0  0  0  0  0  0  0  0
   -1.3140    1.7166   -0.5368 H   0  0  0  0  0  0  0  0  0  0  0  0
   -2.8247    0.9313    0.1653 H   0  0  0  0  0  0  0  0  0  0  0  0
   -1.0592   -1.3528   -1.7341 H   0  0  0  0  0  0  0  0  0  0  0  0
   -2.1103   -2.0323   -0.4034 H   0  0  0  0  0  0  0  0  0  0  0  0
   -2.5976   -0.5429   -1.3391 H   0  0  0  0  0  0  0  0  0  0  0  0
   -2.0197   -0.6786    1.7865 H   0  0  0  0  0  0  0  0  0  0  0  0
  1  2  1  0
  2  3  1  0
  3  4  1  0
  4  5  2  0
  3  6  1  0
  6  7  1  0
  6  8  1  0
  6  9  1  0
  1 10  1  0
  1 11  1  0
  1 12  1  0
  2 13  1  0
  2 14  1  0
  3 15  1  0
  4 16  1  0
  7 17  1  0
  7 18  1  0
  7 19  1  0
  8 20  1  0
  8 21  1  0
  8 22  1  0
  9 23  1  0
M  END
