
     RDKit          3D

 22 21  0  0  0  0  0  0  0  0999 V2000
   -1.9202    1.2536   -0.4099 C   0  0  0  0  0  0  0  0  0  0  0  0
   -1.6915   -0.1762   -0.1663 C   0  0  0  0  0  0  0  0  0  0  0  0
   -0.4874   -0.6362    0.5409 C   0  0  0  0  0  0  0  0  0  0  0  0
   -0.6982   -2.0869    0.6214 O   0  0  0  0  0  0  0  0  0  0  0  0
    0.8564   -0.5087   -0.0423 C   0  0  0  0  0  0  0  0  0  0  0  0
    1.8310   -1.1138    1.0105 C   0  0  0  0  0  0  0  0  0  0  0  0
    1.4021    0.8401   -0.3444 C   0  0  0  0  0  0  0  0  0  0  0  0
    0.7423    1.6039   -1.2575 O   0  0  0  0  0  0  0  0  0  0  0  0
   -3.0289    1.4572   -0.1588 H   0  0  0  0  0  0  0  0  0  0  0  0
   -1.3982    1.9864    0.1973 H   0  0  0  0  0  0  0  0  0  0  0  0
   -1.8669    1.5764   -1.4873 H   0  0  0  0  0  0  0  0  0  0  0  0
   -2.6007   -0.6143    0.3352 H   0  0  0  0  0  0  0  0  0  0  0  0
   -1.6789   -0.6848   -1.1833 H   0  0  0  0  0  0  0  0  0  0  0  0
   -0.4495   -0.3531    1.6214 H   0  0  0  0  0  0  0  0  0  0  0  0
   -1.3415   -2.2511    1.3511 H   0  0  0  0  0  0  0  0  0  0  0  0
    0.9215   -1.1628   -0.9640 H   0  0  0  0  0  0  0  0  0  0  0  0
    1.5809   -0.5768    1.9485 H   0  0  0  0  0  0  0  0  0  0  0  0
    2.8653   -0.8815    0.7309 H   0  0  0  0  0  0  0  0  0  0  0  0
    1.6161   -2.1731    1.1676 H   0  0  0  0  0  0  0  0  0  0  0  0
    2.4796    0.7763   -0.7063 H   0  0  0  0  0  0  0  0  0  0  0  0
    1.5167    1.4355    0.6040 H   0  0  0  0  0  0  0  0  0  0  0  0
    1.3499    2.2898   -1.6172 H   0  0  0  0  0  0  0  0  0  0  0  0
  1  2  1  0
  2  3  1  0
  3  4  1  0
  3  5  1  0
  5  6  1  0
  5  7  1  0
  7  8  1  0
  1  9  1  0
  1 10  1  0
  1 11  1  0
  2 12  1  0
  2 13  1  0
  3 14  1  0
  4 15  1  0
  5 16  1  0
  6 17  1  0
  6 18  1  0
  6 19  1  0
  7 20  1  0
  7 21  1  0
  8 22  1  0
M  END
