
     RDKit          3D

 21 20  0  0  0  0  0  0  0  0999 V2000
   -3.0686    0.8017   -0.1134 C   0  0  0  0  0  0  0  0  0  0  0  0
   -1.9480    0.0937   -0.7942 C   0  0  0  0  0  0  0  0  0  0  0  0
   -0.8080   -0.1967    0.0983 C   0  0  0  0  0  0  0  0  0  0  0  0
   -0.7993    0.1166    1.2705 O   0  0  0  0  0  0  0  0  0  0  0  0
    0.3622   -0.8975   -0.4718 C   0  0  0  0  0  0  0  0  0  0  0  0
    1.4813   -1.1298    0.4831 C   0  0  0  0  0  0  0  0  0  0  0  0
    2.0896    0.1106    1.0762 C   0  0  0  0  0  0  0  0  0  0  0  0
    2.6627    1.0177    0.0650 C   0  0  0  0  0  0  0  0  0  0  0  0
    2.6294    0.7307   -1.1054 O   0  0  0  0  0  0  0  0  0  0  0  0
   -3.9095    0.1342    0.1787 H   0  0  0  0  0  0  0  0  0  0  0  0
   -2.7332    1.3866    0.7830 H   0  0  0  0  0  0  0  0  0  0  0  0
   -3.5074    1.5527   -0.8026 H   0  0  0  0  0  0  0  0  0  0  0  0
   -1.5850    0.7240   -1.6368 H   0  0  0  0  0  0  0  0  0  0  0  0
   -2.3663   -0.8231   -1.2689 H   0  0  0  0  0  0  0  0  0  0  0  0
    0.6737   -0.4571   -1.4461 H   0  0  0  0  0  0  0  0  0  0  0  0
   -0.0065   -1.9300   -0.7624 H   0  0  0  0  0  0  0  0  0  0  0  0
    2.3071   -1.7316    0.0416 H   0  0  0  0  0  0  0  0  0  0  0  0
    1.0761   -1.7985    1.2998 H   0  0  0  0  0  0  0  0  0  0  0  0
    2.9446   -0.2676    1.7218 H   0  0  0  0  0  0  0  0  0  0  0  0
    1.3913    0.6213    1.7670 H   0  0  0  0  0  0  0  0  0  0  0  0
    3.1137    1.9421    0.3746 H   0  0  0  0  0  0  0  0  0  0  0  0
  1  2  1  0
  2  3  1  0
  3  4  2  0
  3  5  1  0
  5  6  1  0
  6  7  1  0
  7  8  1  0
  8  9  2  0
  1 10  1  0
  1 11  1  0
  1 12  1  0
  2 13  1  0
  2 14  1  0
  5 15  1  0
  5 16  1  0
  6 17  1  0
  6 18  1  0
  7 19  1  0
  7 20  1  0
  8 21  1  0
M  END
