
     RDKit          3D

 23 23  0  0  0  0  0  0  0  0999 V2000
   -2.1342   -0.7915   -0.8706 C   0  0  0  0  0  0  0  0  0  0  0  0
   -1.8532   -0.3026    0.4963 C   0  0  0  0  0  0  0  0  0  0  0  0
   -0.6245    0.5140    0.6894 C   0  0  0  0  0  0  0  0  0  0  0  0
   -0.6130    1.7750   -0.1437 C   0  0  0  0  0  0  0  0  0  0  0  0
    0.6720   -0.2369    0.6841 C   0  0  0  0  0  0  0  0  0  0  0  0
    0.9953   -0.9715   -0.5243 C   0  0  0  0  0  0  0  0  0  0  0  0
    2.2976   -0.8147   -0.7356 C   0  0  0  0  0  0  0  0  0  0  0  0
    2.8210    0.0499    0.3779 C   0  0  0  0  0  0  0  0  0  0  0  0
    1.6858    0.7462    0.7849 O   0  0  0  0  0  0  0  0  0  0  0  0
   -2.0150   -1.8842   -1.0190 H   0  0  0  0  0  0  0  0  0  0  0  0
   -3.2270   -0.6113   -1.0977 H   0  0  0  0  0  0  0  0  0  0  0  0
   -1.6063   -0.2708   -1.6882 H   0  0  0  0  0  0  0  0  0  0  0  0
   -2.7380    0.2845    0.8640 H   0  0  0  0  0  0  0  0  0  0  0  0
   -1.8214   -1.1832    1.1756 H   0  0  0  0  0  0  0  0  0  0  0  0
   -0.7113    0.9029    1.7562 H   0  0  0  0  0  0  0  0  0  0  0  0
   -0.6380    1.5872   -1.2236 H   0  0  0  0  0  0  0  0  0  0  0  0
    0.3110    2.3362    0.0766 H   0  0  0  0  0  0  0  0  0  0  0  0
   -1.5065    2.3718    0.1949 H   0  0  0  0  0  0  0  0  0  0  0  0
    0.7158   -0.8309    1.6186 H   0  0  0  0  0  0  0  0  0  0  0  0
    0.3409   -1.5473   -1.1583 H   0  0  0  0  0  0  0  0  0  0  0  0
    2.8900   -1.2289   -1.5576 H   0  0  0  0  0  0  0  0  0  0  0  0
    3.6404    0.7033    0.0465 H   0  0  0  0  0  0  0  0  0  0  0  0
    3.1186   -0.5970    1.2537 H   0  0  0  0  0  0  0  0  0  0  0  0
  1  2  1  0
  2  3  1  0
  3  4  1  0
  3  5  1  0
  5  6  1  0
  6  7  2  0
  7  8  1  0
  8  9  1  0
  9  5  1  0
  1 10  1  0
  1 11  1  0
  1 12  1  0
  2 13  1  0
  2 14  1  0
  3 15  1  0
  4 16  1  0
  4 17  1  0
  4 18  1  0
  5 19  1  0
  6 20  1  0
  7 21  1  0
  8 22  1  0
  8 23  1  0
M  END
