
     RDKit          3D

 19 18  0  0  0  0  0  0  0  0999 V2000
   -2.8960    0.5756   -0.0869 C   0  0  0  0  0  0  0  0  0  0  0  0
   -2.1079   -0.7114   -0.1767 C   0  0  0  0  0  0  0  0  0  0  0  0
   -0.8790   -0.6812    0.6393 C   0  0  0  0  0  0  0  0  0  0  0  0
   -0.9424   -0.8676    1.8399 O   0  0  0  0  0  0  0  0  0  0  0  0
    0.4540   -0.4273    0.0415 C   0  0  0  0  0  0  0  0  0  0  0  0
    1.4277   -0.4483    1.0059 O   0  0  0  0  0  0  0  0  0  0  0  0
    2.6985   -0.2191    0.5402 C   0  0  0  0  0  0  0  0  0  0  0  0
    2.8231    1.1206   -0.1210 C   0  0  0  0  0  0  0  0  0  0  0  0
    3.8938    1.4511   -0.5772 O   0  0  0  0  0  0  0  0  0  0  0  0
   -3.3746    0.7412   -1.0813 H   0  0  0  0  0  0  0  0  0  0  0  0
   -2.2584    1.4459    0.1351 H   0  0  0  0  0  0  0  0  0  0  0  0
   -3.7117    0.5340    0.6624 H   0  0  0  0  0  0  0  0  0  0  0  0
   -2.7702   -1.5149    0.2085 H   0  0  0  0  0  0  0  0  0  0  0  0
   -1.8604   -0.9824   -1.2290 H   0  0  0  0  0  0  0  0  0  0  0  0
    0.6249   -1.1763   -0.7661 H   0  0  0  0  0  0  0  0  0  0  0  0
    0.4104    0.5674   -0.4885 H   0  0  0  0  0  0  0  0  0  0  0  0
    3.0863   -1.0178   -0.1299 H   0  0  0  0  0  0  0  0  0  0  0  0
    3.3812   -0.2025    1.4167 H   0  0  0  0  0  0  0  0  0  0  0  0
    2.0008    1.8129   -0.2128 H   0  0  0  0  0  0  0  0  0  0  0  0
  1  2  1  0
  2  3  1  0
  3  4  2  0
  3  5  1  0
  5  6  1  0
  6  7  1  0
  7  8  1  0
  8  9  2  0
  1 10  1  0
  1 11  1  0
  1 12  1  0
  2 13  1  0
  2 14  1  0
  5 15  1  0
  5 16  1  0
  7 17  1  0
  7 18  1  0
  8 19  1  0
M  END
