
     RDKit          3D

 21 20  0  0  0  0  0  0  0  0999 V2000
    1.8469   -0.0083    1.1337 C   0  0  0  0  0  0  0  0  0  0  0  0
    1.4861   -0.2084   -0.2681 C   0  0  0  0  0  0  0  0  0  0  0  0
    0.0255   -0.2036   -0.6601 C   0  0  0  0  0  0  0  0  0  0  0  0
   -0.7365   -1.2612    0.0610 C   0  0  0  0  0  0  0  0  0  0  0  0
   -2.1506   -1.3546   -0.2746 C   0  0  0  0  0  0  0  0  0  0  0  0
   -2.7642   -0.7358   -1.0927 O   0  0  0  0  0  0  0  0  0  0  0  0
   -0.5808    1.1362   -0.7697 C   0  0  0  0  0  0  0  0  0  0  0  0
   -0.6615    2.0072    0.3809 C   0  0  0  0  0  0  0  0  0  0  0  0
   -0.3493    1.7811    1.5183 O   0  0  0  0  0  0  0  0  0  0  0  0
    2.2046    0.9968    1.4364 H   0  0  0  0  0  0  0  0  0  0  0  0
    2.7838   -0.6477    1.3124 H   0  0  0  0  0  0  0  0  0  0  0  0
    1.1490   -0.4095    1.8984 H   0  0  0  0  0  0  0  0  0  0  0  0
    1.8693   -1.2165   -0.6090 H   0  0  0  0  0  0  0  0  0  0  0  0
    1.9870    0.5285   -0.9265 H   0  0  0  0  0  0  0  0  0  0  0  0
    0.0496   -0.5826   -1.7396 H   0  0  0  0  0  0  0  0  0  0  0  0
   -0.5472   -1.2579    1.1625 H   0  0  0  0  0  0  0  0  0  0  0  0
   -0.2661   -2.2443   -0.2598 H   0  0  0  0  0  0  0  0  0  0  0  0
   -2.7466   -2.0943    0.2980 H   0  0  0  0  0  0  0  0  0  0  0  0
   -1.5758    1.0782   -1.2508 H   0  0  0  0  0  0  0  0  0  0  0  0
    0.0372    1.6765   -1.5641 H   0  0  0  0  0  0  0  0  0  0  0  0
   -1.0605    3.0203    0.2135 H   0  0  0  0  0  0  0  0  0  0  0  0
  1  2  1  0
  2  3  1  0
  3  4  1  0
  4  5  1  0
  5  6  2  0
  3  7  1  0
  7  8  1  0
  8  9  2  0
  1 10  1  0
  1 11  1  0
  1 12  1  0
  2 13  1  0
  2 14  1  0
  3 15  1  0
  4 16  1  0
  4 17  1  0
  5 18  1  0
  7 19  1  0
  7 20  1  0
  8 21  1  0
M  END
