
     RDKit          3D

 23 23  0  0  0  0  0  0  0  0999 V2000
    1.9787   -1.3729    0.1420 C   0  0  0  0  0  0  0  0  0  0  0  0
    1.3664   -0.0071    0.3364 C   0  0  0  0  0  0  0  0  0  0  0  0
    0.3136    0.3155   -0.6877 C   0  0  0  0  0  0  0  0  0  0  0  0
   -0.8329   -0.6603   -0.6640 C   0  0  0  0  0  0  0  0  0  0  0  0
   -1.5543   -0.7223    0.6332 C   0  0  0  0  0  0  0  0  0  0  0  0
   -0.3863   -1.9177   -1.0161 O   0  0  0  0  0  0  0  0  0  0  0  0
   -0.0969    1.7406   -0.5804 C   0  0  0  0  0  0  0  0  0  0  0  0
   -0.6828    2.3353    0.6262 C   0  0  0  0  0  0  0  0  0  0  0  0
   -1.5069    2.0157   -0.4661 O   0  0  0  0  0  0  0  0  0  0  0  0
    1.9701   -1.6781   -0.9250 H   0  0  0  0  0  0  0  0  0  0  0  0
    1.4191   -2.0790    0.7891 H   0  0  0  0  0  0  0  0  0  0  0  0
    3.0705   -1.3573    0.4266 H   0  0  0  0  0  0  0  0  0  0  0  0
    1.0067    0.1103    1.3715 H   0  0  0  0  0  0  0  0  0  0  0  0
    2.1969    0.7304    0.1807 H   0  0  0  0  0  0  0  0  0  0  0  0
    0.8090    0.1848   -1.6949 H   0  0  0  0  0  0  0  0  0  0  0  0
   -1.5422   -0.3336   -1.4682 H   0  0  0  0  0  0  0  0  0  0  0  0
   -2.0237   -1.7471    0.7051 H   0  0  0  0  0  0  0  0  0  0  0  0
   -2.4235   -0.0231    0.6141 H   0  0  0  0  0  0  0  0  0  0  0  0
   -0.9261   -0.6221    1.5245 H   0  0  0  0  0  0  0  0  0  0  0  0
   -1.0939   -2.5964   -0.9095 H   0  0  0  0  0  0  0  0  0  0  0  0
    0.3509    2.4787   -1.3047 H   0  0  0  0  0  0  0  0  0  0  0  0
   -0.9090    1.7779    1.5386 H   0  0  0  0  0  0  0  0  0  0  0  0
   -0.5036    3.4280    0.8286 H   0  0  0  0  0  0  0  0  0  0  0  0
  1  2  1  0
  2  3  1  0
  3  4  1  0
  4  5  1  0
  4  6  1  0
  3  7  1  0
  7  8  1  0
  8  9  1  0
  9  7  1  0
  1 10  1  0
  1 11  1  0
  1 12  1  0
  2 13  1  0
  2 14  1  0
  3 15  1  0
  4 16  1  0
  5 17  1  0
  5 18  1  0
  5 19  1  0
  6 20  1  0
  7 21  1  0
  8 22  1  0
  8 23  1  0
M  END
