
     RDKit          3D

 27 26  0  0  0  0  0  0  0  0999 V2000
   -2.0407   -1.9231   -0.9348 C   0  0  0  0  0  0  0  0  0  0  0  0
   -1.9646   -0.6917   -0.0671 C   0  0  0  0  0  0  0  0  0  0  0  0
   -0.5934   -0.0344   -0.2877 C   0  0  0  0  0  0  0  0  0  0  0  0
   -0.5926    1.1759    0.6032 C   0  0  0  0  0  0  0  0  0  0  0  0
   -1.7584    2.0725    0.1559 C   0  0  0  0  0  0  0  0  0  0  0  0
    0.4556   -1.0481    0.0282 C   0  0  0  0  0  0  0  0  0  0  0  0
    1.8639   -0.5953   -0.1294 C   0  0  0  0  0  0  0  0  0  0  0  0
    2.2246    0.4680    0.6595 O   0  0  0  0  0  0  0  0  0  0  0  0
    3.5511    0.8436    0.4662 C   0  0  0  0  0  0  0  0  0  0  0  0
   -3.0818   -2.1059   -1.2500 H   0  0  0  0  0  0  0  0  0  0  0  0
   -1.6505   -2.8288   -0.4163 H   0  0  0  0  0  0  0  0  0  0  0  0
   -1.4295   -1.8208   -1.8620 H   0  0  0  0  0  0  0  0  0  0  0  0
   -2.7702   -0.0112   -0.3582 H   0  0  0  0  0  0  0  0  0  0  0  0
   -2.0438   -0.8991    1.0034 H   0  0  0  0  0  0  0  0  0  0  0  0
   -0.4945    0.3111   -1.3351 H   0  0  0  0  0  0  0  0  0  0  0  0
   -0.8311    0.8975    1.6640 H   0  0  0  0  0  0  0  0  0  0  0  0
    0.3154    1.7797    0.5746 H   0  0  0  0  0  0  0  0  0  0  0  0
   -1.8695    2.0600   -0.9396 H   0  0  0  0  0  0  0  0  0  0  0  0
   -2.6860    1.7449    0.6799 H   0  0  0  0  0  0  0  0  0  0  0  0
   -1.5600    3.1099    0.5534 H   0  0  0  0  0  0  0  0  0  0  0  0
    0.3043   -1.5324    1.0198 H   0  0  0  0  0  0  0  0  0  0  0  0
    0.3042   -1.8881   -0.7124 H   0  0  0  0  0  0  0  0  0  0  0  0
    2.5224   -1.4548    0.1621 H   0  0  0  0  0  0  0  0  0  0  0  0
    2.0634   -0.4355   -1.2093 H   0  0  0  0  0  0  0  0  0  0  0  0
    4.1905   -0.0289    0.7217 H   0  0  0  0  0  0  0  0  0  0  0  0
    3.7372    1.1379   -0.5997 H   0  0  0  0  0  0  0  0  0  0  0  0
    3.8341    1.6968    1.1025 H   0  0  0  0  0  0  0  0  0  0  0  0
  1  2  1  0
  2  3  1  0
  3  4  1  0
  4  5  1  0
  3  6  1  0
  6  7  1  0
  7  8  1  0
  8  9  1  0
  1 10  1  0
  1 11  1  0
  1 12  1  0
  2 13  1  0
  2 14  1  0
  3 15  1  0
  4 16  1  0
  4 17  1  0
  5 18  1  0
  5 19  1  0
  5 20  1  0
  6 21  1  0
  6 22  1  0
  7 23  1  0
  7 24  1  0
  9 25  1  0
  9 26  1  0
  9 27  1  0
M  END
