
     RDKit          3D

 23 23  0  0  0  0  0  0  0  0999 V2000
    0.1845    1.9536   -0.1943 C   0  0  0  0  0  0  0  0  0  0  0  0
    0.2375    0.8274   -1.1540 C   0  0  0  0  0  0  0  0  0  0  0  0
   -0.0064   -0.5398   -0.6145 C   0  0  0  0  0  0  0  0  0  0  0  0
    0.0994   -1.3978   -1.7639 O   0  0  0  0  0  0  0  0  0  0  0  0
   -1.3781   -0.8061   -0.1043 C   0  0  0  0  0  0  0  0  0  0  0  0
   -1.8781    0.0253    1.0098 C   0  0  0  0  0  0  0  0  0  0  0  0
    1.0230   -1.0410    0.3556 C   0  0  0  0  0  0  0  0  0  0  0  0
    2.0624   -0.2849    0.9887 C   0  0  0  0  0  0  0  0  0  0  0  0
    2.4034   -1.0341   -0.1943 O   0  0  0  0  0  0  0  0  0  0  0  0
    1.1062    2.6074   -0.2219 H   0  0  0  0  0  0  0  0  0  0  0  0
   -0.6329    2.6368   -0.5280 H   0  0  0  0  0  0  0  0  0  0  0  0
    0.0725    1.6706    0.8682 H   0  0  0  0  0  0  0  0  0  0  0  0
    1.2746    0.8397   -1.6064 H   0  0  0  0  0  0  0  0  0  0  0  0
   -0.4592    0.9520   -2.0245 H   0  0  0  0  0  0  0  0  0  0  0  0
    0.1289   -2.3368   -1.4325 H   0  0  0  0  0  0  0  0  0  0  0  0
   -1.4351   -1.8794    0.2061 H   0  0  0  0  0  0  0  0  0  0  0  0
   -2.1347   -0.7254   -0.9388 H   0  0  0  0  0  0  0  0  0  0  0  0
   -2.2077    1.0415    0.6884 H   0  0  0  0  0  0  0  0  0  0  0  0
   -1.2644    0.0232    1.9247 H   0  0  0  0  0  0  0  0  0  0  0  0
   -2.8521   -0.4554    1.3467 H   0  0  0  0  0  0  0  0  0  0  0  0
    0.8480   -2.0964    0.6985 H   0  0  0  0  0  0  0  0  0  0  0  0
    2.5670   -0.7653    1.8671 H   0  0  0  0  0  0  0  0  0  0  0  0
    2.2414    0.7848    0.8236 H   0  0  0  0  0  0  0  0  0  0  0  0
  1  2  1  0
  2  3  1  0
  3  4  1  0
  3  5  1  0
  5  6  1  0
  3  7  1  0
  7  8  1  0
  8  9  1  0
  9  7  1  0
  1 10  1  0
  1 11  1  0
  1 12  1  0
  2 13  1  0
  2 14  1  0
  4 15  1  0
  5 16  1  0
  5 17  1  0
  6 18  1  0
  6 19  1  0
  6 20  1  0
  7 21  1  0
  8 22  1  0
  8 23  1  0
M  END
