
     RDKit          3D

 21 20  0  0  0  0  0  0  0  0999 V2000
   -1.8189    0.9502    0.1314 C   0  0  0  0  0  0  0  0  0  0  0  0
   -1.0338   -0.0195    0.9526 C   0  0  0  0  0  0  0  0  0  0  0  0
   -0.0487   -0.8271    0.1443 C   0  0  0  0  0  0  0  0  0  0  0  0
   -0.6996   -1.6440   -0.9250 C   0  0  0  0  0  0  0  0  0  0  0  0
    1.0358    0.0276   -0.4537 C   0  0  0  0  0  0  0  0  0  0  0  0
    1.8391    0.7548    0.5948 C   0  0  0  0  0  0  0  0  0  0  0  0
    2.8086    1.5138   -0.0190 O   0  0  0  0  0  0  0  0  0  0  0  0
   -2.7602    0.4953   -0.2912 H   0  0  0  0  0  0  0  0  0  0  0  0
   -1.2306    1.4514   -0.6649 H   0  0  0  0  0  0  0  0  0  0  0  0
   -2.1754    1.7556    0.8083 H   0  0  0  0  0  0  0  0  0  0  0  0
   -0.5448    0.5384    1.7745 H   0  0  0  0  0  0  0  0  0  0  0  0
   -1.7540   -0.7086    1.4402 H   0  0  0  0  0  0  0  0  0  0  0  0
    0.4531   -1.5362    0.8437 H   0  0  0  0  0  0  0  0  0  0  0  0
   -0.2255   -2.6622   -1.0121 H   0  0  0  0  0  0  0  0  0  0  0  0
   -1.7772   -1.8691   -0.6947 H   0  0  0  0  0  0  0  0  0  0  0  0
   -0.6251   -1.1991   -1.9378 H   0  0  0  0  0  0  0  0  0  0  0  0
    0.6747    0.6882   -1.2595 H   0  0  0  0  0  0  0  0  0  0  0  0
    1.7531   -0.6844   -0.9518 H   0  0  0  0  0  0  0  0  0  0  0  0
    1.2336    1.4159    1.2296 H   0  0  0  0  0  0  0  0  0  0  0  0
    2.2653   -0.0303    1.2701 H   0  0  0  0  0  0  0  0  0  0  0  0
    2.6305    1.5892   -0.9798 H   0  0  0  0  0  0  0  0  0  0  0  0
  1  2  1  0
  2  3  1  0
  3  4  1  0
  3  5  1  0
  5  6  1  0
  6  7  1  0
  1  8  1  0
  1  9  1  0
  1 10  1  0
  2 11  1  0
  2 12  1  0
  3 13  1  0
  4 14  1  0
  4 15  1  0
  4 16  1  0
  5 17  1  0
  5 18  1  0
  6 19  1  0
  6 20  1  0
  7 21  1  0
M  END
