
     RDKit          3D

 23 22  0  0  0  0  0  0  0  0999 V2000
   -2.5978    0.7390   -0.6934 C   0  0  0  0  0  0  0  0  0  0  0  0
   -1.5523    0.5336    0.3830 C   0  0  0  0  0  0  0  0  0  0  0  0
   -0.4865   -0.4012   -0.1285 C   0  0  0  0  0  0  0  0  0  0  0  0
   -1.1393   -1.6914   -0.4681 C   0  0  0  0  0  0  0  0  0  0  0  0
   -0.9264   -2.7416    0.1051 O   0  0  0  0  0  0  0  0  0  0  0  0
    0.5901   -0.6799    0.8751 C   0  0  0  0  0  0  0  0  0  0  0  0
    1.3262    0.5289    1.3260 C   0  0  0  0  0  0  0  0  0  0  0  0
    1.9331    1.1673    0.2723 O   0  0  0  0  0  0  0  0  0  0  0  0
    2.8647    0.4109   -0.4149 C   0  0  0  0  0  0  0  0  0  0  0  0
   -3.1018    1.7202   -0.4564 H   0  0  0  0  0  0  0  0  0  0  0  0
   -2.1697    0.8621   -1.6974 H   0  0  0  0  0  0  0  0  0  0  0  0
   -3.4049   -0.0158   -0.6459 H   0  0  0  0  0  0  0  0  0  0  0  0
   -2.0367    0.1837    1.2893 H   0  0  0  0  0  0  0  0  0  0  0  0
   -1.0846    1.5440    0.5456 H   0  0  0  0  0  0  0  0  0  0  0  0
   -0.0404    0.0044   -1.0447 H   0  0  0  0  0  0  0  0  0  0  0  0
   -1.8503   -1.6927   -1.2793 H   0  0  0  0  0  0  0  0  0  0  0  0
    1.2817   -1.4134    0.4187 H   0  0  0  0  0  0  0  0  0  0  0  0
    0.1583   -1.2630    1.7506 H   0  0  0  0  0  0  0  0  0  0  0  0
    0.6817    1.2796    1.8349 H   0  0  0  0  0  0  0  0  0  0  0  0
    2.1109    0.2164    2.0757 H   0  0  0  0  0  0  0  0  0  0  0  0
    3.6834    0.0747    0.2577 H   0  0  0  0  0  0  0  0  0  0  0  0
    3.3424    1.0848   -1.1884 H   0  0  0  0  0  0  0  0  0  0  0  0
    2.4181   -0.4508   -0.9111 H   0  0  0  0  0  0  0  0  0  0  0  0
  1  2  1  0
  2  3  1  0
  3  4  1  0
  4  5  2  0
  3  6  1  0
  6  7  1  0
  7  8  1  0
  8  9  1  0
  1 10  1  0
  1 11  1  0
  1 12  1  0
  2 13  1  0
  2 14  1  0
  3 15  1  0
  4 16  1  0
  6 17  1  0
  6 18  1  0
  7 19  1  0
  7 20  1  0
  9 21  1  0
  9 22  1  0
  9 23  1  0
M  END
