
     RDKit          3D

 25 25  0  0  0  0  0  0  0  0999 V2000
   -1.0277    2.2346    0.6699 C   0  0  0  0  0  0  0  0  0  0  0  0
   -0.1107    1.3671   -0.1543 C   0  0  0  0  0  0  0  0  0  0  0  0
   -0.0229   -0.0463    0.3600 C   0  0  0  0  0  0  0  0  0  0  0  0
    0.4640    0.0037    1.6626 O   0  0  0  0  0  0  0  0  0  0  0  0
   -1.3597   -0.7344    0.3823 C   0  0  0  0  0  0  0  0  0  0  0  0
   -1.9962   -0.8275   -0.9724 C   0  0  0  0  0  0  0  0  0  0  0  0
    0.9024   -0.8022   -0.5624 C   0  0  0  0  0  0  0  0  0  0  0  0
    2.3003   -0.2945   -0.6801 C   0  0  0  0  0  0  0  0  0  0  0  0
    1.9888   -1.6454   -0.0541 C   0  0  0  0  0  0  0  0  0  0  0  0
   -2.0872    2.1409    0.3719 H   0  0  0  0  0  0  0  0  0  0  0  0
   -0.8416    2.0710    1.7342 H   0  0  0  0  0  0  0  0  0  0  0  0
   -0.7175    3.2994    0.4557 H   0  0  0  0  0  0  0  0  0  0  0  0
    0.9081    1.8082   -0.0680 H   0  0  0  0  0  0  0  0  0  0  0  0
   -0.3985    1.3203   -1.2115 H   0  0  0  0  0  0  0  0  0  0  0  0
    1.4532   -0.0041    1.7003 H   0  0  0  0  0  0  0  0  0  0  0  0
   -2.0552   -0.2652    1.1085 H   0  0  0  0  0  0  0  0  0  0  0  0
   -1.1669   -1.7865    0.7244 H   0  0  0  0  0  0  0  0  0  0  0  0
   -2.0474    0.1534   -1.4921 H   0  0  0  0  0  0  0  0  0  0  0  0
   -3.0577   -1.1725   -0.8020 H   0  0  0  0  0  0  0  0  0  0  0  0
   -1.5275   -1.6219   -1.5730 H   0  0  0  0  0  0  0  0  0  0  0  0
    0.4331   -1.0597   -1.5437 H   0  0  0  0  0  0  0  0  0  0  0  0
    2.7883   -0.2712   -1.6751 H   0  0  0  0  0  0  0  0  0  0  0  0
    2.7067    0.4371    0.0329 H   0  0  0  0  0  0  0  0  0  0  0  0
    2.1756   -1.8013    1.0201 H   0  0  0  0  0  0  0  0  0  0  0  0
    2.2962   -2.5031   -0.6832 H   0  0  0  0  0  0  0  0  0  0  0  0
  1  2  1  0
  2  3  1  0
  3  4  1  0
  3  5  1  0
  5  6  1  0
  3  7  1  0
  7  8  1  0
  8  9  1  0
  9  7  1  0
  1 10  1  0
  1 11  1  0
  1 12  1  0
  2 13  1  0
  2 14  1  0
  4 15  1  0
  5 16  1  0
  5 17  1  0
  6 18  1  0
  6 19  1  0
  6 20  1  0
  7 21  1  0
  8 22  1  0
  8 23  1  0
  9 24  1  0
  9 25  1  0
M  END
