
     RDKit          3D

 27 26  0  0  0  0  0  0  0  0999 V2000
   -1.9468   -1.9422    0.2906 C   0  0  0  0  0  0  0  0  0  0  0  0
   -0.5789   -1.5633   -0.2325 C   0  0  0  0  0  0  0  0  0  0  0  0
   -0.2390   -0.1223    0.1930 C   0  0  0  0  0  0  0  0  0  0  0  0
   -1.3135    0.7104   -0.4150 C   0  0  0  0  0  0  0  0  0  0  0  0
   -1.2470    2.1757   -0.1650 C   0  0  0  0  0  0  0  0  0  0  0  0
    1.1260    0.1477   -0.3823 C   0  0  0  0  0  0  0  0  0  0  0  0
    1.6769    1.5028   -0.0943 C   0  0  0  0  0  0  0  0  0  0  0  0
    2.1496   -0.8609    0.0897 C   0  0  0  0  0  0  0  0  0  0  0  0
    2.2771   -0.8442    1.4851 O   0  0  0  0  0  0  0  0  0  0  0  0
   -2.0145   -1.5803    1.3252 H   0  0  0  0  0  0  0  0  0  0  0  0
   -1.9863   -3.0601    0.2894 H   0  0  0  0  0  0  0  0  0  0  0  0
   -2.7608   -1.6045   -0.3602 H   0  0  0  0  0  0  0  0  0  0  0  0
    0.1280   -2.2885    0.1623 H   0  0  0  0  0  0  0  0  0  0  0  0
   -0.6074   -1.5348   -1.3324 H   0  0  0  0  0  0  0  0  0  0  0  0
   -0.2585   -0.0140    1.2945 H   0  0  0  0  0  0  0  0  0  0  0  0
   -2.2890    0.3460    0.0223 H   0  0  0  0  0  0  0  0  0  0  0  0
   -1.4164    0.5529   -1.5041 H   0  0  0  0  0  0  0  0  0  0  0  0
   -0.5556    2.7352   -0.8033 H   0  0  0  0  0  0  0  0  0  0  0  0
   -1.1672    2.4330    0.9221 H   0  0  0  0  0  0  0  0  0  0  0  0
   -2.2692    2.5821   -0.4405 H   0  0  0  0  0  0  0  0  0  0  0  0
    1.0218   -0.0373   -1.4932 H   0  0  0  0  0  0  0  0  0  0  0  0
    1.7226    2.0624   -1.0757 H   0  0  0  0  0  0  0  0  0  0  0  0
    2.7665    1.4657    0.2126 H   0  0  0  0  0  0  0  0  0  0  0  0
    1.1843    2.0592    0.7003 H   0  0  0  0  0  0  0  0  0  0  0  0
    2.0488   -1.8505   -0.3387 H   0  0  0  0  0  0  0  0  0  0  0  0
    3.1420   -0.4655   -0.2839 H   0  0  0  0  0  0  0  0  0  0  0  0
    1.4066   -1.0046    1.9338 H   0  0  0  0  0  0  0  0  0  0  0  0
  1  2  1  0
  2  3  1  0
  3  4  1  0
  4  5  1  0
  3  6  1  0
  6  7  1  0
  6  8  1  0
  8  9  1  0
  1 10  1  0
  1 11  1  0
  1 12  1  0
  2 13  1  0
  2 14  1  0
  3 15  1  0
  4 16  1  0
  4 17  1  0
  5 18  1  0
  5 19  1  0
  5 20  1  0
  6 21  1  0
  7 22  1  0
  7 23  1  0
  7 24  1  0
  8 25  1  0
  8 26  1  0
  9 27  1  0
M  END
