
     RDKit          3D

 25 25  0  0  0  0  0  0  0  0999 V2000
    3.2231    0.0891    0.4319 C   0  0  0  0  0  0  0  0  0  0  0  0
    1.7531    0.3605    0.7623 C   0  0  0  0  0  0  0  0  0  0  0  0
    0.9428   -0.1714   -0.3869 C   0  0  0  0  0  0  0  0  0  0  0  0
    1.3553    0.5182   -1.5372 O   0  0  0  0  0  0  0  0  0  0  0  0
   -0.5280    0.0303   -0.2372 C   0  0  0  0  0  0  0  0  0  0  0  0
   -1.0689    1.4451   -0.1086 C   0  0  0  0  0  0  0  0  0  0  0  0
   -1.3499   -0.8368   -1.1950 C   0  0  0  0  0  0  0  0  0  0  0  0
   -1.3495   -1.0817    0.3153 C   0  0  0  0  0  0  0  0  0  0  0  0
   -2.6857   -0.8161    0.9555 C   0  0  0  0  0  0  0  0  0  0  0  0
    3.8498    0.9884    0.6019 H   0  0  0  0  0  0  0  0  0  0  0  0
    3.6350   -0.7042    1.0884 H   0  0  0  0  0  0  0  0  0  0  0  0
    3.3506   -0.2427   -0.6173 H   0  0  0  0  0  0  0  0  0  0  0  0
    1.5138   -0.1611    1.7113 H   0  0  0  0  0  0  0  0  0  0  0  0
    1.6325    1.4298    0.9314 H   0  0  0  0  0  0  0  0  0  0  0  0
    1.1326   -1.2572   -0.4822 H   0  0  0  0  0  0  0  0  0  0  0  0
    1.4033    1.4841   -1.2555 H   0  0  0  0  0  0  0  0  0  0  0  0
   -0.5438    2.0806   -0.8425 H   0  0  0  0  0  0  0  0  0  0  0  0
   -2.1449    1.4633   -0.3756 H   0  0  0  0  0  0  0  0  0  0  0  0
   -0.9978    1.8235    0.9285 H   0  0  0  0  0  0  0  0  0  0  0  0
   -0.8502   -1.6017   -1.7897 H   0  0  0  0  0  0  0  0  0  0  0  0
   -2.2448   -0.4055   -1.6647 H   0  0  0  0  0  0  0  0  0  0  0  0
   -0.8355   -2.0041    0.6746 H   0  0  0  0  0  0  0  0  0  0  0  0
   -2.6404   -0.5902    2.0199 H   0  0  0  0  0  0  0  0  0  0  0  0
   -3.2786   -1.7725    0.8468 H   0  0  0  0  0  0  0  0  0  0  0  0
   -3.2739   -0.0675    0.3640 H   0  0  0  0  0  0  0  0  0  0  0  0
  1  2  1  0
  2  3  1  0
  3  4  1  0
  3  5  1  0
  5  6  1  0
  5  7  1  0
  7  8  1  0
  8  9  1  0
  8  5  1  0
  1 10  1  0
  1 11  1  0
  1 12  1  0
  2 13  1  0
  2 14  1  0
  3 15  1  0
  4 16  1  0
  6 17  1  0
  6 18  1  0
  6 19  1  0
  7 20  1  0
  7 21  1  0
  8 22  1  0
  9 23  1  0
  9 24  1  0
  9 25  1  0
M  END
