
     RDKit          3D

 23 23  0  0  0  0  0  0  0  0999 V2000
   -1.9493   -0.5936   -1.5602 C   0  0  0  0  0  0  0  0  0  0  0  0
   -0.5403   -0.5620   -1.0432 C   0  0  0  0  0  0  0  0  0  0  0  0
   -0.4644    0.3116    0.1883 C   0  0  0  0  0  0  0  0  0  0  0  0
   -0.8336    1.6035   -0.0085 O   0  0  0  0  0  0  0  0  0  0  0  0
   -1.9628    2.0173    0.6623 C   0  0  0  0  0  0  0  0  0  0  0  0
    0.8846    0.1664    0.8642 C   0  0  0  0  0  0  0  0  0  0  0  0
    1.9182    0.7654    0.0940 O   0  0  0  0  0  0  0  0  0  0  0  0
    1.9182   -0.7075    0.2976 C   0  0  0  0  0  0  0  0  0  0  0  0
    3.0921   -1.0686    1.1528 C   0  0  0  0  0  0  0  0  0  0  0  0
   -2.5821   -1.2182   -0.8951 H   0  0  0  0  0  0  0  0  0  0  0  0
   -1.9332   -1.0907   -2.5562 H   0  0  0  0  0  0  0  0  0  0  0  0
   -2.3963    0.4014   -1.6628 H   0  0  0  0  0  0  0  0  0  0  0  0
    0.1954   -0.3014   -1.8113 H   0  0  0  0  0  0  0  0  0  0  0  0
   -0.2956   -1.5981   -0.7057 H   0  0  0  0  0  0  0  0  0  0  0  0
   -1.2156   -0.1311    0.8934 H   0  0  0  0  0  0  0  0  0  0  0  0
   -1.7422    1.8787    1.7631 H   0  0  0  0  0  0  0  0  0  0  0  0
   -2.8584    1.4337    0.4646 H   0  0  0  0  0  0  0  0  0  0  0  0
   -2.1776    3.0881    0.5462 H   0  0  0  0  0  0  0  0  0  0  0  0
    0.9421    0.3528    1.9573 H   0  0  0  0  0  0  0  0  0  0  0  0
    1.7242   -1.2513   -0.6444 H   0  0  0  0  0  0  0  0  0  0  0  0
    3.9859   -1.1199    0.4650 H   0  0  0  0  0  0  0  0  0  0  0  0
    3.0178   -2.0732    1.6020 H   0  0  0  0  0  0  0  0  0  0  0  0
    3.2730   -0.3032    1.9050 H   0  0  0  0  0  0  0  0  0  0  0  0
  1  2  1  0
  2  3  1  0
  3  4  1  0
  4  5  1  0
  3  6  1  0
  6  7  1  0
  7  8  1  0
  8  9  1  0
  8  6  1  0
  1 10  1  0
  1 11  1  0
  1 12  1  0
  2 13  1  0
  2 14  1  0
  3 15  1  0
  5 16  1  0
  5 17  1  0
  5 18  1  0
  6 19  1  0
  8 20  1  0
  9 21  1  0
  9 22  1  0
  9 23  1  0
M  END
