
     RDKit          3D

 20 20  0  0  0  0  0  0  0  0999 V2000
    2.5188    0.7736    0.3299 C   0  0  0  0  0  0  0  0  0  0  0  0
    2.2911   -0.3842   -0.6033 C   0  0  0  0  0  0  0  0  0  0  0  0
    0.8377   -0.6606   -0.7915 C   0  0  0  0  0  0  0  0  0  0  0  0
    0.4601   -1.5618   -1.5129 O   0  0  0  0  0  0  0  0  0  0  0  0
   -0.1529    0.1762   -0.0885 C   0  0  0  0  0  0  0  0  0  0  0  0
   -1.5624   -0.2179   -0.3730 C   0  0  0  0  0  0  0  0  0  0  0  0
   -2.6189    0.5769    0.2976 C   0  0  0  0  0  0  0  0  0  0  0  0
   -2.4077   -0.8489    0.6964 C   0  0  0  0  0  0  0  0  0  0  0  0
    3.6092    0.9534    0.3945 H   0  0  0  0  0  0  0  0  0  0  0  0
    2.0669    1.7140   -0.0421 H   0  0  0  0  0  0  0  0  0  0  0  0
    2.0858    0.5919    1.3325 H   0  0  0  0  0  0  0  0  0  0  0  0
    2.7664   -0.1437   -1.5716 H   0  0  0  0  0  0  0  0  0  0  0  0
    2.7204   -1.2867   -0.1156 H   0  0  0  0  0  0  0  0  0  0  0  0
    0.0501    0.0792    1.0009 H   0  0  0  0  0  0  0  0  0  0  0  0
   -0.0372    1.2687   -0.3440 H   0  0  0  0  0  0  0  0  0  0  0  0
   -1.7343   -0.6375   -1.3867 H   0  0  0  0  0  0  0  0  0  0  0  0
   -3.5107    0.8663   -0.2749 H   0  0  0  0  0  0  0  0  0  0  0  0
   -2.3047    1.3541    1.0289 H   0  0  0  0  0  0  0  0  0  0  0  0
   -3.2211   -1.5333    0.3955 H   0  0  0  0  0  0  0  0  0  0  0  0
   -1.8566   -1.0796    1.6279 H   0  0  0  0  0  0  0  0  0  0  0  0
  1  2  1  0
  2  3  1  0
  3  4  2  0
  3  5  1  0
  5  6  1  0
  6  7  1  0
  7  8  1  0
  8  6  1  0
  1  9  1  0
  1 10  1  0
  1 11  1  0
  2 12  1  0
  2 13  1  0
  5 14  1  0
  5 15  1  0
  6 16  1  0
  7 17  1  0
  7 18  1  0
  8 19  1  0
  8 20  1  0
M  END
