
     RDKit          3D

 23 22  0  0  0  0  0  0  0  0999 V2000
    3.8321   -0.1724   -0.1943 C   0  0  0  0  0  0  0  0  0  0  0  0
    2.3639   -0.4978   -0.0991 C   0  0  0  0  0  0  0  0  0  0  0  0
    1.6227    0.7096   -0.6700 C   0  0  0  0  0  0  0  0  0  0  0  0
    1.9997    1.7924    0.1455 O   0  0  0  0  0  0  0  0  0  0  0  0
    0.2034    0.4262   -0.5608 C   0  0  0  0  0  0  0  0  0  0  0  0
   -0.9811    0.1979   -0.4893 C   0  0  0  0  0  0  0  0  0  0  0  0
   -2.4312   -0.0834   -0.4098 C   0  0  0  0  0  0  0  0  0  0  0  0
   -2.6158   -1.5104    0.0002 C   0  0  0  0  0  0  0  0  0  0  0  0
   -3.0909    0.8230    0.6004 C   0  0  0  0  0  0  0  0  0  0  0  0
    4.4920   -0.9910    0.1041 H   0  0  0  0  0  0  0  0  0  0  0  0
    3.9893    0.7672    0.3977 H   0  0  0  0  0  0  0  0  0  0  0  0
    4.0278    0.1183   -1.2616 H   0  0  0  0  0  0  0  0  0  0  0  0
    2.0152   -0.6168    0.9348 H   0  0  0  0  0  0  0  0  0  0  0  0
    2.1076   -1.4312   -0.6407 H   0  0  0  0  0  0  0  0  0  0  0  0
    1.9431    0.8900   -1.7326 H   0  0  0  0  0  0  0  0  0  0  0  0
    1.2004    2.0074    0.7065 H   0  0  0  0  0  0  0  0  0  0  0  0
   -2.9117    0.0660   -1.3946 H   0  0  0  0  0  0  0  0  0  0  0  0
   -3.4206   -2.0117   -0.5871 H   0  0  0  0  0  0  0  0  0  0  0  0
   -1.6914   -2.0840   -0.1671 H   0  0  0  0  0  0  0  0  0  0  0  0
   -2.9546   -1.5506    1.0592 H   0  0  0  0  0  0  0  0  0  0  0  0
   -3.1857    1.8345    0.1445 H   0  0  0  0  0  0  0  0  0  0  0  0
   -4.0828    0.3863    0.8717 H   0  0  0  0  0  0  0  0  0  0  0  0
   -2.4314    0.9308    1.4956 H   0  0  0  0  0  0  0  0  0  0  0  0
  1  2  1  0
  2  3  1  0
  3  4  1  0
  3  5  1  0
  5  6  3  0
  6  7  1  0
  7  8  1  0
  7  9  1  0
  1 10  1  0
  1 11  1  0
  1 12  1  0
  2 13  1  0
  2 14  1  0
  3 15  1  0
  4 16  1  0
  7 17  1  0
  8 18  1  0
  8 19  1  0
  8 20  1  0
  9 21  1  0
  9 22  1  0
  9 23  1  0
M  END
