
     RDKit          3D

 23 22  0  0  0  0  0  0  0  0999 V2000
    2.5237    0.5179    0.5894 C   0  0  0  0  0  0  0  0  0  0  0  0
    1.0091    0.5703    0.6503 C   0  0  0  0  0  0  0  0  0  0  0  0
    0.4721   -0.5193   -0.2059 C   0  0  0  0  0  0  0  0  0  0  0  0
    0.9710   -0.2697   -1.6068 C   0  0  0  0  0  0  0  0  0  0  0  0
    1.2348   -1.2059   -2.3437 O   0  0  0  0  0  0  0  0  0  0  0  0
   -0.9974   -0.7073   -0.2015 C   0  0  0  0  0  0  0  0  0  0  0  0
   -1.4363   -1.0230    1.2201 C   0  0  0  0  0  0  0  0  0  0  0  0
   -1.8261    0.3897   -0.7365 C   0  0  0  0  0  0  0  0  0  0  0  0
   -1.7228    1.6008   -0.1168 O   0  0  0  0  0  0  0  0  0  0  0  0
    2.9255    1.0253   -0.3131 H   0  0  0  0  0  0  0  0  0  0  0  0
    2.8878   -0.5491    0.6004 H   0  0  0  0  0  0  0  0  0  0  0  0
    2.9873    0.9679    1.5119 H   0  0  0  0  0  0  0  0  0  0  0  0
    0.7197    1.5885    0.3189 H   0  0  0  0  0  0  0  0  0  0  0  0
    0.7346    0.3745    1.7095 H   0  0  0  0  0  0  0  0  0  0  0  0
    0.9668   -1.4620    0.1102 H   0  0  0  0  0  0  0  0  0  0  0  0
    1.1111    0.7232   -2.0037 H   0  0  0  0  0  0  0  0  0  0  0  0
   -1.2245   -1.6225   -0.7937 H   0  0  0  0  0  0  0  0  0  0  0  0
   -1.7059   -0.0899    1.7390 H   0  0  0  0  0  0  0  0  0  0  0  0
   -2.3045   -1.7187    1.2134 H   0  0  0  0  0  0  0  0  0  0  0  0
   -0.5863   -1.4835    1.7931 H   0  0  0  0  0  0  0  0  0  0  0  0
   -1.6115    0.5562   -1.8308 H   0  0  0  0  0  0  0  0  0  0  0  0
   -2.8897    0.0721   -0.7036 H   0  0  0  0  0  0  0  0  0  0  0  0
   -2.2384    2.2646   -0.6002 H   0  0  0  0  0  0  0  0  0  0  0  0
  1  2  1  0
  2  3  1  0
  3  4  1  0
  4  5  2  0
  3  6  1  0
  6  7  1  0
  6  8  1  0
  8  9  1  0
  1 10  1  0
  1 11  1  0
  1 12  1  0
  2 13  1  0
  2 14  1  0
  3 15  1  0
  4 16  1  0
  6 17  1  0
  7 18  1  0
  7 19  1  0
  7 20  1  0
  8 21  1  0
  8 22  1  0
  9 23  1  0
M  END
