
     RDKit          3D

 22 22  0  0  0  0  0  0  0  0999 V2000
   -2.6771   -0.3293    0.0433 C   0  0  0  0  0  0  0  0  0  0  0  0
   -1.2424   -0.4240    0.5152 C   0  0  0  0  0  0  0  0  0  0  0  0
   -0.3764    0.2743   -0.4917 C   0  0  0  0  0  0  0  0  0  0  0  0
   -0.8462    1.7153   -0.5522 C   0  0  0  0  0  0  0  0  0  0  0  0
    1.0742    0.3250   -0.0906 C   0  0  0  0  0  0  0  0  0  0  0  0
    1.6879   -1.0321    0.0922 C   0  0  0  0  0  0  0  0  0  0  0  0
    3.1430   -1.0027    0.4949 C   0  0  0  0  0  0  0  0  0  0  0  0
    2.7306   -1.2995   -0.8561 O   0  0  0  0  0  0  0  0  0  0  0  0
   -3.0432   -1.3273   -0.3299 H   0  0  0  0  0  0  0  0  0  0  0  0
   -3.2854    0.0224    0.8966 H   0  0  0  0  0  0  0  0  0  0  0  0
   -2.7987    0.4068   -0.7801 H   0  0  0  0  0  0  0  0  0  0  0  0
   -0.9955   -1.4892    0.6500 H   0  0  0  0  0  0  0  0  0  0  0  0
   -1.1087    0.1085    1.4975 H   0  0  0  0  0  0  0  0  0  0  0  0
   -0.4758   -0.2192   -1.4881 H   0  0  0  0  0  0  0  0  0  0  0  0
   -1.3299    2.0203    0.4048 H   0  0  0  0  0  0  0  0  0  0  0  0
   -1.5071    1.8496   -1.4260 H   0  0  0  0  0  0  0  0  0  0  0  0
    0.0136    2.4167   -0.6881 H   0  0  0  0  0  0  0  0  0  0  0  0
    1.1207    0.8784    0.8767 H   0  0  0  0  0  0  0  0  0  0  0  0
    1.6002    0.9317   -0.8553 H   0  0  0  0  0  0  0  0  0  0  0  0
    1.1060   -1.8820    0.4332 H   0  0  0  0  0  0  0  0  0  0  0  0
    3.6637   -0.0382    0.6245 H   0  0  0  0  0  0  0  0  0  0  0  0
    3.5464   -1.9056    1.0294 H   0  0  0  0  0  0  0  0  0  0  0  0
  1  2  1  0
  2  3  1  0
  3  4  1  0
  3  5  1  0
  5  6  1  0
  6  7  1  0
  7  8  1  0
  8  6  1  0
  1  9  1  0
  1 10  1  0
  1 11  1  0
  2 12  1  0
  2 13  1  0
  3 14  1  0
  4 15  1  0
  4 16  1  0
  4 17  1  0
  5 18  1  0
  5 19  1  0
  6 20  1  0
  7 21  1  0
  7 22  1  0
M  END
