
     RDKit          3D

 21 21  0  0  0  0  0  0  0  0999 V2000
    2.6387   -0.5645   -0.2067 C   0  0  0  0  0  0  0  0  0  0  0  0
    1.6933    0.6171   -0.2652 C   0  0  0  0  0  0  0  0  0  0  0  0
    0.5069    0.4233    0.6021 C   0  0  0  0  0  0  0  0  0  0  0  0
    0.6842    0.5962    1.8030 O   0  0  0  0  0  0  0  0  0  0  0  0
   -0.8272    0.0492    0.1372 C   0  0  0  0  0  0  0  0  0  0  0  0
   -0.8925   -1.2810   -0.5874 C   0  0  0  0  0  0  0  0  0  0  0  0
   -1.6538    1.1333   -0.5017 C   0  0  0  0  0  0  0  0  0  0  0  0
   -2.2408    1.4610    0.6989 O   0  0  0  0  0  0  0  0  0  0  0  0
   -1.8809    0.2031    1.2052 C   0  0  0  0  0  0  0  0  0  0  0  0
    2.5353   -1.1342   -1.1668 H   0  0  0  0  0  0  0  0  0  0  0  0
    3.6842   -0.2173   -0.1786 H   0  0  0  0  0  0  0  0  0  0  0  0
    2.4310   -1.1994    0.6647 H   0  0  0  0  0  0  0  0  0  0  0  0
    1.4223    0.8498   -1.3135 H   0  0  0  0  0  0  0  0  0  0  0  0
    2.2471    1.4916    0.1296 H   0  0  0  0  0  0  0  0  0  0  0  0
   -0.6258   -2.0648    0.1743 H   0  0  0  0  0  0  0  0  0  0  0  0
   -0.1027   -1.2817   -1.3697 H   0  0  0  0  0  0  0  0  0  0  0  0
   -1.8991   -1.4315   -0.9911 H   0  0  0  0  0  0  0  0  0  0  0  0
   -2.4174    0.6422   -1.1738 H   0  0  0  0  0  0  0  0  0  0  0  0
   -1.1285    1.9105   -1.0480 H   0  0  0  0  0  0  0  0  0  0  0  0
   -2.7160   -0.5495    1.1579 H   0  0  0  0  0  0  0  0  0  0  0  0
   -1.4585    0.3465    2.2296 H   0  0  0  0  0  0  0  0  0  0  0  0
  1  2  1  0
  2  3  1  0
  3  4  2  0
  3  5  1  0
  5  6  1  0
  5  7  1  0
  7  8  1  0
  8  9  1  0
  9  5  1  0
  1 10  1  0
  1 11  1  0
  1 12  1  0
  2 13  1  0
  2 14  1  0
  6 15  1  0
  6 16  1  0
  6 17  1  0
  7 18  1  0
  7 19  1  0
  9 20  1  0
  9 21  1  0
M  END
