
     RDKit          3D

 16 15  0  0  0  0  0  0  0  0999 V2000
   -2.1880    0.9800   -0.0994 C   0  0  0  0  0  0  0  0  0  0  0  0
   -1.6973   -0.4551   -0.2414 C   0  0  0  0  0  0  0  0  0  0  0  0
   -0.2336   -0.4978   -0.2959 C   0  0  0  0  0  0  0  0  0  0  0  0
    0.3307   -0.1690   -1.3705 O   0  0  0  0  0  0  0  0  0  0  0  0
    0.5724   -0.8789    0.7655 O   0  0  0  0  0  0  0  0  0  0  0  0
    1.9752   -0.8844    0.6091 C   0  0  0  0  0  0  0  0  0  0  0  0
    2.4759    0.4787    0.2833 C   0  0  0  0  0  0  0  0  0  0  0  0
    1.7099    1.4217    0.1922 O   0  0  0  0  0  0  0  0  0  0  0  0
   -2.9998    1.2160   -0.8008 H   0  0  0  0  0  0  0  0  0  0  0  0
   -2.4933    1.1853    0.9655 H   0  0  0  0  0  0  0  0  0  0  0  0
   -1.3502    1.6827   -0.3161 H   0  0  0  0  0  0  0  0  0  0  0  0
   -2.0730   -0.8035   -1.2414 H   0  0  0  0  0  0  0  0  0  0  0  0
   -2.1526   -1.1139    0.5090 H   0  0  0  0  0  0  0  0  0  0  0  0
    2.1867   -1.5414   -0.2779 H   0  0  0  0  0  0  0  0  0  0  0  0
    2.4232   -1.2881    1.5363 H   0  0  0  0  0  0  0  0  0  0  0  0
    3.5139    0.6678    0.1211 H   0  0  0  0  0  0  0  0  0  0  0  0
  1  2  1  0
  2  3  1  0
  3  4  2  0
  3  5  1  0
  5  6  1  0
  6  7  1  0
  7  8  2  0
  1  9  1  0
  1 10  1  0
  1 11  1  0
  2 12  1  0
  2 13  1  0
  6 14  1  0
  6 15  1  0
  7 16  1  0
M  END
