
     RDKit          3D

 29 28  0  0  0  0  0  0  0  0999 V2000
   -2.8647   -0.4350   -0.9937 C   0  0  0  0  0  0  0  0  0  0  0  0
   -1.3538   -0.4798   -0.9105 C   0  0  0  0  0  0  0  0  0  0  0  0
   -0.8635    0.0695    0.4133 C   0  0  0  0  0  0  0  0  0  0  0  0
   -1.4067   -0.7226    1.5793 C   0  0  0  0  0  0  0  0  0  0  0  0
    0.6184    0.1819    0.4829 C   0  0  0  0  0  0  0  0  0  0  0  0
    1.1704    1.0860   -0.5692 C   0  0  0  0  0  0  0  0  0  0  0  0
    0.6584    2.4920   -0.4950 C   0  0  0  0  0  0  0  0  0  0  0  0
    1.3025   -1.1783    0.3063 C   0  0  0  0  0  0  0  0  0  0  0  0
    2.7872   -1.0353    0.3806 C   0  0  0  0  0  0  0  0  0  0  0  0
   -3.3085   -1.1609   -0.2991 H   0  0  0  0  0  0  0  0  0  0  0  0
   -3.1160   -0.6892   -2.0633 H   0  0  0  0  0  0  0  0  0  0  0  0
   -3.2113    0.5922   -0.8381 H   0  0  0  0  0  0  0  0  0  0  0  0
   -0.9979   -1.5056   -1.0881 H   0  0  0  0  0  0  0  0  0  0  0  0
   -0.9753    0.1521   -1.7394 H   0  0  0  0  0  0  0  0  0  0  0  0
   -1.2839    1.0913    0.5019 H   0  0  0  0  0  0  0  0  0  0  0  0
   -1.0929   -0.1910    2.5012 H   0  0  0  0  0  0  0  0  0  0  0  0
   -2.5277   -0.7152    1.5420 H   0  0  0  0  0  0  0  0  0  0  0  0
   -1.0149   -1.7690    1.5968 H   0  0  0  0  0  0  0  0  0  0  0  0
    0.8837    0.5052    1.5149 H   0  0  0  0  0  0  0  0  0  0  0  0
    1.0019    0.6329   -1.5507 H   0  0  0  0  0  0  0  0  0  0  0  0
    2.2862    1.1429   -0.4399 H   0  0  0  0  0  0  0  0  0  0  0  0
   -0.4204    2.5986   -0.5670 H   0  0  0  0  0  0  0  0  0  0  0  0
    1.0166    2.9958    0.4180 H   0  0  0  0  0  0  0  0  0  0  0  0
    1.0915    3.0361   -1.3801 H   0  0  0  0  0  0  0  0  0  0  0  0
    0.9956   -1.8689    1.1343 H   0  0  0  0  0  0  0  0  0  0  0  0
    1.0354   -1.6580   -0.6383 H   0  0  0  0  0  0  0  0  0  0  0  0
    3.1293   -0.4410    1.2512 H   0  0  0  0  0  0  0  0  0  0  0  0
    3.2526   -0.6503   -0.5517 H   0  0  0  0  0  0  0  0  0  0  0  0
    3.2078   -2.0763    0.5013 H   0  0  0  0  0  0  0  0  0  0  0  0
  1  2  1  0
  2  3  1  0
  3  4  1  0
  3  5  1  0
  5  6  1  0
  6  7  1  0
  5  8  1  0
  8  9  1  0
  1 10  1  0
  1 11  1  0
  1 12  1  0
  2 13  1  0
  2 14  1  0
  3 15  1  0
  4 16  1  0
  4 17  1  0
  4 18  1  0
  5 19  1  0
  6 20  1  0
  6 21  1  0
  7 22  1  0
  7 23  1  0
  7 24  1  0
  8 25  1  0
  8 26  1  0
  9 27  1  0
  9 28  1  0
  9 29  1  0
M  END
