
     RDKit          3D

 20 19  0  0  0  0  0  0  0  0999 V2000
    3.3194   -0.1774   -0.0982 C   0  0  0  0  0  0  0  0  0  0  0  0
    2.0183    0.5217    0.1399 C   0  0  0  0  0  0  0  0  0  0  0  0
    0.8769   -0.4097    0.2684 C   0  0  0  0  0  0  0  0  0  0  0  0
    1.0593   -1.5906    0.1785 O   0  0  0  0  0  0  0  0  0  0  0  0
   -0.4688    0.1835    0.5080 C   0  0  0  0  0  0  0  0  0  0  0  0
   -1.5423   -0.8361    0.6216 C   0  0  0  0  0  0  0  0  0  0  0  0
   -2.7950   -0.3237    0.8612 O   0  0  0  0  0  0  0  0  0  0  0  0
   -3.2120    0.5145   -0.1458 C   0  0  0  0  0  0  0  0  0  0  0  0
    3.4127   -1.1226    0.4649 H   0  0  0  0  0  0  0  0  0  0  0  0
    4.1342    0.4976    0.2674 H   0  0  0  0  0  0  0  0  0  0  0  0
    3.5309   -0.3520   -1.1661 H   0  0  0  0  0  0  0  0  0  0  0  0
    2.0929    1.0762    1.1065 H   0  0  0  0  0  0  0  0  0  0  0  0
    1.8073    1.2013   -0.7141 H   0  0  0  0  0  0  0  0  0  0  0  0
   -0.6892    0.8755   -0.3496 H   0  0  0  0  0  0  0  0  0  0  0  0
   -0.4559    0.8067    1.4169 H   0  0  0  0  0  0  0  0  0  0  0  0
   -1.3463   -1.6077    1.3967 H   0  0  0  0  0  0  0  0  0  0  0  0
   -1.6285   -1.4455   -0.3303 H   0  0  0  0  0  0  0  0  0  0  0  0
   -2.5852    1.3967   -0.2982 H   0  0  0  0  0  0  0  0  0  0  0  0
   -4.2413    0.9049    0.1196 H   0  0  0  0  0  0  0  0  0  0  0  0
   -3.2876   -0.1133   -1.0645 H   0  0  0  0  0  0  0  0  0  0  0  0
  1  2  1  0
  2  3  1  0
  3  4  2  0
  3  5  1  0
  5  6  1  0
  6  7  1  0
  7  8  1  0
  1  9  1  0
  1 10  1  0
  1 11  1  0
  2 12  1  0
  2 13  1  0
  5 14  1  0
  5 15  1  0
  6 16  1  0
  6 17  1  0
  8 18  1  0
  8 19  1  0
  8 20  1  0
M  END
