
     RDKit          3D

 23 22  0  0  0  0  0  0  0  0999 V2000
    2.7768    0.2058    0.3100 C   0  0  0  0  0  0  0  0  0  0  0  0
    1.3875    0.7632    0.4074 C   0  0  0  0  0  0  0  0  0  0  0  0
    0.3261   -0.2514    0.0427 C   0  0  0  0  0  0  0  0  0  0  0  0
    0.4829   -0.7585   -1.3710 C   0  0  0  0  0  0  0  0  0  0  0  0
    0.2797   -1.3589    1.0275 C   0  0  0  0  0  0  0  0  0  0  0  0
   -0.4866   -2.2775    0.8286 O   0  0  0  0  0  0  0  0  0  0  0  0
   -1.0087    0.4674    0.1092 C   0  0  0  0  0  0  0  0  0  0  0  0
   -2.0691   -0.3726   -0.2095 O   0  0  0  0  0  0  0  0  0  0  0  0
   -3.2324    0.3902   -0.1156 C   0  0  0  0  0  0  0  0  0  0  0  0
    3.4707    0.9796   -0.0776 H   0  0  0  0  0  0  0  0  0  0  0  0
    3.1709   -0.0464    1.3369 H   0  0  0  0  0  0  0  0  0  0  0  0
    2.8685   -0.6654   -0.3556 H   0  0  0  0  0  0  0  0  0  0  0  0
    1.1838    1.0611    1.4619 H   0  0  0  0  0  0  0  0  0  0  0  0
    1.2198    1.6553   -0.2280 H   0  0  0  0  0  0  0  0  0  0  0  0
    1.0592   -1.7156   -1.4015 H   0  0  0  0  0  0  0  0  0  0  0  0
    1.0779    0.0273   -1.9171 H   0  0  0  0  0  0  0  0  0  0  0  0
   -0.5079   -0.8517   -1.8670 H   0  0  0  0  0  0  0  0  0  0  0  0
    0.9299   -1.3085    1.8872 H   0  0  0  0  0  0  0  0  0  0  0  0
   -1.1886    0.9449    1.0826 H   0  0  0  0  0  0  0  0  0  0  0  0
   -1.0413    1.2996   -0.6478 H   0  0  0  0  0  0  0  0  0  0  0  0
   -3.2141    1.2545   -0.8164 H   0  0  0  0  0  0  0  0  0  0  0  0
   -4.0936   -0.2545   -0.3821 H   0  0  0  0  0  0  0  0  0  0  0  0
   -3.3912    0.8122    0.8952 H   0  0  0  0  0  0  0  0  0  0  0  0
  1  2  1  0
  2  3  1  0
  3  4  1  0
  3  5  1  0
  5  6  2  0
  3  7  1  0
  7  8  1  0
  8  9  1  0
  1 10  1  0
  1 11  1  0
  1 12  1  0
  2 13  1  0
  2 14  1  0
  4 15  1  0
  4 16  1  0
  4 17  1  0
  5 18  1  0
  7 19  1  0
  7 20  1  0
  9 21  1  0
  9 22  1  0
  9 23  1  0
M  END
