
     RDKit          3D

 25 24  0  0  0  0  0  0  0  0999 V2000
   -2.4005    0.6300    0.4539 C   0  0  0  0  0  0  0  0  0  0  0  0
   -1.8116   -0.5325   -0.2817 C   0  0  0  0  0  0  0  0  0  0  0  0
   -0.4826   -0.2736   -0.8825 C   0  0  0  0  0  0  0  0  0  0  0  0
   -0.0148   -1.5476   -1.6120 C   0  0  0  0  0  0  0  0  0  0  0  0
    0.6231    0.1036    0.0311 C   0  0  0  0  0  0  0  0  0  0  0  0
    0.4734    1.3308    0.8388 C   0  0  0  0  0  0  0  0  0  0  0  0
    0.9043   -0.9555    0.9296 O   0  0  0  0  0  0  0  0  0  0  0  0
    1.8906    0.2268   -0.8143 C   0  0  0  0  0  0  0  0  0  0  0  0
    2.9588    0.5245    0.0570 O   0  0  0  0  0  0  0  0  0  0  0  0
   -3.4825    0.3607    0.6503 H   0  0  0  0  0  0  0  0  0  0  0  0
   -2.4408    1.5414   -0.1943 H   0  0  0  0  0  0  0  0  0  0  0  0
   -1.9710    0.7924    1.4417 H   0  0  0  0  0  0  0  0  0  0  0  0
   -2.5268   -0.7641   -1.1240 H   0  0  0  0  0  0  0  0  0  0  0  0
   -1.8542   -1.4265    0.3685 H   0  0  0  0  0  0  0  0  0  0  0  0
   -0.6277    0.4780   -1.6869 H   0  0  0  0  0  0  0  0  0  0  0  0
    0.5488   -1.2114   -2.4992 H   0  0  0  0  0  0  0  0  0  0  0  0
    0.6008   -2.1343   -0.9256 H   0  0  0  0  0  0  0  0  0  0  0  0
   -0.9075   -2.1224   -1.9690 H   0  0  0  0  0  0  0  0  0  0  0  0
    0.3280    1.0982    1.9193 H   0  0  0  0  0  0  0  0  0  0  0  0
    1.4695    1.8765    0.8383 H   0  0  0  0  0  0  0  0  0  0  0  0
   -0.2236    2.0945    0.4501 H   0  0  0  0  0  0  0  0  0  0  0  0
    1.2277   -0.6083    1.7877 H   0  0  0  0  0  0  0  0  0  0  0  0
    2.1216   -0.7439   -1.3056 H   0  0  0  0  0  0  0  0  0  0  0  0
    1.8189    1.0745   -1.5188 H   0  0  0  0  0  0  0  0  0  0  0  0
    3.7781    0.1884   -0.4046 H   0  0  0  0  0  0  0  0  0  0  0  0
  1  2  1  0
  2  3  1  0
  3  4  1  0
  3  5  1  0
  5  6  1  0
  5  7  1  0
  5  8  1  0
  8  9  1  0
  1 10  1  0
  1 11  1  0
  1 12  1  0
  2 13  1  0
  2 14  1  0
  3 15  1  0
  4 16  1  0
  4 17  1  0
  4 18  1  0
  6 19  1  0
  6 20  1  0
  6 21  1  0
  7 22  1  0
  8 23  1  0
  8 24  1  0
  9 25  1  0
M  END
