
     RDKit          3D

 21 20  0  0  0  0  0  0  0  0999 V2000
   -2.3623    1.1232    0.1003 C   0  0  0  0  0  0  0  0  0  0  0  0
   -2.4401   -0.3584   -0.2031 C   0  0  0  0  0  0  0  0  0  0  0  0
   -1.3470   -1.1335    0.4904 C   0  0  0  0  0  0  0  0  0  0  0  0
   -1.5195   -2.4784    0.1384 O   0  0  0  0  0  0  0  0  0  0  0  0
   -0.0665   -0.6285   -0.0504 C   0  0  0  0  0  0  0  0  0  0  0  0
    0.9679   -0.2007   -0.5006 C   0  0  0  0  0  0  0  0  0  0  0  0
    2.2212    0.3330   -1.0467 C   0  0  0  0  0  0  0  0  0  0  0  0
    3.2387    0.4698    0.0667 C   0  0  0  0  0  0  0  0  0  0  0  0
    2.8158    1.3212    1.0706 O   0  0  0  0  0  0  0  0  0  0  0  0
   -2.9367    1.3410    1.0252 H   0  0  0  0  0  0  0  0  0  0  0  0
   -2.8278    1.7050   -0.7429 H   0  0  0  0  0  0  0  0  0  0  0  0
   -1.2933    1.4586    0.2119 H   0  0  0  0  0  0  0  0  0  0  0  0
   -2.3240   -0.5439   -1.3031 H   0  0  0  0  0  0  0  0  0  0  0  0
   -3.4437   -0.6974    0.1622 H   0  0  0  0  0  0  0  0  0  0  0  0
   -1.3839   -0.9788    1.5889 H   0  0  0  0  0  0  0  0  0  0  0  0
   -1.3528   -3.0707    0.9011 H   0  0  0  0  0  0  0  0  0  0  0  0
    1.9957    1.2924   -1.5359 H   0  0  0  0  0  0  0  0  0  0  0  0
    2.6699   -0.3808   -1.7845 H   0  0  0  0  0  0  0  0  0  0  0  0
    3.3465   -0.5402    0.5215 H   0  0  0  0  0  0  0  0  0  0  0  0
    4.2083    0.7769   -0.3202 H   0  0  0  0  0  0  0  0  0  0  0  0
    1.8333    1.1902    1.2101 H   0  0  0  0  0  0  0  0  0  0  0  0
  1  2  1  0
  2  3  1  0
  3  4  1  0
  3  5  1  0
  5  6  3  0
  6  7  1  0
  7  8  1  0
  8  9  1  0
  1 10  1  0
  1 11  1  0
  1 12  1  0
  2 13  1  0
  2 14  1  0
  3 15  1  0
  4 16  1  0
  7 17  1  0
  7 18  1  0
  8 19  1  0
  8 20  1  0
  9 21  1  0
M  END
