
     RDKit          3D

 27 26  0  0  0  0  0  0  0  0999 V2000
    2.2581    1.4020   -0.5341 C   0  0  0  0  0  0  0  0  0  0  0  0
    0.7994    1.2006   -0.2553 C   0  0  0  0  0  0  0  0  0  0  0  0
    0.4331   -0.2509   -0.0716 C   0  0  0  0  0  0  0  0  0  0  0  0
    1.2293   -0.7745    1.0979 C   0  0  0  0  0  0  0  0  0  0  0  0
    0.7062   -1.0528   -1.3289 C   0  0  0  0  0  0  0  0  0  0  0  0
   -1.0569   -0.3368    0.1835 C   0  0  0  0  0  0  0  0  0  0  0  0
   -1.5077   -1.7690    0.3797 C   0  0  0  0  0  0  0  0  0  0  0  0
   -1.4495    0.3774    1.2959 O   0  0  0  0  0  0  0  0  0  0  0  0
   -2.3864    1.3274    0.9011 C   0  0  0  0  0  0  0  0  0  0  0  0
    2.4297    2.1243   -1.3623 H   0  0  0  0  0  0  0  0  0  0  0  0
    2.7696    1.8536    0.3657 H   0  0  0  0  0  0  0  0  0  0  0  0
    2.7951    0.4452   -0.7214 H   0  0  0  0  0  0  0  0  0  0  0  0
    0.5218    1.7479    0.6577 H   0  0  0  0  0  0  0  0  0  0  0  0
    0.2342    1.6112   -1.1296 H   0  0  0  0  0  0  0  0  0  0  0  0
    0.7353   -0.4440    2.0377 H   0  0  0  0  0  0  0  0  0  0  0  0
    2.2333   -0.3586    1.0674 H   0  0  0  0  0  0  0  0  0  0  0  0
    1.3294   -1.8891    1.0782 H   0  0  0  0  0  0  0  0  0  0  0  0
    0.3280   -0.4218   -2.1828 H   0  0  0  0  0  0  0  0  0  0  0  0
    0.0443   -1.9458   -1.2839 H   0  0  0  0  0  0  0  0  0  0  0  0
    1.7754   -1.3103   -1.4477 H   0  0  0  0  0  0  0  0  0  0  0  0
   -1.5926    0.0418   -0.7066 H   0  0  0  0  0  0  0  0  0  0  0  0
   -1.8651   -2.1939   -0.5859 H   0  0  0  0  0  0  0  0  0  0  0  0
   -0.6335   -2.3965    0.6723 H   0  0  0  0  0  0  0  0  0  0  0  0
   -2.3388   -1.8033    1.0841 H   0  0  0  0  0  0  0  0  0  0  0  0
   -2.7213    1.9181    1.7756 H   0  0  0  0  0  0  0  0  0  0  0  0
   -3.1942    0.8590    0.3413 H   0  0  0  0  0  0  0  0  0  0  0  0
   -1.8762    2.0385    0.1866 H   0  0  0  0  0  0  0  0  0  0  0  0
  1  2  1  0
  2  3  1  0
  3  4  1  0
  3  5  1  0
  3  6  1  0
  6  7  1  0
  6  8  1  0
  8  9  1  0
  1 10  1  0
  1 11  1  0
  1 12  1  0
  2 13  1  0
  2 14  1  0
  4 15  1  0
  4 16  1  0
  4 17  1  0
  5 18  1  0
  5 19  1  0
  5 20  1  0
  6 21  1  0
  7 22  1  0
  7 23  1  0
  7 24  1  0
  9 25  1  0
  9 26  1  0
  9 27  1  0
M  END
