
     RDKit          3D

 23 23  0  0  0  0  0  0  0  0999 V2000
   -2.1865    1.3470   -0.3412 C   0  0  0  0  0  0  0  0  0  0  0  0
   -2.1703    0.1070    0.4961 C   0  0  0  0  0  0  0  0  0  0  0  0
   -0.7889   -0.3983    0.7958 C   0  0  0  0  0  0  0  0  0  0  0  0
   -0.9467   -1.5592    1.5848 O   0  0  0  0  0  0  0  0  0  0  0  0
    0.0101   -0.7701   -0.3941 C   0  0  0  0  0  0  0  0  0  0  0  0
    0.3562    0.1114   -1.3796 O   0  0  0  0  0  0  0  0  0  0  0  0
    1.3834   -0.1373   -0.4773 C   0  0  0  0  0  0  0  0  0  0  0  0
    2.5362   -1.0076   -0.8698 C   0  0  0  0  0  0  0  0  0  0  0  0
    1.6852    1.0432    0.4249 C   0  0  0  0  0  0  0  0  0  0  0  0
   -3.2277    1.7631   -0.2912 H   0  0  0  0  0  0  0  0  0  0  0  0
   -2.0029    1.1525   -1.4250 H   0  0  0  0  0  0  0  0  0  0  0  0
   -1.5312    2.1409    0.0663 H   0  0  0  0  0  0  0  0  0  0  0  0
   -2.6822    0.3417    1.4519 H   0  0  0  0  0  0  0  0  0  0  0  0
   -2.7948   -0.6622   -0.0034 H   0  0  0  0  0  0  0  0  0  0  0  0
   -0.2688    0.3267    1.4542 H   0  0  0  0  0  0  0  0  0  0  0  0
   -1.2085   -2.2996    0.9636 H   0  0  0  0  0  0  0  0  0  0  0  0
   -0.0157   -1.8420   -0.7523 H   0  0  0  0  0  0  0  0  0  0  0  0
    3.0851   -0.5167   -1.6922 H   0  0  0  0  0  0  0  0  0  0  0  0
    2.2323   -2.0389   -1.1002 H   0  0  0  0  0  0  0  0  0  0  0  0
    3.2227   -1.0649    0.0018 H   0  0  0  0  0  0  0  0  0  0  0  0
    2.5630    1.6160    0.0534 H   0  0  0  0  0  0  0  0  0  0  0  0
    1.9142    0.6234    1.4271 H   0  0  0  0  0  0  0  0  0  0  0  0
    0.8357    1.7240    0.4672 H   0  0  0  0  0  0  0  0  0  0  0  0
  1  2  1  0
  2  3  1  0
  3  4  1  0
  3  5  1  0
  5  6  1  0
  6  7  1  0
  7  8  1  0
  7  9  1  0
  7  5  1  0
  1 10  1  0
  1 11  1  0
  1 12  1  0
  2 13  1  0
  2 14  1  0
  3 15  1  0
  4 16  1  0
  5 17  1  0
  8 18  1  0
  8 19  1  0
  8 20  1  0
  9 21  1  0
  9 22  1  0
  9 23  1  0
M  END
