
     RDKit          3D

 19 18  0  0  0  0  0  0  0  0999 V2000
    1.9210   -1.2261   -0.3190 C   0  0  0  0  0  0  0  0  0  0  0  0
    1.3824    0.1559   -0.1740 C   0  0  0  0  0  0  0  0  0  0  0  0
   -0.0960    0.2179    0.0829 C   0  0  0  0  0  0  0  0  0  0  0  0
   -0.4550    1.7058    0.2009 C   0  0  0  0  0  0  0  0  0  0  0  0
   -1.7975    1.8638    0.5028 O   0  0  0  0  0  0  0  0  0  0  0  0
   -0.8688   -0.3003   -0.9209 O   0  0  0  0  0  0  0  0  0  0  0  0
   -1.7237   -1.2777   -0.4057 C   0  0  0  0  0  0  0  0  0  0  0  0
    1.3333   -2.0123    0.1666 H   0  0  0  0  0  0  0  0  0  0  0  0
    2.0311   -1.4845   -1.4126 H   0  0  0  0  0  0  0  0  0  0  0  0
    2.9864   -1.2103    0.0568 H   0  0  0  0  0  0  0  0  0  0  0  0
    1.8849    0.6585    0.6795 H   0  0  0  0  0  0  0  0  0  0  0  0
    1.6105    0.7696   -1.0902 H   0  0  0  0  0  0  0  0  0  0  0  0
   -0.3027   -0.2358    1.0809 H   0  0  0  0  0  0  0  0  0  0  0  0
    0.1884    2.1673    0.9838 H   0  0  0  0  0  0  0  0  0  0  0  0
   -0.2762    2.2225   -0.7663 H   0  0  0  0  0  0  0  0  0  0  0  0
   -1.9740    2.6420    1.0856 H   0  0  0  0  0  0  0  0  0  0  0  0
   -2.3665   -1.7205   -1.1935 H   0  0  0  0  0  0  0  0  0  0  0  0
   -1.0616   -2.0746    0.0260 H   0  0  0  0  0  0  0  0  0  0  0  0
   -2.4159   -0.8614    0.3577 H   0  0  0  0  0  0  0  0  0  0  0  0
  1  2  1  0
  2  3  1  0
  3  4  1  0
  4  5  1  0
  3  6  1  0
  6  7  1  0
  1  8  1  0
  1  9  1  0
  1 10  1  0
  2 11  1  0
  2 12  1  0
  3 13  1  0
  4 14  1  0
  4 15  1  0
  5 16  1  0
  7 17  1  0
  7 18  1  0
  7 19  1  0
M  END
