
     RDKit          3D

 18 17  0  0  0  0  0  0  0  0999 V2000
    2.0688    0.3265   -0.1718 C   0  0  0  0  0  0  0  0  0  0  0  0
    0.9200   -0.5724   -0.4822 C   0  0  0  0  0  0  0  0  0  0  0  0
   -0.2995   -0.3263    0.3655 C   0  0  0  0  0  0  0  0  0  0  0  0
   -0.0215   -0.5091    1.7164 O   0  0  0  0  0  0  0  0  0  0  0  0
   -1.3341   -1.2971   -0.0768 C   0  0  0  0  0  0  0  0  0  0  0  0
   -1.7358   -1.3255   -1.2161 O   0  0  0  0  0  0  0  0  0  0  0  0
   -0.8489    1.0672    0.2091 C   0  0  0  0  0  0  0  0  0  0  0  0
   -1.1574    1.3383   -1.1250 O   0  0  0  0  0  0  0  0  0  0  0  0
    1.9106    1.3160   -0.6126 H   0  0  0  0  0  0  0  0  0  0  0  0
    2.3362    0.3459    0.8932 H   0  0  0  0  0  0  0  0  0  0  0  0
    2.9631   -0.1084   -0.7020 H   0  0  0  0  0  0  0  0  0  0  0  0
    1.2335   -1.6219   -0.3010 H   0  0  0  0  0  0  0  0  0  0  0  0
    0.6618   -0.4874   -1.5474 H   0  0  0  0  0  0  0  0  0  0  0  0
   -0.8551   -0.6168    2.2371 H   0  0  0  0  0  0  0  0  0  0  0  0
   -1.7237   -1.9878    0.6587 H   0  0  0  0  0  0  0  0  0  0  0  0
   -0.1928    1.8250    0.6604 H   0  0  0  0  0  0  0  0  0  0  0  0
   -1.8102    1.1096    0.7639 H   0  0  0  0  0  0  0  0  0  0  0  0
   -2.1150    1.5242   -1.2695 H   0  0  0  0  0  0  0  0  0  0  0  0
  1  2  1  0
  2  3  1  0
  3  4  1  0
  3  5  1  0
  5  6  2  0
  3  7  1  0
  7  8  1  0
  1  9  1  0
  1 10  1  0
  1 11  1  0
  2 12  1  0
  2 13  1  0
  4 14  1  0
  5 15  1  0
  7 16  1  0
  7 17  1  0
  8 18  1  0
M  END
