
     RDKit          3D

 25 25  0  0  0  0  0  0  0  0999 V2000
   -3.2341    0.7221    0.7578 C   0  0  0  0  0  0  0  0  0  0  0  0
   -2.5428   -0.5715    0.4812 C   0  0  0  0  0  0  0  0  0  0  0  0
   -1.2241   -0.3517   -0.2936 C   0  0  0  0  0  0  0  0  0  0  0  0
   -0.7074   -1.6246   -0.4723 O   0  0  0  0  0  0  0  0  0  0  0  0
   -0.3233    0.4884    0.5321 C   0  0  0  0  0  0  0  0  0  0  0  0
    1.0021    0.8436   -0.0167 C   0  0  0  0  0  0  0  0  0  0  0  0
    1.9348   -0.2842   -0.3210 C   0  0  0  0  0  0  0  0  0  0  0  0
    3.2842    0.0137   -0.8741 C   0  0  0  0  0  0  0  0  0  0  0  0
    3.1646   -0.3633    0.5536 C   0  0  0  0  0  0  0  0  0  0  0  0
   -3.1902    0.9861    1.8516 H   0  0  0  0  0  0  0  0  0  0  0  0
   -2.7759    1.5335    0.1510 H   0  0  0  0  0  0  0  0  0  0  0  0
   -4.3038    0.6736    0.4076 H   0  0  0  0  0  0  0  0  0  0  0  0
   -3.1706   -1.3138   -0.0599 H   0  0  0  0  0  0  0  0  0  0  0  0
   -2.2315   -1.0539    1.4452 H   0  0  0  0  0  0  0  0  0  0  0  0
   -1.4508    0.0561   -1.2798 H   0  0  0  0  0  0  0  0  0  0  0  0
   -1.3699   -2.2668   -0.8272 H   0  0  0  0  0  0  0  0  0  0  0  0
   -0.1143   -0.0205    1.5249 H   0  0  0  0  0  0  0  0  0  0  0  0
   -0.8593    1.4351    0.8429 H   0  0  0  0  0  0  0  0  0  0  0  0
    1.5100    1.4924    0.7624 H   0  0  0  0  0  0  0  0  0  0  0  0
    0.9529    1.5031   -0.9182 H   0  0  0  0  0  0  0  0  0  0  0  0
    1.5057   -1.2873   -0.5466 H   0  0  0  0  0  0  0  0  0  0  0  0
    3.5727    1.0554   -1.0953 H   0  0  0  0  0  0  0  0  0  0  0  0
    3.7612   -0.7242   -1.5362 H   0  0  0  0  0  0  0  0  0  0  0  0
    3.5113   -1.3584    0.9161 H   0  0  0  0  0  0  0  0  0  0  0  0
    3.2986    0.4171    1.3506 H   0  0  0  0  0  0  0  0  0  0  0  0
  1  2  1  0
  2  3  1  0
  3  4  1  0
  3  5  1  0
  5  6  1  0
  6  7  1  0
  7  8  1  0
  8  9  1  0
  9  7  1  0
  1 10  1  0
  1 11  1  0
  1 12  1  0
  2 13  1  0
  2 14  1  0
  3 15  1  0
  4 16  1  0
  5 17  1  0
  5 18  1  0
  6 19  1  0
  6 20  1  0
  7 21  1  0
  8 22  1  0
  8 23  1  0
  9 24  1  0
  9 25  1  0
M  END
