
     RDKit          3D

 25 25  0  0  0  0  0  0  0  0999 V2000
   -1.9009    0.1403    1.6062 C   0  0  0  0  0  0  0  0  0  0  0  0
   -2.3816   -0.1657    0.2086 C   0  0  0  0  0  0  0  0  0  0  0  0
   -1.3118    0.1937   -0.8301 C   0  0  0  0  0  0  0  0  0  0  0  0
   -1.9204   -0.1613   -2.1808 C   0  0  0  0  0  0  0  0  0  0  0  0
   -0.1420   -0.4920   -0.6068 O   0  0  0  0  0  0  0  0  0  0  0  0
    0.9300    0.3655   -0.3192 C   0  0  0  0  0  0  0  0  0  0  0  0
    2.1780   -0.4301   -0.0845 C   0  0  0  0  0  0  0  0  0  0  0  0
    3.4639    0.1756    0.2369 C   0  0  0  0  0  0  0  0  0  0  0  0
    2.7168   -0.4819    1.3560 C   0  0  0  0  0  0  0  0  0  0  0  0
   -1.6724    1.2378    1.6349 H   0  0  0  0  0  0  0  0  0  0  0  0
   -2.7473   -0.0134    2.2867 H   0  0  0  0  0  0  0  0  0  0  0  0
   -0.9837   -0.3814    1.8872 H   0  0  0  0  0  0  0  0  0  0  0  0
   -3.2908    0.4381    0.0323 H   0  0  0  0  0  0  0  0  0  0  0  0
   -2.6630   -1.2315    0.0926 H   0  0  0  0  0  0  0  0  0  0  0  0
   -1.1549    1.2855   -0.7341 H   0  0  0  0  0  0  0  0  0  0  0  0
   -1.6083   -1.1478   -2.5416 H   0  0  0  0  0  0  0  0  0  0  0  0
   -1.6387    0.6031   -2.9206 H   0  0  0  0  0  0  0  0  0  0  0  0
   -3.0298   -0.1704   -2.1352 H   0  0  0  0  0  0  0  0  0  0  0  0
    0.6487    0.9086    0.6069 H   0  0  0  0  0  0  0  0  0  0  0  0
    1.0483    1.1352   -1.1084 H   0  0  0  0  0  0  0  0  0  0  0  0
    2.1820   -1.4156   -0.5981 H   0  0  0  0  0  0  0  0  0  0  0  0
    4.3834   -0.3577   -0.0956 H   0  0  0  0  0  0  0  0  0  0  0  0
    3.6267    1.2585    0.3606 H   0  0  0  0  0  0  0  0  0  0  0  0
    3.0552   -1.4660    1.7408 H   0  0  0  0  0  0  0  0  0  0  0  0
    2.2122    0.1728    2.1053 H   0  0  0  0  0  0  0  0  0  0  0  0
  1  2  1  0
  2  3  1  0
  3  4  1  0
  3  5  1  0
  5  6  1  0
  6  7  1  0
  7  8  1  0
  8  9  1  0
  9  7  1  0
  1 10  1  0
  1 11  1  0
  1 12  1  0
  2 13  1  0
  2 14  1  0
  3 15  1  0
  4 16  1  0
  4 17  1  0
  4 18  1  0
  6 19  1  0
  6 20  1  0
  7 21  1  0
  8 22  1  0
  8 23  1  0
  9 24  1  0
  9 25  1  0
M  END
