
     RDKit          3D

 21 20  0  0  0  0  0  0  0  0999 V2000
   -2.2499    0.5105    0.4925 C   0  0  0  0  0  0  0  0  0  0  0  0
   -1.1580    1.0176   -0.3882 C   0  0  0  0  0  0  0  0  0  0  0  0
   -0.5041   -0.0642   -1.2079 C   0  0  0  0  0  0  0  0  0  0  0  0
   -1.4920   -0.6361   -2.0062 O   0  0  0  0  0  0  0  0  0  0  0  0
    0.0994   -1.1209   -0.3046 C   0  0  0  0  0  0  0  0  0  0  0  0
    1.1444   -0.5417    0.6101 C   0  0  0  0  0  0  0  0  0  0  0  0
    2.2125    0.0465   -0.0863 O   0  0  0  0  0  0  0  0  0  0  0  0
    3.2316    0.6111    0.6720 C   0  0  0  0  0  0  0  0  0  0  0  0
    3.1806    0.5859    1.9427 O   0  0  0  0  0  0  0  0  0  0  0  0
   -3.1786    1.1435    0.4332 H   0  0  0  0  0  0  0  0  0  0  0  0
   -1.9379    0.5896    1.5752 H   0  0  0  0  0  0  0  0  0  0  0  0
   -2.5073   -0.5411    0.3313 H   0  0  0  0  0  0  0  0  0  0  0  0
   -1.5425    1.7753   -1.1030 H   0  0  0  0  0  0  0  0  0  0  0  0
   -0.3728    1.5036    0.2244 H   0  0  0  0  0  0  0  0  0  0  0  0
    0.2679    0.3306   -1.8966 H   0  0  0  0  0  0  0  0  0  0  0  0
   -1.3748   -1.6125   -2.1007 H   0  0  0  0  0  0  0  0  0  0  0  0
   -0.7157   -1.5165    0.3452 H   0  0  0  0  0  0  0  0  0  0  0  0
    0.4960   -1.9693   -0.8720 H   0  0  0  0  0  0  0  0  0  0  0  0
    1.5792   -1.3876    1.2001 H   0  0  0  0  0  0  0  0  0  0  0  0
    0.7260    0.1883    1.3286 H   0  0  0  0  0  0  0  0  0  0  0  0
    4.0959    1.0873    0.2348 H   0  0  0  0  0  0  0  0  0  0  0  0
  1  2  1  0
  2  3  1  0
  3  4  1  0
  3  5  1  0
  5  6  1  0
  6  7  1  0
  7  8  1  0
  8  9  2  0
  1 10  1  0
  1 11  1  0
  1 12  1  0
  2 13  1  0
  2 14  1  0
  3 15  1  0
  4 16  1  0
  5 17  1  0
  5 18  1  0
  6 19  1  0
  6 20  1  0
  8 21  1  0
M  END
