
     RDKit          3D

 24 23  0  0  0  0  0  0  0  0999 V2000
    2.7335   -0.0910   -0.0028 C   0  0  0  0  0  0  0  0  0  0  0  0
    1.3906    0.1469   -0.6576 C   0  0  0  0  0  0  0  0  0  0  0  0
    0.3503    0.2152    0.4248 C   0  0  0  0  0  0  0  0  0  0  0  0
    0.3233   -1.0660    1.1886 C   0  0  0  0  0  0  0  0  0  0  0  0
   -0.9829    0.5387   -0.2244 C   0  0  0  0  0  0  0  0  0  0  0  0
   -2.0376    0.6059    0.8866 C   0  0  0  0  0  0  0  0  0  0  0  0
   -1.3522   -0.4499   -1.2898 C   0  0  0  0  0  0  0  0  0  0  0  0
   -0.9686    1.8091   -0.7979 O   0  0  0  0  0  0  0  0  0  0  0  0
    2.6643   -0.0021    1.0987 H   0  0  0  0  0  0  0  0  0  0  0  0
    3.0335   -1.1502   -0.2448 H   0  0  0  0  0  0  0  0  0  0  0  0
    3.4885    0.6091   -0.3959 H   0  0  0  0  0  0  0  0  0  0  0  0
    1.4556    1.0815   -1.2507 H   0  0  0  0  0  0  0  0  0  0  0  0
    1.1244   -0.6546   -1.3697 H   0  0  0  0  0  0  0  0  0  0  0  0
    0.5861    1.0319    1.1362 H   0  0  0  0  0  0  0  0  0  0  0  0
    1.0895   -1.0380    1.9937 H   0  0  0  0  0  0  0  0  0  0  0  0
   -0.6492   -1.2574    1.6995 H   0  0  0  0  0  0  0  0  0  0  0  0
    0.6069   -1.9067    0.5160 H   0  0  0  0  0  0  0  0  0  0  0  0
   -2.4980   -0.3719    1.0486 H   0  0  0  0  0  0  0  0  0  0  0  0
   -2.7694    1.4233    0.6853 H   0  0  0  0  0  0  0  0  0  0  0  0
   -1.5063    0.9140    1.8191 H   0  0  0  0  0  0  0  0  0  0  0  0
   -1.2210   -0.0610   -2.3208 H   0  0  0  0  0  0  0  0  0  0  0  0
   -0.7727   -1.3932   -1.2330 H   0  0  0  0  0  0  0  0  0  0  0  0
   -2.4260   -0.7394   -1.2035 H   0  0  0  0  0  0  0  0  0  0  0  0
   -1.6627    1.8061   -1.5062 H   0  0  0  0  0  0  0  0  0  0  0  0
  1  2  1  0
  2  3  1  0
  3  4  1  0
  3  5  1  0
  5  6  1  0
  5  7  1  0
  5  8  1  0
  1  9  1  0
  1 10  1  0
  1 11  1  0
  2 12  1  0
  2 13  1  0
  3 14  1  0
  4 15  1  0
  4 16  1  0
  4 17  1  0
  6 18  1  0
  6 19  1  0
  6 20  1  0
  7 21  1  0
  7 22  1  0
  7 23  1  0
  8 24  1  0
M  END
