
     RDKit          3D

 23 22  0  0  0  0  0  0  0  0999 V2000
   -1.2332    2.0454   -0.2388 C   0  0  0  0  0  0  0  0  0  0  0  0
   -1.2717    1.0590    0.8855 C   0  0  0  0  0  0  0  0  0  0  0  0
   -0.4264   -0.1454    0.4829 C   0  0  0  0  0  0  0  0  0  0  0  0
   -0.9210   -0.7215   -0.6519 O   0  0  0  0  0  0  0  0  0  0  0  0
   -1.3418   -2.0081   -0.3525 C   0  0  0  0  0  0  0  0  0  0  0  0
    0.9994    0.3070    0.3877 C   0  0  0  0  0  0  0  0  0  0  0  0
    1.2485    1.2389   -0.5761 O   0  0  0  0  0  0  0  0  0  0  0  0
    1.9169   -0.8920    0.1322 C   0  0  0  0  0  0  0  0  0  0  0  0
    3.2504   -0.5130    0.1856 O   0  0  0  0  0  0  0  0  0  0  0  0
   -2.1904    2.6193   -0.2184 H   0  0  0  0  0  0  0  0  0  0  0  0
   -0.4321    2.7906   -0.0821 H   0  0  0  0  0  0  0  0  0  0  0  0
   -1.0868    1.4959   -1.1764 H   0  0  0  0  0  0  0  0  0  0  0  0
   -2.3214    0.7423    1.0360 H   0  0  0  0  0  0  0  0  0  0  0  0
   -0.8255    1.4463    1.8228 H   0  0  0  0  0  0  0  0  0  0  0  0
   -0.4977   -0.8564    1.3168 H   0  0  0  0  0  0  0  0  0  0  0  0
   -0.4937   -2.6193    0.0291 H   0  0  0  0  0  0  0  0  0  0  0  0
   -2.1363   -2.0413    0.4208 H   0  0  0  0  0  0  0  0  0  0  0  0
   -1.7566   -2.4911   -1.2560 H   0  0  0  0  0  0  0  0  0  0  0  0
    1.2879    0.7200    1.3761 H   0  0  0  0  0  0  0  0  0  0  0  0
    1.2224    0.9179   -1.4985 H   0  0  0  0  0  0  0  0  0  0  0  0
    1.7322   -1.3425   -0.8577 H   0  0  0  0  0  0  0  0  0  0  0  0
    1.7142   -1.6637    0.9166 H   0  0  0  0  0  0  0  0  0  0  0  0
    3.5626   -0.0883   -0.6352 H   0  0  0  0  0  0  0  0  0  0  0  0
  1  2  1  0
  2  3  1  0
  3  4  1  0
  4  5  1  0
  3  6  1  0
  6  7  1  0
  6  8  1  0
  8  9  1  0
  1 10  1  0
  1 11  1  0
  1 12  1  0
  2 13  1  0
  2 14  1  0
  3 15  1  0
  5 16  1  0
  5 17  1  0
  5 18  1  0
  6 19  1  0
  7 20  1  0
  8 21  1  0
  8 22  1  0
  9 23  1  0
M  END
