
     RDKit          3D

 21 20  0  0  0  0  0  0  0  0999 V2000
    3.8545   -0.0031   -0.1597 C   0  0  0  0  0  0  0  0  0  0  0  0
    2.5320    0.5807    0.2878 C   0  0  0  0  0  0  0  0  0  0  0  0
    1.3887   -0.1521   -0.3083 C   0  0  0  0  0  0  0  0  0  0  0  0
    1.5196   -1.0991   -1.0593 O   0  0  0  0  0  0  0  0  0  0  0  0
    0.0040    0.2780    0.0167 C   0  0  0  0  0  0  0  0  0  0  0  0
   -0.9484   -0.5045   -0.6167 O   0  0  0  0  0  0  0  0  0  0  0  0
   -2.1997   -0.0251   -0.2508 C   0  0  0  0  0  0  0  0  0  0  0  0
   -3.3125   -0.8385   -0.9108 C   0  0  0  0  0  0  0  0  0  0  0  0
   -4.5557   -0.3614   -0.5466 O   0  0  0  0  0  0  0  0  0  0  0  0
    4.3718   -0.5431    0.6662 H   0  0  0  0  0  0  0  0  0  0  0  0
    4.4883    0.8303   -0.5294 H   0  0  0  0  0  0  0  0  0  0  0  0
    3.6315   -0.7360   -0.9846 H   0  0  0  0  0  0  0  0  0  0  0  0
    2.4837    1.6671    0.0741 H   0  0  0  0  0  0  0  0  0  0  0  0
    2.5233    0.5089    1.4141 H   0  0  0  0  0  0  0  0  0  0  0  0
   -0.1636    0.1447    1.1211 H   0  0  0  0  0  0  0  0  0  0  0  0
   -0.1674    1.3435   -0.2789 H   0  0  0  0  0  0  0  0  0  0  0  0
   -2.3509    1.0389   -0.5266 H   0  0  0  0  0  0  0  0  0  0  0  0
   -2.3257   -0.1106    0.8614 H   0  0  0  0  0  0  0  0  0  0  0  0
   -3.1448   -1.8991   -0.6666 H   0  0  0  0  0  0  0  0  0  0  0  0
   -3.2044   -0.6460   -2.0138 H   0  0  0  0  0  0  0  0  0  0  0  0
   -4.4243    0.5265   -0.1401 H   0  0  0  0  0  0  0  0  0  0  0  0
  1  2  1  0
  2  3  1  0
  3  4  2  0
  3  5  1  0
  5  6  1  0
  6  7  1  0
  7  8  1  0
  8  9  1  0
  1 10  1  0
  1 11  1  0
  1 12  1  0
  2 13  1  0
  2 14  1  0
  5 15  1  0
  5 16  1  0
  7 17  1  0
  7 18  1  0
  8 19  1  0
  8 20  1  0
  9 21  1  0
M  END
