
     RDKit          3D

 18 18  0  0  0  0  0  0  0  0999 V2000
    2.7215    0.1959   -0.2212 C   0  0  0  0  0  0  0  0  0  0  0  0
    1.5163   -0.2693    0.5868 C   0  0  0  0  0  0  0  0  0  0  0  0
    0.3167   -0.4941   -0.2512 C   0  0  0  0  0  0  0  0  0  0  0  0
    0.4520   -1.1564   -1.2582 O   0  0  0  0  0  0  0  0  0  0  0  0
   -1.0165    0.0511    0.0857 C   0  0  0  0  0  0  0  0  0  0  0  0
   -1.0132    0.8443    1.2645 O   0  0  0  0  0  0  0  0  0  0  0  0
   -2.0052    0.3921   -0.9460 C   0  0  0  0  0  0  0  0  0  0  0  0
   -2.2615   -0.7482   -0.0510 C   0  0  0  0  0  0  0  0  0  0  0  0
    2.7946   -0.2744   -1.2052 H   0  0  0  0  0  0  0  0  0  0  0  0
    2.6880    1.3203   -0.3129 H   0  0  0  0  0  0  0  0  0  0  0  0
    3.6042    0.0050    0.4265 H   0  0  0  0  0  0  0  0  0  0  0  0
    1.3274    0.5007    1.3552 H   0  0  0  0  0  0  0  0  0  0  0  0
    1.8033   -1.2263    1.1269 H   0  0  0  0  0  0  0  0  0  0  0  0
   -1.1858    1.7804    0.9829 H   0  0  0  0  0  0  0  0  0  0  0  0
   -2.5492    1.3646   -0.8139 H   0  0  0  0  0  0  0  0  0  0  0  0
   -1.8911    0.1205   -2.0112 H   0  0  0  0  0  0  0  0  0  0  0  0
   -2.2108   -1.7885   -0.4504 H   0  0  0  0  0  0  0  0  0  0  0  0
   -3.0906   -0.6177    0.6829 H   0  0  0  0  0  0  0  0  0  0  0  0
  1  2  1  0
  2  3  1  0
  3  4  2  0
  3  5  1  0
  5  6  1  0
  5  7  1  0
  7  8  1  0
  8  5  1  0
  1  9  1  0
  1 10  1  0
  1 11  1  0
  2 12  1  0
  2 13  1  0
  6 14  1  0
  7 15  1  0
  7 16  1  0
  8 17  1  0
  8 18  1  0
M  END
