
     RDKit          3D

 27 26  0  0  0  0  0  0  0  0999 V2000
   -2.0561   -0.9499   -0.2219 C   0  0  0  0  0  0  0  0  0  0  0  0
   -1.2871   -0.1371    0.7773 C   0  0  0  0  0  0  0  0  0  0  0  0
    0.0169    0.3838    0.1594 C   0  0  0  0  0  0  0  0  0  0  0  0
    0.7179    1.1784    1.2150 C   0  0  0  0  0  0  0  0  0  0  0  0
   -0.2840    1.0759   -0.9816 O   0  0  0  0  0  0  0  0  0  0  0  0
   -1.1044    2.1614   -0.8212 C   0  0  0  0  0  0  0  0  0  0  0  0
    0.8047   -0.8568   -0.2325 C   0  0  0  0  0  0  0  0  0  0  0  0
    1.1116   -1.7412    0.9319 C   0  0  0  0  0  0  0  0  0  0  0  0
    2.0909   -0.4873   -0.9517 C   0  0  0  0  0  0  0  0  0  0  0  0
   -1.7418   -2.0306   -0.1549 H   0  0  0  0  0  0  0  0  0  0  0  0
   -3.1230   -0.8158   -0.0347 H   0  0  0  0  0  0  0  0  0  0  0  0
   -1.8262   -0.6514   -1.2845 H   0  0  0  0  0  0  0  0  0  0  0  0
   -1.0406   -0.7708    1.6743 H   0  0  0  0  0  0  0  0  0  0  0  0
   -1.9227    0.6886    1.1417 H   0  0  0  0  0  0  0  0  0  0  0  0
    1.7510    1.4612    0.9107 H   0  0  0  0  0  0  0  0  0  0  0  0
    0.7096    0.5761    2.1595 H   0  0  0  0  0  0  0  0  0  0  0  0
    0.0937    2.0690    1.4342 H   0  0  0  0  0  0  0  0  0  0  0  0
   -1.2460    2.6070   -1.8496 H   0  0  0  0  0  0  0  0  0  0  0  0
   -0.6738    2.9840   -0.2177 H   0  0  0  0  0  0  0  0  0  0  0  0
   -2.1164    1.9375   -0.4586 H   0  0  0  0  0  0  0  0  0  0  0  0
    0.1990   -1.4444   -0.9527 H   0  0  0  0  0  0  0  0  0  0  0  0
    1.5538   -1.2437    1.7950 H   0  0  0  0  0  0  0  0  0  0  0  0
    1.8625   -2.4935    0.5789 H   0  0  0  0  0  0  0  0  0  0  0  0
    0.2043   -2.3256    1.2350 H   0  0  0  0  0  0  0  0  0  0  0  0
    1.9527    0.4050   -1.6119 H   0  0  0  0  0  0  0  0  0  0  0  0
    2.9077   -0.2307   -0.2390 H   0  0  0  0  0  0  0  0  0  0  0  0
    2.4460   -1.3490   -1.5490 H   0  0  0  0  0  0  0  0  0  0  0  0
  1  2  1  0
  2  3  1  0
  3  4  1  0
  3  5  1  0
  5  6  1  0
  3  7  1  0
  7  8  1  0
  7  9  1  0
  1 10  1  0
  1 11  1  0
  1 12  1  0
  2 13  1  0
  2 14  1  0
  4 15  1  0
  4 16  1  0
  4 17  1  0
  6 18  1  0
  6 19  1  0
  6 20  1  0
  7 21  1  0
  8 22  1  0
  8 23  1  0
  8 24  1  0
  9 25  1  0
  9 26  1  0
  9 27  1  0
M  END
