
     RDKit          3D

 25 24  0  0  0  0  0  0  0  0999 V2000
   -2.3802   -0.8929    0.1587 C   0  0  0  0  0  0  0  0  0  0  0  0
   -0.8964   -1.1607    0.3072 C   0  0  0  0  0  0  0  0  0  0  0  0
   -0.1078    0.1343    0.0606 C   0  0  0  0  0  0  0  0  0  0  0  0
   -0.4333    0.5832   -1.3552 C   0  0  0  0  0  0  0  0  0  0  0  0
   -0.5538    1.0125    1.0111 O   0  0  0  0  0  0  0  0  0  0  0  0
   -0.0251    2.2606    1.0317 C   0  0  0  0  0  0  0  0  0  0  0  0
    1.3483   -0.1130    0.2171 C   0  0  0  0  0  0  0  0  0  0  0  0
    1.9505   -0.9963   -0.8392 C   0  0  0  0  0  0  0  0  0  0  0  0
    1.5459   -0.6518    1.5078 O   0  0  0  0  0  0  0  0  0  0  0  0
   -2.9576   -1.4977    0.9036 H   0  0  0  0  0  0  0  0  0  0  0  0
   -2.5466    0.1646    0.4272 H   0  0  0  0  0  0  0  0  0  0  0  0
   -2.7653   -1.1512   -0.8410 H   0  0  0  0  0  0  0  0  0  0  0  0
   -0.7437   -1.4515    1.3872 H   0  0  0  0  0  0  0  0  0  0  0  0
   -0.5604   -1.9766   -0.3226 H   0  0  0  0  0  0  0  0  0  0  0  0
    0.3631    1.2295   -1.7803 H   0  0  0  0  0  0  0  0  0  0  0  0
   -0.4929   -0.3110   -2.0158 H   0  0  0  0  0  0  0  0  0  0  0  0
   -1.3787    1.1217   -1.4180 H   0  0  0  0  0  0  0  0  0  0  0  0
   -0.5358    2.8039    1.8826 H   0  0  0  0  0  0  0  0  0  0  0  0
    1.0397    2.3664    1.2118 H   0  0  0  0  0  0  0  0  0  0  0  0
   -0.3053    2.8183    0.1166 H   0  0  0  0  0  0  0  0  0  0  0  0
    1.8990    0.8457    0.1835 H   0  0  0  0  0  0  0  0  0  0  0  0
    2.6729   -1.6722   -0.3253 H   0  0  0  0  0  0  0  0  0  0  0  0
    2.5606   -0.4152   -1.5721 H   0  0  0  0  0  0  0  0  0  0  0  0
    1.2246   -1.5831   -1.4038 H   0  0  0  0  0  0  0  0  0  0  0  0
    2.0783   -1.4676    1.4665 H   0  0  0  0  0  0  0  0  0  0  0  0
  1  2  1  0
  2  3  1  0
  3  4  1  0
  3  5  1  0
  5  6  1  0
  3  7  1  0
  7  8  1  0
  7  9  1  0
  1 10  1  0
  1 11  1  0
  1 12  1  0
  2 13  1  0
  2 14  1  0
  4 15  1  0
  4 16  1  0
  4 17  1  0
  6 18  1  0
  6 19  1  0
  6 20  1  0
  7 21  1  0
  8 22  1  0
  8 23  1  0
  8 24  1  0
  9 25  1  0
M  END
