
     RDKit          3D

 23 22  0  0  0  0  0  0  0  0999 V2000
   -2.0546    0.0291   -1.2883 C   0  0  0  0  0  0  0  0  0  0  0  0
   -2.1139    0.2730    0.1810 C   0  0  0  0  0  0  0  0  0  0  0  0
   -0.7533    0.2929    0.7858 C   0  0  0  0  0  0  0  0  0  0  0  0
   -0.9817    0.5423    2.3146 C   0  0  0  0  0  0  0  0  0  0  0  0
   -0.0667   -0.8349    0.5844 O   0  0  0  0  0  0  0  0  0  0  0  0
    1.2313   -0.8852    0.2825 C   0  0  0  0  0  0  0  0  0  0  0  0
    1.6763   -0.1723   -0.9207 C   0  0  0  0  0  0  0  0  0  0  0  0
    3.1337   -0.2262   -1.3547 C   0  0  0  0  0  0  0  0  0  0  0  0
    0.9928    0.4957   -1.6609 O   0  0  0  0  0  0  0  0  0  0  0  0
   -1.4112   -0.8028   -1.5844 H   0  0  0  0  0  0  0  0  0  0  0  0
   -1.7008    0.9327   -1.8586 H   0  0  0  0  0  0  0  0  0  0  0  0
   -3.0674   -0.1680   -1.7242 H   0  0  0  0  0  0  0  0  0  0  0  0
   -2.6893    1.2039    0.4254 H   0  0  0  0  0  0  0  0  0  0  0  0
   -2.6379   -0.6203    0.6193 H   0  0  0  0  0  0  0  0  0  0  0  0
   -0.2076    1.2089    0.5099 H   0  0  0  0  0  0  0  0  0  0  0  0
   -0.0096    0.7862    2.7741 H   0  0  0  0  0  0  0  0  0  0  0  0
   -1.5512   -0.2564    2.7675 H   0  0  0  0  0  0  0  0  0  0  0  0
   -1.5963    1.4628    2.3372 H   0  0  0  0  0  0  0  0  0  0  0  0
    1.4715   -1.9842    0.0600 H   0  0  0  0  0  0  0  0  0  0  0  0
    1.9190   -0.6905    1.1563 H   0  0  0  0  0  0  0  0  0  0  0  0
    3.2067   -0.4061   -2.4398 H   0  0  0  0  0  0  0  0  0  0  0  0
    3.5225    0.7981   -1.1740 H   0  0  0  0  0  0  0  0  0  0  0  0
    3.6878   -0.9785   -0.7923 H   0  0  0  0  0  0  0  0  0  0  0  0
  1  2  1  0
  2  3  1  0
  3  4  1  0
  3  5  1  0
  5  6  1  0
  6  7  1  0
  7  8  1  0
  7  9  2  0
  1 10  1  0
  1 11  1  0
  1 12  1  0
  2 13  1  0
  2 14  1  0
  3 15  1  0
  4 16  1  0
  4 17  1  0
  4 18  1  0
  6 19  1  0
  6 20  1  0
  8 21  1  0
  8 22  1  0
  8 23  1  0
M  END
