
     RDKit          3D

 16 15  0  0  0  0  0  0  0  0999 V2000
   -1.6463   -0.7972    0.3757 C   0  0  0  0  0  0  0  0  0  0  0  0
   -0.8613   -0.3512   -0.8359 C   0  0  0  0  0  0  0  0  0  0  0  0
    0.1553    0.6676   -0.3591 C   0  0  0  0  0  0  0  0  0  0  0  0
    0.9362    1.1483   -1.3928 O   0  0  0  0  0  0  0  0  0  0  0  0
    1.0720   -0.0769    0.6182 C   0  0  0  0  0  0  0  0  0  0  0  0
    2.0496    0.7564    1.1353 O   0  0  0  0  0  0  0  0  0  0  0  0
   -1.5974   -0.0354    1.1531 H   0  0  0  0  0  0  0  0  0  0  0  0
   -1.2298   -1.7431    0.8094 H   0  0  0  0  0  0  0  0  0  0  0  0
   -2.7074   -0.9084    0.0750 H   0  0  0  0  0  0  0  0  0  0  0  0
   -0.3564   -1.2306   -1.2848 H   0  0  0  0  0  0  0  0  0  0  0  0
   -1.5347    0.0537   -1.6183 H   0  0  0  0  0  0  0  0  0  0  0  0
   -0.3063    1.5138    0.1571 H   0  0  0  0  0  0  0  0  0  0  0  0
    1.1834    2.0960   -1.2204 H   0  0  0  0  0  0  0  0  0  0  0  0
    1.5048   -0.9170    0.0180 H   0  0  0  0  0  0  0  0  0  0  0  0
    0.4030   -0.4898    1.4135 H   0  0  0  0  0  0  0  0  0  0  0  0
    2.9354    0.3138    0.9558 H   0  0  0  0  0  0  0  0  0  0  0  0
  1  2  1  0
  2  3  1  0
  3  4  1  0
  3  5  1  0
  5  6  1  0
  1  7  1  0
  1  8  1  0
  1  9  1  0
  2 10  1  0
  2 11  1  0
  3 12  1  0
  4 13  1  0
  5 14  1  0
  5 15  1  0
  6 16  1  0
M  END
