
     RDKit          3D

 21 20  0  0  0  0  0  0  0  0999 V2000
   -3.9173   -0.1933   -0.2994 C   0  0  0  0  0  0  0  0  0  0  0  0
   -2.6549    0.2745    0.3801 C   0  0  0  0  0  0  0  0  0  0  0  0
   -1.4967   -0.3541   -0.2547 C   0  0  0  0  0  0  0  0  0  0  0  0
   -1.6709   -1.1440   -1.2110 O   0  0  0  0  0  0  0  0  0  0  0  0
   -0.1786   -0.1348    0.1344 O   0  0  0  0  0  0  0  0  0  0  0  0
    0.8868   -0.8048   -0.5586 C   0  0  0  0  0  0  0  0  0  0  0  0
    2.2216   -0.4266    0.0213 C   0  0  0  0  0  0  0  0  0  0  0  0
    2.4098    0.9657   -0.0956 O   0  0  0  0  0  0  0  0  0  0  0  0
    3.6540    1.2817    0.4503 C   0  0  0  0  0  0  0  0  0  0  0  0
   -4.1272   -1.2339   -0.0206 H   0  0  0  0  0  0  0  0  0  0  0  0
   -4.7973    0.4159    0.0548 H   0  0  0  0  0  0  0  0  0  0  0  0
   -3.8847   -0.0766   -1.3975 H   0  0  0  0  0  0  0  0  0  0  0  0
   -2.7074   -0.0945    1.4353 H   0  0  0  0  0  0  0  0  0  0  0  0
   -2.5821    1.3804    0.4394 H   0  0  0  0  0  0  0  0  0  0  0  0
    0.8448   -0.4809   -1.6169 H   0  0  0  0  0  0  0  0  0  0  0  0
    0.7689   -1.9045   -0.5059 H   0  0  0  0  0  0  0  0  0  0  0  0
    2.9969   -0.9275   -0.5862 H   0  0  0  0  0  0  0  0  0  0  0  0
    2.3073   -0.6541    1.0904 H   0  0  0  0  0  0  0  0  0  0  0  0
    3.7142    0.9917    1.5306 H   0  0  0  0  0  0  0  0  0  0  0  0
    3.8000    2.3858    0.3861 H   0  0  0  0  0  0  0  0  0  0  0  0
    4.4130    0.7340   -0.1354 H   0  0  0  0  0  0  0  0  0  0  0  0
  1  2  1  0
  2  3  1  0
  3  4  2  0
  3  5  1  0
  5  6  1  0
  6  7  1  0
  7  8  1  0
  8  9  1  0
  1 10  1  0
  1 11  1  0
  1 12  1  0
  2 13  1  0
  2 14  1  0
  6 15  1  0
  6 16  1  0
  7 17  1  0
  7 18  1  0
  9 19  1  0
  9 20  1  0
  9 21  1  0
M  END
