
     RDKit          3D

 23 22  0  0  0  0  0  0  0  0999 V2000
    2.8269    0.6020    0.3972 C   0  0  0  0  0  0  0  0  0  0  0  0
    1.8014   -0.3844   -0.1244 C   0  0  0  0  0  0  0  0  0  0  0  0
    0.4617    0.3266   -0.1516 C   0  0  0  0  0  0  0  0  0  0  0  0
    0.1009    0.7500    1.1049 O   0  0  0  0  0  0  0  0  0  0  0  0
   -0.5973   -0.5088   -0.8348 C   0  0  0  0  0  0  0  0  0  0  0  0
   -0.8249   -1.8322   -0.1530 C   0  0  0  0  0  0  0  0  0  0  0  0
   -1.8309    0.3163   -0.9051 C   0  0  0  0  0  0  0  0  0  0  0  0
   -2.5157    0.8457    0.3020 C   0  0  0  0  0  0  0  0  0  0  0  0
   -2.2940    0.5649   -2.0011 O   0  0  0  0  0  0  0  0  0  0  0  0
    2.3489    1.5178    0.7869 H   0  0  0  0  0  0  0  0  0  0  0  0
    3.4953    0.1431    1.1649 H   0  0  0  0  0  0  0  0  0  0  0  0
    3.4966    0.9493   -0.4394 H   0  0  0  0  0  0  0  0  0  0  0  0
    2.0490   -0.6516   -1.1768 H   0  0  0  0  0  0  0  0  0  0  0  0
    1.7669   -1.3168    0.4645 H   0  0  0  0  0  0  0  0  0  0  0  0
    0.6003    1.2277   -0.7888 H   0  0  0  0  0  0  0  0  0  0  0  0
    0.2129    1.7270    1.2125 H   0  0  0  0  0  0  0  0  0  0  0  0
   -0.2150   -0.7322   -1.8511 H   0  0  0  0  0  0  0  0  0  0  0  0
   -0.5323   -1.8515    0.9000 H   0  0  0  0  0  0  0  0  0  0  0  0
   -1.9089   -2.0630   -0.2363 H   0  0  0  0  0  0  0  0  0  0  0  0
   -0.3119   -2.6780   -0.6978 H   0  0  0  0  0  0  0  0  0  0  0  0
   -2.3088    1.9334    0.3876 H   0  0  0  0  0  0  0  0  0  0  0  0
   -2.2006    0.3603    1.2328 H   0  0  0  0  0  0  0  0  0  0  0  0
   -3.6205    0.7544    0.2189 H   0  0  0  0  0  0  0  0  0  0  0  0
  1  2  1  0
  2  3  1  0
  3  4  1  0
  3  5  1  0
  5  6  1  0
  5  7  1  0
  7  8  1  0
  7  9  2  0
  1 10  1  0
  1 11  1  0
  1 12  1  0
  2 13  1  0
  2 14  1  0
  3 15  1  0
  4 16  1  0
  5 17  1  0
  6 18  1  0
  6 19  1  0
  6 20  1  0
  8 21  1  0
  8 22  1  0
  8 23  1  0
M  END
