
     RDKit          3D

 23 23  0  0  0  0  0  0  0  0999 V2000
    2.5515   -0.4173    0.2081 C   0  0  0  0  0  0  0  0  0  0  0  0
    1.0992   -0.7921    0.0536 C   0  0  0  0  0  0  0  0  0  0  0  0
    0.1637    0.3478    0.2936 C   0  0  0  0  0  0  0  0  0  0  0  0
    0.3435    1.5083   -0.6144 C   0  0  0  0  0  0  0  0  0  0  0  0
   -0.5887    2.4841   -0.2753 O   0  0  0  0  0  0  0  0  0  0  0  0
   -1.2514   -0.1732    0.1560 C   0  0  0  0  0  0  0  0  0  0  0  0
   -1.5631   -1.2880    1.1600 C   0  0  0  0  0  0  0  0  0  0  0  0
   -1.8554   -0.2720   -1.1612 C   0  0  0  0  0  0  0  0  0  0  0  0
   -2.2671    0.7158   -0.1632 O   0  0  0  0  0  0  0  0  0  0  0  0
    3.1421   -1.3027   -0.1575 H   0  0  0  0  0  0  0  0  0  0  0  0
    2.8621    0.4342   -0.4008 H   0  0  0  0  0  0  0  0  0  0  0  0
    2.8408   -0.3188    1.2851 H   0  0  0  0  0  0  0  0  0  0  0  0
    0.9423   -1.2210   -0.9503 H   0  0  0  0  0  0  0  0  0  0  0  0
    0.8825   -1.5784    0.8035 H   0  0  0  0  0  0  0  0  0  0  0  0
    0.3089    0.6950    1.3387 H   0  0  0  0  0  0  0  0  0  0  0  0
    0.2395    1.2919   -1.6772 H   0  0  0  0  0  0  0  0  0  0  0  0
    1.3577    1.9294   -0.4540 H   0  0  0  0  0  0  0  0  0  0  0  0
   -0.2271    3.3950   -0.2867 H   0  0  0  0  0  0  0  0  0  0  0  0
   -2.6576   -1.4536    1.2229 H   0  0  0  0  0  0  0  0  0  0  0  0
   -1.0544   -2.2317    0.8827 H   0  0  0  0  0  0  0  0  0  0  0  0
   -1.1813   -0.9027    2.1433 H   0  0  0  0  0  0  0  0  0  0  0  0
   -2.6724   -1.0153   -1.3354 H   0  0  0  0  0  0  0  0  0  0  0  0
   -1.4154    0.1652   -2.0717 H   0  0  0  0  0  0  0  0  0  0  0  0
  1  2  1  0
  2  3  1  0
  3  4  1  0
  4  5  1  0
  3  6  1  0
  6  7  1  0
  6  8  1  0
  8  9  1  0
  9  6  1  0
  1 10  1  0
  1 11  1  0
  1 12  1  0
  2 13  1  0
  2 14  1  0
  3 15  1  0
  4 16  1  0
  4 17  1  0
  5 18  1  0
  7 19  1  0
  7 20  1  0
  7 21  1  0
  8 22  1  0
  8 23  1  0
M  END
