
     RDKit          3D

 22 21  0  0  0  0  0  0  0  0999 V2000
    2.1305    0.9918   -1.1796 C   0  0  0  0  0  0  0  0  0  0  0  0
    0.9089    0.1853   -1.5668 C   0  0  0  0  0  0  0  0  0  0  0  0
    0.0873   -0.1243   -0.3383 C   0  0  0  0  0  0  0  0  0  0  0  0
   -1.1391   -0.9297   -0.6986 C   0  0  0  0  0  0  0  0  0  0  0  0
   -1.9770   -1.2463    0.5204 C   0  0  0  0  0  0  0  0  0  0  0  0
   -2.4163   -0.0807    1.1430 O   0  0  0  0  0  0  0  0  0  0  0  0
   -0.1786    0.9792    0.4293 O   0  0  0  0  0  0  0  0  0  0  0  0
    0.4401    0.9644    1.6681 C   0  0  0  0  0  0  0  0  0  0  0  0
    2.6817    0.3710   -0.4259 H   0  0  0  0  0  0  0  0  0  0  0  0
    1.7665    1.8887   -0.6174 H   0  0  0  0  0  0  0  0  0  0  0  0
    2.7579    1.2387   -2.0297 H   0  0  0  0  0  0  0  0  0  0  0  0
    1.3019   -0.7950   -1.9564 H   0  0  0  0  0  0  0  0  0  0  0  0
    0.3424    0.6361   -2.3793 H   0  0  0  0  0  0  0  0  0  0  0  0
    0.7623   -0.7840    0.2859 H   0  0  0  0  0  0  0  0  0  0  0  0
   -1.7720   -0.4418   -1.4401 H   0  0  0  0  0  0  0  0  0  0  0  0
   -0.7668   -1.9046   -1.1081 H   0  0  0  0  0  0  0  0  0  0  0  0
   -2.7731   -1.9515    0.2992 H   0  0  0  0  0  0  0  0  0  0  0  0
   -1.2840   -1.7656    1.2362 H   0  0  0  0  0  0  0  0  0  0  0  0
   -2.6373   -0.2315    2.0967 H   0  0  0  0  0  0  0  0  0  0  0  0
    0.1518    1.8965    2.1954 H   0  0  0  0  0  0  0  0  0  0  0  0
    1.5439    0.9884    1.5961 H   0  0  0  0  0  0  0  0  0  0  0  0
    0.0690    0.1149    2.2700 H   0  0  0  0  0  0  0  0  0  0  0  0
  1  2  1  0
  2  3  1  0
  3  4  1  0
  4  5  1  0
  5  6  1  0
  3  7  1  0
  7  8  1  0
  1  9  1  0
  1 10  1  0
  1 11  1  0
  2 12  1  0
  2 13  1  0
  3 14  1  0
  4 15  1  0
  4 16  1  0
  5 17  1  0
  5 18  1  0
  6 19  1  0
  8 20  1  0
  8 21  1  0
  8 22  1  0
M  END
