
     RDKit          3D

 19 19  0  0  0  0  0  0  0  0999 V2000
    2.7160    0.1176   -0.6148 C   0  0  0  0  0  0  0  0  0  0  0  0
    1.2191    0.2324   -0.8055 C   0  0  0  0  0  0  0  0  0  0  0  0
    0.5198   -0.3104    0.3611 C   0  0  0  0  0  0  0  0  0  0  0  0
    1.1708   -0.7591    1.2899 O   0  0  0  0  0  0  0  0  0  0  0  0
   -0.9564   -0.3648    0.5181 C   0  0  0  0  0  0  0  0  0  0  0  0
   -1.8091    0.1870   -0.6217 C   0  0  0  0  0  0  0  0  0  0  0  0
   -1.3640    1.4878   -0.8343 O   0  0  0  0  0  0  0  0  0  0  0  0
   -1.6072   -0.6094    1.7708 C   0  0  0  0  0  0  0  0  0  0  0  0
   -1.3236   -1.7631    0.8616 O   0  0  0  0  0  0  0  0  0  0  0  0
    3.0085   -0.9143   -0.3395 H   0  0  0  0  0  0  0  0  0  0  0  0
    3.2754    0.3740   -1.5384 H   0  0  0  0  0  0  0  0  0  0  0  0
    3.0594    0.8530    0.1700 H   0  0  0  0  0  0  0  0  0  0  0  0
    0.9827   -0.3819   -1.7166 H   0  0  0  0  0  0  0  0  0  0  0  0
    0.9500    1.2746   -1.0493 H   0  0  0  0  0  0  0  0  0  0  0  0
   -1.5649   -0.3915   -1.5318 H   0  0  0  0  0  0  0  0  0  0  0  0
   -2.8628    0.1115   -0.3540 H   0  0  0  0  0  0  0  0  0  0  0  0
   -1.7424    2.0587   -0.1017 H   0  0  0  0  0  0  0  0  0  0  0  0
   -0.9815   -0.6626    2.6926 H   0  0  0  0  0  0  0  0  0  0  0  0
   -2.6899   -0.5396    1.8434 H   0  0  0  0  0  0  0  0  0  0  0  0
  1  2  1  0
  2  3  1  0
  3  4  2  0
  3  5  1  0
  5  6  1  0
  6  7  1  0
  5  8  1  0
  8  9  1  0
  9  5  1  0
  1 10  1  0
  1 11  1  0
  1 12  1  0
  2 13  1  0
  2 14  1  0
  6 15  1  0
  6 16  1  0
  7 17  1  0
  8 18  1  0
  8 19  1  0
M  END
