
     RDKit          3D

 23 22  0  0  0  0  0  0  0  0999 V2000
   -2.6278   -0.6207    1.1950 C   0  0  0  0  0  0  0  0  0  0  0  0
   -1.3368    0.1673    1.1073 C   0  0  0  0  0  0  0  0  0  0  0  0
   -0.7149   -0.1732   -0.2321 C   0  0  0  0  0  0  0  0  0  0  0  0
   -1.6831    0.2269   -1.3033 C   0  0  0  0  0  0  0  0  0  0  0  0
    0.5415    0.3890   -0.4079 O   0  0  0  0  0  0  0  0  0  0  0  0
    1.5438   -0.5501   -0.5018 C   0  0  0  0  0  0  0  0  0  0  0  0
    2.8582    0.2203   -0.6907 C   0  0  0  0  0  0  0  0  0  0  0  0
    3.0328    1.0939    0.4918 C   0  0  0  0  0  0  0  0  0  0  0  0
    2.4981    2.1832    0.6300 O   0  0  0  0  0  0  0  0  0  0  0  0
   -3.3744   -0.0645    1.8018 H   0  0  0  0  0  0  0  0  0  0  0  0
   -2.3665   -1.5796    1.7241 H   0  0  0  0  0  0  0  0  0  0  0  0
   -2.9774   -0.9041    0.1984 H   0  0  0  0  0  0  0  0  0  0  0  0
   -1.5571    1.2720    1.1090 H   0  0  0  0  0  0  0  0  0  0  0  0
   -0.6798   -0.0715    1.9611 H   0  0  0  0  0  0  0  0  0  0  0  0
   -0.5716   -1.2941   -0.2127 H   0  0  0  0  0  0  0  0  0  0  0  0
   -2.2163   -0.6487   -1.6809 H   0  0  0  0  0  0  0  0  0  0  0  0
   -1.1213    0.6839   -2.1507 H   0  0  0  0  0  0  0  0  0  0  0  0
   -2.4178    0.9803   -0.9618 H   0  0  0  0  0  0  0  0  0  0  0  0
    1.6034   -1.2176    0.3638 H   0  0  0  0  0  0  0  0  0  0  0  0
    1.3908   -1.2069   -1.3964 H   0  0  0  0  0  0  0  0  0  0  0  0
    3.7001   -0.4852   -0.7320 H   0  0  0  0  0  0  0  0  0  0  0  0
    2.7944    0.8428   -1.6187 H   0  0  0  0  0  0  0  0  0  0  0  0
    3.6816    0.7565    1.3065 H   0  0  0  0  0  0  0  0  0  0  0  0
  1  2  1  0
  2  3  1  0
  3  4  1  0
  3  5  1  0
  5  6  1  0
  6  7  1  0
  7  8  1  0
  8  9  2  0
  1 10  1  0
  1 11  1  0
  1 12  1  0
  2 13  1  0
  2 14  1  0
  3 15  1  0
  4 16  1  0
  4 17  1  0
  4 18  1  0
  6 19  1  0
  6 20  1  0
  7 21  1  0
  7 22  1  0
  8 23  1  0
M  END
