
     RDKit          3D

 21 21  0  0  0  0  0  0  0  0999 V2000
   -3.4044   -0.0156   -0.1275 C   0  0  0  0  0  0  0  0  0  0  0  0
   -2.0231   -0.5887   -0.1657 C   0  0  0  0  0  0  0  0  0  0  0  0
   -1.0380    0.5030   -0.1666 C   0  0  0  0  0  0  0  0  0  0  0  0
   -1.4440    1.6880   -0.1376 O   0  0  0  0  0  0  0  0  0  0  0  0
    0.3956    0.2156   -0.2009 C   0  0  0  0  0  0  0  0  0  0  0  0
    0.9303   -0.9906   -0.2329 C   0  0  0  0  0  0  0  0  0  0  0  0
    2.4220   -0.9050   -0.2618 C   0  0  0  0  0  0  0  0  0  0  0  0
    2.6313    0.4626    0.3877 C   0  0  0  0  0  0  0  0  0  0  0  0
    1.4743    1.2379   -0.2051 C   0  0  0  0  0  0  0  0  0  0  0  0
   -3.7761    0.0910   -1.1644 H   0  0  0  0  0  0  0  0  0  0  0  0
   -3.3590    0.9924    0.3310 H   0  0  0  0  0  0  0  0  0  0  0  0
   -4.1057   -0.6316    0.4939 H   0  0  0  0  0  0  0  0  0  0  0  0
   -1.8643   -1.1599    0.7957 H   0  0  0  0  0  0  0  0  0  0  0  0
   -1.8700   -1.3133   -0.9915 H   0  0  0  0  0  0  0  0  0  0  0  0
    0.4341   -1.9687   -0.2399 H   0  0  0  0  0  0  0  0  0  0  0  0
    2.9031   -1.7083    0.2941 H   0  0  0  0  0  0  0  0  0  0  0  0
    2.7851   -0.8262   -1.3142 H   0  0  0  0  0  0  0  0  0  0  0  0
    3.6116    0.8994    0.1226 H   0  0  0  0  0  0  0  0  0  0  0  0
    2.4579    0.4030    1.4786 H   0  0  0  0  0  0  0  0  0  0  0  0
    1.6426    1.5289   -1.2536 H   0  0  0  0  0  0  0  0  0  0  0  0
    1.1969    2.0862    0.4473 H   0  0  0  0  0  0  0  0  0  0  0  0
  1  2  1  0
  2  3  1  0
  3  4  2  0
  3  5  1  0
  5  6  2  0
  6  7  1  0
  7  8  1  0
  8  9  1  0
  9  5  1  0
  1 10  1  0
  1 11  1  0
  1 12  1  0
  2 13  1  0
  2 14  1  0
  6 15  1  0
  7 16  1  0
  7 17  1  0
  8 18  1  0
  8 19  1  0
  9 20  1  0
  9 21  1  0
M  END
