
     RDKit          3D

 25 24  0  0  0  0  0  0  0  0999 V2000
    2.7189    1.2414   -0.0499 C   0  0  0  0  0  0  0  0  0  0  0  0
    1.4379    0.6567    0.5048 C   0  0  0  0  0  0  0  0  0  0  0  0
    0.5551    0.1074   -0.5804 C   0  0  0  0  0  0  0  0  0  0  0  0
    1.2205   -0.8986   -1.2713 O   0  0  0  0  0  0  0  0  0  0  0  0
   -0.7361   -0.4402   -0.0677 C   0  0  0  0  0  0  0  0  0  0  0  0
   -1.5925   -0.9818   -1.1916 C   0  0  0  0  0  0  0  0  0  0  0  0
   -0.5431   -1.5608    0.9244 C   0  0  0  0  0  0  0  0  0  0  0  0
   -1.5681    0.6253    0.6333 C   0  0  0  0  0  0  0  0  0  0  0  0
   -1.8693    1.6759   -0.2594 O   0  0  0  0  0  0  0  0  0  0  0  0
    2.6060    2.2786   -0.3867 H   0  0  0  0  0  0  0  0  0  0  0  0
    3.1819    0.5712   -0.7927 H   0  0  0  0  0  0  0  0  0  0  0  0
    3.4337    1.2802    0.8239 H   0  0  0  0  0  0  0  0  0  0  0  0
    0.9699    1.4100    1.1290 H   0  0  0  0  0  0  0  0  0  0  0  0
    1.7548   -0.2120    1.1495 H   0  0  0  0  0  0  0  0  0  0  0  0
    0.3762    0.9232   -1.3107 H   0  0  0  0  0  0  0  0  0  0  0  0
    0.7102   -1.7232   -1.2507 H   0  0  0  0  0  0  0  0  0  0  0  0
   -1.2955   -1.9820   -1.5211 H   0  0  0  0  0  0  0  0  0  0  0  0
   -1.5235   -0.2216   -2.0189 H   0  0  0  0  0  0  0  0  0  0  0  0
   -2.6635   -0.9693   -0.8437 H   0  0  0  0  0  0  0  0  0  0  0  0
   -0.0873   -1.1705    1.8628 H   0  0  0  0  0  0  0  0  0  0  0  0
    0.0161   -2.4112    0.5397 H   0  0  0  0  0  0  0  0  0  0  0  0
   -1.5534   -1.9295    1.2201 H   0  0  0  0  0  0  0  0  0  0  0  0
   -1.0681    1.0210    1.5174 H   0  0  0  0  0  0  0  0  0  0  0  0
   -2.5505    0.2246    0.9527 H   0  0  0  0  0  0  0  0  0  0  0  0
   -1.9305    2.4851    0.2872 H   0  0  0  0  0  0  0  0  0  0  0  0
  1  2  1  0
  2  3  1  0
  3  4  1  0
  3  5  1  0
  5  6  1  0
  5  7  1  0
  5  8  1  0
  8  9  1  0
  1 10  1  0
  1 11  1  0
  1 12  1  0
  2 13  1  0
  2 14  1  0
  3 15  1  0
  4 16  1  0
  6 17  1  0
  6 18  1  0
  6 19  1  0
  7 20  1  0
  7 21  1  0
  7 22  1  0
  8 23  1  0
  8 24  1  0
  9 25  1  0
M  END
