
     RDKit          3D

 19 18  0  0  0  0  0  0  0  0999 V2000
   -2.6530   -0.0168   -0.4543 C   0  0  0  0  0  0  0  0  0  0  0  0
   -1.3719   -0.5858    0.0939 C   0  0  0  0  0  0  0  0  0  0  0  0
   -0.1584    0.1997   -0.3686 C   0  0  0  0  0  0  0  0  0  0  0  0
   -0.2635    1.6092    0.0849 C   0  0  0  0  0  0  0  0  0  0  0  0
    0.2265    2.5374   -0.5355 O   0  0  0  0  0  0  0  0  0  0  0  0
    1.0691   -0.4809    0.1989 C   0  0  0  0  0  0  0  0  0  0  0  0
    2.2582    0.1800   -0.1779 O   0  0  0  0  0  0  0  0  0  0  0  0
    3.4568   -0.3376    0.2732 C   0  0  0  0  0  0  0  0  0  0  0  0
    3.4118   -1.3656    0.9914 O   0  0  0  0  0  0  0  0  0  0  0  0
   -3.2417   -0.8078   -0.9956 H   0  0  0  0  0  0  0  0  0  0  0  0
   -2.4759    0.7793   -1.2072 H   0  0  0  0  0  0  0  0  0  0  0  0
   -3.3225    0.3274    0.3627 H   0  0  0  0  0  0  0  0  0  0  0  0
   -1.4000   -0.5324    1.2032 H   0  0  0  0  0  0  0  0  0  0  0  0
   -1.2739   -1.6432   -0.2252 H   0  0  0  0  0  0  0  0  0  0  0  0
   -0.0752    0.1722   -1.4676 H   0  0  0  0  0  0  0  0  0  0  0  0
   -0.7909    1.8521    1.0000 H   0  0  0  0  0  0  0  0  0  0  0  0
    1.0290   -0.4413    1.3247 H   0  0  0  0  0  0  0  0  0  0  0  0
    1.1564   -1.5239   -0.1531 H   0  0  0  0  0  0  0  0  0  0  0  0
    4.4190    0.0781    0.0520 H   0  0  0  0  0  0  0  0  0  0  0  0
  1  2  1  0
  2  3  1  0
  3  4  1  0
  4  5  2  0
  3  6  1  0
  6  7  1  0
  7  8  1  0
  8  9  2  0
  1 10  1  0
  1 11  1  0
  1 12  1  0
  2 13  1  0
  2 14  1  0
  3 15  1  0
  4 16  1  0
  6 17  1  0
  6 18  1  0
  8 19  1  0
M  END
