
     RDKit          3D

 23 23  0  0  0  0  0  0  0  0999 V2000
   -2.6281    0.8380    0.0245 C   0  0  0  0  0  0  0  0  0  0  0  0
   -1.1632    0.9026   -0.2308 C   0  0  0  0  0  0  0  0  0  0  0  0
   -0.5308   -0.4552   -0.3012 C   0  0  0  0  0  0  0  0  0  0  0  0
   -0.6825   -1.2579    0.9496 C   0  0  0  0  0  0  0  0  0  0  0  0
   -1.1748   -1.1565   -1.3306 O   0  0  0  0  0  0  0  0  0  0  0  0
    0.9365   -0.3608   -0.6361 C   0  0  0  0  0  0  0  0  0  0  0  0
    1.7260    0.4164    0.3570 C   0  0  0  0  0  0  0  0  0  0  0  0
    3.1695    0.5905    0.1587 C   0  0  0  0  0  0  0  0  0  0  0  0
    2.6867   -0.4162    1.1485 O   0  0  0  0  0  0  0  0  0  0  0  0
   -3.2234    1.1377   -0.8883 H   0  0  0  0  0  0  0  0  0  0  0  0
   -2.9270    1.5960    0.7971 H   0  0  0  0  0  0  0  0  0  0  0  0
   -3.0127   -0.1355    0.3373 H   0  0  0  0  0  0  0  0  0  0  0  0
   -0.6860    1.4987    0.5753 H   0  0  0  0  0  0  0  0  0  0  0  0
   -1.0092    1.3798   -1.2347 H   0  0  0  0  0  0  0  0  0  0  0  0
    0.0626   -0.9417    1.7349 H   0  0  0  0  0  0  0  0  0  0  0  0
   -1.6797   -1.2705    1.3833 H   0  0  0  0  0  0  0  0  0  0  0  0
   -0.4290   -2.3222    0.6974 H   0  0  0  0  0  0  0  0  0  0  0  0
   -0.5399   -1.3666   -2.0697 H   0  0  0  0  0  0  0  0  0  0  0  0
    1.0324    0.1422   -1.6359 H   0  0  0  0  0  0  0  0  0  0  0  0
    1.3715   -1.3716   -0.7796 H   0  0  0  0  0  0  0  0  0  0  0  0
    1.2461    1.0935    1.0859 H   0  0  0  0  0  0  0  0  0  0  0  0
    3.7221    1.4194    0.6526 H   0  0  0  0  0  0  0  0  0  0  0  0
    3.7329    0.0398   -0.6091 H   0  0  0  0  0  0  0  0  0  0  0  0
  1  2  1  0
  2  3  1  0
  3  4  1  0
  3  5  1  0
  3  6  1  0
  6  7  1  0
  7  8  1  0
  8  9  1  0
  9  7  1  0
  1 10  1  0
  1 11  1  0
  1 12  1  0
  2 13  1  0
  2 14  1  0
  4 15  1  0
  4 16  1  0
  4 17  1  0
  5 18  1  0
  6 19  1  0
  6 20  1  0
  7 21  1  0
  8 22  1  0
  8 23  1  0
M  END
