
     RDKit          3D

 25 25  0  0  0  0  0  0  0  0999 V2000
   -2.2962   -1.4679    0.0415 C   0  0  0  0  0  0  0  0  0  0  0  0
   -2.0200   -0.0616   -0.5107 C   0  0  0  0  0  0  0  0  0  0  0  0
   -1.0552    0.6494    0.3657 C   0  0  0  0  0  0  0  0  0  0  0  0
   -0.8113    2.0323   -0.2166 C   0  0  0  0  0  0  0  0  0  0  0  0
    0.2225   -0.0350    0.6622 C   0  0  0  0  0  0  0  0  0  0  0  0
    1.1053   -0.3818   -0.4643 C   0  0  0  0  0  0  0  0  0  0  0  0
    2.3639   -1.0749    0.0280 C   0  0  0  0  0  0  0  0  0  0  0  0
    2.9846    0.2838   -0.0868 C   0  0  0  0  0  0  0  0  0  0  0  0
    1.9368    0.6605   -0.9062 O   0  0  0  0  0  0  0  0  0  0  0  0
   -1.4251   -2.1148   -0.0196 H   0  0  0  0  0  0  0  0  0  0  0  0
   -2.6663   -1.3310    1.0826 H   0  0  0  0  0  0  0  0  0  0  0  0
   -3.1625   -1.9110   -0.5165 H   0  0  0  0  0  0  0  0  0  0  0  0
   -1.7523   -0.1685   -1.5520 H   0  0  0  0  0  0  0  0  0  0  0  0
   -3.0036    0.4525   -0.4672 H   0  0  0  0  0  0  0  0  0  0  0  0
   -1.5735    0.8376    1.3329 H   0  0  0  0  0  0  0  0  0  0  0  0
   -0.2509    2.6690    0.4879 H   0  0  0  0  0  0  0  0  0  0  0  0
   -0.3401    1.9748   -1.2201 H   0  0  0  0  0  0  0  0  0  0  0  0
   -1.8173    2.5006   -0.3243 H   0  0  0  0  0  0  0  0  0  0  0  0
    0.7929    0.5996    1.3755 H   0  0  0  0  0  0  0  0  0  0  0  0
    0.0021   -0.9769    1.2387 H   0  0  0  0  0  0  0  0  0  0  0  0
    0.7087   -0.9463   -1.3079 H   0  0  0  0  0  0  0  0  0  0  0  0
    2.8135   -1.7883   -0.7024 H   0  0  0  0  0  0  0  0  0  0  0  0
    2.2583   -1.4769    1.0492 H   0  0  0  0  0  0  0  0  0  0  0  0
    3.9822    0.2494   -0.5734 H   0  0  0  0  0  0  0  0  0  0  0  0
    3.0034    0.8254    0.8840 H   0  0  0  0  0  0  0  0  0  0  0  0
  1  2  1  0
  2  3  1  0
  3  4  1  0
  3  5  1  0
  5  6  1  0
  6  7  1  0
  7  8  1  0
  8  9  1  0
  9  6  1  0
  1 10  1  0
  1 11  1  0
  1 12  1  0
  2 13  1  0
  2 14  1  0
  3 15  1  0
  4 16  1  0
  4 17  1  0
  4 18  1  0
  5 19  1  0
  5 20  1  0
  6 21  1  0
  7 22  1  0
  7 23  1  0
  8 24  1  0
  8 25  1  0
M  END
