
     RDKit          3D

 25 25  0  0  0  0  0  0  0  0999 V2000
    2.5390   -0.4716   -0.0008 C   0  0  0  0  0  0  0  0  0  0  0  0
    1.7730    0.5852    0.7119 C   0  0  0  0  0  0  0  0  0  0  0  0
    0.4005    0.8626    0.2375 C   0  0  0  0  0  0  0  0  0  0  0  0
    0.4770    1.2909   -1.2222 C   0  0  0  0  0  0  0  0  0  0  0  0
   -0.6658   -0.0992    0.5450 C   0  0  0  0  0  0  0  0  0  0  0  0
   -2.0114    0.3534   -0.0177 C   0  0  0  0  0  0  0  0  0  0  0  0
   -2.4806   -0.8414   -0.7701 C   0  0  0  0  0  0  0  0  0  0  0  0
   -1.2689   -1.4256   -1.2000 O   0  0  0  0  0  0  0  0  0  0  0  0
   -0.5759   -1.4783    0.0160 C   0  0  0  0  0  0  0  0  0  0  0  0
    2.1674   -0.7084   -1.0186 H   0  0  0  0  0  0  0  0  0  0  0  0
    2.6003   -1.3736    0.6351 H   0  0  0  0  0  0  0  0  0  0  0  0
    3.6191   -0.1649   -0.1559 H   0  0  0  0  0  0  0  0  0  0  0  0
    2.3584    1.5465    0.5921 H   0  0  0  0  0  0  0  0  0  0  0  0
    1.7326    0.4257    1.8086 H   0  0  0  0  0  0  0  0  0  0  0  0
    0.0914    1.8368    0.7544 H   0  0  0  0  0  0  0  0  0  0  0  0
   -0.2694    2.1027   -1.4531 H   0  0  0  0  0  0  0  0  0  0  0  0
    0.4184    0.4492   -1.9168 H   0  0  0  0  0  0  0  0  0  0  0  0
    1.4648    1.7798   -1.3526 H   0  0  0  0  0  0  0  0  0  0  0  0
   -0.7827   -0.1793    1.6639 H   0  0  0  0  0  0  0  0  0  0  0  0
   -2.7139    0.5936    0.8132 H   0  0  0  0  0  0  0  0  0  0  0  0
   -1.9300    1.1984   -0.7048 H   0  0  0  0  0  0  0  0  0  0  0  0
   -3.1264   -0.6416   -1.6233 H   0  0  0  0  0  0  0  0  0  0  0  0
   -3.0151   -1.5074   -0.0654 H   0  0  0  0  0  0  0  0  0  0  0  0
    0.3977   -1.9479   -0.0384 H   0  0  0  0  0  0  0  0  0  0  0  0
   -1.1996   -2.1857    0.6473 H   0  0  0  0  0  0  0  0  0  0  0  0
  1  2  1  0
  2  3  1  0
  3  4  1  0
  3  5  1  0
  5  6  1  0
  6  7  1  0
  7  8  1  0
  8  9  1  0
  9  5  1  0
  1 10  1  0
  1 11  1  0
  1 12  1  0
  2 13  1  0
  2 14  1  0
  3 15  1  0
  4 16  1  0
  4 17  1  0
  4 18  1  0
  5 19  1  0
  6 20  1  0
  6 21  1  0
  7 22  1  0
  7 23  1  0
  9 24  1  0
  9 25  1  0
M  END
