
     RDKit          3D

 25 25  0  0  0  0  0  0  0  0999 V2000
   -2.9432   -0.1722    0.9471 C   0  0  0  0  0  0  0  0  0  0  0  0
   -2.6804    0.0623   -0.5233 C   0  0  0  0  0  0  0  0  0  0  0  0
   -1.2452    0.4668   -0.7727 C   0  0  0  0  0  0  0  0  0  0  0  0
   -1.0270    1.6505   -0.0570 O   0  0  0  0  0  0  0  0  0  0  0  0
   -0.3147   -0.5938   -0.2296 C   0  0  0  0  0  0  0  0  0  0  0  0
    1.1352   -0.2428   -0.4509 C   0  0  0  0  0  0  0  0  0  0  0  0
    2.0918   -1.2955    0.0873 C   0  0  0  0  0  0  0  0  0  0  0  0
    1.9468    0.0958    0.7282 C   0  0  0  0  0  0  0  0  0  0  0  0
    3.1911    0.9186    0.6485 C   0  0  0  0  0  0  0  0  0  0  0  0
   -3.9645    0.2356    1.1987 H   0  0  0  0  0  0  0  0  0  0  0  0
   -2.2166    0.3159    1.6061 H   0  0  0  0  0  0  0  0  0  0  0  0
   -2.9623   -1.2684    1.1841 H   0  0  0  0  0  0  0  0  0  0  0  0
   -3.3330    0.8965   -0.9111 H   0  0  0  0  0  0  0  0  0  0  0  0
   -2.9559   -0.8288   -1.1372 H   0  0  0  0  0  0  0  0  0  0  0  0
   -1.1036    0.6663   -1.8315 H   0  0  0  0  0  0  0  0  0  0  0  0
   -0.6972    1.4599    0.8682 H   0  0  0  0  0  0  0  0  0  0  0  0
   -0.6024   -1.5503   -0.7246 H   0  0  0  0  0  0  0  0  0  0  0  0
   -0.4923   -0.7223    0.8555 H   0  0  0  0  0  0  0  0  0  0  0  0
    1.4088    0.2190   -1.4424 H   0  0  0  0  0  0  0  0  0  0  0  0
    2.9738   -1.4905   -0.5318 H   0  0  0  0  0  0  0  0  0  0  0  0
    1.6971   -2.1520    0.6503 H   0  0  0  0  0  0  0  0  0  0  0  0
    1.4347    0.1281    1.7218 H   0  0  0  0  0  0  0  0  0  0  0  0
    4.0476    0.2600    0.9732 H   0  0  0  0  0  0  0  0  0  0  0  0
    3.2120    1.7880    1.3043 H   0  0  0  0  0  0  0  0  0  0  0  0
    3.3994    1.1535   -0.4135 H   0  0  0  0  0  0  0  0  0  0  0  0
  1  2  1  0
  2  3  1  0
  3  4  1  0
  3  5  1  0
  5  6  1  0
  6  7  1  0
  7  8  1  0
  8  9  1  0
  8  6  1  0
  1 10  1  0
  1 11  1  0
  1 12  1  0
  2 13  1  0
  2 14  1  0
  3 15  1  0
  4 16  1  0
  5 17  1  0
  5 18  1  0
  6 19  1  0
  7 20  1  0
  7 21  1  0
  8 22  1  0
  9 23  1  0
  9 24  1  0
  9 25  1  0
M  END
