
     RDKit          3D

 25 25  0  0  0  0  0  0  0  0999 V2000
   -3.2320   -0.3126    0.8492 C   0  0  0  0  0  0  0  0  0  0  0  0
   -2.0650   -0.8376    0.0310 C   0  0  0  0  0  0  0  0  0  0  0  0
   -1.0563    0.2868   -0.0966 C   0  0  0  0  0  0  0  0  0  0  0  0
   -1.6189    1.4931   -0.7750 C   0  0  0  0  0  0  0  0  0  0  0  0
    0.0782   -0.2100   -0.7311 O   0  0  0  0  0  0  0  0  0  0  0  0
    1.1525   -0.1806    0.1176 C   0  0  0  0  0  0  0  0  0  0  0  0
    2.0265   -1.4538    0.0343 C   0  0  0  0  0  0  0  0  0  0  0  0
    2.5485   -0.1136   -0.3734 C   0  0  0  0  0  0  0  0  0  0  0  0
    3.5591    0.5548    0.5365 C   0  0  0  0  0  0  0  0  0  0  0  0
   -2.7914   -0.0110    1.8399 H   0  0  0  0  0  0  0  0  0  0  0  0
   -3.7795    0.4918    0.3602 H   0  0  0  0  0  0  0  0  0  0  0  0
   -3.9008   -1.1867    1.0653 H   0  0  0  0  0  0  0  0  0  0  0  0
   -1.6015   -1.6511    0.6268 H   0  0  0  0  0  0  0  0  0  0  0  0
   -2.3814   -1.2438   -0.9397 H   0  0  0  0  0  0  0  0  0  0  0  0
   -0.8056    0.5885    0.9564 H   0  0  0  0  0  0  0  0  0  0  0  0
   -0.7961    2.2125   -0.9295 H   0  0  0  0  0  0  0  0  0  0  0  0
   -2.3916    1.9372   -0.1141 H   0  0  0  0  0  0  0  0  0  0  0  0
   -2.1288    1.2629   -1.7330 H   0  0  0  0  0  0  0  0  0  0  0  0
    0.9585    0.2156    1.1289 H   0  0  0  0  0  0  0  0  0  0  0  0
    1.8071   -2.1819   -0.7479 H   0  0  0  0  0  0  0  0  0  0  0  0
    2.2779   -1.8868    1.0070 H   0  0  0  0  0  0  0  0  0  0  0  0
    2.7848   -0.0035   -1.4401 H   0  0  0  0  0  0  0  0  0  0  0  0
    4.5947    0.2963    0.2719 H   0  0  0  0  0  0  0  0  0  0  0  0
    3.3513    0.2754    1.6088 H   0  0  0  0  0  0  0  0  0  0  0  0
    3.4099    1.6582    0.4029 H   0  0  0  0  0  0  0  0  0  0  0  0
  1  2  1  0
  2  3  1  0
  3  4  1  0
  3  5  1  0
  5  6  1  0
  6  7  1  0
  7  8  1  0
  8  9  1  0
  8  6  1  0
  1 10  1  0
  1 11  1  0
  1 12  1  0
  2 13  1  0
  2 14  1  0
  3 15  1  0
  4 16  1  0
  4 17  1  0
  4 18  1  0
  6 19  1  0
  7 20  1  0
  7 21  1  0
  8 22  1  0
  9 23  1  0
  9 24  1  0
  9 25  1  0
M  END
