
     RDKit          3D

 19 18  0  0  0  0  0  0  0  0999 V2000
    2.3483   -0.3032   -0.0690 C   0  0  0  0  0  0  0  0  0  0  0  0
    1.0375   -0.2518   -0.8437 C   0  0  0  0  0  0  0  0  0  0  0  0
   -0.1412   -0.2759    0.1404 C   0  0  0  0  0  0  0  0  0  0  0  0
   -0.0642    0.9176    1.0687 C   0  0  0  0  0  0  0  0  0  0  0  0
   -1.3870   -0.1663   -0.6729 C   0  0  0  0  0  0  0  0  0  0  0  0
   -2.6223   -0.1750    0.1314 C   0  0  0  0  0  0  0  0  0  0  0  0
   -2.5513   -0.2655    1.3344 O   0  0  0  0  0  0  0  0  0  0  0  0
    2.3234   -1.1853    0.5834 H   0  0  0  0  0  0  0  0  0  0  0  0
    2.4976    0.6397    0.5084 H   0  0  0  0  0  0  0  0  0  0  0  0
    3.1439   -0.4646   -0.8149 H   0  0  0  0  0  0  0  0  0  0  0  0
    1.0255   -1.1616   -1.4772 H   0  0  0  0  0  0  0  0  0  0  0  0
    0.9850    0.6162   -1.5119 H   0  0  0  0  0  0  0  0  0  0  0  0
   -0.0689   -1.1857    0.7418 H   0  0  0  0  0  0  0  0  0  0  0  0
   -1.0244    1.4854    1.0608 H   0  0  0  0  0  0  0  0  0  0  0  0
    0.0976    0.6097    2.1271 H   0  0  0  0  0  0  0  0  0  0  0  0
    0.7213    1.6283    0.7160 H   0  0  0  0  0  0  0  0  0  0  0  0
   -1.3079    0.7038   -1.3457 H   0  0  0  0  0  0  0  0  0  0  0  0
   -1.4277   -1.0637   -1.3414 H   0  0  0  0  0  0  0  0  0  0  0  0
   -3.5852   -0.1021   -0.3355 H   0  0  0  0  0  0  0  0  0  0  0  0
  1  2  1  0
  2  3  1  0
  3  4  1  0
  3  5  1  0
  5  6  1  0
  6  7  2  0
  1  8  1  0
  1  9  1  0
  1 10  1  0
  2 11  1  0
  2 12  1  0
  3 13  1  0
  4 14  1  0
  4 15  1  0
  4 16  1  0
  5 17  1  0
  5 18  1  0
  6 19  1  0
M  END
