
     RDKit          3D

 23 22  0  0  0  0  0  0  0  0999 V2000
   -1.4944   -1.9063    0.0402 C   0  0  0  0  0  0  0  0  0  0  0  0
   -0.8789   -1.0381   -1.0390 C   0  0  0  0  0  0  0  0  0  0  0  0
   -0.3998    0.2766   -0.4990 C   0  0  0  0  0  0  0  0  0  0  0  0
    0.6442    0.1441    0.5734 C   0  0  0  0  0  0  0  0  0  0  0  0
    1.8618   -0.5457    0.1518 C   0  0  0  0  0  0  0  0  0  0  0  0
    3.0661    0.2360   -0.2018 C   0  0  0  0  0  0  0  0  0  0  0  0
    1.8824   -1.7527    0.0902 O   0  0  0  0  0  0  0  0  0  0  0  0
   -1.5053    0.9021    0.0783 O   0  0  0  0  0  0  0  0  0  0  0  0
   -1.8280    2.0914   -0.5654 C   0  0  0  0  0  0  0  0  0  0  0  0
   -2.4464   -2.3664   -0.2768 H   0  0  0  0  0  0  0  0  0  0  0  0
   -0.7910   -2.7246    0.2601 H   0  0  0  0  0  0  0  0  0  0  0  0
   -1.7239   -1.2794    0.9310 H   0  0  0  0  0  0  0  0  0  0  0  0
   -0.1111   -1.5952   -1.5927 H   0  0  0  0  0  0  0  0  0  0  0  0
   -1.6911   -0.8091   -1.7680 H   0  0  0  0  0  0  0  0  0  0  0  0
   -0.0171    0.8677   -1.3488 H   0  0  0  0  0  0  0  0  0  0  0  0
    0.8524    1.1730    0.9520 H   0  0  0  0  0  0  0  0  0  0  0  0
    0.1304   -0.3676    1.4408 H   0  0  0  0  0  0  0  0  0  0  0  0
    4.0173   -0.2690    0.0343 H   0  0  0  0  0  0  0  0  0  0  0  0
    3.0970    1.2089    0.3799 H   0  0  0  0  0  0  0  0  0  0  0  0
    3.0849    0.4692   -1.2911 H   0  0  0  0  0  0  0  0  0  0  0  0
   -0.9828    2.8024   -0.5266 H   0  0  0  0  0  0  0  0  0  0  0  0
   -2.6595    2.5451    0.0288 H   0  0  0  0  0  0  0  0  0  0  0  0
   -2.1073    1.9376   -1.6304 H   0  0  0  0  0  0  0  0  0  0  0  0
  1  2  1  0
  2  3  1  0
  3  4  1  0
  4  5  1  0
  5  6  1  0
  5  7  2  0
  3  8  1  0
  8  9  1  0
  1 10  1  0
  1 11  1  0
  1 12  1  0
  2 13  1  0
  2 14  1  0
  3 15  1  0
  4 16  1  0
  4 17  1  0
  6 18  1  0
  6 19  1  0
  6 20  1  0
  9 21  1  0
  9 22  1  0
  9 23  1  0
M  END
