
     RDKit          3D

 25 25  0  0  0  0  0  0  0  0999 V2000
   -2.7447   -0.5028    0.7808 C   0  0  0  0  0  0  0  0  0  0  0  0
   -2.0163    0.7464    0.3686 C   0  0  0  0  0  0  0  0  0  0  0  0
   -0.8102    0.4570   -0.4938 C   0  0  0  0  0  0  0  0  0  0  0  0
   -1.2072   -0.2624   -1.7642 C   0  0  0  0  0  0  0  0  0  0  0  0
    0.1941   -0.3798    0.2228 C   0  0  0  0  0  0  0  0  0  0  0  0
    1.4071   -0.6734   -0.6384 C   0  0  0  0  0  0  0  0  0  0  0  0
    2.0272   -0.6349    0.7478 C   0  0  0  0  0  0  0  0  0  0  0  0
    3.4383   -0.1154    0.7957 C   0  0  0  0  0  0  0  0  0  0  0  0
    1.0489    0.3085    1.0844 O   0  0  0  0  0  0  0  0  0  0  0  0
   -3.1765   -1.0438   -0.1040 H   0  0  0  0  0  0  0  0  0  0  0  0
   -2.1368   -1.1858    1.3701 H   0  0  0  0  0  0  0  0  0  0  0  0
   -3.6181   -0.1893    1.3841 H   0  0  0  0  0  0  0  0  0  0  0  0
   -1.6630    1.2405    1.2931 H   0  0  0  0  0  0  0  0  0  0  0  0
   -2.7259    1.4255   -0.1448 H   0  0  0  0  0  0  0  0  0  0  0  0
   -0.3414    1.4345   -0.7239 H   0  0  0  0  0  0  0  0  0  0  0  0
   -0.2927   -0.2875   -2.4093 H   0  0  0  0  0  0  0  0  0  0  0  0
   -2.0640    0.1965   -2.2708 H   0  0  0  0  0  0  0  0  0  0  0  0
   -1.3792   -1.3290   -1.4742 H   0  0  0  0  0  0  0  0  0  0  0  0
   -0.2388   -1.3111    0.6335 H   0  0  0  0  0  0  0  0  0  0  0  0
    1.4130   -1.6765   -1.1140 H   0  0  0  0  0  0  0  0  0  0  0  0
    1.6719    0.1760   -1.2935 H   0  0  0  0  0  0  0  0  0  0  0  0
    1.8875   -1.6262    1.2405 H   0  0  0  0  0  0  0  0  0  0  0  0
    3.6211    0.3313    1.8012 H   0  0  0  0  0  0  0  0  0  0  0  0
    3.5903    0.6276   -0.0024 H   0  0  0  0  0  0  0  0  0  0  0  0
    4.1155   -0.9789    0.7107 H   0  0  0  0  0  0  0  0  0  0  0  0
  1  2  1  0
  2  3  1  0
  3  4  1  0
  3  5  1  0
  5  6  1  0
  6  7  1  0
  7  8  1  0
  7  9  1  0
  9  5  1  0
  1 10  1  0
  1 11  1  0
  1 12  1  0
  2 13  1  0
  2 14  1  0
  3 15  1  0
  4 16  1  0
  4 17  1  0
  4 18  1  0
  5 19  1  0
  6 20  1  0
  6 21  1  0
  7 22  1  0
  8 23  1  0
  8 24  1  0
  8 25  1  0
M  END
