
     RDKit          3D

 25 25  0  0  0  0  0  0  0  0999 V2000
   -0.6309    2.2094   -0.0829 C   0  0  0  0  0  0  0  0  0  0  0  0
   -0.7852    1.0602   -1.0170 C   0  0  0  0  0  0  0  0  0  0  0  0
   -0.1693   -0.2257   -0.5941 C   0  0  0  0  0  0  0  0  0  0  0  0
    1.3014   -0.2224   -0.3811 C   0  0  0  0  0  0  0  0  0  0  0  0
    1.8719    0.6693    0.6311 C   0  0  0  0  0  0  0  0  0  0  0  0
    1.9463   -0.0082   -1.6196 O   0  0  0  0  0  0  0  0  0  0  0  0
   -0.9415   -0.8064    0.5509 C   0  0  0  0  0  0  0  0  0  0  0  0
   -0.5709   -2.0848    1.1900 C   0  0  0  0  0  0  0  0  0  0  0  0
   -1.7179   -2.0682    0.2461 C   0  0  0  0  0  0  0  0  0  0  0  0
   -0.9320    1.9606    0.9622 H   0  0  0  0  0  0  0  0  0  0  0  0
    0.3654    2.6822   -0.1662 H   0  0  0  0  0  0  0  0  0  0  0  0
   -1.3454    3.0490   -0.3507 H   0  0  0  0  0  0  0  0  0  0  0  0
   -0.4780    1.3475   -2.0431 H   0  0  0  0  0  0  0  0  0  0  0  0
   -1.8953    0.8613   -1.1034 H   0  0  0  0  0  0  0  0  0  0  0  0
   -0.3344   -0.9279   -1.4712 H   0  0  0  0  0  0  0  0  0  0  0  0
    1.5834   -1.2862   -0.1205 H   0  0  0  0  0  0  0  0  0  0  0  0
    2.7072    0.1477    1.1963 H   0  0  0  0  0  0  0  0  0  0  0  0
    2.4183    1.5152    0.1245 H   0  0  0  0  0  0  0  0  0  0  0  0
    1.2336    1.0903    1.3952 H   0  0  0  0  0  0  0  0  0  0  0  0
    2.7040    0.6046   -1.5291 H   0  0  0  0  0  0  0  0  0  0  0  0
   -1.5151   -0.0580    1.1396 H   0  0  0  0  0  0  0  0  0  0  0  0
   -0.8638   -2.1759    2.2703 H   0  0  0  0  0  0  0  0  0  0  0  0
    0.3559   -2.6058    0.9498 H   0  0  0  0  0  0  0  0  0  0  0  0
   -1.5471   -2.5603   -0.7537 H   0  0  0  0  0  0  0  0  0  0  0  0
   -2.7605   -2.1675    0.5765 H   0  0  0  0  0  0  0  0  0  0  0  0
  1  2  1  0
  2  3  1  0
  3  4  1  0
  4  5  1  0
  4  6  1  0
  3  7  1  0
  7  8  1  0
  8  9  1  0
  9  7  1  0
  1 10  1  0
  1 11  1  0
  1 12  1  0
  2 13  1  0
  2 14  1  0
  3 15  1  0
  4 16  1  0
  5 17  1  0
  5 18  1  0
  5 19  1  0
  6 20  1  0
  7 21  1  0
  8 22  1  0
  8 23  1  0
  9 24  1  0
  9 25  1  0
M  END
