
     RDKit          3D

 23 24  0  0  0  0  0  0  0  0999 V2000
   -1.8262   -0.0893    1.1224 C   0  0  0  0  0  0  0  0  0  0  0  0
   -1.9534   -0.1044   -0.3543 C   0  0  0  0  0  0  0  0  0  0  0  0
   -0.6808   -0.3890   -1.1126 C   0  0  0  0  0  0  0  0  0  0  0  0
   -0.9701   -0.3762   -2.5082 O   0  0  0  0  0  0  0  0  0  0  0  0
    0.3182    0.7142   -0.8731 C   0  0  0  0  0  0  0  0  0  0  0  0
    0.8589    1.0711    0.4371 C   0  0  0  0  0  0  0  0  0  0  0  0
    1.5023    0.1187    1.3983 C   0  0  0  0  0  0  0  0  0  0  0  0
    1.9972   -0.7792    0.2982 C   0  0  0  0  0  0  0  0  0  0  0  0
    1.7086    0.3553   -0.6542 C   0  0  0  0  0  0  0  0  0  0  0  0
   -1.3467    0.8387    1.4702 H   0  0  0  0  0  0  0  0  0  0  0  0
   -1.3659   -1.0063    1.5482 H   0  0  0  0  0  0  0  0  0  0  0  0
   -2.8777   -0.0274    1.5358 H   0  0  0  0  0  0  0  0  0  0  0  0
   -2.6712   -0.9089   -0.6316 H   0  0  0  0  0  0  0  0  0  0  0  0
   -2.3887    0.8756   -0.6890 H   0  0  0  0  0  0  0  0  0  0  0  0
   -0.3422   -1.3844   -0.8100 H   0  0  0  0  0  0  0  0  0  0  0  0
   -1.4946   -1.2076   -2.7263 H   0  0  0  0  0  0  0  0  0  0  0  0
    0.1643    1.6014   -1.5568 H   0  0  0  0  0  0  0  0  0  0  0  0
    1.0783    2.1443    0.6318 H   0  0  0  0  0  0  0  0  0  0  0  0
    2.3965    0.6055    1.8997 H   0  0  0  0  0  0  0  0  0  0  0  0
    0.8459   -0.3578    2.1512 H   0  0  0  0  0  0  0  0  0  0  0  0
    1.4033   -1.6664    0.0542 H   0  0  0  0  0  0  0  0  0  0  0  0
    3.0850   -1.0259    0.3529 H   0  0  0  0  0  0  0  0  0  0  0  0
    2.5589    0.9980   -0.9842 H   0  0  0  0  0  0  0  0  0  0  0  0
  1  2  1  0
  2  3  1  0
  3  4  1  0
  3  5  1  0
  5  6  1  0
  6  7  1  0
  7  8  1  0
  8  9  1  0
  9  5  1  0
  9  6  1  0
  1 10  1  0
  1 11  1  0
  1 12  1  0
  2 13  1  0
  2 14  1  0
  3 15  1  0
  4 16  1  0
  5 17  1  0
  6 18  1  0
  7 19  1  0
  7 20  1  0
  8 21  1  0
  8 22  1  0
  9 23  1  0
M  END
