
     RDKit          3D

 23 23  0  0  0  0  0  0  0  0999 V2000
   -1.2506   -2.3383   -0.1594 C   0  0  0  0  0  0  0  0  0  0  0  0
   -0.0771   -1.5276    0.2705 C   0  0  0  0  0  0  0  0  0  0  0  0
   -0.1410   -0.0825   -0.2416 C   0  0  0  0  0  0  0  0  0  0  0  0
   -1.3785    0.5103    0.3159 C   0  0  0  0  0  0  0  0  0  0  0  0
   -1.7757    1.9363    0.0184 C   0  0  0  0  0  0  0  0  0  0  0  0
   -2.1582   -0.0943    1.0445 O   0  0  0  0  0  0  0  0  0  0  0  0
    1.0982    0.5861    0.3441 C   0  0  0  0  0  0  0  0  0  0  0  0
    2.4275    0.0512    0.0011 C   0  0  0  0  0  0  0  0  0  0  0  0
    1.9851    1.4075   -0.4812 C   0  0  0  0  0  0  0  0  0  0  0  0
   -2.0825   -1.7496   -0.5977 H   0  0  0  0  0  0  0  0  0  0  0  0
   -1.6621   -2.8626    0.7267 H   0  0  0  0  0  0  0  0  0  0  0  0
   -0.9928   -3.1395   -0.8847 H   0  0  0  0  0  0  0  0  0  0  0  0
   -0.0864   -1.4245    1.3751 H   0  0  0  0  0  0  0  0  0  0  0  0
    0.8512   -2.0219   -0.0803 H   0  0  0  0  0  0  0  0  0  0  0  0
   -0.1260   -0.0804   -1.3507 H   0  0  0  0  0  0  0  0  0  0  0  0
   -2.8105    1.9129   -0.3868 H   0  0  0  0  0  0  0  0  0  0  0  0
   -1.8285    2.4807    0.9870 H   0  0  0  0  0  0  0  0  0  0  0  0
   -1.0580    2.4092   -0.6821 H   0  0  0  0  0  0  0  0  0  0  0  0
    0.9501    0.8976    1.4019 H   0  0  0  0  0  0  0  0  0  0  0  0
    2.5844   -0.6863   -0.8093 H   0  0  0  0  0  0  0  0  0  0  0  0
    3.1989   -0.0197    0.7994 H   0  0  0  0  0  0  0  0  0  0  0  0
    1.8227    1.5829   -1.5619 H   0  0  0  0  0  0  0  0  0  0  0  0
    2.5098    2.2526    0.0123 H   0  0  0  0  0  0  0  0  0  0  0  0
  1  2  1  0
  2  3  1  0
  3  4  1  0
  4  5  1  0
  4  6  2  0
  3  7  1  0
  7  8  1  0
  8  9  1  0
  9  7  1  0
  1 10  1  0
  1 11  1  0
  1 12  1  0
  2 13  1  0
  2 14  1  0
  3 15  1  0
  5 16  1  0
  5 17  1  0
  5 18  1  0
  7 19  1  0
  8 20  1  0
  8 21  1  0
  9 22  1  0
  9 23  1  0
M  END
