
     RDKit          3D

 25 24  0  0  0  0  0  0  0  0999 V2000
   -3.2108   -0.0780    0.6044 C   0  0  0  0  0  0  0  0  0  0  0  0
   -2.1496   -0.2953   -0.4540 C   0  0  0  0  0  0  0  0  0  0  0  0
   -0.8066   -0.1270    0.2343 C   0  0  0  0  0  0  0  0  0  0  0  0
   -0.7065    1.2440    0.8081 C   0  0  0  0  0  0  0  0  0  0  0  0
    0.2997   -0.4786   -0.7051 C   0  0  0  0  0  0  0  0  0  0  0  0
    0.3010    0.3265   -1.8376 O   0  0  0  0  0  0  0  0  0  0  0  0
    1.6357   -0.4656    0.0045 C   0  0  0  0  0  0  0  0  0  0  0  0
    2.6550   -0.9343   -0.8435 O   0  0  0  0  0  0  0  0  0  0  0  0
    3.8400   -0.8776   -0.0833 C   0  0  0  0  0  0  0  0  0  0  0  0
   -4.1615    0.2857    0.1551 H   0  0  0  0  0  0  0  0  0  0  0  0
   -3.3485   -1.0525    1.1402 H   0  0  0  0  0  0  0  0  0  0  0  0
   -2.8193    0.6941    1.2976 H   0  0  0  0  0  0  0  0  0  0  0  0
   -2.2408   -1.2936   -0.9344 H   0  0  0  0  0  0  0  0  0  0  0  0
   -2.2753    0.5189   -1.1966 H   0  0  0  0  0  0  0  0  0  0  0  0
   -0.7375   -0.8487    1.0992 H   0  0  0  0  0  0  0  0  0  0  0  0
   -1.4764    1.8806    0.3254 H   0  0  0  0  0  0  0  0  0  0  0  0
   -0.9590    1.2604    1.9093 H   0  0  0  0  0  0  0  0  0  0  0  0
    0.2593    1.7549    0.6231 H   0  0  0  0  0  0  0  0  0  0  0  0
    0.1707   -1.5271   -1.0815 H   0  0  0  0  0  0  0  0  0  0  0  0
   -0.2285   -0.0930   -2.5840 H   0  0  0  0  0  0  0  0  0  0  0  0
    1.8772    0.5481    0.3673 H   0  0  0  0  0  0  0  0  0  0  0  0
    1.6271   -1.1393    0.8719 H   0  0  0  0  0  0  0  0  0  0  0  0
    4.0510    0.1684    0.2468 H   0  0  0  0  0  0  0  0  0  0  0  0
    3.7540   -1.5525    0.7904 H   0  0  0  0  0  0  0  0  0  0  0  0
    4.6494   -1.2083   -0.7575 H   0  0  0  0  0  0  0  0  0  0  0  0
  1  2  1  0
  2  3  1  0
  3  4  1  0
  3  5  1  0
  5  6  1  0
  5  7  1  0
  7  8  1  0
  8  9  1  0
  1 10  1  0
  1 11  1  0
  1 12  1  0
  2 13  1  0
  2 14  1  0
  3 15  1  0
  4 16  1  0
  4 17  1  0
  4 18  1  0
  5 19  1  0
  6 20  1  0
  7 21  1  0
  7 22  1  0
  9 23  1  0
  9 24  1  0
  9 25  1  0
M  END
