
     RDKit          3D

 20 19  0  0  0  0  0  0  0  0999 V2000
    1.8438   -1.0206    0.5851 C   0  0  0  0  0  0  0  0  0  0  0  0
    0.9764    0.2097    0.7234 C   0  0  0  0  0  0  0  0  0  0  0  0
    0.0694    0.3689   -0.4801 C   0  0  0  0  0  0  0  0  0  0  0  0
   -0.8035   -0.8472   -0.5758 C   0  0  0  0  0  0  0  0  0  0  0  0
   -1.6517   -1.0221    0.6577 C   0  0  0  0  0  0  0  0  0  0  0  0
   -0.6682    1.5573   -0.2854 O   0  0  0  0  0  0  0  0  0  0  0  0
   -0.5966    2.6542   -1.1151 C   0  0  0  0  0  0  0  0  0  0  0  0
    0.1751    2.5849   -2.1042 O   0  0  0  0  0  0  0  0  0  0  0  0
    1.3049   -1.9586    0.7978 H   0  0  0  0  0  0  0  0  0  0  0  0
    2.1976   -1.0370   -0.4716 H   0  0  0  0  0  0  0  0  0  0  0  0
    2.7378   -0.9862    1.2155 H   0  0  0  0  0  0  0  0  0  0  0  0
    1.6876    1.0778    0.7980 H   0  0  0  0  0  0  0  0  0  0  0  0
    0.4063    0.2184    1.6787 H   0  0  0  0  0  0  0  0  0  0  0  0
    0.7170    0.4071   -1.3745 H   0  0  0  0  0  0  0  0  0  0  0  0
   -0.1506   -1.7305   -0.6632 H   0  0  0  0  0  0  0  0  0  0  0  0
   -1.4757   -0.8259   -1.4458 H   0  0  0  0  0  0  0  0  0  0  0  0
   -2.1834   -0.0835    0.9453 H   0  0  0  0  0  0  0  0  0  0  0  0
   -0.9707   -1.2776    1.4991 H   0  0  0  0  0  0  0  0  0  0  0  0
   -2.4113   -1.8042    0.4907 H   0  0  0  0  0  0  0  0  0  0  0  0
   -1.2043    3.5151   -0.8756 H   0  0  0  0  0  0  0  0  0  0  0  0
  1  2  1  0
  2  3  1  0
  3  4  1  0
  4  5  1  0
  3  6  1  0
  6  7  1  0
  7  8  2  0
  1  9  1  0
  1 10  1  0
  1 11  1  0
  2 12  1  0
  2 13  1  0
  3 14  1  0
  4 15  1  0
  4 16  1  0
  5 17  1  0
  5 18  1  0
  5 19  1  0
  7 20  1  0
M  END
