
     RDKit          3D

 21 20  0  0  0  0  0  0  0  0999 V2000
   -2.3484    0.5037   -0.0719 C   0  0  0  0  0  0  0  0  0  0  0  0
   -1.3903   -0.6359   -0.0700 C   0  0  0  0  0  0  0  0  0  0  0  0
    0.0297   -0.2901   -0.2992 C   0  0  0  0  0  0  0  0  0  0  0  0
    0.8482   -1.5649   -0.2634 C   0  0  0  0  0  0  0  0  0  0  0  0
    0.2284    0.2942   -1.5411 O   0  0  0  0  0  0  0  0  0  0  0  0
    0.6108    0.6375    0.7418 C   0  0  0  0  0  0  0  0  0  0  0  0
    2.0619    0.9336    0.4251 C   0  0  0  0  0  0  0  0  0  0  0  0
   -3.3745    0.0660   -0.1197 H   0  0  0  0  0  0  0  0  0  0  0  0
   -2.3277    1.1149    0.8523 H   0  0  0  0  0  0  0  0  0  0  0  0
   -2.2525    1.1299   -0.9856 H   0  0  0  0  0  0  0  0  0  0  0  0
   -1.4889   -1.1656    0.9012 H   0  0  0  0  0  0  0  0  0  0  0  0
   -1.7079   -1.3504   -0.8545 H   0  0  0  0  0  0  0  0  0  0  0  0
    1.4792   -1.6882   -1.1635 H   0  0  0  0  0  0  0  0  0  0  0  0
    0.1834   -2.4743   -0.2408 H   0  0  0  0  0  0  0  0  0  0  0  0
    1.4734   -1.6436    0.6475 H   0  0  0  0  0  0  0  0  0  0  0  0
   -0.0182    1.2621   -1.5491 H   0  0  0  0  0  0  0  0  0  0  0  0
    0.0564    1.5845    0.8256 H   0  0  0  0  0  0  0  0  0  0  0  0
    0.6047    0.1636    1.7649 H   0  0  0  0  0  0  0  0  0  0  0  0
    2.5373    0.1473   -0.1807 H   0  0  0  0  0  0  0  0  0  0  0  0
    2.1445    1.8756   -0.1791 H   0  0  0  0  0  0  0  0  0  0  0  0
    2.6506    1.0998    1.3603 H   0  0  0  0  0  0  0  0  0  0  0  0
  1  2  1  0
  2  3  1  0
  3  4  1  0
  3  5  1  0
  3  6  1  0
  6  7  1  0
  1  8  1  0
  1  9  1  0
  1 10  1  0
  2 11  1  0
  2 12  1  0
  4 13  1  0
  4 14  1  0
  4 15  1  0
  5 16  1  0
  6 17  1  0
  6 18  1  0
  7 19  1  0
  7 20  1  0
  7 21  1  0
M  END
