
     RDKit          3D

 18 17  0  0  0  0  0  0  0  0999 V2000
    1.7779    1.0833   -0.3553 C   0  0  0  0  0  0  0  0  0  0  0  0
    1.2342   -0.3173   -0.2617 C   0  0  0  0  0  0  0  0  0  0  0  0
   -0.1794   -0.3786    0.2232 C   0  0  0  0  0  0  0  0  0  0  0  0
   -0.5416   -1.8709    0.2479 C   0  0  0  0  0  0  0  0  0  0  0  0
   -1.0656    0.2707   -0.6205 O   0  0  0  0  0  0  0  0  0  0  0  0
   -1.8674    1.1748    0.0627 C   0  0  0  0  0  0  0  0  0  0  0  0
    1.2580    1.6722   -1.1422 H   0  0  0  0  0  0  0  0  0  0  0  0
    1.8082    1.5924    0.6214 H   0  0  0  0  0  0  0  0  0  0  0  0
    2.8445    0.9803   -0.6948 H   0  0  0  0  0  0  0  0  0  0  0  0
    1.2771   -0.7796   -1.2566 H   0  0  0  0  0  0  0  0  0  0  0  0
    1.8640   -0.8693    0.4777 H   0  0  0  0  0  0  0  0  0  0  0  0
   -0.2848   -0.0461    1.2891 H   0  0  0  0  0  0  0  0  0  0  0  0
   -0.1213   -2.3702   -0.6697 H   0  0  0  0  0  0  0  0  0  0  0  0
   -1.6199   -2.0338    0.2154 H   0  0  0  0  0  0  0  0  0  0  0  0
   -0.0313   -2.3545    1.0973 H   0  0  0  0  0  0  0  0  0  0  0  0
   -1.3129    1.9679    0.5747 H   0  0  0  0  0  0  0  0  0  0  0  0
   -2.5730    1.6316   -0.6588 H   0  0  0  0  0  0  0  0  0  0  0  0
   -2.4668    0.6472    0.8529 H   0  0  0  0  0  0  0  0  0  0  0  0
  1  2  1  0
  2  3  1  0
  3  4  1  0
  3  5  1  0
  5  6  1  0
  1  7  1  0
  1  8  1  0
  1  9  1  0
  2 10  1  0
  2 11  1  0
  3 12  1  0
  4 13  1  0
  4 14  1  0
  4 15  1  0
  6 16  1  0
  6 17  1  0
  6 18  1  0
M  END
