
     RDKit          3D

 23 23  0  0  0  0  0  0  0  0999 V2000
    3.1846    0.3490   -0.0919 C   0  0  0  0  0  0  0  0  0  0  0  0
    1.7481    0.6723    0.2232 C   0  0  0  0  0  0  0  0  0  0  0  0
    0.9312   -0.5939    0.0881 C   0  0  0  0  0  0  0  0  0  0  0  0
    1.3985   -1.5786    0.9814 O   0  0  0  0  0  0  0  0  0  0  0  0
   -0.5149   -0.3312    0.3164 C   0  0  0  0  0  0  0  0  0  0  0  0
   -1.4465   -0.5613   -0.5980 C   0  0  0  0  0  0  0  0  0  0  0  0
   -2.7612   -0.1862   -0.0276 C   0  0  0  0  0  0  0  0  0  0  0  0
   -2.3656    0.9026    0.9469 C   0  0  0  0  0  0  0  0  0  0  0  0
   -1.1375    0.2160    1.5610 C   0  0  0  0  0  0  0  0  0  0  0  0
    3.4875    0.8755   -1.0324 H   0  0  0  0  0  0  0  0  0  0  0  0
    3.8534    0.6235    0.7497 H   0  0  0  0  0  0  0  0  0  0  0  0
    3.2972   -0.7315   -0.3066 H   0  0  0  0  0  0  0  0  0  0  0  0
    1.3743    1.4929   -0.3792 H   0  0  0  0  0  0  0  0  0  0  0  0
    1.6951    1.0118    1.2945 H   0  0  0  0  0  0  0  0  0  0  0  0
    1.0418   -1.0352   -0.9174 H   0  0  0  0  0  0  0  0  0  0  0  0
    1.3356   -2.4790    0.5795 H   0  0  0  0  0  0  0  0  0  0  0  0
   -1.3121   -0.9610   -1.6170 H   0  0  0  0  0  0  0  0  0  0  0  0
   -3.1273   -1.0756    0.5425 H   0  0  0  0  0  0  0  0  0  0  0  0
   -3.4853    0.1587   -0.7854 H   0  0  0  0  0  0  0  0  0  0  0  0
   -2.0487    1.7804    0.3270 H   0  0  0  0  0  0  0  0  0  0  0  0
   -3.1263    1.1339    1.6873 H   0  0  0  0  0  0  0  0  0  0  0  0
   -0.4960    0.9131    2.0977 H   0  0  0  0  0  0  0  0  0  0  0  0
   -1.5259   -0.5961    2.2059 H   0  0  0  0  0  0  0  0  0  0  0  0
  1  2  1  0
  2  3  1  0
  3  4  1  0
  3  5  1  0
  5  6  2  0
  6  7  1  0
  7  8  1  0
  8  9  1  0
  9  5  1  0
  1 10  1  0
  1 11  1  0
  1 12  1  0
  2 13  1  0
  2 14  1  0
  3 15  1  0
  4 16  1  0
  6 17  1  0
  7 18  1  0
  7 19  1  0
  8 20  1  0
  8 21  1  0
  9 22  1  0
  9 23  1  0
M  END
