
     RDKit          3D

 23 23  0  0  0  0  0  0  0  0999 V2000
   -2.0766    1.3503    0.2703 C   0  0  0  0  0  0  0  0  0  0  0  0
   -1.4252    0.7310   -0.9079 C   0  0  0  0  0  0  0  0  0  0  0  0
   -0.5182   -0.4201   -0.5973 C   0  0  0  0  0  0  0  0  0  0  0  0
   -1.1649   -1.5666    0.0764 C   0  0  0  0  0  0  0  0  0  0  0  0
    0.7086    0.0763    0.1758 C   0  0  0  0  0  0  0  0  0  0  0  0
    1.6410   -1.0369    0.5069 C   0  0  0  0  0  0  0  0  0  0  0  0
    2.9349   -0.6185    0.1410 O   0  0  0  0  0  0  0  0  0  0  0  0
    2.7469    0.7316   -0.1105 C   0  0  0  0  0  0  0  0  0  0  0  0
    1.4929    0.8834   -0.6611 O   0  0  0  0  0  0  0  0  0  0  0  0
   -1.8898    2.4571    0.2536 H   0  0  0  0  0  0  0  0  0  0  0  0
   -1.7676    0.9847    1.2455 H   0  0  0  0  0  0  0  0  0  0  0  0
   -3.1954    1.2462    0.2167 H   0  0  0  0  0  0  0  0  0  0  0  0
   -2.2020    0.3510   -1.6324 H   0  0  0  0  0  0  0  0  0  0  0  0
   -0.8124    1.4710   -1.4812 H   0  0  0  0  0  0  0  0  0  0  0  0
   -0.1099   -0.7812   -1.5799 H   0  0  0  0  0  0  0  0  0  0  0  0
   -0.5816   -1.8589    0.9993 H   0  0  0  0  0  0  0  0  0  0  0  0
   -2.2060   -1.2792    0.3632 H   0  0  0  0  0  0  0  0  0  0  0  0
   -1.2528   -2.4685   -0.5798 H   0  0  0  0  0  0  0  0  0  0  0  0
    0.3423    0.6423    1.0326 H   0  0  0  0  0  0  0  0  0  0  0  0
    1.3860   -1.8981   -0.1694 H   0  0  0  0  0  0  0  0  0  0  0  0
    1.6179   -1.3434    1.5695 H   0  0  0  0  0  0  0  0  0  0  0  0
    2.7599    1.2598    0.8723 H   0  0  0  0  0  0  0  0  0  0  0  0
    3.5722    1.0867   -0.7322 H   0  0  0  0  0  0  0  0  0  0  0  0
  1  2  1  0
  2  3  1  0
  3  4  1  0
  3  5  1  0
  5  6  1  0
  6  7  1  0
  7  8  1  0
  8  9  1  0
  9  5  1  0
  1 10  1  0
  1 11  1  0
  1 12  1  0
  2 13  1  0
  2 14  1  0
  3 15  1  0
  4 16  1  0
  4 17  1  0
  4 18  1  0
  5 19  1  0
  6 20  1  0
  6 21  1  0
  8 22  1  0
  8 23  1  0
M  END
