
     RDKit          3D

 19 18  0  0  0  0  0  0  0  0999 V2000
   -3.2883   -0.2173   -0.0922 C   0  0  0  0  0  0  0  0  0  0  0  0
   -2.3607    0.9988   -0.2040 C   0  0  0  0  0  0  0  0  0  0  0  0
   -1.0024    0.5181    0.1062 C   0  0  0  0  0  0  0  0  0  0  0  0
   -0.6623    0.3123    1.2396 O   0  0  0  0  0  0  0  0  0  0  0  0
   -0.0444    0.2852   -0.9865 C   0  0  0  0  0  0  0  0  0  0  0  0
    1.2209   -0.1793   -0.4644 C   0  0  0  0  0  0  0  0  0  0  0  0
    2.2808   -0.5461   -0.0319 C   0  0  0  0  0  0  0  0  0  0  0  0
    3.5823   -0.9997    0.4742 C   0  0  0  0  0  0  0  0  0  0  0  0
    4.5664   -0.0309    0.2876 O   0  0  0  0  0  0  0  0  0  0  0  0
   -3.0327   -0.7858    0.8198 H   0  0  0  0  0  0  0  0  0  0  0  0
   -2.9939   -0.8787   -0.9599 H   0  0  0  0  0  0  0  0  0  0  0  0
   -4.3413    0.0511   -0.1578 H   0  0  0  0  0  0  0  0  0  0  0  0
   -2.4301    1.4150   -1.2400 H   0  0  0  0  0  0  0  0  0  0  0  0
   -2.6980    1.8126    0.4709 H   0  0  0  0  0  0  0  0  0  0  0  0
   -0.4430   -0.4433   -1.7245 H   0  0  0  0  0  0  0  0  0  0  0  0
    0.1122    1.2348   -1.5371 H   0  0  0  0  0  0  0  0  0  0  0  0
    3.4744   -1.1764    1.5782 H   0  0  0  0  0  0  0  0  0  0  0  0
    3.8249   -1.9512   -0.0447 H   0  0  0  0  0  0  0  0  0  0  0  0
    4.2354    0.5806   -0.4162 H   0  0  0  0  0  0  0  0  0  0  0  0
  1  2  1  0
  2  3  1  0
  3  4  2  0
  3  5  1  0
  5  6  1  0
  6  7  3  0
  7  8  1  0
  8  9  1  0
  1 10  1  0
  1 11  1  0
  1 12  1  0
  2 13  1  0
  2 14  1  0
  5 15  1  0
  5 16  1  0
  8 17  1  0
  8 18  1  0
  9 19  1  0
M  END
