
     RDKit          3D

 23 22  0  0  0  0  0  0  0  0999 V2000
    1.9326   -0.5990    0.5016 C   0  0  0  0  0  0  0  0  0  0  0  0
    0.4759   -0.9859    0.6200 C   0  0  0  0  0  0  0  0  0  0  0  0
   -0.4014   -0.2209   -0.3236 C   0  0  0  0  0  0  0  0  0  0  0  0
    0.0604   -0.4925   -1.7677 C   0  0  0  0  0  0  0  0  0  0  0  0
   -1.6770   -0.7548   -0.2747 O   0  0  0  0  0  0  0  0  0  0  0  0
   -2.2918   -0.7492    0.9389 C   0  0  0  0  0  0  0  0  0  0  0  0
   -0.4548    1.2172   -0.1521 C   0  0  0  0  0  0  0  0  0  0  0  0
    0.7277    2.1340   -0.1238 C   0  0  0  0  0  0  0  0  0  0  0  0
   -1.5434    1.7389   -0.0187 O   0  0  0  0  0  0  0  0  0  0  0  0
    2.1377    0.3131    1.0951 H   0  0  0  0  0  0  0  0  0  0  0  0
    2.5673   -1.4035    0.9723 H   0  0  0  0  0  0  0  0  0  0  0  0
    2.2723   -0.5266   -0.5359 H   0  0  0  0  0  0  0  0  0  0  0  0
    0.0932   -0.8801    1.6408 H   0  0  0  0  0  0  0  0  0  0  0  0
    0.4022   -2.0557    0.3458 H   0  0  0  0  0  0  0  0  0  0  0  0
   -0.7817   -0.1554   -2.4287 H   0  0  0  0  0  0  0  0  0  0  0  0
    0.9178    0.1356   -2.0163 H   0  0  0  0  0  0  0  0  0  0  0  0
    0.1899   -1.5660   -1.9519 H   0  0  0  0  0  0  0  0  0  0  0  0
   -3.3231   -1.2035    0.7951 H   0  0  0  0  0  0  0  0  0  0  0  0
   -2.4676    0.2052    1.4261 H   0  0  0  0  0  0  0  0  0  0  0  0
   -1.8263   -1.4244    1.7043 H   0  0  0  0  0  0  0  0  0  0  0  0
    1.5530    1.7490   -0.7365 H   0  0  0  0  0  0  0  0  0  0  0  0
    1.0138    2.4221    0.9050 H   0  0  0  0  0  0  0  0  0  0  0  0
    0.4233    3.1025   -0.6150 H   0  0  0  0  0  0  0  0  0  0  0  0
  1  2  1  0
  2  3  1  0
  3  4  1  0
  3  5  1  0
  5  6  1  0
  3  7  1  0
  7  8  1  0
  7  9  2  0
  1 10  1  0
  1 11  1  0
  1 12  1  0
  2 13  1  0
  2 14  1  0
  4 15  1  0
  4 16  1  0
  4 17  1  0
  6 18  1  0
  6 19  1  0
  6 20  1  0
  8 21  1  0
  8 22  1  0
  8 23  1  0
M  END
