
     RDKit          3D

 19 18  0  0  0  0  0  0  0  0999 V2000
   -3.1430   -0.1133    0.9183 C   0  0  0  0  0  0  0  0  0  0  0  0
   -2.4914   -0.4344   -0.4138 C   0  0  0  0  0  0  0  0  0  0  0  0
   -1.6125    0.6687   -0.8615 C   0  0  0  0  0  0  0  0  0  0  0  0
   -2.1028    1.7231   -1.3351 O   0  0  0  0  0  0  0  0  0  0  0  0
   -0.1710    0.5066   -0.7420 C   0  0  0  0  0  0  0  0  0  0  0  0
    1.0260    0.3912   -0.6517 C   0  0  0  0  0  0  0  0  0  0  0  0
    2.4863    0.2761   -0.5405 C   0  0  0  0  0  0  0  0  0  0  0  0
    2.8418   -0.7729    0.4747 C   0  0  0  0  0  0  0  0  0  0  0  0
    3.0285    1.5197   -0.2352 O   0  0  0  0  0  0  0  0  0  0  0  0
   -2.9244   -0.8915    1.6935 H   0  0  0  0  0  0  0  0  0  0  0  0
   -4.2343    0.0187    0.8084 H   0  0  0  0  0  0  0  0  0  0  0  0
   -2.7545    0.8505    1.3496 H   0  0  0  0  0  0  0  0  0  0  0  0
   -3.3199   -0.5670   -1.1674 H   0  0  0  0  0  0  0  0  0  0  0  0
   -1.9912   -1.3970   -0.3389 H   0  0  0  0  0  0  0  0  0  0  0  0
    2.9392   -0.0441   -1.5088 H   0  0  0  0  0  0  0  0  0  0  0  0
    2.7252   -1.7835   -0.0122 H   0  0  0  0  0  0  0  0  0  0  0  0
    3.8911   -0.6992    0.8180 H   0  0  0  0  0  0  0  0  0  0  0  0
    2.0952   -0.7336    1.2799 H   0  0  0  0  0  0  0  0  0  0  0  0
    3.7119    1.4819    0.4649 H   0  0  0  0  0  0  0  0  0  0  0  0
  1  2  1  0
  2  3  1  0
  3  4  2  0
  3  5  1  0
  5  6  3  0
  6  7  1  0
  7  8  1  0
  7  9  1  0
  1 10  1  0
  1 11  1  0
  1 12  1  0
  2 13  1  0
  2 14  1  0
  7 15  1  0
  8 16  1  0
  8 17  1  0
  8 18  1  0
  9 19  1  0
M  END
