
     RDKit          3D

 25 25  0  0  0  0  0  0  0  0999 V2000
    1.9682   -1.2483    1.0897 C   0  0  0  0  0  0  0  0  0  0  0  0
    1.8194   -0.2321    0.0098 C   0  0  0  0  0  0  0  0  0  0  0  0
    0.6779    0.7001    0.1154 C   0  0  0  0  0  0  0  0  0  0  0  0
    0.7657    1.6380   -1.1073 C   0  0  0  0  0  0  0  0  0  0  0  0
   -0.6956    0.1454    0.0783 C   0  0  0  0  0  0  0  0  0  0  0  0
   -1.7576    1.2576    0.2025 C   0  0  0  0  0  0  0  0  0  0  0  0
   -1.0956   -0.8831   -0.9384 C   0  0  0  0  0  0  0  0  0  0  0  0
   -1.1256   -1.1624    0.5494 C   0  0  0  0  0  0  0  0  0  0  0  0
   -2.4225   -1.3029    1.1100 O   0  0  0  0  0  0  0  0  0  0  0  0
    1.8602   -2.2714    0.6694 H   0  0  0  0  0  0  0  0  0  0  0  0
    3.0234   -1.2534    1.5050 H   0  0  0  0  0  0  0  0  0  0  0  0
    1.3439   -1.0613    1.9882 H   0  0  0  0  0  0  0  0  0  0  0  0
    1.9013   -0.7429   -0.9812 H   0  0  0  0  0  0  0  0  0  0  0  0
    2.7474    0.4177    0.0375 H   0  0  0  0  0  0  0  0  0  0  0  0
    0.7921    1.3341    0.9993 H   0  0  0  0  0  0  0  0  0  0  0  0
    1.4799    2.4554   -0.9190 H   0  0  0  0  0  0  0  0  0  0  0  0
    1.0851    0.9880   -1.9487 H   0  0  0  0  0  0  0  0  0  0  0  0
   -0.2370    2.0281   -1.3756 H   0  0  0  0  0  0  0  0  0  0  0  0
   -1.3619    2.1355    0.7231 H   0  0  0  0  0  0  0  0  0  0  0  0
   -2.6337    0.9030    0.7750 H   0  0  0  0  0  0  0  0  0  0  0  0
   -2.1178    1.4663   -0.8238 H   0  0  0  0  0  0  0  0  0  0  0  0
   -2.0814   -0.8374   -1.4450 H   0  0  0  0  0  0  0  0  0  0  0  0
   -0.3179   -1.3538   -1.5687 H   0  0  0  0  0  0  0  0  0  0  0  0
   -0.5026   -2.0141    0.8217 H   0  0  0  0  0  0  0  0  0  0  0  0
   -3.1152   -1.1062    0.4335 H   0  0  0  0  0  0  0  0  0  0  0  0
  1  2  1  0
  2  3  1  0
  3  4  1  0
  3  5  1  0
  5  6  1  0
  5  7  1  0
  7  8  1  0
  8  9  1  0
  8  5  1  0
  1 10  1  0
  1 11  1  0
  1 12  1  0
  2 13  1  0
  2 14  1  0
  3 15  1  0
  4 16  1  0
  4 17  1  0
  4 18  1  0
  6 19  1  0
  6 20  1  0
  6 21  1  0
  7 22  1  0
  7 23  1  0
  8 24  1  0
  9 25  1  0
M  END
