
     RDKit          3D

 25 24  0  0  0  0  0  0  0  0999 V2000
   -1.1438   -2.1438   -0.1334 C   0  0  0  0  0  0  0  0  0  0  0  0
   -1.0878   -0.7634   -0.7594 C   0  0  0  0  0  0  0  0  0  0  0  0
   -0.0808    0.1196   -0.0880 C   0  0  0  0  0  0  0  0  0  0  0  0
   -0.3989    0.3161    1.3869 C   0  0  0  0  0  0  0  0  0  0  0  0
    1.2369   -0.6295   -0.1440 C   0  0  0  0  0  0  0  0  0  0  0  0
    2.3675    0.1137    0.4883 C   0  0  0  0  0  0  0  0  0  0  0  0
    0.0286    1.4819   -0.7148 C   0  0  0  0  0  0  0  0  0  0  0  0
   -1.2429    2.2395   -0.6676 C   0  0  0  0  0  0  0  0  0  0  0  0
   -2.2393    1.8109   -0.1473 O   0  0  0  0  0  0  0  0  0  0  0  0
   -2.0608   -2.6343   -0.5648 H   0  0  0  0  0  0  0  0  0  0  0  0
   -0.2944   -2.7318   -0.4890 H   0  0  0  0  0  0  0  0  0  0  0  0
   -1.2515   -2.0666    0.9505 H   0  0  0  0  0  0  0  0  0  0  0  0
   -0.8490   -0.9361   -1.8347 H   0  0  0  0  0  0  0  0  0  0  0  0
   -2.1277   -0.3894   -0.7498 H   0  0  0  0  0  0  0  0  0  0  0  0
   -1.4842    0.3550    1.5146 H   0  0  0  0  0  0  0  0  0  0  0  0
    0.0117    1.3014    1.6873 H   0  0  0  0  0  0  0  0  0  0  0  0
    0.0881   -0.4737    1.9949 H   0  0  0  0  0  0  0  0  0  0  0  0
    1.4955   -0.9479   -1.1697 H   0  0  0  0  0  0  0  0  0  0  0  0
    1.0848   -1.5646    0.4581 H   0  0  0  0  0  0  0  0  0  0  0  0
    3.2886   -0.5095    0.3100 H   0  0  0  0  0  0  0  0  0  0  0  0
    2.2595    0.1362    1.5989 H   0  0  0  0  0  0  0  0  0  0  0  0
    2.5253    1.1295    0.1044 H   0  0  0  0  0  0  0  0  0  0  0  0
    0.7721    2.1278   -0.1651 H   0  0  0  0  0  0  0  0  0  0  0  0
    0.4251    1.4284   -1.7555 H   0  0  0  0  0  0  0  0  0  0  0  0
   -1.3228    3.2307   -1.1108 H   0  0  0  0  0  0  0  0  0  0  0  0
  1  2  1  0
  2  3  1  0
  3  4  1  0
  3  5  1  0
  5  6  1  0
  3  7  1  0
  7  8  1  0
  8  9  2  0
  1 10  1  0
  1 11  1  0
  1 12  1  0
  2 13  1  0
  2 14  1  0
  4 15  1  0
  4 16  1  0
  4 17  1  0
  5 18  1  0
  5 19  1  0
  6 20  1  0
  6 21  1  0
  6 22  1  0
  7 23  1  0
  7 24  1  0
  8 25  1  0
M  END
