
     RDKit          3D

 24 23  0  0  0  0  0  0  0  0999 V2000
   -2.7530    0.0416    1.1028 C   0  0  0  0  0  0  0  0  0  0  0  0
   -1.3343   -0.3360    0.7704 C   0  0  0  0  0  0  0  0  0  0  0  0
   -0.7422    0.6200   -0.2674 C   0  0  0  0  0  0  0  0  0  0  0  0
   -1.6167    0.5227   -1.5237 C   0  0  0  0  0  0  0  0  0  0  0  0
    0.6344    0.1898   -0.6778 C   0  0  0  0  0  0  0  0  0  0  0  0
    1.6001    0.1476    0.4826 C   0  0  0  0  0  0  0  0  0  0  0  0
    2.9444   -0.3047   -0.0978 C   0  0  0  0  0  0  0  0  0  0  0  0
    3.9224   -0.3813    0.8894 O   0  0  0  0  0  0  0  0  0  0  0  0
   -3.4544   -0.7188    0.7209 H   0  0  0  0  0  0  0  0  0  0  0  0
   -3.0319    1.0542    0.7288 H   0  0  0  0  0  0  0  0  0  0  0  0
   -2.8836    0.0811    2.2028 H   0  0  0  0  0  0  0  0  0  0  0  0
   -0.7122   -0.3076    1.6831 H   0  0  0  0  0  0  0  0  0  0  0  0
   -1.3222   -1.3764    0.3934 H   0  0  0  0  0  0  0  0  0  0  0  0
   -0.7992    1.6434    0.1302 H   0  0  0  0  0  0  0  0  0  0  0  0
   -1.9766   -0.5159   -1.6130 H   0  0  0  0  0  0  0  0  0  0  0  0
   -2.4139    1.2790   -1.5157 H   0  0  0  0  0  0  0  0  0  0  0  0
   -0.9675    0.7096   -2.4192 H   0  0  0  0  0  0  0  0  0  0  0  0
    0.5520   -0.7937   -1.1603 H   0  0  0  0  0  0  0  0  0  0  0  0
    0.9769    0.8990   -1.4621 H   0  0  0  0  0  0  0  0  0  0  0  0
    1.2666   -0.6514    1.1707 H   0  0  0  0  0  0  0  0  0  0  0  0
    1.6910    1.1255    0.9736 H   0  0  0  0  0  0  0  0  0  0  0  0
    2.8232   -1.2488   -0.6642 H   0  0  0  0  0  0  0  0  0  0  0  0
    3.3062    0.4534   -0.8490 H   0  0  0  0  0  0  0  0  0  0  0  0
    4.2906    0.5345    1.0017 H   0  0  0  0  0  0  0  0  0  0  0  0
  1  2  1  0
  2  3  1  0
  3  4  1  0
  3  5  1  0
  5  6  1  0
  6  7  1  0
  7  8  1  0
  1  9  1  0
  1 10  1  0
  1 11  1  0
  2 12  1  0
  2 13  1  0
  3 14  1  0
  4 15  1  0
  4 16  1  0
  4 17  1  0
  5 18  1  0
  5 19  1  0
  6 20  1  0
  6 21  1  0
  7 22  1  0
  7 23  1  0
  8 24  1  0
M  END
