
     RDKit          3D

 29 28  0  0  0  0  0  0  0  0999 V2000
   -2.7656   -1.7518    0.3805 C   0  0  0  0  0  0  0  0  0  0  0  0
   -1.3556   -1.7351   -0.0818 C   0  0  0  0  0  0  0  0  0  0  0  0
   -0.6925   -0.3422    0.1925 C   0  0  0  0  0  0  0  0  0  0  0  0
   -1.4849    0.6790   -0.5557 C   0  0  0  0  0  0  0  0  0  0  0  0
   -1.0380    2.0920   -0.4146 C   0  0  0  0  0  0  0  0  0  0  0  0
    0.7044   -0.5426   -0.2533 C   0  0  0  0  0  0  0  0  0  0  0  0
    1.6917    0.5430   -0.1144 C   0  0  0  0  0  0  0  0  0  0  0  0
    1.9354    0.9900    1.2985 C   0  0  0  0  0  0  0  0  0  0  0  0
    3.0360   -0.0600   -0.5884 C   0  0  0  0  0  0  0  0  0  0  0  0
   -3.5008   -1.5160   -0.4414 H   0  0  0  0  0  0  0  0  0  0  0  0
   -3.0117   -2.7927    0.6866 H   0  0  0  0  0  0  0  0  0  0  0  0
   -2.9554   -1.1227    1.2772 H   0  0  0  0  0  0  0  0  0  0  0  0
   -0.7873   -2.5345    0.4249 H   0  0  0  0  0  0  0  0  0  0  0  0
   -1.3236   -1.9409   -1.1653 H   0  0  0  0  0  0  0  0  0  0  0  0
   -0.8036   -0.1955    1.2738 H   0  0  0  0  0  0  0  0  0  0  0  0
   -1.5243    0.3933   -1.6565 H   0  0  0  0  0  0  0  0  0  0  0  0
   -2.5724    0.6580   -0.2705 H   0  0  0  0  0  0  0  0  0  0  0  0
   -0.4282    2.2219    0.4815 H   0  0  0  0  0  0  0  0  0  0  0  0
   -1.9212    2.7994   -0.2972 H   0  0  0  0  0  0  0  0  0  0  0  0
   -0.5459    2.4031   -1.3692 H   0  0  0  0  0  0  0  0  0  0  0  0
    0.6779   -0.8017   -1.3619 H   0  0  0  0  0  0  0  0  0  0  0  0
    1.1218   -1.4446    0.2580 H   0  0  0  0  0  0  0  0  0  0  0  0
    1.4753    1.4028   -0.7938 H   0  0  0  0  0  0  0  0  0  0  0  0
    1.7681    2.0971    1.4342 H   0  0  0  0  0  0  0  0  0  0  0  0
    2.9873    0.8274    1.5923 H   0  0  0  0  0  0  0  0  0  0  0  0
    1.3180    0.3964    2.0026 H   0  0  0  0  0  0  0  0  0  0  0  0
    2.9578   -0.4226   -1.6192 H   0  0  0  0  0  0  0  0  0  0  0  0
    3.1860   -0.9388    0.0740 H   0  0  0  0  0  0  0  0  0  0  0  0
    3.8515    0.6381   -0.3936 H   0  0  0  0  0  0  0  0  0  0  0  0
  1  2  1  0
  2  3  1  0
  3  4  1  0
  4  5  1  0
  3  6  1  0
  6  7  1  0
  7  8  1  0
  7  9  1  0
  1 10  1  0
  1 11  1  0
  1 12  1  0
  2 13  1  0
  2 14  1  0
  3 15  1  0
  4 16  1  0
  4 17  1  0
  5 18  1  0
  5 19  1  0
  5 20  1  0
  6 21  1  0
  6 22  1  0
  7 23  1  0
  8 24  1  0
  8 25  1  0
  8 26  1  0
  9 27  1  0
  9 28  1  0
  9 29  1  0
M  END
