
     RDKit          3D

 23 22  0  0  0  0  0  0  0  0999 V2000
    2.1706   -1.3162    0.6177 C   0  0  0  0  0  0  0  0  0  0  0  0
    1.6534    0.0780    0.6457 C   0  0  0  0  0  0  0  0  0  0  0  0
    0.3589    0.2440   -0.1544 C   0  0  0  0  0  0  0  0  0  0  0  0
    0.6165   -0.1018   -1.4621 O   0  0  0  0  0  0  0  0  0  0  0  0
   -0.0168    1.6871    0.0099 C   0  0  0  0  0  0  0  0  0  0  0  0
   -1.1236    2.0961   -0.6830 O   0  0  0  0  0  0  0  0  0  0  0  0
   -0.6810   -0.6399    0.4632 C   0  0  0  0  0  0  0  0  0  0  0  0
   -2.0193   -0.6169   -0.1890 C   0  0  0  0  0  0  0  0  0  0  0  0
   -2.8283   -1.5230    0.5458 O   0  0  0  0  0  0  0  0  0  0  0  0
    3.2477   -1.3022    0.2899 H   0  0  0  0  0  0  0  0  0  0  0  0
    1.6528   -2.0004   -0.0496 H   0  0  0  0  0  0  0  0  0  0  0  0
    2.2056   -1.7845    1.6395 H   0  0  0  0  0  0  0  0  0  0  0  0
    2.4118    0.7916    0.3010 H   0  0  0  0  0  0  0  0  0  0  0  0
    1.4091    0.3745    1.7009 H   0  0  0  0  0  0  0  0  0  0  0  0
    0.1498    0.4894   -2.1202 H   0  0  0  0  0  0  0  0  0  0  0  0
   -0.1797    1.9490    1.0837 H   0  0  0  0  0  0  0  0  0  0  0  0
    0.8298    2.3623   -0.3123 H   0  0  0  0  0  0  0  0  0  0  0  0
   -1.0802    3.0692   -0.8140 H   0  0  0  0  0  0  0  0  0  0  0  0
   -0.3139   -1.7084    0.4091 H   0  0  0  0  0  0  0  0  0  0  0  0
   -0.7673   -0.4645    1.5746 H   0  0  0  0  0  0  0  0  0  0  0  0
   -1.9332   -1.0610   -1.1985 H   0  0  0  0  0  0  0  0  0  0  0  0
   -2.5275    0.3485   -0.2185 H   0  0  0  0  0  0  0  0  0  0  0  0
   -3.2351   -0.9708    1.2627 H   0  0  0  0  0  0  0  0  0  0  0  0
  1  2  1  0
  2  3  1  0
  3  4  1  0
  3  5  1  0
  5  6  1  0
  3  7  1  0
  7  8  1  0
  8  9  1  0
  1 10  1  0
  1 11  1  0
  1 12  1  0
  2 13  1  0
  2 14  1  0
  4 15  1  0
  5 16  1  0
  5 17  1  0
  6 18  1  0
  7 19  1  0
  7 20  1  0
  8 21  1  0
  8 22  1  0
  9 23  1  0
M  END
