
     RDKit          3D

 20 19  0  0  0  0  0  0  0  0999 V2000
   -2.0750   -0.6432    0.5093 C   0  0  0  0  0  0  0  0  0  0  0  0
   -1.4267    0.3699   -0.4263 C   0  0  0  0  0  0  0  0  0  0  0  0
    0.0849    0.2748   -0.2624 C   0  0  0  0  0  0  0  0  0  0  0  0
    0.4073    0.5919    1.1977 C   0  0  0  0  0  0  0  0  0  0  0  0
    0.7455    1.3190   -1.0780 C   0  0  0  0  0  0  0  0  0  0  0  0
    0.4906    2.4855   -0.8834 O   0  0  0  0  0  0  0  0  0  0  0  0
    0.4747   -1.0002   -0.5989 O   0  0  0  0  0  0  0  0  0  0  0  0
    1.8230   -1.2322   -0.4972 C   0  0  0  0  0  0  0  0  0  0  0  0
   -1.4673   -1.5834    0.4050 H   0  0  0  0  0  0  0  0  0  0  0  0
   -1.9286   -0.2731    1.5397 H   0  0  0  0  0  0  0  0  0  0  0  0
   -3.1286   -0.8086    0.2489 H   0  0  0  0  0  0  0  0  0  0  0  0
   -1.6563    0.0339   -1.4600 H   0  0  0  0  0  0  0  0  0  0  0  0
   -1.8161    1.3702   -0.1899 H   0  0  0  0  0  0  0  0  0  0  0  0
    1.5013    0.7809    1.3142 H   0  0  0  0  0  0  0  0  0  0  0  0
    0.0972   -0.2694    1.7956 H   0  0  0  0  0  0  0  0  0  0  0  0
   -0.0990    1.5211    1.4949 H   0  0  0  0  0  0  0  0  0  0  0  0
    1.4486    1.0353   -1.8394 H   0  0  0  0  0  0  0  0  0  0  0  0
    2.0889   -1.0430    0.5858 H   0  0  0  0  0  0  0  0  0  0  0  0
    2.4469   -0.6095   -1.1631 H   0  0  0  0  0  0  0  0  0  0  0  0
    1.9888   -2.3200   -0.6925 H   0  0  0  0  0  0  0  0  0  0  0  0
  1  2  1  0
  2  3  1  0
  3  4  1  0
  3  5  1  0
  5  6  2  0
  3  7  1  0
  7  8  1  0
  1  9  1  0
  1 10  1  0
  1 11  1  0
  2 12  1  0
  2 13  1  0
  4 14  1  0
  4 15  1  0
  4 16  1  0
  5 17  1  0
  8 18  1  0
  8 19  1  0
  8 20  1  0
M  END
