
     RDKit          3D

 21 20  0  0  0  0  0  0  0  0999 V2000
   -2.4038    0.0160    1.1040 C   0  0  0  0  0  0  0  0  0  0  0  0
   -1.8799    0.0823   -0.2823 C   0  0  0  0  0  0  0  0  0  0  0  0
   -0.4602    0.5328   -0.4094 C   0  0  0  0  0  0  0  0  0  0  0  0
   -0.0917    0.5425   -1.8799 C   0  0  0  0  0  0  0  0  0  0  0  0
    0.5157   -0.3141    0.2920 C   0  0  0  0  0  0  0  0  0  0  0  0
    0.2125   -1.3381    0.9518 O   0  0  0  0  0  0  0  0  0  0  0  0
    1.9117    0.0504    0.2206 C   0  0  0  0  0  0  0  0  0  0  0  0
    2.9630   -0.7434    0.8955 C   0  0  0  0  0  0  0  0  0  0  0  0
    2.2518    1.0620   -0.4261 O   0  0  0  0  0  0  0  0  0  0  0  0
   -3.2915    0.6929    1.2755 H   0  0  0  0  0  0  0  0  0  0  0  0
   -2.7917   -1.0095    1.3260 H   0  0  0  0  0  0  0  0  0  0  0  0
   -1.6586    0.3352    1.8634 H   0  0  0  0  0  0  0  0  0  0  0  0
   -2.5056    0.7951   -0.8596 H   0  0  0  0  0  0  0  0  0  0  0  0
   -2.0126   -0.9087   -0.8078 H   0  0  0  0  0  0  0  0  0  0  0  0
   -0.3643    1.5632   -0.0119 H   0  0  0  0  0  0  0  0  0  0  0  0
    0.3953   -0.4209   -2.1718 H   0  0  0  0  0  0  0  0  0  0  0  0
   -1.0185    0.7037   -2.4636 H   0  0  0  0  0  0  0  0  0  0  0  0
    0.5846    1.3702   -2.0982 H   0  0  0  0  0  0  0  0  0  0  0  0
    2.9465   -1.7716    0.4319 H   0  0  0  0  0  0  0  0  0  0  0  0
    3.9596   -0.3380    0.7112 H   0  0  0  0  0  0  0  0  0  0  0  0
    2.7376   -0.9021    1.9697 H   0  0  0  0  0  0  0  0  0  0  0  0
  1  2  1  0
  2  3  1  0
  3  4  1  0
  3  5  1  0
  5  6  2  0
  5  7  1  0
  7  8  1  0
  7  9  2  0
  1 10  1  0
  1 11  1  0
  1 12  1  0
  2 13  1  0
  2 14  1  0
  3 15  1  0
  4 16  1  0
  4 17  1  0
  4 18  1  0
  8 19  1  0
  8 20  1  0
  8 21  1  0
M  END
