
     RDKit          3D

 29 28  0  0  0  0  0  0  0  0999 V2000
    3.2851   -1.0607    0.4104 C   0  0  0  0  0  0  0  0  0  0  0  0
    1.8341   -0.6437    0.5239 C   0  0  0  0  0  0  0  0  0  0  0  0
    1.4956    0.4279   -0.4878 C   0  0  0  0  0  0  0  0  0  0  0  0
    2.3646    1.6550   -0.2688 C   0  0  0  0  0  0  0  0  0  0  0  0
    0.0393    0.8234   -0.4245 C   0  0  0  0  0  0  0  0  0  0  0  0
   -0.8932   -0.2862   -0.6901 C   0  0  0  0  0  0  0  0  0  0  0  0
   -2.3468    0.0550   -0.6468 C   0  0  0  0  0  0  0  0  0  0  0  0
   -2.8262    0.5875    0.6602 C   0  0  0  0  0  0  0  0  0  0  0  0
   -3.1268   -1.2246   -0.9420 C   0  0  0  0  0  0  0  0  0  0  0  0
    3.6593   -0.9777   -0.6213 H   0  0  0  0  0  0  0  0  0  0  0  0
    3.9036   -0.4695    1.1369 H   0  0  0  0  0  0  0  0  0  0  0  0
    3.3887   -2.1163    0.7337 H   0  0  0  0  0  0  0  0  0  0  0  0
    1.6273   -0.3200    1.5403 H   0  0  0  0  0  0  0  0  0  0  0  0
    1.2460   -1.5558    0.3043 H   0  0  0  0  0  0  0  0  0  0  0  0
    1.6982    0.0703   -1.5180 H   0  0  0  0  0  0  0  0  0  0  0  0
    2.3243    2.0364    0.7508 H   0  0  0  0  0  0  0  0  0  0  0  0
    2.0645    2.4019   -1.0161 H   0  0  0  0  0  0  0  0  0  0  0  0
    3.4110    1.3270   -0.5182 H   0  0  0  0  0  0  0  0  0  0  0  0
   -0.1164    1.2131    0.6264 H   0  0  0  0  0  0  0  0  0  0  0  0
   -0.0760    1.7123   -1.0685 H   0  0  0  0  0  0  0  0  0  0  0  0
   -0.6968   -1.1020    0.0512 H   0  0  0  0  0  0  0  0  0  0  0  0
   -0.6777   -0.7236   -1.6868 H   0  0  0  0  0  0  0  0  0  0  0  0
   -2.5933    0.7754   -1.4549 H   0  0  0  0  0  0  0  0  0  0  0  0
   -2.4531    1.5984    0.9028 H   0  0  0  0  0  0  0  0  0  0  0  0
   -3.9321    0.6729    0.6075 H   0  0  0  0  0  0  0  0  0  0  0  0
   -2.6252   -0.1533    1.4759 H   0  0  0  0  0  0  0  0  0  0  0  0
   -3.2398   -1.4057   -2.0203 H   0  0  0  0  0  0  0  0  0  0  0  0
   -2.6042   -2.1128   -0.5104 H   0  0  0  0  0  0  0  0  0  0  0  0
   -4.1339   -1.2049   -0.4774 H   0  0  0  0  0  0  0  0  0  0  0  0
  1  2  1  0
  2  3  1  0
  3  4  1  0
  3  5  1  0
  5  6  1  0
  6  7  1  0
  7  8  1  0
  7  9  1  0
  1 10  1  0
  1 11  1  0
  1 12  1  0
  2 13  1  0
  2 14  1  0
  3 15  1  0
  4 16  1  0
  4 17  1  0
  4 18  1  0
  5 19  1  0
  5 20  1  0
  6 21  1  0
  6 22  1  0
  7 23  1  0
  8 24  1  0
  8 25  1  0
  8 26  1  0
  9 27  1  0
  9 28  1  0
  9 29  1  0
M  END
