
     RDKit          3D

 25 25  0  0  0  0  0  0  0  0999 V2000
    2.5123   -0.2776   -1.0107 C   0  0  0  0  0  0  0  0  0  0  0  0
    1.9075   -0.1297    0.3389 C   0  0  0  0  0  0  0  0  0  0  0  0
    0.5112    0.5439    0.2845 C   0  0  0  0  0  0  0  0  0  0  0  0
    0.1308    0.5825    1.7527 C   0  0  0  0  0  0  0  0  0  0  0  0
   -0.3243   -0.3480   -0.5598 C   0  0  0  0  0  0  0  0  0  0  0  0
    0.2047   -0.5217   -1.8686 O   0  0  0  0  0  0  0  0  0  0  0  0
   -1.1236   -1.3919    0.0907 C   0  0  0  0  0  0  0  0  0  0  0  0
   -1.8177   -0.3015   -0.6019 C   0  0  0  0  0  0  0  0  0  0  0  0
   -2.5067    0.8378    0.0591 C   0  0  0  0  0  0  0  0  0  0  0  0
    2.2322    0.5783   -1.6710 H   0  0  0  0  0  0  0  0  0  0  0  0
    3.6412   -0.2006   -0.9355 H   0  0  0  0  0  0  0  0  0  0  0  0
    2.3629   -1.2689   -1.4902 H   0  0  0  0  0  0  0  0  0  0  0  0
    1.7538   -1.1217    0.8507 H   0  0  0  0  0  0  0  0  0  0  0  0
    2.5756    0.4433    1.0147 H   0  0  0  0  0  0  0  0  0  0  0  0
    0.6629    1.5623   -0.1250 H   0  0  0  0  0  0  0  0  0  0  0  0
   -0.7966    1.0730    1.9968 H   0  0  0  0  0  0  0  0  0  0  0  0
    0.9630    1.1949    2.2287 H   0  0  0  0  0  0  0  0  0  0  0  0
    0.2210   -0.4389    2.1568 H   0  0  0  0  0  0  0  0  0  0  0  0
   -0.2056    0.2135   -2.3937 H   0  0  0  0  0  0  0  0  0  0  0  0
   -1.1002   -2.4193   -0.3837 H   0  0  0  0  0  0  0  0  0  0  0  0
   -1.1949   -1.4665    1.1810 H   0  0  0  0  0  0  0  0  0  0  0  0
   -2.3324   -0.6364   -1.5525 H   0  0  0  0  0  0  0  0  0  0  0  0
   -2.9031    0.5739    1.0817 H   0  0  0  0  0  0  0  0  0  0  0  0
   -3.4465    1.1277   -0.5104 H   0  0  0  0  0  0  0  0  0  0  0  0
   -1.9275    1.7916    0.0667 H   0  0  0  0  0  0  0  0  0  0  0  0
  1  2  1  0
  2  3  1  0
  3  4  1  0
  3  5  1  0
  5  6  1  0
  5  7  1  0
  7  8  1  0
  8  9  1  0
  8  5  1  0
  1 10  1  0
  1 11  1  0
  1 12  1  0
  2 13  1  0
  2 14  1  0
  3 15  1  0
  4 16  1  0
  4 17  1  0
  4 18  1  0
  6 19  1  0
  7 20  1  0
  7 21  1  0
  8 22  1  0
  9 23  1  0
  9 24  1  0
  9 25  1  0
M  END
