
     RDKit          3D

 27 27  0  0  0  0  0  0  0  0999 V2000
    2.3714   -1.0332   -0.2746 C   0  0  0  0  0  0  0  0  0  0  0  0
    1.8260   -0.1560    0.8157 C   0  0  0  0  0  0  0  0  0  0  0  0
    0.7626    0.7904    0.3667 C   0  0  0  0  0  0  0  0  0  0  0  0
    1.2443    1.7198   -0.6841 C   0  0  0  0  0  0  0  0  0  0  0  0
   -0.5625    0.1271    0.0694 C   0  0  0  0  0  0  0  0  0  0  0  0
   -1.2637   -0.6132    1.1624 C   0  0  0  0  0  0  0  0  0  0  0  0
   -2.5561   -1.2231    0.7413 C   0  0  0  0  0  0  0  0  0  0  0  0
   -1.4730    1.0022   -0.7848 C   0  0  0  0  0  0  0  0  0  0  0  0
   -0.8193   -0.2567   -1.3442 C   0  0  0  0  0  0  0  0  0  0  0  0
    3.4229   -1.2964   -0.0105 H   0  0  0  0  0  0  0  0  0  0  0  0
    2.3878   -0.5637   -1.2659 H   0  0  0  0  0  0  0  0  0  0  0  0
    1.8324   -2.0086   -0.3440 H   0  0  0  0  0  0  0  0  0  0  0  0
    1.5126   -0.8037    1.6438 H   0  0  0  0  0  0  0  0  0  0  0  0
    2.6746    0.4557    1.1965 H   0  0  0  0  0  0  0  0  0  0  0  0
    0.5415    1.4337    1.2765 H   0  0  0  0  0  0  0  0  0  0  0  0
    1.1360    1.4155   -1.7188 H   0  0  0  0  0  0  0  0  0  0  0  0
    2.3259    1.9470   -0.4364 H   0  0  0  0  0  0  0  0  0  0  0  0
    0.7059    2.7067   -0.5668 H   0  0  0  0  0  0  0  0  0  0  0  0
   -1.4899    0.1343    1.9684 H   0  0  0  0  0  0  0  0  0  0  0  0
   -0.6363   -1.3830    1.6469 H   0  0  0  0  0  0  0  0  0  0  0  0
   -2.4473   -1.9787   -0.0665 H   0  0  0  0  0  0  0  0  0  0  0  0
   -2.9650   -1.7730    1.6448 H   0  0  0  0  0  0  0  0  0  0  0  0
   -3.2952   -0.4478    0.5170 H   0  0  0  0  0  0  0  0  0  0  0  0
   -1.0716    1.9534   -1.2062 H   0  0  0  0  0  0  0  0  0  0  0  0
   -2.5466    1.0421   -0.6192 H   0  0  0  0  0  0  0  0  0  0  0  0
   -1.5831   -1.0167   -1.6210 H   0  0  0  0  0  0  0  0  0  0  0  0
   -0.0345   -0.1740   -2.1063 H   0  0  0  0  0  0  0  0  0  0  0  0
  1  2  1  0
  2  3  1  0
  3  4  1  0
  3  5  1  0
  5  6  1  0
  6  7  1  0
  5  8  1  0
  8  9  1  0
  9  5  1  0
  1 10  1  0
  1 11  1  0
  1 12  1  0
  2 13  1  0
  2 14  1  0
  3 15  1  0
  4 16  1  0
  4 17  1  0
  4 18  1  0
  6 19  1  0
  6 20  1  0
  7 21  1  0
  7 22  1  0
  7 23  1  0
  8 24  1  0
  8 25  1  0
  9 26  1  0
  9 27  1  0
M  END
