
     RDKit          3D

 24 23  0  0  0  0  0  0  0  0999 V2000
    2.6155   -0.4761    0.6056 C   0  0  0  0  0  0  0  0  0  0  0  0
    1.1946   -0.0359    0.7687 C   0  0  0  0  0  0  0  0  0  0  0  0
    0.3400   -0.3706   -0.4257 C   0  0  0  0  0  0  0  0  0  0  0  0
    0.9349    0.3348   -1.6267 C   0  0  0  0  0  0  0  0  0  0  0  0
   -1.0951   -0.0011   -0.2614 C   0  0  0  0  0  0  0  0  0  0  0  0
   -1.3357    1.4519   -0.0273 C   0  0  0  0  0  0  0  0  0  0  0  0
   -1.7352   -0.8846    0.8076 C   0  0  0  0  0  0  0  0  0  0  0  0
   -3.0800   -0.5606    0.9826 O   0  0  0  0  0  0  0  0  0  0  0  0
    2.8946   -0.6771   -0.4516 H   0  0  0  0  0  0  0  0  0  0  0  0
    2.8069   -1.4030    1.2104 H   0  0  0  0  0  0  0  0  0  0  0  0
    3.3184    0.2809    1.0052 H   0  0  0  0  0  0  0  0  0  0  0  0
    1.2110    1.0772    0.9186 H   0  0  0  0  0  0  0  0  0  0  0  0
    0.8169   -0.4551    1.7160 H   0  0  0  0  0  0  0  0  0  0  0  0
    0.4075   -1.4596   -0.5989 H   0  0  0  0  0  0  0  0  0  0  0  0
    1.2100    1.3587   -1.3242 H   0  0  0  0  0  0  0  0  0  0  0  0
    1.7434   -0.2399   -2.0817 H   0  0  0  0  0  0  0  0  0  0  0  0
    0.0872    0.4213   -2.3689 H   0  0  0  0  0  0  0  0  0  0  0  0
   -1.6133   -0.2852   -1.2150 H   0  0  0  0  0  0  0  0  0  0  0  0
   -0.4059    2.0636   -0.0789 H   0  0  0  0  0  0  0  0  0  0  0  0
   -1.8404    1.6424    0.9614 H   0  0  0  0  0  0  0  0  0  0  0  0
   -2.0255    1.8908   -0.7840 H   0  0  0  0  0  0  0  0  0  0  0  0
   -1.1719   -0.9051    1.7383 H   0  0  0  0  0  0  0  0  0  0  0  0
   -1.7269   -1.9222    0.3721 H   0  0  0  0  0  0  0  0  0  0  0  0
   -3.5508   -0.8457    0.1578 H   0  0  0  0  0  0  0  0  0  0  0  0
  1  2  1  0
  2  3  1  0
  3  4  1  0
  3  5  1  0
  5  6  1  0
  5  7  1  0
  7  8  1  0
  1  9  1  0
  1 10  1  0
  1 11  1  0
  2 12  1  0
  2 13  1  0
  3 14  1  0
  4 15  1  0
  4 16  1  0
  4 17  1  0
  5 18  1  0
  6 19  1  0
  6 20  1  0
  6 21  1  0
  7 22  1  0
  7 23  1  0
  8 24  1  0
M  END
