
     RDKit          3D

 20 19  0  0  0  0  0  0  0  0999 V2000
    2.2733   -0.8532   -0.4992 C   0  0  0  0  0  0  0  0  0  0  0  0
    1.5048    0.3563   -0.0812 C   0  0  0  0  0  0  0  0  0  0  0  0
    0.0214    0.2298   -0.2479 C   0  0  0  0  0  0  0  0  0  0  0  0
   -0.6047    1.5282    0.2165 C   0  0  0  0  0  0  0  0  0  0  0  0
   -1.9857    1.5122    0.1016 O   0  0  0  0  0  0  0  0  0  0  0  0
   -0.5466   -0.9147    0.5003 C   0  0  0  0  0  0  0  0  0  0  0  0
   -2.0038   -1.2000    0.4556 C   0  0  0  0  0  0  0  0  0  0  0  0
    0.1901   -1.6263    1.1570 O   0  0  0  0  0  0  0  0  0  0  0  0
    2.3660   -1.6298    0.2739 H   0  0  0  0  0  0  0  0  0  0  0  0
    3.3264   -0.5061   -0.7100 H   0  0  0  0  0  0  0  0  0  0  0  0
    1.8852   -1.2262   -1.4612 H   0  0  0  0  0  0  0  0  0  0  0  0
    1.7440    0.6607    0.9594 H   0  0  0  0  0  0  0  0  0  0  0  0
    1.8343    1.2085   -0.7237 H   0  0  0  0  0  0  0  0  0  0  0  0
   -0.1830    0.0542   -1.3199 H   0  0  0  0  0  0  0  0  0  0  0  0
   -0.1438    2.3372   -0.4043 H   0  0  0  0  0  0  0  0  0  0  0  0
   -0.2600    1.6816    1.2651 H   0  0  0  0  0  0  0  0  0  0  0  0
   -2.3101    2.3820    0.4440 H   0  0  0  0  0  0  0  0  0  0  0  0
   -2.5078   -0.7134   -0.3870 H   0  0  0  0  0  0  0  0  0  0  0  0
   -2.5034   -0.9687    1.4252 H   0  0  0  0  0  0  0  0  0  0  0  0
   -2.0968   -2.3122    0.3425 H   0  0  0  0  0  0  0  0  0  0  0  0
  1  2  1  0
  2  3  1  0
  3  4  1  0
  4  5  1  0
  3  6  1  0
  6  7  1  0
  6  8  2  0
  1  9  1  0
  1 10  1  0
  1 11  1  0
  2 12  1  0
  2 13  1  0
  3 14  1  0
  4 15  1  0
  4 16  1  0
  5 17  1  0
  7 18  1  0
  7 19  1  0
  7 20  1  0
M  END
