
     RDKit          3D

 25 24  0  0  0  0  0  0  0  0999 V2000
    2.0286   -0.5648   -0.9102 C   0  0  0  0  0  0  0  0  0  0  0  0
    1.4204    0.5828   -0.1836 C   0  0  0  0  0  0  0  0  0  0  0  0
    0.3351    0.2662    0.7851 C   0  0  0  0  0  0  0  0  0  0  0  0
   -0.1046    1.5745    1.3948 C   0  0  0  0  0  0  0  0  0  0  0  0
   -0.5711    2.4921    0.4626 O   0  0  0  0  0  0  0  0  0  0  0  0
   -0.7282   -0.6641    0.4124 C   0  0  0  0  0  0  0  0  0  0  0  0
   -0.2934   -2.0732    0.0903 C   0  0  0  0  0  0  0  0  0  0  0  0
   -1.6529   -0.2505   -0.7077 C   0  0  0  0  0  0  0  0  0  0  0  0
   -2.3602    0.9135   -0.4548 O   0  0  0  0  0  0  0  0  0  0  0  0
    3.1008   -0.2917   -1.2092 H   0  0  0  0  0  0  0  0  0  0  0  0
    1.4837   -0.7232   -1.8870 H   0  0  0  0  0  0  0  0  0  0  0  0
    2.1549   -1.4914   -0.3523 H   0  0  0  0  0  0  0  0  0  0  0  0
    2.2790    1.1021    0.3579 H   0  0  0  0  0  0  0  0  0  0  0  0
    1.1036    1.4011   -0.9105 H   0  0  0  0  0  0  0  0  0  0  0  0
    0.8954   -0.2514    1.6549 H   0  0  0  0  0  0  0  0  0  0  0  0
   -0.9072    1.4461    2.1463 H   0  0  0  0  0  0  0  0  0  0  0  0
    0.7414    2.0582    1.9265 H   0  0  0  0  0  0  0  0  0  0  0  0
    0.1107    3.1704    0.2170 H   0  0  0  0  0  0  0  0  0  0  0  0
   -1.4492   -0.8079    1.2927 H   0  0  0  0  0  0  0  0  0  0  0  0
   -1.2254   -2.7246    0.2331 H   0  0  0  0  0  0  0  0  0  0  0  0
    0.4114   -2.4859    0.8509 H   0  0  0  0  0  0  0  0  0  0  0  0
   -0.0010   -2.2557   -0.9389 H   0  0  0  0  0  0  0  0  0  0  0  0
   -1.1430   -0.2240   -1.6888 H   0  0  0  0  0  0  0  0  0  0  0  0
   -2.4169   -1.0674   -0.7922 H   0  0  0  0  0  0  0  0  0  0  0  0
   -3.2119    0.8689   -0.9333 H   0  0  0  0  0  0  0  0  0  0  0  0
  1  2  1  0
  2  3  1  0
  3  4  1  0
  4  5  1  0
  3  6  1  0
  6  7  1  0
  6  8  1  0
  8  9  1  0
  1 10  1  0
  1 11  1  0
  1 12  1  0
  2 13  1  0
  2 14  1  0
  3 15  1  0
  4 16  1  0
  4 17  1  0
  5 18  1  0
  6 19  1  0
  7 20  1  0
  7 21  1  0
  7 22  1  0
  8 23  1  0
  8 24  1  0
  9 25  1  0
M  END
