
     RDKit          3D

 15 14  0  0  0  0  0  0  0  0999 V2000
   -1.9425   -0.1818    0.0632 C   0  0  0  0  0  0  0  0  0  0  0  0
   -0.6171    0.4115    0.4828 C   0  0  0  0  0  0  0  0  0  0  0  0
    0.5395   -0.2988   -0.2035 C   0  0  0  0  0  0  0  0  0  0  0  0
    1.8344    0.3454    0.2614 C   0  0  0  0  0  0  0  0  0  0  0  0
    0.4952   -0.1761   -1.5717 O   0  0  0  0  0  0  0  0  0  0  0  0
   -1.9806   -0.3838   -1.0244 H   0  0  0  0  0  0  0  0  0  0  0  0
   -2.1531   -1.1057    0.6371 H   0  0  0  0  0  0  0  0  0  0  0  0
   -2.7491    0.5387    0.3537 H   0  0  0  0  0  0  0  0  0  0  0  0
   -0.5370    0.2650    1.5803 H   0  0  0  0  0  0  0  0  0  0  0  0
   -0.5620    1.5056    0.3060 H   0  0  0  0  0  0  0  0  0  0  0  0
    0.5921   -1.3573    0.1117 H   0  0  0  0  0  0  0  0  0  0  0  0
    1.8307    0.4407    1.3632 H   0  0  0  0  0  0  0  0  0  0  0  0
    1.9077    1.3237   -0.2591 H   0  0  0  0  0  0  0  0  0  0  0  0
    2.6941   -0.2744   -0.0813 H   0  0  0  0  0  0  0  0  0  0  0  0
    0.6475   -1.0525   -2.0193 H   0  0  0  0  0  0  0  0  0  0  0  0
  1  2  1  0
  2  3  1  0
  3  4  1  0
  3  5  1  0
  1  6  1  0
  1  7  1  0
  1  8  1  0
  2  9  1  0
  2 10  1  0
  3 11  1  0
  4 12  1  0
  4 13  1  0
  4 14  1  0
  5 15  1  0
M  END
