
     RDKit          3D

 25 26  0  0  0  0  0  0  0  0999 V2000
    2.4801    0.3121    0.7122 C   0  0  0  0  0  0  0  0  0  0  0  0
    1.8133    0.5112   -0.6219 C   0  0  0  0  0  0  0  0  0  0  0  0
    0.5458   -0.2445   -0.7800 C   0  0  0  0  0  0  0  0  0  0  0  0
    0.7257   -1.7399   -0.6478 C   0  0  0  0  0  0  0  0  0  0  0  0
   -0.5857    0.1972    0.0509 C   0  0  0  0  0  0  0  0  0  0  0  0
   -1.1700    1.5691   -0.0169 C   0  0  0  0  0  0  0  0  0  0  0  0
   -2.5713    1.0217   -0.2046 C   0  0  0  0  0  0  0  0  0  0  0  0
   -1.9820   -0.3821   -0.2598 C   0  0  0  0  0  0  0  0  0  0  0  0
   -1.2255   -0.8026    0.9443 C   0  0  0  0  0  0  0  0  0  0  0  0
    3.3303    1.0264    0.7743 H   0  0  0  0  0  0  0  0  0  0  0  0
    1.7961    0.5601    1.5429 H   0  0  0  0  0  0  0  0  0  0  0  0
    2.9162   -0.6997    0.8122 H   0  0  0  0  0  0  0  0  0  0  0  0
    2.5309    0.1159   -1.4004 H   0  0  0  0  0  0  0  0  0  0  0  0
    1.6486    1.5685   -0.7992 H   0  0  0  0  0  0  0  0  0  0  0  0
    0.2333   -0.0981   -1.8602 H   0  0  0  0  0  0  0  0  0  0  0  0
    1.4788   -2.1330   -1.3685 H   0  0  0  0  0  0  0  0  0  0  0  0
   -0.2189   -2.2900   -0.8318 H   0  0  0  0  0  0  0  0  0  0  0  0
    1.0701   -2.0213    0.3708 H   0  0  0  0  0  0  0  0  0  0  0  0
   -0.8987    2.2059   -0.8566 H   0  0  0  0  0  0  0  0  0  0  0  0
   -1.1446    2.1632    0.9273 H   0  0  0  0  0  0  0  0  0  0  0  0
   -3.0701    1.3083   -1.1357 H   0  0  0  0  0  0  0  0  0  0  0  0
   -3.2109    1.0733    0.7227 H   0  0  0  0  0  0  0  0  0  0  0  0
   -2.0333   -0.9631   -1.1766 H   0  0  0  0  0  0  0  0  0  0  0  0
   -0.8262   -1.8189    1.0368 H   0  0  0  0  0  0  0  0  0  0  0  0
   -1.6319   -0.4398    1.9235 H   0  0  0  0  0  0  0  0  0  0  0  0
  1  2  1  0
  2  3  1  0
  3  4  1  0
  3  5  1  0
  5  6  1  0
  6  7  1  0
  7  8  1  0
  8  9  1  0
  8  5  1  0
  9  5  1  0
  1 10  1  0
  1 11  1  0
  1 12  1  0
  2 13  1  0
  2 14  1  0
  3 15  1  0
  4 16  1  0
  4 17  1  0
  4 18  1  0
  6 19  1  0
  6 20  1  0
  7 21  1  0
  7 22  1  0
  8 23  1  0
  9 24  1  0
  9 25  1  0
M  END
