
     RDKit          3D

 16 15  0  0  0  0  0  0  0  0999 V2000
   -1.3937   -1.2129   -0.1828 C   0  0  0  0  0  0  0  0  0  0  0  0
   -1.1356    0.1813    0.2949 C   0  0  0  0  0  0  0  0  0  0  0  0
    0.2605    0.6695   -0.1147 C   0  0  0  0  0  0  0  0  0  0  0  0
    0.3960    2.0419    0.4080 C   0  0  0  0  0  0  0  0  0  0  0  0
    1.2175    2.2955    1.2500 O   0  0  0  0  0  0  0  0  0  0  0  0
    1.1754   -0.2307    0.4821 O   0  0  0  0  0  0  0  0  0  0  0  0
    2.0654   -1.0044   -0.2468 C   0  0  0  0  0  0  0  0  0  0  0  0
    2.0798   -0.9196   -1.5060 O   0  0  0  0  0  0  0  0  0  0  0  0
   -1.9089   -1.1517   -1.1601 H   0  0  0  0  0  0  0  0  0  0  0  0
   -0.4798   -1.8344   -0.2555 H   0  0  0  0  0  0  0  0  0  0  0  0
   -2.0577   -1.7050    0.5850 H   0  0  0  0  0  0  0  0  0  0  0  0
   -1.9120    0.8747   -0.0878 H   0  0  0  0  0  0  0  0  0  0  0  0
   -1.1445    0.1869    1.4075 H   0  0  0  0  0  0  0  0  0  0  0  0
    0.3638    0.6593   -1.2197 H   0  0  0  0  0  0  0  0  0  0  0  0
   -0.2450    2.8079    0.0291 H   0  0  0  0  0  0  0  0  0  0  0  0
    2.7188   -1.6581    0.3168 H   0  0  0  0  0  0  0  0  0  0  0  0
  1  2  1  0
  2  3  1  0
  3  4  1  0
  4  5  2  0
  3  6  1  0
  6  7  1  0
  7  8  2  0
  1  9  1  0
  1 10  1  0
  1 11  1  0
  2 12  1  0
  2 13  1  0
  3 14  1  0
  4 15  1  0
  7 16  1  0
M  END
