
     RDKit          3D

 17 16  0  0  0  0  0  0  0  0999 V2000
   -1.3602   -0.2032   -2.5558 C   0  0  0  0  0  0  0  0  0  0  0  0
   -0.5230   -0.1280   -1.2986 C   0  0  0  0  0  0  0  0  0  0  0  0
   -1.2895    0.4517   -0.1632 C   0  0  0  0  0  0  0  0  0  0  0  0
   -2.4428    0.7800   -0.3770 O   0  0  0  0  0  0  0  0  0  0  0  0
   -0.7407    0.6483    1.1842 C   0  0  0  0  0  0  0  0  0  0  0  0
    0.6593    0.1739    1.2133 C   0  0  0  0  0  0  0  0  0  0  0  0
    1.7987   -0.1906    1.2410 C   0  0  0  0  0  0  0  0  0  0  0  0
    3.1679   -0.6183    1.2660 C   0  0  0  0  0  0  0  0  0  0  0  0
    4.0430    0.2160    1.6072 O   0  0  0  0  0  0  0  0  0  0  0  0
   -2.2973    0.3919   -2.3527 H   0  0  0  0  0  0  0  0  0  0  0  0
   -0.8368    0.2276   -3.4332 H   0  0  0  0  0  0  0  0  0  0  0  0
   -1.6971   -1.2428   -2.7176 H   0  0  0  0  0  0  0  0  0  0  0  0
   -0.2607   -1.1668   -1.0031 H   0  0  0  0  0  0  0  0  0  0  0  0
    0.4094    0.4444   -1.5010 H   0  0  0  0  0  0  0  0  0  0  0  0
   -1.3565    0.0856    1.9046 H   0  0  0  0  0  0  0  0  0  0  0  0
   -0.7883    1.7393    1.4100 H   0  0  0  0  0  0  0  0  0  0  0  0
    3.5145   -1.6090    1.0132 H   0  0  0  0  0  0  0  0  0  0  0  0
  1  2  1  0
  2  3  1  0
  3  4  2  0
  3  5  1  0
  5  6  1  0
  6  7  3  0
  7  8  1  0
  8  9  2  0
  1 10  1  0
  1 11  1  0
  1 12  1  0
  2 13  1  0
  2 14  1  0
  5 15  1  0
  5 16  1  0
  8 17  1  0
M  END
