
     RDKit          3D

 27 27  0  0  0  0  0  0  0  0999 V2000
   -2.6487    0.7663    0.5203 C   0  0  0  0  0  0  0  0  0  0  0  0
   -1.3222    0.9640   -0.1941 C   0  0  0  0  0  0  0  0  0  0  0  0
   -0.5431   -0.3257   -0.1593 C   0  0  0  0  0  0  0  0  0  0  0  0
   -1.4418   -1.3464   -0.8872 C   0  0  0  0  0  0  0  0  0  0  0  0
   -0.3951   -0.8683    1.2410 C   0  0  0  0  0  0  0  0  0  0  0  0
    0.7254   -0.2889   -0.9323 C   0  0  0  0  0  0  0  0  0  0  0  0
    1.7412    0.7150   -0.5335 C   0  0  0  0  0  0  0  0  0  0  0  0
    2.3751    0.7869    0.7833 C   0  0  0  0  0  0  0  0  0  0  0  0
    3.1451    0.1703   -0.3341 C   0  0  0  0  0  0  0  0  0  0  0  0
   -2.4689    0.5066    1.5801 H   0  0  0  0  0  0  0  0  0  0  0  0
   -3.2666    0.0325   -0.0223 H   0  0  0  0  0  0  0  0  0  0  0  0
   -3.1738    1.7619    0.5212 H   0  0  0  0  0  0  0  0  0  0  0  0
   -1.5799    1.2663   -1.2304 H   0  0  0  0  0  0  0  0  0  0  0  0
   -0.8121    1.8070    0.2823 H   0  0  0  0  0  0  0  0  0  0  0  0
   -1.8953   -0.8899   -1.7873 H   0  0  0  0  0  0  0  0  0  0  0  0
   -2.2308   -1.7165   -0.1986 H   0  0  0  0  0  0  0  0  0  0  0  0
   -0.7843   -2.1614   -1.1990 H   0  0  0  0  0  0  0  0  0  0  0  0
   -0.2337   -0.0780    1.9984 H   0  0  0  0  0  0  0  0  0  0  0  0
   -1.2968   -1.4911    1.5157 H   0  0  0  0  0  0  0  0  0  0  0  0
    0.4732   -1.5432    1.2903 H   0  0  0  0  0  0  0  0  0  0  0  0
    1.1776   -1.3026   -0.8670 H   0  0  0  0  0  0  0  0  0  0  0  0
    0.4725   -0.0908   -2.0170 H   0  0  0  0  0  0  0  0  0  0  0  0
    1.7844    1.6900   -1.1187 H   0  0  0  0  0  0  0  0  0  0  0  0
    2.8022    1.7687    1.1294 H   0  0  0  0  0  0  0  0  0  0  0  0
    2.1165    0.1529    1.6528 H   0  0  0  0  0  0  0  0  0  0  0  0
    4.0123    0.6568   -0.7776 H   0  0  0  0  0  0  0  0  0  0  0  0
    3.2676   -0.9426   -0.2566 H   0  0  0  0  0  0  0  0  0  0  0  0
  1  2  1  0
  2  3  1  0
  3  4  1  0
  3  5  1  0
  3  6  1  0
  6  7  1  0
  7  8  1  0
  8  9  1  0
  9  7  1  0
  1 10  1  0
  1 11  1  0
  1 12  1  0
  2 13  1  0
  2 14  1  0
  4 15  1  0
  4 16  1  0
  4 17  1  0
  5 18  1  0
  5 19  1  0
  5 20  1  0
  6 21  1  0
  6 22  1  0
  7 23  1  0
  8 24  1  0
  8 25  1  0
  9 26  1  0
  9 27  1  0
M  END
