
     RDKit          3D

 25 25  0  0  0  0  0  0  0  0999 V2000
   -1.8967    1.5228    0.2173 C   0  0  0  0  0  0  0  0  0  0  0  0
   -1.7577    0.1345   -0.2872 C   0  0  0  0  0  0  0  0  0  0  0  0
   -0.7910   -0.7644    0.3627 C   0  0  0  0  0  0  0  0  0  0  0  0
   -0.8956   -2.1101   -0.3863 C   0  0  0  0  0  0  0  0  0  0  0  0
    0.6353   -0.4220    0.3735 C   0  0  0  0  0  0  0  0  0  0  0  0
    1.2768   -0.2703   -0.9877 C   0  0  0  0  0  0  0  0  0  0  0  0
    2.4652    0.5400   -0.6454 C   0  0  0  0  0  0  0  0  0  0  0  0
    2.3978    1.0979    0.5412 C   0  0  0  0  0  0  0  0  0  0  0  0
    1.1112    0.7225    1.1720 C   0  0  0  0  0  0  0  0  0  0  0  0
   -1.8952    1.6335    1.3118 H   0  0  0  0  0  0  0  0  0  0  0  0
   -1.2419    2.2625   -0.3175 H   0  0  0  0  0  0  0  0  0  0  0  0
   -2.9320    1.8779   -0.0853 H   0  0  0  0  0  0  0  0  0  0  0  0
   -1.6458    0.1898   -1.3959 H   0  0  0  0  0  0  0  0  0  0  0  0
   -2.7715   -0.3563   -0.1576 H   0  0  0  0  0  0  0  0  0  0  0  0
   -1.1161   -0.9608    1.4026 H   0  0  0  0  0  0  0  0  0  0  0  0
   -0.2968   -1.9484   -1.3194 H   0  0  0  0  0  0  0  0  0  0  0  0
   -0.4063   -2.9152    0.1621 H   0  0  0  0  0  0  0  0  0  0  0  0
   -1.9237   -2.3134   -0.6993 H   0  0  0  0  0  0  0  0  0  0  0  0
    1.1618   -1.3319    0.8111 H   0  0  0  0  0  0  0  0  0  0  0  0
    1.6201   -1.2540   -1.4017 H   0  0  0  0  0  0  0  0  0  0  0  0
    0.6208    0.1802   -1.7374 H   0  0  0  0  0  0  0  0  0  0  0  0
    3.3162    0.6494   -1.3409 H   0  0  0  0  0  0  0  0  0  0  0  0
    3.1774    1.7298    0.9669 H   0  0  0  0  0  0  0  0  0  0  0  0
    0.4870    1.6255    1.1915 H   0  0  0  0  0  0  0  0  0  0  0  0
    1.3006    0.4806    2.2490 H   0  0  0  0  0  0  0  0  0  0  0  0
  1  2  1  0
  2  3  1  0
  3  4  1  0
  3  5  1  0
  5  6  1  0
  6  7  1  0
  7  8  2  0
  8  9  1  0
  9  5  1  0
  1 10  1  0
  1 11  1  0
  1 12  1  0
  2 13  1  0
  2 14  1  0
  3 15  1  0
  4 16  1  0
  4 17  1  0
  4 18  1  0
  5 19  1  0
  6 20  1  0
  6 21  1  0
  7 22  1  0
  8 23  1  0
  9 24  1  0
  9 25  1  0
M  END
