
     RDKit          3D

 25 24  0  0  0  0  0  0  0  0999 V2000
   -1.1554    1.7978    0.1685 C   0  0  0  0  0  0  0  0  0  0  0  0
   -1.6376    0.4538    0.5394 C   0  0  0  0  0  0  0  0  0  0  0  0
   -0.9524   -0.7283   -0.0726 C   0  0  0  0  0  0  0  0  0  0  0  0
   -0.9826   -0.7882   -1.5616 C   0  0  0  0  0  0  0  0  0  0  0  0
    0.2704   -1.1951    0.6081 C   0  0  0  0  0  0  0  0  0  0  0  0
   -0.1359   -1.5367    1.9388 O   0  0  0  0  0  0  0  0  0  0  0  0
    1.4779   -0.3917    0.7171 C   0  0  0  0  0  0  0  0  0  0  0  0
    2.2162    0.0465   -0.4844 C   0  0  0  0  0  0  0  0  0  0  0  0
    1.4606    0.8484   -1.3032 O   0  0  0  0  0  0  0  0  0  0  0  0
   -0.1940    2.0979    0.6272 H   0  0  0  0  0  0  0  0  0  0  0  0
   -1.0181    1.9390   -0.9328 H   0  0  0  0  0  0  0  0  0  0  0  0
   -1.8707    2.6058    0.4731 H   0  0  0  0  0  0  0  0  0  0  0  0
   -1.6092    0.3527    1.6565 H   0  0  0  0  0  0  0  0  0  0  0  0
   -2.7488    0.4363    0.3165 H   0  0  0  0  0  0  0  0  0  0  0  0
   -1.7174   -1.5913    0.2110 H   0  0  0  0  0  0  0  0  0  0  0  0
   -1.0167    0.1991   -2.0748 H   0  0  0  0  0  0  0  0  0  0  0  0
   -0.0611   -1.2926   -1.9159 H   0  0  0  0  0  0  0  0  0  0  0  0
   -1.8352   -1.4286   -1.8914 H   0  0  0  0  0  0  0  0  0  0  0  0
    0.5074   -2.2285    0.1858 H   0  0  0  0  0  0  0  0  0  0  0  0
   -0.0002   -0.7218    2.4910 H   0  0  0  0  0  0  0  0  0  0  0  0
    2.2348   -1.0218    1.3136 H   0  0  0  0  0  0  0  0  0  0  0  0
    1.3190    0.4665    1.4388 H   0  0  0  0  0  0  0  0  0  0  0  0
    3.1276    0.6731   -0.2173 H   0  0  0  0  0  0  0  0  0  0  0  0
    2.6770   -0.7986   -1.0561 H   0  0  0  0  0  0  0  0  0  0  0  0
    1.6442    1.8062   -1.1752 H   0  0  0  0  0  0  0  0  0  0  0  0
  1  2  1  0
  2  3  1  0
  3  4  1  0
  3  5  1  0
  5  6  1  0
  5  7  1  0
  7  8  1  0
  8  9  1  0
  1 10  1  0
  1 11  1  0
  1 12  1  0
  2 13  1  0
  2 14  1  0
  3 15  1  0
  4 16  1  0
  4 17  1  0
  4 18  1  0
  5 19  1  0
  6 20  1  0
  7 21  1  0
  7 22  1  0
  8 23  1  0
  8 24  1  0
  9 25  1  0
M  END
