
     RDKit          3D

 25 25  0  0  0  0  0  0  0  0999 V2000
   -2.4816   -0.2978   -0.7900 C   0  0  0  0  0  0  0  0  0  0  0  0
   -1.5980   -0.8639    0.2845 C   0  0  0  0  0  0  0  0  0  0  0  0
   -0.3919    0.0286    0.5538 C   0  0  0  0  0  0  0  0  0  0  0  0
   -0.8630    1.3688    0.9901 C   0  0  0  0  0  0  0  0  0  0  0  0
    0.4494    0.0152   -0.6724 C   0  0  0  0  0  0  0  0  0  0  0  0
    0.9167   -1.3875   -1.0055 C   0  0  0  0  0  0  0  0  0  0  0  0
    2.2607   -0.9843   -1.0176 O   0  0  0  0  0  0  0  0  0  0  0  0
    1.8740    0.2809   -0.6206 C   0  0  0  0  0  0  0  0  0  0  0  0
    2.5308    0.6548    0.6763 C   0  0  0  0  0  0  0  0  0  0  0  0
   -2.0896    0.6893   -1.1110 H   0  0  0  0  0  0  0  0  0  0  0  0
   -2.4923   -0.9916   -1.6545 H   0  0  0  0  0  0  0  0  0  0  0  0
   -3.5594   -0.2217   -0.4619 H   0  0  0  0  0  0  0  0  0  0  0  0
   -2.1953   -0.9894    1.2333 H   0  0  0  0  0  0  0  0  0  0  0  0
   -1.2629   -1.8866    0.0097 H   0  0  0  0  0  0  0  0  0  0  0  0
    0.1612   -0.4658    1.3956 H   0  0  0  0  0  0  0  0  0  0  0  0
   -0.5324    2.2080    0.3565 H   0  0  0  0  0  0  0  0  0  0  0  0
   -1.9912    1.4297    1.0001 H   0  0  0  0  0  0  0  0  0  0  0  0
   -0.5895    1.5568    2.0707 H   0  0  0  0  0  0  0  0  0  0  0  0
   -0.0951    0.4484   -1.5357 H   0  0  0  0  0  0  0  0  0  0  0  0
    0.7496   -2.1389   -0.2118 H   0  0  0  0  0  0  0  0  0  0  0  0
    0.6471   -1.7316   -2.0326 H   0  0  0  0  0  0  0  0  0  0  0  0
    2.1976    1.0181   -1.4129 H   0  0  0  0  0  0  0  0  0  0  0  0
    3.6322    0.4444    0.5351 H   0  0  0  0  0  0  0  0  0  0  0  0
    2.2271    0.0533    1.5298 H   0  0  0  0  0  0  0  0  0  0  0  0
    2.4959    1.7628    0.8710 H   0  0  0  0  0  0  0  0  0  0  0  0
  1  2  1  0
  2  3  1  0
  3  4  1  0
  3  5  1  0
  5  6  1  0
  6  7  1  0
  7  8  1  0
  8  9  1  0
  8  5  1  0
  1 10  1  0
  1 11  1  0
  1 12  1  0
  2 13  1  0
  2 14  1  0
  3 15  1  0
  4 16  1  0
  4 17  1  0
  4 18  1  0
  5 19  1  0
  6 20  1  0
  6 21  1  0
  8 22  1  0
  9 23  1  0
  9 24  1  0
  9 25  1  0
M  END
