
     RDKit          3D

 19 18  0  0  0  0  0  0  0  0999 V2000
    1.7771    0.5084   -0.9136 C   0  0  0  0  0  0  0  0  0  0  0  0
    1.1045   -0.4594    0.0134 C   0  0  0  0  0  0  0  0  0  0  0  0
   -0.2772   -0.0369    0.4192 C   0  0  0  0  0  0  0  0  0  0  0  0
   -0.2224    1.2677    1.1149 C   0  0  0  0  0  0  0  0  0  0  0  0
   -0.1056    2.2934    0.4705 O   0  0  0  0  0  0  0  0  0  0  0  0
   -0.8253   -1.0862    1.3257 C   0  0  0  0  0  0  0  0  0  0  0  0
   -0.9471   -0.8326    2.5011 O   0  0  0  0  0  0  0  0  0  0  0  0
   -1.2204    0.0920   -0.7431 C   0  0  0  0  0  0  0  0  0  0  0  0
   -1.3994   -1.0628   -1.4526 O   0  0  0  0  0  0  0  0  0  0  0  0
    1.8734    1.5278   -0.5143 H   0  0  0  0  0  0  0  0  0  0  0  0
    2.8274    0.1341   -1.0504 H   0  0  0  0  0  0  0  0  0  0  0  0
    1.2455    0.5195   -1.8826 H   0  0  0  0  0  0  0  0  0  0  0  0
    1.1100   -1.4488   -0.4664 H   0  0  0  0  0  0  0  0  0  0  0  0
    1.7222   -0.4858    0.9415 H   0  0  0  0  0  0  0  0  0  0  0  0
   -0.2811    1.3708    2.1896 H   0  0  0  0  0  0  0  0  0  0  0  0
   -1.0878   -2.0324    0.8715 H   0  0  0  0  0  0  0  0  0  0  0  0
   -2.2069    0.4091   -0.3208 H   0  0  0  0  0  0  0  0  0  0  0  0
   -0.9247    0.9060   -1.4398 H   0  0  0  0  0  0  0  0  0  0  0  0
   -2.1622   -1.5837   -1.0638 H   0  0  0  0  0  0  0  0  0  0  0  0
  1  2  1  0
  2  3  1  0
  3  4  1  0
  4  5  2  0
  3  6  1  0
  6  7  2  0
  3  8  1  0
  8  9  1  0
  1 10  1  0
  1 11  1  0
  1 12  1  0
  2 13  1  0
  2 14  1  0
  4 15  1  0
  6 16  1  0
  8 17  1  0
  8 18  1  0
  9 19  1  0
M  END
