
     RDKit          3D

 18 17  0  0  0  0  0  0  0  0999 V2000
    2.3555   -0.2098    0.3100 C   0  0  0  0  0  0  0  0  0  0  0  0
    1.0595   -0.6944   -0.2447 C   0  0  0  0  0  0  0  0  0  0  0  0
   -0.1441    0.0425    0.2989 C   0  0  0  0  0  0  0  0  0  0  0  0
   -0.0730    1.4874   -0.0090 C   0  0  0  0  0  0  0  0  0  0  0  0
   -0.1572    2.3464    0.8371 O   0  0  0  0  0  0  0  0  0  0  0  0
   -1.3666   -0.5696   -0.3724 C   0  0  0  0  0  0  0  0  0  0  0  0
   -2.6197    0.0796    0.0875 C   0  0  0  0  0  0  0  0  0  0  0  0
   -3.6868   -0.2941   -0.3540 O   0  0  0  0  0  0  0  0  0  0  0  0
    2.3331   -0.0699    1.4077 H   0  0  0  0  0  0  0  0  0  0  0  0
    3.1235   -1.0070    0.1039 H   0  0  0  0  0  0  0  0  0  0  0  0
    2.6161    0.7536   -0.1502 H   0  0  0  0  0  0  0  0  0  0  0  0
    0.8979   -1.7679   -0.0377 H   0  0  0  0  0  0  0  0  0  0  0  0
    1.0562   -0.5599   -1.3420 H   0  0  0  0  0  0  0  0  0  0  0  0
   -0.1637   -0.1304    1.3861 H   0  0  0  0  0  0  0  0  0  0  0  0
    0.0598    1.7847   -1.0330 H   0  0  0  0  0  0  0  0  0  0  0  0
   -1.4143   -1.6595   -0.2191 H   0  0  0  0  0  0  0  0  0  0  0  0
   -1.2699   -0.4045   -1.4710 H   0  0  0  0  0  0  0  0  0  0  0  0
   -2.6064    0.8727    0.8019 H   0  0  0  0  0  0  0  0  0  0  0  0
  1  2  1  0
  2  3  1  0
  3  4  1  0
  4  5  2  0
  3  6  1  0
  6  7  1  0
  7  8  2  0
  1  9  1  0
  1 10  1  0
  1 11  1  0
  2 12  1  0
  2 13  1  0
  3 14  1  0
  4 15  1  0
  6 16  1  0
  6 17  1  0
  7 18  1  0
M  END
