
     RDKit          3D

 22 22  0  0  0  0  0  0  0  0999 V2000
    2.5871    0.4766   -0.5568 C   0  0  0  0  0  0  0  0  0  0  0  0
    1.1257    0.7160   -0.6508 C   0  0  0  0  0  0  0  0  0  0  0  0
    0.2941   -0.1680    0.2414 C   0  0  0  0  0  0  0  0  0  0  0  0
    0.4914   -1.6357   -0.0814 C   0  0  0  0  0  0  0  0  0  0  0  0
   -1.1763    0.1369    0.1424 C   0  0  0  0  0  0  0  0  0  0  0  0
   -1.6840    1.5083    0.4945 C   0  0  0  0  0  0  0  0  0  0  0  0
   -2.1079   -0.9850    0.5466 C   0  0  0  0  0  0  0  0  0  0  0  0
   -1.9060   -0.5443   -0.8695 O   0  0  0  0  0  0  0  0  0  0  0  0
    2.8946    0.3697    0.5250 H   0  0  0  0  0  0  0  0  0  0  0  0
    3.1457    1.3660   -0.9184 H   0  0  0  0  0  0  0  0  0  0  0  0
    2.9490   -0.3897   -1.1511 H   0  0  0  0  0  0  0  0  0  0  0  0
    0.8022    0.6839   -1.7030 H   0  0  0  0  0  0  0  0  0  0  0  0
    0.9323    1.7697   -0.3093 H   0  0  0  0  0  0  0  0  0  0  0  0
    0.5791   -0.0372    1.3061 H   0  0  0  0  0  0  0  0  0  0  0  0
   -0.2311   -1.9979   -0.8427 H   0  0  0  0  0  0  0  0  0  0  0  0
    0.2935   -2.2284    0.8398 H   0  0  0  0  0  0  0  0  0  0  0  0
    1.5436   -1.8489   -0.3670 H   0  0  0  0  0  0  0  0  0  0  0  0
   -2.7966    1.4834    0.3257 H   0  0  0  0  0  0  0  0  0  0  0  0
   -1.5551    1.7632    1.5660 H   0  0  0  0  0  0  0  0  0  0  0  0
   -1.3051    2.2968   -0.1794 H   0  0  0  0  0  0  0  0  0  0  0  0
   -3.1457   -0.7297    0.8302 H   0  0  0  0  0  0  0  0  0  0  0  0
   -1.7306   -2.0058    0.6591 H   0  0  0  0  0  0  0  0  0  0  0  0
  1  2  1  0
  2  3  1  0
  3  4  1  0
  3  5  1  0
  5  6  1  0
  5  7  1  0
  7  8  1  0
  8  5  1  0
  1  9  1  0
  1 10  1  0
  1 11  1  0
  2 12  1  0
  2 13  1  0
  3 14  1  0
  4 15  1  0
  4 16  1  0
  4 17  1  0
  6 18  1  0
  6 19  1  0
  6 20  1  0
  7 21  1  0
  7 22  1  0
M  END
