
     RDKit          3D

 23 22  0  0  0  0  0  0  0  0999 V2000
   -3.5158   -0.0978    0.4250 C   0  0  0  0  0  0  0  0  0  0  0  0
   -2.3036   -0.9433    0.7212 C   0  0  0  0  0  0  0  0  0  0  0  0
   -1.1205   -0.5421   -0.0818 C   0  0  0  0  0  0  0  0  0  0  0  0
   -0.9946   -0.8467   -1.2933 O   0  0  0  0  0  0  0  0  0  0  0  0
   -0.0802    0.1935    0.4533 O   0  0  0  0  0  0  0  0  0  0  0  0
    1.0120    0.5512   -0.3292 C   0  0  0  0  0  0  0  0  0  0  0  0
    1.0263    2.0864   -0.3416 C   0  0  0  0  0  0  0  0  0  0  0  0
    2.3394    0.1138    0.2105 C   0  0  0  0  0  0  0  0  0  0  0  0
    2.4745   -1.3656    0.3711 C   0  0  0  0  0  0  0  0  0  0  0  0
   -3.5745    0.8100    1.0759 H   0  0  0  0  0  0  0  0  0  0  0  0
   -3.5882    0.2419   -0.6064 H   0  0  0  0  0  0  0  0  0  0  0  0
   -4.4172   -0.7261    0.6259 H   0  0  0  0  0  0  0  0  0  0  0  0
   -2.5619   -1.9908    0.4212 H   0  0  0  0  0  0  0  0  0  0  0  0
   -2.0754   -0.8572    1.7958 H   0  0  0  0  0  0  0  0  0  0  0  0
    0.9412    0.1864   -1.3861 H   0  0  0  0  0  0  0  0  0  0  0  0
    0.0817    2.5001   -0.7143 H   0  0  0  0  0  0  0  0  0  0  0  0
    1.1884    2.3795    0.7245 H   0  0  0  0  0  0  0  0  0  0  0  0
    1.9132    2.3768   -0.9161 H   0  0  0  0  0  0  0  0  0  0  0  0
    3.1203    0.4507   -0.4999 H   0  0  0  0  0  0  0  0  0  0  0  0
    2.5236    0.6842    1.1539 H   0  0  0  0  0  0  0  0  0  0  0  0
    3.5626   -1.6154    0.3847 H   0  0  0  0  0  0  0  0  0  0  0  0
    1.9943   -1.8524   -0.4922 H   0  0  0  0  0  0  0  0  0  0  0  0
    2.0543   -1.7368    1.3372 H   0  0  0  0  0  0  0  0  0  0  0  0
  1  2  1  0
  2  3  1  0
  3  4  2  0
  3  5  1  0
  5  6  1  0
  6  7  1  0
  6  8  1  0
  8  9  1  0
  1 10  1  0
  1 11  1  0
  1 12  1  0
  2 13  1  0
  2 14  1  0
  6 15  1  0
  7 16  1  0
  7 17  1  0
  7 18  1  0
  8 19  1  0
  8 20  1  0
  9 21  1  0
  9 22  1  0
  9 23  1  0
M  END
