
     RDKit          3D

 23 22  0  0  0  0  0  0  0  0999 V2000
    2.7397   -0.4609    1.0881 C   0  0  0  0  0  0  0  0  0  0  0  0
    2.5558    0.5259   -0.0379 C   0  0  0  0  0  0  0  0  0  0  0  0
    1.1527    0.4977   -0.5684 C   0  0  0  0  0  0  0  0  0  0  0  0
    0.9018    1.2607   -1.4787 O   0  0  0  0  0  0  0  0  0  0  0  0
    0.1200   -0.3890   -0.0395 C   0  0  0  0  0  0  0  0  0  0  0  0
   -1.2397   -0.2307   -0.6686 C   0  0  0  0  0  0  0  0  0  0  0  0
   -2.2088   -1.2360   -0.0273 C   0  0  0  0  0  0  0  0  0  0  0  0
   -1.8120    1.1636   -0.4665 C   0  0  0  0  0  0  0  0  0  0  0  0
   -1.9479    1.4627    0.8850 O   0  0  0  0  0  0  0  0  0  0  0  0
    3.8284   -0.4623    1.3282 H   0  0  0  0  0  0  0  0  0  0  0  0
    2.4487   -1.4526    0.7260 H   0  0  0  0  0  0  0  0  0  0  0  0
    2.2266   -0.1466    2.0185 H   0  0  0  0  0  0  0  0  0  0  0  0
    3.2373    0.2001   -0.8606 H   0  0  0  0  0  0  0  0  0  0  0  0
    2.8710    1.5488    0.2430 H   0  0  0  0  0  0  0  0  0  0  0  0
    0.4735   -1.4447   -0.2110 H   0  0  0  0  0  0  0  0  0  0  0  0
   -0.0213   -0.2984    1.0595 H   0  0  0  0  0  0  0  0  0  0  0  0
   -1.1648   -0.4421   -1.7498 H   0  0  0  0  0  0  0  0  0  0  0  0
   -3.2282   -0.8297   -0.2433 H   0  0  0  0  0  0  0  0  0  0  0  0
   -2.0337   -1.2338    1.0611 H   0  0  0  0  0  0  0  0  0  0  0  0
   -2.0305   -2.2192   -0.4709 H   0  0  0  0  0  0  0  0  0  0  0  0
   -1.2165    1.9286   -0.9860 H   0  0  0  0  0  0  0  0  0  0  0  0
   -2.8706    1.1907   -0.8661 H   0  0  0  0  0  0  0  0  0  0  0  0
   -2.7814    1.0670    1.2370 H   0  0  0  0  0  0  0  0  0  0  0  0
  1  2  1  0
  2  3  1  0
  3  4  2  0
  3  5  1  0
  5  6  1  0
  6  7  1  0
  6  8  1  0
  8  9  1  0
  1 10  1  0
  1 11  1  0
  1 12  1  0
  2 13  1  0
  2 14  1  0
  5 15  1  0
  5 16  1  0
  6 17  1  0
  7 18  1  0
  7 19  1  0
  7 20  1  0
  8 21  1  0
  8 22  1  0
  9 23  1  0
M  END
