
     RDKit          3D

 21 20  0  0  0  0  0  0  0  0999 V2000
   -1.3437   -1.6532   -0.3503 C   0  0  0  0  0  0  0  0  0  0  0  0
   -1.4105   -0.1680   -0.2601 C   0  0  0  0  0  0  0  0  0  0  0  0
   -0.0683    0.5204   -0.1449 C   0  0  0  0  0  0  0  0  0  0  0  0
    0.7158    0.1147    1.0619 C   0  0  0  0  0  0  0  0  0  0  0  0
    1.0174   -1.2517    1.0994 O   0  0  0  0  0  0  0  0  0  0  0  0
    1.7942   -1.8531    0.1331 C   0  0  0  0  0  0  0  0  0  0  0  0
    2.2374   -1.1355   -0.7979 O   0  0  0  0  0  0  0  0  0  0  0  0
   -0.3225    1.8968   -0.1170 O   0  0  0  0  0  0  0  0  0  0  0  0
    0.2247    2.5701   -1.1883 C   0  0  0  0  0  0  0  0  0  0  0  0
   -2.4116   -1.9910   -0.5269 H   0  0  0  0  0  0  0  0  0  0  0  0
   -0.7449   -2.0118   -1.2311 H   0  0  0  0  0  0  0  0  0  0  0  0
   -1.0494   -2.1795    0.5657 H   0  0  0  0  0  0  0  0  0  0  0  0
   -2.0508    0.0788    0.6199 H   0  0  0  0  0  0  0  0  0  0  0  0
   -1.9549    0.2030   -1.1524 H   0  0  0  0  0  0  0  0  0  0  0  0
    0.5258    0.3545   -1.0587 H   0  0  0  0  0  0  0  0  0  0  0  0
    1.6332    0.7505    1.0558 H   0  0  0  0  0  0  0  0  0  0  0  0
    0.1857    0.3353    2.0140 H   0  0  0  0  0  0  0  0  0  0  0  0
    2.0260   -2.9352    0.1678 H   0  0  0  0  0  0  0  0  0  0  0  0
   -0.2027    2.1663   -2.1519 H   0  0  0  0  0  0  0  0  0  0  0  0
    1.3277    2.5682   -1.1946 H   0  0  0  0  0  0  0  0  0  0  0  0
   -0.1283    3.6206   -1.1434 H   0  0  0  0  0  0  0  0  0  0  0  0
  1  2  1  0
  2  3  1  0
  3  4  1  0
  4  5  1  0
  5  6  1  0
  6  7  2  0
  3  8  1  0
  8  9  1  0
  1 10  1  0
  1 11  1  0
  1 12  1  0
  2 13  1  0
  2 14  1  0
  3 15  1  0
  4 16  1  0
  4 17  1  0
  6 18  1  0
  9 19  1  0
  9 20  1  0
  9 21  1  0
M  END
