
     RDKit          3D

 25 24  0  0  0  0  0  0  0  0999 V2000
    2.1942    0.9989    0.1064 C   0  0  0  0  0  0  0  0  0  0  0  0
    1.6227   -0.3845    0.2269 C   0  0  0  0  0  0  0  0  0  0  0  0
    0.2286   -0.5134   -0.2927 C   0  0  0  0  0  0  0  0  0  0  0  0
    0.2265   -0.1424   -1.7512 C   0  0  0  0  0  0  0  0  0  0  0  0
   -0.1191   -1.8723   -0.2209 O   0  0  0  0  0  0  0  0  0  0  0  0
   -0.7844    0.2431    0.5115 C   0  0  0  0  0  0  0  0  0  0  0  0
   -0.8241   -0.2346    1.9496 C   0  0  0  0  0  0  0  0  0  0  0  0
   -2.1835    0.1004   -0.0399 C   0  0  0  0  0  0  0  0  0  0  0  0
   -2.2542    0.5855   -1.3606 O   0  0  0  0  0  0  0  0  0  0  0  0
    3.2984    0.9056    0.1982 H   0  0  0  0  0  0  0  0  0  0  0  0
    2.0155    1.4507   -0.8959 H   0  0  0  0  0  0  0  0  0  0  0  0
    1.8529    1.6422    0.9358 H   0  0  0  0  0  0  0  0  0  0  0  0
    2.3272   -1.0796   -0.2728 H   0  0  0  0  0  0  0  0  0  0  0  0
    1.6927   -0.6525    1.3229 H   0  0  0  0  0  0  0  0  0  0  0  0
    1.2075   -0.5128   -2.1740 H   0  0  0  0  0  0  0  0  0  0  0  0
   -0.5490   -0.6788   -2.3389 H   0  0  0  0  0  0  0  0  0  0  0  0
    0.2324    0.9477   -1.9261 H   0  0  0  0  0  0  0  0  0  0  0  0
    0.6620   -2.3640   -0.5815 H   0  0  0  0  0  0  0  0  0  0  0  0
   -0.5694    1.3317    0.5612 H   0  0  0  0  0  0  0  0  0  0  0  0
   -0.0356    0.2506    2.5627 H   0  0  0  0  0  0  0  0  0  0  0  0
   -1.8221   -0.0276    2.3670 H   0  0  0  0  0  0  0  0  0  0  0  0
   -0.6563   -1.3438    1.9160 H   0  0  0  0  0  0  0  0  0  0  0  0
   -2.5455   -0.9289   -0.0701 H   0  0  0  0  0  0  0  0  0  0  0  0
   -2.9193    0.7000    0.5330 H   0  0  0  0  0  0  0  0  0  0  0  0
   -2.2980    1.5789   -1.2669 H   0  0  0  0  0  0  0  0  0  0  0  0
  1  2  1  0
  2  3  1  0
  3  4  1  0
  3  5  1  0
  3  6  1  0
  6  7  1  0
  6  8  1  0
  8  9  1  0
  1 10  1  0
  1 11  1  0
  1 12  1  0
  2 13  1  0
  2 14  1  0
  4 15  1  0
  4 16  1  0
  4 17  1  0
  5 18  1  0
  6 19  1  0
  7 20  1  0
  7 21  1  0
  7 22  1  0
  8 23  1  0
  8 24  1  0
  9 25  1  0
M  END
