
     RDKit          3D

 23 23  0  0  0  0  0  0  0  0999 V2000
    2.2466    0.3583   -0.9398 C   0  0  0  0  0  0  0  0  0  0  0  0
    1.5977    0.2023    0.3979 C   0  0  0  0  0  0  0  0  0  0  0  0
    0.3425   -0.5947    0.3920 C   0  0  0  0  0  0  0  0  0  0  0  0
   -0.1932   -0.6650    1.8022 C   0  0  0  0  0  0  0  0  0  0  0  0
   -0.6841   -0.1392   -0.5941 C   0  0  0  0  0  0  0  0  0  0  0  0
   -0.3340   -0.1460   -1.9160 O   0  0  0  0  0  0  0  0  0  0  0  0
   -1.4481    1.1099   -0.2456 C   0  0  0  0  0  0  0  0  0  0  0  0
   -2.5645    0.5062   -0.8751 O   0  0  0  0  0  0  0  0  0  0  0  0
   -2.0662   -0.7084   -0.3449 C   0  0  0  0  0  0  0  0  0  0  0  0
    1.9633    1.3221   -1.4375 H   0  0  0  0  0  0  0  0  0  0  0  0
    3.3592    0.4274   -0.8099 H   0  0  0  0  0  0  0  0  0  0  0  0
    2.0078   -0.5211   -1.5545 H   0  0  0  0  0  0  0  0  0  0  0  0
    1.3822    1.1919    0.8859 H   0  0  0  0  0  0  0  0  0  0  0  0
    2.3240   -0.3025    1.0684 H   0  0  0  0  0  0  0  0  0  0  0  0
    0.6175   -1.6500    0.1114 H   0  0  0  0  0  0  0  0  0  0  0  0
   -0.5501    0.3102    2.1757 H   0  0  0  0  0  0  0  0  0  0  0  0
   -0.9161   -1.4914    1.9512 H   0  0  0  0  0  0  0  0  0  0  0  0
    0.6928   -0.9445    2.4462 H   0  0  0  0  0  0  0  0  0  0  0  0
   -0.2346    0.7902   -2.2584 H   0  0  0  0  0  0  0  0  0  0  0  0
   -1.1568    2.0194   -0.8144 H   0  0  0  0  0  0  0  0  0  0  0  0
   -1.7050    1.2708    0.7980 H   0  0  0  0  0  0  0  0  0  0  0  0
   -2.3197   -1.5940   -0.9566 H   0  0  0  0  0  0  0  0  0  0  0  0
   -2.3613   -0.7520    0.7179 H   0  0  0  0  0  0  0  0  0  0  0  0
  1  2  1  0
  2  3  1  0
  3  4  1  0
  3  5  1  0
  5  6  1  0
  5  7  1  0
  7  8  1  0
  8  9  1  0
  9  5  1  0
  1 10  1  0
  1 11  1  0
  1 12  1  0
  2 13  1  0
  2 14  1  0
  3 15  1  0
  4 16  1  0
  4 17  1  0
  4 18  1  0
  6 19  1  0
  7 20  1  0
  7 21  1  0
  9 22  1  0
  9 23  1  0
M  END
