
     RDKit          3D

 17 17  0  0  0  0  0  0  0  0999 V2000
    2.4158   -0.6956   -0.2827 C   0  0  0  0  0  0  0  0  0  0  0  0
    1.1111   -0.1821    0.2702 C   0  0  0  0  0  0  0  0  0  0  0  0
    0.1258   -0.1268   -0.8257 C   0  0  0  0  0  0  0  0  0  0  0  0
    0.4711   -0.4754   -1.9413 O   0  0  0  0  0  0  0  0  0  0  0  0
   -1.2719    0.3286   -0.6627 C   0  0  0  0  0  0  0  0  0  0  0  0
   -1.6780    1.2515    0.4067 C   0  0  0  0  0  0  0  0  0  0  0  0
   -1.9073   -0.1878    0.6377 C   0  0  0  0  0  0  0  0  0  0  0  0
    2.4615   -0.5444   -1.4004 H   0  0  0  0  0  0  0  0  0  0  0  0
    3.2558   -0.1649    0.1879 H   0  0  0  0  0  0  0  0  0  0  0  0
    2.5677   -1.7802   -0.0611 H   0  0  0  0  0  0  0  0  0  0  0  0
    1.2750    0.8268    0.6909 H   0  0  0  0  0  0  0  0  0  0  0  0
    0.7438   -0.8847    1.0608 H   0  0  0  0  0  0  0  0  0  0  0  0
   -1.8878    0.3154   -1.5668 H   0  0  0  0  0  0  0  0  0  0  0  0
   -2.5795    1.8658    0.2482 H   0  0  0  0  0  0  0  0  0  0  0  0
   -0.9187    1.7720    1.0387 H   0  0  0  0  0  0  0  0  0  0  0  0
   -2.9133   -0.6478    0.4906 H   0  0  0  0  0  0  0  0  0  0  0  0
   -1.2711   -0.6705    1.3864 H   0  0  0  0  0  0  0  0  0  0  0  0
  1  2  1  0
  2  3  1  0
  3  4  2  0
  3  5  1  0
  5  6  1  0
  6  7  1  0
  7  5  1  0
  1  8  1  0
  1  9  1  0
  1 10  1  0
  2 11  1  0
  2 12  1  0
  5 13  1  0
  6 14  1  0
  6 15  1  0
  7 16  1  0
  7 17  1  0
M  END
