
     RDKit          3D

 21 21  0  0  0  0  0  0  0  0999 V2000
    3.2263   -0.2988   -0.2336 C   0  0  0  0  0  0  0  0  0  0  0  0
    1.7537   -0.0982   -0.5163 C   0  0  0  0  0  0  0  0  0  0  0  0
    0.9392   -0.2001    0.7272 C   0  0  0  0  0  0  0  0  0  0  0  0
    1.5381   -0.4251    1.7661 O   0  0  0  0  0  0  0  0  0  0  0  0
   -0.5154   -0.0481    0.7745 C   0  0  0  0  0  0  0  0  0  0  0  0
   -1.1659   -0.5539    1.9153 O   0  0  0  0  0  0  0  0  0  0  0  0
   -0.9860    1.3641    0.3261 C   0  0  0  0  0  0  0  0  0  0  0  0
   -1.3517    0.0865   -0.4248 C   0  0  0  0  0  0  0  0  0  0  0  0
   -2.8051   -0.2374   -0.3874 C   0  0  0  0  0  0  0  0  0  0  0  0
    3.8176    0.6421   -0.3637 H   0  0  0  0  0  0  0  0  0  0  0  0
    3.3011   -0.6428    0.8355 H   0  0  0  0  0  0  0  0  0  0  0  0
    3.6769   -1.1094   -0.8357 H   0  0  0  0  0  0  0  0  0  0  0  0
    1.4503   -0.9834   -1.1504 H   0  0  0  0  0  0  0  0  0  0  0  0
    1.5339    0.8147   -1.1061 H   0  0  0  0  0  0  0  0  0  0  0  0
   -1.8871   -1.1985    1.6478 H   0  0  0  0  0  0  0  0  0  0  0  0
   -0.2626    2.0068   -0.1797 H   0  0  0  0  0  0  0  0  0  0  0  0
   -1.7548    1.8404    0.9652 H   0  0  0  0  0  0  0  0  0  0  0  0
   -0.8788   -0.0565   -1.4242 H   0  0  0  0  0  0  0  0  0  0  0  0
   -3.0279   -1.2907   -0.6970 H   0  0  0  0  0  0  0  0  0  0  0  0
   -3.2909   -0.0113    0.5733 H   0  0  0  0  0  0  0  0  0  0  0  0
   -3.3108    0.3996   -1.1522 H   0  0  0  0  0  0  0  0  0  0  0  0
  1  2  1  0
  2  3  1  0
  3  4  2  0
  3  5  1  0
  5  6  1  0
  5  7  1  0
  7  8  1  0
  8  9  1  0
  8  5  1  0
  1 10  1  0
  1 11  1  0
  1 12  1  0
  2 13  1  0
  2 14  1  0
  6 15  1  0
  7 16  1  0
  7 17  1  0
  8 18  1  0
  9 19  1  0
  9 20  1  0
  9 21  1  0
M  END
