
     RDKit          3D

 22 22  0  0  0  0  0  0  0  0999 V2000
   -1.6716    0.4227   -1.3000 C   0  0  0  0  0  0  0  0  0  0  0  0
   -1.0940    0.6979    0.0729 C   0  0  0  0  0  0  0  0  0  0  0  0
    0.0615   -0.2226    0.3868 C   0  0  0  0  0  0  0  0  0  0  0  0
    0.5879    0.1067    1.7680 C   0  0  0  0  0  0  0  0  0  0  0  0
   -0.5037   -1.6339    0.4962 C   0  0  0  0  0  0  0  0  0  0  0  0
    1.1328   -0.2043   -0.6587 C   0  0  0  0  0  0  0  0  0  0  0  0
    1.8644    1.0047   -1.0175 C   0  0  0  0  0  0  0  0  0  0  0  0
    2.4823    0.0200   -0.0742 O   0  0  0  0  0  0  0  0  0  0  0  0
   -0.8926    0.2634   -2.0617 H   0  0  0  0  0  0  0  0  0  0  0  0
   -2.3519    1.2748   -1.5429 H   0  0  0  0  0  0  0  0  0  0  0  0
   -2.3387   -0.4754   -1.2261 H   0  0  0  0  0  0  0  0  0  0  0  0
   -1.8961    0.4594    0.8083 H   0  0  0  0  0  0  0  0  0  0  0  0
   -0.8376    1.7626    0.2107 H   0  0  0  0  0  0  0  0  0  0  0  0
    1.2162   -0.7149    2.1795 H   0  0  0  0  0  0  0  0  0  0  0  0
   -0.3190    0.1383    2.4363 H   0  0  0  0  0  0  0  0  0  0  0  0
    1.0536    1.0932    1.8300 H   0  0  0  0  0  0  0  0  0  0  0  0
   -1.2600   -1.5948    1.3058 H   0  0  0  0  0  0  0  0  0  0  0  0
   -0.8946   -2.0072   -0.4614 H   0  0  0  0  0  0  0  0  0  0  0  0
    0.3634   -2.2823    0.7683 H   0  0  0  0  0  0  0  0  0  0  0  0
    1.1405   -1.0520   -1.3927 H   0  0  0  0  0  0  0  0  0  0  0  0
    2.4771    0.9726   -1.9367 H   0  0  0  0  0  0  0  0  0  0  0  0
    1.6801    1.9709   -0.5387 H   0  0  0  0  0  0  0  0  0  0  0  0
  1  2  1  0
  2  3  1  0
  3  4  1  0
  3  5  1  0
  3  6  1  0
  6  7  1  0
  7  8  1  0
  8  6  1  0
  1  9  1  0
  1 10  1  0
  1 11  1  0
  2 12  1  0
  2 13  1  0
  4 14  1  0
  4 15  1  0
  4 16  1  0
  5 17  1  0
  5 18  1  0
  5 19  1  0
  6 20  1  0
  7 21  1  0
  7 22  1  0
M  END
