
     RDKit          3D

 29 28  0  0  0  0  0  0  0  0999 V2000
    1.4561    1.9440    0.7944 C   0  0  0  0  0  0  0  0  0  0  0  0
    1.4092    0.7599   -0.1175 C   0  0  0  0  0  0  0  0  0  0  0  0
    0.3880   -0.2721    0.1250 C   0  0  0  0  0  0  0  0  0  0  0  0
    0.6102   -1.3544   -0.9502 C   0  0  0  0  0  0  0  0  0  0  0  0
    1.9996   -1.9346   -0.8263 C   0  0  0  0  0  0  0  0  0  0  0  0
   -1.0358    0.0957    0.2212 C   0  0  0  0  0  0  0  0  0  0  0  0
   -1.3718    1.0387    1.3346 C   0  0  0  0  0  0  0  0  0  0  0  0
   -1.9302   -1.1463    0.4273 C   0  0  0  0  0  0  0  0  0  0  0  0
   -1.5994    0.6884   -1.0607 C   0  0  0  0  0  0  0  0  0  0  0  0
    1.6325    1.6760    1.8548 H   0  0  0  0  0  0  0  0  0  0  0  0
    0.6017    2.6156    0.7484 H   0  0  0  0  0  0  0  0  0  0  0  0
    2.3832    2.5707    0.5426 H   0  0  0  0  0  0  0  0  0  0  0  0
    1.4942    1.0627   -1.1967 H   0  0  0  0  0  0  0  0  0  0  0  0
    2.4128    0.2396    0.0497 H   0  0  0  0  0  0  0  0  0  0  0  0
    0.6727   -0.8059    1.0818 H   0  0  0  0  0  0  0  0  0  0  0  0
    0.4932   -0.9205   -1.9681 H   0  0  0  0  0  0  0  0  0  0  0  0
   -0.1065   -2.1684   -0.8493 H   0  0  0  0  0  0  0  0  0  0  0  0
    1.9700   -3.0114   -1.0910 H   0  0  0  0  0  0  0  0  0  0  0  0
    2.3830   -1.8898    0.2290 H   0  0  0  0  0  0  0  0  0  0  0  0
    2.7161   -1.4157   -1.5017 H   0  0  0  0  0  0  0  0  0  0  0  0
   -0.6171    1.1091    2.1330 H   0  0  0  0  0  0  0  0  0  0  0  0
   -1.6444    2.0457    0.9218 H   0  0  0  0  0  0  0  0  0  0  0  0
   -2.3533    0.6891    1.8070 H   0  0  0  0  0  0  0  0  0  0  0  0
   -2.0622   -1.7068   -0.4967 H   0  0  0  0  0  0  0  0  0  0  0  0
   -2.9402   -0.7029    0.6704 H   0  0  0  0  0  0  0  0  0  0  0  0
   -1.6272   -1.7123    1.3033 H   0  0  0  0  0  0  0  0  0  0  0  0
   -1.8023   -0.0938   -1.8241 H   0  0  0  0  0  0  0  0  0  0  0  0
   -0.9531    1.4334   -1.5145 H   0  0  0  0  0  0  0  0  0  0  0  0
   -2.5790    1.1664   -0.8474 H   0  0  0  0  0  0  0  0  0  0  0  0
  1  2  1  0
  2  3  1  0
  3  4  1  0
  4  5  1  0
  3  6  1  0
  6  7  1  0
  6  8  1  0
  6  9  1  0
  1 10  1  0
  1 11  1  0
  1 12  1  0
  2 13  1  0
  2 14  1  0
  3 15  1  0
  4 16  1  0
  4 17  1  0
  5 18  1  0
  5 19  1  0
  5 20  1  0
  7 21  1  0
  7 22  1  0
  7 23  1  0
  8 24  1  0
  8 25  1  0
  8 26  1  0
  9 27  1  0
  9 28  1  0
  9 29  1  0
M  END
