
     RDKit          3D

 25 25  0  0  0  0  0  0  0  0999 V2000
   -1.5798   -0.7887   -1.2584 C   0  0  0  0  0  0  0  0  0  0  0  0
   -1.6323    0.5176   -0.5492 C   0  0  0  0  0  0  0  0  0  0  0  0
   -0.8670    0.6123    0.7266 C   0  0  0  0  0  0  0  0  0  0  0  0
   -1.0192    2.0116    1.3384 C   0  0  0  0  0  0  0  0  0  0  0  0
    0.5987    0.3562    0.6280 C   0  0  0  0  0  0  0  0  0  0  0  0
    1.2404    1.2406   -0.2296 O   0  0  0  0  0  0  0  0  0  0  0  0
    0.9782   -1.0817    0.3811 C   0  0  0  0  0  0  0  0  0  0  0  0
    2.4971   -1.3247    0.2843 C   0  0  0  0  0  0  0  0  0  0  0  0
    1.6464   -1.5006   -0.8933 C   0  0  0  0  0  0  0  0  0  0  0  0
   -2.5858   -0.9366   -1.7610 H   0  0  0  0  0  0  0  0  0  0  0  0
   -0.8721   -0.8104   -2.1139 H   0  0  0  0  0  0  0  0  0  0  0  0
   -1.3467   -1.6240   -0.5943 H   0  0  0  0  0  0  0  0  0  0  0  0
   -2.7138    0.7174   -0.2841 H   0  0  0  0  0  0  0  0  0  0  0  0
   -1.3742    1.3730   -1.2226 H   0  0  0  0  0  0  0  0  0  0  0  0
   -1.2675   -0.0753    1.5188 H   0  0  0  0  0  0  0  0  0  0  0  0
   -1.9620    2.4854    0.9636 H   0  0  0  0  0  0  0  0  0  0  0  0
   -1.0949    1.9807    2.4276 H   0  0  0  0  0  0  0  0  0  0  0  0
   -0.1859    2.6673    1.0413 H   0  0  0  0  0  0  0  0  0  0  0  0
    1.0310    0.6041    1.6478 H   0  0  0  0  0  0  0  0  0  0  0  0
    0.8489    1.2609   -1.1366 H   0  0  0  0  0  0  0  0  0  0  0  0
    0.4740   -1.8794    0.9264 H   0  0  0  0  0  0  0  0  0  0  0  0
    3.1360   -0.4265    0.3164 H   0  0  0  0  0  0  0  0  0  0  0  0
    2.9275   -2.1868    0.8346 H   0  0  0  0  0  0  0  0  0  0  0  0
    1.6631   -0.6977   -1.6681 H   0  0  0  0  0  0  0  0  0  0  0  0
    1.4598   -2.4946   -1.3236 H   0  0  0  0  0  0  0  0  0  0  0  0
  1  2  1  0
  2  3  1  0
  3  4  1  0
  3  5  1  0
  5  6  1  0
  5  7  1  0
  7  8  1  0
  8  9  1  0
  9  7  1  0
  1 10  1  0
  1 11  1  0
  1 12  1  0
  2 13  1  0
  2 14  1  0
  3 15  1  0
  4 16  1  0
  4 17  1  0
  4 18  1  0
  5 19  1  0
  6 20  1  0
  7 21  1  0
  8 22  1  0
  8 23  1  0
  9 24  1  0
  9 25  1  0
M  END
