
     RDKit          3D

 21 22  0  0  0  0  0  0  0  0999 V2000
    2.7742   -0.2645   -0.2984 C   0  0  0  0  0  0  0  0  0  0  0  0
    1.4115   -0.4344    0.3810 C   0  0  0  0  0  0  0  0  0  0  0  0
    0.4096    0.5439   -0.1706 C   0  0  0  0  0  0  0  0  0  0  0  0
    0.9182    1.8289    0.0806 O   0  0  0  0  0  0  0  0  0  0  0  0
   -0.8924    0.3345    0.5373 C   0  0  0  0  0  0  0  0  0  0  0  0
   -1.3988   -1.0773    0.3251 C   0  0  0  0  0  0  0  0  0  0  0  0
   -2.5372   -0.4505   -0.4917 C   0  0  0  0  0  0  0  0  0  0  0  0
   -2.2085    0.4255   -1.4953 O   0  0  0  0  0  0  0  0  0  0  0  0
   -2.1266    0.8136   -0.1841 C   0  0  0  0  0  0  0  0  0  0  0  0
    3.1871    0.7309   -0.0962 H   0  0  0  0  0  0  0  0  0  0  0  0
    2.6339   -0.4984   -1.3622 H   0  0  0  0  0  0  0  0  0  0  0  0
    3.4179   -1.0668    0.1334 H   0  0  0  0  0  0  0  0  0  0  0  0
    1.6010   -0.2193    1.4733 H   0  0  0  0  0  0  0  0  0  0  0  0
    1.1342   -1.4877    0.2378 H   0  0  0  0  0  0  0  0  0  0  0  0
    0.3570    0.4079   -1.2537 H   0  0  0  0  0  0  0  0  0  0  0  0
    0.9531    2.3640   -0.7686 H   0  0  0  0  0  0  0  0  0  0  0  0
   -0.8672    0.6692    1.5791 H   0  0  0  0  0  0  0  0  0  0  0  0
   -0.8023   -1.6979   -0.3679 H   0  0  0  0  0  0  0  0  0  0  0  0
   -1.7350   -1.5608    1.2408 H   0  0  0  0  0  0  0  0  0  0  0  0
   -3.4823   -0.9697   -0.5826 H   0  0  0  0  0  0  0  0  0  0  0  0
   -2.7472    1.6090    0.2387 H   0  0  0  0  0  0  0  0  0  0  0  0
  1  2  1  0
  2  3  1  0
  3  4  1  0
  3  5  1  0
  5  6  1  0
  6  7  1  0
  7  8  1  0
  8  9  1  0
  9  5  1  0
  9  7  1  0
  1 10  1  0
  1 11  1  0
  1 12  1  0
  2 13  1  0
  2 14  1  0
  3 15  1  0
  4 16  1  0
  5 17  1  0
  6 18  1  0
  6 19  1  0
  7 20  1  0
  9 21  1  0
M  END
