
     RDKit          3D

 21 21  0  0  0  0  0  0  0  0999 V2000
    2.7719    0.3512   -0.5999 C   0  0  0  0  0  0  0  0  0  0  0  0
    1.5311   -0.5273   -0.3744 C   0  0  0  0  0  0  0  0  0  0  0  0
    0.5156    0.3749    0.3055 C   0  0  0  0  0  0  0  0  0  0  0  0
    1.0903    0.8097    1.5081 O   0  0  0  0  0  0  0  0  0  0  0  0
   -0.7532   -0.3463    0.6364 C   0  0  0  0  0  0  0  0  0  0  0  0
   -1.6277    0.5177    1.3028 O   0  0  0  0  0  0  0  0  0  0  0  0
   -2.3359    0.8395    0.1237 C   0  0  0  0  0  0  0  0  0  0  0  0
   -1.7703   -0.4347   -0.4690 C   0  0  0  0  0  0  0  0  0  0  0  0
   -2.6417   -1.5074   -0.2492 O   0  0  0  0  0  0  0  0  0  0  0  0
    3.1799    0.5461    0.4064 H   0  0  0  0  0  0  0  0  0  0  0  0
    2.4664    1.3362   -1.0512 H   0  0  0  0  0  0  0  0  0  0  0  0
    3.5072   -0.1662   -1.2300 H   0  0  0  0  0  0  0  0  0  0  0  0
    1.8595   -1.3445    0.2829 H   0  0  0  0  0  0  0  0  0  0  0  0
    1.1498   -0.9367   -1.3271 H   0  0  0  0  0  0  0  0  0  0  0  0
    0.3279    1.2920   -0.2876 H   0  0  0  0  0  0  0  0  0  0  0  0
    0.6714    0.3883    2.2983 H   0  0  0  0  0  0  0  0  0  0  0  0
   -0.5733   -1.2685    1.2065 H   0  0  0  0  0  0  0  0  0  0  0  0
   -1.9614    1.7621   -0.3471 H   0  0  0  0  0  0  0  0  0  0  0  0
   -3.4189    0.7965    0.3294 H   0  0  0  0  0  0  0  0  0  0  0  0
   -1.4008   -0.3133   -1.4857 H   0  0  0  0  0  0  0  0  0  0  0  0
   -2.5879   -2.1693   -0.9789 H   0  0  0  0  0  0  0  0  0  0  0  0
  1  2  1  0
  2  3  1  0
  3  4  1  0
  3  5  1  0
  5  6  1  0
  6  7  1  0
  7  8  1  0
  8  9  1  0
  8  5  1  0
  1 10  1  0
  1 11  1  0
  1 12  1  0
  2 13  1  0
  2 14  1  0
  3 15  1  0
  4 16  1  0
  5 17  1  0
  7 18  1  0
  7 19  1  0
  8 20  1  0
  9 21  1  0
M  END
