
     RDKit          3D

 27 26  0  0  0  0  0  0  0  0999 V2000
    3.6698    0.2787   -0.6374 C   0  0  0  0  0  0  0  0  0  0  0  0
    2.2708    0.5753   -0.0745 C   0  0  0  0  0  0  0  0  0  0  0  0
    1.5886   -0.7514    0.0776 C   0  0  0  0  0  0  0  0  0  0  0  0
    1.4719   -1.4273   -1.1449 O   0  0  0  0  0  0  0  0  0  0  0  0
    0.2222   -0.5860    0.6777 C   0  0  0  0  0  0  0  0  0  0  0  0
   -0.6193    0.2781   -0.2005 C   0  0  0  0  0  0  0  0  0  0  0  0
   -2.0252    0.4581    0.3807 C   0  0  0  0  0  0  0  0  0  0  0  0
   -2.7127   -0.8712    0.5207 C   0  0  0  0  0  0  0  0  0  0  0  0
   -2.8016    1.2597   -0.6590 C   0  0  0  0  0  0  0  0  0  0  0  0
    4.2251    1.2492   -0.6572 H   0  0  0  0  0  0  0  0  0  0  0  0
    4.1359   -0.4254    0.0965 H   0  0  0  0  0  0  0  0  0  0  0  0
    3.5616   -0.1713   -1.6321 H   0  0  0  0  0  0  0  0  0  0  0  0
    1.7439    1.2789   -0.7116 H   0  0  0  0  0  0  0  0  0  0  0  0
    2.4421    0.9980    0.9357 H   0  0  0  0  0  0  0  0  0  0  0  0
    2.2071   -1.4588    0.7067 H   0  0  0  0  0  0  0  0  0  0  0  0
    0.8765   -2.2071   -0.9628 H   0  0  0  0  0  0  0  0  0  0  0  0
    0.3653   -0.0610    1.6601 H   0  0  0  0  0  0  0  0  0  0  0  0
   -0.2086   -1.5919    0.8185 H   0  0  0  0  0  0  0  0  0  0  0  0
   -0.1947    1.3254   -0.1818 H   0  0  0  0  0  0  0  0  0  0  0  0
   -0.6855   -0.0582   -1.2325 H   0  0  0  0  0  0  0  0  0  0  0  0
   -1.9849    1.0284    1.3156 H   0  0  0  0  0  0  0  0  0  0  0  0
   -2.6836   -1.3534   -0.4998 H   0  0  0  0  0  0  0  0  0  0  0  0
   -3.7785   -0.6856    0.7566 H   0  0  0  0  0  0  0  0  0  0  0  0
   -2.1970   -1.4829    1.2638 H   0  0  0  0  0  0  0  0  0  0  0  0
   -2.0823    1.9995   -1.0684 H   0  0  0  0  0  0  0  0  0  0  0  0
   -3.1727    0.6023   -1.4755 H   0  0  0  0  0  0  0  0  0  0  0  0
   -3.6342    1.8001   -0.1440 H   0  0  0  0  0  0  0  0  0  0  0  0
  1  2  1  0
  2  3  1  0
  3  4  1  0
  3  5  1  0
  5  6  1  0
  6  7  1  0
  7  8  1  0
  7  9  1  0
  1 10  1  0
  1 11  1  0
  1 12  1  0
  2 13  1  0
  2 14  1  0
  3 15  1  0
  4 16  1  0
  5 17  1  0
  5 18  1  0
  6 19  1  0
  6 20  1  0
  7 21  1  0
  8 22  1  0
  8 23  1  0
  8 24  1  0
  9 25  1  0
  9 26  1  0
  9 27  1  0
M  END
