
     RDKit          3D

 18 17  0  0  0  0  0  0  0  0999 V2000
    2.5617    0.4507    0.5086 C   0  0  0  0  0  0  0  0  0  0  0  0
    2.0375   -0.4076   -0.6438 C   0  0  0  0  0  0  0  0  0  0  0  0
    0.6838   -0.8381   -0.2403 C   0  0  0  0  0  0  0  0  0  0  0  0
    0.5836   -2.0679    0.1142 O   0  0  0  0  0  0  0  0  0  0  0  0
   -0.4628    0.0317   -0.2326 C   0  0  0  0  0  0  0  0  0  0  0  0
   -0.3649    1.2222   -0.5543 O   0  0  0  0  0  0  0  0  0  0  0  0
   -1.8103   -0.4896    0.1711 C   0  0  0  0  0  0  0  0  0  0  0  0
   -2.8188    0.6415    0.1230 C   0  0  0  0  0  0  0  0  0  0  0  0
    2.3112   -0.0174    1.4605 H   0  0  0  0  0  0  0  0  0  0  0  0
    3.6456    0.5912    0.3891 H   0  0  0  0  0  0  0  0  0  0  0  0
    2.0420    1.4304    0.4137 H   0  0  0  0  0  0  0  0  0  0  0  0
    2.0595    0.1603   -1.5980 H   0  0  0  0  0  0  0  0  0  0  0  0
    2.6960   -1.2928   -0.6614 H   0  0  0  0  0  0  0  0  0  0  0  0
   -2.1301   -1.2169   -0.6106 H   0  0  0  0  0  0  0  0  0  0  0  0
   -1.7569   -0.9293    1.1801 H   0  0  0  0  0  0  0  0  0  0  0  0
   -3.5790    0.4176    0.9126 H   0  0  0  0  0  0  0  0  0  0  0  0
   -2.3353    1.6171    0.3413 H   0  0  0  0  0  0  0  0  0  0  0  0
   -3.3628    0.6968   -0.8431 H   0  0  0  0  0  0  0  0  0  0  0  0
  1  2  1  0
  2  3  1  0
  3  4  2  0
  3  5  1  0
  5  6  2  0
  5  7  1  0
  7  8  1  0
  1  9  1  0
  1 10  1  0
  1 11  1  0
  2 12  1  0
  2 13  1  0
  7 14  1  0
  7 15  1  0
  8 16  1  0
  8 17  1  0
  8 18  1  0
M  END
