
     RDKit          3D

 21 21  0  0  0  0  0  0  0  0999 V2000
   -2.5253    0.6794   -0.4961 C   0  0  0  0  0  0  0  0  0  0  0  0
   -1.8670   -0.2540    0.4709 C   0  0  0  0  0  0  0  0  0  0  0  0
   -0.6304   -0.8690   -0.1332 C   0  0  0  0  0  0  0  0  0  0  0  0
   -0.0207   -1.7342    0.7641 O   0  0  0  0  0  0  0  0  0  0  0  0
    0.3561    0.1753   -0.6072 C   0  0  0  0  0  0  0  0  0  0  0  0
    1.4001   -0.4891   -1.2232 O   0  0  0  0  0  0  0  0  0  0  0  0
    2.4941   -0.4170   -0.3359 C   0  0  0  0  0  0  0  0  0  0  0  0
    2.2590    0.9839    0.2462 C   0  0  0  0  0  0  0  0  0  0  0  0
    0.8644    0.9458    0.4072 O   0  0  0  0  0  0  0  0  0  0  0  0
   -2.6028    0.1683   -1.4729 H   0  0  0  0  0  0  0  0  0  0  0  0
   -3.5872    0.8540   -0.1537 H   0  0  0  0  0  0  0  0  0  0  0  0
   -1.9950    1.6437   -0.5494 H   0  0  0  0  0  0  0  0  0  0  0  0
   -1.6381    0.1993    1.4462 H   0  0  0  0  0  0  0  0  0  0  0  0
   -2.5830   -1.1013    0.6436 H   0  0  0  0  0  0  0  0  0  0  0  0
   -0.9366   -1.4552   -1.0258 H   0  0  0  0  0  0  0  0  0  0  0  0
   -0.0908   -1.3971    1.6784 H   0  0  0  0  0  0  0  0  0  0  0  0
   -0.1018    0.8412   -1.3528 H   0  0  0  0  0  0  0  0  0  0  0  0
    3.4442   -0.4756   -0.8819 H   0  0  0  0  0  0  0  0  0  0  0  0
    2.3962   -1.1487    0.4855 H   0  0  0  0  0  0  0  0  0  0  0  0
    2.5730    1.7138   -0.5126 H   0  0  0  0  0  0  0  0  0  0  0  0
    2.7915    1.1365    1.1826 H   0  0  0  0  0  0  0  0  0  0  0  0
  1  2  1  0
  2  3  1  0
  3  4  1  0
  3  5  1  0
  5  6  1  0
  6  7  1  0
  7  8  1  0
  8  9  1  0
  9  5  1  0
  1 10  1  0
  1 11  1  0
  1 12  1  0
  2 13  1  0
  2 14  1  0
  3 15  1  0
  4 16  1  0
  5 17  1  0
  7 18  1  0
  7 19  1  0
  8 20  1  0
  8 21  1  0
M  END
