
     RDKit          3D

 23 23  0  0  0  0  0  0  0  0999 V2000
    3.0363    0.4470    0.3599 C   0  0  0  0  0  0  0  0  0  0  0  0
    1.5926    0.1405    0.5769 C   0  0  0  0  0  0  0  0  0  0  0  0
    0.8589   -0.2058   -0.6975 C   0  0  0  0  0  0  0  0  0  0  0  0
    1.4672   -1.3359   -1.2610 O   0  0  0  0  0  0  0  0  0  0  0  0
   -0.5536   -0.6301   -0.3261 C   0  0  0  0  0  0  0  0  0  0  0  0
   -1.2732   -1.0578   -1.4463 O   0  0  0  0  0  0  0  0  0  0  0  0
   -2.2833   -0.1265   -1.2316 C   0  0  0  0  0  0  0  0  0  0  0  0
   -1.5092    0.4946   -0.0963 C   0  0  0  0  0  0  0  0  0  0  0  0
   -2.2806    0.3924    1.1978 C   0  0  0  0  0  0  0  0  0  0  0  0
    3.3091    1.4960    0.6138 H   0  0  0  0  0  0  0  0  0  0  0  0
    3.6740   -0.2064    0.9879 H   0  0  0  0  0  0  0  0  0  0  0  0
    3.3746    0.2942   -0.6874 H   0  0  0  0  0  0  0  0  0  0  0  0
    1.4816   -0.6859    1.3120 H   0  0  0  0  0  0  0  0  0  0  0  0
    1.1047    1.0385    1.0166 H   0  0  0  0  0  0  0  0  0  0  0  0
    0.8774    0.6347   -1.3867 H   0  0  0  0  0  0  0  0  0  0  0  0
    2.0684   -1.7647   -0.5960 H   0  0  0  0  0  0  0  0  0  0  0  0
   -0.5582   -1.3762    0.4818 H   0  0  0  0  0  0  0  0  0  0  0  0
   -2.4961    0.5470   -2.0847 H   0  0  0  0  0  0  0  0  0  0  0  0
   -3.2104   -0.6236   -0.9198 H   0  0  0  0  0  0  0  0  0  0  0  0
   -1.1743    1.5083   -0.3386 H   0  0  0  0  0  0  0  0  0  0  0  0
   -2.9999    1.2269    1.2775 H   0  0  0  0  0  0  0  0  0  0  0  0
   -1.6031    0.3383    2.0624 H   0  0  0  0  0  0  0  0  0  0  0  0
   -2.9029   -0.5455    1.1854 H   0  0  0  0  0  0  0  0  0  0  0  0
  1  2  1  0
  2  3  1  0
  3  4  1  0
  3  5  1  0
  5  6  1  0
  6  7  1  0
  7  8  1  0
  8  9  1  0
  8  5  1  0
  1 10  1  0
  1 11  1  0
  1 12  1  0
  2 13  1  0
  2 14  1  0
  3 15  1  0
  4 16  1  0
  5 17  1  0
  7 18  1  0
  7 19  1  0
  8 20  1  0
  9 21  1  0
  9 22  1  0
  9 23  1  0
M  END
