
     RDKit          3D

 23 23  0  0  0  0  0  0  0  0999 V2000
    1.7761   -1.3254   -0.2156 C   0  0  0  0  0  0  0  0  0  0  0  0
    1.4139    0.1127   -0.2855 C   0  0  0  0  0  0  0  0  0  0  0  0
   -0.0232    0.4536   -0.4015 C   0  0  0  0  0  0  0  0  0  0  0  0
   -0.5901   -0.1208   -1.5719 O   0  0  0  0  0  0  0  0  0  0  0  0
   -0.1805    1.9537   -0.6600 C   0  0  0  0  0  0  0  0  0  0  0  0
    0.3424    2.6238    0.4250 O   0  0  0  0  0  0  0  0  0  0  0  0
   -0.8358   -0.0018    0.7443 C   0  0  0  0  0  0  0  0  0  0  0  0
   -0.8862   -1.5129    0.9821 C   0  0  0  0  0  0  0  0  0  0  0  0
   -2.1240   -0.6946    0.6759 C   0  0  0  0  0  0  0  0  0  0  0  0
    1.5500   -1.7324    0.7879 H   0  0  0  0  0  0  0  0  0  0  0  0
    2.9154   -1.4460   -0.2747 H   0  0  0  0  0  0  0  0  0  0  0  0
    1.3211   -1.9525   -0.9868 H   0  0  0  0  0  0  0  0  0  0  0  0
    2.0146    0.5491   -1.1458 H   0  0  0  0  0  0  0  0  0  0  0  0
    1.8655    0.6515    0.6068 H   0  0  0  0  0  0  0  0  0  0  0  0
   -1.4494    0.3593   -1.6920 H   0  0  0  0  0  0  0  0  0  0  0  0
   -1.2523    2.1350   -0.8354 H   0  0  0  0  0  0  0  0  0  0  0  0
    0.3823    2.1643   -1.5892 H   0  0  0  0  0  0  0  0  0  0  0  0
    1.3179    2.7125    0.2824 H   0  0  0  0  0  0  0  0  0  0  0  0
   -0.6879    0.6102    1.6883 H   0  0  0  0  0  0  0  0  0  0  0  0
   -0.6556   -2.2336    0.1954 H   0  0  0  0  0  0  0  0  0  0  0  0
   -0.7447   -1.8431    2.0548 H   0  0  0  0  0  0  0  0  0  0  0  0
   -2.6374   -0.8510   -0.2961 H   0  0  0  0  0  0  0  0  0  0  0  0
   -2.8320   -0.6119    1.5114 H   0  0  0  0  0  0  0  0  0  0  0  0
  1  2  1  0
  2  3  1  0
  3  4  1  0
  3  5  1  0
  5  6  1  0
  3  7  1  0
  7  8  1  0
  8  9  1  0
  9  7  1  0
  1 10  1  0
  1 11  1  0
  1 12  1  0
  2 13  1  0
  2 14  1  0
  4 15  1  0
  5 16  1  0
  5 17  1  0
  6 18  1  0
  7 19  1  0
  8 20  1  0
  8 21  1  0
  9 22  1  0
  9 23  1  0
M  END
