
     RDKit          3D

 21 21  0  0  0  0  0  0  0  0999 V2000
   -2.6834    0.9734   -0.2016 C   0  0  0  0  0  0  0  0  0  0  0  0
   -1.6091    0.3621    0.6807 C   0  0  0  0  0  0  0  0  0  0  0  0
   -0.6120   -0.2799   -0.2215 C   0  0  0  0  0  0  0  0  0  0  0  0
   -0.7641   -0.2722   -1.4362 O   0  0  0  0  0  0  0  0  0  0  0  0
    0.5882   -0.9423    0.3314 C   0  0  0  0  0  0  0  0  0  0  0  0
    1.2480   -1.6798   -0.8402 C   0  0  0  0  0  0  0  0  0  0  0  0
    1.5378    0.1127    0.8464 C   0  0  0  0  0  0  0  0  0  0  0  0
    2.0873    1.0889   -0.0036 C   0  0  0  0  0  0  0  0  0  0  0  0
    0.9689    1.4653    0.7065 O   0  0  0  0  0  0  0  0  0  0  0  0
   -2.2124    1.5551   -1.0139 H   0  0  0  0  0  0  0  0  0  0  0  0
   -3.2327    0.1061   -0.6530 H   0  0  0  0  0  0  0  0  0  0  0  0
   -3.3983    1.5799    0.3881 H   0  0  0  0  0  0  0  0  0  0  0  0
   -2.0472   -0.4930    1.2834 H   0  0  0  0  0  0  0  0  0  0  0  0
   -1.1132    1.0525    1.3436 H   0  0  0  0  0  0  0  0  0  0  0  0
    0.3411   -1.6797    1.1137 H   0  0  0  0  0  0  0  0  0  0  0  0
    1.3616   -0.9298   -1.6478 H   0  0  0  0  0  0  0  0  0  0  0  0
    2.1719   -2.1784   -0.5522 H   0  0  0  0  0  0  0  0  0  0  0  0
    0.5002   -2.4174   -1.1919 H   0  0  0  0  0  0  0  0  0  0  0  0
    1.8300   -0.0171    1.8958 H   0  0  0  0  0  0  0  0  0  0  0  0
    3.0293    1.6221    0.2919 H   0  0  0  0  0  0  0  0  0  0  0  0
    2.0081    0.9717   -1.1196 H   0  0  0  0  0  0  0  0  0  0  0  0
  1  2  1  0
  2  3  1  0
  3  4  2  0
  3  5  1  0
  5  6  1  0
  5  7  1  0
  7  8  1  0
  8  9  1  0
  9  7  1  0
  1 10  1  0
  1 11  1  0
  1 12  1  0
  2 13  1  0
  2 14  1  0
  5 15  1  0
  6 16  1  0
  6 17  1  0
  6 18  1  0
  7 19  1  0
  8 20  1  0
  8 21  1  0
M  END
