
     RDKit          3D

 23 24  0  0  0  0  0  0  0  0999 V2000
   -2.4232    0.9325   -0.4733 C   0  0  0  0  0  0  0  0  0  0  0  0
   -1.7308    0.3846    0.7482 C   0  0  0  0  0  0  0  0  0  0  0  0
   -0.5414   -0.4763    0.4051 C   0  0  0  0  0  0  0  0  0  0  0  0
   -1.0129   -1.6421   -0.4355 C   0  0  0  0  0  0  0  0  0  0  0  0
    0.5301    0.3075   -0.3183 C   0  0  0  0  0  0  0  0  0  0  0  0
    1.0536    1.3749    0.3697 O   0  0  0  0  0  0  0  0  0  0  0  0
    2.3729    0.9704    0.4474 C   0  0  0  0  0  0  0  0  0  0  0  0
    3.0710    0.3230   -0.6767 C   0  0  0  0  0  0  0  0  0  0  0  0
    1.8847   -0.3874   -0.1558 C   0  0  0  0  0  0  0  0  0  0  0  0
   -1.6601    1.3931   -1.1180 H   0  0  0  0  0  0  0  0  0  0  0  0
   -3.1195    1.7208   -0.1292 H   0  0  0  0  0  0  0  0  0  0  0  0
   -2.9937    0.1327   -0.9703 H   0  0  0  0  0  0  0  0  0  0  0  0
   -2.4698   -0.2862    1.2553 H   0  0  0  0  0  0  0  0  0  0  0  0
   -1.4661    1.1837    1.4533 H   0  0  0  0  0  0  0  0  0  0  0  0
   -0.1722   -0.9057    1.3652 H   0  0  0  0  0  0  0  0  0  0  0  0
   -0.2574   -2.4642   -0.4451 H   0  0  0  0  0  0  0  0  0  0  0  0
   -1.9349   -2.0691   -0.0256 H   0  0  0  0  0  0  0  0  0  0  0  0
   -1.2128   -1.2520   -1.4528 H   0  0  0  0  0  0  0  0  0  0  0  0
    0.2318    0.4822   -1.3682 H   0  0  0  0  0  0  0  0  0  0  0  0
    2.8417    0.8949    1.4614 H   0  0  0  0  0  0  0  0  0  0  0  0
    4.0434   -0.1257   -0.4619 H   0  0  0  0  0  0  0  0  0  0  0  0
    3.0012    0.7672   -1.7108 H   0  0  0  0  0  0  0  0  0  0  0  0
    1.9642   -1.2586    0.4983 H   0  0  0  0  0  0  0  0  0  0  0  0
  1  2  1  0
  2  3  1  0
  3  4  1  0
  3  5  1  0
  5  6  1  0
  6  7  1  0
  7  8  1  0
  8  9  1  0
  9  5  1  0
  9  7  1  0
  1 10  1  0
  1 11  1  0
  1 12  1  0
  2 13  1  0
  2 14  1  0
  3 15  1  0
  4 16  1  0
  4 17  1  0
  4 18  1  0
  5 19  1  0
  7 20  1  0
  8 21  1  0
  8 22  1  0
  9 23  1  0
M  END
