
     RDKit          3D

 21 20  0  0  0  0  0  0  0  0999 V2000
    2.3591    0.6717    0.2260 C   0  0  0  0  0  0  0  0  0  0  0  0
    1.6258   -0.6357   -0.0145 C   0  0  0  0  0  0  0  0  0  0  0  0
    0.4394   -0.3860   -0.8804 C   0  0  0  0  0  0  0  0  0  0  0  0
    0.6385   -0.2489   -2.0763 O   0  0  0  0  0  0  0  0  0  0  0  0
   -0.9286   -0.2987   -0.3755 C   0  0  0  0  0  0  0  0  0  0  0  0
   -1.3653   -1.6023    0.3082 C   0  0  0  0  0  0  0  0  0  0  0  0
   -1.8226   -0.0611   -1.4057 O   0  0  0  0  0  0  0  0  0  0  0  0
   -1.1252    0.7935    0.6537 C   0  0  0  0  0  0  0  0  0  0  0  0
   -0.8811    2.0345    0.0851 O   0  0  0  0  0  0  0  0  0  0  0  0
    3.4567    0.5718    0.0900 H   0  0  0  0  0  0  0  0  0  0  0  0
    2.1379    0.9694    1.2799 H   0  0  0  0  0  0  0  0  0  0  0  0
    2.0319    1.4613   -0.4982 H   0  0  0  0  0  0  0  0  0  0  0  0
    2.3485   -1.3419   -0.5190 H   0  0  0  0  0  0  0  0  0  0  0  0
    1.3329   -1.1349    0.9345 H   0  0  0  0  0  0  0  0  0  0  0  0
   -2.3724   -1.3833    0.7271 H   0  0  0  0  0  0  0  0  0  0  0  0
   -1.4311   -2.3555   -0.4897 H   0  0  0  0  0  0  0  0  0  0  0  0
   -0.6545   -1.8666    1.1066 H   0  0  0  0  0  0  0  0  0  0  0  0
   -1.4836    0.7052   -1.9674 H   0  0  0  0  0  0  0  0  0  0  0  0
   -2.1983    0.7757    0.9375 H   0  0  0  0  0  0  0  0  0  0  0  0
   -0.5524    0.6213    1.5819 H   0  0  0  0  0  0  0  0  0  0  0  0
   -1.5558    2.7105    0.2961 H   0  0  0  0  0  0  0  0  0  0  0  0
  1  2  1  0
  2  3  1  0
  3  4  2  0
  3  5  1  0
  5  6  1  0
  5  7  1  0
  5  8  1  0
  8  9  1  0
  1 10  1  0
  1 11  1  0
  1 12  1  0
  2 13  1  0
  2 14  1  0
  6 15  1  0
  6 16  1  0
  6 17  1  0
  7 18  1  0
  8 19  1  0
  8 20  1  0
  9 21  1  0
M  END
