
     RDKit          3D

 24 23  0  0  0  0  0  0  0  0999 V2000
    1.7339   -1.6093   -0.4913 C   0  0  0  0  0  0  0  0  0  0  0  0
    1.5950   -0.1214   -0.6995 C   0  0  0  0  0  0  0  0  0  0  0  0
    0.9708    0.5884    0.4554 C   0  0  0  0  0  0  0  0  0  0  0  0
    0.8794    2.0804    0.1476 C   0  0  0  0  0  0  0  0  0  0  0  0
   -0.3454    0.0316    0.9018 C   0  0  0  0  0  0  0  0  0  0  0  0
   -1.4205    0.0388   -0.1195 C   0  0  0  0  0  0  0  0  0  0  0  0
   -2.6683   -0.5630    0.5257 C   0  0  0  0  0  0  0  0  0  0  0  0
   -1.1600   -0.7689   -1.2258 O   0  0  0  0  0  0  0  0  0  0  0  0
    1.3478   -1.8629    0.5171 H   0  0  0  0  0  0  0  0  0  0  0  0
    1.1749   -2.2112   -1.2408 H   0  0  0  0  0  0  0  0  0  0  0  0
    2.8081   -1.9259   -0.5046 H   0  0  0  0  0  0  0  0  0  0  0  0
    2.6204    0.2949   -0.8352 H   0  0  0  0  0  0  0  0  0  0  0  0
    1.0767    0.0383   -1.6633 H   0  0  0  0  0  0  0  0  0  0  0  0
    1.6710    0.5037    1.3135 H   0  0  0  0  0  0  0  0  0  0  0  0
    0.4693    2.5679    1.0460 H   0  0  0  0  0  0  0  0  0  0  0  0
    1.9481    2.4200    0.0338 H   0  0  0  0  0  0  0  0  0  0  0  0
    0.3091    2.2848   -0.7551 H   0  0  0  0  0  0  0  0  0  0  0  0
   -0.2744   -0.9676    1.3527 H   0  0  0  0  0  0  0  0  0  0  0  0
   -0.6964    0.7057    1.7379 H   0  0  0  0  0  0  0  0  0  0  0  0
   -1.6966    1.0762   -0.4444 H   0  0  0  0  0  0  0  0  0  0  0  0
   -3.3701   -0.8173   -0.2900 H   0  0  0  0  0  0  0  0  0  0  0  0
   -3.0777    0.0730    1.3073 H   0  0  0  0  0  0  0  0  0  0  0  0
   -2.3458   -1.5471    0.9593 H   0  0  0  0  0  0  0  0  0  0  0  0
   -1.5492   -0.3089   -2.0286 H   0  0  0  0  0  0  0  0  0  0  0  0
  1  2  1  0
  2  3  1  0
  3  4  1  0
  3  5  1  0
  5  6  1  0
  6  7  1  0
  6  8  1  0
  1  9  1  0
  1 10  1  0
  1 11  1  0
  2 12  1  0
  2 13  1  0
  3 14  1  0
  4 15  1  0
  4 16  1  0
  4 17  1  0
  5 18  1  0
  5 19  1  0
  6 20  1  0
  7 21  1  0
  7 22  1  0
  7 23  1  0
  8 24  1  0
M  END
