
     RDKit          3D

 19 20  0  0  0  0  0  0  0  0999 V2000
    2.7872   -0.1781    0.4328 C   0  0  0  0  0  0  0  0  0  0  0  0
    1.3198   -0.0593    0.7812 C   0  0  0  0  0  0  0  0  0  0  0  0
    0.5035    0.0630   -0.4262 C   0  0  0  0  0  0  0  0  0  0  0  0
    1.0645    0.0559   -1.5090 O   0  0  0  0  0  0  0  0  0  0  0  0
   -0.9724    0.1973   -0.4514 C   0  0  0  0  0  0  0  0  0  0  0  0
   -1.6454    1.3496    0.2225 C   0  0  0  0  0  0  0  0  0  0  0  0
   -2.4724    0.4319    0.8868 O   0  0  0  0  0  0  0  0  0  0  0  0
   -1.8580   -0.6903    0.3105 C   0  0  0  0  0  0  0  0  0  0  0  0
   -1.8269   -0.7968   -1.1502 C   0  0  0  0  0  0  0  0  0  0  0  0
    3.3459    0.7654    0.5963 H   0  0  0  0  0  0  0  0  0  0  0  0
    2.9401   -0.5108   -0.6253 H   0  0  0  0  0  0  0  0  0  0  0  0
    3.2883   -0.9570    1.0681 H   0  0  0  0  0  0  0  0  0  0  0  0
    1.2227    0.9114    1.3492 H   0  0  0  0  0  0  0  0  0  0  0  0
    1.0437   -0.9024    1.4421 H   0  0  0  0  0  0  0  0  0  0  0  0
   -2.2746    1.9208   -0.4981 H   0  0  0  0  0  0  0  0  0  0  0  0
   -1.0107    1.9680    0.8708 H   0  0  0  0  0  0  0  0  0  0  0  0
   -1.5095   -1.5080    0.9534 H   0  0  0  0  0  0  0  0  0  0  0  0
   -1.2830   -1.6697   -1.5732 H   0  0  0  0  0  0  0  0  0  0  0  0
   -2.6627   -0.3907   -1.7622 H   0  0  0  0  0  0  0  0  0  0  0  0
  1  2  1  0
  2  3  1  0
  3  4  2  0
  3  5  1  0
  5  6  1  0
  6  7  1  0
  7  8  1  0
  8  9  1  0
  8  5  1  0
  9  5  1  0
  1 10  1  0
  1 11  1  0
  1 12  1  0
  2 13  1  0
  2 14  1  0
  6 15  1  0
  6 16  1  0
  8 17  1  0
  9 18  1  0
  9 19  1  0
M  END
