
     RDKit          3D

 21 21  0  0  0  0  0  0  0  0999 V2000
    1.4528    1.8115   -0.1163 C   0  0  0  0  0  0  0  0  0  0  0  0
    0.0093    1.4497   -0.1038 C   0  0  0  0  0  0  0  0  0  0  0  0
   -0.2905    0.0739    0.4577 C   0  0  0  0  0  0  0  0  0  0  0  0
   -1.8160   -0.0788    0.3752 C   0  0  0  0  0  0  0  0  0  0  0  0
   -2.2593   -1.3796    0.8918 C   0  0  0  0  0  0  0  0  0  0  0  0
   -1.4489   -2.1743    1.3153 O   0  0  0  0  0  0  0  0  0  0  0  0
    0.3809   -1.0420   -0.2567 C   0  0  0  0  0  0  0  0  0  0  0  0
    1.7835   -1.2451   -0.4248 C   0  0  0  0  0  0  0  0  0  0  0  0
    1.0870   -1.9781    0.6598 O   0  0  0  0  0  0  0  0  0  0  0  0
    1.9880    1.5211    0.7933 H   0  0  0  0  0  0  0  0  0  0  0  0
    2.0054    1.4903   -1.0175 H   0  0  0  0  0  0  0  0  0  0  0  0
    1.5172    2.9408   -0.1405 H   0  0  0  0  0  0  0  0  0  0  0  0
   -0.5166    2.1703    0.5904 H   0  0  0  0  0  0  0  0  0  0  0  0
   -0.4799    1.5545   -1.0697 H   0  0  0  0  0  0  0  0  0  0  0  0
   -0.0534    0.1235    1.5429 H   0  0  0  0  0  0  0  0  0  0  0  0
   -2.3163    0.7191    0.9488 H   0  0  0  0  0  0  0  0  0  0  0  0
   -2.1601    0.0248   -0.6791 H   0  0  0  0  0  0  0  0  0  0  0  0
   -3.3005   -1.6764    0.9160 H   0  0  0  0  0  0  0  0  0  0  0  0
   -0.3083   -1.6628   -0.9035 H   0  0  0  0  0  0  0  0  0  0  0  0
    2.1255   -2.0188   -1.1511 H   0  0  0  0  0  0  0  0  0  0  0  0
    2.6004   -0.6237   -0.0682 H   0  0  0  0  0  0  0  0  0  0  0  0
  1  2  1  0
  2  3  1  0
  3  4  1  0
  4  5  1  0
  5  6  2  0
  3  7  1  0
  7  8  1  0
  8  9  1  0
  9  7  1  0
  1 10  1  0
  1 11  1  0
  1 12  1  0
  2 13  1  0
  2 14  1  0
  3 15  1  0
  4 16  1  0
  4 17  1  0
  5 18  1  0
  7 19  1  0
  8 20  1  0
  8 21  1  0
M  END
