
     RDKit          3D

 23 23  0  0  0  0  0  0  0  0999 V2000
   -1.5191    1.4189    0.8706 C   0  0  0  0  0  0  0  0  0  0  0  0
   -1.5619   -0.0530    0.6770 C   0  0  0  0  0  0  0  0  0  0  0  0
   -0.6892   -0.6169   -0.3859 C   0  0  0  0  0  0  0  0  0  0  0  0
   -0.9688   -2.1505   -0.4074 C   0  0  0  0  0  0  0  0  0  0  0  0
    0.7939   -0.5602   -0.0929 C   0  0  0  0  0  0  0  0  0  0  0  0
    1.4234   -1.1416   -1.2404 O   0  0  0  0  0  0  0  0  0  0  0  0
    1.3537    0.7812    0.1947 C   0  0  0  0  0  0  0  0  0  0  0  0
    2.2851    1.5334   -0.5425 C   0  0  0  0  0  0  0  0  0  0  0  0
    2.8554    0.6316    0.3775 O   0  0  0  0  0  0  0  0  0  0  0  0
   -2.5613    1.8443    0.7433 H   0  0  0  0  0  0  0  0  0  0  0  0
   -1.1431    1.6891    1.8710 H   0  0  0  0  0  0  0  0  0  0  0  0
   -0.8827    1.8977    0.1005 H   0  0  0  0  0  0  0  0  0  0  0  0
   -1.2456   -0.5328    1.6532 H   0  0  0  0  0  0  0  0  0  0  0  0
   -2.6265   -0.3823    0.5840 H   0  0  0  0  0  0  0  0  0  0  0  0
   -0.9478   -0.2671   -1.3994 H   0  0  0  0  0  0  0  0  0  0  0  0
   -1.8801   -2.3319   -0.9961 H   0  0  0  0  0  0  0  0  0  0  0  0
   -0.1186   -2.6642   -0.8622 H   0  0  0  0  0  0  0  0  0  0  0  0
   -1.0479   -2.5041    0.6410 H   0  0  0  0  0  0  0  0  0  0  0  0
    0.9895   -1.2912    0.7189 H   0  0  0  0  0  0  0  0  0  0  0  0
    1.3953   -0.4151   -1.9170 H   0  0  0  0  0  0  0  0  0  0  0  0
    1.0177    1.1735    1.2118 H   0  0  0  0  0  0  0  0  0  0  0  0
    2.4819    2.5925   -0.2263 H   0  0  0  0  0  0  0  0  0  0  0  0
    2.5969    1.3487   -1.5734 H   0  0  0  0  0  0  0  0  0  0  0  0
  1  2  1  0
  2  3  1  0
  3  4  1  0
  3  5  1  0
  5  6  1  0
  5  7  1  0
  7  8  1  0
  8  9  1  0
  9  7  1  0
  1 10  1  0
  1 11  1  0
  1 12  1  0
  2 13  1  0
  2 14  1  0
  3 15  1  0
  4 16  1  0
  4 17  1  0
  4 18  1  0
  5 19  1  0
  6 20  1  0
  7 21  1  0
  8 22  1  0
  8 23  1  0
M  END
