
     RDKit          3D

 25 24  0  0  0  0  0  0  0  0999 V2000
    2.4001    0.9684   -1.0930 C   0  0  0  0  0  0  0  0  0  0  0  0
    0.9283    0.6143   -1.0738 C   0  0  0  0  0  0  0  0  0  0  0  0
    0.5733    0.1956    0.3375 C   0  0  0  0  0  0  0  0  0  0  0  0
    1.4306   -1.0032    0.6887 C   0  0  0  0  0  0  0  0  0  0  0  0
   -0.8716   -0.2844    0.3745 C   0  0  0  0  0  0  0  0  0  0  0  0
   -1.2372   -0.7044    1.7759 C   0  0  0  0  0  0  0  0  0  0  0  0
   -1.3075    0.3817    2.6469 O   0  0  0  0  0  0  0  0  0  0  0  0
   -1.7509    0.5856   -0.1968 O   0  0  0  0  0  0  0  0  0  0  0  0
   -2.3949    0.1236   -1.3272 C   0  0  0  0  0  0  0  0  0  0  0  0
    2.6826    1.3059   -0.0786 H   0  0  0  0  0  0  0  0  0  0  0  0
    3.0298    0.1242   -1.4575 H   0  0  0  0  0  0  0  0  0  0  0  0
    2.5023    1.8523   -1.7546 H   0  0  0  0  0  0  0  0  0  0  0  0
    0.7815   -0.2013   -1.7891 H   0  0  0  0  0  0  0  0  0  0  0  0
    0.2897    1.4600   -1.4166 H   0  0  0  0  0  0  0  0  0  0  0  0
    0.7736    0.9904    1.0534 H   0  0  0  0  0  0  0  0  0  0  0  0
    0.9019   -1.9361    0.3834 H   0  0  0  0  0  0  0  0  0  0  0  0
    1.6812   -0.9925    1.7708 H   0  0  0  0  0  0  0  0  0  0  0  0
    2.3882   -0.9609    0.1463 H   0  0  0  0  0  0  0  0  0  0  0  0
   -0.8820   -1.2183   -0.2437 H   0  0  0  0  0  0  0  0  0  0  0  0
   -0.4387   -1.3656    2.1736 H   0  0  0  0  0  0  0  0  0  0  0  0
   -2.1647   -1.3131    1.7782 H   0  0  0  0  0  0  0  0  0  0  0  0
   -1.5016    1.2255    2.2024 H   0  0  0  0  0  0  0  0  0  0  0  0
   -1.7033   -0.1375   -2.1450 H   0  0  0  0  0  0  0  0  0  0  0  0
   -3.0203    0.9674   -1.7088 H   0  0  0  0  0  0  0  0  0  0  0  0
   -3.0904   -0.6776   -1.0470 H   0  0  0  0  0  0  0  0  0  0  0  0
  1  2  1  0
  2  3  1  0
  3  4  1  0
  3  5  1  0
  5  6  1  0
  6  7  1  0
  5  8  1  0
  8  9  1  0
  1 10  1  0
  1 11  1  0
  1 12  1  0
  2 13  1  0
  2 14  1  0
  3 15  1  0
  4 16  1  0
  4 17  1  0
  4 18  1  0
  5 19  1  0
  6 20  1  0
  6 21  1  0
  7 22  1  0
  9 23  1  0
  9 24  1  0
  9 25  1  0
M  END
