
     RDKit          3D

 21 20  0  0  0  0  0  0  0  0999 V2000
   -1.9898    0.7876   -0.3061 C   0  0  0  0  0  0  0  0  0  0  0  0
   -0.5727    0.9963    0.1951 C   0  0  0  0  0  0  0  0  0  0  0  0
    0.1949   -0.3030    0.2433 C   0  0  0  0  0  0  0  0  0  0  0  0
   -0.4914   -1.3029    1.1802 C   0  0  0  0  0  0  0  0  0  0  0  0
    0.2440   -0.9643   -1.1140 C   0  0  0  0  0  0  0  0  0  0  0  0
    1.4527   -0.0981    0.7351 O   0  0  0  0  0  0  0  0  0  0  0  0
    2.2530    0.7613    0.0378 C   0  0  0  0  0  0  0  0  0  0  0  0
   -2.7205    1.2461    0.4110 H   0  0  0  0  0  0  0  0  0  0  0  0
   -2.1543    1.3165   -1.2667 H   0  0  0  0  0  0  0  0  0  0  0  0
   -2.2066   -0.3098   -0.4151 H   0  0  0  0  0  0  0  0  0  0  0  0
   -0.6162    1.3956    1.2227 H   0  0  0  0  0  0  0  0  0  0  0  0
   -0.0546    1.6536   -0.5234 H   0  0  0  0  0  0  0  0  0  0  0  0
   -0.7525   -0.8442    2.1464 H   0  0  0  0  0  0  0  0  0  0  0  0
    0.3008   -2.0696    1.4191 H   0  0  0  0  0  0  0  0  0  0  0  0
   -1.3237   -1.8180    0.6877 H   0  0  0  0  0  0  0  0  0  0  0  0
   -0.7466   -1.3497   -1.4296 H   0  0  0  0  0  0  0  0  0  0  0  0
    0.9502   -1.8376   -1.0150 H   0  0  0  0  0  0  0  0  0  0  0  0
    0.6722   -0.2438   -1.8279 H   0  0  0  0  0  0  0  0  0  0  0  0
    3.2373    0.7971    0.5920 H   0  0  0  0  0  0  0  0  0  0  0  0
    2.4200    0.3758   -0.9776 H   0  0  0  0  0  0  0  0  0  0  0  0
    1.9039    1.8111    0.0050 H   0  0  0  0  0  0  0  0  0  0  0  0
  1  2  1  0
  2  3  1  0
  3  4  1  0
  3  5  1  0
  3  6  1  0
  6  7  1  0
  1  8  1  0
  1  9  1  0
  1 10  1  0
  2 11  1  0
  2 12  1  0
  4 13  1  0
  4 14  1  0
  4 15  1  0
  5 16  1  0
  5 17  1  0
  5 18  1  0
  7 19  1  0
  7 20  1  0
  7 21  1  0
M  END
