
     RDKit          3D

 25 24  0  0  0  0  0  0  0  0999 V2000
    2.2687   -0.7568    1.0585 C   0  0  0  0  0  0  0  0  0  0  0  0
    1.8161    0.0579   -0.1400 C   0  0  0  0  0  0  0  0  0  0  0  0
    0.4625    0.6551    0.0643 C   0  0  0  0  0  0  0  0  0  0  0  0
    0.0999    1.4429   -1.1744 C   0  0  0  0  0  0  0  0  0  0  0  0
   -0.5875   -0.2846    0.5218 C   0  0  0  0  0  0  0  0  0  0  0  0
   -0.8865   -1.4335   -0.3654 C   0  0  0  0  0  0  0  0  0  0  0  0
   -1.3197   -1.1354   -1.6220 O   0  0  0  0  0  0  0  0  0  0  0  0
   -1.8819    0.3859    0.9171 C   0  0  0  0  0  0  0  0  0  0  0  0
   -2.4794    1.0969   -0.0810 O   0  0  0  0  0  0  0  0  0  0  0  0
    1.6329   -1.6301    1.2469 H   0  0  0  0  0  0  0  0  0  0  0  0
    2.3169   -0.0945    1.9473 H   0  0  0  0  0  0  0  0  0  0  0  0
    3.3029   -1.1337    0.8136 H   0  0  0  0  0  0  0  0  0  0  0  0
    1.9320   -0.5078   -1.0759 H   0  0  0  0  0  0  0  0  0  0  0  0
    2.5554    0.9028   -0.2127 H   0  0  0  0  0  0  0  0  0  0  0  0
    0.6004    1.4369    0.8682 H   0  0  0  0  0  0  0  0  0  0  0  0
   -0.1262    0.8244   -2.0462 H   0  0  0  0  0  0  0  0  0  0  0  0
   -0.6492    2.2350   -0.9788 H   0  0  0  0  0  0  0  0  0  0  0  0
    1.0403    2.0102   -1.4482 H   0  0  0  0  0  0  0  0  0  0  0  0
   -0.2007   -0.7473    1.4818 H   0  0  0  0  0  0  0  0  0  0  0  0
   -1.7160   -2.0172    0.1333 H   0  0  0  0  0  0  0  0  0  0  0  0
   -0.0416   -2.1785   -0.4194 H   0  0  0  0  0  0  0  0  0  0  0  0
   -0.7841   -1.5084   -2.3588 H   0  0  0  0  0  0  0  0  0  0  0  0
   -1.7397    0.9947    1.8341 H   0  0  0  0  0  0  0  0  0  0  0  0
   -2.5845   -0.4503    1.2020 H   0  0  0  0  0  0  0  0  0  0  0  0
   -3.0311    1.8352    0.2461 H   0  0  0  0  0  0  0  0  0  0  0  0
  1  2  1  0
  2  3  1  0
  3  4  1  0
  3  5  1  0
  5  6  1  0
  6  7  1  0
  5  8  1  0
  8  9  1  0
  1 10  1  0
  1 11  1  0
  1 12  1  0
  2 13  1  0
  2 14  1  0
  3 15  1  0
  4 16  1  0
  4 17  1  0
  4 18  1  0
  5 19  1  0
  6 20  1  0
  6 21  1  0
  7 22  1  0
  8 23  1  0
  8 24  1  0
  9 25  1  0
M  END
