
     RDKit          3D

 25 24  0  0  0  0  0  0  0  0999 V2000
   -3.0325   -1.1446    0.5997 C   0  0  0  0  0  0  0  0  0  0  0  0
   -2.3126   -0.0273   -0.1398 C   0  0  0  0  0  0  0  0  0  0  0  0
   -0.8303   -0.2324    0.1016 C   0  0  0  0  0  0  0  0  0  0  0  0
   -0.5362   -0.1764    1.4664 O   0  0  0  0  0  0  0  0  0  0  0  0
   -0.1016    0.8436   -0.6673 C   0  0  0  0  0  0  0  0  0  0  0  0
    1.3710    0.6571   -0.4560 C   0  0  0  0  0  0  0  0  0  0  0  0
    2.1555    1.7256   -1.2015 C   0  0  0  0  0  0  0  0  0  0  0  0
    1.7368   -0.6129   -0.8301 O   0  0  0  0  0  0  0  0  0  0  0  0
    2.3403   -1.3969    0.1003 C   0  0  0  0  0  0  0  0  0  0  0  0
   -2.4267   -1.5172    1.4678 H   0  0  0  0  0  0  0  0  0  0  0  0
   -3.1538   -2.0198   -0.0690 H   0  0  0  0  0  0  0  0  0  0  0  0
   -4.0190   -0.8447    0.9502 H   0  0  0  0  0  0  0  0  0  0  0  0
   -2.5920    0.9282    0.3289 H   0  0  0  0  0  0  0  0  0  0  0  0
   -2.5238   -0.0278   -1.2139 H   0  0  0  0  0  0  0  0  0  0  0  0
   -0.4807   -1.2046   -0.2901 H   0  0  0  0  0  0  0  0  0  0  0  0
   -0.8841    0.6194    1.9054 H   0  0  0  0  0  0  0  0  0  0  0  0
   -0.4531    1.8616   -0.4139 H   0  0  0  0  0  0  0  0  0  0  0  0
   -0.3941    0.6982   -1.7421 H   0  0  0  0  0  0  0  0  0  0  0  0
    1.6315    0.7984    0.6064 H   0  0  0  0  0  0  0  0  0  0  0  0
    2.2474    1.5132   -2.2773 H   0  0  0  0  0  0  0  0  0  0  0  0
    1.5665    2.6624   -1.1089 H   0  0  0  0  0  0  0  0  0  0  0  0
    3.1263    1.9099   -0.7066 H   0  0  0  0  0  0  0  0  0  0  0  0
    2.5588   -2.3791   -0.4073 H   0  0  0  0  0  0  0  0  0  0  0  0
    1.6775   -1.6402    0.9281 H   0  0  0  0  0  0  0  0  0  0  0  0
    3.3289   -0.9939    0.4011 H   0  0  0  0  0  0  0  0  0  0  0  0
  1  2  1  0
  2  3  1  0
  3  4  1  0
  3  5  1  0
  5  6  1  0
  6  7  1  0
  6  8  1  0
  8  9  1  0
  1 10  1  0
  1 11  1  0
  1 12  1  0
  2 13  1  0
  2 14  1  0
  3 15  1  0
  4 16  1  0
  5 17  1  0
  5 18  1  0
  6 19  1  0
  7 20  1  0
  7 21  1  0
  7 22  1  0
  9 23  1  0
  9 24  1  0
  9 25  1  0
M  END
