
     RDKit          3D

 23 23  0  0  0  0  0  0  0  0999 V2000
   -1.6120   -1.3706    0.9527 C   0  0  0  0  0  0  0  0  0  0  0  0
   -1.9926    0.0070    0.4672 C   0  0  0  0  0  0  0  0  0  0  0  0
   -0.9025    0.4973   -0.4344 C   0  0  0  0  0  0  0  0  0  0  0  0
   -1.1745    1.8812   -0.9878 C   0  0  0  0  0  0  0  0  0  0  0  0
    0.2824    0.5640    0.2805 O   0  0  0  0  0  0  0  0  0  0  0  0
    1.2046   -0.2770   -0.3133 C   0  0  0  0  0  0  0  0  0  0  0  0
    2.5904    0.3133   -0.4856 C   0  0  0  0  0  0  0  0  0  0  0  0
    3.0846   -0.9592   -0.1522 O   0  0  0  0  0  0  0  0  0  0  0  0
    1.9872   -1.0519    0.7263 C   0  0  0  0  0  0  0  0  0  0  0  0
   -1.1995   -1.9469    0.0731 H   0  0  0  0  0  0  0  0  0  0  0  0
   -2.4585   -1.9055    1.4287 H   0  0  0  0  0  0  0  0  0  0  0  0
   -0.7516   -1.2645    1.6552 H   0  0  0  0  0  0  0  0  0  0  0  0
   -2.0775    0.6481    1.3807 H   0  0  0  0  0  0  0  0  0  0  0  0
   -2.9912    0.0281   -0.0051 H   0  0  0  0  0  0  0  0  0  0  0  0
   -0.8200   -0.1996   -1.2880 H   0  0  0  0  0  0  0  0  0  0  0  0
   -1.4170    2.5725   -0.1794 H   0  0  0  0  0  0  0  0  0  0  0  0
   -1.9120    1.8779   -1.8073 H   0  0  0  0  0  0  0  0  0  0  0  0
   -0.1993    2.2291   -1.4258 H   0  0  0  0  0  0  0  0  0  0  0  0
    0.8815   -0.8273   -1.1935 H   0  0  0  0  0  0  0  0  0  0  0  0
    2.8065    0.6395   -1.5150 H   0  0  0  0  0  0  0  0  0  0  0  0
    2.8363    1.0315    0.3008 H   0  0  0  0  0  0  0  0  0  0  0  0
    2.1916   -0.4134    1.6026 H   0  0  0  0  0  0  0  0  0  0  0  0
    1.6430   -2.0738    0.9195 H   0  0  0  0  0  0  0  0  0  0  0  0
  1  2  1  0
  2  3  1  0
  3  4  1  0
  3  5  1  0
  5  6  1  0
  6  7  1  0
  7  8  1  0
  8  9  1  0
  9  6  1  0
  1 10  1  0
  1 11  1  0
  1 12  1  0
  2 13  1  0
  2 14  1  0
  3 15  1  0
  4 16  1  0
  4 17  1  0
  4 18  1  0
  6 19  1  0
  7 20  1  0
  7 21  1  0
  9 22  1  0
  9 23  1  0
M  END
