
     RDKit          3D

 20 19  0  0  0  0  0  0  0  0999 V2000
   -1.5257   -1.5206   -0.1847 C   0  0  0  0  0  0  0  0  0  0  0  0
   -0.0187   -1.3021   -0.2692 C   0  0  0  0  0  0  0  0  0  0  0  0
    0.2165    0.1733   -0.2911 C   0  0  0  0  0  0  0  0  0  0  0  0
    1.6624    0.5595   -0.3733 C   0  0  0  0  0  0  0  0  0  0  0  0
    2.4664    0.0630    0.7612 C   0  0  0  0  0  0  0  0  0  0  0  0
    2.0521   -0.5903    1.6855 O   0  0  0  0  0  0  0  0  0  0  0  0
   -0.4326    0.7924    0.7710 O   0  0  0  0  0  0  0  0  0  0  0  0
   -1.4335    1.6621    0.3594 C   0  0  0  0  0  0  0  0  0  0  0  0
   -1.6970   -2.6256   -0.0520 H   0  0  0  0  0  0  0  0  0  0  0  0
   -1.9201   -1.0242    0.7174 H   0  0  0  0  0  0  0  0  0  0  0  0
   -2.0405   -1.2225   -1.1201 H   0  0  0  0  0  0  0  0  0  0  0  0
    0.3117   -1.7515   -1.2434 H   0  0  0  0  0  0  0  0  0  0  0  0
    0.4267   -1.8385    0.5633 H   0  0  0  0  0  0  0  0  0  0  0  0
   -0.2727    0.5681   -1.2208 H   0  0  0  0  0  0  0  0  0  0  0  0
    1.7067    1.6726   -0.3393 H   0  0  0  0  0  0  0  0  0  0  0  0
    2.0826    0.2610   -1.3462 H   0  0  0  0  0  0  0  0  0  0  0  0
    3.5230    0.3082    0.7617 H   0  0  0  0  0  0  0  0  0  0  0  0
   -1.0429    2.4772   -0.2823 H   0  0  0  0  0  0  0  0  0  0  0  0
   -2.2493    1.1781   -0.1778 H   0  0  0  0  0  0  0  0  0  0  0  0
   -1.8152    2.1596    1.2805 H   0  0  0  0  0  0  0  0  0  0  0  0
  1  2  1  0
  2  3  1  0
  3  4  1  0
  4  5  1  0
  5  6  2  0
  3  7  1  0
  7  8  1  0
  1  9  1  0
  1 10  1  0
  1 11  1  0
  2 12  1  0
  2 13  1  0
  3 14  1  0
  4 15  1  0
  4 16  1  0
  5 17  1  0
  8 18  1  0
  8 19  1  0
  8 20  1  0
M  END
