
     RDKit          3D

 19 18  0  0  0  0  0  0  0  0999 V2000
    3.1018   -0.1960    0.7219 C   0  0  0  0  0  0  0  0  0  0  0  0
    2.0308   -0.7113   -0.2299 C   0  0  0  0  0  0  0  0  0  0  0  0
    0.6838   -0.2823    0.2038 C   0  0  0  0  0  0  0  0  0  0  0  0
    0.1361   -0.9036    1.0990 O   0  0  0  0  0  0  0  0  0  0  0  0
    0.0078    0.8651   -0.4216 C   0  0  0  0  0  0  0  0  0  0  0  0
   -1.2716    1.0902    0.1394 O   0  0  0  0  0  0  0  0  0  0  0  0
   -2.2335    0.0931    0.0635 C   0  0  0  0  0  0  0  0  0  0  0  0
   -3.6029    0.2355    0.6221 C   0  0  0  0  0  0  0  0  0  0  0  0
   -1.9491   -0.9927   -0.5035 O   0  0  0  0  0  0  0  0  0  0  0  0
    4.0031   -0.8363    0.5901 H   0  0  0  0  0  0  0  0  0  0  0  0
    3.4025    0.8165    0.3785 H   0  0  0  0  0  0  0  0  0  0  0  0
    2.7343   -0.1607    1.7518 H   0  0  0  0  0  0  0  0  0  0  0  0
    2.1160   -1.8213   -0.2081 H   0  0  0  0  0  0  0  0  0  0  0  0
    2.2590   -0.4027   -1.2733 H   0  0  0  0  0  0  0  0  0  0  0  0
   -0.1747    0.6456   -1.5094 H   0  0  0  0  0  0  0  0  0  0  0  0
    0.6092    1.7989   -0.4136 H   0  0  0  0  0  0  0  0  0  0  0  0
   -3.9241   -0.7498    0.9780 H   0  0  0  0  0  0  0  0  0  0  0  0
   -4.2624    0.4779   -0.2582 H   0  0  0  0  0  0  0  0  0  0  0  0
   -3.6662    1.0338    1.3824 H   0  0  0  0  0  0  0  0  0  0  0  0
  1  2  1  0
  2  3  1  0
  3  4  2  0
  3  5  1  0
  5  6  1  0
  6  7  1  0
  7  8  1  0
  7  9  2  0
  1 10  1  0
  1 11  1  0
  1 12  1  0
  2 13  1  0
  2 14  1  0
  5 15  1  0
  5 16  1  0
  8 17  1  0
  8 18  1  0
  8 19  1  0
M  END
