
     RDKit          3D

 19 18  0  0  0  0  0  0  0  0999 V2000
   -1.9722   -1.1931   -0.4623 C   0  0  0  0  0  0  0  0  0  0  0  0
   -1.4923    0.1945   -0.1846 C   0  0  0  0  0  0  0  0  0  0  0  0
   -0.0961    0.2653    0.3545 C   0  0  0  0  0  0  0  0  0  0  0  0
    0.2302    1.7032    0.5769 C   0  0  0  0  0  0  0  0  0  0  0  0
    1.0242    2.2997   -0.1323 O   0  0  0  0  0  0  0  0  0  0  0  0
    0.9277   -0.3204   -0.5850 C   0  0  0  0  0  0  0  0  0  0  0  0
    2.2894   -0.1974    0.0541 C   0  0  0  0  0  0  0  0  0  0  0  0
   -1.2166   -1.9705   -0.3885 H   0  0  0  0  0  0  0  0  0  0  0  0
   -2.7928   -1.4508    0.2519 H   0  0  0  0  0  0  0  0  0  0  0  0
   -2.4397   -1.2421   -1.4745 H   0  0  0  0  0  0  0  0  0  0  0  0
   -2.1575    0.6957    0.5473 H   0  0  0  0  0  0  0  0  0  0  0  0
   -1.5237    0.8227   -1.1050 H   0  0  0  0  0  0  0  0  0  0  0  0
   -0.0379   -0.2252    1.3464 H   0  0  0  0  0  0  0  0  0  0  0  0
   -0.2216    2.2944    1.3813 H   0  0  0  0  0  0  0  0  0  0  0  0
    0.6996   -1.3682   -0.8394 H   0  0  0  0  0  0  0  0  0  0  0  0
    0.9641    0.2647   -1.5280 H   0  0  0  0  0  0  0  0  0  0  0  0
    3.0768    0.0255   -0.7020 H   0  0  0  0  0  0  0  0  0  0  0  0
    2.2510    0.5714    0.8532 H   0  0  0  0  0  0  0  0  0  0  0  0
    2.4876   -1.1694    0.5690 H   0  0  0  0  0  0  0  0  0  0  0  0
  1  2  1  0
  2  3  1  0
  3  4  1  0
  4  5  2  0
  3  6  1  0
  6  7  1  0
  1  8  1  0
  1  9  1  0
  1 10  1  0
  2 11  1  0
  2 12  1  0
  3 13  1  0
  4 14  1  0
  6 15  1  0
  6 16  1  0
  7 17  1  0
  7 18  1  0
  7 19  1  0
M  END
