
     RDKit          3D

 17 17  0  0  0  0  0  0  0  0999 V2000
    2.7302    0.4503   -0.1939 C   0  0  0  0  0  0  0  0  0  0  0  0
    1.4509   -0.1897   -0.6546 C   0  0  0  0  0  0  0  0  0  0  0  0
    0.3915    0.1081    0.3421 C   0  0  0  0  0  0  0  0  0  0  0  0
    0.6148    0.7683    1.3357 O   0  0  0  0  0  0  0  0  0  0  0  0
   -0.9493   -0.4189    0.0984 C   0  0  0  0  0  0  0  0  0  0  0  0
   -1.9046   -0.0922    1.0941 O   0  0  0  0  0  0  0  0  0  0  0  0
   -2.8419   -0.2343    0.0478 C   0  0  0  0  0  0  0  0  0  0  0  0
   -1.8095    0.3153   -0.8376 C   0  0  0  0  0  0  0  0  0  0  0  0
   -1.7375    0.9962   -1.8015 O   0  0  0  0  0  0  0  0  0  0  0  0
    3.5889    0.1206   -0.8164 H   0  0  0  0  0  0  0  0  0  0  0  0
    2.8611    0.2109    0.8719 H   0  0  0  0  0  0  0  0  0  0  0  0
    2.5889    1.5501   -0.2687 H   0  0  0  0  0  0  0  0  0  0  0  0
    1.6050   -1.3024   -0.7598 H   0  0  0  0  0  0  0  0  0  0  0  0
    1.1772    0.2421   -1.6612 H   0  0  0  0  0  0  0  0  0  0  0  0
   -1.0095   -1.5334   -0.0456 H   0  0  0  0  0  0  0  0  0  0  0  0
   -3.7631    0.3464    0.1830 H   0  0  0  0  0  0  0  0  0  0  0  0
   -2.9929   -1.3373   -0.1025 H   0  0  0  0  0  0  0  0  0  0  0  0
  1  2  1  0
  2  3  1  0
  3  4  2  0
  3  5  1  0
  5  6  1  0
  6  7  1  0
  7  8  1  0
  8  9  2  0
  8  5  1  0
  1 10  1  0
  1 11  1  0
  1 12  1  0
  2 13  1  0
  2 14  1  0
  5 15  1  0
  7 16  1  0
  7 17  1  0
M  END
