
     RDKit          3D

 25 24  0  0  0  0  0  0  0  0999 V2000
   -2.9651   -0.2997   -0.9671 C   0  0  0  0  0  0  0  0  0  0  0  0
   -1.9614   -0.8488   -0.0078 C   0  0  0  0  0  0  0  0  0  0  0  0
   -0.5459   -0.3063   -0.3514 C   0  0  0  0  0  0  0  0  0  0  0  0
   -0.7137    1.2126   -0.2146 C   0  0  0  0  0  0  0  0  0  0  0  0
    0.3305   -0.8834    0.6844 C   0  0  0  0  0  0  0  0  0  0  0  0
    1.7592   -0.6390    0.7108 C   0  0  0  0  0  0  0  0  0  0  0  0
    2.3897   -1.0914   -0.4747 O   0  0  0  0  0  0  0  0  0  0  0  0
    2.3192    0.6775    1.0579 C   0  0  0  0  0  0  0  0  0  0  0  0
    2.1947    1.6588    0.0906 O   0  0  0  0  0  0  0  0  0  0  0  0
   -2.5035    0.3104   -1.7911 H   0  0  0  0  0  0  0  0  0  0  0  0
   -3.7144    0.3313   -0.4474 H   0  0  0  0  0  0  0  0  0  0  0  0
   -3.5325   -1.1266   -1.4428 H   0  0  0  0  0  0  0  0  0  0  0  0
   -1.9334   -1.9475    0.0500 H   0  0  0  0  0  0  0  0  0  0  0  0
   -2.1652   -0.4335    1.0030 H   0  0  0  0  0  0  0  0  0  0  0  0
   -0.3745   -0.6138   -1.3786 H   0  0  0  0  0  0  0  0  0  0  0  0
   -1.8100    1.5020   -0.2868 H   0  0  0  0  0  0  0  0  0  0  0  0
   -0.2337    1.6867   -1.0723 H   0  0  0  0  0  0  0  0  0  0  0  0
   -0.4169    1.5790    0.7802 H   0  0  0  0  0  0  0  0  0  0  0  0
    0.1598   -2.0078    0.6511 H   0  0  0  0  0  0  0  0  0  0  0  0
   -0.1494   -0.6135    1.6803 H   0  0  0  0  0  0  0  0  0  0  0  0
    2.1885   -1.3559    1.5141 H   0  0  0  0  0  0  0  0  0  0  0  0
    3.3119   -0.6927   -0.5280 H   0  0  0  0  0  0  0  0  0  0  0  0
    2.0343    1.0453    2.0714 H   0  0  0  0  0  0  0  0  0  0  0  0
    3.4392    0.5247    1.1596 H   0  0  0  0  0  0  0  0  0  0  0  0
    2.8925    2.3317    0.2454 H   0  0  0  0  0  0  0  0  0  0  0  0
  1  2  1  0
  2  3  1  0
  3  4  1  0
  3  5  1  0
  5  6  1  0
  6  7  1  0
  6  8  1  0
  8  9  1  0
  1 10  1  0
  1 11  1  0
  1 12  1  0
  2 13  1  0
  2 14  1  0
  3 15  1  0
  4 16  1  0
  4 17  1  0
  4 18  1  0
  5 19  1  0
  5 20  1  0
  6 21  1  0
  7 22  1  0
  8 23  1  0
  8 24  1  0
  9 25  1  0
M  END
