
     RDKit          3D

 16 15  0  0  0  0  0  0  0  0999 V2000
   -2.9016    0.1349    0.0291 C   0  0  0  0  0  0  0  0  0  0  0  0
   -1.5579   -0.3659    0.4897 C   0  0  0  0  0  0  0  0  0  0  0  0
   -0.4388    0.3163   -0.2261 C   0  0  0  0  0  0  0  0  0  0  0  0
   -0.6265    1.1911   -1.0958 O   0  0  0  0  0  0  0  0  0  0  0  0
    0.9080   -0.0786    0.1287 C   0  0  0  0  0  0  0  0  0  0  0  0
    1.1438   -0.9491    0.9925 O   0  0  0  0  0  0  0  0  0  0  0  0
    1.9793    0.5183   -0.5005 O   0  0  0  0  0  0  0  0  0  0  0  0
    3.2810    0.1115   -0.1323 C   0  0  0  0  0  0  0  0  0  0  0  0
   -2.9453    0.1360   -1.0747 H   0  0  0  0  0  0  0  0  0  0  0  0
   -3.6651   -0.5477    0.4654 H   0  0  0  0  0  0  0  0  0  0  0  0
   -3.1276    1.1463    0.4582 H   0  0  0  0  0  0  0  0  0  0  0  0
   -1.4238   -0.1562    1.5679 H   0  0  0  0  0  0  0  0  0  0  0  0
   -1.4820   -1.4428    0.2391 H   0  0  0  0  0  0  0  0  0  0  0  0
    4.0027    0.5300   -0.8707 H   0  0  0  0  0  0  0  0  0  0  0  0
    3.3224   -0.9865   -0.2089 H   0  0  0  0  0  0  0  0  0  0  0  0
    3.5314    0.4424    0.8908 H   0  0  0  0  0  0  0  0  0  0  0  0
  1  2  1  0
  2  3  1  0
  3  4  2  0
  3  5  1  0
  5  6  2  0
  5  7  1  0
  7  8  1  0
  1  9  1  0
  1 10  1  0
  1 11  1  0
  2 12  1  0
  2 13  1  0
  8 14  1  0
  8 15  1  0
  8 16  1  0
M  END
