
     RDKit          3D

 25 24  0  0  0  0  0  0  0  0999 V2000
   -2.5508    0.8165    0.5455 C   0  0  0  0  0  0  0  0  0  0  0  0
   -2.3131   -0.4081   -0.2698 C   0  0  0  0  0  0  0  0  0  0  0  0
   -1.1394   -1.2364    0.1480 C   0  0  0  0  0  0  0  0  0  0  0  0
   -1.2573   -1.6877    1.4607 O   0  0  0  0  0  0  0  0  0  0  0  0
    0.1854   -0.6867   -0.2193 C   0  0  0  0  0  0  0  0  0  0  0  0
    0.5475    0.6454    0.3206 C   0  0  0  0  0  0  0  0  0  0  0  0
    1.9564    0.9994   -0.1836 C   0  0  0  0  0  0  0  0  0  0  0  0
    2.9628   -0.0217    0.2801 C   0  0  0  0  0  0  0  0  0  0  0  0
    1.8922    0.9573   -1.5758 O   0  0  0  0  0  0  0  0  0  0  0  0
   -1.8831    0.9227    1.4277 H   0  0  0  0  0  0  0  0  0  0  0  0
   -3.5904    0.8263    0.9654 H   0  0  0  0  0  0  0  0  0  0  0  0
   -2.4642    1.7522   -0.0345 H   0  0  0  0  0  0  0  0  0  0  0  0
   -3.2590   -1.0119   -0.2959 H   0  0  0  0  0  0  0  0  0  0  0  0
   -2.1627   -0.0828   -1.3216 H   0  0  0  0  0  0  0  0  0  0  0  0
   -1.2421   -2.1959   -0.4586 H   0  0  0  0  0  0  0  0  0  0  0  0
   -1.4172   -0.9813    2.1047 H   0  0  0  0  0  0  0  0  0  0  0  0
    0.9883   -1.4053    0.0241 H   0  0  0  0  0  0  0  0  0  0  0  0
    0.1967   -0.6005   -1.3454 H   0  0  0  0  0  0  0  0  0  0  0  0
   -0.0939    1.4760   -0.0512 H   0  0  0  0  0  0  0  0  0  0  0  0
    0.5963    0.6966    1.4246 H   0  0  0  0  0  0  0  0  0  0  0  0
    2.2432    2.0206    0.1688 H   0  0  0  0  0  0  0  0  0  0  0  0
    2.5752   -0.6734    1.0917 H   0  0  0  0  0  0  0  0  0  0  0  0
    3.2638   -0.6863   -0.5692 H   0  0  0  0  0  0  0  0  0  0  0  0
    3.8641    0.4985    0.6323 H   0  0  0  0  0  0  0  0  0  0  0  0
    2.1012    0.0666   -1.9108 H   0  0  0  0  0  0  0  0  0  0  0  0
  1  2  1  0
  2  3  1  0
  3  4  1  0
  3  5  1  0
  5  6  1  0
  6  7  1  0
  7  8  1  0
  7  9  1  0
  1 10  1  0
  1 11  1  0
  1 12  1  0
  2 13  1  0
  2 14  1  0
  3 15  1  0
  4 16  1  0
  5 17  1  0
  5 18  1  0
  6 19  1  0
  6 20  1  0
  7 21  1  0
  8 22  1  0
  8 23  1  0
  8 24  1  0
  9 25  1  0
M  END
