
     RDKit          3D

 25 24  0  0  0  0  0  0  0  0999 V2000
   -2.4029    1.1625    0.0092 C   0  0  0  0  0  0  0  0  0  0  0  0
   -0.9732    0.7761    0.3316 C   0  0  0  0  0  0  0  0  0  0  0  0
   -0.5949   -0.5444   -0.2804 C   0  0  0  0  0  0  0  0  0  0  0  0
   -1.5964   -1.5537    0.3223 C   0  0  0  0  0  0  0  0  0  0  0  0
    0.7870   -0.9284    0.1821 C   0  0  0  0  0  0  0  0  0  0  0  0
    1.0247   -2.1871   -0.4604 O   0  0  0  0  0  0  0  0  0  0  0  0
    1.9041   -0.0666   -0.2388 C   0  0  0  0  0  0  0  0  0  0  0  0
    2.1673    1.1917    0.4707 C   0  0  0  0  0  0  0  0  0  0  0  0
    1.9033    0.1258   -1.6338 O   0  0  0  0  0  0  0  0  0  0  0  0
   -2.4955    2.2635   -0.1778 H   0  0  0  0  0  0  0  0  0  0  0  0
   -3.0899    0.9454    0.8569 H   0  0  0  0  0  0  0  0  0  0  0  0
   -2.6950    0.6358   -0.9035 H   0  0  0  0  0  0  0  0  0  0  0  0
   -0.8971    0.6997    1.4303 H   0  0  0  0  0  0  0  0  0  0  0  0
   -0.2707    1.5791    0.0038 H   0  0  0  0  0  0  0  0  0  0  0  0
   -0.7249   -0.6097   -1.3540 H   0  0  0  0  0  0  0  0  0  0  0  0
   -1.1459   -1.9289    1.2396 H   0  0  0  0  0  0  0  0  0  0  0  0
   -2.5486   -1.0486    0.5788 H   0  0  0  0  0  0  0  0  0  0  0  0
   -1.7929   -2.3773   -0.4071 H   0  0  0  0  0  0  0  0  0  0  0  0
    0.8061   -1.1634    1.2627 H   0  0  0  0  0  0  0  0  0  0  0  0
    1.1441   -2.0055   -1.4229 H   0  0  0  0  0  0  0  0  0  0  0  0
    2.8480   -0.7095   -0.0953 H   0  0  0  0  0  0  0  0  0  0  0  0
    1.5897    1.3046    1.4296 H   0  0  0  0  0  0  0  0  0  0  0  0
    3.2433    1.2486    0.8327 H   0  0  0  0  0  0  0  0  0  0  0  0
    2.0146    2.1349   -0.0858 H   0  0  0  0  0  0  0  0  0  0  0  0
    1.7956    1.0553   -1.8906 H   0  0  0  0  0  0  0  0  0  0  0  0
  1  2  1  0
  2  3  1  0
  3  4  1  0
  3  5  1  0
  5  6  1  0
  5  7  1  0
  7  8  1  0
  7  9  1  0
  1 10  1  0
  1 11  1  0
  1 12  1  0
  2 13  1  0
  2 14  1  0
  3 15  1  0
  4 16  1  0
  4 17  1  0
  4 18  1  0
  5 19  1  0
  6 20  1  0
  7 21  1  0
  8 22  1  0
  8 23  1  0
  8 24  1  0
  9 25  1  0
M  END
