
     RDKit          3D

 23 23  0  0  0  0  0  0  0  0999 V2000
   -2.5741    0.8990    0.7101 C   0  0  0  0  0  0  0  0  0  0  0  0
   -1.9097   -0.4177    0.9442 C   0  0  0  0  0  0  0  0  0  0  0  0
   -0.7797   -0.6894   -0.0240 C   0  0  0  0  0  0  0  0  0  0  0  0
   -1.3313   -0.6891   -1.4558 C   0  0  0  0  0  0  0  0  0  0  0  0
    0.1995    0.2624    0.0313 O   0  0  0  0  0  0  0  0  0  0  0  0
    1.4031   -0.3474    0.3742 C   0  0  0  0  0  0  0  0  0  0  0  0
    2.4558    0.7397    0.4238 C   0  0  0  0  0  0  0  0  0  0  0  0
    3.5441    0.5904   -0.6183 C   0  0  0  0  0  0  0  0  0  0  0  0
    3.7604    0.3920    0.7463 O   0  0  0  0  0  0  0  0  0  0  0  0
   -2.8216    1.3628    1.7064 H   0  0  0  0  0  0  0  0  0  0  0  0
   -3.5363    0.8245    0.1576 H   0  0  0  0  0  0  0  0  0  0  0  0
   -1.9157    1.6310    0.1743 H   0  0  0  0  0  0  0  0  0  0  0  0
   -2.6821   -1.2149    0.7340 H   0  0  0  0  0  0  0  0  0  0  0  0
   -1.5585   -0.5797    1.9710 H   0  0  0  0  0  0  0  0  0  0  0  0
   -0.3591   -1.6847    0.2166 H   0  0  0  0  0  0  0  0  0  0  0  0
   -2.4143   -0.7788   -1.4009 H   0  0  0  0  0  0  0  0  0  0  0  0
   -1.0824    0.2757   -1.9640 H   0  0  0  0  0  0  0  0  0  0  0  0
   -0.8881   -1.5432   -1.9989 H   0  0  0  0  0  0  0  0  0  0  0  0
    1.3280   -0.8918    1.3449 H   0  0  0  0  0  0  0  0  0  0  0  0
    1.6445   -1.1235   -0.4001 H   0  0  0  0  0  0  0  0  0  0  0  0
    2.0765    1.7454    0.6826 H   0  0  0  0  0  0  0  0  0  0  0  0
    3.5719   -0.2926   -1.2597 H   0  0  0  0  0  0  0  0  0  0  0  0
    3.8690    1.5297   -1.0958 H   0  0  0  0  0  0  0  0  0  0  0  0
  1  2  1  0
  2  3  1  0
  3  4  1  0
  3  5  1  0
  5  6  1  0
  6  7  1  0
  7  8  1  0
  8  9  1  0
  9  7  1  0
  1 10  1  0
  1 11  1  0
  1 12  1  0
  2 13  1  0
  2 14  1  0
  3 15  1  0
  4 16  1  0
  4 17  1  0
  4 18  1  0
  6 19  1  0
  6 20  1  0
  7 21  1  0
  8 22  1  0
  8 23  1  0
M  END
