
     RDKit          3D

 20 19  0  0  0  0  0  0  0  0999 V2000
    2.8137    0.3628   -0.1578 C   0  0  0  0  0  0  0  0  0  0  0  0
    1.3698    0.1608    0.3195 C   0  0  0  0  0  0  0  0  0  0  0  0
    0.5101   -0.1702   -0.8742 C   0  0  0  0  0  0  0  0  0  0  0  0
    1.0525   -1.3576   -1.4196 O   0  0  0  0  0  0  0  0  0  0  0  0
   -0.9061   -0.4834   -0.5125 C   0  0  0  0  0  0  0  0  0  0  0  0
   -1.6365    0.5838    0.1616 C   0  0  0  0  0  0  0  0  0  0  0  0
   -3.0388    0.3822    0.5755 C   0  0  0  0  0  0  0  0  0  0  0  0
   -1.1220    1.6581    0.4010 O   0  0  0  0  0  0  0  0  0  0  0  0
    3.0829    1.4375   -0.1316 H   0  0  0  0  0  0  0  0  0  0  0  0
    2.9077   -0.0572   -1.1926 H   0  0  0  0  0  0  0  0  0  0  0  0
    3.5282   -0.2110    0.4682 H   0  0  0  0  0  0  0  0  0  0  0  0
    1.0798    1.0754    0.8559 H   0  0  0  0  0  0  0  0  0  0  0  0
    1.3275   -0.7430    0.9890 H   0  0  0  0  0  0  0  0  0  0  0  0
    0.6084    0.5869   -1.6765 H   0  0  0  0  0  0  0  0  0  0  0  0
    1.0280   -2.0186   -0.6611 H   0  0  0  0  0  0  0  0  0  0  0  0
   -0.8790   -1.3695    0.1746 H   0  0  0  0  0  0  0  0  0  0  0  0
   -1.4465   -0.7756   -1.4470 H   0  0  0  0  0  0  0  0  0  0  0  0
   -3.5665   -0.1010   -0.2916 H   0  0  0  0  0  0  0  0  0  0  0  0
   -3.5725    1.3318    0.7788 H   0  0  0  0  0  0  0  0  0  0  0  0
   -3.1407   -0.2921    1.4591 H   0  0  0  0  0  0  0  0  0  0  0  0
  1  2  1  0
  2  3  1  0
  3  4  1  0
  3  5  1  0
  5  6  1  0
  6  7  1  0
  6  8  2  0
  1  9  1  0
  1 10  1  0
  1 11  1  0
  2 12  1  0
  2 13  1  0
  3 14  1  0
  4 15  1  0
  5 16  1  0
  5 17  1  0
  7 18  1  0
  7 19  1  0
  7 20  1  0
M  END
