
     RDKit          3D

 23 22  0  0  0  0  0  0  0  0999 V2000
   -1.8392   -1.4650   -0.2927 C   0  0  0  0  0  0  0  0  0  0  0  0
   -1.1435   -0.6200    0.7297 C   0  0  0  0  0  0  0  0  0  0  0  0
    0.1247    0.0251    0.1614 C   0  0  0  0  0  0  0  0  0  0  0  0
   -0.2858    0.8844   -0.9998 C   0  0  0  0  0  0  0  0  0  0  0  0
   -1.2539    1.9740   -0.5815 C   0  0  0  0  0  0  0  0  0  0  0  0
    1.0186   -0.9489   -0.2563 O   0  0  0  0  0  0  0  0  0  0  0  0
    2.1428   -1.0246    0.5078 C   0  0  0  0  0  0  0  0  0  0  0  0
    2.9825    0.1848    0.5875 C   0  0  0  0  0  0  0  0  0  0  0  0
    2.7697    1.2377    0.0411 O   0  0  0  0  0  0  0  0  0  0  0  0
   -2.4251   -2.2826    0.1582 H   0  0  0  0  0  0  0  0  0  0  0  0
   -1.1112   -1.8760   -1.0175 H   0  0  0  0  0  0  0  0  0  0  0  0
   -2.5722   -0.8738   -0.9146 H   0  0  0  0  0  0  0  0  0  0  0  0
   -1.8234    0.1928    1.0514 H   0  0  0  0  0  0  0  0  0  0  0  0
   -0.9071   -1.2676    1.5965 H   0  0  0  0  0  0  0  0  0  0  0  0
    0.5608    0.5732    1.0125 H   0  0  0  0  0  0  0  0  0  0  0  0
    0.5639    1.3255   -1.5035 H   0  0  0  0  0  0  0  0  0  0  0  0
   -0.8268    0.1867   -1.7063 H   0  0  0  0  0  0  0  0  0  0  0  0
   -1.2649    2.1192    0.5112 H   0  0  0  0  0  0  0  0  0  0  0  0
   -2.2691    1.7441   -0.9480 H   0  0  0  0  0  0  0  0  0  0  0  0
   -0.9376    2.9397   -1.0263 H   0  0  0  0  0  0  0  0  0  0  0  0
    2.7754   -1.8598    0.1213 H   0  0  0  0  0  0  0  0  0  0  0  0
    1.8443   -1.2846    1.5698 H   0  0  0  0  0  0  0  0  0  0  0  0
    3.8771    0.1156    1.1979 H   0  0  0  0  0  0  0  0  0  0  0  0
  1  2  1  0
  2  3  1  0
  3  4  1  0
  4  5  1  0
  3  6  1  0
  6  7  1  0
  7  8  1  0
  8  9  2  0
  1 10  1  0
  1 11  1  0
  1 12  1  0
  2 13  1  0
  2 14  1  0
  3 15  1  0
  4 16  1  0
  4 17  1  0
  5 18  1  0
  5 19  1  0
  5 20  1  0
  7 21  1  0
  7 22  1  0
  8 23  1  0
M  END
