
     RDKit          3D

 19 19  0  0  0  0  0  0  0  0999 V2000
    2.4143   -0.7965   -0.0252 C   0  0  0  0  0  0  0  0  0  0  0  0
    1.6867    0.5030   -0.1870 C   0  0  0  0  0  0  0  0  0  0  0  0
    0.2149    0.3622   -0.1268 C   0  0  0  0  0  0  0  0  0  0  0  0
   -0.5067    0.9862    0.7909 C   0  0  0  0  0  0  0  0  0  0  0  0
   -1.9622    0.8883    0.9036 C   0  0  0  0  0  0  0  0  0  0  0  0
   -2.5916    0.2269   -0.0988 O   0  0  0  0  0  0  0  0  0  0  0  0
   -1.8941   -0.8489   -0.6269 C   0  0  0  0  0  0  0  0  0  0  0  0
   -0.5346   -0.4655   -1.0661 C   0  0  0  0  0  0  0  0  0  0  0  0
   -0.0106   -0.7955   -2.1512 O   0  0  0  0  0  0  0  0  0  0  0  0
    2.0860   -1.3710    0.8511 H   0  0  0  0  0  0  0  0  0  0  0  0
    3.4951   -0.5374    0.1614 H   0  0  0  0  0  0  0  0  0  0  0  0
    2.4382   -1.4049   -0.9664 H   0  0  0  0  0  0  0  0  0  0  0  0
    1.9885    1.1604    0.6538 H   0  0  0  0  0  0  0  0  0  0  0  0
    2.0275    0.9821   -1.1098 H   0  0  0  0  0  0  0  0  0  0  0  0
    0.0638    1.6124    1.4995 H   0  0  0  0  0  0  0  0  0  0  0  0
   -2.3890    1.9331    0.9498 H   0  0  0  0  0  0  0  0  0  0  0  0
   -2.2228    0.4462    1.9073 H   0  0  0  0  0  0  0  0  0  0  0  0
   -2.5061   -1.2330   -1.4876 H   0  0  0  0  0  0  0  0  0  0  0  0
   -1.7974   -1.6482    0.1283 H   0  0  0  0  0  0  0  0  0  0  0  0
  1  2  1  0
  2  3  1  0
  3  4  2  0
  4  5  1  0
  5  6  1  0
  6  7  1  0
  7  8  1  0
  8  9  2  0
  8  3  1  0
  1 10  1  0
  1 11  1  0
  1 12  1  0
  2 13  1  0
  2 14  1  0
  4 15  1  0
  5 16  1  0
  5 17  1  0
  7 18  1  0
  7 19  1  0
M  END
