
     RDKit          3D

 21 22  0  0  0  0  0  0  0  0999 V2000
   -3.1289    0.1418    0.0878 C   0  0  0  0  0  0  0  0  0  0  0  0
   -1.8895    0.1140   -0.7399 C   0  0  0  0  0  0  0  0  0  0  0  0
   -0.7725   -0.7065   -0.1273 C   0  0  0  0  0  0  0  0  0  0  0  0
   -0.3829   -0.2436    1.0992 O   0  0  0  0  0  0  0  0  0  0  0  0
    0.9927   -0.2097    1.1549 C   0  0  0  0  0  0  0  0  0  0  0  0
    1.3749   -0.0971   -0.2986 C   0  0  0  0  0  0  0  0  0  0  0  0
    2.7851   -0.3265   -0.6684 C   0  0  0  0  0  0  0  0  0  0  0  0
    2.1358    1.0568   -0.8043 C   0  0  0  0  0  0  0  0  0  0  0  0
    0.3163   -0.6062   -0.9967 O   0  0  0  0  0  0  0  0  0  0  0  0
   -3.1164    1.0377    0.7721 H   0  0  0  0  0  0  0  0  0  0  0  0
   -3.9982    0.2783   -0.6156 H   0  0  0  0  0  0  0  0  0  0  0  0
   -3.3198   -0.7622    0.6699 H   0  0  0  0  0  0  0  0  0  0  0  0
   -1.5504    1.1536   -0.9144 H   0  0  0  0  0  0  0  0  0  0  0  0
   -2.1100   -0.3609   -1.7291 H   0  0  0  0  0  0  0  0  0  0  0  0
   -1.0377   -1.7811   -0.0879 H   0  0  0  0  0  0  0  0  0  0  0  0
    1.4143   -1.1809    1.5357 H   0  0  0  0  0  0  0  0  0  0  0  0
    1.3607    0.6235    1.7709 H   0  0  0  0  0  0  0  0  0  0  0  0
    3.5765   -0.4393    0.1075 H   0  0  0  0  0  0  0  0  0  0  0  0
    2.9324   -0.9041   -1.6197 H   0  0  0  0  0  0  0  0  0  0  0  0
    2.5515    1.8233   -0.1457 H   0  0  0  0  0  0  0  0  0  0  0  0
    1.8661    1.3890   -1.8379 H   0  0  0  0  0  0  0  0  0  0  0  0
  1  2  1  0
  2  3  1  0
  3  4  1  0
  4  5  1  0
  5  6  1  0
  6  7  1  0
  7  8  1  0
  6  9  1  0
  9  3  1  0
  8  6  1  0
  1 10  1  0
  1 11  1  0
  1 12  1  0
  2 13  1  0
  2 14  1  0
  3 15  1  0
  5 16  1  0
  5 17  1  0
  7 18  1  0
  7 19  1  0
  8 20  1  0
  8 21  1  0
M  END
