
     RDKit          3D

 19 20  0  0  0  0  0  0  0  0999 V2000
    2.1246   -0.7225    0.6267 C   0  0  0  0  0  0  0  0  0  0  0  0
    1.3642   -0.3394   -0.6299 C   0  0  0  0  0  0  0  0  0  0  0  0
    0.0856    0.3101   -0.2051 C   0  0  0  0  0  0  0  0  0  0  0  0
    0.0644    1.5208    0.6041 C   0  0  0  0  0  0  0  0  0  0  0  0
    0.5742    1.8931    1.6766 O   0  0  0  0  0  0  0  0  0  0  0  0
   -0.7740    2.1089   -0.3238 O   0  0  0  0  0  0  0  0  0  0  0  0
   -0.8271    0.9642   -1.1654 C   0  0  0  0  0  0  0  0  0  0  0  0
   -1.2023   -0.3496   -0.5751 C   0  0  0  0  0  0  0  0  0  0  0  0
   -2.2104   -0.4191    0.5544 C   0  0  0  0  0  0  0  0  0  0  0  0
    2.1057    0.1712    1.2850 H   0  0  0  0  0  0  0  0  0  0  0  0
    1.5047   -1.5324    1.1115 H   0  0  0  0  0  0  0  0  0  0  0  0
    3.1370   -1.0814    0.4118 H   0  0  0  0  0  0  0  0  0  0  0  0
    2.0005    0.3124   -1.2600 H   0  0  0  0  0  0  0  0  0  0  0  0
    1.1284   -1.2654   -1.1681 H   0  0  0  0  0  0  0  0  0  0  0  0
   -0.6062    1.1040   -2.2215 H   0  0  0  0  0  0  0  0  0  0  0  0
   -1.1282   -1.2066   -1.2765 H   0  0  0  0  0  0  0  0  0  0  0  0
   -3.0634    0.2394    0.4121 H   0  0  0  0  0  0  0  0  0  0  0  0
   -2.5673   -1.4691    0.5966 H   0  0  0  0  0  0  0  0  0  0  0  0
   -1.7103   -0.2385    1.5466 H   0  0  0  0  0  0  0  0  0  0  0  0
  1  2  1  0
  2  3  1  0
  3  4  1  0
  4  5  2  0
  4  6  1  0
  6  7  1  0
  7  8  1  0
  8  9  1  0
  7  3  1  0
  8  3  1  0
  1 10  1  0
  1 11  1  0
  1 12  1  0
  2 13  1  0
  2 14  1  0
  7 15  1  0
  8 16  1  0
  9 17  1  0
  9 18  1  0
  9 19  1  0
M  END
