
     RDKit          3D

 21 21  0  0  0  0  0  0  0  0999 V2000
    2.5425    0.1121    0.1824 C   0  0  0  0  0  0  0  0  0  0  0  0
    1.2073    0.6393   -0.2763 C   0  0  0  0  0  0  0  0  0  0  0  0
    0.0573   -0.1760    0.2011 C   0  0  0  0  0  0  0  0  0  0  0  0
   -0.0804   -0.2814    1.5663 O   0  0  0  0  0  0  0  0  0  0  0  0
   -0.1810   -1.4810   -0.5578 C   0  0  0  0  0  0  0  0  0  0  0  0
   -1.6335   -1.1541   -0.5064 C   0  0  0  0  0  0  0  0  0  0  0  0
   -2.6306   -1.8535   -0.4786 O   0  0  0  0  0  0  0  0  0  0  0  0
   -1.2253    0.2794   -0.5084 C   0  0  0  0  0  0  0  0  0  0  0  0
   -2.0410    1.1961    0.3368 C   0  0  0  0  0  0  0  0  0  0  0  0
    2.7193   -0.8540   -0.2935 H   0  0  0  0  0  0  0  0  0  0  0  0
    3.3041    0.8542   -0.1007 H   0  0  0  0  0  0  0  0  0  0  0  0
    2.5651    0.0037    1.2875 H   0  0  0  0  0  0  0  0  0  0  0  0
    1.2115    0.7085   -1.3678 H   0  0  0  0  0  0  0  0  0  0  0  0
    1.0638    1.6821    0.1172 H   0  0  0  0  0  0  0  0  0  0  0  0
    0.4124   -1.0331    1.9625 H   0  0  0  0  0  0  0  0  0  0  0  0
    0.1762   -1.3603   -1.6027 H   0  0  0  0  0  0  0  0  0  0  0  0
    0.1362   -2.3792   -0.0309 H   0  0  0  0  0  0  0  0  0  0  0  0
   -0.9836    0.6471   -1.5342 H   0  0  0  0  0  0  0  0  0  0  0  0
   -2.8322    0.6926    0.9275 H   0  0  0  0  0  0  0  0  0  0  0  0
   -1.3232    1.7542    1.0040 H   0  0  0  0  0  0  0  0  0  0  0  0
   -2.4649    2.0033   -0.3280 H   0  0  0  0  0  0  0  0  0  0  0  0
  1  2  1  0
  2  3  1  0
  3  4  1  0
  3  5  1  0
  5  6  1  0
  6  7  2  0
  6  8  1  0
  8  9  1  0
  8  3  1  0
  1 10  1  0
  1 11  1  0
  1 12  1  0
  2 13  1  0
  2 14  1  0
  4 15  1  0
  5 16  1  0
  5 17  1  0
  8 18  1  0
  9 19  1  0
  9 20  1  0
  9 21  1  0
M  END
