
     RDKit          3D

 23 23  0  0  0  0  0  0  0  0999 V2000
   -2.0482    1.3811    0.5269 C   0  0  0  0  0  0  0  0  0  0  0  0
   -1.7396    0.3978   -0.5492 C   0  0  0  0  0  0  0  0  0  0  0  0
   -0.6130   -0.5309   -0.2369 C   0  0  0  0  0  0  0  0  0  0  0  0
   -0.3257   -1.5251   -1.3639 C   0  0  0  0  0  0  0  0  0  0  0  0
   -0.3318   -1.0454    1.1028 C   0  0  0  0  0  0  0  0  0  0  0  0
    0.5177    0.0302    0.5491 C   0  0  0  0  0  0  0  0  0  0  0  0
    1.8973   -0.2026    0.1048 C   0  0  0  0  0  0  0  0  0  0  0  0
    2.9373    0.8489    0.2910 C   0  0  0  0  0  0  0  0  0  0  0  0
    2.2837   -1.2299   -0.4283 O   0  0  0  0  0  0  0  0  0  0  0  0
   -3.0071    1.8753    0.2770 H   0  0  0  0  0  0  0  0  0  0  0  0
   -1.2857    2.1691    0.5757 H   0  0  0  0  0  0  0  0  0  0  0  0
   -2.1976    0.8319    1.4751 H   0  0  0  0  0  0  0  0  0  0  0  0
   -2.6721   -0.1455   -0.8673 H   0  0  0  0  0  0  0  0  0  0  0  0
   -1.4431    0.9861   -1.4599 H   0  0  0  0  0  0  0  0  0  0  0  0
   -1.3204   -1.9729   -1.6083 H   0  0  0  0  0  0  0  0  0  0  0  0
    0.2949   -2.3689   -1.0074 H   0  0  0  0  0  0  0  0  0  0  0  0
    0.1034   -1.0304   -2.2506 H   0  0  0  0  0  0  0  0  0  0  0  0
   -1.0769   -0.8180    1.9020 H   0  0  0  0  0  0  0  0  0  0  0  0
    0.0728   -2.0914    1.2337 H   0  0  0  0  0  0  0  0  0  0  0  0
    0.3444    1.0242    1.0148 H   0  0  0  0  0  0  0  0  0  0  0  0
    2.4935    1.8609    0.4055 H   0  0  0  0  0  0  0  0  0  0  0  0
    3.6453    0.9091   -0.5466 H   0  0  0  0  0  0  0  0  0  0  0  0
    3.4709    0.6464    1.2580 H   0  0  0  0  0  0  0  0  0  0  0  0
  1  2  1  0
  2  3  1  0
  3  4  1  0
  3  5  1  0
  5  6  1  0
  6  7  1  0
  7  8  1  0
  7  9  2  0
  6  3  1  0
  1 10  1  0
  1 11  1  0
  1 12  1  0
  2 13  1  0
  2 14  1  0
  4 15  1  0
  4 16  1  0
  4 17  1  0
  5 18  1  0
  5 19  1  0
  6 20  1  0
  8 21  1  0
  8 22  1  0
  8 23  1  0
M  END
