
     RDKit          3D

 25 25  0  0  0  0  0  0  0  0999 V2000
    2.3367    1.0016    0.4852 C   0  0  0  0  0  0  0  0  0  0  0  0
    1.4340   -0.1063    0.9870 C   0  0  0  0  0  0  0  0  0  0  0  0
    0.2418   -0.1646    0.0670 C   0  0  0  0  0  0  0  0  0  0  0  0
    0.6989   -0.4566   -1.3481 C   0  0  0  0  0  0  0  0  0  0  0  0
   -0.3463   -0.5226   -2.2387 O   0  0  0  0  0  0  0  0  0  0  0  0
   -0.5365    1.1104    0.1705 C   0  0  0  0  0  0  0  0  0  0  0  0
   -2.0050    0.7227    0.2506 C   0  0  0  0  0  0  0  0  0  0  0  0
   -2.0597   -0.7750    0.0520 C   0  0  0  0  0  0  0  0  0  0  0  0
   -0.7110   -1.2172    0.5261 C   0  0  0  0  0  0  0  0  0  0  0  0
    2.9653    0.6604   -0.3689 H   0  0  0  0  0  0  0  0  0  0  0  0
    1.7334    1.8583    0.1430 H   0  0  0  0  0  0  0  0  0  0  0  0
    3.0273    1.3712    1.2804 H   0  0  0  0  0  0  0  0  0  0  0  0
    1.9486   -1.0570    1.1019 H   0  0  0  0  0  0  0  0  0  0  0  0
    1.0472    0.2339    1.9884 H   0  0  0  0  0  0  0  0  0  0  0  0
    1.1572   -1.4871   -1.3064 H   0  0  0  0  0  0  0  0  0  0  0  0
    1.4258    0.2938   -1.7121 H   0  0  0  0  0  0  0  0  0  0  0  0
   -0.4383   -1.4116   -2.6783 H   0  0  0  0  0  0  0  0  0  0  0  0
   -0.2973    1.6269    1.1337 H   0  0  0  0  0  0  0  0  0  0  0  0
   -0.3435    1.7848   -0.7082 H   0  0  0  0  0  0  0  0  0  0  0  0
   -2.4370    0.9252    1.2514 H   0  0  0  0  0  0  0  0  0  0  0  0
   -2.5709    1.2755   -0.5211 H   0  0  0  0  0  0  0  0  0  0  0  0
   -2.2650   -1.0471   -1.0033 H   0  0  0  0  0  0  0  0  0  0  0  0
   -2.8887   -1.2061    0.6696 H   0  0  0  0  0  0  0  0  0  0  0  0
   -0.3920   -2.2007    0.1272 H   0  0  0  0  0  0  0  0  0  0  0  0
   -0.7250   -1.2126    1.6510 H   0  0  0  0  0  0  0  0  0  0  0  0
  1  2  1  0
  2  3  1  0
  3  4  1  0
  4  5  1  0
  3  6  1  0
  6  7  1  0
  7  8  1  0
  8  9  1  0
  9  3  1  0
  1 10  1  0
  1 11  1  0
  1 12  1  0
  2 13  1  0
  2 14  1  0
  4 15  1  0
  4 16  1  0
  5 17  1  0
  6 18  1  0
  6 19  1  0
  7 20  1  0
  7 21  1  0
  8 22  1  0
  8 23  1  0
  9 24  1  0
  9 25  1  0
M  END
