
     RDKit          3D

 25 25  0  0  0  0  0  0  0  0999 V2000
   -3.0455   -0.0051   -0.0533 C   0  0  0  0  0  0  0  0  0  0  0  0
   -1.7221    0.6729   -0.3535 C   0  0  0  0  0  0  0  0  0  0  0  0
   -0.6897    0.0596    0.5628 C   0  0  0  0  0  0  0  0  0  0  0  0
   -0.6306   -1.4155    0.2675 C   0  0  0  0  0  0  0  0  0  0  0  0
    0.8309   -1.7123    0.2196 C   0  0  0  0  0  0  0  0  0  0  0  0
    1.5306   -0.3757    0.1652 C   0  0  0  0  0  0  0  0  0  0  0  0
    2.9940   -0.2430   -0.0768 C   0  0  0  0  0  0  0  0  0  0  0  0
    0.6595    0.5995    0.3598 C   0  0  0  0  0  0  0  0  0  0  0  0
    1.0037    2.0428    0.3708 C   0  0  0  0  0  0  0  0  0  0  0  0
   -3.3262   -0.7551   -0.7971 H   0  0  0  0  0  0  0  0  0  0  0  0
   -3.8617    0.7577    0.0475 H   0  0  0  0  0  0  0  0  0  0  0  0
   -3.0160   -0.5254    0.9398 H   0  0  0  0  0  0  0  0  0  0  0  0
   -1.7696    1.7663   -0.2509 H   0  0  0  0  0  0  0  0  0  0  0  0
   -1.4570    0.3941   -1.4096 H   0  0  0  0  0  0  0  0  0  0  0  0
   -1.0015    0.2340    1.5965 H   0  0  0  0  0  0  0  0  0  0  0  0
   -1.1556   -1.9667    1.0913 H   0  0  0  0  0  0  0  0  0  0  0  0
   -1.1631   -1.6872   -0.6751 H   0  0  0  0  0  0  0  0  0  0  0  0
    1.1275   -2.3328   -0.6578 H   0  0  0  0  0  0  0  0  0  0  0  0
    1.1281   -2.1707    1.1828 H   0  0  0  0  0  0  0  0  0  0  0  0
    3.2155    0.1246   -1.1037 H   0  0  0  0  0  0  0  0  0  0  0  0
    3.5166   -1.1898    0.0528 H   0  0  0  0  0  0  0  0  0  0  0  0
    3.4583    0.4922    0.6411 H   0  0  0  0  0  0  0  0  0  0  0  0
    1.5686    2.2964   -0.5484 H   0  0  0  0  0  0  0  0  0  0  0  0
    1.6814    2.2555    1.2496 H   0  0  0  0  0  0  0  0  0  0  0  0
    0.1240    2.6833    0.5040 H   0  0  0  0  0  0  0  0  0  0  0  0
  1  2  1  0
  2  3  1  0
  3  4  1  0
  4  5  1  0
  5  6  1  0
  6  7  1  0
  6  8  2  0
  8  9  1  0
  8  3  1  0
  1 10  1  0
  1 11  1  0
  1 12  1  0
  2 13  1  0
  2 14  1  0
  3 15  1  0
  4 16  1  0
  4 17  1  0
  5 18  1  0
  5 19  1  0
  7 20  1  0
  7 21  1  0
  7 22  1  0
  9 23  1  0
  9 24  1  0
  9 25  1  0
M  END
