
     RDKit          3D

 27 27  0  0  0  0  0  0  0  0999 V2000
    3.1567   -0.3631    0.7212 C   0  0  0  0  0  0  0  0  0  0  0  0
    1.8201   -0.0609    1.3887 C   0  0  0  0  0  0  0  0  0  0  0  0
    0.7924   -0.0023    0.2840 C   0  0  0  0  0  0  0  0  0  0  0  0
    1.0652    1.0518   -0.7513 C   0  0  0  0  0  0  0  0  0  0  0  0
    0.3811   -1.3955   -0.2132 C   0  0  0  0  0  0  0  0  0  0  0  0
   -0.5830   -0.4837    0.5602 C   0  0  0  0  0  0  0  0  0  0  0  0
   -1.7622   -0.0103   -0.2135 C   0  0  0  0  0  0  0  0  0  0  0  0
   -3.0031   -0.7049    0.3288 C   0  0  0  0  0  0  0  0  0  0  0  0
   -1.9274    1.4914   -0.1883 C   0  0  0  0  0  0  0  0  0  0  0  0
    3.6643    0.5531    0.3700 H   0  0  0  0  0  0  0  0  0  0  0  0
    3.8154   -0.9546    1.4191 H   0  0  0  0  0  0  0  0  0  0  0  0
    2.9998   -1.0358   -0.1520 H   0  0  0  0  0  0  0  0  0  0  0  0
    1.6202   -0.8785    2.0953 H   0  0  0  0  0  0  0  0  0  0  0  0
    1.8691    0.8737    1.9762 H   0  0  0  0  0  0  0  0  0  0  0  0
    2.1794    1.0743   -0.9406 H   0  0  0  0  0  0  0  0  0  0  0  0
    0.5812    0.8197   -1.7407 H   0  0  0  0  0  0  0  0  0  0  0  0
    0.8239    2.0768   -0.4013 H   0  0  0  0  0  0  0  0  0  0  0  0
    0.7378   -2.2776    0.3207 H   0  0  0  0  0  0  0  0  0  0  0  0
    0.2585   -1.4526   -1.3135 H   0  0  0  0  0  0  0  0  0  0  0  0
   -0.8268   -0.8287    1.6025 H   0  0  0  0  0  0  0  0  0  0  0  0
   -1.6597   -0.3252   -1.2677 H   0  0  0  0  0  0  0  0  0  0  0  0
   -2.7449   -1.7422    0.6289 H   0  0  0  0  0  0  0  0  0  0  0  0
   -3.4251   -0.1724    1.1999 H   0  0  0  0  0  0  0  0  0  0  0  0
   -3.7729   -0.7970   -0.4822 H   0  0  0  0  0  0  0  0  0  0  0  0
   -1.5807    1.9523    0.7462 H   0  0  0  0  0  0  0  0  0  0  0  0
   -1.4628    1.8966   -1.0996 H   0  0  0  0  0  0  0  0  0  0  0  0
   -3.0164    1.6956   -0.2622 H   0  0  0  0  0  0  0  0  0  0  0  0
  1  2  1  0
  2  3  1  0
  3  4  1  0
  3  5  1  0
  5  6  1  0
  6  7  1  0
  7  8  1  0
  7  9  1  0
  6  3  1  0
  1 10  1  0
  1 11  1  0
  1 12  1  0
  2 13  1  0
  2 14  1  0
  4 15  1  0
  4 16  1  0
  4 17  1  0
  5 18  1  0
  5 19  1  0
  6 20  1  0
  7 21  1  0
  8 22  1  0
  8 23  1  0
  8 24  1  0
  9 25  1  0
  9 26  1  0
  9 27  1  0
M  END
