
     RDKit          3D

 21 22  0  0  0  0  0  0  0  0999 V2000
    2.6597   -0.2684    0.4119 C   0  0  0  0  0  0  0  0  0  0  0  0
    1.5404    0.7512    0.2415 C   0  0  0  0  0  0  0  0  0  0  0  0
    0.2694    0.0269   -0.1653 C   0  0  0  0  0  0  0  0  0  0  0  0
    0.4018   -0.6529   -1.4793 C   0  0  0  0  0  0  0  0  0  0  0  0
    0.3613   -1.8665   -1.6133 O   0  0  0  0  0  0  0  0  0  0  0  0
   -0.7235   -0.2974    0.8268 C   0  0  0  0  0  0  0  0  0  0  0  0
   -2.0137   -0.8935    0.2409 C   0  0  0  0  0  0  0  0  0  0  0  0
   -2.3260    0.5300   -0.2122 C   0  0  0  0  0  0  0  0  0  0  0  0
   -0.9089    0.9479   -0.0609 C   0  0  0  0  0  0  0  0  0  0  0  0
    2.3444   -1.3114    0.2125 H   0  0  0  0  0  0  0  0  0  0  0  0
    3.4868    0.0576   -0.2505 H   0  0  0  0  0  0  0  0  0  0  0  0
    3.0287   -0.2596    1.4445 H   0  0  0  0  0  0  0  0  0  0  0  0
    1.3546    1.2056    1.2433 H   0  0  0  0  0  0  0  0  0  0  0  0
    1.7849    1.5621   -0.4288 H   0  0  0  0  0  0  0  0  0  0  0  0
    0.5385   -0.0929   -2.3839 H   0  0  0  0  0  0  0  0  0  0  0  0
   -0.6739   -0.0612    1.8889 H   0  0  0  0  0  0  0  0  0  0  0  0
   -1.8421   -1.5941   -0.6083 H   0  0  0  0  0  0  0  0  0  0  0  0
   -2.6854   -1.3217    0.9747 H   0  0  0  0  0  0  0  0  0  0  0  0
   -3.0330    0.9847    0.5311 H   0  0  0  0  0  0  0  0  0  0  0  0
   -2.7926    0.6236   -1.2099 H   0  0  0  0  0  0  0  0  0  0  0  0
   -0.7714    1.9299    0.3963 H   0  0  0  0  0  0  0  0  0  0  0  0
  1  2  1  0
  2  3  1  0
  3  4  1  0
  4  5  2  0
  3  6  1  0
  6  7  1  0
  7  8  1  0
  8  9  1  0
  9  3  1  0
  9  6  1  0
  1 10  1  0
  1 11  1  0
  1 12  1  0
  2 13  1  0
  2 14  1  0
  4 15  1  0
  6 16  1  0
  7 17  1  0
  7 18  1  0
  8 19  1  0
  8 20  1  0
  9 21  1  0
M  END
