
     RDKit          3D

 20 22  0  0  0  0  0  0  0  0999 V2000
    2.7043    0.4854   -0.2848 C   0  0  0  0  0  0  0  0  0  0  0  0
    1.9000   -0.5879    0.4076 C   0  0  0  0  0  0  0  0  0  0  0  0
    0.5270   -0.0832    0.7113 C   0  0  0  0  0  0  0  0  0  0  0  0
   -0.3007    0.3366   -0.3674 C   0  0  0  0  0  0  0  0  0  0  0  0
   -1.6691    0.9132    0.0354 C   0  0  0  0  0  0  0  0  0  0  0  0
   -2.9757    0.3420   -0.2742 C   0  0  0  0  0  0  0  0  0  0  0  0
   -1.9137   -0.5937   -0.3401 C   0  0  0  0  0  0  0  0  0  0  0  0
   -0.7273   -0.8407    0.5187 C   0  0  0  0  0  0  0  0  0  0  0  0
    3.3126    0.0285   -1.0890 H   0  0  0  0  0  0  0  0  0  0  0  0
    2.0705    1.2815   -0.7210 H   0  0  0  0  0  0  0  0  0  0  0  0
    3.4083    0.9760    0.4126 H   0  0  0  0  0  0  0  0  0  0  0  0
    2.4007   -0.9440    1.3114 H   0  0  0  0  0  0  0  0  0  0  0  0
    1.8193   -1.4657   -0.2990 H   0  0  0  0  0  0  0  0  0  0  0  0
    0.5179    0.5552    1.6477 H   0  0  0  0  0  0  0  0  0  0  0  0
   -0.1194    0.1538   -1.4349 H   0  0  0  0  0  0  0  0  0  0  0  0
   -1.6721    1.2093    1.1033 H   0  0  0  0  0  0  0  0  0  0  0  0
   -3.7782    0.1228    0.4922 H   0  0  0  0  0  0  0  0  0  0  0  0
   -3.4673    0.8126   -1.1675 H   0  0  0  0  0  0  0  0  0  0  0  0
   -1.6373   -0.7983   -1.4352 H   0  0  0  0  0  0  0  0  0  0  0  0
   -0.3997   -1.9036    0.3357 H   0  0  0  0  0  0  0  0  0  0  0  0
  1  2  1  0
  2  3  1  0
  3  4  1  0
  4  5  1  0
  5  6  1  0
  6  7  1  0
  7  8  1  0
  8  3  1  0
  8  4  1  0
  7  5  1  0
  1  9  1  0
  1 10  1  0
  1 11  1  0
  2 12  1  0
  2 13  1  0
  3 14  1  0
  4 15  1  0
  5 16  1  0
  6 17  1  0
  6 18  1  0
  7 19  1  0
  8 20  1  0
M  END
