
     RDKit          3D

 21 22  0  0  0  0  0  0  0  0999 V2000
   -2.8709   -0.0944    0.2529 C   0  0  0  0  0  0  0  0  0  0  0  0
   -1.6103    0.3061   -0.4655 C   0  0  0  0  0  0  0  0  0  0  0  0
   -0.4304   -0.5471   -0.1070 C   0  0  0  0  0  0  0  0  0  0  0  0
    0.8419   -0.1689   -0.8102 C   0  0  0  0  0  0  0  0  0  0  0  0
    0.8713    0.9375   -1.6519 O   0  0  0  0  0  0  0  0  0  0  0  0
    2.1189   -0.8914   -0.4821 C   0  0  0  0  0  0  0  0  0  0  0  0
    1.9404   -0.5560    0.9808 C   0  0  0  0  0  0  0  0  0  0  0  0
    0.6282    0.1052    0.6917 C   0  0  0  0  0  0  0  0  0  0  0  0
    0.4752    1.4612    1.0397 O   0  0  0  0  0  0  0  0  0  0  0  0
   -3.6817    0.5726   -0.1304 H   0  0  0  0  0  0  0  0  0  0  0  0
   -2.7157    0.0575    1.3383 H   0  0  0  0  0  0  0  0  0  0  0  0
   -3.1638   -1.1460    0.0183 H   0  0  0  0  0  0  0  0  0  0  0  0
   -1.7927    0.1954   -1.5552 H   0  0  0  0  0  0  0  0  0  0  0  0
   -1.4239    1.3737   -0.2273 H   0  0  0  0  0  0  0  0  0  0  0  0
   -0.6247   -1.6225    0.0439 H   0  0  0  0  0  0  0  0  0  0  0  0
    0.3371    1.6513   -1.2195 H   0  0  0  0  0  0  0  0  0  0  0  0
    2.1404   -1.9655   -0.7214 H   0  0  0  0  0  0  0  0  0  0  0  0
    2.9837   -0.3420   -0.9094 H   0  0  0  0  0  0  0  0  0  0  0  0
    1.9291   -1.4357    1.6345 H   0  0  0  0  0  0  0  0  0  0  0  0
    2.6779    0.2132    1.3522 H   0  0  0  0  0  0  0  0  0  0  0  0
    1.3699    1.8958    0.9275 H   0  0  0  0  0  0  0  0  0  0  0  0
  1  2  1  0
  2  3  1  0
  3  4  1  0
  4  5  1  0
  4  6  1  0
  6  7  1  0
  7  8  1  0
  8  9  1  0
  8  3  1  0
  8  4  1  0
  1 10  1  0
  1 11  1  0
  1 12  1  0
  2 13  1  0
  2 14  1  0
  3 15  1  0
  5 16  1  0
  6 17  1  0
  6 18  1  0
  7 19  1  0
  7 20  1  0
  9 21  1  0
M  END
