
     RDKit          3D

 21 22  0  0  0  0  0  0  0  0999 V2000
    2.3115   -0.1371    0.5129 C   0  0  0  0  0  0  0  0  0  0  0  0
    1.4112   -0.7388   -0.5109 C   0  0  0  0  0  0  0  0  0  0  0  0
    0.0444   -0.1166   -0.5713 C   0  0  0  0  0  0  0  0  0  0  0  0
   -0.0239    1.3115   -0.8828 C   0  0  0  0  0  0  0  0  0  0  0  0
   -1.0071    1.8740   -0.1955 C   0  0  0  0  0  0  0  0  0  0  0  0
   -1.7058    0.8717    0.6554 C   0  0  0  0  0  0  0  0  0  0  0  0
   -0.8231   -0.3264    0.6396 C   0  0  0  0  0  0  0  0  0  0  0  0
   -1.3543   -1.4322   -0.2366 C   0  0  0  0  0  0  0  0  0  0  0  0
   -0.7975   -0.8640   -1.3851 O   0  0  0  0  0  0  0  0  0  0  0  0
    1.8357    0.0668    1.4747 H   0  0  0  0  0  0  0  0  0  0  0  0
    3.1222   -0.8945    0.7238 H   0  0  0  0  0  0  0  0  0  0  0  0
    2.8748    0.7540    0.1188 H   0  0  0  0  0  0  0  0  0  0  0  0
    1.2542   -1.8157   -0.2209 H   0  0  0  0  0  0  0  0  0  0  0  0
    1.8818   -0.7430   -1.4919 H   0  0  0  0  0  0  0  0  0  0  0  0
    0.6230    1.8410   -1.5677 H   0  0  0  0  0  0  0  0  0  0  0  0
   -1.2671    2.9197   -0.2456 H   0  0  0  0  0  0  0  0  0  0  0  0
   -1.9402    1.2485    1.6654 H   0  0  0  0  0  0  0  0  0  0  0  0
   -2.6891    0.6125    0.1819 H   0  0  0  0  0  0  0  0  0  0  0  0
   -0.3280   -0.6231    1.5611 H   0  0  0  0  0  0  0  0  0  0  0  0
   -2.4781   -1.3888   -0.2523 H   0  0  0  0  0  0  0  0  0  0  0  0
   -0.9447   -2.4197    0.0269 H   0  0  0  0  0  0  0  0  0  0  0  0
  1  2  1  0
  2  3  1  0
  3  4  1  0
  4  5  2  0
  5  6  1  0
  6  7  1  0
  7  8  1  0
  8  9  1  0
  7  3  1  0
  9  3  1  0
  1 10  1  0
  1 11  1  0
  1 12  1  0
  2 13  1  0
  2 14  1  0
  4 15  1  0
  5 16  1  0
  6 17  1  0
  6 18  1  0
  7 19  1  0
  8 20  1  0
  8 21  1  0
M  END
