
     RDKit          3D

 25 26  0  0  0  0  0  0  0  0999 V2000
   -1.3568    1.5444    0.9865 C   0  0  0  0  0  0  0  0  0  0  0  0
   -1.8037    0.2174    0.4946 C   0  0  0  0  0  0  0  0  0  0  0  0
   -0.8019   -0.5862   -0.2512 C   0  0  0  0  0  0  0  0  0  0  0  0
    0.4997   -1.0144    0.3803 C   0  0  0  0  0  0  0  0  0  0  0  0
    1.3817    0.0823    0.8384 C   0  0  0  0  0  0  0  0  0  0  0  0
    1.9063    1.1066   -0.1073 C   0  0  0  0  0  0  0  0  0  0  0  0
    2.8287   -0.0118    0.3513 C   0  0  0  0  0  0  0  0  0  0  0  0
   -0.7516   -0.4720   -1.7612 C   0  0  0  0  0  0  0  0  0  0  0  0
   -1.4181   -1.6640   -1.1577 C   0  0  0  0  0  0  0  0  0  0  0  0
   -2.2936    2.1500    1.1796 H   0  0  0  0  0  0  0  0  0  0  0  0
   -0.8575    1.5183    1.9866 H   0  0  0  0  0  0  0  0  0  0  0  0
   -0.7938    2.0925    0.2239 H   0  0  0  0  0  0  0  0  0  0  0  0
   -2.1973   -0.4043    1.3505 H   0  0  0  0  0  0  0  0  0  0  0  0
   -2.6728    0.3879   -0.1962 H   0  0  0  0  0  0  0  0  0  0  0  0
    1.0630   -1.6911   -0.2921 H   0  0  0  0  0  0  0  0  0  0  0  0
    0.1978   -1.6308    1.2806 H   0  0  0  0  0  0  0  0  0  0  0  0
    1.2890    0.4628    1.8982 H   0  0  0  0  0  0  0  0  0  0  0  0
    2.2229    2.0967    0.2735 H   0  0  0  0  0  0  0  0  0  0  0  0
    1.5486    1.1129   -1.1549 H   0  0  0  0  0  0  0  0  0  0  0  0
    3.6282    0.2071    1.0764 H   0  0  0  0  0  0  0  0  0  0  0  0
    3.0655   -0.7301   -0.4554 H   0  0  0  0  0  0  0  0  0  0  0  0
    0.1889   -0.6714   -2.2834 H   0  0  0  0  0  0  0  0  0  0  0  0
   -1.4425    0.2696   -2.2210 H   0  0  0  0  0  0  0  0  0  0  0  0
   -0.9133   -2.6379   -1.2300 H   0  0  0  0  0  0  0  0  0  0  0  0
   -2.5174   -1.7345   -1.2101 H   0  0  0  0  0  0  0  0  0  0  0  0
  1  2  1  0
  2  3  1  0
  3  4  1  0
  4  5  1  0
  5  6  1  0
  6  7  1  0
  3  8  1  0
  8  9  1  0
  9  3  1  0
  7  5  1  0
  1 10  1  0
  1 11  1  0
  1 12  1  0
  2 13  1  0
  2 14  1  0
  4 15  1  0
  4 16  1  0
  5 17  1  0
  6 18  1  0
  6 19  1  0
  7 20  1  0
  7 21  1  0
  8 22  1  0
  8 23  1  0
  9 24  1  0
  9 25  1  0
M  END
