
     RDKit          3D

 22 22  0  0  0  0  0  0  0  0999 V2000
    2.3352    0.9013   -0.3542 C   0  0  0  0  0  0  0  0  0  0  0  0
    1.4429    0.1109    0.5334 C   0  0  0  0  0  0  0  0  0  0  0  0
    0.3537   -0.6281   -0.1567 C   0  0  0  0  0  0  0  0  0  0  0  0
   -0.4447   -1.3719    0.9247 C   0  0  0  0  0  0  0  0  0  0  0  0
   -1.7237   -1.6074    0.1994 C   0  0  0  0  0  0  0  0  0  0  0  0
   -1.8774   -0.7201   -0.7757 C   0  0  0  0  0  0  0  0  0  0  0  0
   -0.7018    0.1947   -0.7858 C   0  0  0  0  0  0  0  0  0  0  0  0
   -1.0948    1.4202   -0.0220 C   0  0  0  0  0  0  0  0  0  0  0  0
    3.1929    1.2671    0.2678 H   0  0  0  0  0  0  0  0  0  0  0  0
    1.8591    1.8055   -0.7836 H   0  0  0  0  0  0  0  0  0  0  0  0
    2.7637    0.2752   -1.1821 H   0  0  0  0  0  0  0  0  0  0  0  0
    1.0024    0.7829    1.2853 H   0  0  0  0  0  0  0  0  0  0  0  0
    2.0612   -0.6246    1.0908 H   0  0  0  0  0  0  0  0  0  0  0  0
    0.7083   -1.3788   -0.8722 H   0  0  0  0  0  0  0  0  0  0  0  0
   -0.5845   -0.7255    1.8182 H   0  0  0  0  0  0  0  0  0  0  0  0
    0.0943   -2.2954    1.1708 H   0  0  0  0  0  0  0  0  0  0  0  0
   -2.4165   -2.3975    0.4490 H   0  0  0  0  0  0  0  0  0  0  0  0
   -2.7437   -0.6867   -1.4542 H   0  0  0  0  0  0  0  0  0  0  0  0
   -0.4483    0.4859   -1.8470 H   0  0  0  0  0  0  0  0  0  0  0  0
   -0.2819    2.0748    0.2664 H   0  0  0  0  0  0  0  0  0  0  0  0
   -1.6986    1.1128    0.8776 H   0  0  0  0  0  0  0  0  0  0  0  0
   -1.7978    2.0049   -0.6500 H   0  0  0  0  0  0  0  0  0  0  0  0
  1  2  1  0
  2  3  1  0
  3  4  1  0
  4  5  1  0
  5  6  2  0
  6  7  1  0
  7  8  1  0
  7  3  1  0
  1  9  1  0
  1 10  1  0
  1 11  1  0
  2 12  1  0
  2 13  1  0
  3 14  1  0
  4 15  1  0
  4 16  1  0
  5 17  1  0
  6 18  1  0
  7 19  1  0
  8 20  1  0
  8 21  1  0
  8 22  1  0
M  END
