
     RDKit          3D

 23 24  0  0  0  0  0  0  0  0999 V2000
   -2.2776   -0.3188    0.9852 C   0  0  0  0  0  0  0  0  0  0  0  0
   -1.6928   -0.3909   -0.3973 C   0  0  0  0  0  0  0  0  0  0  0  0
   -0.2308   -0.0652   -0.4304 C   0  0  0  0  0  0  0  0  0  0  0  0
    0.4971   -0.0908   -1.7178 C   0  0  0  0  0  0  0  0  0  0  0  0
    0.1465    1.2025   -1.0925 C   0  0  0  0  0  0  0  0  0  0  0  0
    1.0362    1.8572   -0.1349 C   0  0  0  0  0  0  0  0  0  0  0  0
    1.3077    1.0767    0.9053 C   0  0  0  0  0  0  0  0  0  0  0  0
    0.6262   -0.2308    0.7869 C   0  0  0  0  0  0  0  0  0  0  0  0
    1.7240   -1.2608    0.4938 C   0  0  0  0  0  0  0  0  0  0  0  0
   -3.3721   -0.5671    0.8763 H   0  0  0  0  0  0  0  0  0  0  0  0
   -2.1787    0.7125    1.3618 H   0  0  0  0  0  0  0  0  0  0  0  0
   -1.8713   -1.0350    1.6945 H   0  0  0  0  0  0  0  0  0  0  0  0
   -2.2636    0.3301   -1.0216 H   0  0  0  0  0  0  0  0  0  0  0  0
   -1.8719   -1.3902   -0.8702 H   0  0  0  0  0  0  0  0  0  0  0  0
   -0.0576   -0.4216   -2.6024 H   0  0  0  0  0  0  0  0  0  0  0  0
    1.5828   -0.3479   -1.7575 H   0  0  0  0  0  0  0  0  0  0  0  0
   -0.6128    1.8089   -1.6422 H   0  0  0  0  0  0  0  0  0  0  0  0
    1.4427    2.8566   -0.2318 H   0  0  0  0  0  0  0  0  0  0  0  0
    1.9452    1.3262    1.7590 H   0  0  0  0  0  0  0  0  0  0  0  0
    0.1095   -0.5485    1.6837 H   0  0  0  0  0  0  0  0  0  0  0  0
    1.3207   -2.1031   -0.1190 H   0  0  0  0  0  0  0  0  0  0  0  0
    2.0980   -1.6166    1.4776 H   0  0  0  0  0  0  0  0  0  0  0  0
    2.5924   -0.7832   -0.0066 H   0  0  0  0  0  0  0  0  0  0  0  0
  1  2  1  0
  2  3  1  0
  3  4  1  0
  4  5  1  0
  5  6  1  0
  6  7  2  0
  7  8  1  0
  8  9  1  0
  5  3  1  0
  8  3  1  0
  1 10  1  0
  1 11  1  0
  1 12  1  0
  2 13  1  0
  2 14  1  0
  4 15  1  0
  4 16  1  0
  5 17  1  0
  6 18  1  0
  7 19  1  0
  8 20  1  0
  9 21  1  0
  9 22  1  0
  9 23  1  0
M  END
