
     RDKit          3D

 19 19  0  0  0  0  0  0  0  0999 V2000
    2.6047    0.4802    0.4537 C   0  0  0  0  0  0  0  0  0  0  0  0
    1.7278   -0.5483   -0.2489 C   0  0  0  0  0  0  0  0  0  0  0  0
    0.3085   -0.2121    0.0139 C   0  0  0  0  0  0  0  0  0  0  0  0
   -0.1550    0.7995    0.7306 C   0  0  0  0  0  0  0  0  0  0  0  0
   -1.6125    0.7963    0.7566 C   0  0  0  0  0  0  0  0  0  0  0  0
   -2.3834    1.6580    1.2577 O   0  0  0  0  0  0  0  0  0  0  0  0
   -2.0626   -0.4277    0.0743 C   0  0  0  0  0  0  0  0  0  0  0  0
   -2.9684   -0.0789   -0.9525 O   0  0  0  0  0  0  0  0  0  0  0  0
   -0.8250   -1.0156   -0.5262 C   0  0  0  0  0  0  0  0  0  0  0  0
    2.3272    1.4916    0.0369 H   0  0  0  0  0  0  0  0  0  0  0  0
    3.6746    0.2864    0.2856 H   0  0  0  0  0  0  0  0  0  0  0  0
    2.3962    0.5428    1.5342 H   0  0  0  0  0  0  0  0  0  0  0  0
    2.0057   -1.5383    0.2010 H   0  0  0  0  0  0  0  0  0  0  0  0
    1.9939   -0.4942   -1.3236 H   0  0  0  0  0  0  0  0  0  0  0  0
    0.4405    1.5450    1.2405 H   0  0  0  0  0  0  0  0  0  0  0  0
   -2.5730   -1.0989    0.7940 H   0  0  0  0  0  0  0  0  0  0  0  0
   -3.3328    0.8263   -0.7232 H   0  0  0  0  0  0  0  0  0  0  0  0
   -0.8652   -0.9128   -1.6494 H   0  0  0  0  0  0  0  0  0  0  0  0
   -0.7011   -2.0995   -0.3373 H   0  0  0  0  0  0  0  0  0  0  0  0
  1  2  1  0
  2  3  1  0
  3  4  2  0
  4  5  1  0
  5  6  2  0
  5  7  1  0
  7  8  1  0
  7  9  1  0
  9  3  1  0
  1 10  1  0
  1 11  1  0
  1 12  1  0
  2 13  1  0
  2 14  1  0
  4 15  1  0
  7 16  1  0
  8 17  1  0
  9 18  1  0
  9 19  1  0
M  END
