
     RDKit          3D

 25 26  0  0  0  0  0  0  0  0999 V2000
   -1.4004    1.1826    1.6401 C   0  0  0  0  0  0  0  0  0  0  0  0
   -1.8490    0.0247    0.8001 C   0  0  0  0  0  0  0  0  0  0  0  0
   -0.7899   -0.4945   -0.1272 C   0  0  0  0  0  0  0  0  0  0  0  0
   -0.2373    0.4576   -1.1421 C   0  0  0  0  0  0  0  0  0  0  0  0
    1.2675    0.3077   -1.1052 C   0  0  0  0  0  0  0  0  0  0  0  0
    1.9221    1.3526   -0.2261 C   0  0  0  0  0  0  0  0  0  0  0  0
    1.5192   -1.0828   -0.5807 C   0  0  0  0  0  0  0  0  0  0  0  0
    0.3285   -1.3227    0.3116 C   0  0  0  0  0  0  0  0  0  0  0  0
   -0.8472   -1.9591   -0.4082 C   0  0  0  0  0  0  0  0  0  0  0  0
   -1.6175    2.1433    1.1221 H   0  0  0  0  0  0  0  0  0  0  0  0
   -2.0662    1.1943    2.5524 H   0  0  0  0  0  0  0  0  0  0  0  0
   -0.3494    1.0857    1.9475 H   0  0  0  0  0  0  0  0  0  0  0  0
   -2.6811    0.4135    0.1425 H   0  0  0  0  0  0  0  0  0  0  0  0
   -2.3061   -0.7731    1.4059 H   0  0  0  0  0  0  0  0  0  0  0  0
   -0.4581    1.4859   -0.8028 H   0  0  0  0  0  0  0  0  0  0  0  0
   -0.6586    0.2034   -2.1195 H   0  0  0  0  0  0  0  0  0  0  0  0
    1.6269    0.4372   -2.1456 H   0  0  0  0  0  0  0  0  0  0  0  0
    2.1770    0.8844    0.7670 H   0  0  0  0  0  0  0  0  0  0  0  0
    2.8748    1.7218   -0.6729 H   0  0  0  0  0  0  0  0  0  0  0  0
    1.2445    2.1958   -0.0057 H   0  0  0  0  0  0  0  0  0  0  0  0
    2.4813   -1.1699   -0.0715 H   0  0  0  0  0  0  0  0  0  0  0  0
    1.4856   -1.7668   -1.4634 H   0  0  0  0  0  0  0  0  0  0  0  0
    0.5127   -1.5890    1.3734 H   0  0  0  0  0  0  0  0  0  0  0  0
   -0.7084   -2.3532   -1.4315 H   0  0  0  0  0  0  0  0  0  0  0  0
   -1.4710   -2.5793    0.2398 H   0  0  0  0  0  0  0  0  0  0  0  0
  1  2  1  0
  2  3  1  0
  3  4  1  0
  4  5  1  0
  5  6  1  0
  5  7  1  0
  7  8  1  0
  8  9  1  0
  8  3  1  0
  9  3  1  0
  1 10  1  0
  1 11  1  0
  1 12  1  0
  2 13  1  0
  2 14  1  0
  4 15  1  0
  4 16  1  0
  5 17  1  0
  6 18  1  0
  6 19  1  0
  6 20  1  0
  7 21  1  0
  7 22  1  0
  8 23  1  0
  9 24  1  0
  9 25  1  0
M  END
