
     RDKit          3D

 25 26  0  0  0  0  0  0  0  0999 V2000
    2.7643    0.8977    0.0487 C   0  0  0  0  0  0  0  0  0  0  0  0
    1.8461   -0.0590    0.7469 C   0  0  0  0  0  0  0  0  0  0  0  0
    0.5942   -0.3444   -0.0264 C   0  0  0  0  0  0  0  0  0  0  0  0
   -0.2502   -1.3165    0.7719 C   0  0  0  0  0  0  0  0  0  0  0  0
   -1.5762   -1.4418    0.0259 C   0  0  0  0  0  0  0  0  0  0  0  0
   -2.0868   -0.0703   -0.3316 C   0  0  0  0  0  0  0  0  0  0  0  0
   -1.1933    0.4398   -1.4726 C   0  0  0  0  0  0  0  0  0  0  0  0
   -0.2141    0.8536   -0.3626 C   0  0  0  0  0  0  0  0  0  0  0  0
   -1.4456    1.0185    0.5184 C   0  0  0  0  0  0  0  0  0  0  0  0
    2.2912    1.2931   -0.8580 H   0  0  0  0  0  0  0  0  0  0  0  0
    3.7240    0.4234   -0.2820 H   0  0  0  0  0  0  0  0  0  0  0  0
    3.0020    1.7603    0.7270 H   0  0  0  0  0  0  0  0  0  0  0  0
    2.4039   -1.0382    0.8197 H   0  0  0  0  0  0  0  0  0  0  0  0
    1.6372    0.2206    1.8054 H   0  0  0  0  0  0  0  0  0  0  0  0
    0.8695   -0.8609   -0.9644 H   0  0  0  0  0  0  0  0  0  0  0  0
   -0.3793   -0.9963    1.8112 H   0  0  0  0  0  0  0  0  0  0  0  0
    0.2408   -2.3129    0.7803 H   0  0  0  0  0  0  0  0  0  0  0  0
   -1.3081   -1.9373   -0.9534 H   0  0  0  0  0  0  0  0  0  0  0  0
   -2.3031   -2.0611    0.5579 H   0  0  0  0  0  0  0  0  0  0  0  0
   -3.1561    0.0283   -0.5068 H   0  0  0  0  0  0  0  0  0  0  0  0
   -0.8128   -0.3519   -2.1325 H   0  0  0  0  0  0  0  0  0  0  0  0
   -1.6962    1.2954   -1.9431 H   0  0  0  0  0  0  0  0  0  0  0  0
    0.3099    1.7763   -0.6212 H   0  0  0  0  0  0  0  0  0  0  0  0
   -1.9420    1.9856    0.2712 H   0  0  0  0  0  0  0  0  0  0  0  0
   -1.3194    0.7980    1.5699 H   0  0  0  0  0  0  0  0  0  0  0  0
  1  2  1  0
  2  3  1  0
  3  4  1  0
  4  5  1  0
  5  6  1  0
  6  7  1  0
  7  8  1  0
  8  9  1  0
  8  3  1  0
  9  6  1  0
  1 10  1  0
  1 11  1  0
  1 12  1  0
  2 13  1  0
  2 14  1  0
  3 15  1  0
  4 16  1  0
  4 17  1  0
  5 18  1  0
  5 19  1  0
  6 20  1  0
  7 21  1  0
  7 22  1  0
  8 23  1  0
  9 24  1  0
  9 25  1  0
M  END
