
     RDKit          3D

 23 23  0  0  0  0  0  0  0  0999 V2000
    2.8075   -0.6008    0.4537 C   0  0  0  0  0  0  0  0  0  0  0  0
    1.3843   -0.2844    0.8977 C   0  0  0  0  0  0  0  0  0  0  0  0
    0.4162   -0.4910   -0.2440 C   0  0  0  0  0  0  0  0  0  0  0  0
    0.4025   -1.7883   -0.7363 O   0  0  0  0  0  0  0  0  0  0  0  0
    0.2628    0.6787   -1.1583 C   0  0  0  0  0  0  0  0  0  0  0  0
   -0.8645    0.2374   -0.3062 C   0  0  0  0  0  0  0  0  0  0  0  0
   -1.3195    1.0580    0.8797 C   0  0  0  0  0  0  0  0  0  0  0  0
   -2.0102   -0.4219   -1.0519 C   0  0  0  0  0  0  0  0  0  0  0  0
   -2.3539   -1.6516   -0.4964 O   0  0  0  0  0  0  0  0  0  0  0  0
    3.1265   -0.0070   -0.4016 H   0  0  0  0  0  0  0  0  0  0  0  0
    2.9260   -1.6945    0.2367 H   0  0  0  0  0  0  0  0  0  0  0  0
    3.4518   -0.3933    1.3567 H   0  0  0  0  0  0  0  0  0  0  0  0
    1.4085    0.8058    1.1861 H   0  0  0  0  0  0  0  0  0  0  0  0
    1.1471   -0.8585    1.7930 H   0  0  0  0  0  0  0  0  0  0  0  0
    0.3796   -2.3967    0.0602 H   0  0  0  0  0  0  0  0  0  0  0  0
    0.8001    1.6260   -0.9087 H   0  0  0  0  0  0  0  0  0  0  0  0
    0.2549    0.4147   -2.2420 H   0  0  0  0  0  0  0  0  0  0  0  0
   -2.1071    1.7885    0.6008 H   0  0  0  0  0  0  0  0  0  0  0  0
   -0.4864    1.5240    1.4315 H   0  0  0  0  0  0  0  0  0  0  0  0
   -1.8304    0.3278    1.5739 H   0  0  0  0  0  0  0  0  0  0  0  0
   -1.7992   -0.5080   -2.1376 H   0  0  0  0  0  0  0  0  0  0  0  0
   -2.9385    0.2107   -0.9793 H   0  0  0  0  0  0  0  0  0  0  0  0
   -3.0578   -1.5506    0.1921 H   0  0  0  0  0  0  0  0  0  0  0  0
  1  2  1  0
  2  3  1  0
  3  4  1  0
  3  5  1  0
  5  6  1  0
  6  7  1  0
  6  8  1  0
  8  9  1  0
  6  3  1  0
  1 10  1  0
  1 11  1  0
  1 12  1  0
  2 13  1  0
  2 14  1  0
  4 15  1  0
  5 16  1  0
  5 17  1  0
  7 18  1  0
  7 19  1  0
  7 20  1  0
  8 21  1  0
  8 22  1  0
  9 23  1  0
M  END
