
     RDKit          3D

 19 20  0  0  0  0  0  0  0  0999 V2000
   -2.3934   -0.0504   -0.2318 C   0  0  0  0  0  0  0  0  0  0  0  0
   -1.2143   -0.8552    0.3288 C   0  0  0  0  0  0  0  0  0  0  0  0
   -0.2537    0.2107    0.8797 C   0  0  0  0  0  0  0  0  0  0  0  0
    0.2122    1.1398   -0.1047 C   0  0  0  0  0  0  0  0  0  0  0  0
    1.3153    1.0096   -0.9968 O   0  0  0  0  0  0  0  0  0  0  0  0
    2.0336    1.2675    0.1938 C   0  0  0  0  0  0  0  0  0  0  0  0
    2.9133    2.0520    0.5376 O   0  0  0  0  0  0  0  0  0  0  0  0
    1.1723    0.1549    0.6768 C   0  0  0  0  0  0  0  0  0  0  0  0
    1.5734   -1.1041   -0.1252 C   0  0  0  0  0  0  0  0  0  0  0  0
   -1.9509    0.8153   -0.7539 H   0  0  0  0  0  0  0  0  0  0  0  0
   -3.0659    0.2896    0.5794 H   0  0  0  0  0  0  0  0  0  0  0  0
   -2.9345   -0.6417   -0.9863 H   0  0  0  0  0  0  0  0  0  0  0  0
   -1.5342   -1.5482    1.1233 H   0  0  0  0  0  0  0  0  0  0  0  0
   -0.7396   -1.3337   -0.5349 H   0  0  0  0  0  0  0  0  0  0  0  0
   -0.5978    0.5472    1.8895 H   0  0  0  0  0  0  0  0  0  0  0  0
    0.2532    2.2122    0.2731 H   0  0  0  0  0  0  0  0  0  0  0  0
    1.0375   -1.9881    0.2234 H   0  0  0  0  0  0  0  0  0  0  0  0
    2.6529   -1.2615    0.1657 H   0  0  0  0  0  0  0  0  0  0  0  0
    1.5206   -0.9160   -1.2075 H   0  0  0  0  0  0  0  0  0  0  0  0
  1  2  1  0
  2  3  1  0
  3  4  1  0
  4  5  1  0
  5  6  1  0
  6  7  2  0
  6  8  1  0
  8  9  1  0
  8  3  1  0
  8  4  1  0
  1 10  1  0
  1 11  1  0
  1 12  1  0
  2 13  1  0
  2 14  1  0
  3 15  1  0
  4 16  1  0
  9 17  1  0
  9 18  1  0
  9 19  1  0
M  END
