
     RDKit          3D

 23 23  0  0  0  0  0  0  0  0999 V2000
   -2.8760   -0.2434    0.2855 C   0  0  0  0  0  0  0  0  0  0  0  0
   -1.8064    0.4655   -0.5089 C   0  0  0  0  0  0  0  0  0  0  0  0
   -0.6217   -0.4375   -0.6097 C   0  0  0  0  0  0  0  0  0  0  0  0
   -0.0519   -0.8032    0.7505 C   0  0  0  0  0  0  0  0  0  0  0  0
    1.1131   -1.4801    0.5064 O   0  0  0  0  0  0  0  0  0  0  0  0
    2.2620   -0.7648    0.5835 C   0  0  0  0  0  0  0  0  0  0  0  0
    2.2310    0.6403    0.1565 C   0  0  0  0  0  0  0  0  0  0  0  0
    1.1192    1.0764   -0.7114 C   0  0  0  0  0  0  0  0  0  0  0  0
    0.4251    0.0832   -1.3534 O   0  0  0  0  0  0  0  0  0  0  0  0
   -3.8580    0.2451    0.0953 H   0  0  0  0  0  0  0  0  0  0  0  0
   -2.6551   -0.1857    1.3713 H   0  0  0  0  0  0  0  0  0  0  0  0
   -2.9075   -1.3415    0.0506 H   0  0  0  0  0  0  0  0  0  0  0  0
   -1.6170    1.4263   -0.0372 H   0  0  0  0  0  0  0  0  0  0  0  0
   -2.1779    0.6484   -1.5365 H   0  0  0  0  0  0  0  0  0  0  0  0
   -0.9447   -1.3888   -1.0780 H   0  0  0  0  0  0  0  0  0  0  0  0
   -0.7649   -1.5246    1.2305 H   0  0  0  0  0  0  0  0  0  0  0  0
    0.0991    0.0796    1.3923 H   0  0  0  0  0  0  0  0  0  0  0  0
    3.0378   -1.3165   -0.0291 H   0  0  0  0  0  0  0  0  0  0  0  0
    2.6563   -0.8709    1.6386 H   0  0  0  0  0  0  0  0  0  0  0  0
    2.2674    1.2884    1.0833 H   0  0  0  0  0  0  0  0  0  0  0  0
    3.1975    0.9051   -0.3691 H   0  0  0  0  0  0  0  0  0  0  0  0
    1.4700    1.7884   -1.5186 H   0  0  0  0  0  0  0  0  0  0  0  0
    0.4027    1.7103   -0.1092 H   0  0  0  0  0  0  0  0  0  0  0  0
  1  2  1  0
  2  3  1  0
  3  4  1  0
  4  5  1  0
  5  6  1  0
  6  7  1  0
  7  8  1  0
  8  9  1  0
  9  3  1  0
  1 10  1  0
  1 11  1  0
  1 12  1  0
  2 13  1  0
  2 14  1  0
  3 15  1  0
  4 16  1  0
  4 17  1  0
  6 18  1  0
  6 19  1  0
  7 20  1  0
  7 21  1  0
  8 22  1  0
  8 23  1  0
M  END
