
     RDKit          3D

 25 25  0  0  0  0  0  0  0  0999 V2000
    2.9094    0.4459    0.2699 C   0  0  0  0  0  0  0  0  0  0  0  0
    2.2210   -0.6942   -0.3995 C   0  0  0  0  0  0  0  0  0  0  0  0
    0.7488   -0.7371   -0.1902 C   0  0  0  0  0  0  0  0  0  0  0  0
    0.3180   -0.8490    1.2002 C   0  0  0  0  0  0  0  0  0  0  0  0
   -0.8875   -0.3061    1.3061 C   0  0  0  0  0  0  0  0  0  0  0  0
   -1.3436    0.2124   -0.0332 C   0  0  0  0  0  0  0  0  0  0  0  0
   -2.1887    1.4239    0.0732 C   0  0  0  0  0  0  0  0  0  0  0  0
   -2.0767   -0.8524   -0.8162 C   0  0  0  0  0  0  0  0  0  0  0  0
    0.0258    0.4960   -0.6675 C   0  0  0  0  0  0  0  0  0  0  0  0
    3.9808    0.4329   -0.0069 H   0  0  0  0  0  0  0  0  0  0  0  0
    2.8770    0.3787    1.3809 H   0  0  0  0  0  0  0  0  0  0  0  0
    2.5070    1.4126   -0.0917 H   0  0  0  0  0  0  0  0  0  0  0  0
    2.6575   -1.6319   -0.0436 H   0  0  0  0  0  0  0  0  0  0  0  0
    2.4095   -0.6142   -1.4922 H   0  0  0  0  0  0  0  0  0  0  0  0
    0.3341   -1.5924   -0.7757 H   0  0  0  0  0  0  0  0  0  0  0  0
    0.8581   -1.2959    2.0529 H   0  0  0  0  0  0  0  0  0  0  0  0
   -1.5105   -0.2179    2.2082 H   0  0  0  0  0  0  0  0  0  0  0  0
   -3.0855    1.3771   -0.6088 H   0  0  0  0  0  0  0  0  0  0  0  0
   -1.6844    2.3743   -0.1191 H   0  0  0  0  0  0  0  0  0  0  0  0
   -2.6402    1.4957    1.1034 H   0  0  0  0  0  0  0  0  0  0  0  0
   -1.7232   -1.8661   -0.5786 H   0  0  0  0  0  0  0  0  0  0  0  0
   -3.1619   -0.7416   -0.5709 H   0  0  0  0  0  0  0  0  0  0  0  0
   -1.9616   -0.5960   -1.8880 H   0  0  0  0  0  0  0  0  0  0  0  0
   -0.0332    0.5530   -1.7534 H   0  0  0  0  0  0  0  0  0  0  0  0
    0.4497    1.3924   -0.1761 H   0  0  0  0  0  0  0  0  0  0  0  0
  1  2  1  0
  2  3  1  0
  3  4  1  0
  4  5  2  0
  5  6  1  0
  6  7  1  0
  6  8  1  0
  6  9  1  0
  9  3  1  0
  1 10  1  0
  1 11  1  0
  1 12  1  0
  2 13  1  0
  2 14  1  0
  3 15  1  0
  4 16  1  0
  5 17  1  0
  7 18  1  0
  7 19  1  0
  7 20  1  0
  8 21  1  0
  8 22  1  0
  8 23  1  0
  9 24  1  0
  9 25  1  0
M  END
