
     RDKit          3D

 19 20  0  0  0  0  0  0  0  0999 V2000
   -2.6188    0.0202    0.4845 C   0  0  0  0  0  0  0  0  0  0  0  0
   -1.5475   -0.5736   -0.4272 C   0  0  0  0  0  0  0  0  0  0  0  0
   -0.3057    0.2298   -0.2888 C   0  0  0  0  0  0  0  0  0  0  0  0
    0.8968   -0.1969   -1.1200 C   0  0  0  0  0  0  0  0  0  0  0  0
    1.7635    0.5095   -0.0706 C   0  0  0  0  0  0  0  0  0  0  0  0
    2.7989   -0.3238    0.5409 C   0  0  0  0  0  0  0  0  0  0  0  0
    3.2071   -1.3102   -0.0276 O   0  0  0  0  0  0  0  0  0  0  0  0
    0.4637    0.6267    0.7401 C   0  0  0  0  0  0  0  0  0  0  0  0
   -0.4227    1.5425    0.1104 O   0  0  0  0  0  0  0  0  0  0  0  0
   -3.6422   -0.1934    0.1021 H   0  0  0  0  0  0  0  0  0  0  0  0
   -2.4662   -0.2823    1.5290 H   0  0  0  0  0  0  0  0  0  0  0  0
   -2.5065    1.1395    0.4401 H   0  0  0  0  0  0  0  0  0  0  0  0
   -1.9443   -0.4353   -1.4688 H   0  0  0  0  0  0  0  0  0  0  0  0
   -1.4401   -1.6397   -0.1768 H   0  0  0  0  0  0  0  0  0  0  0  0
    0.9529    0.2169   -2.1236 H   0  0  0  0  0  0  0  0  0  0  0  0
    1.0091   -1.3160   -1.0654 H   0  0  0  0  0  0  0  0  0  0  0  0
    2.0967    1.4910   -0.4959 H   0  0  0  0  0  0  0  0  0  0  0  0
    3.2107   -0.0722    1.5014 H   0  0  0  0  0  0  0  0  0  0  0  0
    0.4944    0.5672    1.8161 H   0  0  0  0  0  0  0  0  0  0  0  0
  1  2  1  0
  2  3  1  0
  3  4  1  0
  4  5  1  0
  5  6  1  0
  6  7  2  0
  5  8  1  0
  8  9  1  0
  8  3  1  0
  9  3  1  0
  1 10  1  0
  1 11  1  0
  1 12  1  0
  2 13  1  0
  2 14  1  0
  4 15  1  0
  4 16  1  0
  5 17  1  0
  6 18  1  0
  8 19  1  0
M  END
