
     RDKit          3D

 21 22  0  0  0  0  0  0  0  0999 V2000
   -2.8782    0.5028   -0.3668 C   0  0  0  0  0  0  0  0  0  0  0  0
   -1.9220   -0.6286   -0.0795 C   0  0  0  0  0  0  0  0  0  0  0  0
   -0.5891   -0.1605    0.4219 C   0  0  0  0  0  0  0  0  0  0  0  0
    0.1776    0.7465   -0.5181 C   0  0  0  0  0  0  0  0  0  0  0  0
    1.3637   -0.0896   -0.1704 C   0  0  0  0  0  0  0  0  0  0  0  0
    2.5354    0.3738    0.5364 C   0  0  0  0  0  0  0  0  0  0  0  0
    2.5841   -0.1877   -0.9180 C   0  0  0  0  0  0  0  0  0  0  0  0
    0.4849   -1.1728    0.2289 C   0  0  0  0  0  0  0  0  0  0  0  0
    0.6306   -2.3751    0.3372 O   0  0  0  0  0  0  0  0  0  0  0  0
   -3.0468    1.1127    0.5374 H   0  0  0  0  0  0  0  0  0  0  0  0
   -2.5913    1.1027   -1.2469 H   0  0  0  0  0  0  0  0  0  0  0  0
   -3.8573    0.0182   -0.6268 H   0  0  0  0  0  0  0  0  0  0  0  0
   -1.8130   -1.2707   -0.9642 H   0  0  0  0  0  0  0  0  0  0  0  0
   -2.3827   -1.2336    0.7294 H   0  0  0  0  0  0  0  0  0  0  0  0
   -0.6364    0.2359    1.4588 H   0  0  0  0  0  0  0  0  0  0  0  0
    0.2137    1.7872   -0.1486 H   0  0  0  0  0  0  0  0  0  0  0  0
   -0.1719    0.6690   -1.5764 H   0  0  0  0  0  0  0  0  0  0  0  0
    2.7924    1.4565    0.6158 H   0  0  0  0  0  0  0  0  0  0  0  0
    3.0710   -0.2401    1.3012 H   0  0  0  0  0  0  0  0  0  0  0  0
    2.9122    0.5281   -1.6886 H   0  0  0  0  0  0  0  0  0  0  0  0
    3.1231   -1.1745   -1.0046 H   0  0  0  0  0  0  0  0  0  0  0  0
  1  2  1  0
  2  3  1  0
  3  4  1  0
  4  5  1  0
  5  6  1  0
  6  7  1  0
  5  8  1  0
  8  9  2  0
  8  3  1  0
  7  5  1  0
  1 10  1  0
  1 11  1  0
  1 12  1  0
  2 13  1  0
  2 14  1  0
  3 15  1  0
  4 16  1  0
  4 17  1  0
  6 18  1  0
  6 19  1  0
  7 20  1  0
  7 21  1  0
M  END
