
     RDKit          3D

 19 20  0  0  0  0  0  0  0  0999 V2000
   -2.4650    0.0357    0.2516 C   0  0  0  0  0  0  0  0  0  0  0  0
   -1.0254    0.3169    0.7266 C   0  0  0  0  0  0  0  0  0  0  0  0
   -0.2039    0.2330   -0.5031 C   0  0  0  0  0  0  0  0  0  0  0  0
   -0.2707   -1.0429   -1.1372 C   0  0  0  0  0  0  0  0  0  0  0  0
    1.0169   -0.7471   -0.5851 C   0  0  0  0  0  0  0  0  0  0  0  0
    1.4253    0.3106    0.4006 C   0  0  0  0  0  0  0  0  0  0  0  0
    2.8723    0.6349    0.4603 C   0  0  0  0  0  0  0  0  0  0  0  0
    3.3401    1.5208   -0.1979 O   0  0  0  0  0  0  0  0  0  0  0  0
    0.7986    1.1673   -0.4904 O   0  0  0  0  0  0  0  0  0  0  0  0
   -3.2010    0.5227    0.9360 H   0  0  0  0  0  0  0  0  0  0  0  0
   -2.6816   -1.0243    0.2010 H   0  0  0  0  0  0  0  0  0  0  0  0
   -2.6246    0.5079   -0.7439 H   0  0  0  0  0  0  0  0  0  0  0  0
   -0.8408   -0.4707    1.4888 H   0  0  0  0  0  0  0  0  0  0  0  0
   -1.0929    1.2734    1.2258 H   0  0  0  0  0  0  0  0  0  0  0  0
   -0.5641   -1.0385   -2.2316 H   0  0  0  0  0  0  0  0  0  0  0  0
   -0.7764   -1.9407   -0.6645 H   0  0  0  0  0  0  0  0  0  0  0  0
    1.7158   -0.5768   -1.4676 H   0  0  0  0  0  0  0  0  0  0  0  0
    1.0488    0.2457    1.4163 H   0  0  0  0  0  0  0  0  0  0  0  0
    3.5285    0.0719    1.1035 H   0  0  0  0  0  0  0  0  0  0  0  0
  1  2  1  0
  2  3  1  0
  3  4  1  0
  4  5  1  0
  5  6  1  0
  6  7  1  0
  7  8  2  0
  6  9  1  0
  5  3  1  0
  9  3  1  0
  1 10  1  0
  1 11  1  0
  1 12  1  0
  2 13  1  0
  2 14  1  0
  4 15  1  0
  4 16  1  0
  5 17  1  0
  6 18  1  0
  7 19  1  0
M  END
