
     RDKit          3D

 19 20  0  0  0  0  0  0  0  0999 V2000
   -2.3834   -0.2758   -0.2848 C   0  0  0  0  0  0  0  0  0  0  0  0
   -1.3947    0.7555    0.1517 C   0  0  0  0  0  0  0  0  0  0  0  0
   -0.0026    0.4833   -0.3033 C   0  0  0  0  0  0  0  0  0  0  0  0
    0.8935    1.5594    0.1801 C   0  0  0  0  0  0  0  0  0  0  0  0
    0.6608    2.7854    0.1635 O   0  0  0  0  0  0  0  0  0  0  0  0
    2.0533    0.9987    0.6644 O   0  0  0  0  0  0  0  0  0  0  0  0
    1.9784   -0.3893    0.7452 C   0  0  0  0  0  0  0  0  0  0  0  0
    1.8827   -1.1921   -0.4986 C   0  0  0  0  0  0  0  0  0  0  0  0
    0.6145   -0.7470    0.2479 C   0  0  0  0  0  0  0  0  0  0  0  0
   -2.6282   -0.9345    0.5771 H   0  0  0  0  0  0  0  0  0  0  0  0
   -3.3247    0.2090   -0.6306 H   0  0  0  0  0  0  0  0  0  0  0  0
   -1.9933   -0.9174   -1.1155 H   0  0  0  0  0  0  0  0  0  0  0  0
   -1.3936    0.9114    1.2623 H   0  0  0  0  0  0  0  0  0  0  0  0
   -1.7056    1.7372   -0.2745 H   0  0  0  0  0  0  0  0  0  0  0  0
   -0.0010    0.4194   -1.4056 H   0  0  0  0  0  0  0  0  0  0  0  0
    2.4220   -0.9260    1.6179 H   0  0  0  0  0  0  0  0  0  0  0  0
    2.1362   -2.2808   -0.4491 H   0  0  0  0  0  0  0  0  0  0  0  0
    2.1237   -0.6942   -1.4538 H   0  0  0  0  0  0  0  0  0  0  0  0
    0.0621   -1.5020    0.8058 H   0  0  0  0  0  0  0  0  0  0  0  0
  1  2  1  0
  2  3  1  0
  3  4  1  0
  4  5  2  0
  4  6  1  0
  6  7  1  0
  7  8  1  0
  8  9  1  0
  9  3  1  0
  9  7  1  0
  1 10  1  0
  1 11  1  0
  1 12  1  0
  2 13  1  0
  2 14  1  0
  3 15  1  0
  7 16  1  0
  8 17  1  0
  8 18  1  0
  9 19  1  0
M  END
