
     RDKit          3D

 23 23  0  0  0  0  0  0  0  0999 V2000
    3.0160    0.3999   -0.3102 C   0  0  0  0  0  0  0  0  0  0  0  0
    1.9887   -0.3226    0.5004 C   0  0  0  0  0  0  0  0  0  0  0  0
    0.6131    0.2604    0.4089 C   0  0  0  0  0  0  0  0  0  0  0  0
    0.0320    0.3094   -0.8347 O   0  0  0  0  0  0  0  0  0  0  0  0
   -1.2102    0.1143   -0.2100 C   0  0  0  0  0  0  0  0  0  0  0  0
   -1.8468    1.3729    0.3092 C   0  0  0  0  0  0  0  0  0  0  0  0
   -2.1948   -0.7055   -0.9822 C   0  0  0  0  0  0  0  0  0  0  0  0
   -0.4692   -0.6556    0.8841 C   0  0  0  0  0  0  0  0  0  0  0  0
   -0.3597   -1.9861    0.5208 O   0  0  0  0  0  0  0  0  0  0  0  0
    3.7833   -0.3254   -0.7083 H   0  0  0  0  0  0  0  0  0  0  0  0
    3.6249    1.0879    0.3469 H   0  0  0  0  0  0  0  0  0  0  0  0
    2.6202    1.0237   -1.1142 H   0  0  0  0  0  0  0  0  0  0  0  0
    2.0215   -1.3931    0.2192 H   0  0  0  0  0  0  0  0  0  0  0  0
    2.3003   -0.2760    1.5662 H   0  0  0  0  0  0  0  0  0  0  0  0
    0.5517    1.2322    0.9395 H   0  0  0  0  0  0  0  0  0  0  0  0
   -1.4768    1.6139    1.3215 H   0  0  0  0  0  0  0  0  0  0  0  0
   -1.7007    2.2403   -0.3617 H   0  0  0  0  0  0  0  0  0  0  0  0
   -2.9464    1.2247    0.4080 H   0  0  0  0  0  0  0  0  0  0  0  0
   -2.2145   -1.7741   -0.6570 H   0  0  0  0  0  0  0  0  0  0  0  0
   -3.2533   -0.3471   -0.8213 H   0  0  0  0  0  0  0  0  0  0  0  0
   -2.0246   -0.6242   -2.0756 H   0  0  0  0  0  0  0  0  0  0  0  0
   -0.8497   -0.4646    1.9075 H   0  0  0  0  0  0  0  0  0  0  0  0
   -0.0050   -2.0053   -0.4034 H   0  0  0  0  0  0  0  0  0  0  0  0
  1  2  1  0
  2  3  1  0
  3  4  1  0
  4  5  1  0
  5  6  1  0
  5  7  1  0
  5  8  1  0
  8  9  1  0
  8  3  1  0
  1 10  1  0
  1 11  1  0
  1 12  1  0
  2 13  1  0
  2 14  1  0
  3 15  1  0
  6 16  1  0
  6 17  1  0
  6 18  1  0
  7 19  1  0
  7 20  1  0
  7 21  1  0
  8 22  1  0
  9 23  1  0
M  END
