
     RDKit          3D

 19 21  0  0  0  0  0  0  0  0999 V2000
    2.5682    0.0336   -0.3753 C   0  0  0  0  0  0  0  0  0  0  0  0
    1.4631    0.3908    0.5745 C   0  0  0  0  0  0  0  0  0  0  0  0
    0.1136    0.0087    0.1399 C   0  0  0  0  0  0  0  0  0  0  0  0
   -0.2365   -1.3212   -0.1116 O   0  0  0  0  0  0  0  0  0  0  0  0
   -1.5831   -1.1858   -0.4168 C   0  0  0  0  0  0  0  0  0  0  0  0
   -2.0733   -0.4245    0.8258 C   0  0  0  0  0  0  0  0  0  0  0  0
   -1.0495    0.6889    0.7503 C   0  0  0  0  0  0  0  0  0  0  0  0
   -0.7797    0.7925   -0.6995 C   0  0  0  0  0  0  0  0  0  0  0  0
   -1.5770   -0.1796   -1.3516 O   0  0  0  0  0  0  0  0  0  0  0  0
    2.4397   -0.9427   -0.8463 H   0  0  0  0  0  0  0  0  0  0  0  0
    2.7114    0.8164   -1.1713 H   0  0  0  0  0  0  0  0  0  0  0  0
    3.5304    0.0067    0.1780 H   0  0  0  0  0  0  0  0  0  0  0  0
    1.4930    1.4646    0.7915 H   0  0  0  0  0  0  0  0  0  0  0  0
    1.6915   -0.1323    1.5482 H   0  0  0  0  0  0  0  0  0  0  0  0
   -2.1248   -2.0729   -0.6321 H   0  0  0  0  0  0  0  0  0  0  0  0
   -1.9344   -1.0793    1.7011 H   0  0  0  0  0  0  0  0  0  0  0  0
   -3.1017   -0.0762    0.6919 H   0  0  0  0  0  0  0  0  0  0  0  0
   -1.0104    1.4930    1.4557 H   0  0  0  0  0  0  0  0  0  0  0  0
   -0.5405    1.7194   -1.2095 H   0  0  0  0  0  0  0  0  0  0  0  0
  1  2  1  0
  2  3  1  0
  3  4  1  0
  4  5  1  0
  5  6  1  0
  6  7  1  0
  7  8  1  0
  8  9  1  0
  7  3  1  0
  8  3  1  0
  9  5  1  0
  1 10  1  0
  1 11  1  0
  1 12  1  0
  2 13  1  0
  2 14  1  0
  5 15  1  0
  6 16  1  0
  6 17  1  0
  7 18  1  0
  8 19  1  0
M  END
