
     RDKit          3D

 19 19  0  0  0  0  0  0  0  0999 V2000
   -2.3928   -0.1733   -0.2395 C   0  0  0  0  0  0  0  0  0  0  0  0
   -1.4596    0.5426    0.6792 C   0  0  0  0  0  0  0  0  0  0  0  0
   -0.0209    0.3023    0.3541 C   0  0  0  0  0  0  0  0  0  0  0  0
    0.7275    1.3321    0.0477 C   0  0  0  0  0  0  0  0  0  0  0  0
    2.1380    1.2054   -0.2861 C   0  0  0  0  0  0  0  0  0  0  0  0
    2.8628    2.1901   -0.5794 O   0  0  0  0  0  0  0  0  0  0  0  0
    2.6315   -0.1083   -0.2557 O   0  0  0  0  0  0  0  0  0  0  0  0
    1.6873   -1.1525   -0.5949 C   0  0  0  0  0  0  0  0  0  0  0  0
    0.5541   -1.0627    0.3951 C   0  0  0  0  0  0  0  0  0  0  0  0
   -2.0530   -1.1848   -0.5394 H   0  0  0  0  0  0  0  0  0  0  0  0
   -2.6443    0.4786   -1.0913 H   0  0  0  0  0  0  0  0  0  0  0  0
   -3.3511   -0.3365    0.3248 H   0  0  0  0  0  0  0  0  0  0  0  0
   -1.6305    0.1781    1.7182 H   0  0  0  0  0  0  0  0  0  0  0  0
   -1.6466    1.6234    0.5877 H   0  0  0  0  0  0  0  0  0  0  0  0
    0.2951    2.3368    0.0362 H   0  0  0  0  0  0  0  0  0  0  0  0
    1.2929   -0.9793   -1.6149 H   0  0  0  0  0  0  0  0  0  0  0  0
    2.2343   -2.1059   -0.4859 H   0  0  0  0  0  0  0  0  0  0  0  0
    1.0108   -1.2823    1.3959 H   0  0  0  0  0  0  0  0  0  0  0  0
   -0.2355   -1.8037    0.1480 H   0  0  0  0  0  0  0  0  0  0  0  0
  1  2  1  0
  2  3  1  0
  3  4  2  0
  4  5  1  0
  5  6  2  0
  5  7  1  0
  7  8  1  0
  8  9  1  0
  9  3  1  0
  1 10  1  0
  1 11  1  0
  1 12  1  0
  2 13  1  0
  2 14  1  0
  4 15  1  0
  8 16  1  0
  8 17  1  0
  9 18  1  0
  9 19  1  0
M  END
