
     RDKit          3D

 25 25  0  0  0  0  0  0  0  0999 V2000
   -2.9134    0.0338   -0.3538 C   0  0  0  0  0  0  0  0  0  0  0  0
   -1.8763   -0.2841    0.6915 C   0  0  0  0  0  0  0  0  0  0  0  0
   -0.5080   -0.2591    0.0456 C   0  0  0  0  0  0  0  0  0  0  0  0
    0.5059   -0.5858    1.1403 C   0  0  0  0  0  0  0  0  0  0  0  0
    1.8065   -0.1318    0.5210 C   0  0  0  0  0  0  0  0  0  0  0  0
    2.4117   -1.3277   -0.1892 C   0  0  0  0  0  0  0  0  0  0  0  0
    1.4310    0.9679   -0.4235 C   0  0  0  0  0  0  0  0  0  0  0  0
   -0.0766    1.1106   -0.3718 C   0  0  0  0  0  0  0  0  0  0  0  0
   -0.5604    1.4893   -1.6068 O   0  0  0  0  0  0  0  0  0  0  0  0
   -3.3244    1.0353   -0.2104 H   0  0  0  0  0  0  0  0  0  0  0  0
   -3.7545   -0.7005   -0.3154 H   0  0  0  0  0  0  0  0  0  0  0  0
   -2.4528   -0.0011   -1.3756 H   0  0  0  0  0  0  0  0  0  0  0  0
   -1.9015    0.3813    1.5631 H   0  0  0  0  0  0  0  0  0  0  0  0
   -2.0313   -1.3352    1.0463 H   0  0  0  0  0  0  0  0  0  0  0  0
   -0.4175   -0.9730   -0.7719 H   0  0  0  0  0  0  0  0  0  0  0  0
    0.2741   -0.0605    2.0763 H   0  0  0  0  0  0  0  0  0  0  0  0
    0.4663   -1.6849    1.2938 H   0  0  0  0  0  0  0  0  0  0  0  0
    2.5220    0.2740    1.2617 H   0  0  0  0  0  0  0  0  0  0  0  0
    2.1768   -1.2259   -1.2634 H   0  0  0  0  0  0  0  0  0  0  0  0
    1.9369   -2.2707    0.1549 H   0  0  0  0  0  0  0  0  0  0  0  0
    3.4907   -1.4157    0.0265 H   0  0  0  0  0  0  0  0  0  0  0  0
    1.7622    0.6686   -1.4417 H   0  0  0  0  0  0  0  0  0  0  0  0
    1.9162    1.9393   -0.1980 H   0  0  0  0  0  0  0  0  0  0  0  0
   -0.3948    1.8728    0.3688 H   0  0  0  0  0  0  0  0  0  0  0  0
   -0.4886    2.4831   -1.6684 H   0  0  0  0  0  0  0  0  0  0  0  0
  1  2  1  0
  2  3  1  0
  3  4  1  0
  4  5  1  0
  5  6  1  0
  5  7  1  0
  7  8  1  0
  8  9  1  0
  8  3  1  0
  1 10  1  0
  1 11  1  0
  1 12  1  0
  2 13  1  0
  2 14  1  0
  3 15  1  0
  4 16  1  0
  4 17  1  0
  5 18  1  0
  6 19  1  0
  6 20  1  0
  6 21  1  0
  7 22  1  0
  7 23  1  0
  8 24  1  0
  9 25  1  0
M  END
