
     RDKit          3D

 23 24  0  0  0  0  0  0  0  0999 V2000
    2.4511   -0.3122    0.6552 C   0  0  0  0  0  0  0  0  0  0  0  0
    1.4259   -0.6380   -0.4321 C   0  0  0  0  0  0  0  0  0  0  0  0
    0.4780    0.4897   -0.5213 C   0  0  0  0  0  0  0  0  0  0  0  0
   -0.3333    0.8531    0.6905 C   0  0  0  0  0  0  0  0  0  0  0  0
   -0.9897   -0.3222    1.3580 C   0  0  0  0  0  0  0  0  0  0  0  0
   -1.9268   -0.9164    0.5358 O   0  0  0  0  0  0  0  0  0  0  0  0
   -1.5119   -1.0005   -0.8057 C   0  0  0  0  0  0  0  0  0  0  0  0
   -0.8285    0.2501   -1.2352 C   0  0  0  0  0  0  0  0  0  0  0  0
   -1.3642    1.3764   -0.3319 C   0  0  0  0  0  0  0  0  0  0  0  0
    1.9790   -0.3780    1.6320 H   0  0  0  0  0  0  0  0  0  0  0  0
    2.8064    0.7213    0.4299 H   0  0  0  0  0  0  0  0  0  0  0  0
    3.2650   -1.0572    0.5448 H   0  0  0  0  0  0  0  0  0  0  0  0
    1.0271   -1.6359   -0.3090 H   0  0  0  0  0  0  0  0  0  0  0  0
    2.0163   -0.6466   -1.3935 H   0  0  0  0  0  0  0  0  0  0  0  0
    0.9677    1.4262   -0.8949 H   0  0  0  0  0  0  0  0  0  0  0  0
    0.0565    1.6431    1.3360 H   0  0  0  0  0  0  0  0  0  0  0  0
   -0.3055   -1.0506    1.8024 H   0  0  0  0  0  0  0  0  0  0  0  0
   -1.5680    0.1087    2.2239 H   0  0  0  0  0  0  0  0  0  0  0  0
   -0.8843   -1.8918   -0.8959 H   0  0  0  0  0  0  0  0  0  0  0  0
   -2.4492   -1.1265   -1.3942 H   0  0  0  0  0  0  0  0  0  0  0  0
   -0.8513    0.4965   -2.3057 H   0  0  0  0  0  0  0  0  0  0  0  0
   -1.0591    2.3847   -0.6526 H   0  0  0  0  0  0  0  0  0  0  0  0
   -2.4015    1.2259   -0.0365 H   0  0  0  0  0  0  0  0  0  0  0  0
  1  2  1  0
  2  3  1  0
  3  4  1  0
  4  5  1  0
  5  6  1  0
  6  7  1  0
  7  8  1  0
  8  9  1  0
  8  3  1  0
  9  4  1  0
  1 10  1  0
  1 11  1  0
  1 12  1  0
  2 13  1  0
  2 14  1  0
  3 15  1  0
  4 16  1  0
  5 17  1  0
  5 18  1  0
  7 19  1  0
  7 20  1  0
  8 21  1  0
  9 22  1  0
  9 23  1  0
M  END
