
     RDKit          3D

 19 19  0  0  0  0  0  0  0  0999 V2000
   -2.0970    1.1528   -0.0118 C   0  0  0  0  0  0  0  0  0  0  0  0
   -1.6434    0.0976    0.9631 C   0  0  0  0  0  0  0  0  0  0  0  0
   -0.4364   -0.6321    0.4263 C   0  0  0  0  0  0  0  0  0  0  0  0
    0.7509    0.1911    0.1469 C   0  0  0  0  0  0  0  0  0  0  0  0
    0.6560    1.4365    0.2457 O   0  0  0  0  0  0  0  0  0  0  0  0
    1.9723   -0.3450   -0.2227 O   0  0  0  0  0  0  0  0  0  0  0  0
    3.0901    0.5193   -0.4832 C   0  0  0  0  0  0  0  0  0  0  0  0
   -0.4998   -2.0442    0.1743 C   0  0  0  0  0  0  0  0  0  0  0  0
   -0.0504   -1.6283    1.4989 O   0  0  0  0  0  0  0  0  0  0  0  0
   -1.4001    1.2785   -0.8718 H   0  0  0  0  0  0  0  0  0  0  0  0
   -3.0921    0.8899   -0.4764 H   0  0  0  0  0  0  0  0  0  0  0  0
   -2.2000    2.1350    0.5052 H   0  0  0  0  0  0  0  0  0  0  0  0
   -2.4973   -0.6352    1.0933 H   0  0  0  0  0  0  0  0  0  0  0  0
   -1.4482    0.4832    1.9776 H   0  0  0  0  0  0  0  0  0  0  0  0
    3.1636    1.2621    0.3375 H   0  0  0  0  0  0  0  0  0  0  0  0
    3.9751   -0.1219   -0.4957 H   0  0  0  0  0  0  0  0  0  0  0  0
    2.9476    1.1121   -1.4074 H   0  0  0  0  0  0  0  0  0  0  0  0
   -1.4901   -2.5484    0.3073 H   0  0  0  0  0  0  0  0  0  0  0  0
    0.2993   -2.6028   -0.3592 H   0  0  0  0  0  0  0  0  0  0  0  0
  1  2  1  0
  2  3  1  0
  3  4  1  0
  4  5  2  0
  4  6  1  0
  6  7  1  0
  3  8  1  0
  8  9  1  0
  9  3  1  0
  1 10  1  0
  1 11  1  0
  1 12  1  0
  2 13  1  0
  2 14  1  0
  7 15  1  0
  7 16  1  0
  7 17  1  0
  8 18  1  0
  8 19  1  0
M  END
