
     RDKit          3D

 21 21  0  0  0  0  0  0  0  0999 V2000
    2.5358    0.6947    0.0748 C   0  0  0  0  0  0  0  0  0  0  0  0
    1.0530    1.0691    0.1916 C   0  0  0  0  0  0  0  0  0  0  0  0
    0.2947   -0.2365    0.1894 C   0  0  0  0  0  0  0  0  0  0  0  0
    0.5789   -1.2124    1.2565 C   0  0  0  0  0  0  0  0  0  0  0  0
    0.0255   -2.2918    1.3468 O   0  0  0  0  0  0  0  0  0  0  0  0
    0.1759   -0.7667   -1.1370 O   0  0  0  0  0  0  0  0  0  0  0  0
   -0.9970   -0.3100   -0.5862 C   0  0  0  0  0  0  0  0  0  0  0  0
   -1.5597    1.0347   -0.9857 C   0  0  0  0  0  0  0  0  0  0  0  0
   -1.9619   -1.3521   -0.0900 C   0  0  0  0  0  0  0  0  0  0  0  0
    2.7131   -0.2331    0.6571 H   0  0  0  0  0  0  0  0  0  0  0  0
    2.7970    0.4892   -0.9845 H   0  0  0  0  0  0  0  0  0  0  0  0
    3.1398    1.5392    0.4586 H   0  0  0  0  0  0  0  0  0  0  0  0
    0.7573    1.6970   -0.6540 H   0  0  0  0  0  0  0  0  0  0  0  0
    0.9548    1.5902    1.1759 H   0  0  0  0  0  0  0  0  0  0  0  0
    1.3173   -0.9700    2.0075 H   0  0  0  0  0  0  0  0  0  0  0  0
   -1.6409    1.6279   -0.0321 H   0  0  0  0  0  0  0  0  0  0  0  0
   -0.9657    1.5518   -1.7455 H   0  0  0  0  0  0  0  0  0  0  0  0
   -2.5911    0.8864   -1.3315 H   0  0  0  0  0  0  0  0  0  0  0  0
   -2.0261   -1.2193    1.0243 H   0  0  0  0  0  0  0  0  0  0  0  0
   -1.6271   -2.3839   -0.3035 H   0  0  0  0  0  0  0  0  0  0  0  0
   -2.9736   -1.2044   -0.5323 H   0  0  0  0  0  0  0  0  0  0  0  0
  1  2  1  0
  2  3  1  0
  3  4  1  0
  4  5  2  0
  3  6  1  0
  6  7  1  0
  7  8  1  0
  7  9  1  0
  7  3  1  0
  1 10  1  0
  1 11  1  0
  1 12  1  0
  2 13  1  0
  2 14  1  0
  4 15  1  0
  8 16  1  0
  8 17  1  0
  8 18  1  0
  9 19  1  0
  9 20  1  0
  9 21  1  0
M  END
