
     RDKit          3D

 23 24  0  0  0  0  0  0  0  0999 V2000
    2.6003    0.1949    0.2183 C   0  0  0  0  0  0  0  0  0  0  0  0
    1.5651   -0.7107    0.7706 C   0  0  0  0  0  0  0  0  0  0  0  0
    0.1740   -0.5003    0.3991 C   0  0  0  0  0  0  0  0  0  0  0  0
   -0.5133    0.7888    0.7127 C   0  0  0  0  0  0  0  0  0  0  0  0
   -1.9672    0.4003    0.4058 C   0  0  0  0  0  0  0  0  0  0  0  0
   -1.7293   -0.3520   -0.9191 C   0  0  0  0  0  0  0  0  0  0  0  0
   -1.9666   -1.7012   -0.7795 O   0  0  0  0  0  0  0  0  0  0  0  0
   -0.2053   -0.1843   -1.0056 C   0  0  0  0  0  0  0  0  0  0  0  0
   -0.1033    1.2796   -0.6488 C   0  0  0  0  0  0  0  0  0  0  0  0
    2.6155    0.2097   -0.8965 H   0  0  0  0  0  0  0  0  0  0  0  0
    2.6340    1.2065    0.6738 H   0  0  0  0  0  0  0  0  0  0  0  0
    3.6095   -0.2475    0.4829 H   0  0  0  0  0  0  0  0  0  0  0  0
    1.6886   -0.7007    1.8943 H   0  0  0  0  0  0  0  0  0  0  0  0
    1.8650   -1.7633    0.4930 H   0  0  0  0  0  0  0  0  0  0  0  0
   -0.4703   -1.3544    0.7696 H   0  0  0  0  0  0  0  0  0  0  0  0
   -0.3079    1.3400    1.5793 H   0  0  0  0  0  0  0  0  0  0  0  0
   -2.5970    1.2858    0.2462 H   0  0  0  0  0  0  0  0  0  0  0  0
   -2.3253   -0.2944    1.1715 H   0  0  0  0  0  0  0  0  0  0  0  0
   -2.2398    0.1300   -1.7505 H   0  0  0  0  0  0  0  0  0  0  0  0
   -2.5137   -2.0875   -1.5049 H   0  0  0  0  0  0  0  0  0  0  0  0
    0.3039   -0.5755   -1.8367 H   0  0  0  0  0  0  0  0  0  0  0  0
   -0.9456    1.8431   -1.1263 H   0  0  0  0  0  0  0  0  0  0  0  0
    0.8285    1.7929   -0.7791 H   0  0  0  0  0  0  0  0  0  0  0  0
  1  2  1  0
  2  3  1  0
  3  4  1  0
  4  5  1  0
  5  6  1  0
  6  7  1  0
  6  8  1  0
  8  9  1  0
  8  3  1  0
  9  4  1  0
  1 10  1  0
  1 11  1  0
  1 12  1  0
  2 13  1  0
  2 14  1  0
  3 15  1  0
  4 16  1  0
  5 17  1  0
  5 18  1  0
  6 19  1  0
  7 20  1  0
  8 21  1  0
  9 22  1  0
  9 23  1  0
M  END
