
     RDKit          3D

 21 22  0  0  0  0  0  0  0  0999 V2000
    2.5561    0.7040   -0.1284 C   0  0  0  0  0  0  0  0  0  0  0  0
    1.4451    0.0344   -0.9476 C   0  0  0  0  0  0  0  0  0  0  0  0
    0.3499   -0.3213   -0.0100 C   0  0  0  0  0  0  0  0  0  0  0  0
   -0.8175   -0.9996   -0.7263 C   0  0  0  0  0  0  0  0  0  0  0  0
   -0.9671   -2.3292   -0.4270 O   0  0  0  0  0  0  0  0  0  0  0  0
   -1.7229   -0.0413    0.0249 C   0  0  0  0  0  0  0  0  0  0  0  0
   -2.6579   -0.5262    0.8907 O   0  0  0  0  0  0  0  0  0  0  0  0
   -1.5995    1.3753   -0.3535 C   0  0  0  0  0  0  0  0  0  0  0  0
   -0.5485    0.7548    0.4714 C   0  0  0  0  0  0  0  0  0  0  0  0
    2.2759    1.7604    0.0018 H   0  0  0  0  0  0  0  0  0  0  0  0
    2.6606    0.2020    0.8543 H   0  0  0  0  0  0  0  0  0  0  0  0
    3.5059    0.5754   -0.7026 H   0  0  0  0  0  0  0  0  0  0  0  0
    1.1010    0.7384   -1.7402 H   0  0  0  0  0  0  0  0  0  0  0  0
    1.8431   -0.8965   -1.3970 H   0  0  0  0  0  0  0  0  0  0  0  0
    0.7594   -0.9401    0.8393 H   0  0  0  0  0  0  0  0  0  0  0  0
   -0.8470   -0.7335   -1.8086 H   0  0  0  0  0  0  0  0  0  0  0  0
   -0.3138   -2.6037    0.2865 H   0  0  0  0  0  0  0  0  0  0  0  0
   -2.8797   -1.4627    0.6090 H   0  0  0  0  0  0  0  0  0  0  0  0
   -2.2738    2.0768    0.1752 H   0  0  0  0  0  0  0  0  0  0  0  0
   -1.4414    1.5546   -1.4555 H   0  0  0  0  0  0  0  0  0  0  0  0
   -0.4278    1.0778    1.5166 H   0  0  0  0  0  0  0  0  0  0  0  0
  1  2  1  0
  2  3  1  0
  3  4  1  0
  4  5  1  0
  4  6  1  0
  6  7  1  0
  6  8  1  0
  8  9  1  0
  9  3  1  0
  9  6  1  0
  1 10  1  0
  1 11  1  0
  1 12  1  0
  2 13  1  0
  2 14  1  0
  3 15  1  0
  4 16  1  0
  5 17  1  0
  7 18  1  0
  8 19  1  0
  8 20  1  0
  9 21  1  0
M  END
