
     RDKit          3D

 19 19  0  0  0  0  0  0  0  0999 V2000
   -2.3767    0.2249   -0.4252 C   0  0  0  0  0  0  0  0  0  0  0  0
   -1.2657    1.1526    0.0313 C   0  0  0  0  0  0  0  0  0  0  0  0
   -0.1219    0.2843    0.4669 C   0  0  0  0  0  0  0  0  0  0  0  0
    0.3688   -0.5869   -0.6707 C   0  0  0  0  0  0  0  0  0  0  0  0
    1.6796   -1.0649   -0.0741 C   0  0  0  0  0  0  0  0  0  0  0  0
    2.0605    0.1090    0.7901 C   0  0  0  0  0  0  0  0  0  0  0  0
    1.0169    0.9969    0.7936 O   0  0  0  0  0  0  0  0  0  0  0  0
   -1.9810   -0.3455   -1.2896 H   0  0  0  0  0  0  0  0  0  0  0  0
   -2.5909   -0.4568    0.4208 H   0  0  0  0  0  0  0  0  0  0  0  0
   -3.2383    0.8491   -0.7214 H   0  0  0  0  0  0  0  0  0  0  0  0
   -1.6357    1.8236    0.8013 H   0  0  0  0  0  0  0  0  0  0  0  0
   -0.9360    1.7044   -0.8846 H   0  0  0  0  0  0  0  0  0  0  0  0
   -0.3759   -0.3611    1.3260 H   0  0  0  0  0  0  0  0  0  0  0  0
    0.5207    0.0217   -1.5837 H   0  0  0  0  0  0  0  0  0  0  0  0
   -0.2976   -1.4490   -0.8656 H   0  0  0  0  0  0  0  0  0  0  0  0
    2.4283   -1.2883   -0.8573 H   0  0  0  0  0  0  0  0  0  0  0  0
    1.4498   -1.9299    0.5676 H   0  0  0  0  0  0  0  0  0  0  0  0
    3.0047    0.5333    0.3439 H   0  0  0  0  0  0  0  0  0  0  0  0
    2.2904   -0.2174    1.8306 H   0  0  0  0  0  0  0  0  0  0  0  0
  1  2  1  0
  2  3  1  0
  3  4  1  0
  4  5  1  0
  5  6  1  0
  6  7  1  0
  7  3  1  0
  1  8  1  0
  1  9  1  0
  1 10  1  0
  2 11  1  0
  2 12  1  0
  3 13  1  0
  4 14  1  0
  4 15  1  0
  5 16  1  0
  5 17  1  0
  6 18  1  0
  6 19  1  0
M  END
