
     RDKit          3D

 19 20  0  0  0  0  0  0  0  0999 V2000
   -1.5840   -0.6627   -0.9028 C   0  0  0  0  0  0  0  0  0  0  0  0
   -1.1380   -0.0715    0.3599 C   0  0  0  0  0  0  0  0  0  0  0  0
    0.1463    0.6530    0.4158 C   0  0  0  0  0  0  0  0  0  0  0  0
    0.1256    1.8453   -0.5602 C   0  0  0  0  0  0  0  0  0  0  0  0
    0.1894    0.7529   -1.4694 O   0  0  0  0  0  0  0  0  0  0  0  0
    1.2501    0.3640   -0.6666 C   0  0  0  0  0  0  0  0  0  0  0  0
    1.3153   -0.1525    0.6721 C   0  0  0  0  0  0  0  0  0  0  0  0
    1.3109   -1.6254    0.8259 C   0  0  0  0  0  0  0  0  0  0  0  0
    1.9249   -2.2442    1.6635 O   0  0  0  0  0  0  0  0  0  0  0  0
   -0.8712   -1.3188   -1.4325 H   0  0  0  0  0  0  0  0  0  0  0  0
   -2.0213    0.0267   -1.6501 H   0  0  0  0  0  0  0  0  0  0  0  0
   -2.4460   -1.3586   -0.6518 H   0  0  0  0  0  0  0  0  0  0  0  0
   -1.0989   -0.8962    1.1262 H   0  0  0  0  0  0  0  0  0  0  0  0
   -1.9654    0.5905    0.7368 H   0  0  0  0  0  0  0  0  0  0  0  0
    1.0014    2.4841   -0.5249 H   0  0  0  0  0  0  0  0  0  0  0  0
   -0.8563    2.3100   -0.6526 H   0  0  0  0  0  0  0  0  0  0  0  0
    2.0169    1.1929   -0.8129 H   0  0  0  0  0  0  0  0  0  0  0  0
    1.9901    0.2989    1.4685 H   0  0  0  0  0  0  0  0  0  0  0  0
    0.7104   -2.1884    0.1329 H   0  0  0  0  0  0  0  0  0  0  0  0
  1  2  1  0
  2  3  1  0
  3  4  1  0
  4  5  1  0
  5  6  1  0
  6  7  1  0
  7  8  1  0
  8  9  2  0
  6  3  1  0
  7  3  1  0
  1 10  1  0
  1 11  1  0
  1 12  1  0
  2 13  1  0
  2 14  1  0
  4 15  1  0
  4 16  1  0
  6 17  1  0
  7 18  1  0
  8 19  1  0
M  END
