
     RDKit          3D

 23 23  0  0  0  0  0  0  0  0999 V2000
   -2.6414    0.4003    0.1658 C   0  0  0  0  0  0  0  0  0  0  0  0
   -1.4535    0.0597    1.0330 C   0  0  0  0  0  0  0  0  0  0  0  0
   -0.2490   -0.3311    0.1779 C   0  0  0  0  0  0  0  0  0  0  0  0
   -0.6724   -1.5459   -0.6379 C   0  0  0  0  0  0  0  0  0  0  0  0
    0.1058    0.6701   -0.6861 O   0  0  0  0  0  0  0  0  0  0  0  0
    1.0973    1.5103   -0.2067 C   0  0  0  0  0  0  0  0  0  0  0  0
    2.3962    0.7572    0.0512 C   0  0  0  0  0  0  0  0  0  0  0  0
    1.9879   -0.7021    0.2521 C   0  0  0  0  0  0  0  0  0  0  0  0
    0.8070   -0.6554    0.9955 O   0  0  0  0  0  0  0  0  0  0  0  0
   -3.3474   -0.4240    0.0433 H   0  0  0  0  0  0  0  0  0  0  0  0
   -3.2004    1.2612    0.5913 H   0  0  0  0  0  0  0  0  0  0  0  0
   -2.2399    0.6950   -0.8474 H   0  0  0  0  0  0  0  0  0  0  0  0
   -1.1907    0.8753    1.7408 H   0  0  0  0  0  0  0  0  0  0  0  0
   -1.7512   -0.8106    1.6538 H   0  0  0  0  0  0  0  0  0  0  0  0
   -0.7209   -1.2915   -1.7161 H   0  0  0  0  0  0  0  0  0  0  0  0
   -1.6803   -1.9065   -0.3592 H   0  0  0  0  0  0  0  0  0  0  0  0
    0.0255   -2.3843   -0.4482 H   0  0  0  0  0  0  0  0  0  0  0  0
    1.3252    2.2369   -1.0162 H   0  0  0  0  0  0  0  0  0  0  0  0
    0.7528    2.0306    0.7074 H   0  0  0  0  0  0  0  0  0  0  0  0
    2.9429    1.1416    0.9192 H   0  0  0  0  0  0  0  0  0  0  0  0
    3.0764    0.8049   -0.8167 H   0  0  0  0  0  0  0  0  0  0  0  0
    2.7898   -1.2492    0.7897 H   0  0  0  0  0  0  0  0  0  0  0  0
    1.8403   -1.1425   -0.7382 H   0  0  0  0  0  0  0  0  0  0  0  0
  1  2  1  0
  2  3  1  0
  3  4  1  0
  3  5  1  0
  5  6  1  0
  6  7  1  0
  7  8  1  0
  8  9  1  0
  9  3  1  0
  1 10  1  0
  1 11  1  0
  1 12  1  0
  2 13  1  0
  2 14  1  0
  4 15  1  0
  4 16  1  0
  4 17  1  0
  6 18  1  0
  6 19  1  0
  7 20  1  0
  7 21  1  0
  8 22  1  0
  8 23  1  0
M  END
