
     RDKit          3D

 17 17  0  0  0  0  0  0  0  0999 V2000
    2.3211   -0.4651   -0.3027 C   0  0  0  0  0  0  0  0  0  0  0  0
    1.4684    0.5177    0.4935 C   0  0  0  0  0  0  0  0  0  0  0  0
    0.0178    0.3038    0.1829 C   0  0  0  0  0  0  0  0  0  0  0  0
   -0.7880    1.2094   -0.3324 C   0  0  0  0  0  0  0  0  0  0  0  0
   -2.1150    0.6796   -0.5047 C   0  0  0  0  0  0  0  0  0  0  0  0
   -3.0630    1.2647   -1.1294 O   0  0  0  0  0  0  0  0  0  0  0  0
   -2.1569   -0.6295    0.1627 C   0  0  0  0  0  0  0  0  0  0  0  0
   -0.7253   -0.9286    0.3994 C   0  0  0  0  0  0  0  0  0  0  0  0
   -0.2687   -2.0467    0.7251 O   0  0  0  0  0  0  0  0  0  0  0  0
    3.3697   -0.1150   -0.1823 H   0  0  0  0  0  0  0  0  0  0  0  0
    2.2713   -1.4673    0.1790 H   0  0  0  0  0  0  0  0  0  0  0  0
    1.9840   -0.4740   -1.3559 H   0  0  0  0  0  0  0  0  0  0  0  0
    1.6772    0.3863    1.5741 H   0  0  0  0  0  0  0  0  0  0  0  0
    1.7794    1.5257    0.1556 H   0  0  0  0  0  0  0  0  0  0  0  0
   -0.4367    2.2225   -0.5787 H   0  0  0  0  0  0  0  0  0  0  0  0
   -2.7510   -0.6233    1.0967 H   0  0  0  0  0  0  0  0  0  0  0  0
   -2.5843   -1.3603   -0.5830 H   0  0  0  0  0  0  0  0  0  0  0  0
  1  2  1  0
  2  3  1  0
  3  4  2  0
  4  5  1  0
  5  6  2  0
  5  7  1  0
  7  8  1  0
  8  9  2  0
  8  3  1  0
  1 10  1  0
  1 11  1  0
  1 12  1  0
  2 13  1  0
  2 14  1  0
  4 15  1  0
  7 16  1  0
  7 17  1  0
M  END
