
     RDKit          3D

 23 24  0  0  0  0  0  0  0  0999 V2000
   -3.4259   -0.0905    0.1097 C   0  0  0  0  0  0  0  0  0  0  0  0
   -2.1623   -0.0639   -0.7116 C   0  0  0  0  0  0  0  0  0  0  0  0
   -1.0704    0.7629   -0.0139 C   0  0  0  0  0  0  0  0  0  0  0  0
    0.1562    0.8714   -0.6664 C   0  0  0  0  0  0  0  0  0  0  0  0
    1.2393    0.0310   -1.1118 C   0  0  0  0  0  0  0  0  0  0  0  0
    2.0059   -0.1975   -0.0494 C   0  0  0  0  0  0  0  0  0  0  0  0
    3.2481   -0.9865    0.0739 C   0  0  0  0  0  0  0  0  0  0  0  0
    1.3385    0.4836    1.1415 C   0  0  0  0  0  0  0  0  0  0  0  0
   -0.0551    0.1228    0.6927 C   0  0  0  0  0  0  0  0  0  0  0  0
   -4.1496    0.6802   -0.1869 H   0  0  0  0  0  0  0  0  0  0  0  0
   -3.1175    0.0650    1.1779 H   0  0  0  0  0  0  0  0  0  0  0  0
   -3.9222   -1.0771    0.0213 H   0  0  0  0  0  0  0  0  0  0  0  0
   -1.7734   -1.0934   -0.7994 H   0  0  0  0  0  0  0  0  0  0  0  0
   -2.3727    0.3849   -1.7126 H   0  0  0  0  0  0  0  0  0  0  0  0
   -1.5536    1.6530    0.4812 H   0  0  0  0  0  0  0  0  0  0  0  0
    0.5989    1.9242   -0.5947 H   0  0  0  0  0  0  0  0  0  0  0  0
    1.4623   -0.3851   -2.1178 H   0  0  0  0  0  0  0  0  0  0  0  0
    3.7892   -1.0860   -0.8765 H   0  0  0  0  0  0  0  0  0  0  0  0
    2.9414   -2.0036    0.4460 H   0  0  0  0  0  0  0  0  0  0  0  0
    3.8764   -0.5646    0.8883 H   0  0  0  0  0  0  0  0  0  0  0  0
    1.4319    1.5716    1.0922 H   0  0  0  0  0  0  0  0  0  0  0  0
    1.6069    0.0090    2.0806 H   0  0  0  0  0  0  0  0  0  0  0  0
   -0.0922   -1.0112    0.6357 H   0  0  0  0  0  0  0  0  0  0  0  0
  1  2  1  0
  2  3  1  0
  3  4  1  0
  4  5  1  0
  5  6  2  0
  6  7  1  0
  6  8  1  0
  8  9  1  0
  9  3  1  0
  9  4  1  0
  1 10  1  0
  1 11  1  0
  1 12  1  0
  2 13  1  0
  2 14  1  0
  3 15  1  0
  4 16  1  0
  5 17  1  0
  7 18  1  0
  7 19  1  0
  7 20  1  0
  8 21  1  0
  8 22  1  0
  9 23  1  0
M  END
