
     RDKit          3D

 23 23  0  0  0  0  0  0  0  0999 V2000
   -1.7943    0.8626   -1.4961 C   0  0  0  0  0  0  0  0  0  0  0  0
   -1.7982    0.0853   -0.2379 C   0  0  0  0  0  0  0  0  0  0  0  0
   -0.5181   -0.0542    0.5119 C   0  0  0  0  0  0  0  0  0  0  0  0
   -0.7941   -0.8935    1.8070 C   0  0  0  0  0  0  0  0  0  0  0  0
    0.2657    1.0720    0.7557 O   0  0  0  0  0  0  0  0  0  0  0  0
    0.8216   -0.1016    0.0720 C   0  0  0  0  0  0  0  0  0  0  0  0
    1.8184   -0.8667    0.9851 C   0  0  0  0  0  0  0  0  0  0  0  0
    1.4554    0.2697   -1.2144 C   0  0  0  0  0  0  0  0  0  0  0  0
    2.5006    1.1815   -1.0797 O   0  0  0  0  0  0  0  0  0  0  0  0
   -2.8533    1.2308   -1.7423 H   0  0  0  0  0  0  0  0  0  0  0  0
   -1.5193    0.2147   -2.3437 H   0  0  0  0  0  0  0  0  0  0  0  0
   -1.1975    1.7724   -1.4873 H   0  0  0  0  0  0  0  0  0  0  0  0
   -2.1967   -0.9595   -0.4081 H   0  0  0  0  0  0  0  0  0  0  0  0
   -2.5731    0.5733    0.4350 H   0  0  0  0  0  0  0  0  0  0  0  0
   -1.6670   -0.3995    2.2729 H   0  0  0  0  0  0  0  0  0  0  0  0
    0.0741   -0.8401    2.4754 H   0  0  0  0  0  0  0  0  0  0  0  0
   -0.9992   -1.9354    1.4885 H   0  0  0  0  0  0  0  0  0  0  0  0
    2.7414   -1.1184    0.4689 H   0  0  0  0  0  0  0  0  0  0  0  0
    2.0280   -0.2756    1.8986 H   0  0  0  0  0  0  0  0  0  0  0  0
    1.3238   -1.8533    1.2266 H   0  0  0  0  0  0  0  0  0  0  0  0
    1.9478   -0.6404   -1.6829 H   0  0  0  0  0  0  0  0  0  0  0  0
    0.7453    0.6051   -1.9597 H   0  0  0  0  0  0  0  0  0  0  0  0
    2.1888    2.0711   -0.7456 H   0  0  0  0  0  0  0  0  0  0  0  0
  1  2  1  0
  2  3  1  0
  3  4  1  0
  3  5  1  0
  5  6  1  0
  6  7  1  0
  6  8  1  0
  8  9  1  0
  6  3  1  0
  1 10  1  0
  1 11  1  0
  1 12  1  0
  2 13  1  0
  2 14  1  0
  4 15  1  0
  4 16  1  0
  4 17  1  0
  7 18  1  0
  7 19  1  0
  7 20  1  0
  8 21  1  0
  8 22  1  0
  9 23  1  0
M  END
