
     RDKit          3D

 27 27  0  0  0  0  0  0  0  0999 V2000
   -3.0627   -0.7851   -0.7876 C   0  0  0  0  0  0  0  0  0  0  0  0
   -1.6069   -0.8334   -1.1629 C   0  0  0  0  0  0  0  0  0  0  0  0
   -0.7304   -0.5076    0.0240 C   0  0  0  0  0  0  0  0  0  0  0  0
    0.7324   -0.4894   -0.0871 C   0  0  0  0  0  0  0  0  0  0  0  0
    1.6288   -1.0072    1.0103 C   0  0  0  0  0  0  0  0  0  0  0  0
    3.0808   -0.8334    0.5568 C   0  0  0  0  0  0  0  0  0  0  0  0
   -0.0155    0.7896    0.0939 C   0  0  0  0  0  0  0  0  0  0  0  0
    0.0196    1.7303   -1.0765 C   0  0  0  0  0  0  0  0  0  0  0  0
   -0.0353    1.4745    1.4376 C   0  0  0  0  0  0  0  0  0  0  0  0
   -3.3422   -1.5711   -0.0571 H   0  0  0  0  0  0  0  0  0  0  0  0
   -3.6788   -0.8039   -1.6988 H   0  0  0  0  0  0  0  0  0  0  0  0
   -3.2492    0.2000   -0.2979 H   0  0  0  0  0  0  0  0  0  0  0  0
   -1.4443   -0.0659   -1.9440 H   0  0  0  0  0  0  0  0  0  0  0  0
   -1.4084   -1.8465   -1.5685 H   0  0  0  0  0  0  0  0  0  0  0  0
   -1.1347   -0.9354    0.9782 H   0  0  0  0  0  0  0  0  0  0  0  0
    1.1324   -0.7173   -1.1056 H   0  0  0  0  0  0  0  0  0  0  0  0
    1.4665   -0.5224    1.9723 H   0  0  0  0  0  0  0  0  0  0  0  0
    1.4663   -2.0940    1.1501 H   0  0  0  0  0  0  0  0  0  0  0  0
    3.6348   -1.7838    0.5753 H   0  0  0  0  0  0  0  0  0  0  0  0
    3.5538   -0.0970    1.2221 H   0  0  0  0  0  0  0  0  0  0  0  0
    3.1201   -0.3958   -0.4706 H   0  0  0  0  0  0  0  0  0  0  0  0
    0.9236    2.3961   -0.9656 H   0  0  0  0  0  0  0  0  0  0  0  0
   -0.8564    2.3981   -1.0461 H   0  0  0  0  0  0  0  0  0  0  0  0
    0.1103    1.2506   -2.0487 H   0  0  0  0  0  0  0  0  0  0  0  0
   -0.9984    2.0613    1.4808 H   0  0  0  0  0  0  0  0  0  0  0  0
   -0.0799    0.7707    2.2852 H   0  0  0  0  0  0  0  0  0  0  0  0
    0.7738    2.2181    1.5305 H   0  0  0  0  0  0  0  0  0  0  0  0
  1  2  1  0
  2  3  1  0
  3  4  1  0
  4  5  1  0
  5  6  1  0
  4  7  1  0
  7  8  1  0
  7  9  1  0
  7  3  1  0
  1 10  1  0
  1 11  1  0
  1 12  1  0
  2 13  1  0
  2 14  1  0
  3 15  1  0
  4 16  1  0
  5 17  1  0
  5 18  1  0
  6 19  1  0
  6 20  1  0
  6 21  1  0
  8 22  1  0
  8 23  1  0
  8 24  1  0
  9 25  1  0
  9 26  1  0
  9 27  1  0
M  END
