
     RDKit          3D

 23 24  0  0  0  0  0  0  0  0999 V2000
    2.2473   -0.7591    0.5421 C   0  0  0  0  0  0  0  0  0  0  0  0
    1.3879    0.4036    0.3090 C   0  0  0  0  0  0  0  0  0  0  0  0
   -0.0056    0.2890   -0.1626 C   0  0  0  0  0  0  0  0  0  0  0  0
   -0.5252    1.7616   -0.2850 C   0  0  0  0  0  0  0  0  0  0  0  0
   -0.4563    2.3031    0.9634 O   0  0  0  0  0  0  0  0  0  0  0  0
   -0.4666   -0.6486   -1.1638 C   0  0  0  0  0  0  0  0  0  0  0  0
   -0.4851   -1.7288   -0.1067 C   0  0  0  0  0  0  0  0  0  0  0  0
   -0.9992   -0.4998    0.5891 C   0  0  0  0  0  0  0  0  0  0  0  0
   -1.8784   -0.4167   -0.6397 C   0  0  0  0  0  0  0  0  0  0  0  0
    3.3243   -0.4056    0.8030 H   0  0  0  0  0  0  0  0  0  0  0  0
    2.4170   -1.4231   -0.3068 H   0  0  0  0  0  0  0  0  0  0  0  0
    1.9670   -1.2666    1.4870 H   0  0  0  0  0  0  0  0  0  0  0  0
    1.3245    1.0774    1.2359 H   0  0  0  0  0  0  0  0  0  0  0  0
    1.9712    1.0946   -0.3969 H   0  0  0  0  0  0  0  0  0  0  0  0
   -1.3856    1.8843   -0.8882 H   0  0  0  0  0  0  0  0  0  0  0  0
    0.3109    2.2989   -0.8725 H   0  0  0  0  0  0  0  0  0  0  0  0
   -1.2598    2.7571    1.2782 H   0  0  0  0  0  0  0  0  0  0  0  0
   -0.2336   -0.7818   -2.1319 H   0  0  0  0  0  0  0  0  0  0  0  0
    0.3758   -2.2436    0.1977 H   0  0  0  0  0  0  0  0  0  0  0  0
   -1.3798   -2.3884   -0.3311 H   0  0  0  0  0  0  0  0  0  0  0  0
   -1.3010   -0.4272    1.5394 H   0  0  0  0  0  0  0  0  0  0  0  0
   -2.5241   -1.3266   -0.7821 H   0  0  0  0  0  0  0  0  0  0  0  0
   -2.4258    0.4463   -0.8774 H   0  0  0  0  0  0  0  0  0  0  0  0
  1  2  1  0
  2  3  1  0
  3  4  1  0
  4  5  1  0
  3  6  1  0
  6  7  1  0
  7  8  1  0
  8  9  1  0
  8  3  1  0
  9  6  1  0
  1 10  1  0
  1 11  1  0
  1 12  1  0
  2 13  1  0
  2 14  1  0
  4 15  1  0
  4 16  1  0
  5 17  1  0
  6 18  1  0
  7 19  1  0
  7 20  1  0
  8 21  1  0
  9 22  1  0
  9 23  1  0
M  END
