
     RDKit          3D

 23 23  0  0  0  0  0  0  0  0999 V2000
    2.6200   -0.3973    0.2364 C   0  0  0  0  0  0  0  0  0  0  0  0
    1.1816   -0.5720    0.6859 C   0  0  0  0  0  0  0  0  0  0  0  0
    0.2121    0.1808   -0.1927 C   0  0  0  0  0  0  0  0  0  0  0  0
    0.3290    1.6635   -0.3215 C   0  0  0  0  0  0  0  0  0  0  0  0
    1.1696    1.9190   -1.4247 O   0  0  0  0  0  0  0  0  0  0  0  0
   -0.3256   -0.4395   -1.3085 O   0  0  0  0  0  0  0  0  0  0  0  0
   -1.1645   -0.4622   -0.2265 C   0  0  0  0  0  0  0  0  0  0  0  0
   -1.3653   -1.7950    0.4064 C   0  0  0  0  0  0  0  0  0  0  0  0
   -2.2837    0.5283   -0.0784 C   0  0  0  0  0  0  0  0  0  0  0  0
    2.7242    0.5057   -0.3999 H   0  0  0  0  0  0  0  0  0  0  0  0
    3.3211   -0.4105    1.0861 H   0  0  0  0  0  0  0  0  0  0  0  0
    2.8716   -1.2796   -0.3907 H   0  0  0  0  0  0  0  0  0  0  0  0
    0.9545   -1.6317    0.7458 H   0  0  0  0  0  0  0  0  0  0  0  0
    1.1209   -0.1307    1.7061 H   0  0  0  0  0  0  0  0  0  0  0  0
    0.8231    2.1462    0.5430 H   0  0  0  0  0  0  0  0  0  0  0  0
   -0.6280    2.1442   -0.5386 H   0  0  0  0  0  0  0  0  0  0  0  0
    0.6439    2.2145   -2.2075 H   0  0  0  0  0  0  0  0  0  0  0  0
   -2.4776   -1.9646    0.4974 H   0  0  0  0  0  0  0  0  0  0  0  0
   -1.0050   -2.5992   -0.2537 H   0  0  0  0  0  0  0  0  0  0  0  0
   -0.9539   -1.8406    1.4331 H   0  0  0  0  0  0  0  0  0  0  0  0
   -3.2402   -0.0435    0.0650 H   0  0  0  0  0  0  0  0  0  0  0  0
   -2.4001    1.1941   -0.9412 H   0  0  0  0  0  0  0  0  0  0  0  0
   -2.1277    1.0700    0.8786 H   0  0  0  0  0  0  0  0  0  0  0  0
  1  2  1  0
  2  3  1  0
  3  4  1  0
  4  5  1  0
  3  6  1  0
  6  7  1  0
  7  8  1  0
  7  9  1  0
  7  3  1  0
  1 10  1  0
  1 11  1  0
  1 12  1  0
  2 13  1  0
  2 14  1  0
  4 15  1  0
  4 16  1  0
  5 17  1  0
  8 18  1  0
  8 19  1  0
  8 20  1  0
  9 21  1  0
  9 22  1  0
  9 23  1  0
M  END
