
     RDKit          3D

 23 24  0  0  0  0  0  0  0  0999 V2000
    2.7528    0.2318    0.3795 C   0  0  0  0  0  0  0  0  0  0  0  0
    1.8665   -0.9061    0.7646 C   0  0  0  0  0  0  0  0  0  0  0  0
    0.4185   -0.6742    0.4900 C   0  0  0  0  0  0  0  0  0  0  0  0
    0.2203   -0.4387   -0.9812 C   0  0  0  0  0  0  0  0  0  0  0  0
   -0.9634    0.4914   -0.9990 C   0  0  0  0  0  0  0  0  0  0  0  0
   -2.2266   -0.2395   -0.6807 C   0  0  0  0  0  0  0  0  0  0  0  0
   -2.4562    0.7229    0.4556 C   0  0  0  0  0  0  0  0  0  0  0  0
   -0.9733    1.0731    0.3718 C   0  0  0  0  0  0  0  0  0  0  0  0
   -0.1488    0.3505    1.1823 O   0  0  0  0  0  0  0  0  0  0  0  0
    3.1965    0.1028   -0.6413 H   0  0  0  0  0  0  0  0  0  0  0  0
    3.6331    0.2152    1.0785 H   0  0  0  0  0  0  0  0  0  0  0  0
    2.2876    1.2120    0.4916 H   0  0  0  0  0  0  0  0  0  0  0  0
    2.1821   -1.8098    0.1892 H   0  0  0  0  0  0  0  0  0  0  0  0
    1.9810   -1.1710    1.8347 H   0  0  0  0  0  0  0  0  0  0  0  0
   -0.1269   -1.6121    0.7439 H   0  0  0  0  0  0  0  0  0  0  0  0
   -0.0785   -1.3715   -1.5001 H   0  0  0  0  0  0  0  0  0  0  0  0
    1.0885    0.0552   -1.4435 H   0  0  0  0  0  0  0  0  0  0  0  0
   -0.9931    1.2467   -1.7829 H   0  0  0  0  0  0  0  0  0  0  0  0
   -2.9756   -0.2143   -1.4896 H   0  0  0  0  0  0  0  0  0  0  0  0
   -2.0702   -1.3029   -0.3636 H   0  0  0  0  0  0  0  0  0  0  0  0
   -3.0634    1.5870    0.0764 H   0  0  0  0  0  0  0  0  0  0  0  0
   -2.7830    0.2916    1.4027 H   0  0  0  0  0  0  0  0  0  0  0  0
   -0.7678    2.1602    0.4211 H   0  0  0  0  0  0  0  0  0  0  0  0
  1  2  1  0
  2  3  1  0
  3  4  1  0
  4  5  1  0
  5  6  1  0
  6  7  1  0
  7  8  1  0
  8  9  1  0
  9  3  1  0
  8  5  1  0
  1 10  1  0
  1 11  1  0
  1 12  1  0
  2 13  1  0
  2 14  1  0
  3 15  1  0
  4 16  1  0
  4 17  1  0
  5 18  1  0
  6 19  1  0
  6 20  1  0
  7 21  1  0
  7 22  1  0
  8 23  1  0
M  END
