
     RDKit          3D

 21 22  0  0  0  0  0  0  0  0999 V2000
    2.4471    0.1823    0.1632 C   0  0  0  0  0  0  0  0  0  0  0  0
    1.3689    0.0621   -0.8787 C   0  0  0  0  0  0  0  0  0  0  0  0
    0.0378   -0.3320   -0.3361 C   0  0  0  0  0  0  0  0  0  0  0  0
   -0.2011   -1.5805    0.3821 C   0  0  0  0  0  0  0  0  0  0  0  0
   -0.3426   -0.2654    1.0620 C   0  0  0  0  0  0  0  0  0  0  0  0
   -1.6084    0.4979    0.7419 C   0  0  0  0  0  0  0  0  0  0  0  0
   -2.7764   -0.2431    0.9863 O   0  0  0  0  0  0  0  0  0  0  0  0
   -1.1782    0.4828   -0.7151 C   0  0  0  0  0  0  0  0  0  0  0  0
   -0.8488    1.7303   -1.2267 O   0  0  0  0  0  0  0  0  0  0  0  0
    2.2480    0.9894    0.8966 H   0  0  0  0  0  0  0  0  0  0  0  0
    2.7290   -0.7776    0.6241 H   0  0  0  0  0  0  0  0  0  0  0  0
    3.3689    0.5234   -0.3959 H   0  0  0  0  0  0  0  0  0  0  0  0
    1.3186    1.0083   -1.4311 H   0  0  0  0  0  0  0  0  0  0  0  0
    1.6942   -0.7297   -1.5909 H   0  0  0  0  0  0  0  0  0  0  0  0
    0.6475   -2.1988    0.7344 H   0  0  0  0  0  0  0  0  0  0  0  0
   -1.1546   -2.1205    0.1080 H   0  0  0  0  0  0  0  0  0  0  0  0
    0.2931    0.0293    1.8957 H   0  0  0  0  0  0  0  0  0  0  0  0
   -1.6997    1.4907    1.1784 H   0  0  0  0  0  0  0  0  0  0  0  0
   -2.8638   -1.0037    0.3603 H   0  0  0  0  0  0  0  0  0  0  0  0
   -1.8413   -0.0882   -1.3933 H   0  0  0  0  0  0  0  0  0  0  0  0
   -1.6382    2.3429   -1.1652 H   0  0  0  0  0  0  0  0  0  0  0  0
  1  2  1  0
  2  3  1  0
  3  4  1  0
  4  5  1  0
  5  6  1  0
  6  7  1  0
  6  8  1  0
  8  9  1  0
  5  3  1  0
  8  3  1  0
  1 10  1  0
  1 11  1  0
  1 12  1  0
  2 13  1  0
  2 14  1  0
  4 15  1  0
  4 16  1  0
  5 17  1  0
  6 18  1  0
  7 19  1  0
  8 20  1  0
  9 21  1  0
M  END
