
     RDKit          3D

 21 21  0  0  0  0  0  0  0  0999 V2000
    2.5582    0.4755   -0.2363 C   0  0  0  0  0  0  0  0  0  0  0  0
    1.5239    0.5222    0.8843 C   0  0  0  0  0  0  0  0  0  0  0  0
    0.4706   -0.4976    0.5535 C   0  0  0  0  0  0  0  0  0  0  0  0
   -0.1442   -0.1134   -0.7911 C   0  0  0  0  0  0  0  0  0  0  0  0
   -1.6049   -0.2818   -0.5034 C   0  0  0  0  0  0  0  0  0  0  0  0
   -2.2905    0.9527   -0.1034 C   0  0  0  0  0  0  0  0  0  0  0  0
   -1.9610    2.0855   -0.3964 O   0  0  0  0  0  0  0  0  0  0  0  0
   -1.5741   -1.1759    0.7363 C   0  0  0  0  0  0  0  0  0  0  0  0
   -0.5559   -0.5503    1.4630 O   0  0  0  0  0  0  0  0  0  0  0  0
    3.4046   -0.1994    0.0145 H   0  0  0  0  0  0  0  0  0  0  0  0
    2.9625    1.4779   -0.4231 H   0  0  0  0  0  0  0  0  0  0  0  0
    2.0722    0.1217   -1.1599 H   0  0  0  0  0  0  0  0  0  0  0  0
    1.0554    1.5434    0.8480 H   0  0  0  0  0  0  0  0  0  0  0  0
    1.9713    0.3840    1.8741 H   0  0  0  0  0  0  0  0  0  0  0  0
    0.9291   -1.5025    0.4912 H   0  0  0  0  0  0  0  0  0  0  0  0
    0.1394   -0.8831   -1.5377 H   0  0  0  0  0  0  0  0  0  0  0  0
    0.1555    0.8935   -1.0844 H   0  0  0  0  0  0  0  0  0  0  0  0
   -2.1762   -0.7430   -1.3282 H   0  0  0  0  0  0  0  0  0  0  0  0
   -3.1761    0.8391    0.5129 H   0  0  0  0  0  0  0  0  0  0  0  0
   -1.2237   -2.1649    0.3938 H   0  0  0  0  0  0  0  0  0  0  0  0
   -2.5362   -1.1836    1.2475 H   0  0  0  0  0  0  0  0  0  0  0  0
  1  2  1  0
  2  3  1  0
  3  4  1  0
  4  5  1  0
  5  6  1  0
  6  7  2  0
  5  8  1  0
  8  9  1  0
  9  3  1  0
  1 10  1  0
  1 11  1  0
  1 12  1  0
  2 13  1  0
  2 14  1  0
  3 15  1  0
  4 16  1  0
  4 17  1  0
  5 18  1  0
  6 19  1  0
  8 20  1  0
  8 21  1  0
M  END
