
     RDKit          3D

 21 22  0  0  0  0  0  0  0  0999 V2000
    2.1799   -0.2990   -0.4275 C   0  0  0  0  0  0  0  0  0  0  0  0
    0.8014   -0.5225   -1.0618 C   0  0  0  0  0  0  0  0  0  0  0  0
   -0.2006   -0.0801   -0.2385 C   0  0  0  0  0  0  0  0  0  0  0  0
   -1.6885   -0.1428   -0.5438 C   0  0  0  0  0  0  0  0  0  0  0  0
   -1.6099    0.5111    0.8063 C   0  0  0  0  0  0  0  0  0  0  0  0
   -0.5652   -0.5316    1.1237 C   0  0  0  0  0  0  0  0  0  0  0  0
   -1.0207   -1.8275    1.2207 O   0  0  0  0  0  0  0  0  0  0  0  0
   -0.4763    1.3140    0.2198 C   0  0  0  0  0  0  0  0  0  0  0  0
    0.4008    1.8710    1.1114 O   0  0  0  0  0  0  0  0  0  0  0  0
    2.9790   -0.7688   -1.0005 H   0  0  0  0  0  0  0  0  0  0  0  0
    2.1367   -0.7744    0.5820 H   0  0  0  0  0  0  0  0  0  0  0  0
    2.3978    0.7676   -0.2876 H   0  0  0  0  0  0  0  0  0  0  0  0
    0.7560   -1.5997   -1.2882 H   0  0  0  0  0  0  0  0  0  0  0  0
    0.8460    0.0009   -2.0359 H   0  0  0  0  0  0  0  0  0  0  0  0
   -2.0128    0.5680   -1.3099 H   0  0  0  0  0  0  0  0  0  0  0  0
   -2.0928   -1.1589   -0.5823 H   0  0  0  0  0  0  0  0  0  0  0  0
   -2.3516    0.8298    1.3882 H   0  0  0  0  0  0  0  0  0  0  0  0
    0.1687   -0.2582    1.8957 H   0  0  0  0  0  0  0  0  0  0  0  0
   -0.7500   -2.3825    0.4290 H   0  0  0  0  0  0  0  0  0  0  0  0
   -0.8438    1.9375   -0.6052 H   0  0  0  0  0  0  0  0  0  0  0  0
    0.9459    2.5463    0.6042 H   0  0  0  0  0  0  0  0  0  0  0  0
  1  2  1  0
  2  3  1  0
  3  4  1  0
  4  5  1  0
  5  6  1  0
  6  7  1  0
  5  8  1  0
  8  9  1  0
  6  3  1  0
  8  3  1  0
  1 10  1  0
  1 11  1  0
  1 12  1  0
  2 13  1  0
  2 14  1  0
  4 15  1  0
  4 16  1  0
  5 17  1  0
  6 18  1  0
  7 19  1  0
  8 20  1  0
  9 21  1  0
M  END
