
     RDKit          3D

 23 23  0  0  0  0  0  0  0  0999 V2000
    2.8748    0.7683   -0.3836 C   0  0  0  0  0  0  0  0  0  0  0  0
    1.5599    0.7573    0.3851 C   0  0  0  0  0  0  0  0  0  0  0  0
    0.8596   -0.5750    0.2804 C   0  0  0  0  0  0  0  0  0  0  0  0
    1.6206   -1.6376    0.7867 O   0  0  0  0  0  0  0  0  0  0  0  0
    0.0970   -0.8999   -0.9662 C   0  0  0  0  0  0  0  0  0  0  0  0
   -0.5935   -0.7002    0.3652 C   0  0  0  0  0  0  0  0  0  0  0  0
   -1.5020    0.5069    0.4278 C   0  0  0  0  0  0  0  0  0  0  0  0
   -2.9500    0.0685    0.5099 C   0  0  0  0  0  0  0  0  0  0  0  0
   -1.3765    1.2915   -0.7180 O   0  0  0  0  0  0  0  0  0  0  0  0
    2.8787   -0.1656   -0.9966 H   0  0  0  0  0  0  0  0  0  0  0  0
    2.9737    1.6628   -1.0138 H   0  0  0  0  0  0  0  0  0  0  0  0
    3.7012    0.6518    0.3474 H   0  0  0  0  0  0  0  0  0  0  0  0
    0.9174    1.5561   -0.0888 H   0  0  0  0  0  0  0  0  0  0  0  0
    1.7518    1.0335    1.4297 H   0  0  0  0  0  0  0  0  0  0  0  0
    1.3769   -2.4954    0.3837 H   0  0  0  0  0  0  0  0  0  0  0  0
   -0.0366   -0.1307   -1.7581 H   0  0  0  0  0  0  0  0  0  0  0  0
    0.0479   -1.9300   -1.3484 H   0  0  0  0  0  0  0  0  0  0  0  0
   -1.0124   -1.5917    0.8865 H   0  0  0  0  0  0  0  0  0  0  0  0
   -1.2731    1.1608    1.2983 H   0  0  0  0  0  0  0  0  0  0  0  0
   -3.0153   -0.8911   -0.0562 H   0  0  0  0  0  0  0  0  0  0  0  0
   -3.2491   -0.1699    1.5649 H   0  0  0  0  0  0  0  0  0  0  0  0
   -3.6402    0.8001    0.0509 H   0  0  0  0  0  0  0  0  0  0  0  0
   -2.0105    0.9295   -1.3868 H   0  0  0  0  0  0  0  0  0  0  0  0
  1  2  1  0
  2  3  1  0
  3  4  1  0
  3  5  1  0
  5  6  1  0
  6  7  1  0
  7  8  1  0
  7  9  1  0
  6  3  1  0
  1 10  1  0
  1 11  1  0
  1 12  1  0
  2 13  1  0
  2 14  1  0
  4 15  1  0
  5 16  1  0
  5 17  1  0
  6 18  1  0
  7 19  1  0
  8 20  1  0
  8 21  1  0
  8 22  1  0
  9 23  1  0
M  END
