
     RDKit          3D

 16 17  0  0  0  0  0  0  0  0999 V2000
    2.0350    0.4327   -0.2895 C   0  0  0  0  0  0  0  0  0  0  0  0
    0.8752   -0.5247   -0.6245 C   0  0  0  0  0  0  0  0  0  0  0  0
   -0.2425   -0.1903    0.1171 C   0  0  0  0  0  0  0  0  0  0  0  0
   -1.5831   -0.8303    0.1246 C   0  0  0  0  0  0  0  0  0  0  0  0
   -1.5669    0.2208    1.1937 C   0  0  0  0  0  0  0  0  0  0  0  0
   -0.3132   -0.2846    1.5199 O   0  0  0  0  0  0  0  0  0  0  0  0
   -0.8868    1.0872    0.2663 C   0  0  0  0  0  0  0  0  0  0  0  0
   -0.8865    2.2043   -0.1222 O   0  0  0  0  0  0  0  0  0  0  0  0
    2.0748    0.4390    0.8264 H   0  0  0  0  0  0  0  0  0  0  0  0
    1.7050    1.4387   -0.5986 H   0  0  0  0  0  0  0  0  0  0  0  0
    2.9749    0.0999   -0.7470 H   0  0  0  0  0  0  0  0  0  0  0  0
    1.2306   -1.5631   -0.4422 H   0  0  0  0  0  0  0  0  0  0  0  0
    0.7212   -0.4433   -1.7095 H   0  0  0  0  0  0  0  0  0  0  0  0
   -2.2483   -0.6682   -0.7227 H   0  0  0  0  0  0  0  0  0  0  0  0
   -1.5819   -1.8407    0.5736 H   0  0  0  0  0  0  0  0  0  0  0  0
   -2.3077    0.4226    1.8479 H   0  0  0  0  0  0  0  0  0  0  0  0
  1  2  1  0
  2  3  1  0
  3  4  1  0
  4  5  1  0
  5  6  1  0
  5  7  1  0
  7  8  2  0
  6  3  1  0
  7  3  1  0
  1  9  1  0
  1 10  1  0
  1 11  1  0
  2 12  1  0
  2 13  1  0
  4 14  1  0
  4 15  1  0
  5 16  1  0
M  END
