
     RDKit          3D

 20 20  0  0  0  0  0  0  0  0999 V2000
   -2.3351    0.1965    0.2980 C   0  0  0  0  0  0  0  0  0  0  0  0
   -1.0935   -0.6546    0.3141 C   0  0  0  0  0  0  0  0  0  0  0  0
    0.0054   -0.1164   -0.5580 C   0  0  0  0  0  0  0  0  0  0  0  0
   -0.3571   -0.0157   -1.8895 O   0  0  0  0  0  0  0  0  0  0  0  0
    0.6148    1.1585   -0.0150 C   0  0  0  0  0  0  0  0  0  0  0  0
    1.7388    0.7114    0.8394 C   0  0  0  0  0  0  0  0  0  0  0  0
    2.0627   -0.5451    0.6025 C   0  0  0  0  0  0  0  0  0  0  0  0
    1.1728   -1.0748   -0.4528 C   0  0  0  0  0  0  0  0  0  0  0  0
   -2.9012    0.1609    1.2550 H   0  0  0  0  0  0  0  0  0  0  0  0
   -2.1166    1.2777    0.1248 H   0  0  0  0  0  0  0  0  0  0  0  0
   -3.0175   -0.1271   -0.5352 H   0  0  0  0  0  0  0  0  0  0  0  0
   -0.7008   -0.6670    1.3579 H   0  0  0  0  0  0  0  0  0  0  0  0
   -1.3211   -1.6813    0.0163 H   0  0  0  0  0  0  0  0  0  0  0  0
   -0.2884    0.9158   -2.2179 H   0  0  0  0  0  0  0  0  0  0  0  0
   -0.1012    1.7088    0.6550 H   0  0  0  0  0  0  0  0  0  0  0  0
    1.0272    1.8064   -0.8102 H   0  0  0  0  0  0  0  0  0  0  0  0
    2.2392    1.3453    1.5765 H   0  0  0  0  0  0  0  0  0  0  0  0
    2.8620   -1.1289    1.0973 H   0  0  0  0  0  0  0  0  0  0  0  0
    1.6929   -1.1529   -1.4437 H   0  0  0  0  0  0  0  0  0  0  0  0
    0.8166   -2.1175   -0.2144 H   0  0  0  0  0  0  0  0  0  0  0  0
  1  2  1  0
  2  3  1  0
  3  4  1  0
  3  5  1  0
  5  6  1  0
  6  7  2  0
  7  8  1  0
  8  3  1  0
  1  9  1  0
  1 10  1  0
  1 11  1  0
  2 12  1  0
  2 13  1  0
  4 14  1  0
  5 15  1  0
  5 16  1  0
  6 17  1  0
  7 18  1  0
  8 19  1  0
  8 20  1  0
M  END
