
     RDKit          3D

 20 21  0  0  0  0  0  0  0  0999 V2000
    2.6056   -0.4386    0.3703 C   0  0  0  0  0  0  0  0  0  0  0  0
    1.6750    0.7676    0.1717 C   0  0  0  0  0  0  0  0  0  0  0  0
    0.3540    0.3699    0.1102 C   0  0  0  0  0  0  0  0  0  0  0  0
   -0.8481    1.2268   -0.0733 C   0  0  0  0  0  0  0  0  0  0  0  0
   -1.3197   -0.1962    0.1002 C   0  0  0  0  0  0  0  0  0  0  0  0
   -2.6183   -0.6398    0.1375 C   0  0  0  0  0  0  0  0  0  0  0  0
   -0.2377   -0.5946   -0.8628 C   0  0  0  0  0  0  0  0  0  0  0  0
   -0.3530   -0.2996    1.0981 O   0  0  0  0  0  0  0  0  0  0  0  0
    2.8003   -0.8967   -0.6154 H   0  0  0  0  0  0  0  0  0  0  0  0
    2.0183   -1.1595    0.9740 H   0  0  0  0  0  0  0  0  0  0  0  0
    3.5311   -0.1401    0.8986 H   0  0  0  0  0  0  0  0  0  0  0  0
    1.9147    1.4449    1.0207 H   0  0  0  0  0  0  0  0  0  0  0  0
    2.0292    1.2966   -0.7363 H   0  0  0  0  0  0  0  0  0  0  0  0
   -1.1356    1.9068    0.7247 H   0  0  0  0  0  0  0  0  0  0  0  0
   -0.9410    1.5963   -1.1170 H   0  0  0  0  0  0  0  0  0  0  0  0
   -3.3983    0.1743    0.2173 H   0  0  0  0  0  0  0  0  0  0  0  0
   -2.9494   -1.2327   -0.7614 H   0  0  0  0  0  0  0  0  0  0  0  0
   -2.8653   -1.3198    1.0063 H   0  0  0  0  0  0  0  0  0  0  0  0
   -0.3992   -0.2320   -1.8951 H   0  0  0  0  0  0  0  0  0  0  0  0
    0.1376   -1.6335   -0.7683 H   0  0  0  0  0  0  0  0  0  0  0  0
  1  2  1  0
  2  3  1  0
  3  4  1  0
  4  5  1  0
  5  6  1  0
  5  7  1  0
  5  8  1  0
  7  3  1  0
  8  3  1  0
  1  9  1  0
  1 10  1  0
  1 11  1  0
  2 12  1  0
  2 13  1  0
  4 14  1  0
  4 15  1  0
  6 16  1  0
  6 17  1  0
  6 18  1  0
  7 19  1  0
  7 20  1  0
M  END
