
     RDKit          3D

 22 22  0  0  0  0  0  0  0  0999 V2000
    2.6999   -0.2847    0.1875 C   0  0  0  0  0  0  0  0  0  0  0  0
    1.4530   -0.8411   -0.4913 C   0  0  0  0  0  0  0  0  0  0  0  0
    0.2590   -0.2382    0.1722 C   0  0  0  0  0  0  0  0  0  0  0  0
    0.2685    1.2694    0.0476 C   0  0  0  0  0  0  0  0  0  0  0  0
   -1.2265    1.2064   -0.1714 C   0  0  0  0  0  0  0  0  0  0  0  0
   -1.8964    1.3918    1.0211 O   0  0  0  0  0  0  0  0  0  0  0  0
   -1.0307   -0.2642   -0.5603 C   0  0  0  0  0  0  0  0  0  0  0  0
   -2.0423   -1.1884    0.1234 C   0  0  0  0  0  0  0  0  0  0  0  0
    3.2996   -1.0942    0.6532 H   0  0  0  0  0  0  0  0  0  0  0  0
    3.3093    0.3298   -0.5131 H   0  0  0  0  0  0  0  0  0  0  0  0
    2.4305    0.4066    1.0270 H   0  0  0  0  0  0  0  0  0  0  0  0
    1.4821   -1.9371   -0.4656 H   0  0  0  0  0  0  0  0  0  0  0  0
    1.4641   -0.5293   -1.5736 H   0  0  0  0  0  0  0  0  0  0  0  0
    0.1705   -0.6101    1.2196 H   0  0  0  0  0  0  0  0  0  0  0  0
    0.5951    1.7160    1.0023 H   0  0  0  0  0  0  0  0  0  0  0  0
    0.8483    1.6683   -0.7905 H   0  0  0  0  0  0  0  0  0  0  0  0
   -1.5119    1.8564   -1.0118 H   0  0  0  0  0  0  0  0  0  0  0  0
   -2.7872    1.7931    0.8563 H   0  0  0  0  0  0  0  0  0  0  0  0
   -1.0158   -0.3474   -1.6430 H   0  0  0  0  0  0  0  0  0  0  0  0
   -2.9919   -0.6691    0.3003 H   0  0  0  0  0  0  0  0  0  0  0  0
   -2.1377   -2.1000   -0.5041 H   0  0  0  0  0  0  0  0  0  0  0  0
   -1.6392   -1.5341    1.1142 H   0  0  0  0  0  0  0  0  0  0  0  0
  1  2  1  0
  2  3  1  0
  3  4  1  0
  4  5  1  0
  5  6  1  0
  5  7  1  0
  7  8  1  0
  7  3  1  0
  1  9  1  0
  1 10  1  0
  1 11  1  0
  2 12  1  0
  2 13  1  0
  3 14  1  0
  4 15  1  0
  4 16  1  0
  5 17  1  0
  6 18  1  0
  7 19  1  0
  8 20  1  0
  8 21  1  0
  8 22  1  0
M  END
