
     RDKit          3D

 25 25  0  0  0  0  0  0  0  0999 V2000
   -1.6660   -1.5840   -0.3318 C   0  0  0  0  0  0  0  0  0  0  0  0
   -1.6223   -0.1827    0.2215 C   0  0  0  0  0  0  0  0  0  0  0  0
   -0.8085    0.7029   -0.6159 C   0  0  0  0  0  0  0  0  0  0  0  0
   -0.8170    2.1156    0.0059 C   0  0  0  0  0  0  0  0  0  0  0  0
    0.5555    1.7301    0.5801 C   0  0  0  0  0  0  0  0  0  0  0  0
    0.6479    0.7843   -0.5873 C   0  0  0  0  0  0  0  0  0  0  0  0
    1.5485   -0.3628   -0.4958 C   0  0  0  0  0  0  0  0  0  0  0  0
    1.4693   -1.2591    0.6693 C   0  0  0  0  0  0  0  0  0  0  0  0
    1.4580   -1.0880   -1.7070 O   0  0  0  0  0  0  0  0  0  0  0  0
   -2.7283   -1.8892   -0.4100 H   0  0  0  0  0  0  0  0  0  0  0  0
   -1.2224   -2.2696    0.4283 H   0  0  0  0  0  0  0  0  0  0  0  0
   -1.1881   -1.6773   -1.3268 H   0  0  0  0  0  0  0  0  0  0  0  0
   -2.6838    0.2076    0.1642 H   0  0  0  0  0  0  0  0  0  0  0  0
   -1.4068   -0.1603    1.3058 H   0  0  0  0  0  0  0  0  0  0  0  0
   -1.2663    0.7916   -1.6457 H   0  0  0  0  0  0  0  0  0  0  0  0
   -0.7448    2.8954   -0.7551 H   0  0  0  0  0  0  0  0  0  0  0  0
   -1.5307    2.2615    0.8180 H   0  0  0  0  0  0  0  0  0  0  0  0
    0.5256    1.2972    1.5738 H   0  0  0  0  0  0  0  0  0  0  0  0
    1.2095    2.6241    0.5306 H   0  0  0  0  0  0  0  0  0  0  0  0
    0.9848    1.4163   -1.4754 H   0  0  0  0  0  0  0  0  0  0  0  0
    2.6047    0.0531   -0.5354 H   0  0  0  0  0  0  0  0  0  0  0  0
    0.8547   -0.9167    1.5136 H   0  0  0  0  0  0  0  0  0  0  0  0
    2.4908   -1.4483    1.1195 H   0  0  0  0  0  0  0  0  0  0  0  0
    1.1692   -2.2876    0.3077 H   0  0  0  0  0  0  0  0  0  0  0  0
    2.1665   -1.7541   -1.7926 H   0  0  0  0  0  0  0  0  0  0  0  0
  1  2  1  0
  2  3  1  0
  3  4  1  0
  4  5  1  0
  5  6  1  0
  6  7  1  0
  7  8  1  0
  7  9  1  0
  6  3  1  0
  1 10  1  0
  1 11  1  0
  1 12  1  0
  2 13  1  0
  2 14  1  0
  3 15  1  0
  4 16  1  0
  4 17  1  0
  5 18  1  0
  5 19  1  0
  6 20  1  0
  7 21  1  0
  8 22  1  0
  8 23  1  0
  8 24  1  0
  9 25  1  0
M  END
