
     RDKit          3D

 23 23  0  0  0  0  0  0  0  0999 V2000
    2.6669   -0.2265   -0.5904 C   0  0  0  0  0  0  0  0  0  0  0  0
    1.4743    0.6916   -0.4788 C   0  0  0  0  0  0  0  0  0  0  0  0
    0.3775   -0.0496    0.2475 C   0  0  0  0  0  0  0  0  0  0  0  0
   -0.0811   -1.3212   -0.4413 C   0  0  0  0  0  0  0  0  0  0  0  0
   -1.4767   -0.9777    0.0907 C   0  0  0  0  0  0  0  0  0  0  0  0
   -1.5587   -1.3216    1.4184 O   0  0  0  0  0  0  0  0  0  0  0  0
   -1.0278    0.4861   -0.0274 C   0  0  0  0  0  0  0  0  0  0  0  0
   -1.5860    1.3452    1.0763 C   0  0  0  0  0  0  0  0  0  0  0  0
   -1.2251    0.9387   -1.3080 O   0  0  0  0  0  0  0  0  0  0  0  0
    2.6566   -0.9861    0.2345 H   0  0  0  0  0  0  0  0  0  0  0  0
    3.6059    0.3674   -0.5261 H   0  0  0  0  0  0  0  0  0  0  0  0
    2.6897   -0.7897   -1.5295 H   0  0  0  0  0  0  0  0  0  0  0  0
    1.7733    1.5388    0.1880 H   0  0  0  0  0  0  0  0  0  0  0  0
    1.1584    1.0196   -1.4715 H   0  0  0  0  0  0  0  0  0  0  0  0
    0.5487   -0.2196    1.3093 H   0  0  0  0  0  0  0  0  0  0  0  0
   -0.0093   -1.1785   -1.5585 H   0  0  0  0  0  0  0  0  0  0  0  0
    0.3459   -2.2488   -0.0588 H   0  0  0  0  0  0  0  0  0  0  0  0
   -2.2982   -1.2604   -0.5641 H   0  0  0  0  0  0  0  0  0  0  0  0
   -2.0516   -2.1470    1.6055 H   0  0  0  0  0  0  0  0  0  0  0  0
   -1.3572    0.8649    2.0345 H   0  0  0  0  0  0  0  0  0  0  0  0
   -2.6968    1.3645    0.9333 H   0  0  0  0  0  0  0  0  0  0  0  0
   -1.1850    2.3566    0.9592 H   0  0  0  0  0  0  0  0  0  0  0  0
   -0.7438    1.7533   -1.5427 H   0  0  0  0  0  0  0  0  0  0  0  0
  1  2  1  0
  2  3  1  0
  3  4  1  0
  4  5  1  0
  5  6  1  0
  5  7  1  0
  7  8  1  0
  7  9  1  0
  7  3  1  0
  1 10  1  0
  1 11  1  0
  1 12  1  0
  2 13  1  0
  2 14  1  0
  3 15  1  0
  4 16  1  0
  4 17  1  0
  5 18  1  0
  6 19  1  0
  8 20  1  0
  8 21  1  0
  8 22  1  0
  9 23  1  0
M  END
