
     RDKit          3D

 23 24  0  0  0  0  0  0  0  0999 V2000
    2.5581    0.1069    0.6259 C   0  0  0  0  0  0  0  0  0  0  0  0
    1.1265   -0.2652    1.0282 C   0  0  0  0  0  0  0  0  0  0  0  0
    0.2071   -0.2548   -0.1530 C   0  0  0  0  0  0  0  0  0  0  0  0
    0.4816   -1.1510   -1.2816 C   0  0  0  0  0  0  0  0  0  0  0  0
   -0.6945   -1.4058   -0.4502 C   0  0  0  0  0  0  0  0  0  0  0  0
   -1.9068   -0.9226   -0.8757 O   0  0  0  0  0  0  0  0  0  0  0  0
   -1.7339    0.3823   -1.3031 C   0  0  0  0  0  0  0  0  0  0  0  0
   -0.7296    0.9269   -0.2973 C   0  0  0  0  0  0  0  0  0  0  0  0
   -1.4665    1.0903    1.0096 C   0  0  0  0  0  0  0  0  0  0  0  0
    3.0839    0.3409    1.5758 H   0  0  0  0  0  0  0  0  0  0  0  0
    3.0335   -0.7672    0.1331 H   0  0  0  0  0  0  0  0  0  0  0  0
    2.5083    0.9725   -0.0626 H   0  0  0  0  0  0  0  0  0  0  0  0
    1.1097   -1.3107    1.4420 H   0  0  0  0  0  0  0  0  0  0  0  0
    0.8411    0.4593    1.8115 H   0  0  0  0  0  0  0  0  0  0  0  0
    0.2904   -0.8232   -2.3384 H   0  0  0  0  0  0  0  0  0  0  0  0
    1.3584   -1.8153   -1.1807 H   0  0  0  0  0  0  0  0  0  0  0  0
   -0.7017   -2.1953    0.3477 H   0  0  0  0  0  0  0  0  0  0  0  0
   -2.6774    0.9401   -1.1279 H   0  0  0  0  0  0  0  0  0  0  0  0
   -1.4004    0.4750   -2.3354 H   0  0  0  0  0  0  0  0  0  0  0  0
   -0.2308    1.8353   -0.6365 H   0  0  0  0  0  0  0  0  0  0  0  0
   -1.2870    2.1054    1.4286 H   0  0  0  0  0  0  0  0  0  0  0  0
   -2.5785    0.9774    0.8851 H   0  0  0  0  0  0  0  0  0  0  0  0
   -1.1917    0.2989    1.7547 H   0  0  0  0  0  0  0  0  0  0  0  0
  1  2  1  0
  2  3  1  0
  3  4  1  0
  4  5  1  0
  5  6  1  0
  6  7  1  0
  7  8  1  0
  8  9  1  0
  5  3  1  0
  8  3  1  0
  1 10  1  0
  1 11  1  0
  1 12  1  0
  2 13  1  0
  2 14  1  0
  4 15  1  0
  4 16  1  0
  5 17  1  0
  7 18  1  0
  7 19  1  0
  8 20  1  0
  9 21  1  0
  9 22  1  0
  9 23  1  0
M  END
