
     RDKit          3D

 23 24  0  0  0  0  0  0  0  0999 V2000
    2.5946   -0.2031    0.5819 C   0  0  0  0  0  0  0  0  0  0  0  0
    1.5197   -0.6119   -0.3793 C   0  0  0  0  0  0  0  0  0  0  0  0
    0.2752    0.2593   -0.2469 C   0  0  0  0  0  0  0  0  0  0  0  0
    0.6367    1.7281   -0.5311 C   0  0  0  0  0  0  0  0  0  0  0  0
   -0.6624   -0.0985    0.7334 C   0  0  0  0  0  0  0  0  0  0  0  0
   -1.5999   -1.2116    0.9719 C   0  0  0  0  0  0  0  0  0  0  0  0
   -2.7623   -0.7894    0.3022 O   0  0  0  0  0  0  0  0  0  0  0  0
   -2.3670    0.1979   -0.6333 C   0  0  0  0  0  0  0  0  0  0  0  0
   -0.9374   -0.1539   -0.8263 C   0  0  0  0  0  0  0  0  0  0  0  0
    2.2173   -0.0350    1.5989 H   0  0  0  0  0  0  0  0  0  0  0  0
    3.3094   -1.0650    0.6565 H   0  0  0  0  0  0  0  0  0  0  0  0
    3.2197    0.6462    0.2101 H   0  0  0  0  0  0  0  0  0  0  0  0
    1.2372   -1.6621   -0.1495 H   0  0  0  0  0  0  0  0  0  0  0  0
    1.8806   -0.5543   -1.4033 H   0  0  0  0  0  0  0  0  0  0  0  0
    0.0103    2.3164    0.1756 H   0  0  0  0  0  0  0  0  0  0  0  0
    1.6754    1.9495   -0.3081 H   0  0  0  0  0  0  0  0  0  0  0  0
    0.4250    1.9410   -1.5823 H   0  0  0  0  0  0  0  0  0  0  0  0
   -1.0882    0.8140    1.2627 H   0  0  0  0  0  0  0  0  0  0  0  0
   -1.8701   -1.3094    2.0272 H   0  0  0  0  0  0  0  0  0  0  0  0
   -1.2897   -2.1905    0.5929 H   0  0  0  0  0  0  0  0  0  0  0  0
   -2.5549    1.1981   -0.2389 H   0  0  0  0  0  0  0  0  0  0  0  0
   -2.9674    0.0262   -1.5324 H   0  0  0  0  0  0  0  0  0  0  0  0
   -0.9017   -1.1920   -1.2819 H   0  0  0  0  0  0  0  0  0  0  0  0
  1  2  1  0
  2  3  1  0
  3  4  1  0
  3  5  1  0
  5  6  1  0
  6  7  1  0
  7  8  1  0
  8  9  1  0
  9  3  1  0
  9  5  1  0
  1 10  1  0
  1 11  1  0
  1 12  1  0
  2 13  1  0
  2 14  1  0
  4 15  1  0
  4 16  1  0
  4 17  1  0
  5 18  1  0
  6 19  1  0
  6 20  1  0
  8 21  1  0
  8 22  1  0
  9 23  1  0
M  END
