
     RDKit          3D

 21 22  0  0  0  0  0  0  0  0999 V2000
   -2.6390   -0.0354   -0.8994 C   0  0  0  0  0  0  0  0  0  0  0  0
   -1.9946   -0.5741    0.3521 C   0  0  0  0  0  0  0  0  0  0  0  0
   -0.4774   -0.4163    0.2604 C   0  0  0  0  0  0  0  0  0  0  0  0
    0.3959   -1.4025    0.3059 C   0  0  0  0  0  0  0  0  0  0  0  0
    1.7895   -0.9240    0.1913 C   0  0  0  0  0  0  0  0  0  0  0  0
    1.6506    0.5493    0.4275 C   0  0  0  0  0  0  0  0  0  0  0  0
    1.9987    1.3254   -0.8387 C   0  0  0  0  0  0  0  0  0  0  0  0
    0.6364    1.1900   -1.1883 O   0  0  0  0  0  0  0  0  0  0  0  0
    0.2301    0.8729    0.1062 C   0  0  0  0  0  0  0  0  0  0  0  0
   -2.7036   -0.8005   -1.7001 H   0  0  0  0  0  0  0  0  0  0  0  0
   -3.6996    0.2042   -0.6283 H   0  0  0  0  0  0  0  0  0  0  0  0
   -2.1109    0.8797   -1.2218 H   0  0  0  0  0  0  0  0  0  0  0  0
   -2.3850   -0.0152    1.2218 H   0  0  0  0  0  0  0  0  0  0  0  0
   -2.2254   -1.6479    0.4047 H   0  0  0  0  0  0  0  0  0  0  0  0
    0.0805   -2.4693    0.4195 H   0  0  0  0  0  0  0  0  0  0  0  0
    2.4212   -1.3818    0.9948 H   0  0  0  0  0  0  0  0  0  0  0  0
    2.2451   -1.1378   -0.7859 H   0  0  0  0  0  0  0  0  0  0  0  0
    2.0643    0.9501    1.3538 H   0  0  0  0  0  0  0  0  0  0  0  0
    2.3414    2.3458   -0.6871 H   0  0  0  0  0  0  0  0  0  0  0  0
    2.6008    0.7579   -1.5728 H   0  0  0  0  0  0  0  0  0  0  0  0
   -0.2193    1.7295    0.6481 H   0  0  0  0  0  0  0  0  0  0  0  0
  1  2  1  0
  2  3  1  0
  3  4  2  0
  4  5  1  0
  5  6  1  0
  6  7  1  0
  7  8  1  0
  8  9  1  0
  9  3  1  0
  9  6  1  0
  1 10  1  0
  1 11  1  0
  1 12  1  0
  2 13  1  0
  2 14  1  0
  4 15  1  0
  5 16  1  0
  5 17  1  0
  6 18  1  0
  7 19  1  0
  7 20  1  0
  9 21  1  0
M  END
