
     RDKit          3D

 21 22  0  0  0  0  0  0  0  0999 V2000
    2.6880   -0.0486    0.2299 C   0  0  0  0  0  0  0  0  0  0  0  0
    1.6683    0.0502   -0.8791 C   0  0  0  0  0  0  0  0  0  0  0  0
    0.3265   -0.1371   -0.2535 C   0  0  0  0  0  0  0  0  0  0  0  0
   -0.6362    0.7614   -0.2915 C   0  0  0  0  0  0  0  0  0  0  0  0
   -1.5547    1.9144   -0.4676 C   0  0  0  0  0  0  0  0  0  0  0  0
   -2.6063    0.9645   -0.3730 O   0  0  0  0  0  0  0  0  0  0  0  0
   -1.8291    0.2328    0.4800 C   0  0  0  0  0  0  0  0  0  0  0  0
   -1.6611   -1.2465    0.2257 C   0  0  0  0  0  0  0  0  0  0  0  0
   -0.1401   -1.3441    0.4801 C   0  0  0  0  0  0  0  0  0  0  0  0
    3.5969    0.5528    0.0083 H   0  0  0  0  0  0  0  0  0  0  0  0
    2.2468    0.3716    1.1623 H   0  0  0  0  0  0  0  0  0  0  0  0
    2.9698   -1.0988    0.4012 H   0  0  0  0  0  0  0  0  0  0  0  0
    1.7542    1.0362   -1.3608 H   0  0  0  0  0  0  0  0  0  0  0  0
    1.8503   -0.7060   -1.6703 H   0  0  0  0  0  0  0  0  0  0  0  0
   -1.5143    2.6002    0.4097 H   0  0  0  0  0  0  0  0  0  0  0  0
   -1.5064    2.4415   -1.4229 H   0  0  0  0  0  0  0  0  0  0  0  0
   -1.8085    0.5230    1.5350 H   0  0  0  0  0  0  0  0  0  0  0  0
   -2.2076   -1.8589    0.9706 H   0  0  0  0  0  0  0  0  0  0  0  0
   -1.9012   -1.5205   -0.8014 H   0  0  0  0  0  0  0  0  0  0  0  0
    0.0148   -1.2028    1.5498 H   0  0  0  0  0  0  0  0  0  0  0  0
    0.2499   -2.2852    0.0674 H   0  0  0  0  0  0  0  0  0  0  0  0
  1  2  1  0
  2  3  1  0
  3  4  2  0
  4  5  1  0
  5  6  1  0
  6  7  1  0
  7  8  1  0
  8  9  1  0
  9  3  1  0
  7  4  1  0
  1 10  1  0
  1 11  1  0
  1 12  1  0
  2 13  1  0
  2 14  1  0
  5 15  1  0
  5 16  1  0
  7 17  1  0
  8 18  1  0
  8 19  1  0
  9 20  1  0
  9 21  1  0
M  END
