
     RDKit          3D

 20 21  0  0  0  0  0  0  0  0999 V2000
    2.3913   -0.3519    0.5035 C   0  0  0  0  0  0  0  0  0  0  0  0
    1.4342   -0.3027   -0.6456 C   0  0  0  0  0  0  0  0  0  0  0  0
    0.0900    0.0328   -0.2073 C   0  0  0  0  0  0  0  0  0  0  0  0
   -1.0006    0.1219   -1.2608 C   0  0  0  0  0  0  0  0  0  0  0  0
   -2.1020    0.6633   -0.3254 C   0  0  0  0  0  0  0  0  0  0  0  0
   -1.2947    0.6372    0.9525 C   0  0  0  0  0  0  0  0  0  0  0  0
   -0.5393   -0.6624    0.9401 C   0  0  0  0  0  0  0  0  0  0  0  0
   -0.0889    1.2322    0.5103 O   0  0  0  0  0  0  0  0  0  0  0  0
    2.0321   -1.0146    1.3211 H   0  0  0  0  0  0  0  0  0  0  0  0
    3.4039   -0.6914    0.1349 H   0  0  0  0  0  0  0  0  0  0  0  0
    2.4952    0.6657    0.9480 H   0  0  0  0  0  0  0  0  0  0  0  0
    1.8067    0.5111   -1.3335 H   0  0  0  0  0  0  0  0  0  0  0  0
    1.4292   -1.2173   -1.2384 H   0  0  0  0  0  0  0  0  0  0  0  0
   -1.2727   -0.8563   -1.6625 H   0  0  0  0  0  0  0  0  0  0  0  0
   -0.7529    0.8463   -2.0466 H   0  0  0  0  0  0  0  0  0  0  0  0
   -2.9716    0.0091   -0.3015 H   0  0  0  0  0  0  0  0  0  0  0  0
   -2.2810    1.6969   -0.6143 H   0  0  0  0  0  0  0  0  0  0  0  0
   -1.7242    1.0004    1.8561 H   0  0  0  0  0  0  0  0  0  0  0  0
    0.0734   -0.7663    1.8336 H   0  0  0  0  0  0  0  0  0  0  0  0
   -1.1283   -1.5539    0.6359 H   0  0  0  0  0  0  0  0  0  0  0  0
  1  2  1  0
  2  3  1  0
  3  4  1  0
  4  5  1  0
  5  6  1  0
  6  7  1  0
  6  8  1  0
  7  3  1  0
  8  3  1  0
  1  9  1  0
  1 10  1  0
  1 11  1  0
  2 12  1  0
  2 13  1  0
  4 14  1  0
  4 15  1  0
  5 16  1  0
  5 17  1  0
  6 18  1  0
  7 19  1  0
  7 20  1  0
M  END
