
     RDKit          3D

 23 23  0  0  0  0  0  0  0  0999 V2000
    2.6994   -0.3237   -0.2723 C   0  0  0  0  0  0  0  0  0  0  0  0
    1.5087    0.3293    0.3359 C   0  0  0  0  0  0  0  0  0  0  0  0
    0.2116    0.0135   -0.3903 C   0  0  0  0  0  0  0  0  0  0  0  0
   -0.0916   -1.4161   -0.4124 C   0  0  0  0  0  0  0  0  0  0  0  0
   -1.1944   -1.9156    0.1167 C   0  0  0  0  0  0  0  0  0  0  0  0
   -2.1696   -1.0313    0.7566 C   0  0  0  0  0  0  0  0  0  0  0  0
   -2.1081    0.2469    0.2266 O   0  0  0  0  0  0  0  0  0  0  0  0
   -0.8698    0.8380    0.2765 C   0  0  0  0  0  0  0  0  0  0  0  0
   -0.9799    2.1459   -0.4859 C   0  0  0  0  0  0  0  0  0  0  0  0
    3.4199   -0.6873    0.5172 H   0  0  0  0  0  0  0  0  0  0  0  0
    2.4848   -1.2004   -0.8980 H   0  0  0  0  0  0  0  0  0  0  0  0
    3.3103    0.3714   -0.9008 H   0  0  0  0  0  0  0  0  0  0  0  0
    1.4377   -0.0084    1.4063 H   0  0  0  0  0  0  0  0  0  0  0  0
    1.6862    1.4231    0.3821 H   0  0  0  0  0  0  0  0  0  0  0  0
    0.3443    0.3570   -1.4378 H   0  0  0  0  0  0  0  0  0  0  0  0
    0.5941   -2.1092   -0.8715 H   0  0  0  0  0  0  0  0  0  0  0  0
   -1.3692   -2.9721    0.0740 H   0  0  0  0  0  0  0  0  0  0  0  0
   -3.1903   -1.4211    0.5182 H   0  0  0  0  0  0  0  0  0  0  0  0
   -2.0138   -1.0556    1.8520 H   0  0  0  0  0  0  0  0  0  0  0  0
   -0.5650    1.1244    1.3189 H   0  0  0  0  0  0  0  0  0  0  0  0
   -1.1412    1.8509   -1.5612 H   0  0  0  0  0  0  0  0  0  0  0  0
   -1.9193    2.6798   -0.1624 H   0  0  0  0  0  0  0  0  0  0  0  0
   -0.0848    2.7607   -0.3883 H   0  0  0  0  0  0  0  0  0  0  0  0
  1  2  1  0
  2  3  1  0
  3  4  1  0
  4  5  2  0
  5  6  1  0
  6  7  1  0
  7  8  1  0
  8  9  1  0
  8  3  1  0
  1 10  1  0
  1 11  1  0
  1 12  1  0
  2 13  1  0
  2 14  1  0
  3 15  1  0
  4 16  1  0
  5 17  1  0
  6 18  1  0
  6 19  1  0
  8 20  1  0
  9 21  1  0
  9 22  1  0
  9 23  1  0
M  END
