
     RDKit          3D

 23 23  0  0  0  0  0  0  0  0999 V2000
    2.8328    0.2838   -0.2691 C   0  0  0  0  0  0  0  0  0  0  0  0
    1.4365    0.8171   -0.6113 C   0  0  0  0  0  0  0  0  0  0  0  0
    0.4383   -0.2864   -0.5508 C   0  0  0  0  0  0  0  0  0  0  0  0
    0.3368   -0.9502    0.8201 C   0  0  0  0  0  0  0  0  0  0  0  0
   -0.8133   -0.1794    0.2890 C   0  0  0  0  0  0  0  0  0  0  0  0
   -1.1369    1.1884    0.7773 C   0  0  0  0  0  0  0  0  0  0  0  0
   -2.3068    1.2241    1.5473 O   0  0  0  0  0  0  0  0  0  0  0  0
   -2.0152   -1.0151   -0.1396 C   0  0  0  0  0  0  0  0  0  0  0  0
   -1.7397   -2.3691   -0.1447 O   0  0  0  0  0  0  0  0  0  0  0  0
    2.6776   -0.6646    0.2843 H   0  0  0  0  0  0  0  0  0  0  0  0
    3.4172    0.1058   -1.1954 H   0  0  0  0  0  0  0  0  0  0  0  0
    3.3930    1.0347    0.3199 H   0  0  0  0  0  0  0  0  0  0  0  0
    1.5013    1.3287   -1.5765 H   0  0  0  0  0  0  0  0  0  0  0  0
    1.2144    1.5878    0.1539 H   0  0  0  0  0  0  0  0  0  0  0  0
    0.3262   -0.9374   -1.4448 H   0  0  0  0  0  0  0  0  0  0  0  0
    0.3532   -2.0339    0.7796 H   0  0  0  0  0  0  0  0  0  0  0  0
    0.8789   -0.4950    1.6661 H   0  0  0  0  0  0  0  0  0  0  0  0
   -0.3511    1.6208    1.4478 H   0  0  0  0  0  0  0  0  0  0  0  0
   -1.2500    1.8637   -0.0952 H   0  0  0  0  0  0  0  0  0  0  0  0
   -2.9310    1.9096    1.2222 H   0  0  0  0  0  0  0  0  0  0  0  0
   -2.2382   -0.7432   -1.2141 H   0  0  0  0  0  0  0  0  0  0  0  0
   -2.9189   -0.7353    0.4217 H   0  0  0  0  0  0  0  0  0  0  0  0
   -1.1052   -2.5551   -0.8830 H   0  0  0  0  0  0  0  0  0  0  0  0
  1  2  1  0
  2  3  1  0
  3  4  1  0
  4  5  1  0
  5  6  1  0
  6  7  1  0
  5  8  1  0
  8  9  1  0
  5  3  1  0
  1 10  1  0
  1 11  1  0
  1 12  1  0
  2 13  1  0
  2 14  1  0
  3 15  1  0
  4 16  1  0
  4 17  1  0
  6 18  1  0
  6 19  1  0
  7 20  1  0
  8 21  1  0
  8 22  1  0
  9 23  1  0
M  END
