
     RDKit          3D

 23 24  0  0  0  0  0  0  0  0999 V2000
   -2.9259   -0.4143   -0.3291 C   0  0  0  0  0  0  0  0  0  0  0  0
   -1.9484    0.7251   -0.3083 C   0  0  0  0  0  0  0  0  0  0  0  0
   -0.6216    0.3378    0.2830 C   0  0  0  0  0  0  0  0  0  0  0  0
    0.3533    1.4913    0.2989 C   0  0  0  0  0  0  0  0  0  0  0  0
    1.3042    1.2125   -0.7025 O   0  0  0  0  0  0  0  0  0  0  0  0
    1.5007   -0.1218   -0.5371 C   0  0  0  0  0  0  0  0  0  0  0  0
    2.3056   -0.4701    0.7422 C   0  0  0  0  0  0  0  0  0  0  0  0
    2.7154   -0.8670   -0.6345 C   0  0  0  0  0  0  0  0  0  0  0  0
    0.1089   -0.6903   -0.5568 C   0  0  0  0  0  0  0  0  0  0  0  0
   -2.7043   -1.0725    0.5329 H   0  0  0  0  0  0  0  0  0  0  0  0
   -2.8897   -0.9980   -1.2717 H   0  0  0  0  0  0  0  0  0  0  0  0
   -3.9491    0.0210   -0.2762 H   0  0  0  0  0  0  0  0  0  0  0  0
   -1.7698    1.1486   -1.3318 H   0  0  0  0  0  0  0  0  0  0  0  0
   -2.3773    1.5148    0.3419 H   0  0  0  0  0  0  0  0  0  0  0  0
   -0.7762   -0.1067    1.2816 H   0  0  0  0  0  0  0  0  0  0  0  0
    0.9309    1.4002    1.2656 H   0  0  0  0  0  0  0  0  0  0  0  0
   -0.1115    2.4663    0.1730 H   0  0  0  0  0  0  0  0  0  0  0  0
    1.8417   -1.1939    1.4364 H   0  0  0  0  0  0  0  0  0  0  0  0
    2.8458    0.3491    1.2368 H   0  0  0  0  0  0  0  0  0  0  0  0
    3.6250   -0.3913   -1.0151 H   0  0  0  0  0  0  0  0  0  0  0  0
    2.6543   -1.9523   -0.9060 H   0  0  0  0  0  0  0  0  0  0  0  0
    0.1178   -1.6915   -0.1043 H   0  0  0  0  0  0  0  0  0  0  0  0
   -0.2297   -0.6969   -1.6081 H   0  0  0  0  0  0  0  0  0  0  0  0
  1  2  1  0
  2  3  1  0
  3  4  1  0
  4  5  1  0
  5  6  1  0
  6  7  1  0
  7  8  1  0
  6  9  1  0
  9  3  1  0
  8  6  1  0
  1 10  1  0
  1 11  1  0
  1 12  1  0
  2 13  1  0
  2 14  1  0
  3 15  1  0
  4 16  1  0
  4 17  1  0
  7 18  1  0
  7 19  1  0
  8 20  1  0
  8 21  1  0
  9 22  1  0
  9 23  1  0
M  END
