
     RDKit          3D

 18 18  0  0  0  0  0  0  0  0999 V2000
    2.1731   -0.7253   -0.4421 C   0  0  0  0  0  0  0  0  0  0  0  0
    1.4640    0.3953    0.3229 C   0  0  0  0  0  0  0  0  0  0  0  0
    0.0328    0.5782   -0.1120 C   0  0  0  0  0  0  0  0  0  0  0  0
   -0.6899    1.6441    0.6725 C   0  0  0  0  0  0  0  0  0  0  0  0
   -1.6981    1.3882    1.3804 O   0  0  0  0  0  0  0  0  0  0  0  0
   -0.3520    0.3527   -1.3672 O   0  0  0  0  0  0  0  0  0  0  0  0
   -0.7884   -0.6108   -0.4745 C   0  0  0  0  0  0  0  0  0  0  0  0
   -2.2605   -0.5867   -0.0953 C   0  0  0  0  0  0  0  0  0  0  0  0
    3.3017   -0.5035   -0.2301 H   0  0  0  0  0  0  0  0  0  0  0  0
    2.0643   -0.7087   -1.5235 H   0  0  0  0  0  0  0  0  0  0  0  0
    2.0441   -1.7193   -0.0393 H   0  0  0  0  0  0  0  0  0  0  0  0
    2.0282    1.2601    0.5264 H   0  0  0  0  0  0  0  0  0  0  0  0
    1.3277   -0.1840    1.3679 H   0  0  0  0  0  0  0  0  0  0  0  0
   -0.3983    2.6855    0.6783 H   0  0  0  0  0  0  0  0  0  0  0  0
   -0.3366   -1.5908   -0.5615 H   0  0  0  0  0  0  0  0  0  0  0  0
   -2.6466    0.4401   -0.0849 H   0  0  0  0  0  0  0  0  0  0  0  0
   -2.8833   -1.0836   -0.9066 H   0  0  0  0  0  0  0  0  0  0  0  0
   -2.3820   -1.0316    0.8886 H   0  0  0  0  0  0  0  0  0  0  0  0
  1  2  1  0
  2  3  1  0
  3  4  1  0
  4  5  2  0
  3  6  1  0
  6  7  1  0
  7  8  1  0
  7  3  1  0
  1  9  1  0
  1 10  1  0
  1 11  1  0
  2 12  1  0
  2 13  1  0
  4 14  1  0
  7 15  1  0
  8 16  1  0
  8 17  1  0
  8 18  1  0
M  END
