
     RDKit          3D

 23 24  0  0  0  0  0  0  0  0999 V2000
    2.7917    0.0683   -0.2472 C   0  0  0  0  0  0  0  0  0  0  0  0
    1.4120    0.6532   -0.0198 C   0  0  0  0  0  0  0  0  0  0  0  0
    0.3283   -0.3803   -0.2437 C   0  0  0  0  0  0  0  0  0  0  0  0
   -1.0839    0.0815   -0.0480 C   0  0  0  0  0  0  0  0  0  0  0  0
   -2.2224   -0.8839   -0.2518 C   0  0  0  0  0  0  0  0  0  0  0  0
   -1.3184    1.0810    1.0862 C   0  0  0  0  0  0  0  0  0  0  0  0
   -1.4501    1.5294   -0.3234 C   0  0  0  0  0  0  0  0  0  0  0  0
    0.6805   -1.7548    0.1281 C   0  0  0  0  0  0  0  0  0  0  0  0
    0.6337   -1.2899   -1.2349 O   0  0  0  0  0  0  0  0  0  0  0  0
    2.7985   -0.7150   -1.0158 H   0  0  0  0  0  0  0  0  0  0  0  0
    3.4261    0.8971   -0.6258 H   0  0  0  0  0  0  0  0  0  0  0  0
    3.2208   -0.3209    0.6861 H   0  0  0  0  0  0  0  0  0  0  0  0
    1.2336    1.5369   -0.6692 H   0  0  0  0  0  0  0  0  0  0  0  0
    1.4008    1.0006    1.0341 H   0  0  0  0  0  0  0  0  0  0  0  0
   -2.6320   -0.7019   -1.2872 H   0  0  0  0  0  0  0  0  0  0  0  0
   -1.9455   -1.9264   -0.0846 H   0  0  0  0  0  0  0  0  0  0  0  0
   -3.0811   -0.6657    0.4272 H   0  0  0  0  0  0  0  0  0  0  0  0
   -0.4754    1.4561    1.6695 H   0  0  0  0  0  0  0  0  0  0  0  0
   -2.2425    0.9491    1.7110 H   0  0  0  0  0  0  0  0  0  0  0  0
   -0.6813    2.2196   -0.7200 H   0  0  0  0  0  0  0  0  0  0  0  0
   -2.4715    1.7453   -0.7482 H   0  0  0  0  0  0  0  0  0  0  0  0
    1.7118   -2.0149    0.4984 H   0  0  0  0  0  0  0  0  0  0  0  0
   -0.0338   -2.5643    0.2791 H   0  0  0  0  0  0  0  0  0  0  0  0
  1  2  1  0
  2  3  1  0
  3  4  1  0
  4  5  1  0
  4  6  1  0
  6  7  1  0
  3  8  1  0
  8  9  1  0
  9  3  1  0
  7  4  1  0
  1 10  1  0
  1 11  1  0
  1 12  1  0
  2 13  1  0
  2 14  1  0
  5 15  1  0
  5 16  1  0
  5 17  1  0
  6 18  1  0
  6 19  1  0
  7 20  1  0
  7 21  1  0
  8 22  1  0
  8 23  1  0
M  END
