
     RDKit          3D

 21 22  0  0  0  0  0  0  0  0999 V2000
    2.3259    0.1284    0.7030 C   0  0  0  0  0  0  0  0  0  0  0  0
    1.3459   -0.3884   -0.3223 C   0  0  0  0  0  0  0  0  0  0  0  0
   -0.0029    0.0536   -0.3120 C   0  0  0  0  0  0  0  0  0  0  0  0
   -0.8501   -0.5437   -1.3873 C   0  0  0  0  0  0  0  0  0  0  0  0
   -1.5767   -1.2554   -0.2285 C   0  0  0  0  0  0  0  0  0  0  0  0
   -1.2889    0.1413    0.3038 C   0  0  0  0  0  0  0  0  0  0  0  0
   -2.2069    1.0501   -0.3020 O   0  0  0  0  0  0  0  0  0  0  0  0
   -0.2460    0.6464    0.9872 C   0  0  0  0  0  0  0  0  0  0  0  0
   -0.0135    2.0437    1.0145 O   0  0  0  0  0  0  0  0  0  0  0  0
    2.4653    1.2270    0.6508 H   0  0  0  0  0  0  0  0  0  0  0  0
    2.0960   -0.2243    1.7269 H   0  0  0  0  0  0  0  0  0  0  0  0
    3.3170   -0.3043    0.4423 H   0  0  0  0  0  0  0  0  0  0  0  0
    1.4403   -1.5157   -0.2775 H   0  0  0  0  0  0  0  0  0  0  0  0
    1.8188   -0.1391   -1.3225 H   0  0  0  0  0  0  0  0  0  0  0  0
   -1.4598    0.2236   -1.8835 H   0  0  0  0  0  0  0  0  0  0  0  0
   -0.3795   -1.3051   -1.9965 H   0  0  0  0  0  0  0  0  0  0  0  0
   -2.6289   -1.4647   -0.4153 H   0  0  0  0  0  0  0  0  0  0  0  0
   -0.9667   -2.0561    0.1823 H   0  0  0  0  0  0  0  0  0  0  0  0
   -2.9783    1.0709    0.3201 H   0  0  0  0  0  0  0  0  0  0  0  0
    0.0907    0.1954    1.9686 H   0  0  0  0  0  0  0  0  0  0  0  0
   -0.3018    2.4166    0.1478 H   0  0  0  0  0  0  0  0  0  0  0  0
  1  2  1  0
  2  3  1  0
  3  4  1  0
  4  5  1  0
  5  6  1  0
  6  7  1  0
  6  8  1  0
  8  9  1  0
  6  3  1  0
  8  3  1  0
  1 10  1  0
  1 11  1  0
  1 12  1  0
  2 13  1  0
  2 14  1  0
  4 15  1  0
  4 16  1  0
  5 17  1  0
  5 18  1  0
  7 19  1  0
  8 20  1  0
  9 21  1  0
M  END
