
     RDKit          3D

 23 23  0  0  0  0  0  0  0  0999 V2000
    2.6832    0.5080   -0.1878 C   0  0  0  0  0  0  0  0  0  0  0  0
    1.3125    0.7144    0.3554 C   0  0  0  0  0  0  0  0  0  0  0  0
    0.2360    0.0105   -0.4364 C   0  0  0  0  0  0  0  0  0  0  0  0
    0.4121   -1.4701   -0.4949 C   0  0  0  0  0  0  0  0  0  0  0  0
   -0.9526   -2.0224   -0.3255 C   0  0  0  0  0  0  0  0  0  0  0  0
   -1.7757   -1.0930    0.1342 C   0  0  0  0  0  0  0  0  0  0  0  0
   -1.0786    0.1812    0.3286 C   0  0  0  0  0  0  0  0  0  0  0  0
   -1.8109    1.3641   -0.2561 C   0  0  0  0  0  0  0  0  0  0  0  0
   -0.7922    0.3489    1.6844 O   0  0  0  0  0  0  0  0  0  0  0  0
    2.7145   -0.1679   -1.0775 H   0  0  0  0  0  0  0  0  0  0  0  0
    3.1697    1.4878   -0.4350 H   0  0  0  0  0  0  0  0  0  0  0  0
    3.2924    0.0075    0.5982 H   0  0  0  0  0  0  0  0  0  0  0  0
    1.0232    1.7936    0.3966 H   0  0  0  0  0  0  0  0  0  0  0  0
    1.1986    0.3559    1.4206 H   0  0  0  0  0  0  0  0  0  0  0  0
    0.1970    0.4289   -1.4402 H   0  0  0  0  0  0  0  0  0  0  0  0
    0.7792   -1.8133   -1.4829 H   0  0  0  0  0  0  0  0  0  0  0  0
    1.0531   -1.8736    0.3212 H   0  0  0  0  0  0  0  0  0  0  0  0
   -1.2401   -3.0718   -0.5541 H   0  0  0  0  0  0  0  0  0  0  0  0
   -2.8538   -1.2632    0.3433 H   0  0  0  0  0  0  0  0  0  0  0  0
   -2.3236    1.8868    0.5824 H   0  0  0  0  0  0  0  0  0  0  0  0
   -1.0642    2.0500   -0.6957 H   0  0  0  0  0  0  0  0  0  0  0  0
   -2.5984    1.0639   -0.9742 H   0  0  0  0  0  0  0  0  0  0  0  0
   -1.5814    0.5737    2.1954 H   0  0  0  0  0  0  0  0  0  0  0  0
  1  2  1  0
  2  3  1  0
  3  4  1  0
  4  5  1  0
  5  6  2  0
  6  7  1  0
  7  8  1  0
  7  9  1  0
  7  3  1  0
  1 10  1  0
  1 11  1  0
  1 12  1  0
  2 13  1  0
  2 14  1  0
  3 15  1  0
  4 16  1  0
  4 17  1  0
  5 18  1  0
  6 19  1  0
  8 20  1  0
  8 21  1  0
  8 22  1  0
  9 23  1  0
M  END
