
     RDKit          3D

 22 22  0  0  0  0  0  0  0  0999 V2000
    2.1661    1.0567    0.0018 C   0  0  0  0  0  0  0  0  0  0  0  0
    1.6715   -0.0192   -0.8940 C   0  0  0  0  0  0  0  0  0  0  0  0
    0.3594   -0.6177   -0.4916 C   0  0  0  0  0  0  0  0  0  0  0  0
    0.4004   -1.2468    0.8831 C   0  0  0  0  0  0  0  0  0  0  0  0
   -0.8424   -0.4831    1.2900 C   0  0  0  0  0  0  0  0  0  0  0  0
   -0.6989    0.3029   -0.0101 C   0  0  0  0  0  0  0  0  0  0  0  0
   -2.0140    0.1985   -0.7936 C   0  0  0  0  0  0  0  0  0  0  0  0
   -2.9593    1.0779   -0.3004 O   0  0  0  0  0  0  0  0  0  0  0  0
    3.1957    1.3280   -0.3291 H   0  0  0  0  0  0  0  0  0  0  0  0
    1.5771    1.9921   -0.0509 H   0  0  0  0  0  0  0  0  0  0  0  0
    2.2672    0.7416    1.0606 H   0  0  0  0  0  0  0  0  0  0  0  0
    2.4541   -0.8170   -0.9333 H   0  0  0  0  0  0  0  0  0  0  0  0
    1.5922    0.3851   -1.9223 H   0  0  0  0  0  0  0  0  0  0  0  0
   -0.0359   -1.3184   -1.2485 H   0  0  0  0  0  0  0  0  0  0  0  0
    0.2397   -2.3498    0.8866 H   0  0  0  0  0  0  0  0  0  0  0  0
    1.2732   -0.9814    1.5079 H   0  0  0  0  0  0  0  0  0  0  0  0
   -0.7298    0.1717    2.1726 H   0  0  0  0  0  0  0  0  0  0  0  0
   -1.7349   -1.1434    1.3283 H   0  0  0  0  0  0  0  0  0  0  0  0
   -0.4593    1.3472    0.1615 H   0  0  0  0  0  0  0  0  0  0  0  0
   -1.7693    0.5525   -1.8336 H   0  0  0  0  0  0  0  0  0  0  0  0
   -2.3800   -0.8243   -0.8593 H   0  0  0  0  0  0  0  0  0  0  0  0
   -3.5727    0.6468    0.3744 H   0  0  0  0  0  0  0  0  0  0  0  0
  1  2  1  0
  2  3  1  0
  3  4  1  0
  4  5  1  0
  5  6  1  0
  6  7  1  0
  7  8  1  0
  6  3  1  0
  1  9  1  0
  1 10  1  0
  1 11  1  0
  2 12  1  0
  2 13  1  0
  3 14  1  0
  4 15  1  0
  4 16  1  0
  5 17  1  0
  5 18  1  0
  6 19  1  0
  7 20  1  0
  7 21  1  0
  8 22  1  0
M  END
