
     RDKit          3D

 21 22  0  0  0  0  0  0  0  0999 V2000
    2.5647    0.0519   -0.8079 C   0  0  0  0  0  0  0  0  0  0  0  0
    1.6445   -0.6282    0.1486 C   0  0  0  0  0  0  0  0  0  0  0  0
    0.5801    0.2720    0.7121 C   0  0  0  0  0  0  0  0  0  0  0  0
   -0.3523   -0.4343    1.6869 C   0  0  0  0  0  0  0  0  0  0  0  0
   -0.8235    0.1510    0.4289 C   0  0  0  0  0  0  0  0  0  0  0  0
   -1.4421   -0.6263   -0.6742 C   0  0  0  0  0  0  0  0  0  0  0  0
   -2.1953    0.6678   -1.0110 C   0  0  0  0  0  0  0  0  0  0  0  0
   -1.7906    1.2333    0.3302 C   0  0  0  0  0  0  0  0  0  0  0  0
   -2.1176    2.1707    1.0264 O   0  0  0  0  0  0  0  0  0  0  0  0
    3.5676   -0.4563   -0.7169 H   0  0  0  0  0  0  0  0  0  0  0  0
    2.7316    1.1110   -0.6324 H   0  0  0  0  0  0  0  0  0  0  0  0
    2.2650   -0.1069   -1.8668 H   0  0  0  0  0  0  0  0  0  0  0  0
    1.1138   -1.4638   -0.3821 H   0  0  0  0  0  0  0  0  0  0  0  0
    2.2140   -1.0437    1.0119 H   0  0  0  0  0  0  0  0  0  0  0  0
    0.9633    1.2438    1.1053 H   0  0  0  0  0  0  0  0  0  0  0  0
   -0.3287   -1.5489    1.7270 H   0  0  0  0  0  0  0  0  0  0  0  0
   -0.6206    0.0723    2.6311 H   0  0  0  0  0  0  0  0  0  0  0  0
   -0.7946   -0.9948   -1.4743 H   0  0  0  0  0  0  0  0  0  0  0  0
   -2.1689   -1.3706   -0.2610 H   0  0  0  0  0  0  0  0  0  0  0  0
   -1.7307    1.1767   -1.8667 H   0  0  0  0  0  0  0  0  0  0  0  0
   -3.2795    0.5233   -1.1149 H   0  0  0  0  0  0  0  0  0  0  0  0
  1  2  1  0
  2  3  1  0
  3  4  1  0
  4  5  1  0
  5  6  1  0
  6  7  1  0
  7  8  1  0
  8  9  2  0
  5  3  1  0
  8  5  1  0
  1 10  1  0
  1 11  1  0
  1 12  1  0
  2 13  1  0
  2 14  1  0
  3 15  1  0
  4 16  1  0
  4 17  1  0
  6 18  1  0
  6 19  1  0
  7 20  1  0
  7 21  1  0
M  END
