
     RDKit          3D

 23 23  0  0  0  0  0  0  0  0999 V2000
    2.0784   -1.3795    0.2118 C   0  0  0  0  0  0  0  0  0  0  0  0
    1.2908   -0.6012   -0.8276 C   0  0  0  0  0  0  0  0  0  0  0  0
    0.5885    0.4997   -0.1437 C   0  0  0  0  0  0  0  0  0  0  0  0
   -0.2500    1.3787   -1.0429 C   0  0  0  0  0  0  0  0  0  0  0  0
   -0.9476    2.1725    0.0191 C   0  0  0  0  0  0  0  0  0  0  0  0
   -1.0405    1.4609    1.1352 C   0  0  0  0  0  0  0  0  0  0  0  0
   -0.4048    0.1323    0.8849 C   0  0  0  0  0  0  0  0  0  0  0  0
   -1.5384   -0.7334    0.3988 C   0  0  0  0  0  0  0  0  0  0  0  0
   -1.1740   -1.9393   -0.1208 O   0  0  0  0  0  0  0  0  0  0  0  0
    3.1788   -1.2134    0.1154 H   0  0  0  0  0  0  0  0  0  0  0  0
    1.8903   -2.4719    0.1312 H   0  0  0  0  0  0  0  0  0  0  0  0
    1.8285   -1.0612    1.2509 H   0  0  0  0  0  0  0  0  0  0  0  0
    0.6821   -1.3146   -1.3796 H   0  0  0  0  0  0  0  0  0  0  0  0
    2.0467   -0.2150   -1.5568 H   0  0  0  0  0  0  0  0  0  0  0  0
    1.3439    1.1627    0.3268 H   0  0  0  0  0  0  0  0  0  0  0  0
   -0.9589    0.7974   -1.6612 H   0  0  0  0  0  0  0  0  0  0  0  0
    0.3623    2.0001   -1.7008 H   0  0  0  0  0  0  0  0  0  0  0  0
   -1.3177    3.1684   -0.1024 H   0  0  0  0  0  0  0  0  0  0  0  0
   -1.5004    1.7783    2.0833 H   0  0  0  0  0  0  0  0  0  0  0  0
    0.0224   -0.2993    1.8123 H   0  0  0  0  0  0  0  0  0  0  0  0
   -2.1890   -0.9272    1.2918 H   0  0  0  0  0  0  0  0  0  0  0  0
   -2.2041   -0.1416   -0.2972 H   0  0  0  0  0  0  0  0  0  0  0  0
   -1.7875   -2.2535   -0.8284 H   0  0  0  0  0  0  0  0  0  0  0  0
  1  2  1  0
  2  3  1  0
  3  4  1  0
  4  5  1  0
  5  6  2  0
  6  7  1  0
  7  8  1  0
  8  9  1  0
  7  3  1  0
  1 10  1  0
  1 11  1  0
  1 12  1  0
  2 13  1  0
  2 14  1  0
  3 15  1  0
  4 16  1  0
  4 17  1  0
  5 18  1  0
  6 19  1  0
  7 20  1  0
  8 21  1  0
  8 22  1  0
  9 23  1  0
M  END
