
     RDKit          3D

 21 22  0  0  0  0  0  0  0  0999 V2000
    1.9111   -1.1476   -0.3180 C   0  0  0  0  0  0  0  0  0  0  0  0
    0.9484   -0.6665    0.7854 C   0  0  0  0  0  0  0  0  0  0  0  0
    0.0092    0.2226    0.2643 C   0  0  0  0  0  0  0  0  0  0  0  0
    0.5422    1.4527   -0.3492 C   0  0  0  0  0  0  0  0  0  0  0  0
   -0.8096    2.1142   -0.1499 C   0  0  0  0  0  0  0  0  0  0  0  0
   -1.1411    0.6517   -0.4164 C   0  0  0  0  0  0  0  0  0  0  0  0
   -1.3706   -0.2163    0.6118 C   0  0  0  0  0  0  0  0  0  0  0  0
   -1.7929   -1.6119    0.3552 C   0  0  0  0  0  0  0  0  0  0  0  0
   -1.3769   -2.1973   -0.6189 O   0  0  0  0  0  0  0  0  0  0  0  0
    1.3664   -1.4738   -1.2122 H   0  0  0  0  0  0  0  0  0  0  0  0
    2.5162   -1.9977    0.0397 H   0  0  0  0  0  0  0  0  0  0  0  0
    2.6145   -0.3485   -0.6078 H   0  0  0  0  0  0  0  0  0  0  0  0
    1.6548   -0.2491    1.5722 H   0  0  0  0  0  0  0  0  0  0  0  0
    0.6363   -1.6361    1.2812 H   0  0  0  0  0  0  0  0  0  0  0  0
    0.7424    1.4171   -1.4585 H   0  0  0  0  0  0  0  0  0  0  0  0
    1.2889    2.0392    0.2175 H   0  0  0  0  0  0  0  0  0  0  0  0
   -1.0149    2.3814    0.9007 H   0  0  0  0  0  0  0  0  0  0  0  0
   -1.1484    2.7801   -0.9314 H   0  0  0  0  0  0  0  0  0  0  0  0
   -1.2639    0.4076   -1.4939 H   0  0  0  0  0  0  0  0  0  0  0  0
   -1.8497    0.1840    1.5627 H   0  0  0  0  0  0  0  0  0  0  0  0
   -2.4623   -2.1056    1.0243 H   0  0  0  0  0  0  0  0  0  0  0  0
  1  2  1  0
  2  3  1  0
  3  4  1  0
  4  5  1  0
  5  6  1  0
  6  7  1  0
  7  8  1  0
  8  9  2  0
  6  3  1  0
  7  3  1  0
  1 10  1  0
  1 11  1  0
  1 12  1  0
  2 13  1  0
  2 14  1  0
  4 15  1  0
  4 16  1  0
  5 17  1  0
  5 18  1  0
  6 19  1  0
  7 20  1  0
  8 21  1  0
M  END
