
     RDKit          3D

 21 21  0  0  0  0  0  0  0  0999 V2000
   -2.0815   -0.5674    0.5540 C   0  0  0  0  0  0  0  0  0  0  0  0
   -0.6279   -0.3169    0.9905 C   0  0  0  0  0  0  0  0  0  0  0  0
    0.0517    0.3809   -0.1448 C   0  0  0  0  0  0  0  0  0  0  0  0
   -0.5790    1.7056   -0.5231 C   0  0  0  0  0  0  0  0  0  0  0  0
    0.6781   -0.5062   -1.1493 C   0  0  0  0  0  0  0  0  0  0  0  0
    0.7518   -1.8729   -0.8661 O   0  0  0  0  0  0  0  0  0  0  0  0
    1.5437    0.3595   -0.3194 C   0  0  0  0  0  0  0  0  0  0  0  0
    2.3195   -0.1105    0.8197 C   0  0  0  0  0  0  0  0  0  0  0  0
    2.0097   -1.0156    1.5710 O   0  0  0  0  0  0  0  0  0  0  0  0
   -2.6960    0.3386    0.7089 H   0  0  0  0  0  0  0  0  0  0  0  0
   -2.4827   -1.4097    1.1473 H   0  0  0  0  0  0  0  0  0  0  0  0
   -2.0395   -0.8977   -0.4937 H   0  0  0  0  0  0  0  0  0  0  0  0
   -0.2286   -1.3630    1.1421 H   0  0  0  0  0  0  0  0  0  0  0  0
   -0.6227    0.2090    1.9430 H   0  0  0  0  0  0  0  0  0  0  0  0
    0.0341    2.2157   -1.3155 H   0  0  0  0  0  0  0  0  0  0  0  0
   -1.6223    1.6225   -0.8202 H   0  0  0  0  0  0  0  0  0  0  0  0
   -0.5222    2.3660    0.3688 H   0  0  0  0  0  0  0  0  0  0  0  0
    0.5321   -0.2814   -2.2165 H   0  0  0  0  0  0  0  0  0  0  0  0
    0.3108   -2.4231   -1.5567 H   0  0  0  0  0  0  0  0  0  0  0  0
    2.0050    1.1989   -0.8886 H   0  0  0  0  0  0  0  0  0  0  0  0
    3.2657    0.3677    1.0487 H   0  0  0  0  0  0  0  0  0  0  0  0
  1  2  1  0
  2  3  1  0
  3  4  1  0
  3  5  1  0
  5  6  1  0
  5  7  1  0
  7  8  1  0
  8  9  2  0
  7  3  1  0
  1 10  1  0
  1 11  1  0
  1 12  1  0
  2 13  1  0
  2 14  1  0
  4 15  1  0
  4 16  1  0
  4 17  1  0
  5 18  1  0
  6 19  1  0
  7 20  1  0
  8 21  1  0
M  END
