
     RDKit          3D

 21 22  0  0  0  0  0  0  0  0999 V2000
   -3.0697    0.7452   -0.1058 C   0  0  0  0  0  0  0  0  0  0  0  0
   -2.6037   -0.4386    0.6720 C   0  0  0  0  0  0  0  0  0  0  0  0
   -1.1623   -0.7689    0.4811 C   0  0  0  0  0  0  0  0  0  0  0  0
   -0.9140   -1.0620   -0.9547 O   0  0  0  0  0  0  0  0  0  0  0  0
   -0.2013    0.0152   -0.2235 C   0  0  0  0  0  0  0  0  0  0  0  0
    1.2511   -0.3486   -0.1254 C   0  0  0  0  0  0  0  0  0  0  0  0
    1.8104   -0.4902   -1.4979 O   0  0  0  0  0  0  0  0  0  0  0  0
    2.3287    0.4849   -0.5686 C   0  0  0  0  0  0  0  0  0  0  0  0
    3.7093    0.2307   -0.0302 C   0  0  0  0  0  0  0  0  0  0  0  0
   -2.3403    1.5756   -0.1207 H   0  0  0  0  0  0  0  0  0  0  0  0
   -3.3619    0.4476   -1.1393 H   0  0  0  0  0  0  0  0  0  0  0  0
   -4.0206    1.1058    0.3778 H   0  0  0  0  0  0  0  0  0  0  0  0
   -3.2147   -1.3222    0.3281 H   0  0  0  0  0  0  0  0  0  0  0  0
   -2.8256   -0.3449    1.7548 H   0  0  0  0  0  0  0  0  0  0  0  0
   -0.8036   -1.5965    1.1389 H   0  0  0  0  0  0  0  0  0  0  0  0
   -0.3943    1.0175   -0.6375 H   0  0  0  0  0  0  0  0  0  0  0  0
    1.4861   -1.2915    0.4073 H   0  0  0  0  0  0  0  0  0  0  0  0
    2.1479    1.5054   -0.9712 H   0  0  0  0  0  0  0  0  0  0  0  0
    4.0262   -0.7927   -0.2387 H   0  0  0  0  0  0  0  0  0  0  0  0
    3.7310    0.3626    1.0900 H   0  0  0  0  0  0  0  0  0  0  0  0
    4.4214    0.9655   -0.4747 H   0  0  0  0  0  0  0  0  0  0  0  0
  1  2  1  0
  2  3  1  0
  3  4  1  0
  4  5  1  0
  5  6  1  0
  6  7  1  0
  7  8  1  0
  8  9  1  0
  5  3  1  0
  8  6  1  0
  1 10  1  0
  1 11  1  0
  1 12  1  0
  2 13  1  0
  2 14  1  0
  3 15  1  0
  5 16  1  0
  6 17  1  0
  8 18  1  0
  9 19  1  0
  9 20  1  0
  9 21  1  0
M  END
