
     RDKit          3D

 21 22  0  0  0  0  0  0  0  0999 V2000
    2.5829    0.0804   -0.1348 C   0  0  0  0  0  0  0  0  0  0  0  0
    1.3143   -0.6689    0.1960 C   0  0  0  0  0  0  0  0  0  0  0  0
    0.2176   -0.1515   -0.6741 C   0  0  0  0  0  0  0  0  0  0  0  0
   -0.1082    1.3089   -0.5476 C   0  0  0  0  0  0  0  0  0  0  0  0
   -1.4728    0.9324   -1.0670 C   0  0  0  0  0  0  0  0  0  0  0  0
   -1.1609   -0.1015   -0.0086 C   0  0  0  0  0  0  0  0  0  0  0  0
   -1.9087   -1.1820    0.3500 C   0  0  0  0  0  0  0  0  0  0  0  0
   -0.6241    0.9977    0.7675 C   0  0  0  0  0  0  0  0  0  0  0  0
   -0.6159    1.4141    1.8845 O   0  0  0  0  0  0  0  0  0  0  0  0
    2.4037    0.9896   -0.7225 H   0  0  0  0  0  0  0  0  0  0  0  0
    3.0779    0.3301    0.8265 H   0  0  0  0  0  0  0  0  0  0  0  0
    3.3164   -0.5731   -0.6863 H   0  0  0  0  0  0  0  0  0  0  0  0
    1.4732   -1.7374   -0.0589 H   0  0  0  0  0  0  0  0  0  0  0  0
    1.0897   -0.6381    1.2774 H   0  0  0  0  0  0  0  0  0  0  0  0
    0.2356   -0.5549   -1.6828 H   0  0  0  0  0  0  0  0  0  0  0  0
    0.4538    2.0794   -0.8596 H   0  0  0  0  0  0  0  0  0  0  0  0
   -1.4568    0.5429   -2.0970 H   0  0  0  0  0  0  0  0  0  0  0  0
   -2.2941    1.6346   -0.8176 H   0  0  0  0  0  0  0  0  0  0  0  0
   -1.3433   -2.1592    0.4217 H   0  0  0  0  0  0  0  0  0  0  0  0
   -2.7617   -1.4340   -0.3492 H   0  0  0  0  0  0  0  0  0  0  0  0
   -2.4187   -1.1095    1.3565 H   0  0  0  0  0  0  0  0  0  0  0  0
  1  2  1  0
  2  3  1  0
  3  4  1  0
  4  5  1  0
  5  6  1  0
  6  7  1  0
  6  8  1  0
  8  9  2  0
  6  3  1  0
  8  4  1  0
  1 10  1  0
  1 11  1  0
  1 12  1  0
  2 13  1  0
  2 14  1  0
  3 15  1  0
  4 16  1  0
  5 17  1  0
  5 18  1  0
  7 19  1  0
  7 20  1  0
  7 21  1  0
M  END
