
     RDKit          3D

 22 22  0  0  0  0  0  0  0  0999 V2000
   -2.5306   -0.6406   -0.3511 C   0  0  0  0  0  0  0  0  0  0  0  0
   -1.8784    0.6928   -0.3144 C   0  0  0  0  0  0  0  0  0  0  0  0
   -0.6077    0.7418    0.4732 C   0  0  0  0  0  0  0  0  0  0  0  0
   -0.0384    2.1661    0.4321 C   0  0  0  0  0  0  0  0  0  0  0  0
    1.1773    1.6941   -0.0211 O   0  0  0  0  0  0  0  0  0  0  0  0
    0.6533    0.4112   -0.2569 C   0  0  0  0  0  0  0  0  0  0  0  0
    1.5097   -0.5997    0.4931 C   0  0  0  0  0  0  0  0  0  0  0  0
    2.7738   -0.9205   -0.2557 C   0  0  0  0  0  0  0  0  0  0  0  0
   -2.0985   -1.3934    0.3256 H   0  0  0  0  0  0  0  0  0  0  0  0
   -3.6057   -0.5052   -0.0376 H   0  0  0  0  0  0  0  0  0  0  0  0
   -2.5860   -1.0262   -1.3963 H   0  0  0  0  0  0  0  0  0  0  0  0
   -1.6371    1.0361   -1.3510 H   0  0  0  0  0  0  0  0  0  0  0  0
   -2.5536    1.4907    0.1040 H   0  0  0  0  0  0  0  0  0  0  0  0
   -0.6605    0.4094    1.5184 H   0  0  0  0  0  0  0  0  0  0  0  0
   -0.5042    2.8112   -0.3420 H   0  0  0  0  0  0  0  0  0  0  0  0
   -0.0027    2.6653    1.4177 H   0  0  0  0  0  0  0  0  0  0  0  0
    0.5618    0.1920   -1.3400 H   0  0  0  0  0  0  0  0  0  0  0  0
    1.8135   -0.1546    1.4686 H   0  0  0  0  0  0  0  0  0  0  0  0
    0.9085   -1.5058    0.6801 H   0  0  0  0  0  0  0  0  0  0  0  0
    2.5887   -1.3644   -1.2475 H   0  0  0  0  0  0  0  0  0  0  0  0
    3.3664    0.0051   -0.3715 H   0  0  0  0  0  0  0  0  0  0  0  0
    3.3507   -1.6307    0.3722 H   0  0  0  0  0  0  0  0  0  0  0  0
  1  2  1  0
  2  3  1  0
  3  4  1  0
  4  5  1  0
  5  6  1  0
  6  7  1  0
  7  8  1  0
  6  3  1  0
  1  9  1  0
  1 10  1  0
  1 11  1  0
  2 12  1  0
  2 13  1  0
  3 14  1  0
  4 15  1  0
  4 16  1  0
  6 17  1  0
  7 18  1  0
  7 19  1  0
  8 20  1  0
  8 21  1  0
  8 22  1  0
M  END
