
     RDKit          3D

 23 23  0  0  0  0  0  0  0  0999 V2000
   -2.2521    1.1425    0.0495 C   0  0  0  0  0  0  0  0  0  0  0  0
   -1.0991    0.5349    0.7394 C   0  0  0  0  0  0  0  0  0  0  0  0
   -0.2995   -0.4419   -0.0570 C   0  0  0  0  0  0  0  0  0  0  0  0
   -0.9591   -1.6530   -0.5833 C   0  0  0  0  0  0  0  0  0  0  0  0
    0.5890    0.2492   -1.0903 C   0  0  0  0  0  0  0  0  0  0  0  0
    1.8381   -0.1366   -0.3380 C   0  0  0  0  0  0  0  0  0  0  0  0
    2.6267    0.9635    0.2141 C   0  0  0  0  0  0  0  0  0  0  0  0
    3.8337    0.8793    0.3017 O   0  0  0  0  0  0  0  0  0  0  0  0
    0.9697   -0.7977    0.7012 C   0  0  0  0  0  0  0  0  0  0  0  0
   -2.3877    0.8432   -1.0057 H   0  0  0  0  0  0  0  0  0  0  0  0
   -2.1587    2.2520    0.0441 H   0  0  0  0  0  0  0  0  0  0  0  0
   -3.2191    0.9422    0.5910 H   0  0  0  0  0  0  0  0  0  0  0  0
   -1.4666    0.0418    1.6849 H   0  0  0  0  0  0  0  0  0  0  0  0
   -0.3969    1.3244    1.1006 H   0  0  0  0  0  0  0  0  0  0  0  0
   -0.6145   -2.5968   -0.0800 H   0  0  0  0  0  0  0  0  0  0  0  0
   -2.0546   -1.6725   -0.5405 H   0  0  0  0  0  0  0  0  0  0  0  0
   -0.6865   -1.7987   -1.6606 H   0  0  0  0  0  0  0  0  0  0  0  0
    0.4976   -0.1566   -2.1106 H   0  0  0  0  0  0  0  0  0  0  0  0
    0.4638    1.3412   -1.1053 H   0  0  0  0  0  0  0  0  0  0  0  0
    2.4216   -0.8788   -0.9475 H   0  0  0  0  0  0  0  0  0  0  0  0
    2.1398    1.8638    0.5499 H   0  0  0  0  0  0  0  0  0  0  0  0
    1.0600   -0.3486    1.7044 H   0  0  0  0  0  0  0  0  0  0  0  0
    1.1546   -1.8969    0.7768 H   0  0  0  0  0  0  0  0  0  0  0  0
  1  2  1  0
  2  3  1  0
  3  4  1  0
  3  5  1  0
  5  6  1  0
  6  7  1  0
  7  8  2  0
  6  9  1  0
  9  3  1  0
  1 10  1  0
  1 11  1  0
  1 12  1  0
  2 13  1  0
  2 14  1  0
  4 15  1  0
  4 16  1  0
  4 17  1  0
  5 18  1  0
  5 19  1  0
  6 20  1  0
  7 21  1  0
  9 22  1  0
  9 23  1  0
M  END
