
     RDKit          3D

 21 22  0  0  0  0  0  0  0  0999 V2000
   -2.2611    0.1950    0.5176 C   0  0  0  0  0  0  0  0  0  0  0  0
   -1.7226    0.6448   -0.7765 C   0  0  0  0  0  0  0  0  0  0  0  0
   -0.3188    0.2352   -1.0847 C   0  0  0  0  0  0  0  0  0  0  0  0
   -0.0631   -1.1846   -1.1319 C   0  0  0  0  0  0  0  0  0  0  0  0
    0.7919   -1.5716   -0.2209 C   0  0  0  0  0  0  0  0  0  0  0  0
    1.2460   -0.4225    0.5947 C   0  0  0  0  0  0  0  0  0  0  0  0
    2.0889    0.5877   -0.1124 C   0  0  0  0  0  0  0  0  0  0  0  0
    2.7082    0.2174   -1.3066 O   0  0  0  0  0  0  0  0  0  0  0  0
    0.6170    0.7899   -0.0565 C   0  0  0  0  0  0  0  0  0  0  0  0
   -2.1424    0.9575    1.3265 H   0  0  0  0  0  0  0  0  0  0  0  0
   -1.8209   -0.7372    0.9198 H   0  0  0  0  0  0  0  0  0  0  0  0
   -3.3714    0.0002    0.4815 H   0  0  0  0  0  0  0  0  0  0  0  0
   -1.7850    1.7522   -0.8481 H   0  0  0  0  0  0  0  0  0  0  0  0
   -2.3785    0.2535   -1.5949 H   0  0  0  0  0  0  0  0  0  0  0  0
   -0.0226    0.6532   -2.0946 H   0  0  0  0  0  0  0  0  0  0  0  0
   -0.4887   -1.9534   -1.8213 H   0  0  0  0  0  0  0  0  0  0  0  0
    1.1565   -2.6235   -0.0500 H   0  0  0  0  0  0  0  0  0  0  0  0
    1.2715   -0.5051    1.6961 H   0  0  0  0  0  0  0  0  0  0  0  0
    2.6753    1.2610    0.5454 H   0  0  0  0  0  0  0  0  0  0  0  0
    3.6068   -0.1428   -1.0648 H   0  0  0  0  0  0  0  0  0  0  0  0
    0.2129    1.5932    0.5990 H   0  0  0  0  0  0  0  0  0  0  0  0
  1  2  1  0
  2  3  1  0
  3  4  1  0
  4  5  2  0
  5  6  1  0
  6  7  1  0
  7  8  1  0
  7  9  1  0
  9  3  1  0
  9  6  1  0
  1 10  1  0
  1 11  1  0
  1 12  1  0
  2 13  1  0
  2 14  1  0
  3 15  1  0
  4 16  1  0
  5 17  1  0
  6 18  1  0
  7 19  1  0
  8 20  1  0
  9 21  1  0
M  END
