
     RDKit          3D

 23 23  0  0  0  0  0  0  0  0999 V2000
   -2.8238    0.7583   -0.3606 C   0  0  0  0  0  0  0  0  0  0  0  0
   -1.8840    0.3279    0.7289 C   0  0  0  0  0  0  0  0  0  0  0  0
   -0.4897   -0.0032    0.1793 C   0  0  0  0  0  0  0  0  0  0  0  0
    0.4216   -0.4240    1.2552 C   0  0  0  0  0  0  0  0  0  0  0  0
    1.8162   -0.7785    0.8759 C   0  0  0  0  0  0  0  0  0  0  0  0
    2.5113    0.3965    0.2309 C   0  0  0  0  0  0  0  0  0  0  0  0
    1.9132   -1.9080    0.0755 O   0  0  0  0  0  0  0  0  0  0  0  0
   -0.2560    0.1871   -1.1913 C   0  0  0  0  0  0  0  0  0  0  0  0
   -0.6211   -1.1191   -0.7988 O   0  0  0  0  0  0  0  0  0  0  0  0
   -3.8558    0.7946    0.0485 H   0  0  0  0  0  0  0  0  0  0  0  0
   -2.6061    1.7350   -0.7822 H   0  0  0  0  0  0  0  0  0  0  0  0
   -2.8585   -0.0683   -1.1301 H   0  0  0  0  0  0  0  0  0  0  0  0
   -1.8130    1.1494    1.4698 H   0  0  0  0  0  0  0  0  0  0  0  0
   -2.2561   -0.5588    1.2564 H   0  0  0  0  0  0  0  0  0  0  0  0
   -0.0467   -1.2940    1.7945 H   0  0  0  0  0  0  0  0  0  0  0  0
    0.4744    0.3838    2.0212 H   0  0  0  0  0  0  0  0  0  0  0  0
    2.3693   -1.0112    1.8083 H   0  0  0  0  0  0  0  0  0  0  0  0
    1.8183    1.2684    0.1842 H   0  0  0  0  0  0  0  0  0  0  0  0
    3.3536    0.7184    0.8714 H   0  0  0  0  0  0  0  0  0  0  0  0
    2.9170    0.1343   -0.7744 H   0  0  0  0  0  0  0  0  0  0  0  0
    2.2735   -1.6294   -0.8051 H   0  0  0  0  0  0  0  0  0  0  0  0
    0.7169    0.3033   -1.7142 H   0  0  0  0  0  0  0  0  0  0  0  0
   -1.0745    0.6376   -1.8154 H   0  0  0  0  0  0  0  0  0  0  0  0
  1  2  1  0
  2  3  1  0
  3  4  1  0
  4  5  1  0
  5  6  1  0
  5  7  1  0
  3  8  1  0
  8  9  1  0
  9  3  1  0
  1 10  1  0
  1 11  1  0
  1 12  1  0
  2 13  1  0
  2 14  1  0
  4 15  1  0
  4 16  1  0
  5 17  1  0
  6 18  1  0
  6 19  1  0
  6 20  1  0
  7 21  1  0
  8 22  1  0
  8 23  1  0
M  END
