
     RDKit          3D

 20 20  0  0  0  0  0  0  0  0999 V2000
    2.1250    0.5361    0.0474 C   0  0  0  0  0  0  0  0  0  0  0  0
    1.5290   -0.7386   -0.4160 C   0  0  0  0  0  0  0  0  0  0  0  0
    0.0615   -0.8527   -0.3293 C   0  0  0  0  0  0  0  0  0  0  0  0
   -0.6087   -0.7327    0.9888 C   0  0  0  0  0  0  0  0  0  0  0  0
   -1.8144   -0.2169    0.2091 C   0  0  0  0  0  0  0  0  0  0  0  0
   -2.5212    0.7856    0.8592 O   0  0  0  0  0  0  0  0  0  0  0  0
   -0.7666    0.3123   -0.7859 C   0  0  0  0  0  0  0  0  0  0  0  0
   -0.2014    1.5021   -0.3366 O   0  0  0  0  0  0  0  0  0  0  0  0
    3.2103    0.3787    0.3201 H   0  0  0  0  0  0  0  0  0  0  0  0
    1.6650    0.9594    0.9606 H   0  0  0  0  0  0  0  0  0  0  0  0
    2.1017    1.3516   -0.7065 H   0  0  0  0  0  0  0  0  0  0  0  0
    1.9784   -1.5862    0.1646 H   0  0  0  0  0  0  0  0  0  0  0  0
    1.8373   -0.9123   -1.4678 H   0  0  0  0  0  0  0  0  0  0  0  0
   -0.2899   -1.7781   -0.8570 H   0  0  0  0  0  0  0  0  0  0  0  0
   -0.2872    0.0414    1.6783 H   0  0  0  0  0  0  0  0  0  0  0  0
   -0.7663   -1.7165    1.4679 H   0  0  0  0  0  0  0  0  0  0  0  0
   -2.3840   -1.0435   -0.2066 H   0  0  0  0  0  0  0  0  0  0  0  0
   -3.1789    1.1355    0.2051 H   0  0  0  0  0  0  0  0  0  0  0  0
   -1.1055    0.3010   -1.8251 H   0  0  0  0  0  0  0  0  0  0  0  0
   -0.5841    2.2738   -0.8113 H   0  0  0  0  0  0  0  0  0  0  0  0
  1  2  1  0
  2  3  1  0
  3  4  1  0
  4  5  1  0
  5  6  1  0
  5  7  1  0
  7  8  1  0
  7  3  1  0
  1  9  1  0
  1 10  1  0
  1 11  1  0
  2 12  1  0
  2 13  1  0
  3 14  1  0
  4 15  1  0
  4 16  1  0
  5 17  1  0
  6 18  1  0
  7 19  1  0
  8 20  1  0
M  END
