
     RDKit          3D

 23 23  0  0  0  0  0  0  0  0999 V2000
   -1.7068    1.4951    0.3984 C   0  0  0  0  0  0  0  0  0  0  0  0
   -1.5147    0.0683    0.8741 C   0  0  0  0  0  0  0  0  0  0  0  0
   -0.6547   -0.6285   -0.1474 C   0  0  0  0  0  0  0  0  0  0  0  0
   -1.2030   -0.6593   -1.4130 O   0  0  0  0  0  0  0  0  0  0  0  0
   -0.2183   -2.0360    0.2480 C   0  0  0  0  0  0  0  0  0  0  0  0
    1.0526   -1.7220   -0.5590 C   0  0  0  0  0  0  0  0  0  0  0  0
    0.8179   -0.2777   -0.0912 C   0  0  0  0  0  0  0  0  0  0  0  0
    1.2526    0.6809   -0.9590 O   0  0  0  0  0  0  0  0  0  0  0  0
    2.0813    1.5624   -0.2281 C   0  0  0  0  0  0  0  0  0  0  0  0
   -2.4037    1.4253   -0.4855 H   0  0  0  0  0  0  0  0  0  0  0  0
   -2.2492    2.1164    1.1414 H   0  0  0  0  0  0  0  0  0  0  0  0
   -0.7821    1.9888    0.1052 H   0  0  0  0  0  0  0  0  0  0  0  0
   -1.0481    0.0799    1.8762 H   0  0  0  0  0  0  0  0  0  0  0  0
   -2.4875   -0.4359    0.8905 H   0  0  0  0  0  0  0  0  0  0  0  0
   -0.9912    0.1276   -1.9600 H   0  0  0  0  0  0  0  0  0  0  0  0
   -0.0055   -2.0608    1.3342 H   0  0  0  0  0  0  0  0  0  0  0  0
   -0.8176   -2.8490   -0.1636 H   0  0  0  0  0  0  0  0  0  0  0  0
    0.8211   -1.8380   -1.6310 H   0  0  0  0  0  0  0  0  0  0  0  0
    1.9621   -2.1845   -0.1788 H   0  0  0  0  0  0  0  0  0  0  0  0
    1.1657   -0.1979    0.9483 H   0  0  0  0  0  0  0  0  0  0  0  0
    2.9322    0.9681    0.1814 H   0  0  0  0  0  0  0  0  0  0  0  0
    1.5552    1.9809    0.6502 H   0  0  0  0  0  0  0  0  0  0  0  0
    2.4417    2.3961   -0.8314 H   0  0  0  0  0  0  0  0  0  0  0  0
  1  2  1  0
  2  3  1  0
  3  4  1  0
  3  5  1  0
  5  6  1  0
  6  7  1  0
  7  8  1  0
  8  9  1  0
  7  3  1  0
  1 10  1  0
  1 11  1  0
  1 12  1  0
  2 13  1  0
  2 14  1  0
  4 15  1  0
  5 16  1  0
  5 17  1  0
  6 18  1  0
  6 19  1  0
  7 20  1  0
  9 21  1  0
  9 22  1  0
  9 23  1  0
M  END
