
     RDKit          3D

 25 25  0  0  0  0  0  0  0  0999 V2000
    1.6466   -1.4357    0.3536 C   0  0  0  0  0  0  0  0  0  0  0  0
    0.8971   -0.3617    1.1547 C   0  0  0  0  0  0  0  0  0  0  0  0
    0.0116    0.3872    0.2149 C   0  0  0  0  0  0  0  0  0  0  0  0
    0.6035    1.1253   -0.9536 C   0  0  0  0  0  0  0  0  0  0  0  0
    1.5696    2.1697   -0.3768 C   0  0  0  0  0  0  0  0  0  0  0  0
   -1.1245    1.0626    0.7260 O   0  0  0  0  0  0  0  0  0  0  0  0
   -1.4026   -0.1366    0.1122 C   0  0  0  0  0  0  0  0  0  0  0  0
   -1.9238   -0.1681   -1.3051 C   0  0  0  0  0  0  0  0  0  0  0  0
   -1.8624   -1.2279    1.0111 C   0  0  0  0  0  0  0  0  0  0  0  0
    0.9449   -1.9347   -0.3327 H   0  0  0  0  0  0  0  0  0  0  0  0
    2.5400   -1.0233   -0.1423 H   0  0  0  0  0  0  0  0  0  0  0  0
    1.9910   -2.2082    1.0748 H   0  0  0  0  0  0  0  0  0  0  0  0
    1.6258    0.3175    1.6249 H   0  0  0  0  0  0  0  0  0  0  0  0
    0.3368   -0.9236    1.9286 H   0  0  0  0  0  0  0  0  0  0  0  0
   -0.1382    1.6960   -1.5280 H   0  0  0  0  0  0  0  0  0  0  0  0
    1.1939    0.5033   -1.6256 H   0  0  0  0  0  0  0  0  0  0  0  0
    0.9428    2.8130    0.2874 H   0  0  0  0  0  0  0  0  0  0  0  0
    2.0126    2.7748   -1.1914 H   0  0  0  0  0  0  0  0  0  0  0  0
    2.3140    1.6780    0.2696 H   0  0  0  0  0  0  0  0  0  0  0  0
   -2.8487   -0.7765   -1.4051 H   0  0  0  0  0  0  0  0  0  0  0  0
   -2.1289    0.8385   -1.7079 H   0  0  0  0  0  0  0  0  0  0  0  0
   -1.1522   -0.6852   -1.9197 H   0  0  0  0  0  0  0  0  0  0  0  0
   -1.6958   -0.9515    2.0697 H   0  0  0  0  0  0  0  0  0  0  0  0
   -2.9749   -1.3235    0.9028 H   0  0  0  0  0  0  0  0  0  0  0  0
   -1.3783   -2.2091    0.7579 H   0  0  0  0  0  0  0  0  0  0  0  0
  1  2  1  0
  2  3  1  0
  3  4  1  0
  4  5  1  0
  3  6  1  0
  6  7  1  0
  7  8  1  0
  7  9  1  0
  7  3  1  0
  1 10  1  0
  1 11  1  0
  1 12  1  0
  2 13  1  0
  2 14  1  0
  4 15  1  0
  4 16  1  0
  5 17  1  0
  5 18  1  0
  5 19  1  0
  8 20  1  0
  8 21  1  0
  8 22  1  0
  9 23  1  0
  9 24  1  0
  9 25  1  0
M  END
