
     RDKit          3D

 23 24  0  0  0  0  0  0  0  0999 V2000
    2.4578    0.8154    0.0930 C   0  0  0  0  0  0  0  0  0  0  0  0
    1.1413    0.8266   -0.6943 C   0  0  0  0  0  0  0  0  0  0  0  0
    0.1725   -0.0139    0.0615 C   0  0  0  0  0  0  0  0  0  0  0  0
    0.6440   -1.4376    0.2197 C   0  0  0  0  0  0  0  0  0  0  0  0
   -0.7358   -1.8850   -0.2407 C   0  0  0  0  0  0  0  0  0  0  0  0
   -1.0529   -0.4724   -0.6567 C   0  0  0  0  0  0  0  0  0  0  0  0
   -2.1623    0.1885    0.1718 C   0  0  0  0  0  0  0  0  0  0  0  0
   -1.3539    1.3311    0.7991 C   0  0  0  0  0  0  0  0  0  0  0  0
   -0.2224    0.6081    1.2367 O   0  0  0  0  0  0  0  0  0  0  0  0
    2.9250   -0.1730   -0.0838 H   0  0  0  0  0  0  0  0  0  0  0  0
    3.0971    1.6457   -0.2241 H   0  0  0  0  0  0  0  0  0  0  0  0
    2.1729    0.8797    1.1780 H   0  0  0  0  0  0  0  0  0  0  0  0
    1.3077    0.4876   -1.7420 H   0  0  0  0  0  0  0  0  0  0  0  0
    0.8341    1.8823   -0.7563 H   0  0  0  0  0  0  0  0  0  0  0  0
    0.8504   -1.6511    1.2906 H   0  0  0  0  0  0  0  0  0  0  0  0
    1.4646   -1.7275   -0.4681 H   0  0  0  0  0  0  0  0  0  0  0  0
   -0.6541   -2.5863   -1.1216 H   0  0  0  0  0  0  0  0  0  0  0  0
   -1.3695   -2.3360    0.5188 H   0  0  0  0  0  0  0  0  0  0  0  0
   -1.1167   -0.3022   -1.7309 H   0  0  0  0  0  0  0  0  0  0  0  0
   -2.9744    0.5648   -0.4477 H   0  0  0  0  0  0  0  0  0  0  0  0
   -2.4602   -0.4647    1.0029 H   0  0  0  0  0  0  0  0  0  0  0  0
   -1.8735    1.8082    1.6248 H   0  0  0  0  0  0  0  0  0  0  0  0
   -1.0916    2.0117   -0.0304 H   0  0  0  0  0  0  0  0  0  0  0  0
  1  2  1  0
  2  3  1  0
  3  4  1  0
  4  5  1  0
  5  6  1  0
  6  7  1  0
  7  8  1  0
  8  9  1  0
  6  3  1  0
  9  3  1  0
  1 10  1  0
  1 11  1  0
  1 12  1  0
  2 13  1  0
  2 14  1  0
  4 15  1  0
  4 16  1  0
  5 17  1  0
  5 18  1  0
  6 19  1  0
  7 20  1  0
  7 21  1  0
  8 22  1  0
  8 23  1  0
M  END
