
     RDKit          3D

 19 19  0  0  0  0  0  0  0  0999 V2000
    2.4229    0.4387    0.7552 C   0  0  0  0  0  0  0  0  0  0  0  0
    1.7150   -0.5807   -0.1387 C   0  0  0  0  0  0  0  0  0  0  0  0
    0.2447   -0.2774   -0.1208 C   0  0  0  0  0  0  0  0  0  0  0  0
   -0.3704    0.6821    0.5316 C   0  0  0  0  0  0  0  0  0  0  0  0
   -1.8517    0.6651    0.3014 C   0  0  0  0  0  0  0  0  0  0  0  0
   -2.2662    1.6417   -0.5732 O   0  0  0  0  0  0  0  0  0  0  0  0
   -2.0287   -0.7130   -0.2064 C   0  0  0  0  0  0  0  0  0  0  0  0
   -2.9960   -1.4097   -0.0922 O   0  0  0  0  0  0  0  0  0  0  0  0
   -0.7675   -1.0483   -0.8812 C   0  0  0  0  0  0  0  0  0  0  0  0
    2.2175    1.4262    0.3095 H   0  0  0  0  0  0  0  0  0  0  0  0
    1.9906    0.3310    1.7720 H   0  0  0  0  0  0  0  0  0  0  0  0
    3.4996    0.1728    0.7194 H   0  0  0  0  0  0  0  0  0  0  0  0
    2.0977   -0.4580   -1.1519 H   0  0  0  0  0  0  0  0  0  0  0  0
    1.9393   -1.5953    0.2069 H   0  0  0  0  0  0  0  0  0  0  0  0
    0.1391    1.4132    1.1720 H   0  0  0  0  0  0  0  0  0  0  0  0
   -2.3639    0.8389    1.2701 H   0  0  0  0  0  0  0  0  0  0  0  0
   -2.2851    1.3318   -1.5198 H   0  0  0  0  0  0  0  0  0  0  0  0
   -0.7904   -0.7144   -1.9640 H   0  0  0  0  0  0  0  0  0  0  0  0
   -0.5465   -2.1446   -0.8641 H   0  0  0  0  0  0  0  0  0  0  0  0
  1  2  1  0
  2  3  1  0
  3  4  2  0
  4  5  1  0
  5  6  1  0
  5  7  1  0
  7  8  2  0
  7  9  1  0
  9  3  1  0
  1 10  1  0
  1 11  1  0
  1 12  1  0
  2 13  1  0
  2 14  1  0
  4 15  1  0
  5 16  1  0
  6 17  1  0
  9 18  1  0
  9 19  1  0
M  END
