
     RDKit          3D

 20 20  0  0  0  0  0  0  0  0999 V2000
    2.5747   -0.0790   -0.0652 C   0  0  0  0  0  0  0  0  0  0  0  0
    1.2793    0.5289   -0.6198 C   0  0  0  0  0  0  0  0  0  0  0  0
    0.1635   -0.0069    0.2212 C   0  0  0  0  0  0  0  0  0  0  0  0
   -0.0021   -1.4769    0.2360 C   0  0  0  0  0  0  0  0  0  0  0  0
    0.6415   -2.5080    0.1471 O   0  0  0  0  0  0  0  0  0  0  0  0
   -1.4579   -1.2068    0.4274 C   0  0  0  0  0  0  0  0  0  0  0  0
   -1.2165    0.0475   -0.4189 C   0  0  0  0  0  0  0  0  0  0  0  0
   -1.9482    1.2640    0.0559 C   0  0  0  0  0  0  0  0  0  0  0  0
    2.6833   -1.1350   -0.3387 H   0  0  0  0  0  0  0  0  0  0  0  0
    3.4442    0.5427   -0.3641 H   0  0  0  0  0  0  0  0  0  0  0  0
    2.4927   -0.0064    1.0557 H   0  0  0  0  0  0  0  0  0  0  0  0
    1.1615    0.3535   -1.6883 H   0  0  0  0  0  0  0  0  0  0  0  0
    1.3599    1.6192   -0.4083 H   0  0  0  0  0  0  0  0  0  0  0  0
    0.1293    0.4112    1.2301 H   0  0  0  0  0  0  0  0  0  0  0  0
   -2.1433   -1.9310    0.0002 H   0  0  0  0  0  0  0  0  0  0  0  0
   -1.6287   -0.9085    1.4791 H   0  0  0  0  0  0  0  0  0  0  0  0
   -1.2651   -0.1988   -1.4761 H   0  0  0  0  0  0  0  0  0  0  0  0
   -3.0249    1.1628   -0.1464 H   0  0  0  0  0  0  0  0  0  0  0  0
   -1.7354    1.3851    1.1360 H   0  0  0  0  0  0  0  0  0  0  0  0
   -1.5077    2.1423   -0.4630 H   0  0  0  0  0  0  0  0  0  0  0  0
  1  2  1  0
  2  3  1  0
  3  4  1  0
  4  5  2  0
  4  6  1  0
  6  7  1  0
  7  8  1  0
  7  3  1  0
  1  9  1  0
  1 10  1  0
  1 11  1  0
  2 12  1  0
  2 13  1  0
  3 14  1  0
  6 15  1  0
  6 16  1  0
  7 17  1  0
  8 18  1  0
  8 19  1  0
  8 20  1  0
M  END
