
     RDKit          3D

 25 26  0  0  0  0  0  0  0  0999 V2000
    2.4696    0.3355   -0.4619 C   0  0  0  0  0  0  0  0  0  0  0  0
    1.5797   -0.6739    0.1488 C   0  0  0  0  0  0  0  0  0  0  0  0
    0.1656   -0.4646    0.1053 C   0  0  0  0  0  0  0  0  0  0  0  0
   -0.6642   -1.5636    0.7634 C   0  0  0  0  0  0  0  0  0  0  0  0
   -2.0670   -1.0092    0.4364 C   0  0  0  0  0  0  0  0  0  0  0  0
   -1.6689    0.1952   -0.3495 C   0  0  0  0  0  0  0  0  0  0  0  0
   -0.5469   -0.3551   -1.2268 C   0  0  0  0  0  0  0  0  0  0  0  0
   -0.5295    0.7538    0.5214 C   0  0  0  0  0  0  0  0  0  0  0  0
   -0.1307    2.0775   -0.0114 C   0  0  0  0  0  0  0  0  0  0  0  0
    3.5336   -0.0219   -0.3322 H   0  0  0  0  0  0  0  0  0  0  0  0
    2.4320    1.3335   -0.0349 H   0  0  0  0  0  0  0  0  0  0  0  0
    2.3095    0.3248   -1.5713 H   0  0  0  0  0  0  0  0  0  0  0  0
    1.8233   -1.6674   -0.3367 H   0  0  0  0  0  0  0  0  0  0  0  0
    1.9040   -0.8231    1.2144 H   0  0  0  0  0  0  0  0  0  0  0  0
   -0.5012   -1.6362    1.8373 H   0  0  0  0  0  0  0  0  0  0  0  0
   -0.5750   -2.5064    0.2122 H   0  0  0  0  0  0  0  0  0  0  0  0
   -2.6710   -1.7383   -0.1034 H   0  0  0  0  0  0  0  0  0  0  0  0
   -2.5445   -0.6543    1.3876 H   0  0  0  0  0  0  0  0  0  0  0  0
   -2.3637    0.8676   -0.7574 H   0  0  0  0  0  0  0  0  0  0  0  0
   -0.7399   -1.3717   -1.6224 H   0  0  0  0  0  0  0  0  0  0  0  0
   -0.1285    0.3375   -1.9501 H   0  0  0  0  0  0  0  0  0  0  0  0
   -0.8089    0.8294    1.5990 H   0  0  0  0  0  0  0  0  0  0  0  0
    0.3559    2.0702   -0.9885 H   0  0  0  0  0  0  0  0  0  0  0  0
    0.4473    2.6844    0.7476 H   0  0  0  0  0  0  0  0  0  0  0  0
   -1.0807    2.6764   -0.1485 H   0  0  0  0  0  0  0  0  0  0  0  0
  1  2  1  0
  2  3  1  0
  3  4  1  0
  4  5  1  0
  5  6  1  0
  6  7  1  0
  6  8  1  0
  8  9  1  0
  7  3  1  0
  8  3  1  0
  1 10  1  0
  1 11  1  0
  1 12  1  0
  2 13  1  0
  2 14  1  0
  4 15  1  0
  4 16  1  0
  5 17  1  0
  5 18  1  0
  6 19  1  0
  7 20  1  0
  7 21  1  0
  8 22  1  0
  9 23  1  0
  9 24  1  0
  9 25  1  0
M  END
