
     RDKit          3D

 22 22  0  0  0  0  0  0  0  0999 V2000
   -1.5609    1.0661    1.0838 C   0  0  0  0  0  0  0  0  0  0  0  0
   -1.6884   -0.1238    0.1734 C   0  0  0  0  0  0  0  0  0  0  0  0
   -0.3881   -0.4740   -0.5097 C   0  0  0  0  0  0  0  0  0  0  0  0
   -0.6038   -1.6841   -1.4087 C   0  0  0  0  0  0  0  0  0  0  0  0
    0.7537   -0.7452    0.4329 C   0  0  0  0  0  0  0  0  0  0  0  0
    1.4670    0.2394   -0.4586 C   0  0  0  0  0  0  0  0  0  0  0  0
    2.0625    1.3649    0.3247 C   0  0  0  0  0  0  0  0  0  0  0  0
    0.2733    0.5822   -1.1036 O   0  0  0  0  0  0  0  0  0  0  0  0
   -0.7942    1.7976    0.7126 H   0  0  0  0  0  0  0  0  0  0  0  0
   -2.5457    1.5520    1.2418 H   0  0  0  0  0  0  0  0  0  0  0  0
   -1.2170    0.7141    2.0783 H   0  0  0  0  0  0  0  0  0  0  0  0
   -2.4687    0.0971   -0.5801 H   0  0  0  0  0  0  0  0  0  0  0  0
   -2.0094   -1.0154    0.7350 H   0  0  0  0  0  0  0  0  0  0  0  0
   -1.6771   -1.9157   -1.5450 H   0  0  0  0  0  0  0  0  0  0  0  0
   -0.1166   -2.5872   -0.9951 H   0  0  0  0  0  0  0  0  0  0  0  0
   -0.1899   -1.4709   -2.4205 H   0  0  0  0  0  0  0  0  0  0  0  0
    0.6071   -0.4354    1.4752 H   0  0  0  0  0  0  0  0  0  0  0  0
    1.2250   -1.7426    0.3446 H   0  0  0  0  0  0  0  0  0  0  0  0
    2.2140   -0.1927   -1.1499 H   0  0  0  0  0  0  0  0  0  0  0  0
    2.0261    2.2920   -0.3076 H   0  0  0  0  0  0  0  0  0  0  0  0
    1.5307    1.5897    1.2711 H   0  0  0  0  0  0  0  0  0  0  0  0
    3.1001    1.0919    0.6054 H   0  0  0  0  0  0  0  0  0  0  0  0
  1  2  1  0
  2  3  1  0
  3  4  1  0
  3  5  1  0
  5  6  1  0
  6  7  1  0
  6  8  1  0
  8  3  1  0
  1  9  1  0
  1 10  1  0
  1 11  1  0
  2 12  1  0
  2 13  1  0
  4 14  1  0
  4 15  1  0
  4 16  1  0
  5 17  1  0
  5 18  1  0
  6 19  1  0
  7 20  1  0
  7 21  1  0
  7 22  1  0
M  END
