
     RDKit          3D

 23 23  0  0  0  0  0  0  0  0999 V2000
    2.0317    1.1653   -0.4549 C   0  0  0  0  0  0  0  0  0  0  0  0
    1.1239    0.3587   -1.3769 C   0  0  0  0  0  0  0  0  0  0  0  0
    0.3024   -0.5876   -0.5588 C   0  0  0  0  0  0  0  0  0  0  0  0
    1.1084   -1.5878    0.2536 C   0  0  0  0  0  0  0  0  0  0  0  0
   -0.9869   -1.1315   -1.0882 C   0  0  0  0  0  0  0  0  0  0  0  0
   -1.4482   -2.3554   -0.6473 O   0  0  0  0  0  0  0  0  0  0  0  0
   -0.9769   -0.0529   -0.0231 C   0  0  0  0  0  0  0  0  0  0  0  0
   -1.4002    1.1760   -0.5143 O   0  0  0  0  0  0  0  0  0  0  0  0
   -2.1883    1.7695    0.4640 C   0  0  0  0  0  0  0  0  0  0  0  0
    1.6075    1.2643    0.5586 H   0  0  0  0  0  0  0  0  0  0  0  0
    3.0457    0.6866   -0.3940 H   0  0  0  0  0  0  0  0  0  0  0  0
    2.1822    2.2046   -0.8427 H   0  0  0  0  0  0  0  0  0  0  0  0
    0.4266    1.1052   -1.8477 H   0  0  0  0  0  0  0  0  0  0  0  0
    1.7240   -0.1482   -2.1696 H   0  0  0  0  0  0  0  0  0  0  0  0
    1.1841   -2.5095   -0.3932 H   0  0  0  0  0  0  0  0  0  0  0  0
    2.1768   -1.2541    0.3687 H   0  0  0  0  0  0  0  0  0  0  0  0
    0.6405   -1.8316    1.2131 H   0  0  0  0  0  0  0  0  0  0  0  0
   -1.2026   -0.8806   -2.1309 H   0  0  0  0  0  0  0  0  0  0  0  0
   -0.8201   -2.8407   -0.0666 H   0  0  0  0  0  0  0  0  0  0  0  0
   -1.3283   -0.3017    0.9860 H   0  0  0  0  0  0  0  0  0  0  0  0
   -3.0748    1.1616    0.7211 H   0  0  0  0  0  0  0  0  0  0  0  0
   -1.5668    1.8234    1.3873 H   0  0  0  0  0  0  0  0  0  0  0  0
   -2.5606    2.7664    0.1575 H   0  0  0  0  0  0  0  0  0  0  0  0
  1  2  1  0
  2  3  1  0
  3  4  1  0
  3  5  1  0
  5  6  1  0
  5  7  1  0
  7  8  1  0
  8  9  1  0
  7  3  1  0
  1 10  1  0
  1 11  1  0
  1 12  1  0
  2 13  1  0
  2 14  1  0
  4 15  1  0
  4 16  1  0
  4 17  1  0
  5 18  1  0
  6 19  1  0
  7 20  1  0
  9 21  1  0
  9 22  1  0
  9 23  1  0
M  END
