
     RDKit          3D

 18 18  0  0  0  0  0  0  0  0999 V2000
    2.2616   -0.4409    0.5597 C   0  0  0  0  0  0  0  0  0  0  0  0
    1.1046    0.5055    0.7997 C   0  0  0  0  0  0  0  0  0  0  0  0
    0.0958    0.4565   -0.2999 C   0  0  0  0  0  0  0  0  0  0  0  0
   -0.6296   -0.7748   -0.6587 C   0  0  0  0  0  0  0  0  0  0  0  0
   -0.3239   -1.9998   -0.0801 O   0  0  0  0  0  0  0  0  0  0  0  0
   -1.3337    0.2400    0.1634 C   0  0  0  0  0  0  0  0  0  0  0  0
   -2.3000    1.1716   -0.4075 C   0  0  0  0  0  0  0  0  0  0  0  0
   -3.2147    1.5845    0.2646 O   0  0  0  0  0  0  0  0  0  0  0  0
    2.3810   -0.6906   -0.5058 H   0  0  0  0  0  0  0  0  0  0  0  0
    2.0927   -1.3874    1.1095 H   0  0  0  0  0  0  0  0  0  0  0  0
    3.2106   -0.0228    0.9230 H   0  0  0  0  0  0  0  0  0  0  0  0
    0.6341    0.3468    1.7901 H   0  0  0  0  0  0  0  0  0  0  0  0
    1.5293    1.5304    0.8327 H   0  0  0  0  0  0  0  0  0  0  0  0
    0.2800    1.1669   -1.1290 H   0  0  0  0  0  0  0  0  0  0  0  0
   -1.0061   -0.8737   -1.6977 H   0  0  0  0  0  0  0  0  0  0  0  0
   -1.0658   -2.2678    0.5147 H   0  0  0  0  0  0  0  0  0  0  0  0
   -1.4929   -0.0528    1.2234 H   0  0  0  0  0  0  0  0  0  0  0  0
   -2.2229    1.5083   -1.4244 H   0  0  0  0  0  0  0  0  0  0  0  0
  1  2  1  0
  2  3  1  0
  3  4  1  0
  4  5  1  0
  4  6  1  0
  6  7  1  0
  7  8  2  0
  6  3  1  0
  1  9  1  0
  1 10  1  0
  1 11  1  0
  2 12  1  0
  2 13  1  0
  3 14  1  0
  4 15  1  0
  5 16  1  0
  6 17  1  0
  7 18  1  0
M  END
