
     RDKit          3D

 25 25  0  0  0  0  0  0  0  0999 V2000
    2.0002    0.9036    1.0454 C   0  0  0  0  0  0  0  0  0  0  0  0
    2.1585   -0.3630    0.3406 C   0  0  0  0  0  0  0  0  0  0  0  0
    1.0714   -0.9282   -0.4873 C   0  0  0  0  0  0  0  0  0  0  0  0
    0.5400   -0.2559   -1.5824 O   0  0  0  0  0  0  0  0  0  0  0  0
   -0.3182   -0.8033   -0.4916 C   0  0  0  0  0  0  0  0  0  0  0  0
   -1.0890   -2.0669   -0.9575 C   0  0  0  0  0  0  0  0  0  0  0  0
   -1.2795    0.2450   -0.1597 C   0  0  0  0  0  0  0  0  0  0  0  0
   -1.1868    0.7107    1.3034 C   0  0  0  0  0  0  0  0  0  0  0  0
   -1.2904    1.4908   -0.9864 C   0  0  0  0  0  0  0  0  0  0  0  0
    1.4926    1.7132    0.5238 H   0  0  0  0  0  0  0  0  0  0  0  0
    3.0275    1.3210    1.2782 H   0  0  0  0  0  0  0  0  0  0  0  0
    1.5973    0.7146    2.0846 H   0  0  0  0  0  0  0  0  0  0  0  0
    2.4155   -1.1467    1.1193 H   0  0  0  0  0  0  0  0  0  0  0  0
    3.1276   -0.2969   -0.2485 H   0  0  0  0  0  0  0  0  0  0  0  0
    1.4831   -1.9189   -0.8956 H   0  0  0  0  0  0  0  0  0  0  0  0
   -0.4261   -2.7531   -1.4957 H   0  0  0  0  0  0  0  0  0  0  0  0
   -1.9234   -1.8078   -1.6006 H   0  0  0  0  0  0  0  0  0  0  0  0
   -1.3780   -2.5661   -0.0032 H   0  0  0  0  0  0  0  0  0  0  0  0
   -2.3201   -0.1370   -0.2466 H   0  0  0  0  0  0  0  0  0  0  0  0
   -0.6686   -0.0328    1.9137 H   0  0  0  0  0  0  0  0  0  0  0  0
   -2.2089    0.8108    1.7483 H   0  0  0  0  0  0  0  0  0  0  0  0
   -0.7520    1.7318    1.3544 H   0  0  0  0  0  0  0  0  0  0  0  0
   -0.4675    2.1657   -0.7631 H   0  0  0  0  0  0  0  0  0  0  0  0
   -2.2263    2.0527   -0.7445 H   0  0  0  0  0  0  0  0  0  0  0  0
   -1.3790    1.2162   -2.0556 H   0  0  0  0  0  0  0  0  0  0  0  0
  1  2  1  0
  2  3  1  0
  3  4  1  0
  4  5  1  0
  5  6  1  0
  5  7  1  0
  7  8  1  0
  7  9  1  0
  5  3  1  0
  1 10  1  0
  1 11  1  0
  1 12  1  0
  2 13  1  0
  2 14  1  0
  3 15  1  0
  6 16  1  0
  6 17  1  0
  6 18  1  0
  7 19  1  0
  8 20  1  0
  8 21  1  0
  8 22  1  0
  9 23  1  0
  9 24  1  0
  9 25  1  0
M  END
