
     RDKit          3D

 21 21  0  0  0  0  0  0  0  0999 V2000
    2.7407    0.4966   -0.3801 C   0  0  0  0  0  0  0  0  0  0  0  0
    1.7685    0.0223    0.6772 C   0  0  0  0  0  0  0  0  0  0  0  0
    0.4323    0.6635    0.5674 C   0  0  0  0  0  0  0  0  0  0  0  0
   -0.4422    0.1290    1.6460 O   0  0  0  0  0  0  0  0  0  0  0  0
   -0.7071   -0.0106    0.1889 C   0  0  0  0  0  0  0  0  0  0  0  0
   -2.0741    0.6415   -0.0648 C   0  0  0  0  0  0  0  0  0  0  0  0
   -2.9772   -0.0887    0.7328 O   0  0  0  0  0  0  0  0  0  0  0  0
   -0.7300   -1.4598   -0.2373 C   0  0  0  0  0  0  0  0  0  0  0  0
   -0.9809   -1.4599   -1.6061 O   0  0  0  0  0  0  0  0  0  0  0  0
    2.7044   -0.1508   -1.2811 H   0  0  0  0  0  0  0  0  0  0  0  0
    2.5374    1.5601   -0.6848 H   0  0  0  0  0  0  0  0  0  0  0  0
    3.7797    0.4428    0.0031 H   0  0  0  0  0  0  0  0  0  0  0  0
    1.7915   -1.0708    0.6761 H   0  0  0  0  0  0  0  0  0  0  0  0
    2.2534    0.3145    1.6574 H   0  0  0  0  0  0  0  0  0  0  0  0
    0.4331    1.7802    0.7207 H   0  0  0  0  0  0  0  0  0  0  0  0
   -2.0729    1.7042    0.2430 H   0  0  0  0  0  0  0  0  0  0  0  0
   -2.3926    0.5152   -1.1006 H   0  0  0  0  0  0  0  0  0  0  0  0
   -3.7041    0.5174    1.0368 H   0  0  0  0  0  0  0  0  0  0  0  0
   -1.6536   -1.9310    0.2193 H   0  0  0  0  0  0  0  0  0  0  0  0
    0.1390   -2.0400    0.0589 H   0  0  0  0  0  0  0  0  0  0  0  0
   -0.8454   -0.5757   -2.0204 H   0  0  0  0  0  0  0  0  0  0  0  0
  1  2  1  0
  2  3  1  0
  3  4  1  0
  4  5  1  0
  5  6  1  0
  6  7  1  0
  5  8  1  0
  8  9  1  0
  5  3  1  0
  1 10  1  0
  1 11  1  0
  1 12  1  0
  2 13  1  0
  2 14  1  0
  3 15  1  0
  6 16  1  0
  6 17  1  0
  7 18  1  0
  8 19  1  0
  8 20  1  0
  9 21  1  0
M  END
