
     RDKit          3D

 19 19  0  0  0  0  0  0  0  0999 V2000
    2.1540   -0.4160   -0.3922 C   0  0  0  0  0  0  0  0  0  0  0  0
    1.1012   -0.2006    0.6354 C   0  0  0  0  0  0  0  0  0  0  0  0
   -0.2025    0.3158    0.0955 C   0  0  0  0  0  0  0  0  0  0  0  0
    0.0657    1.6180   -0.5613 C   0  0  0  0  0  0  0  0  0  0  0  0
   -0.4608    2.6237   -0.1255 O   0  0  0  0  0  0  0  0  0  0  0  0
   -0.9049   -0.6464   -0.8048 C   0  0  0  0  0  0  0  0  0  0  0  0
   -2.2375   -0.5783   -0.3986 O   0  0  0  0  0  0  0  0  0  0  0  0
   -2.2109   -0.1985    0.9345 C   0  0  0  0  0  0  0  0  0  0  0  0
   -1.0584    0.5126    1.1480 O   0  0  0  0  0  0  0  0  0  0  0  0
    2.1147   -1.4167   -0.8750 H   0  0  0  0  0  0  0  0  0  0  0  0
    3.1473   -0.4039    0.1480 H   0  0  0  0  0  0  0  0  0  0  0  0
    2.2138    0.4002   -1.1249 H   0  0  0  0  0  0  0  0  0  0  0  0
    0.9316   -1.1797    1.1628 H   0  0  0  0  0  0  0  0  0  0  0  0
    1.4979    0.4841    1.4120 H   0  0  0  0  0  0  0  0  0  0  0  0
    0.7119    1.7473   -1.4230 H   0  0  0  0  0  0  0  0  0  0  0  0
   -0.8804   -0.3545   -1.8726 H   0  0  0  0  0  0  0  0  0  0  0  0
   -0.5868   -1.6811   -0.7279 H   0  0  0  0  0  0  0  0  0  0  0  0
   -2.3053   -1.0726    1.6263 H   0  0  0  0  0  0  0  0  0  0  0  0
   -3.0908    0.4468    1.1435 H   0  0  0  0  0  0  0  0  0  0  0  0
  1  2  1  0
  2  3  1  0
  3  4  1  0
  4  5  2  0
  3  6  1  0
  6  7  1  0
  7  8  1  0
  8  9  1  0
  9  3  1  0
  1 10  1  0
  1 11  1  0
  1 12  1  0
  2 13  1  0
  2 14  1  0
  4 15  1  0
  6 16  1  0
  6 17  1  0
  8 18  1  0
  8 19  1  0
M  END
