
     RDKit          3D

 17 18  0  0  0  0  0  0  0  0999 V2000
   -2.1918    0.1475   -0.3766 C   0  0  0  0  0  0  0  0  0  0  0  0
   -1.1544   -0.0495    0.7183 C   0  0  0  0  0  0  0  0  0  0  0  0
    0.1905    0.2019    0.1216 C   0  0  0  0  0  0  0  0  0  0  0  0
    0.6692   -0.6453   -1.0336 C   0  0  0  0  0  0  0  0  0  0  0  0
    2.0798   -0.6144   -1.0184 O   0  0  0  0  0  0  0  0  0  0  0  0
    2.5460    0.0340    0.1041 C   0  0  0  0  0  0  0  0  0  0  0  0
    3.7390    0.1884    0.4161 O   0  0  0  0  0  0  0  0  0  0  0  0
    1.3801    0.5147    0.8736 C   0  0  0  0  0  0  0  0  0  0  0  0
    0.6550    1.5056    0.2322 O   0  0  0  0  0  0  0  0  0  0  0  0
   -3.1156    0.5115    0.1485 H   0  0  0  0  0  0  0  0  0  0  0  0
   -2.4201   -0.8109   -0.8523 H   0  0  0  0  0  0  0  0  0  0  0  0
   -1.8602    0.9367   -1.0827 H   0  0  0  0  0  0  0  0  0  0  0  0
   -1.3193    0.6771    1.5325 H   0  0  0  0  0  0  0  0  0  0  0  0
   -1.1800   -1.1004    1.0693 H   0  0  0  0  0  0  0  0  0  0  0  0
    0.2636   -0.2362   -1.9827 H   0  0  0  0  0  0  0  0  0  0  0  0
    0.3520   -1.6914   -0.8455 H   0  0  0  0  0  0  0  0  0  0  0  0
    1.3661    0.4309    1.9754 H   0  0  0  0  0  0  0  0  0  0  0  0
  1  2  1  0
  2  3  1  0
  3  4  1  0
  4  5  1  0
  5  6  1  0
  6  7  2  0
  6  8  1  0
  8  9  1  0
  8  3  1  0
  9  3  1  0
  1 10  1  0
  1 11  1  0
  1 12  1  0
  2 13  1  0
  2 14  1  0
  4 15  1  0
  4 16  1  0
  8 17  1  0
M  END
