
     RDKit          3D

 23 23  0  0  0  0  0  0  0  0999 V2000
   -2.8777    0.3793   -0.2845 C   0  0  0  0  0  0  0  0  0  0  0  0
   -1.8214    0.3894    0.8258 C   0  0  0  0  0  0  0  0  0  0  0  0
   -0.4981    0.6145    0.1649 C   0  0  0  0  0  0  0  0  0  0  0  0
   -0.0998   -0.4380   -0.8541 C   0  0  0  0  0  0  0  0  0  0  0  0
    1.3353   -0.2458   -0.3612 C   0  0  0  0  0  0  0  0  0  0  0  0
    2.1669   -1.4799   -0.3264 C   0  0  0  0  0  0  0  0  0  0  0  0
    2.0156    0.9218   -0.9489 C   0  0  0  0  0  0  0  0  0  0  0  0
    1.4931    1.6116   -1.8220 O   0  0  0  0  0  0  0  0  0  0  0  0
    0.7114    0.1495    0.9862 C   0  0  0  0  0  0  0  0  0  0  0  0
   -2.4818   -0.1576   -1.1749 H   0  0  0  0  0  0  0  0  0  0  0  0
   -3.0941    1.4465   -0.5523 H   0  0  0  0  0  0  0  0  0  0  0  0
   -3.7918   -0.1242    0.0645 H   0  0  0  0  0  0  0  0  0  0  0  0
   -2.0470    1.2868    1.4376 H   0  0  0  0  0  0  0  0  0  0  0  0
   -1.8590   -0.5465    1.4032 H   0  0  0  0  0  0  0  0  0  0  0  0
   -0.4078    1.6619   -0.1888 H   0  0  0  0  0  0  0  0  0  0  0  0
   -0.4628   -1.4239   -0.5234 H   0  0  0  0  0  0  0  0  0  0  0  0
   -0.2198   -0.1672   -1.8998 H   0  0  0  0  0  0  0  0  0  0  0  0
    2.9397   -1.3904   -1.1445 H   0  0  0  0  0  0  0  0  0  0  0  0
    2.7793   -1.5443    0.6162 H   0  0  0  0  0  0  0  0  0  0  0  0
    1.6155   -2.4117   -0.5139 H   0  0  0  0  0  0  0  0  0  0  0  0
    2.9945    1.1754   -0.6037 H   0  0  0  0  0  0  0  0  0  0  0  0
    1.1972    0.9976    1.4704 H   0  0  0  0  0  0  0  0  0  0  0  0
    0.4128   -0.7048    1.6127 H   0  0  0  0  0  0  0  0  0  0  0  0
  1  2  1  0
  2  3  1  0
  3  4  1  0
  4  5  1  0
  5  6  1  0
  5  7  1  0
  7  8  2  0
  5  9  1  0
  9  3  1  0
  1 10  1  0
  1 11  1  0
  1 12  1  0
  2 13  1  0
  2 14  1  0
  3 15  1  0
  4 16  1  0
  4 17  1  0
  6 18  1  0
  6 19  1  0
  6 20  1  0
  7 21  1  0
  9 22  1  0
  9 23  1  0
M  END
