
     RDKit          3D

 22 23  0  0  0  0  0  0  0  0999 V2000
    2.0875   -1.0034    0.2974 C   0  0  0  0  0  0  0  0  0  0  0  0
    0.8305   -0.5243    0.9959 C   0  0  0  0  0  0  0  0  0  0  0  0
    0.1942    0.5319    0.1299 C   0  0  0  0  0  0  0  0  0  0  0  0
    1.0995    1.7381   -0.1151 C   0  0  0  0  0  0  0  0  0  0  0  0
   -0.5801    0.0580   -1.0221 C   0  0  0  0  0  0  0  0  0  0  0  0
   -1.5041   -1.1003   -0.7982 C   0  0  0  0  0  0  0  0  0  0  0  0
   -2.3021   -0.2253    0.1387 C   0  0  0  0  0  0  0  0  0  0  0  0
   -1.2375    0.8108    0.1333 C   0  0  0  0  0  0  0  0  0  0  0  0
    2.3869   -0.2763   -0.4996 H   0  0  0  0  0  0  0  0  0  0  0  0
    2.8866   -1.1915    1.0184 H   0  0  0  0  0  0  0  0  0  0  0  0
    1.9136   -1.9642   -0.2443 H   0  0  0  0  0  0  0  0  0  0  0  0
    1.1698   -0.0876    1.9749 H   0  0  0  0  0  0  0  0  0  0  0  0
    0.1446   -1.3569    1.2243 H   0  0  0  0  0  0  0  0  0  0  0  0
    2.1125    1.5879    0.2821 H   0  0  0  0  0  0  0  0  0  0  0  0
    0.6623    2.6597    0.3212 H   0  0  0  0  0  0  0  0  0  0  0  0
    1.1823    1.9180   -1.2058 H   0  0  0  0  0  0  0  0  0  0  0  0
   -0.5447    0.5496   -2.0132 H   0  0  0  0  0  0  0  0  0  0  0  0
   -1.1075   -1.9674   -0.2660 H   0  0  0  0  0  0  0  0  0  0  0  0
   -2.0641   -1.4298   -1.7091 H   0  0  0  0  0  0  0  0  0  0  0  0
   -3.2322    0.1039   -0.3737 H   0  0  0  0  0  0  0  0  0  0  0  0
   -2.5083   -0.6758    1.1290 H   0  0  0  0  0  0  0  0  0  0  0  0
   -1.5897    1.8450   -0.0445 H   0  0  0  0  0  0  0  0  0  0  0  0
  1  2  1  0
  2  3  1  0
  3  4  1  0
  3  5  1  0
  5  6  1  0
  6  7  1  0
  7  8  1  0
  8  3  1  0
  8  5  1  0
  1  9  1  0
  1 10  1  0
  1 11  1  0
  2 12  1  0
  2 13  1  0
  4 14  1  0
  4 15  1  0
  4 16  1  0
  5 17  1  0
  6 18  1  0
  6 19  1  0
  7 20  1  0
  7 21  1  0
  8 22  1  0
M  END
