
     RDKit          3D

 25 25  0  0  0  0  0  0  0  0999 V2000
    1.6316    1.8821   -0.9892 C   0  0  0  0  0  0  0  0  0  0  0  0
    0.2199    1.4617   -0.7041 C   0  0  0  0  0  0  0  0  0  0  0  0
    0.0859    0.0812   -0.1432 C   0  0  0  0  0  0  0  0  0  0  0  0
   -1.3415   -0.3287    0.1391 C   0  0  0  0  0  0  0  0  0  0  0  0
   -2.0137    0.5810    1.1368 C   0  0  0  0  0  0  0  0  0  0  0  0
   -3.3141    0.1065    1.3148 O   0  0  0  0  0  0  0  0  0  0  0  0
    1.1542   -0.2934    0.8641 C   0  0  0  0  0  0  0  0  0  0  0  0
    1.0546   -0.9661   -0.5039 C   0  0  0  0  0  0  0  0  0  0  0  0
    0.7019   -2.4322   -0.4189 C   0  0  0  0  0  0  0  0  0  0  0  0
    1.5536    2.9076   -1.4593 H   0  0  0  0  0  0  0  0  0  0  0  0
    2.2229    2.0494   -0.0650 H   0  0  0  0  0  0  0  0  0  0  0  0
    2.1313    1.2103   -1.7129 H   0  0  0  0  0  0  0  0  0  0  0  0
   -0.3548    1.5959   -1.6630 H   0  0  0  0  0  0  0  0  0  0  0  0
   -0.2123    2.2367   -0.0164 H   0  0  0  0  0  0  0  0  0  0  0  0
   -1.4218   -1.3631    0.5281 H   0  0  0  0  0  0  0  0  0  0  0  0
   -1.9011   -0.2527   -0.8039 H   0  0  0  0  0  0  0  0  0  0  0  0
   -1.5294    0.5523    2.1297 H   0  0  0  0  0  0  0  0  0  0  0  0
   -2.1203    1.6226    0.7530 H   0  0  0  0  0  0  0  0  0  0  0  0
   -3.2987   -0.8611    1.2596 H   0  0  0  0  0  0  0  0  0  0  0  0
    2.0416    0.3217    0.9997 H   0  0  0  0  0  0  0  0  0  0  0  0
    0.8620   -0.8704    1.7623 H   0  0  0  0  0  0  0  0  0  0  0  0
    1.8430   -0.7486   -1.2352 H   0  0  0  0  0  0  0  0  0  0  0  0
    1.6839   -2.9800   -0.3549 H   0  0  0  0  0  0  0  0  0  0  0  0
    0.1399   -2.6994    0.4809 H   0  0  0  0  0  0  0  0  0  0  0  0
    0.1814   -2.8131   -1.2983 H   0  0  0  0  0  0  0  0  0  0  0  0
  1  2  1  0
  2  3  1  0
  3  4  1  0
  4  5  1  0
  5  6  1  0
  3  7  1  0
  7  8  1  0
  8  9  1  0
  8  3  1  0
  1 10  1  0
  1 11  1  0
  1 12  1  0
  2 13  1  0
  2 14  1  0
  4 15  1  0
  4 16  1  0
  5 17  1  0
  5 18  1  0
  6 19  1  0
  7 20  1  0
  7 21  1  0
  8 22  1  0
  9 23  1  0
  9 24  1  0
  9 25  1  0
M  END
