
     RDKit          3D

 19 19  0  0  0  0  0  0  0  0999 V2000
    2.6079    0.2764   -0.5584 C   0  0  0  0  0  0  0  0  0  0  0  0
    1.8684   -0.2168    0.6407 C   0  0  0  0  0  0  0  0  0  0  0  0
    0.3763   -0.2149    0.4255 C   0  0  0  0  0  0  0  0  0  0  0  0
   -0.4255   -1.2663    0.4798 C   0  0  0  0  0  0  0  0  0  0  0  0
   -1.8418   -0.8646    0.2112 C   0  0  0  0  0  0  0  0  0  0  0  0
   -1.8195    0.6298    0.4558 C   0  0  0  0  0  0  0  0  0  0  0  0
   -2.7590    1.3163   -0.2730 O   0  0  0  0  0  0  0  0  0  0  0  0
   -0.4329    0.9622    0.1176 C   0  0  0  0  0  0  0  0  0  0  0  0
    0.0492    2.0457   -0.3566 O   0  0  0  0  0  0  0  0  0  0  0  0
    1.9780    0.4130   -1.4565 H   0  0  0  0  0  0  0  0  0  0  0  0
    3.3722   -0.4992   -0.8385 H   0  0  0  0  0  0  0  0  0  0  0  0
    3.2256    1.1952   -0.3432 H   0  0  0  0  0  0  0  0  0  0  0  0
    2.1524   -1.2437    0.9449 H   0  0  0  0  0  0  0  0  0  0  0  0
    2.1187    0.4268    1.5340 H   0  0  0  0  0  0  0  0  0  0  0  0
   -0.1382   -2.2968    0.6875 H   0  0  0  0  0  0  0  0  0  0  0  0
   -2.1564   -1.0777   -0.8142 H   0  0  0  0  0  0  0  0  0  0  0  0
   -2.5525   -1.3434    0.9048 H   0  0  0  0  0  0  0  0  0  0  0  0
   -1.9717    0.7758    1.5414 H   0  0  0  0  0  0  0  0  0  0  0  0
   -3.6511    0.9823   -0.0340 H   0  0  0  0  0  0  0  0  0  0  0  0
  1  2  1  0
  2  3  1  0
  3  4  2  0
  4  5  1  0
  5  6  1  0
  6  7  1  0
  6  8  1  0
  8  9  2  0
  8  3  1  0
  1 10  1  0
  1 11  1  0
  1 12  1  0
  2 13  1  0
  2 14  1  0
  4 15  1  0
  5 16  1  0
  5 17  1  0
  6 18  1  0
  7 19  1  0
M  END
