
     RDKit          3D

 21 22  0  0  0  0  0  0  0  0999 V2000
    2.6235   -0.2986    0.2007 C   0  0  0  0  0  0  0  0  0  0  0  0
    1.3697   -0.5519   -0.6395 C   0  0  0  0  0  0  0  0  0  0  0  0
    0.1896   -0.1995    0.2269 C   0  0  0  0  0  0  0  0  0  0  0  0
    0.2946    1.2284    0.6165 C   0  0  0  0  0  0  0  0  0  0  0  0
   -0.7048    1.9329    0.1408 C   0  0  0  0  0  0  0  0  0  0  0  0
   -1.6033    1.0659   -0.6260 C   0  0  0  0  0  0  0  0  0  0  0  0
   -1.1362    0.3812   -1.7428 O   0  0  0  0  0  0  0  0  0  0  0  0
   -1.1065   -0.2616   -0.5206 C   0  0  0  0  0  0  0  0  0  0  0  0
   -2.0659   -1.3892   -0.2423 C   0  0  0  0  0  0  0  0  0  0  0  0
    2.7328    0.8149    0.2250 H   0  0  0  0  0  0  0  0  0  0  0  0
    2.4809   -0.7101    1.2142 H   0  0  0  0  0  0  0  0  0  0  0  0
    3.5014   -0.7334   -0.3230 H   0  0  0  0  0  0  0  0  0  0  0  0
    1.3551   -1.5914   -0.9755 H   0  0  0  0  0  0  0  0  0  0  0  0
    1.3753    0.1389   -1.5049 H   0  0  0  0  0  0  0  0  0  0  0  0
    0.1018   -0.8391    1.1180 H   0  0  0  0  0  0  0  0  0  0  0  0
    1.1002    1.6727    1.2287 H   0  0  0  0  0  0  0  0  0  0  0  0
   -0.8652    3.0145    0.2835 H   0  0  0  0  0  0  0  0  0  0  0  0
   -2.6879    1.3398   -0.7150 H   0  0  0  0  0  0  0  0  0  0  0  0
   -3.0850   -1.0214   -0.0298 H   0  0  0  0  0  0  0  0  0  0  0  0
   -2.1480   -2.0426   -1.1336 H   0  0  0  0  0  0  0  0  0  0  0  0
   -1.7223   -1.9506    0.6423 H   0  0  0  0  0  0  0  0  0  0  0  0
  1  2  1  0
  2  3  1  0
  3  4  1  0
  4  5  2  0
  5  6  1  0
  6  7  1  0
  7  8  1  0
  8  9  1  0
  8  3  1  0
  8  6  1  0
  1 10  1  0
  1 11  1  0
  1 12  1  0
  2 13  1  0
  2 14  1  0
  3 15  1  0
  4 16  1  0
  5 17  1  0
  6 18  1  0
  9 19  1  0
  9 20  1  0
  9 21  1  0
M  END
