
     RDKit          3D

 19 19  0  0  0  0  0  0  0  0999 V2000
   -2.0333    0.8995   -0.1613 C   0  0  0  0  0  0  0  0  0  0  0  0
   -1.2284   -0.3592   -0.2407 C   0  0  0  0  0  0  0  0  0  0  0  0
    0.1398   -0.2121    0.3871 C   0  0  0  0  0  0  0  0  0  0  0  0
    0.0930    0.1199    1.7205 O   0  0  0  0  0  0  0  0  0  0  0  0
    0.9657   -1.4431    0.1091 C   0  0  0  0  0  0  0  0  0  0  0  0
    2.2820   -0.9459    0.1767 O   0  0  0  0  0  0  0  0  0  0  0  0
    2.2902    0.2847   -0.4526 C   0  0  0  0  0  0  0  0  0  0  0  0
    3.2485    0.8472   -1.0173 O   0  0  0  0  0  0  0  0  0  0  0  0
    0.9256    0.8532   -0.3460 C   0  0  0  0  0  0  0  0  0  0  0  0
   -3.0423    0.6418    0.2305 H   0  0  0  0  0  0  0  0  0  0  0  0
   -1.5438    1.5789    0.5676 H   0  0  0  0  0  0  0  0  0  0  0  0
   -2.1983    1.3865   -1.1500 H   0  0  0  0  0  0  0  0  0  0  0  0
   -1.0806   -0.6007   -1.3118 H   0  0  0  0  0  0  0  0  0  0  0  0
   -1.7223   -1.2211    0.2842 H   0  0  0  0  0  0  0  0  0  0  0  0
   -0.0082   -0.6496    2.3215 H   0  0  0  0  0  0  0  0  0  0  0  0
    0.7521   -1.7429   -0.9374 H   0  0  0  0  0  0  0  0  0  0  0  0
    0.7589   -2.2331    0.8389 H   0  0  0  0  0  0  0  0  0  0  0  0
    0.4818    1.0131   -1.3514 H   0  0  0  0  0  0  0  0  0  0  0  0
    0.9196    1.7830    0.2400 H   0  0  0  0  0  0  0  0  0  0  0  0
  1  2  1  0
  2  3  1  0
  3  4  1  0
  3  5  1  0
  5  6  1  0
  6  7  1  0
  7  8  2  0
  7  9  1  0
  9  3  1  0
  1 10  1  0
  1 11  1  0
  1 12  1  0
  2 13  1  0
  2 14  1  0
  4 15  1  0
  5 16  1  0
  5 17  1  0
  9 18  1  0
  9 19  1  0
M  END
