
     RDKit          3D

 23 24  0  0  0  0  0  0  0  0999 V2000
    2.4040   -0.3710   -0.3604 C   0  0  0  0  0  0  0  0  0  0  0  0
    1.4259    0.6716    0.0979 C   0  0  0  0  0  0  0  0  0  0  0  0
    0.0808    0.5268   -0.5828 C   0  0  0  0  0  0  0  0  0  0  0  0
   -0.8652    1.6209   -0.0697 C   0  0  0  0  0  0  0  0  0  0  0  0
   -1.2923    2.4021   -1.1109 O   0  0  0  0  0  0  0  0  0  0  0  0
   -1.8485    0.5278    0.3681 C   0  0  0  0  0  0  0  0  0  0  0  0
   -0.7641   -0.4569    0.1307 C   0  0  0  0  0  0  0  0  0  0  0  0
   -0.9173   -1.8517   -0.1656 C   0  0  0  0  0  0  0  0  0  0  0  0
   -0.2288   -1.3751    1.1189 C   0  0  0  0  0  0  0  0  0  0  0  0
    1.9223   -1.2008   -0.9170 H   0  0  0  0  0  0  0  0  0  0  0  0
    2.9603   -0.7216    0.5414 H   0  0  0  0  0  0  0  0  0  0  0  0
    3.1986    0.0770   -1.0210 H   0  0  0  0  0  0  0  0  0  0  0  0
    1.2934    0.6499    1.2001 H   0  0  0  0  0  0  0  0  0  0  0  0
    1.8264    1.6802   -0.1505 H   0  0  0  0  0  0  0  0  0  0  0  0
    0.0995    0.3947   -1.6597 H   0  0  0  0  0  0  0  0  0  0  0  0
   -0.4598    2.2119    0.7596 H   0  0  0  0  0  0  0  0  0  0  0  0
   -1.9817    1.9840   -1.6834 H   0  0  0  0  0  0  0  0  0  0  0  0
   -2.0853    0.6678    1.4571 H   0  0  0  0  0  0  0  0  0  0  0  0
   -2.7117    0.5240   -0.2975 H   0  0  0  0  0  0  0  0  0  0  0  0
   -0.2762   -2.3904   -0.9174 H   0  0  0  0  0  0  0  0  0  0  0  0
   -1.8687   -2.3599    0.0067 H   0  0  0  0  0  0  0  0  0  0  0  0
    0.8439   -1.6554    1.1768 H   0  0  0  0  0  0  0  0  0  0  0  0
   -0.7553   -1.5560    2.0789 H   0  0  0  0  0  0  0  0  0  0  0  0
  1  2  1  0
  2  3  1  0
  3  4  1  0
  4  5  1  0
  4  6  1  0
  6  7  1  0
  7  8  1  0
  8  9  1  0
  7  3  1  0
  9  7  1  0
  1 10  1  0
  1 11  1  0
  1 12  1  0
  2 13  1  0
  2 14  1  0
  3 15  1  0
  4 16  1  0
  5 17  1  0
  6 18  1  0
  6 19  1  0
  8 20  1  0
  8 21  1  0
  9 22  1  0
  9 23  1  0
M  END
