
     RDKit          3D

 20 20  0  0  0  0  0  0  0  0999 V2000
    2.3729    0.3094   -0.1115 C   0  0  0  0  0  0  0  0  0  0  0  0
    1.0915   -0.0757   -0.8058 C   0  0  0  0  0  0  0  0  0  0  0  0
   -0.1212    0.0533    0.0540 C   0  0  0  0  0  0  0  0  0  0  0  0
   -0.0688   -0.8019    1.2804 C   0  0  0  0  0  0  0  0  0  0  0  0
   -0.4597    1.3706    0.4150 O   0  0  0  0  0  0  0  0  0  0  0  0
   -1.7926    1.1691    0.0965 C   0  0  0  0  0  0  0  0  0  0  0  0
   -1.3782    0.0023   -0.7512 C   0  0  0  0  0  0  0  0  0  0  0  0
   -2.1362   -1.1281   -0.6849 O   0  0  0  0  0  0  0  0  0  0  0  0
    2.5284    1.4019   -0.2487 H   0  0  0  0  0  0  0  0  0  0  0  0
    3.1941   -0.2397   -0.6497 H   0  0  0  0  0  0  0  0  0  0  0  0
    2.3282    0.0257    0.9538 H   0  0  0  0  0  0  0  0  0  0  0  0
    1.1172   -1.1084   -1.2065 H   0  0  0  0  0  0  0  0  0  0  0  0
    1.0055    0.5891   -1.7066 H   0  0  0  0  0  0  0  0  0  0  0  0
   -1.0485   -0.8882    1.7916 H   0  0  0  0  0  0  0  0  0  0  0  0
    0.3879   -1.8046    1.0814 H   0  0  0  0  0  0  0  0  0  0  0  0
    0.6114   -0.3054    2.0047 H   0  0  0  0  0  0  0  0  0  0  0  0
   -2.4672    0.9172    0.9236 H   0  0  0  0  0  0  0  0  0  0  0  0
   -2.1614    2.0467   -0.4912 H   0  0  0  0  0  0  0  0  0  0  0  0
   -1.2112    0.3199   -1.8114 H   0  0  0  0  0  0  0  0  0  0  0  0
   -1.7922   -1.8533   -0.1333 H   0  0  0  0  0  0  0  0  0  0  0  0
  1  2  1  0
  2  3  1  0
  3  4  1  0
  3  5  1  0
  5  6  1  0
  6  7  1  0
  7  8  1  0
  7  3  1  0
  1  9  1  0
  1 10  1  0
  1 11  1  0
  2 12  1  0
  2 13  1  0
  4 14  1  0
  4 15  1  0
  4 16  1  0
  6 17  1  0
  6 18  1  0
  7 19  1  0
  8 20  1  0
M  END
