
     RDKit          3D

 24 24  0  0  0  0  0  0  0  0999 V2000
    2.5785   -0.8691   -0.2713 C   0  0  0  0  0  0  0  0  0  0  0  0
    1.7068    0.2131    0.2965 C   0  0  0  0  0  0  0  0  0  0  0  0
    0.2810    0.1072   -0.1576 C   0  0  0  0  0  0  0  0  0  0  0  0
   -0.5408    1.2261    0.4506 C   0  0  0  0  0  0  0  0  0  0  0  0
   -1.0073    2.1589   -0.6167 C   0  0  0  0  0  0  0  0  0  0  0  0
   -1.5433    0.2035    0.9305 C   0  0  0  0  0  0  0  0  0  0  0  0
   -0.5753   -0.8993    0.5416 C   0  0  0  0  0  0  0  0  0  0  0  0
   -1.2879   -1.8781   -0.3937 C   0  0  0  0  0  0  0  0  0  0  0  0
    2.1705   -1.1314   -1.2694 H   0  0  0  0  0  0  0  0  0  0  0  0
    3.5948   -0.4788   -0.3937 H   0  0  0  0  0  0  0  0  0  0  0  0
    2.5444   -1.7257    0.4260 H   0  0  0  0  0  0  0  0  0  0  0  0
    1.7685    0.3180    1.3877 H   0  0  0  0  0  0  0  0  0  0  0  0
    2.0994    1.1866   -0.1207 H   0  0  0  0  0  0  0  0  0  0  0  0
    0.1875   -0.0014   -1.2562 H   0  0  0  0  0  0  0  0  0  0  0  0
   -0.0563    1.7236    1.3202 H   0  0  0  0  0  0  0  0  0  0  0  0
   -1.6000    3.0142   -0.2276 H   0  0  0  0  0  0  0  0  0  0  0  0
   -1.5345    1.5789   -1.3962 H   0  0  0  0  0  0  0  0  0  0  0  0
   -0.0844    2.5652   -1.1148 H   0  0  0  0  0  0  0  0  0  0  0  0
   -1.7107    0.1745    2.0201 H   0  0  0  0  0  0  0  0  0  0  0  0
   -2.4789    0.2350    0.3582 H   0  0  0  0  0  0  0  0  0  0  0  0
   -0.0919   -1.4055    1.3923 H   0  0  0  0  0  0  0  0  0  0  0  0
   -2.2490   -1.4633   -0.7617 H   0  0  0  0  0  0  0  0  0  0  0  0
   -1.5107   -2.8006    0.1573 H   0  0  0  0  0  0  0  0  0  0  0  0
   -0.6604   -2.0515   -1.3012 H   0  0  0  0  0  0  0  0  0  0  0  0
  1  2  1  0
  2  3  1  0
  3  4  1  0
  4  5  1  0
  4  6  1  0
  6  7  1  0
  7  8  1  0
  7  3  1  0
  1  9  1  0
  1 10  1  0
  1 11  1  0
  2 12  1  0
  2 13  1  0
  3 14  1  0
  4 15  1  0
  5 16  1  0
  5 17  1  0
  5 18  1  0
  6 19  1  0
  6 20  1  0
  7 21  1  0
  8 22  1  0
  8 23  1  0
  8 24  1  0
M  END
