
     RDKit          3D

 21 22  0  0  0  0  0  0  0  0999 V2000
    1.8549   -1.0287    0.7400 C   0  0  0  0  0  0  0  0  0  0  0  0
    1.4612   -0.4109   -0.5533 C   0  0  0  0  0  0  0  0  0  0  0  0
    0.3645    0.5770   -0.5190 C   0  0  0  0  0  0  0  0  0  0  0  0
    0.6202    1.6802    0.2917 O   0  0  0  0  0  0  0  0  0  0  0  0
   -0.6081    2.3340    0.2641 C   0  0  0  0  0  0  0  0  0  0  0  0
   -1.5911    1.3839    0.1894 O   0  0  0  0  0  0  0  0  0  0  0  0
   -0.9551    0.1389   -0.0284 C   0  0  0  0  0  0  0  0  0  0  0  0
   -1.2371   -0.9358    0.9103 C   0  0  0  0  0  0  0  0  0  0  0  0
   -1.7131   -0.9921   -0.5722 C   0  0  0  0  0  0  0  0  0  0  0  0
    2.9676   -0.9153    0.9219 H   0  0  0  0  0  0  0  0  0  0  0  0
    1.3852   -0.5689    1.6376 H   0  0  0  0  0  0  0  0  0  0  0  0
    1.7089   -2.1246    0.6721 H   0  0  0  0  0  0  0  0  0  0  0  0
    2.3612    0.1160   -0.9855 H   0  0  0  0  0  0  0  0  0  0  0  0
    1.2032   -1.1723   -1.3386 H   0  0  0  0  0  0  0  0  0  0  0  0
    0.2387    1.0042   -1.5519 H   0  0  0  0  0  0  0  0  0  0  0  0
   -0.7670    2.9358    1.2070 H   0  0  0  0  0  0  0  0  0  0  0  0
   -0.6360    3.0864   -0.5596 H   0  0  0  0  0  0  0  0  0  0  0  0
   -2.0421   -0.7229    1.6671 H   0  0  0  0  0  0  0  0  0  0  0  0
   -0.6041   -1.7920    1.1520 H   0  0  0  0  0  0  0  0  0  0  0  0
   -1.2018   -1.6757   -1.2515 H   0  0  0  0  0  0  0  0  0  0  0  0
   -2.8100   -0.9172   -0.6808 H   0  0  0  0  0  0  0  0  0  0  0  0
  1  2  1  0
  2  3  1  0
  3  4  1  0
  4  5  1  0
  5  6  1  0
  6  7  1  0
  7  8  1  0
  8  9  1  0
  7  3  1  0
  9  7  1  0
  1 10  1  0
  1 11  1  0
  1 12  1  0
  2 13  1  0
  2 14  1  0
  3 15  1  0
  5 16  1  0
  5 17  1  0
  8 18  1  0
  8 19  1  0
  9 20  1  0
  9 21  1  0
M  END
