
     RDKit          3D

 21 23  0  0  0  0  0  0  0  0999 V2000
    2.8996   -0.3265    0.0071 C   0  0  0  0  0  0  0  0  0  0  0  0
    1.6593    0.4068   -0.4945 C   0  0  0  0  0  0  0  0  0  0  0  0
    0.5757    0.3125    0.5624 C   0  0  0  0  0  0  0  0  0  0  0  0
    0.2488   -1.0434    0.8167 O   0  0  0  0  0  0  0  0  0  0  0  0
   -1.0850   -1.0938    0.4929 C   0  0  0  0  0  0  0  0  0  0  0  0
   -1.2508   -0.2984   -0.7683 C   0  0  0  0  0  0  0  0  0  0  0  0
   -2.6054    0.0948   -0.2451 C   0  0  0  0  0  0  0  0  0  0  0  0
   -1.7274    0.1900    0.9610 C   0  0  0  0  0  0  0  0  0  0  0  0
   -0.7201    0.8292    0.0584 C   0  0  0  0  0  0  0  0  0  0  0  0
    2.7310   -1.4111   -0.0085 H   0  0  0  0  0  0  0  0  0  0  0  0
    3.7384   -0.0163   -0.6487 H   0  0  0  0  0  0  0  0  0  0  0  0
    3.1028    0.0395    1.0398 H   0  0  0  0  0  0  0  0  0  0  0  0
    1.3295   -0.0019   -1.4513 H   0  0  0  0  0  0  0  0  0  0  0  0
    1.9400    1.4720   -0.5630 H   0  0  0  0  0  0  0  0  0  0  0  0
    0.9015    0.7483    1.5263 H   0  0  0  0  0  0  0  0  0  0  0  0
   -1.6325   -2.0090    0.6086 H   0  0  0  0  0  0  0  0  0  0  0  0
   -1.0055   -0.5591   -1.6996 H   0  0  0  0  0  0  0  0  0  0  0  0
   -3.3691   -0.6844   -0.2116 H   0  0  0  0  0  0  0  0  0  0  0  0
   -2.9214    1.0794   -0.6416 H   0  0  0  0  0  0  0  0  0  0  0  0
   -1.9699    0.4349    1.8968 H   0  0  0  0  0  0  0  0  0  0  0  0
   -0.8394    1.8365   -0.2586 H   0  0  0  0  0  0  0  0  0  0  0  0
  1  2  1  0
  2  3  1  0
  3  4  1  0
  4  5  1  0
  5  6  1  0
  6  7  1  0
  7  8  1  0
  8  9  1  0
  9  3  1  0
  8  5  1  0
  9  6  1  0
  1 10  1  0
  1 11  1  0
  1 12  1  0
  2 13  1  0
  2 14  1  0
  3 15  1  0
  5 16  1  0
  6 17  1  0
  7 18  1  0
  7 19  1  0
  8 20  1  0
  9 21  1  0
M  END
