
     RDKit          3D

 19 20  0  0  0  0  0  0  0  0999 V2000
    2.3403    0.3788   -0.0211 C   0  0  0  0  0  0  0  0  0  0  0  0
    1.1188   -0.0202    0.8174 C   0  0  0  0  0  0  0  0  0  0  0  0
   -0.0141   -0.2260   -0.1243 C   0  0  0  0  0  0  0  0  0  0  0  0
   -0.4896    0.9048   -1.0039 C   0  0  0  0  0  0  0  0  0  0  0  0
   -1.8950    0.5651   -0.6896 C   0  0  0  0  0  0  0  0  0  0  0  0
   -2.9920    0.9015   -1.0505 O   0  0  0  0  0  0  0  0  0  0  0  0
   -1.4085   -0.4138    0.3067 C   0  0  0  0  0  0  0  0  0  0  0  0
   -1.7977   -0.3128    1.6287 O   0  0  0  0  0  0  0  0  0  0  0  0
   -0.6420   -1.5533   -0.2052 C   0  0  0  0  0  0  0  0  0  0  0  0
    2.2829   -0.2084   -0.9780 H   0  0  0  0  0  0  0  0  0  0  0  0
    3.2734    0.2052    0.5221 H   0  0  0  0  0  0  0  0  0  0  0  0
    2.1893    1.4405   -0.3051 H   0  0  0  0  0  0  0  0  0  0  0  0
    0.9237    0.8332    1.5074 H   0  0  0  0  0  0  0  0  0  0  0  0
    1.3491   -0.9483    1.3759 H   0  0  0  0  0  0  0  0  0  0  0  0
   -0.1935    0.8415   -2.0639 H   0  0  0  0  0  0  0  0  0  0  0  0
   -0.1609    1.8992   -0.6029 H   0  0  0  0  0  0  0  0  0  0  0  0
   -2.7420   -0.0499    1.7408 H   0  0  0  0  0  0  0  0  0  0  0  0
   -0.8328   -1.9327   -1.2400 H   0  0  0  0  0  0  0  0  0  0  0  0
   -0.3091   -2.3046    0.5193 H   0  0  0  0  0  0  0  0  0  0  0  0
  1  2  1  0
  2  3  1  0
  3  4  1  0
  4  5  1  0
  5  6  2  0
  5  7  1  0
  7  8  1  0
  7  9  1  0
  7  3  1  0
  9  3  1  0
  1 10  1  0
  1 11  1  0
  1 12  1  0
  2 13  1  0
  2 14  1  0
  4 15  1  0
  4 16  1  0
  8 17  1  0
  9 18  1  0
  9 19  1  0
M  END
