
     RDKit          3D

 21 22  0  0  0  0  0  0  0  0999 V2000
    2.4078   -0.5611    1.1475 C   0  0  0  0  0  0  0  0  0  0  0  0
    1.7617    0.5638    0.3711 C   0  0  0  0  0  0  0  0  0  0  0  0
    0.6322    0.0012   -0.5190 C   0  0  0  0  0  0  0  0  0  0  0  0
   -0.0788    0.8675   -1.3046 C   0  0  0  0  0  0  0  0  0  0  0  0
   -0.6867    0.2943   -0.1264 C   0  0  0  0  0  0  0  0  0  0  0  0
   -1.2625   -0.8965    0.4268 C   0  0  0  0  0  0  0  0  0  0  0  0
   -2.4265   -0.7103   -0.5189 C   0  0  0  0  0  0  0  0  0  0  0  0
   -3.2034   -1.3181   -1.1833 O   0  0  0  0  0  0  0  0  0  0  0  0
   -2.0369    0.7012   -0.1356 C   0  0  0  0  0  0  0  0  0  0  0  0
    1.6963   -1.1659    1.7128 H   0  0  0  0  0  0  0  0  0  0  0  0
    3.1743   -0.1006    1.7967 H   0  0  0  0  0  0  0  0  0  0  0  0
    2.9528   -1.2244    0.4274 H   0  0  0  0  0  0  0  0  0  0  0  0
    2.5231    0.9447   -0.3408 H   0  0  0  0  0  0  0  0  0  0  0  0
    1.3765    1.3170    1.0651 H   0  0  0  0  0  0  0  0  0  0  0  0
    1.0077   -0.9727   -0.9688 H   0  0  0  0  0  0  0  0  0  0  0  0
    0.0619    1.9808   -1.2419 H   0  0  0  0  0  0  0  0  0  0  0  0
   -0.3710    0.5961   -2.3624 H   0  0  0  0  0  0  0  0  0  0  0  0
   -1.6774   -0.6855    1.4617 H   0  0  0  0  0  0  0  0  0  0  0  0
   -0.8442   -1.8921    0.4393 H   0  0  0  0  0  0  0  0  0  0  0  0
   -2.4579    0.8528    0.9074 H   0  0  0  0  0  0  0  0  0  0  0  0
   -2.5487    1.4077   -0.7839 H   0  0  0  0  0  0  0  0  0  0  0  0
  1  2  1  0
  2  3  1  0
  3  4  1  0
  4  5  1  0
  5  6  1  0
  6  7  1  0
  7  8  2  0
  7  9  1  0
  5  3  1  0
  9  5  1  0
  1 10  1  0
  1 11  1  0
  1 12  1  0
  2 13  1  0
  2 14  1  0
  3 15  1  0
  4 16  1  0
  4 17  1  0
  6 18  1  0
  6 19  1  0
  9 20  1  0
  9 21  1  0
M  END
