
     RDKit          3D

 25 26  0  0  0  0  0  0  0  0999 V2000
    2.7913    0.5654   -0.0632 C   0  0  0  0  0  0  0  0  0  0  0  0
    1.5501   -0.0298   -0.6878 C   0  0  0  0  0  0  0  0  0  0  0  0
    0.6919   -0.7452    0.3422 C   0  0  0  0  0  0  0  0  0  0  0  0
    0.2755    0.2678    1.4063 C   0  0  0  0  0  0  0  0  0  0  0  0
   -1.0798    0.2785    0.6978 C   0  0  0  0  0  0  0  0  0  0  0  0
   -1.6127    1.5199    0.1140 C   0  0  0  0  0  0  0  0  0  0  0  0
   -1.8554   -0.9604    0.8828 C   0  0  0  0  0  0  0  0  0  0  0  0
   -0.7205   -0.9241   -0.0609 C   0  0  0  0  0  0  0  0  0  0  0  0
   -1.0296   -1.1297   -1.5008 C   0  0  0  0  0  0  0  0  0  0  0  0
    3.5465    0.7220   -0.8786 H   0  0  0  0  0  0  0  0  0  0  0  0
    2.6097    1.5518    0.3823 H   0  0  0  0  0  0  0  0  0  0  0  0
    3.2685   -0.1322    0.6589 H   0  0  0  0  0  0  0  0  0  0  0  0
    0.9195    0.8006   -1.0907 H   0  0  0  0  0  0  0  0  0  0  0  0
    1.8548   -0.6673   -1.5168 H   0  0  0  0  0  0  0  0  0  0  0  0
    1.2142   -1.6391    0.7574 H   0  0  0  0  0  0  0  0  0  0  0  0
    0.1310   -0.2110    2.4135 H   0  0  0  0  0  0  0  0  0  0  0  0
    0.8163    1.2109    1.3979 H   0  0  0  0  0  0  0  0  0  0  0  0
   -1.0859    2.4027    0.5586 H   0  0  0  0  0  0  0  0  0  0  0  0
   -1.5149    1.6201   -0.9813 H   0  0  0  0  0  0  0  0  0  0  0  0
   -2.6804    1.6407    0.4250 H   0  0  0  0  0  0  0  0  0  0  0  0
   -2.8592   -0.9721    0.4616 H   0  0  0  0  0  0  0  0  0  0  0  0
   -1.7797   -1.4342    1.8809 H   0  0  0  0  0  0  0  0  0  0  0  0
   -1.6312   -0.3109   -1.9014 H   0  0  0  0  0  0  0  0  0  0  0  0
   -1.6799   -2.0515   -1.5731 H   0  0  0  0  0  0  0  0  0  0  0  0
   -0.1401   -1.3728   -2.1247 H   0  0  0  0  0  0  0  0  0  0  0  0
  1  2  1  0
  2  3  1  0
  3  4  1  0
  4  5  1  0
  5  6  1  0
  5  7  1  0
  7  8  1  0
  8  9  1  0
  8  3  1  0
  8  5  1  0
  1 10  1  0
  1 11  1  0
  1 12  1  0
  2 13  1  0
  2 14  1  0
  3 15  1  0
  4 16  1  0
  4 17  1  0
  6 18  1  0
  6 19  1  0
  6 20  1  0
  7 21  1  0
  7 22  1  0
  9 23  1  0
  9 24  1  0
  9 25  1  0
M  END
