
     RDKit          3D

 21 22  0  0  0  0  0  0  0  0999 V2000
    2.5953    0.4234    0.1089 C   0  0  0  0  0  0  0  0  0  0  0  0
    1.5021   -0.3464    0.8393 C   0  0  0  0  0  0  0  0  0  0  0  0
    0.2157   -0.0766    0.0424 C   0  0  0  0  0  0  0  0  0  0  0  0
    0.3297   -0.5499   -1.3872 C   0  0  0  0  0  0  0  0  0  0  0  0
   -0.6106   -1.2065   -0.3592 C   0  0  0  0  0  0  0  0  0  0  0  0
   -2.0322   -0.9404   -0.5775 C   0  0  0  0  0  0  0  0  0  0  0  0
   -2.4807    0.2754   -0.4714 C   0  0  0  0  0  0  0  0  0  0  0  0
   -1.5923    1.3804   -0.1384 C   0  0  0  0  0  0  0  0  0  0  0  0
   -0.3834    1.0915    0.3589 O   0  0  0  0  0  0  0  0  0  0  0  0
    2.1675    1.3421   -0.3413 H   0  0  0  0  0  0  0  0  0  0  0  0
    3.4266    0.7036    0.7596 H   0  0  0  0  0  0  0  0  0  0  0  0
    2.9325   -0.2285   -0.7308 H   0  0  0  0  0  0  0  0  0  0  0  0
    1.3941    0.0174    1.8853 H   0  0  0  0  0  0  0  0  0  0  0  0
    1.7541   -1.4194    0.8265 H   0  0  0  0  0  0  0  0  0  0  0  0
    1.1771   -1.1742   -1.6982 H   0  0  0  0  0  0  0  0  0  0  0  0
   -0.1298    0.1393   -2.1212 H   0  0  0  0  0  0  0  0  0  0  0  0
   -0.3693   -2.2596   -0.0830 H   0  0  0  0  0  0  0  0  0  0  0  0
   -2.7113   -1.7443   -0.8259 H   0  0  0  0  0  0  0  0  0  0  0  0
   -3.5431    0.4982   -0.6308 H   0  0  0  0  0  0  0  0  0  0  0  0
   -1.5032    2.0313   -1.0575 H   0  0  0  0  0  0  0  0  0  0  0  0
   -2.1388    2.0433    0.5965 H   0  0  0  0  0  0  0  0  0  0  0  0
  1  2  1  0
  2  3  1  0
  3  4  1  0
  4  5  1  0
  5  6  1  0
  6  7  2  0
  7  8  1  0
  8  9  1  0
  5  3  1  0
  9  3  1  0
  1 10  1  0
  1 11  1  0
  1 12  1  0
  2 13  1  0
  2 14  1  0
  4 15  1  0
  4 16  1  0
  5 17  1  0
  6 18  1  0
  7 19  1  0
  8 20  1  0
  8 21  1  0
M  END
