
     RDKit          3D

 23 23  0  0  0  0  0  0  0  0999 V2000
   -1.9576   -1.3241    0.8439 C   0  0  0  0  0  0  0  0  0  0  0  0
   -0.9981   -1.0306   -0.2514 C   0  0  0  0  0  0  0  0  0  0  0  0
   -0.5563    0.4089   -0.3118 C   0  0  0  0  0  0  0  0  0  0  0  0
   -1.6170    1.4050   -0.5165 C   0  0  0  0  0  0  0  0  0  0  0  0
   -1.5686    2.4887    0.0427 O   0  0  0  0  0  0  0  0  0  0  0  0
    0.6245    0.5199   -1.2634 C   0  0  0  0  0  0  0  0  0  0  0  0
    1.5808    0.7210   -0.1310 C   0  0  0  0  0  0  0  0  0  0  0  0
    2.4740   -0.4295    0.2094 C   0  0  0  0  0  0  0  0  0  0  0  0
    0.3891    0.8034    0.8041 C   0  0  0  0  0  0  0  0  0  0  0  0
   -2.9968   -1.4628    0.4259 H   0  0  0  0  0  0  0  0  0  0  0  0
   -2.0343   -0.5331    1.6177 H   0  0  0  0  0  0  0  0  0  0  0  0
   -1.7040   -2.3046    1.2975 H   0  0  0  0  0  0  0  0  0  0  0  0
   -0.0945   -1.6480   -0.1386 H   0  0  0  0  0  0  0  0  0  0  0  0
   -1.4677   -1.2887   -1.2320 H   0  0  0  0  0  0  0  0  0  0  0  0
   -2.4788    1.2447   -1.1549 H   0  0  0  0  0  0  0  0  0  0  0  0
    0.8044   -0.3731   -1.8921 H   0  0  0  0  0  0  0  0  0  0  0  0
    0.5632    1.4343   -1.9127 H   0  0  0  0  0  0  0  0  0  0  0  0
    2.1745    1.6551   -0.2126 H   0  0  0  0  0  0  0  0  0  0  0  0
    2.3416   -0.6537    1.3036 H   0  0  0  0  0  0  0  0  0  0  0  0
    2.2888   -1.3386   -0.3827 H   0  0  0  0  0  0  0  0  0  0  0  0
    3.5622   -0.1947    0.0844 H   0  0  0  0  0  0  0  0  0  0  0  0
    0.3969    0.0511    1.6228 H   0  0  0  0  0  0  0  0  0  0  0  0
    0.2738    1.8494    1.1476 H   0  0  0  0  0  0  0  0  0  0  0  0
  1  2  1  0
  2  3  1  0
  3  4  1  0
  4  5  2  0
  3  6  1  0
  6  7  1  0
  7  8  1  0
  7  9  1  0
  9  3  1  0
  1 10  1  0
  1 11  1  0
  1 12  1  0
  2 13  1  0
  2 14  1  0
  4 15  1  0
  6 16  1  0
  6 17  1  0
  7 18  1  0
  8 19  1  0
  8 20  1  0
  8 21  1  0
  9 22  1  0
  9 23  1  0
M  END
