
     RDKit          3D

 23 23  0  0  0  0  0  0  0  0999 V2000
    2.4502   -0.4548    0.0767 C   0  0  0  0  0  0  0  0  0  0  0  0
    1.0424   -0.9903    0.2389 C   0  0  0  0  0  0  0  0  0  0  0  0
    0.1927   -0.0620    1.0652 C   0  0  0  0  0  0  0  0  0  0  0  0
    0.7538    0.0864    2.3308 O   0  0  0  0  0  0  0  0  0  0  0  0
   -1.2584   -0.3077    1.1046 C   0  0  0  0  0  0  0  0  0  0  0  0
   -1.8798   -1.1478    0.0454 C   0  0  0  0  0  0  0  0  0  0  0  0
   -1.4949    1.1723    0.8051 C   0  0  0  0  0  0  0  0  0  0  0  0
   -0.0176    1.2936    0.4285 C   0  0  0  0  0  0  0  0  0  0  0  0
    0.1698    1.3063   -0.9490 O   0  0  0  0  0  0  0  0  0  0  0  0
    3.0087   -1.2175   -0.5323 H   0  0  0  0  0  0  0  0  0  0  0  0
    2.9237   -0.5033    1.0878 H   0  0  0  0  0  0  0  0  0  0  0  0
    2.4849    0.5502   -0.3636 H   0  0  0  0  0  0  0  0  0  0  0  0
    1.1255   -1.9683    0.7430 H   0  0  0  0  0  0  0  0  0  0  0  0
    0.5656   -1.1931   -0.7585 H   0  0  0  0  0  0  0  0  0  0  0  0
    1.5573    0.6593    2.2289 H   0  0  0  0  0  0  0  0  0  0  0  0
   -1.6801   -0.5372    2.1249 H   0  0  0  0  0  0  0  0  0  0  0  0
   -2.8716   -1.4955    0.4056 H   0  0  0  0  0  0  0  0  0  0  0  0
   -1.3036   -2.0484   -0.2212 H   0  0  0  0  0  0  0  0  0  0  0  0
   -2.0281   -0.5508   -0.8961 H   0  0  0  0  0  0  0  0  0  0  0  0
   -1.7954    1.7739    1.6702 H   0  0  0  0  0  0  0  0  0  0  0  0
   -2.1550    1.3610   -0.0580 H   0  0  0  0  0  0  0  0  0  0  0  0
    0.5068    2.1364    0.9402 H   0  0  0  0  0  0  0  0  0  0  0  0
   -0.2971    2.1372   -1.2744 H   0  0  0  0  0  0  0  0  0  0  0  0
  1  2  1  0
  2  3  1  0
  3  4  1  0
  3  5  1  0
  5  6  1  0
  5  7  1  0
  7  8  1  0
  8  9  1  0
  8  3  1  0
  1 10  1  0
  1 11  1  0
  1 12  1  0
  2 13  1  0
  2 14  1  0
  4 15  1  0
  5 16  1  0
  6 17  1  0
  6 18  1  0
  6 19  1  0
  7 20  1  0
  7 21  1  0
  8 22  1  0
  9 23  1  0
M  END
