
     RDKit          3D

 23 24  0  0  0  0  0  0  0  0999 V2000
    2.2792   -0.0020    0.8309 C   0  0  0  0  0  0  0  0  0  0  0  0
    1.8869    0.2403   -0.5992 C   0  0  0  0  0  0  0  0  0  0  0  0
    0.4150    0.0410   -0.8489 C   0  0  0  0  0  0  0  0  0  0  0  0
    0.0841   -1.3874   -0.4906 C   0  0  0  0  0  0  0  0  0  0  0  0
   -1.3628   -1.2970   -0.0883 C   0  0  0  0  0  0  0  0  0  0  0  0
   -1.4158    0.0248    0.6320 C   0  0  0  0  0  0  0  0  0  0  0  0
   -1.8482    1.1653   -0.2265 C   0  0  0  0  0  0  0  0  0  0  0  0
   -2.4569    2.2113    0.4300 O   0  0  0  0  0  0  0  0  0  0  0  0
   -0.4222    0.9271    0.0163 C   0  0  0  0  0  0  0  0  0  0  0  0
    3.0620    0.7642    1.0874 H   0  0  0  0  0  0  0  0  0  0  0  0
    2.6647   -1.0286    1.0008 H   0  0  0  0  0  0  0  0  0  0  0  0
    1.4604    0.1591    1.5464 H   0  0  0  0  0  0  0  0  0  0  0  0
    2.1821    1.2148   -0.9933 H   0  0  0  0  0  0  0  0  0  0  0  0
    2.4224   -0.5342   -1.2153 H   0  0  0  0  0  0  0  0  0  0  0  0
    0.2396    0.1659   -1.9328 H   0  0  0  0  0  0  0  0  0  0  0  0
    0.7224   -1.7821    0.3240 H   0  0  0  0  0  0  0  0  0  0  0  0
    0.1816   -2.0652   -1.3708 H   0  0  0  0  0  0  0  0  0  0  0  0
   -1.9643   -1.2802   -1.0317 H   0  0  0  0  0  0  0  0  0  0  0  0
   -1.6522   -2.1546    0.5238 H   0  0  0  0  0  0  0  0  0  0  0  0
   -1.5954   -0.0078    1.7061 H   0  0  0  0  0  0  0  0  0  0  0  0
   -2.2582    0.9849   -1.2490 H   0  0  0  0  0  0  0  0  0  0  0  0
   -2.7378    1.9323    1.3576 H   0  0  0  0  0  0  0  0  0  0  0  0
    0.1137    1.7081    0.5912 H   0  0  0  0  0  0  0  0  0  0  0  0
  1  2  1  0
  2  3  1  0
  3  4  1  0
  4  5  1  0
  5  6  1  0
  6  7  1  0
  7  8  1  0
  7  9  1  0
  9  3  1  0
  9  6  1  0
  1 10  1  0
  1 11  1  0
  1 12  1  0
  2 13  1  0
  2 14  1  0
  3 15  1  0
  4 16  1  0
  4 17  1  0
  5 18  1  0
  5 19  1  0
  6 20  1  0
  7 21  1  0
  8 22  1  0
  9 23  1  0
M  END
