
     RDKit          3D

 20 20  0  0  0  0  0  0  0  0999 V2000
   -2.1979    0.2204   -0.1418 C   0  0  0  0  0  0  0  0  0  0  0  0
   -1.1353   -0.8186    0.0686 C   0  0  0  0  0  0  0  0  0  0  0  0
    0.2664   -0.2664    0.1748 C   0  0  0  0  0  0  0  0  0  0  0  0
    1.3562   -1.3192    0.3700 C   0  0  0  0  0  0  0  0  0  0  0  0
    2.6115   -0.7203    0.4571 O   0  0  0  0  0  0  0  0  0  0  0  0
    0.4397    0.9987    0.9099 C   0  0  0  0  0  0  0  0  0  0  0  0
    0.6346    0.9540   -0.5531 C   0  0  0  0  0  0  0  0  0  0  0  0
   -0.3394    1.4473   -1.4297 O   0  0  0  0  0  0  0  0  0  0  0  0
   -3.1443   -0.1567    0.3449 H   0  0  0  0  0  0  0  0  0  0  0  0
   -2.3691    0.3027   -1.2519 H   0  0  0  0  0  0  0  0  0  0  0  0
   -1.9322    1.1965    0.2589 H   0  0  0  0  0  0  0  0  0  0  0  0
   -1.3408   -1.4260    0.9838 H   0  0  0  0  0  0  0  0  0  0  0  0
   -1.1311   -1.5088   -0.8274 H   0  0  0  0  0  0  0  0  0  0  0  0
    1.3163   -2.0923   -0.4197 H   0  0  0  0  0  0  0  0  0  0  0  0
    1.1409   -1.8170    1.3393 H   0  0  0  0  0  0  0  0  0  0  0  0
    3.1696   -1.1148   -0.2816 H   0  0  0  0  0  0  0  0  0  0  0  0
    1.3868    1.0646    1.5247 H   0  0  0  0  0  0  0  0  0  0  0  0
   -0.3409    1.6411    1.2971 H   0  0  0  0  0  0  0  0  0  0  0  0
    1.6553    1.1452   -0.9261 H   0  0  0  0  0  0  0  0  0  0  0  0
   -0.0462    2.2697   -1.8977 H   0  0  0  0  0  0  0  0  0  0  0  0
  1  2  1  0
  2  3  1  0
  3  4  1  0
  4  5  1  0
  3  6  1  0
  6  7  1  0
  7  8  1  0
  7  3  1  0
  1  9  1  0
  1 10  1  0
  1 11  1  0
  2 12  1  0
  2 13  1  0
  4 14  1  0
  4 15  1  0
  5 16  1  0
  6 17  1  0
  6 18  1  0
  7 19  1  0
  8 20  1  0
M  END
