
     RDKit          3D

 21 23  0  0  0  0  0  0  0  0999 V2000
    2.2555   -0.7624    0.5195 C   0  0  0  0  0  0  0  0  0  0  0  0
    0.9733   -1.1870   -0.0987 C   0  0  0  0  0  0  0  0  0  0  0  0
   -0.0642   -0.1577   -0.2231 C   0  0  0  0  0  0  0  0  0  0  0  0
    0.2112    1.0707   -1.0271 C   0  0  0  0  0  0  0  0  0  0  0  0
   -0.4813    2.1201   -0.4683 O   0  0  0  0  0  0  0  0  0  0  0  0
   -1.2331    1.6767    0.5880 C   0  0  0  0  0  0  0  0  0  0  0  0
   -1.9551    0.3864    0.4875 C   0  0  0  0  0  0  0  0  0  0  0  0
   -1.4593   -0.6713   -0.5023 C   0  0  0  0  0  0  0  0  0  0  0  0
   -0.6067    0.4381    1.0447 C   0  0  0  0  0  0  0  0  0  0  0  0
    2.8995   -0.2916   -0.2385 H   0  0  0  0  0  0  0  0  0  0  0  0
    2.7941   -1.7003    0.8475 H   0  0  0  0  0  0  0  0  0  0  0  0
    2.0335   -0.1111    1.3825 H   0  0  0  0  0  0  0  0  0  0  0  0
    1.2011   -1.5768   -1.1325 H   0  0  0  0  0  0  0  0  0  0  0  0
    0.5428   -2.0633    0.4382 H   0  0  0  0  0  0  0  0  0  0  0  0
   -0.1741    0.9640   -2.0844 H   0  0  0  0  0  0  0  0  0  0  0  0
    1.3008    1.2764   -1.1441 H   0  0  0  0  0  0  0  0  0  0  0  0
   -1.6752    2.4403    1.2148 H   0  0  0  0  0  0  0  0  0  0  0  0
   -2.7870    0.1178    1.1306 H   0  0  0  0  0  0  0  0  0  0  0  0
   -1.6346   -1.7079   -0.1811 H   0  0  0  0  0  0  0  0  0  0  0  0
   -1.8546   -0.4373   -1.5084 H   0  0  0  0  0  0  0  0  0  0  0  0
   -0.2867    0.1763    2.0262 H   0  0  0  0  0  0  0  0  0  0  0  0
  1  2  1  0
  2  3  1  0
  3  4  1  0
  4  5  1  0
  5  6  1  0
  6  7  1  0
  7  8  1  0
  7  9  1  0
  8  3  1  0
  9  3  1  0
  9  6  1  0
  1 10  1  0
  1 11  1  0
  1 12  1  0
  2 13  1  0
  2 14  1  0
  4 15  1  0
  4 16  1  0
  6 17  1  0
  7 18  1  0
  8 19  1  0
  8 20  1  0
  9 21  1  0
M  END
