
     RDKit          3D

 19 20  0  0  0  0  0  0  0  0999 V2000
    1.9422   -0.7754    0.4853 C   0  0  0  0  0  0  0  0  0  0  0  0
    1.4803    0.2285   -0.5060 C   0  0  0  0  0  0  0  0  0  0  0  0
    0.0344    0.4219   -0.6742 C   0  0  0  0  0  0  0  0  0  0  0  0
   -0.8065    0.8643    0.4817 C   0  0  0  0  0  0  0  0  0  0  0  0
   -2.1773    0.8214   -0.1629 C   0  0  0  0  0  0  0  0  0  0  0  0
   -2.0898   -0.4449   -0.8007 O   0  0  0  0  0  0  0  0  0  0  0  0
   -0.8069   -0.8516   -0.4691 C   0  0  0  0  0  0  0  0  0  0  0  0
   -0.7345   -0.5300    0.9710 C   0  0  0  0  0  0  0  0  0  0  0  0
   -0.6574   -1.0762    2.0253 O   0  0  0  0  0  0  0  0  0  0  0  0
    1.9206   -0.3308    1.5069 H   0  0  0  0  0  0  0  0  0  0  0  0
    1.4599   -1.7525    0.4368 H   0  0  0  0  0  0  0  0  0  0  0  0
    3.0262   -0.9875    0.2259 H   0  0  0  0  0  0  0  0  0  0  0  0
    1.9375    1.2174   -0.2144 H   0  0  0  0  0  0  0  0  0  0  0  0
    1.9308   -0.0456   -1.5046 H   0  0  0  0  0  0  0  0  0  0  0  0
   -0.2471    0.9269   -1.6208 H   0  0  0  0  0  0  0  0  0  0  0  0
   -0.5316    1.6714    1.0920 H   0  0  0  0  0  0  0  0  0  0  0  0
   -2.9956    0.8513    0.5603 H   0  0  0  0  0  0  0  0  0  0  0  0
   -2.2719    1.5528   -0.9929 H   0  0  0  0  0  0  0  0  0  0  0  0
   -0.4131   -1.7611   -0.8396 H   0  0  0  0  0  0  0  0  0  0  0  0
  1  2  1  0
  2  3  1  0
  3  4  1  0
  4  5  1  0
  5  6  1  0
  6  7  1  0
  7  8  1  0
  8  9  2  0
  7  3  1  0
  8  4  1  0
  1 10  1  0
  1 11  1  0
  1 12  1  0
  2 13  1  0
  2 14  1  0
  3 15  1  0
  4 16  1  0
  5 17  1  0
  5 18  1  0
  7 19  1  0
M  END
