
     RDKit          3D

 18 18  0  0  0  0  0  0  0  0999 V2000
    1.8369    0.2541   -0.8514 C   0  0  0  0  0  0  0  0  0  0  0  0
    1.2980   -0.0322    0.5113 C   0  0  0  0  0  0  0  0  0  0  0  0
   -0.1765    0.0391    0.6277 C   0  0  0  0  0  0  0  0  0  0  0  0
   -0.5970   -0.2388    1.9218 O   0  0  0  0  0  0  0  0  0  0  0  0
   -0.9041   -0.8465   -0.3949 C   0  0  0  0  0  0  0  0  0  0  0  0
   -1.9987    0.2220   -0.2455 C   0  0  0  0  0  0  0  0  0  0  0  0
   -0.8648    1.1750   -0.0205 C   0  0  0  0  0  0  0  0  0  0  0  0
   -0.7140    2.3454   -0.3021 O   0  0  0  0  0  0  0  0  0  0  0  0
    2.9367    0.3573   -0.7676 H   0  0  0  0  0  0  0  0  0  0  0  0
    1.6128   -0.6149   -1.4979 H   0  0  0  0  0  0  0  0  0  0  0  0
    1.4207    1.1838   -1.2992 H   0  0  0  0  0  0  0  0  0  0  0  0
    1.6075   -1.0878    0.7665 H   0  0  0  0  0  0  0  0  0  0  0  0
    1.7473    0.5967    1.3071 H   0  0  0  0  0  0  0  0  0  0  0  0
   -0.4643   -1.2082    2.0638 H   0  0  0  0  0  0  0  0  0  0  0  0
   -1.1765   -1.8361   -0.0289 H   0  0  0  0  0  0  0  0  0  0  0  0
   -0.4425   -0.7628   -1.3858 H   0  0  0  0  0  0  0  0  0  0  0  0
   -2.6042    0.3908   -1.1253 H   0  0  0  0  0  0  0  0  0  0  0  0
   -2.5174    0.0633    0.7208 H   0  0  0  0  0  0  0  0  0  0  0  0
  1  2  1  0
  2  3  1  0
  3  4  1  0
  3  5  1  0
  5  6  1  0
  6  7  1  0
  7  8  2  0
  7  3  1  0
  1  9  1  0
  1 10  1  0
  1 11  1  0
  2 12  1  0
  2 13  1  0
  4 14  1  0
  5 15  1  0
  5 16  1  0
  6 17  1  0
  6 18  1  0
M  END
