
     RDKit          3D

 23 24  0  0  0  0  0  0  0  0999 V2000
   -2.9316    0.5081   -0.0242 C   0  0  0  0  0  0  0  0  0  0  0  0
   -1.8557   -0.0257   -0.9303 C   0  0  0  0  0  0  0  0  0  0  0  0
   -0.8222   -0.7622   -0.1331 C   0  0  0  0  0  0  0  0  0  0  0  0
   -0.1561    0.1339    0.8992 C   0  0  0  0  0  0  0  0  0  0  0  0
    1.1323   -0.0177    0.1538 C   0  0  0  0  0  0  0  0  0  0  0  0
    2.4151   -0.2617    0.8425 C   0  0  0  0  0  0  0  0  0  0  0  0
    2.6522    0.8273    1.7128 O   0  0  0  0  0  0  0  0  0  0  0  0
    1.1784    0.2921   -1.2981 C   0  0  0  0  0  0  0  0  0  0  0  0
    0.5023   -0.9067   -0.8094 C   0  0  0  0  0  0  0  0  0  0  0  0
   -2.4973    0.8423    0.9305 H   0  0  0  0  0  0  0  0  0  0  0  0
   -3.7626   -0.2172    0.1180 H   0  0  0  0  0  0  0  0  0  0  0  0
   -3.3402    1.4318   -0.5139 H   0  0  0  0  0  0  0  0  0  0  0  0
   -1.3673    0.8357   -1.4202 H   0  0  0  0  0  0  0  0  0  0  0  0
   -2.2763   -0.7014   -1.7032 H   0  0  0  0  0  0  0  0  0  0  0  0
   -1.1749   -1.7294    0.2827 H   0  0  0  0  0  0  0  0  0  0  0  0
   -0.1337   -0.2786    1.9115 H   0  0  0  0  0  0  0  0  0  0  0  0
   -0.4936    1.2024    0.8556 H   0  0  0  0  0  0  0  0  0  0  0  0
    2.4597   -1.1702    1.4675 H   0  0  0  0  0  0  0  0  0  0  0  0
    3.2412   -0.3041    0.1059 H   0  0  0  0  0  0  0  0  0  0  0  0
    3.5735    0.8372    2.0419 H   0  0  0  0  0  0  0  0  0  0  0  0
    0.6417    1.2189   -1.5940 H   0  0  0  0  0  0  0  0  0  0  0  0
    2.1286    0.1583   -1.8289 H   0  0  0  0  0  0  0  0  0  0  0  0
    0.8865   -1.9131   -1.0666 H   0  0  0  0  0  0  0  0  0  0  0  0
  1  2  1  0
  2  3  1  0
  3  4  1  0
  4  5  1  0
  5  6  1  0
  6  7  1  0
  5  8  1  0
  8  9  1  0
  9  3  1  0
  9  5  1  0
  1 10  1  0
  1 11  1  0
  1 12  1  0
  2 13  1  0
  2 14  1  0
  3 15  1  0
  4 16  1  0
  4 17  1  0
  6 18  1  0
  6 19  1  0
  7 20  1  0
  8 21  1  0
  8 22  1  0
  9 23  1  0
M  END
