
     RDKit          3D

 21 22  0  0  0  0  0  0  0  0999 V2000
   -2.7225    0.0447   -0.4158 C   0  0  0  0  0  0  0  0  0  0  0  0
   -1.6968   -0.4298    0.5930 C   0  0  0  0  0  0  0  0  0  0  0  0
   -0.3996   -0.1312    0.2769 C   0  0  0  0  0  0  0  0  0  0  0  0
    0.3861   -0.5459   -0.9272 C   0  0  0  0  0  0  0  0  0  0  0  0
    1.3821    0.2046   -0.0829 C   0  0  0  0  0  0  0  0  0  0  0  0
    2.6767    0.5196   -0.3605 C   0  0  0  0  0  0  0  0  0  0  0  0
    0.8249   -0.5696    1.0830 C   0  0  0  0  0  0  0  0  0  0  0  0
    0.2546    1.1680    0.1790 C   0  0  0  0  0  0  0  0  0  0  0  0
    0.1413    2.3551    0.2370 O   0  0  0  0  0  0  0  0  0  0  0  0
   -2.5736   -0.4364   -1.4124 H   0  0  0  0  0  0  0  0  0  0  0  0
   -3.7210   -0.2936   -0.0485 H   0  0  0  0  0  0  0  0  0  0  0  0
   -2.7031    1.1663   -0.5024 H   0  0  0  0  0  0  0  0  0  0  0  0
   -1.8835   -1.5391    0.7019 H   0  0  0  0  0  0  0  0  0  0  0  0
   -2.0295   -0.0120    1.5763 H   0  0  0  0  0  0  0  0  0  0  0  0
    0.5880   -1.6186   -1.0436 H   0  0  0  0  0  0  0  0  0  0  0  0
    0.1030   -0.0767   -1.8823 H   0  0  0  0  0  0  0  0  0  0  0  0
    3.4346    0.1872    0.4109 H   0  0  0  0  0  0  0  0  0  0  0  0
    2.8959    1.6243   -0.4686 H   0  0  0  0  0  0  0  0  0  0  0  0
    3.0883    0.0863   -1.3210 H   0  0  0  0  0  0  0  0  0  0  0  0
    0.9271   -0.0631    2.0578 H   0  0  0  0  0  0  0  0  0  0  0  0
    1.0271   -1.6402    1.0606 H   0  0  0  0  0  0  0  0  0  0  0  0
  1  2  1  0
  2  3  1  0
  3  4  1  0
  4  5  1  0
  5  6  1  0
  5  7  1  0
  5  8  1  0
  8  9  2  0
  7  3  1  0
  8  3  1  0
  1 10  1  0
  1 11  1  0
  1 12  1  0
  2 13  1  0
  2 14  1  0
  4 15  1  0
  4 16  1  0
  6 17  1  0
  6 18  1  0
  6 19  1  0
  7 20  1  0
  7 21  1  0
M  END
