
     RDKit          3D

 21 21  0  0  0  0  0  0  0  0999 V2000
    1.6198    0.8822    0.4561 C   0  0  0  0  0  0  0  0  0  0  0  0
    1.0783    0.3951   -0.8395 C   0  0  0  0  0  0  0  0  0  0  0  0
   -0.0825   -0.5416   -0.7218 C   0  0  0  0  0  0  0  0  0  0  0  0
    0.2313   -1.7973    0.0474 C   0  0  0  0  0  0  0  0  0  0  0  0
   -0.2827   -1.4742    1.3975 C   0  0  0  0  0  0  0  0  0  0  0  0
   -0.0323   -2.0702    2.4778 O   0  0  0  0  0  0  0  0  0  0  0  0
   -1.1256   -0.3641    1.3122 O   0  0  0  0  0  0  0  0  0  0  0  0
   -1.2731   -0.0001   -0.0451 C   0  0  0  0  0  0  0  0  0  0  0  0
   -1.5693    1.4362   -0.2567 C   0  0  0  0  0  0  0  0  0  0  0  0
    2.2805    1.7694    0.2275 H   0  0  0  0  0  0  0  0  0  0  0  0
    0.8643    1.1726    1.2021 H   0  0  0  0  0  0  0  0  0  0  0  0
    2.2991    0.1592    0.9691 H   0  0  0  0  0  0  0  0  0  0  0  0
    0.7851    1.2388   -1.4687 H   0  0  0  0  0  0  0  0  0  0  0  0
    1.9010   -0.1710   -1.3570 H   0  0  0  0  0  0  0  0  0  0  0  0
   -0.3640   -0.8522   -1.7543 H   0  0  0  0  0  0  0  0  0  0  0  0
    1.2935   -2.0503    0.0216 H   0  0  0  0  0  0  0  0  0  0  0  0
   -0.3541   -2.6580   -0.3779 H   0  0  0  0  0  0  0  0  0  0  0  0
   -2.1757   -0.5697   -0.4184 H   0  0  0  0  0  0  0  0  0  0  0  0
   -2.2136    1.6050   -1.1565 H   0  0  0  0  0  0  0  0  0  0  0  0
   -0.7154    2.1003   -0.3489 H   0  0  0  0  0  0  0  0  0  0  0  0
   -2.1648    1.7900    0.6334 H   0  0  0  0  0  0  0  0  0  0  0  0
  1  2  1  0
  2  3  1  0
  3  4  1  0
  4  5  1  0
  5  6  2  0
  5  7  1  0
  7  8  1  0
  8  9  1  0
  8  3  1  0
  1 10  1  0
  1 11  1  0
  1 12  1  0
  2 13  1  0
  2 14  1  0
  3 15  1  0
  4 16  1  0
  4 17  1  0
  8 18  1  0
  9 19  1  0
  9 20  1  0
  9 21  1  0
M  END
