
     RDKit          3D

 23 23  0  0  0  0  0  0  0  0999 V2000
    2.8020   -0.8805   -0.1556 C   0  0  0  0  0  0  0  0  0  0  0  0
    1.8905    0.2938    0.0795 C   0  0  0  0  0  0  0  0  0  0  0  0
    0.4785   -0.2092    0.1812 C   0  0  0  0  0  0  0  0  0  0  0  0
   -0.0709   -0.9124   -0.9644 C   0  0  0  0  0  0  0  0  0  0  0  0
    0.2209   -1.8197   -1.7067 O   0  0  0  0  0  0  0  0  0  0  0  0
   -1.2652   -0.0327   -0.9152 C   0  0  0  0  0  0  0  0  0  0  0  0
   -2.4746   -0.6441   -0.2545 C   0  0  0  0  0  0  0  0  0  0  0  0
   -0.4832    0.9337   -0.0800 C   0  0  0  0  0  0  0  0  0  0  0  0
   -1.1105    1.3795    1.2051 C   0  0  0  0  0  0  0  0  0  0  0  0
    3.8273   -0.5571    0.1449 H   0  0  0  0  0  0  0  0  0  0  0  0
    2.4223   -1.7238    0.4510 H   0  0  0  0  0  0  0  0  0  0  0  0
    2.7854   -1.0935   -1.2452 H   0  0  0  0  0  0  0  0  0  0  0  0
    2.2167    0.8124    1.0026 H   0  0  0  0  0  0  0  0  0  0  0  0
    2.0299    1.0203   -0.7466 H   0  0  0  0  0  0  0  0  0  0  0  0
    0.2932   -0.7177    1.1438 H   0  0  0  0  0  0  0  0  0  0  0  0
   -1.5088    0.3336   -1.9290 H   0  0  0  0  0  0  0  0  0  0  0  0
   -3.3945   -0.3160   -0.7776 H   0  0  0  0  0  0  0  0  0  0  0  0
   -2.3619   -1.7579   -0.2779 H   0  0  0  0  0  0  0  0  0  0  0  0
   -2.5079   -0.3647    0.8147 H   0  0  0  0  0  0  0  0  0  0  0  0
   -0.0636    1.7816   -0.6500 H   0  0  0  0  0  0  0  0  0  0  0  0
   -1.0737    0.5694    1.9768 H   0  0  0  0  0  0  0  0  0  0  0  0
   -0.4877    2.2040    1.6131 H   0  0  0  0  0  0  0  0  0  0  0  0
   -2.1641    1.7010    1.0901 H   0  0  0  0  0  0  0  0  0  0  0  0
  1  2  1  0
  2  3  1  0
  3  4  1  0
  4  5  2  0
  4  6  1  0
  6  7  1  0
  6  8  1  0
  8  9  1  0
  8  3  1  0
  1 10  1  0
  1 11  1  0
  1 12  1  0
  2 13  1  0
  2 14  1  0
  3 15  1  0
  6 16  1  0
  7 17  1  0
  7 18  1  0
  7 19  1  0
  8 20  1  0
  9 21  1  0
  9 22  1  0
  9 23  1  0
M  END
