
     RDKit          3D

 25 25  0  0  0  0  0  0  0  0999 V2000
   -2.7284    0.6561   -0.1121 C   0  0  0  0  0  0  0  0  0  0  0  0
   -1.3668    0.8763    0.5327 C   0  0  0  0  0  0  0  0  0  0  0  0
   -0.3481    0.2415   -0.3771 C   0  0  0  0  0  0  0  0  0  0  0  0
   -0.5666   -1.2647   -0.5793 C   0  0  0  0  0  0  0  0  0  0  0  0
    0.9566   -1.3850   -0.4596 C   0  0  0  0  0  0  0  0  0  0  0  0
    0.9093   -0.1253    0.3695 C   0  0  0  0  0  0  0  0  0  0  0  0
    0.6312   -0.5055    1.8095 C   0  0  0  0  0  0  0  0  0  0  0  0
    1.8905    0.7810    0.2084 O   0  0  0  0  0  0  0  0  0  0  0  0
    2.3851    1.0412   -1.0243 C   0  0  0  0  0  0  0  0  0  0  0  0
   -3.1033   -0.3589    0.1105 H   0  0  0  0  0  0  0  0  0  0  0  0
   -2.6497    0.8058   -1.2112 H   0  0  0  0  0  0  0  0  0  0  0  0
   -3.4213    1.4400    0.2621 H   0  0  0  0  0  0  0  0  0  0  0  0
   -1.1626    1.9650    0.5605 H   0  0  0  0  0  0  0  0  0  0  0  0
   -1.3081    0.4551    1.5329 H   0  0  0  0  0  0  0  0  0  0  0  0
   -0.2436    0.6901   -1.3601 H   0  0  0  0  0  0  0  0  0  0  0  0
   -1.1436   -1.7335    0.2156 H   0  0  0  0  0  0  0  0  0  0  0  0
   -0.9061   -1.5469   -1.5836 H   0  0  0  0  0  0  0  0  0  0  0  0
    1.2628   -2.3046    0.0808 H   0  0  0  0  0  0  0  0  0  0  0  0
    1.4395   -1.3166   -1.4345 H   0  0  0  0  0  0  0  0  0  0  0  0
   -0.1949   -1.2011    1.9347 H   0  0  0  0  0  0  0  0  0  0  0  0
    1.5519   -1.0288    2.1719 H   0  0  0  0  0  0  0  0  0  0  0  0
    0.5188    0.3860    2.4275 H   0  0  0  0  0  0  0  0  0  0  0  0
    1.5819    1.4236   -1.6787 H   0  0  0  0  0  0  0  0  0  0  0  0
    3.1476    1.8693   -0.9282 H   0  0  0  0  0  0  0  0  0  0  0  0
    2.8679    0.1397   -1.4679 H   0  0  0  0  0  0  0  0  0  0  0  0
  1  2  1  0
  2  3  1  0
  3  4  1  0
  4  5  1  0
  5  6  1  0
  6  7  1  0
  6  8  1  0
  8  9  1  0
  6  3  1  0
  1 10  1  0
  1 11  1  0
  1 12  1  0
  2 13  1  0
  2 14  1  0
  3 15  1  0
  4 16  1  0
  4 17  1  0
  5 18  1  0
  5 19  1  0
  7 20  1  0
  7 21  1  0
  7 22  1  0
  9 23  1  0
  9 24  1  0
  9 25  1  0
M  END
