
     RDKit          3D

 21 21  0  0  0  0  0  0  0  0999 V2000
   -2.5798    0.3390    0.6604 C   0  0  0  0  0  0  0  0  0  0  0  0
   -1.2128   -0.0680    1.1889 C   0  0  0  0  0  0  0  0  0  0  0  0
   -0.3349   -0.3226   -0.0058 C   0  0  0  0  0  0  0  0  0  0  0  0
   -0.8361   -1.3495   -0.8376 O   0  0  0  0  0  0  0  0  0  0  0  0
    0.2546    0.8206   -0.7686 C   0  0  0  0  0  0  0  0  0  0  0  0
    1.1123   -0.1762    0.0131 C   0  0  0  0  0  0  0  0  0  0  0  0
    1.9076   -0.9856   -0.8137 O   0  0  0  0  0  0  0  0  0  0  0  0
    1.8749    0.4374    1.1519 C   0  0  0  0  0  0  0  0  0  0  0  0
    2.4341   -0.5435    1.9739 O   0  0  0  0  0  0  0  0  0  0  0  0
   -2.7965   -0.3448   -0.2102 H   0  0  0  0  0  0  0  0  0  0  0  0
   -2.6061    1.3803    0.3125 H   0  0  0  0  0  0  0  0  0  0  0  0
   -3.3071    0.1724    1.4788 H   0  0  0  0  0  0  0  0  0  0  0  0
   -0.7997    0.6706    1.8872 H   0  0  0  0  0  0  0  0  0  0  0  0
   -1.3608   -1.0224    1.7363 H   0  0  0  0  0  0  0  0  0  0  0  0
   -1.2851   -0.9154   -1.6048 H   0  0  0  0  0  0  0  0  0  0  0  0
    0.2999    0.7960   -1.8751 H   0  0  0  0  0  0  0  0  0  0  0  0
    0.1569    1.8478   -0.3623 H   0  0  0  0  0  0  0  0  0  0  0  0
    1.9431   -1.9150   -0.5131 H   0  0  0  0  0  0  0  0  0  0  0  0
    1.2458    1.0913    1.7862 H   0  0  0  0  0  0  0  0  0  0  0  0
    2.6874    1.0836    0.7476 H   0  0  0  0  0  0  0  0  0  0  0  0
    3.2024   -0.9959    1.5007 H   0  0  0  0  0  0  0  0  0  0  0  0
  1  2  1  0
  2  3  1  0
  3  4  1  0
  3  5  1  0
  5  6  1  0
  6  7  1  0
  6  8  1  0
  8  9  1  0
  6  3  1  0
  1 10  1  0
  1 11  1  0
  1 12  1  0
  2 13  1  0
  2 14  1  0
  4 15  1  0
  5 16  1  0
  5 17  1  0
  7 18  1  0
  8 19  1  0
  8 20  1  0
  9 21  1  0
M  END
