
     RDKit          3D

 23 23  0  0  0  0  0  0  0  0999 V2000
   -2.8716   -0.4077   -0.0460 C   0  0  0  0  0  0  0  0  0  0  0  0
   -1.5547   -1.0506   -0.4188 C   0  0  0  0  0  0  0  0  0  0  0  0
   -0.4867    0.0105   -0.5149 C   0  0  0  0  0  0  0  0  0  0  0  0
   -0.7619    0.9709   -1.4587 O   0  0  0  0  0  0  0  0  0  0  0  0
   -0.2511    0.7019    0.8096 C   0  0  0  0  0  0  0  0  0  0  0  0
    0.9974    1.2929    0.5507 O   0  0  0  0  0  0  0  0  0  0  0  0
    1.7493    0.2044    0.1677 C   0  0  0  0  0  0  0  0  0  0  0  0
    3.0409    0.5924   -0.5148 C   0  0  0  0  0  0  0  0  0  0  0  0
    0.8669   -0.6460   -0.7402 C   0  0  0  0  0  0  0  0  0  0  0  0
   -3.6718   -0.6682   -0.7845 H   0  0  0  0  0  0  0  0  0  0  0  0
   -2.7999    0.7104   -0.0667 H   0  0  0  0  0  0  0  0  0  0  0  0
   -3.1531   -0.7560    0.9668 H   0  0  0  0  0  0  0  0  0  0  0  0
   -1.6703   -1.5406   -1.4066 H   0  0  0  0  0  0  0  0  0  0  0  0
   -1.2689   -1.8207    0.3021 H   0  0  0  0  0  0  0  0  0  0  0  0
   -1.2343    1.7298   -1.0108 H   0  0  0  0  0  0  0  0  0  0  0  0
   -0.0757   -0.0327    1.6219 H   0  0  0  0  0  0  0  0  0  0  0  0
   -1.0225    1.4156    1.0765 H   0  0  0  0  0  0  0  0  0  0  0  0
    2.0289   -0.3476    1.0880 H   0  0  0  0  0  0  0  0  0  0  0  0
    3.7546    0.9089    0.2677 H   0  0  0  0  0  0  0  0  0  0  0  0
    3.4558   -0.3318   -0.9676 H   0  0  0  0  0  0  0  0  0  0  0  0
    2.9033    1.3442   -1.3105 H   0  0  0  0  0  0  0  0  0  0  0  0
    1.1852   -0.6118   -1.7902 H   0  0  0  0  0  0  0  0  0  0  0  0
    0.8402   -1.6682   -0.3086 H   0  0  0  0  0  0  0  0  0  0  0  0
  1  2  1  0
  2  3  1  0
  3  4  1  0
  3  5  1  0
  5  6  1  0
  6  7  1  0
  7  8  1  0
  7  9  1  0
  9  3  1  0
  1 10  1  0
  1 11  1  0
  1 12  1  0
  2 13  1  0
  2 14  1  0
  4 15  1  0
  5 16  1  0
  5 17  1  0
  7 18  1  0
  8 19  1  0
  8 20  1  0
  8 21  1  0
  9 22  1  0
  9 23  1  0
M  END
