
     RDKit          3D

 21 21  0  0  0  0  0  0  0  0999 V2000
   -3.0902    0.1537    0.6352 C   0  0  0  0  0  0  0  0  0  0  0  0
   -1.9929    0.4111   -0.3450 C   0  0  0  0  0  0  0  0  0  0  0  0
   -0.8140   -0.5140   -0.1927 C   0  0  0  0  0  0  0  0  0  0  0  0
    0.2389   -0.1587   -1.2420 C   0  0  0  0  0  0  0  0  0  0  0  0
    1.2561    0.1106   -0.1507 C   0  0  0  0  0  0  0  0  0  0  0  0
    2.2806   -0.8029   -0.1707 O   0  0  0  0  0  0  0  0  0  0  0  0
    3.5385   -0.1999   -0.0657 C   0  0  0  0  0  0  0  0  0  0  0  0
    0.1650   -0.1647    0.8402 C   0  0  0  0  0  0  0  0  0  0  0  0
    0.2107   -0.0862    2.0574 O   0  0  0  0  0  0  0  0  0  0  0  0
   -3.1875    0.9949    1.3683 H   0  0  0  0  0  0  0  0  0  0  0  0
   -2.9751   -0.7728    1.2070 H   0  0  0  0  0  0  0  0  0  0  0  0
   -4.1009    0.1095    0.1349 H   0  0  0  0  0  0  0  0  0  0  0  0
   -2.4219    0.1979   -1.3684 H   0  0  0  0  0  0  0  0  0  0  0  0
   -1.7044    1.4749   -0.3599 H   0  0  0  0  0  0  0  0  0  0  0  0
   -1.1356   -1.5642   -0.1984 H   0  0  0  0  0  0  0  0  0  0  0  0
    0.4437   -1.0643   -1.8586 H   0  0  0  0  0  0  0  0  0  0  0  0
    0.0428    0.7705   -1.7955 H   0  0  0  0  0  0  0  0  0  0  0  0
    1.5741    1.1583   -0.0570 H   0  0  0  0  0  0  0  0  0  0  0  0
    3.7215    0.5149   -0.9137 H   0  0  0  0  0  0  0  0  0  0  0  0
    3.5956    0.3601    0.8676 H   0  0  0  0  0  0  0  0  0  0  0  0
    4.3551   -0.9287   -0.0875 H   0  0  0  0  0  0  0  0  0  0  0  0
  1  2  1  0
  2  3  1  0
  3  4  1  0
  4  5  1  0
  5  6  1  0
  6  7  1  0
  5  8  1  0
  8  9  2  0
  8  3  1  0
  1 10  1  0
  1 11  1  0
  1 12  1  0
  2 13  1  0
  2 14  1  0
  3 15  1  0
  4 16  1  0
  4 17  1  0
  5 18  1  0
  7 19  1  0
  7 20  1  0
  7 21  1  0
M  END
