
     RDKit          3D

 21 22  0  0  0  0  0  0  0  0999 V2000
    2.7751   -0.7315   -0.2602 C   0  0  0  0  0  0  0  0  0  0  0  0
    1.8692    0.2984    0.4237 C   0  0  0  0  0  0  0  0  0  0  0  0
    0.5371   -0.3381    0.6066 C   0  0  0  0  0  0  0  0  0  0  0  0
   -0.5294    0.4823    1.2617 C   0  0  0  0  0  0  0  0  0  0  0  0
   -0.5572    1.2868    0.0421 C   0  0  0  0  0  0  0  0  0  0  0  0
   -0.6064    2.3723   -0.4574 O   0  0  0  0  0  0  0  0  0  0  0  0
   -0.4826   -0.1014   -0.4785 C   0  0  0  0  0  0  0  0  0  0  0  0
   -1.5029   -0.4467    0.5538 C   0  0  0  0  0  0  0  0  0  0  0  0
   -2.8777    0.1112    0.3549 C   0  0  0  0  0  0  0  0  0  0  0  0
    3.7845   -0.3535   -0.4267 H   0  0  0  0  0  0  0  0  0  0  0  0
    2.8118   -1.5989    0.4454 H   0  0  0  0  0  0  0  0  0  0  0  0
    2.3200   -1.0204   -1.2209 H   0  0  0  0  0  0  0  0  0  0  0  0
    1.7662    1.1263   -0.3344 H   0  0  0  0  0  0  0  0  0  0  0  0
    2.3264    0.6875    1.3347 H   0  0  0  0  0  0  0  0  0  0  0  0
    0.5211   -1.3869    0.9545 H   0  0  0  0  0  0  0  0  0  0  0  0
   -0.5899    0.7683    2.2162 H   0  0  0  0  0  0  0  0  0  0  0  0
   -0.4286   -0.3885   -1.4335 H   0  0  0  0  0  0  0  0  0  0  0  0
   -1.4566   -1.4965    0.8538 H   0  0  0  0  0  0  0  0  0  0  0  0
   -3.3932   -0.4903   -0.4227 H   0  0  0  0  0  0  0  0  0  0  0  0
   -3.4656    0.0586    1.2789 H   0  0  0  0  0  0  0  0  0  0  0  0
   -2.8211    1.1610    0.0454 H   0  0  0  0  0  0  0  0  0  0  0  0
  1  2  1  0
  2  3  1  0
  3  4  1  0
  4  5  1  0
  5  6  2  0
  5  7  1  0
  7  8  1  0
  8  9  1  0
  7  3  1  0
  8  4  1  0
  1 10  1  0
  1 11  1  0
  1 12  1  0
  2 13  1  0
  2 14  1  0
  3 15  1  0
  4 16  1  0
  7 17  1  0
  8 18  1  0
  9 19  1  0
  9 20  1  0
  9 21  1  0
M  END
