
     RDKit          3D

 19 20  0  0  0  0  0  0  0  0999 V2000
    2.4770    0.8561    0.3688 C   0  0  0  0  0  0  0  0  0  0  0  0
    1.6599   -0.2755   -0.1595 C   0  0  0  0  0  0  0  0  0  0  0  0
    0.2385   -0.2667    0.4149 C   0  0  0  0  0  0  0  0  0  0  0  0
   -0.7784   -1.2289    0.0945 C   0  0  0  0  0  0  0  0  0  0  0  0
   -2.1564   -1.0273   -0.4847 C   0  0  0  0  0  0  0  0  0  0  0  0
   -1.4249   -0.3598   -1.4999 O   0  0  0  0  0  0  0  0  0  0  0  0
   -0.7864    0.2278   -0.4435 C   0  0  0  0  0  0  0  0  0  0  0  0
   -1.6459    1.2453    0.2082 C   0  0  0  0  0  0  0  0  0  0  0  0
   -1.2967    1.8800    1.1961 O   0  0  0  0  0  0  0  0  0  0  0  0
    1.8718    1.7303    0.6770 H   0  0  0  0  0  0  0  0  0  0  0  0
    3.1587    0.4998    1.1661 H   0  0  0  0  0  0  0  0  0  0  0  0
    3.1322    1.2120   -0.4690 H   0  0  0  0  0  0  0  0  0  0  0  0
    1.5922   -0.3000   -1.2631 H   0  0  0  0  0  0  0  0  0  0  0  0
    2.1011   -1.2598    0.1414 H   0  0  0  0  0  0  0  0  0  0  0  0
    0.2972    0.0115    1.5094 H   0  0  0  0  0  0  0  0  0  0  0  0
   -0.2919   -2.0143   -0.5756 H   0  0  0  0  0  0  0  0  0  0  0  0
   -2.8692   -0.4624    0.0834 H   0  0  0  0  0  0  0  0  0  0  0  0
   -2.6364   -1.9651   -0.8174 H   0  0  0  0  0  0  0  0  0  0  0  0
   -2.6424    1.4969   -0.1470 H   0  0  0  0  0  0  0  0  0  0  0  0
  1  2  1  0
  2  3  1  0
  3  4  1  0
  4  5  1  0
  5  6  1  0
  6  7  1  0
  7  8  1  0
  8  9  2  0
  7  3  1  0
  7  4  1  0
  1 10  1  0
  1 11  1  0
  1 12  1  0
  2 13  1  0
  2 14  1  0
  3 15  1  0
  4 16  1  0
  5 17  1  0
  5 18  1  0
  8 19  1  0
M  END
