
     RDKit          3D

 21 23  0  0  0  0  0  0  0  0999 V2000
    2.3286   -0.6256   -0.3109 C   0  0  0  0  0  0  0  0  0  0  0  0
    1.5547    0.5496    0.3069 C   0  0  0  0  0  0  0  0  0  0  0  0
    0.1125    0.4180    0.1938 C   0  0  0  0  0  0  0  0  0  0  0  0
   -0.7032   -0.6918    0.7616 C   0  0  0  0  0  0  0  0  0  0  0  0
   -1.9171    0.0308    1.2325 C   0  0  0  0  0  0  0  0  0  0  0  0
   -2.0147    1.2038    0.6254 C   0  0  0  0  0  0  0  0  0  0  0  0
   -0.8517    1.3691   -0.3224 C   0  0  0  0  0  0  0  0  0  0  0  0
   -0.5190    0.1723   -1.1445 C   0  0  0  0  0  0  0  0  0  0  0  0
   -0.9405   -1.1880   -0.6488 C   0  0  0  0  0  0  0  0  0  0  0  0
    3.3744   -0.2541   -0.4168 H   0  0  0  0  0  0  0  0  0  0  0  0
    1.9588   -0.8751   -1.3067 H   0  0  0  0  0  0  0  0  0  0  0  0
    2.2973   -1.4943    0.3910 H   0  0  0  0  0  0  0  0  0  0  0  0
    1.9069    1.4462   -0.2217 H   0  0  0  0  0  0  0  0  0  0  0  0
    1.9071    0.6210    1.3463 H   0  0  0  0  0  0  0  0  0  0  0  0
   -0.2455   -1.3811    1.4536 H   0  0  0  0  0  0  0  0  0  0  0  0
   -2.5932   -0.3821    1.9665 H   0  0  0  0  0  0  0  0  0  0  0  0
   -2.7896    1.9438    0.7650 H   0  0  0  0  0  0  0  0  0  0  0  0
   -0.6543    2.3532   -0.7239 H   0  0  0  0  0  0  0  0  0  0  0  0
    0.0626    0.2655   -2.0556 H   0  0  0  0  0  0  0  0  0  0  0  0
   -0.2825   -2.0270   -0.8919 H   0  0  0  0  0  0  0  0  0  0  0  0
   -1.9919   -1.4542   -0.8180 H   0  0  0  0  0  0  0  0  0  0  0  0
  1  2  1  0
  2  3  1  0
  3  4  1  0
  4  5  1  0
  5  6  2  0
  6  7  1  0
  7  8  1  0
  8  9  1  0
  7  3  1  0
  8  3  1  0
  9  4  1  0
  1 10  1  0
  1 11  1  0
  1 12  1  0
  2 13  1  0
  2 14  1  0
  4 15  1  0
  5 16  1  0
  6 17  1  0
  7 18  1  0
  8 19  1  0
  9 20  1  0
  9 21  1  0
M  END
