
     RDKit          3D

 23 23  0  0  0  0  0  0  0  0999 V2000
   -0.7864    2.4521    0.2019 C   0  0  0  0  0  0  0  0  0  0  0  0
   -1.0757    1.1652   -0.5290 C   0  0  0  0  0  0  0  0  0  0  0  0
   -0.3355   -0.0120    0.0677 C   0  0  0  0  0  0  0  0  0  0  0  0
    1.1692    0.1530    0.0424 C   0  0  0  0  0  0  0  0  0  0  0  0
    1.7370   -1.0682    0.3617 O   0  0  0  0  0  0  0  0  0  0  0  0
    3.1310   -1.0178    0.3646 C   0  0  0  0  0  0  0  0  0  0  0  0
   -0.7681   -0.4244    1.3710 O   0  0  0  0  0  0  0  0  0  0  0  0
   -0.8887   -1.3078    0.1882 C   0  0  0  0  0  0  0  0  0  0  0  0
   -2.3206   -1.6658   -0.0073 C   0  0  0  0  0  0  0  0  0  0  0  0
   -0.4510    2.2968    1.2395 H   0  0  0  0  0  0  0  0  0  0  0  0
   -1.7146    3.0925    0.2353 H   0  0  0  0  0  0  0  0  0  0  0  0
   -0.0394    3.0723   -0.3626 H   0  0  0  0  0  0  0  0  0  0  0  0
   -0.7039    1.2806   -1.5637 H   0  0  0  0  0  0  0  0  0  0  0  0
   -2.1682    0.9977   -0.5788 H   0  0  0  0  0  0  0  0  0  0  0  0
    1.5273    0.5502   -0.9294 H   0  0  0  0  0  0  0  0  0  0  0  0
    1.4126    0.8729    0.8775 H   0  0  0  0  0  0  0  0  0  0  0  0
    3.5572   -2.0028    0.6218 H   0  0  0  0  0  0  0  0  0  0  0  0
    3.4454   -0.3293    1.2011 H   0  0  0  0  0  0  0  0  0  0  0  0
    3.5362   -0.6453   -0.6021 H   0  0  0  0  0  0  0  0  0  0  0  0
   -0.2047   -2.1947    0.2530 H   0  0  0  0  0  0  0  0  0  0  0  0
   -2.6157   -2.3279    0.8591 H   0  0  0  0  0  0  0  0  0  0  0  0
   -2.9505   -0.7669    0.0813 H   0  0  0  0  0  0  0  0  0  0  0  0
   -2.4930   -2.1707   -0.9715 H   0  0  0  0  0  0  0  0  0  0  0  0
  1  2  1  0
  2  3  1  0
  3  4  1  0
  4  5  1  0
  5  6  1  0
  3  7  1  0
  7  8  1  0
  8  9  1  0
  8  3  1  0
  1 10  1  0
  1 11  1  0
  1 12  1  0
  2 13  1  0
  2 14  1  0
  4 15  1  0
  4 16  1  0
  6 17  1  0
  6 18  1  0
  6 19  1  0
  8 20  1  0
  9 21  1  0
  9 22  1  0
  9 23  1  0
M  END
