
     RDKit          3D

 25 25  0  0  0  0  0  0  0  0999 V2000
   -1.4606   -2.1438   -0.1157 C   0  0  0  0  0  0  0  0  0  0  0  0
   -0.1300   -1.5762    0.3338 C   0  0  0  0  0  0  0  0  0  0  0  0
   -0.1190   -0.1163   -0.0154 C   0  0  0  0  0  0  0  0  0  0  0  0
   -1.2331    0.6078    0.6711 C   0  0  0  0  0  0  0  0  0  0  0  0
   -1.2827    2.0697    0.3680 C   0  0  0  0  0  0  0  0  0  0  0  0
   -0.1489    0.0500   -1.4000 O   0  0  0  0  0  0  0  0  0  0  0  0
    1.0007    0.8496   -1.4705 C   0  0  0  0  0  0  0  0  0  0  0  0
    1.1939    0.5846    0.0081 C   0  0  0  0  0  0  0  0  0  0  0  0
    2.4160   -0.2556    0.2296 C   0  0  0  0  0  0  0  0  0  0  0  0
   -1.9164   -1.5146   -0.9281 H   0  0  0  0  0  0  0  0  0  0  0  0
   -2.2145   -2.1312    0.7060 H   0  0  0  0  0  0  0  0  0  0  0  0
   -1.3534   -3.1567   -0.5737 H   0  0  0  0  0  0  0  0  0  0  0  0
   -0.1097   -1.6589    1.4529 H   0  0  0  0  0  0  0  0  0  0  0  0
    0.7304   -2.1404   -0.0375 H   0  0  0  0  0  0  0  0  0  0  0  0
   -1.1445    0.4768    1.7754 H   0  0  0  0  0  0  0  0  0  0  0  0
   -2.2042    0.1658    0.3599 H   0  0  0  0  0  0  0  0  0  0  0  0
   -1.3454    2.2260   -0.7461 H   0  0  0  0  0  0  0  0  0  0  0  0
   -2.2234    2.4704    0.8255 H   0  0  0  0  0  0  0  0  0  0  0  0
   -0.4613    2.6567    0.8236 H   0  0  0  0  0  0  0  0  0  0  0  0
    1.8053    0.4541   -2.1209 H   0  0  0  0  0  0  0  0  0  0  0  0
    0.8149    1.9081   -1.7421 H   0  0  0  0  0  0  0  0  0  0  0  0
    1.1847    1.4638    0.6544 H   0  0  0  0  0  0  0  0  0  0  0  0
    2.4652   -1.1208   -0.4454 H   0  0  0  0  0  0  0  0  0  0  0  0
    2.4350   -0.5679    1.2994 H   0  0  0  0  0  0  0  0  0  0  0  0
    3.3011    0.3990    0.0877 H   0  0  0  0  0  0  0  0  0  0  0  0
  1  2  1  0
  2  3  1  0
  3  4  1  0
  4  5  1  0
  3  6  1  0
  6  7  1  0
  7  8  1  0
  8  9  1  0
  8  3  1  0
  1 10  1  0
  1 11  1  0
  1 12  1  0
  2 13  1  0
  2 14  1  0
  4 15  1  0
  4 16  1  0
  5 17  1  0
  5 18  1  0
  5 19  1  0
  7 20  1  0
  7 21  1  0
  8 22  1  0
  9 23  1  0
  9 24  1  0
  9 25  1  0
M  END
