
     RDKit          3D

 25 25  0  0  0  0  0  0  0  0999 V2000
    3.0678    0.0504   -0.3193 C   0  0  0  0  0  0  0  0  0  0  0  0
    1.8592    0.8850   -0.0325 C   0  0  0  0  0  0  0  0  0  0  0  0
    0.7035    0.0667    0.5321 C   0  0  0  0  0  0  0  0  0  0  0  0
    0.2548   -1.0097   -0.3996 C   0  0  0  0  0  0  0  0  0  0  0  0
   -1.1044   -1.5097    0.0296 C   0  0  0  0  0  0  0  0  0  0  0  0
   -2.1324   -0.4323   -0.1033 C   0  0  0  0  0  0  0  0  0  0  0  0
   -3.2820   -0.7566    0.6509 O   0  0  0  0  0  0  0  0  0  0  0  0
   -1.6366    0.9323    0.2281 C   0  0  0  0  0  0  0  0  0  0  0  0
   -0.3727    0.9738    1.0103 C   0  0  0  0  0  0  0  0  0  0  0  0
    3.8491    0.1493    0.4903 H   0  0  0  0  0  0  0  0  0  0  0  0
    2.8541   -1.0044   -0.5267 H   0  0  0  0  0  0  0  0  0  0  0  0
    3.5620    0.4848   -1.2291 H   0  0  0  0  0  0  0  0  0  0  0  0
    1.5240    1.4801   -0.9207 H   0  0  0  0  0  0  0  0  0  0  0  0
    2.1204    1.6333    0.7488 H   0  0  0  0  0  0  0  0  0  0  0  0
    1.1317   -0.4486    1.4422 H   0  0  0  0  0  0  0  0  0  0  0  0
    0.9488   -1.8767   -0.3215 H   0  0  0  0  0  0  0  0  0  0  0  0
    0.1634   -0.6930   -1.4546 H   0  0  0  0  0  0  0  0  0  0  0  0
   -1.4038   -2.3412   -0.6687 H   0  0  0  0  0  0  0  0  0  0  0  0
   -1.0946   -1.9624    1.0428 H   0  0  0  0  0  0  0  0  0  0  0  0
   -2.4800   -0.4190   -1.1654 H   0  0  0  0  0  0  0  0  0  0  0  0
   -3.9753   -0.0904    0.3474 H   0  0  0  0  0  0  0  0  0  0  0  0
   -1.4970    1.5798   -0.6815 H   0  0  0  0  0  0  0  0  0  0  0  0
   -2.4155    1.4840    0.8330 H   0  0  0  0  0  0  0  0  0  0  0  0
   -0.6400    0.7890    2.0879 H   0  0  0  0  0  0  0  0  0  0  0  0
   -0.0047    2.0356    0.9969 H   0  0  0  0  0  0  0  0  0  0  0  0
  1  2  1  0
  2  3  1  0
  3  4  1  0
  4  5  1  0
  5  6  1  0
  6  7  1  0
  6  8  1  0
  8  9  1  0
  9  3  1  0
  1 10  1  0
  1 11  1  0
  1 12  1  0
  2 13  1  0
  2 14  1  0
  3 15  1  0
  4 16  1  0
  4 17  1  0
  5 18  1  0
  5 19  1  0
  6 20  1  0
  7 21  1  0
  8 22  1  0
  8 23  1  0
  9 24  1  0
  9 25  1  0
M  END
