
     RDKit          3D

 23 25  0  0  0  0  0  0  0  0999 V2000
   -2.7260    0.0325   -0.6281 C   0  0  0  0  0  0  0  0  0  0  0  0
   -1.3521   -0.4616   -1.0579 C   0  0  0  0  0  0  0  0  0  0  0  0
   -0.5442   -0.6194    0.1820 C   0  0  0  0  0  0  0  0  0  0  0  0
    0.8926   -1.1163   -0.0374 C   0  0  0  0  0  0  0  0  0  0  0  0
    1.1434   -0.4148    1.3045 C   0  0  0  0  0  0  0  0  0  0  0  0
    0.1647    0.6127    0.7147 C   0  0  0  0  0  0  0  0  0  0  0  0
    0.8441    1.1666   -0.4809 C   0  0  0  0  0  0  0  0  0  0  0  0
    2.2804    0.9443   -0.7959 C   0  0  0  0  0  0  0  0  0  0  0  0
    1.3741   -0.1782   -1.0932 C   0  0  0  0  0  0  0  0  0  0  0  0
   -2.5401    0.7902    0.1679 H   0  0  0  0  0  0  0  0  0  0  0  0
   -3.3134    0.4314   -1.4547 H   0  0  0  0  0  0  0  0  0  0  0  0
   -3.2167   -0.8272   -0.1058 H   0  0  0  0  0  0  0  0  0  0  0  0
   -0.9565    0.3072   -1.7486 H   0  0  0  0  0  0  0  0  0  0  0  0
   -1.4509   -1.4406   -1.6112 H   0  0  0  0  0  0  0  0  0  0  0  0
   -1.0014   -1.1563    1.0147 H   0  0  0  0  0  0  0  0  0  0  0  0
    1.0540   -2.1605   -0.0942 H   0  0  0  0  0  0  0  0  0  0  0  0
    0.6078   -0.9644    2.1019 H   0  0  0  0  0  0  0  0  0  0  0  0
    2.1477   -0.0748    1.4981 H   0  0  0  0  0  0  0  0  0  0  0  0
   -0.3518    1.2368    1.4012 H   0  0  0  0  0  0  0  0  0  0  0  0
    0.2426    1.8091   -1.1188 H   0  0  0  0  0  0  0  0  0  0  0  0
    3.0262    0.9622   -0.0067 H   0  0  0  0  0  0  0  0  0  0  0  0
    2.6291    1.5033   -1.7107 H   0  0  0  0  0  0  0  0  0  0  0  0
    1.0463   -0.3822   -2.1132 H   0  0  0  0  0  0  0  0  0  0  0  0
  1  2  1  0
  2  3  1  0
  3  4  1  0
  4  5  1  0
  5  6  1  0
  6  7  1  0
  7  8  1  0
  8  9  1  0
  6  3  1  0
  9  7  1  0
  9  4  1  0
  1 10  1  0
  1 11  1  0
  1 12  1  0
  2 13  1  0
  2 14  1  0
  3 15  1  0
  4 16  1  0
  5 17  1  0
  5 18  1  0
  6 19  1  0
  7 20  1  0
  8 21  1  0
  8 22  1  0
  9 23  1  0
M  END
