
     RDKit          3D

 25 26  0  0  0  0  0  0  0  0999 V2000
    2.7101   -0.9263   -0.1683 C   0  0  0  0  0  0  0  0  0  0  0  0
    1.8468    0.2753    0.2444 C   0  0  0  0  0  0  0  0  0  0  0  0
    0.4620   -0.0175   -0.2809 C   0  0  0  0  0  0  0  0  0  0  0  0
   -0.2301   -1.2437    0.2014 C   0  0  0  0  0  0  0  0  0  0  0  0
   -1.4939   -0.4229    0.4401 C   0  0  0  0  0  0  0  0  0  0  0  0
   -2.5584   -0.8437   -0.5331 C   0  0  0  0  0  0  0  0  0  0  0  0
   -0.7007    0.7991    0.0542 C   0  0  0  0  0  0  0  0  0  0  0  0
   -0.5571    1.9090    1.0474 C   0  0  0  0  0  0  0  0  0  0  0  0
   -0.1027    0.8765   -1.2998 C   0  0  0  0  0  0  0  0  0  0  0  0
    2.0912   -1.8411   -0.2183 H   0  0  0  0  0  0  0  0  0  0  0  0
    3.1097   -0.7376   -1.2061 H   0  0  0  0  0  0  0  0  0  0  0  0
    3.5195   -1.1072    0.5416 H   0  0  0  0  0  0  0  0  0  0  0  0
    1.9001    0.3242    1.3406 H   0  0  0  0  0  0  0  0  0  0  0  0
    2.3095    1.1482   -0.2428 H   0  0  0  0  0  0  0  0  0  0  0  0
    0.1491   -1.5942    1.1985 H   0  0  0  0  0  0  0  0  0  0  0  0
   -0.3265   -2.0276   -0.5505 H   0  0  0  0  0  0  0  0  0  0  0  0
   -1.8432   -0.3838    1.4731 H   0  0  0  0  0  0  0  0  0  0  0  0
   -2.0945   -1.2622   -1.4616 H   0  0  0  0  0  0  0  0  0  0  0  0
   -3.2978   -0.0543   -0.7493 H   0  0  0  0  0  0  0  0  0  0  0  0
   -3.1074   -1.6915   -0.0701 H   0  0  0  0  0  0  0  0  0  0  0  0
    0.1312    1.5657    1.8530 H   0  0  0  0  0  0  0  0  0  0  0  0
   -0.1894    2.8275    0.5589 H   0  0  0  0  0  0  0  0  0  0  0  0
   -1.5404    2.1449    1.5454 H   0  0  0  0  0  0  0  0  0  0  0  0
    0.4613    1.7934   -1.5200 H   0  0  0  0  0  0  0  0  0  0  0  0
   -0.6485    0.4897   -2.1977 H   0  0  0  0  0  0  0  0  0  0  0  0
  1  2  1  0
  2  3  1  0
  3  4  1  0
  4  5  1  0
  5  6  1  0
  5  7  1  0
  7  8  1  0
  7  9  1  0
  7  3  1  0
  9  3  1  0
  1 10  1  0
  1 11  1  0
  1 12  1  0
  2 13  1  0
  2 14  1  0
  4 15  1  0
  4 16  1  0
  5 17  1  0
  6 18  1  0
  6 19  1  0
  6 20  1  0
  8 21  1  0
  8 22  1  0
  8 23  1  0
  9 24  1  0
  9 25  1  0
M  END
