
     RDKit          3D

 23 24  0  0  0  0  0  0  0  0999 V2000
   -2.9398    0.2407   -0.3516 C   0  0  0  0  0  0  0  0  0  0  0  0
   -2.2282   -0.9959    0.1169 C   0  0  0  0  0  0  0  0  0  0  0  0
   -0.7277   -0.8338    0.1346 C   0  0  0  0  0  0  0  0  0  0  0  0
   -0.2579    0.2564    1.0250 C   0  0  0  0  0  0  0  0  0  0  0  0
    0.9158    0.8397    0.2727 C   0  0  0  0  0  0  0  0  0  0  0  0
    1.9412   -0.1942   -0.1828 C   0  0  0  0  0  0  0  0  0  0  0  0
    3.3315    0.3325   -0.3093 C   0  0  0  0  0  0  0  0  0  0  0  0
    0.8345    0.2370   -1.0545 C   0  0  0  0  0  0  0  0  0  0  0  0
   -0.2820   -0.5728   -1.1464 O   0  0  0  0  0  0  0  0  0  0  0  0
   -3.9998   -0.0725   -0.5798 H   0  0  0  0  0  0  0  0  0  0  0  0
   -3.0275    1.0168    0.4375 H   0  0  0  0  0  0  0  0  0  0  0  0
   -2.5408    0.6428   -1.3040 H   0  0  0  0  0  0  0  0  0  0  0  0
   -2.6382   -1.2651    1.1049 H   0  0  0  0  0  0  0  0  0  0  0  0
   -2.4986   -1.8161   -0.5786 H   0  0  0  0  0  0  0  0  0  0  0  0
   -0.3024   -1.8029    0.4705 H   0  0  0  0  0  0  0  0  0  0  0  0
    0.1383   -0.1076    1.9962 H   0  0  0  0  0  0  0  0  0  0  0  0
   -0.9991    1.0565    1.2140 H   0  0  0  0  0  0  0  0  0  0  0  0
    1.2258    1.8741    0.4383 H   0  0  0  0  0  0  0  0  0  0  0  0
    1.8905   -1.2058    0.3073 H   0  0  0  0  0  0  0  0  0  0  0  0
    3.5733    0.8797    0.6424 H   0  0  0  0  0  0  0  0  0  0  0  0
    4.1005   -0.4698   -0.3806 H   0  0  0  0  0  0  0  0  0  0  0  0
    3.4244    1.0692   -1.1260 H   0  0  0  0  0  0  0  0  0  0  0  0
    1.0664    0.8913   -1.9201 H   0  0  0  0  0  0  0  0  0  0  0  0
  1  2  1  0
  2  3  1  0
  3  4  1  0
  4  5  1  0
  5  6  1  0
  6  7  1  0
  6  8  1  0
  8  9  1  0
  9  3  1  0
  8  5  1  0
  1 10  1  0
  1 11  1  0
  1 12  1  0
  2 13  1  0
  2 14  1  0
  3 15  1  0
  4 16  1  0
  4 17  1  0
  5 18  1  0
  6 19  1  0
  7 20  1  0
  7 21  1  0
  7 22  1  0
  8 23  1  0
M  END
