
     RDKit          3D

 23 23  0  0  0  0  0  0  0  0999 V2000
    2.4825    0.9776   -0.1694 C   0  0  0  0  0  0  0  0  0  0  0  0
    1.0388    1.1183    0.2581 C   0  0  0  0  0  0  0  0  0  0  0  0
    0.2109    0.1218   -0.5172 C   0  0  0  0  0  0  0  0  0  0  0  0
    0.6642   -1.3031   -0.2581 C   0  0  0  0  0  0  0  0  0  0  0  0
   -0.5823   -2.1691   -0.4623 C   0  0  0  0  0  0  0  0  0  0  0  0
   -1.6719   -1.1976   -0.6249 C   0  0  0  0  0  0  0  0  0  0  0  0
   -2.7298   -1.3847   -1.1522 O   0  0  0  0  0  0  0  0  0  0  0  0
   -1.2229    0.0672   -0.0138 C   0  0  0  0  0  0  0  0  0  0  0  0
   -1.9996    1.2645   -0.5148 C   0  0  0  0  0  0  0  0  0  0  0  0
    3.0317    0.2306    0.4344 H   0  0  0  0  0  0  0  0  0  0  0  0
    2.9667    1.9882   -0.0351 H   0  0  0  0  0  0  0  0  0  0  0  0
    2.5594    0.7691   -1.2551 H   0  0  0  0  0  0  0  0  0  0  0  0
    0.9441    0.9896    1.3340 H   0  0  0  0  0  0  0  0  0  0  0  0
    0.7161    2.1346   -0.0651 H   0  0  0  0  0  0  0  0  0  0  0  0
    0.1582    0.3715   -1.5829 H   0  0  0  0  0  0  0  0  0  0  0  0
    0.9779   -1.3239    0.8225 H   0  0  0  0  0  0  0  0  0  0  0  0
    1.4695   -1.6220   -0.9246 H   0  0  0  0  0  0  0  0  0  0  0  0
   -0.6963   -2.7936    0.4554 H   0  0  0  0  0  0  0  0  0  0  0  0
   -0.4586   -2.8641   -1.3115 H   0  0  0  0  0  0  0  0  0  0  0  0
   -1.2573    0.0025    1.0991 H   0  0  0  0  0  0  0  0  0  0  0  0
   -2.7943    0.9046   -1.1933 H   0  0  0  0  0  0  0  0  0  0  0  0
   -2.4847    1.7405    0.3541 H   0  0  0  0  0  0  0  0  0  0  0  0
   -1.3224    1.9775   -1.0511 H   0  0  0  0  0  0  0  0  0  0  0  0
  1  2  1  0
  2  3  1  0
  3  4  1  0
  4  5  1  0
  5  6  1  0
  6  7  2  0
  6  8  1  0
  8  9  1  0
  8  3  1  0
  1 10  1  0
  1 11  1  0
  1 12  1  0
  2 13  1  0
  2 14  1  0
  3 15  1  0
  4 16  1  0
  4 17  1  0
  5 18  1  0
  5 19  1  0
  8 20  1  0
  9 21  1  0
  9 22  1  0
  9 23  1  0
M  END
