
     RDKit          3D

 23 25  0  0  0  0  0  0  0  0999 V2000
    2.7183   -0.3883    0.1463 C   0  0  0  0  0  0  0  0  0  0  0  0
    1.4222   -0.5987   -0.6461 C   0  0  0  0  0  0  0  0  0  0  0  0
    0.3293    0.0701    0.1306 C   0  0  0  0  0  0  0  0  0  0  0  0
    0.4186    1.5095    0.3925 C   0  0  0  0  0  0  0  0  0  0  0  0
   -0.5343    1.1218   -0.6528 C   0  0  0  0  0  0  0  0  0  0  0  0
   -1.8803    0.5555   -0.3874 C   0  0  0  0  0  0  0  0  0  0  0  0
   -1.6377   -0.9438   -0.6310 C   0  0  0  0  0  0  0  0  0  0  0  0
   -0.7766   -0.7937    0.6339 C   0  0  0  0  0  0  0  0  0  0  0  0
   -1.8886    0.1426    1.0812 C   0  0  0  0  0  0  0  0  0  0  0  0
    3.3769   -1.2766    0.0725 H   0  0  0  0  0  0  0  0  0  0  0  0
    3.2415    0.5256   -0.1852 H   0  0  0  0  0  0  0  0  0  0  0  0
    2.4830   -0.2331    1.2340 H   0  0  0  0  0  0  0  0  0  0  0  0
    1.2616   -1.6830   -0.7839 H   0  0  0  0  0  0  0  0  0  0  0  0
    1.5637   -0.1648   -1.6691 H   0  0  0  0  0  0  0  0  0  0  0  0
    1.3500    2.0030    0.0280 H   0  0  0  0  0  0  0  0  0  0  0  0
    0.1288    1.8628    1.3952 H   0  0  0  0  0  0  0  0  0  0  0  0
   -0.2707    1.2528   -1.7068 H   0  0  0  0  0  0  0  0  0  0  0  0
   -2.7622    0.9789   -0.7979 H   0  0  0  0  0  0  0  0  0  0  0  0
   -2.5371   -1.5503   -0.4735 H   0  0  0  0  0  0  0  0  0  0  0  0
   -1.0028   -1.1627   -1.4871 H   0  0  0  0  0  0  0  0  0  0  0  0
   -0.5851   -1.6686    1.2001 H   0  0  0  0  0  0  0  0  0  0  0  0
   -1.6248    0.9079    1.7992 H   0  0  0  0  0  0  0  0  0  0  0  0
   -2.7937   -0.4668    1.3074 H   0  0  0  0  0  0  0  0  0  0  0  0
  1  2  1  0
  2  3  1  0
  3  4  1  0
  4  5  1  0
  5  6  1  0
  6  7  1  0
  7  8  1  0
  8  9  1  0
  5  3  1  0
  9  6  1  0
  8  3  1  0
  1 10  1  0
  1 11  1  0
  1 12  1  0
  2 13  1  0
  2 14  1  0
  4 15  1  0
  4 16  1  0
  5 17  1  0
  6 18  1  0
  7 19  1  0
  7 20  1  0
  8 21  1  0
  9 22  1  0
  9 23  1  0
M  END
