
     RDKit          3D

 21 22  0  0  0  0  0  0  0  0999 V2000
    2.2102   -0.4658    0.7832 C   0  0  0  0  0  0  0  0  0  0  0  0
    1.1106    0.5346    0.4902 C   0  0  0  0  0  0  0  0  0  0  0  0
    0.2955    0.1405   -0.6867 C   0  0  0  0  0  0  0  0  0  0  0  0
    1.0328    0.0267   -1.8583 O   0  0  0  0  0  0  0  0  0  0  0  0
   -0.9581    0.8920   -0.9730 C   0  0  0  0  0  0  0  0  0  0  0  0
   -1.7352    0.9259    0.2999 C   0  0  0  0  0  0  0  0  0  0  0  0
   -1.5915   -0.5716    0.6430 C   0  0  0  0  0  0  0  0  0  0  0  0
   -0.7101   -0.9459   -0.5259 C   0  0  0  0  0  0  0  0  0  0  0  0
   -1.4075   -0.3127   -1.5833 O   0  0  0  0  0  0  0  0  0  0  0  0
    1.8158   -1.1969    1.5261 H   0  0  0  0  0  0  0  0  0  0  0  0
    2.5093   -1.0393   -0.0996 H   0  0  0  0  0  0  0  0  0  0  0  0
    3.0885    0.0248    1.2885 H   0  0  0  0  0  0  0  0  0  0  0  0
    1.6383    1.4927    0.2258 H   0  0  0  0  0  0  0  0  0  0  0  0
    0.5621    0.7420    1.4168 H   0  0  0  0  0  0  0  0  0  0  0  0
    1.2961   -0.8983   -2.0691 H   0  0  0  0  0  0  0  0  0  0  0  0
   -0.9335    1.7528   -1.6087 H   0  0  0  0  0  0  0  0  0  0  0  0
   -1.2711    1.4845    1.1083 H   0  0  0  0  0  0  0  0  0  0  0  0
   -2.8044    1.1754    0.1391 H   0  0  0  0  0  0  0  0  0  0  0  0
   -1.1261   -0.7169    1.6152 H   0  0  0  0  0  0  0  0  0  0  0  0
   -2.5827   -1.0774    0.5337 H   0  0  0  0  0  0  0  0  0  0  0  0
   -0.4390   -1.9671   -0.6650 H   0  0  0  0  0  0  0  0  0  0  0  0
  1  2  1  0
  2  3  1  0
  3  4  1  0
  3  5  1  0
  5  6  1  0
  6  7  1  0
  7  8  1  0
  8  9  1  0
  8  3  1  0
  9  5  1  0
  1 10  1  0
  1 11  1  0
  1 12  1  0
  2 13  1  0
  2 14  1  0
  4 15  1  0
  5 16  1  0
  6 17  1  0
  6 18  1  0
  7 19  1  0
  7 20  1  0
  8 21  1  0
M  END
