
     RDKit          3D

 23 24  0  0  0  0  0  0  0  0999 V2000
   -1.9476    0.2440    1.2335 C   0  0  0  0  0  0  0  0  0  0  0  0
   -1.6332   -0.0370   -0.1882 C   0  0  0  0  0  0  0  0  0  0  0  0
   -0.2051   -0.2896   -0.4937 C   0  0  0  0  0  0  0  0  0  0  0  0
    0.2546   -0.5854   -1.8810 C   0  0  0  0  0  0  0  0  0  0  0  0
    1.4074    0.1853   -1.6101 O   0  0  0  0  0  0  0  0  0  0  0  0
    0.9079    0.5894   -0.3745 C   0  0  0  0  0  0  0  0  0  0  0  0
    0.9158    2.0411   -0.1191 C   0  0  0  0  0  0  0  0  0  0  0  0
    0.7216   -0.4385    0.6630 C   0  0  0  0  0  0  0  0  0  0  0  0
    1.5383   -1.7228    0.6459 C   0  0  0  0  0  0  0  0  0  0  0  0
   -3.0692    0.2164    1.3429 H   0  0  0  0  0  0  0  0  0  0  0  0
   -1.6235    1.2213    1.6033 H   0  0  0  0  0  0  0  0  0  0  0  0
   -1.5845   -0.5813    1.8910 H   0  0  0  0  0  0  0  0  0  0  0  0
   -2.0998    0.7709   -0.8124 H   0  0  0  0  0  0  0  0  0  0  0  0
   -2.2066   -0.9658   -0.4786 H   0  0  0  0  0  0  0  0  0  0  0  0
    0.4770   -1.6677   -2.0041 H   0  0  0  0  0  0  0  0  0  0  0  0
   -0.3362   -0.1188   -2.6732 H   0  0  0  0  0  0  0  0  0  0  0  0
    1.9074    2.4537   -0.4639 H   0  0  0  0  0  0  0  0  0  0  0  0
    0.1619    2.6156   -0.7208 H   0  0  0  0  0  0  0  0  0  0  0  0
    0.8620    2.3254    0.9654 H   0  0  0  0  0  0  0  0  0  0  0  0
    0.3837   -0.1043    1.6412 H   0  0  0  0  0  0  0  0  0  0  0  0
    1.0347   -2.5020    0.0131 H   0  0  0  0  0  0  0  0  0  0  0  0
    1.6273   -2.1679    1.6497 H   0  0  0  0  0  0  0  0  0  0  0  0
    2.5060   -1.4819    0.1709 H   0  0  0  0  0  0  0  0  0  0  0  0
  1  2  1  0
  2  3  1  0
  3  4  1  0
  4  5  1  0
  5  6  1  0
  6  7  1  0
  6  8  1  0
  8  9  1  0
  6  3  1  0
  8  3  1  0
  1 10  1  0
  1 11  1  0
  1 12  1  0
  2 13  1  0
  2 14  1  0
  4 15  1  0
  4 16  1  0
  7 17  1  0
  7 18  1  0
  7 19  1  0
  8 20  1  0
  9 21  1  0
  9 22  1  0
  9 23  1  0
M  END
