
     RDKit          3D

 19 19  0  0  0  0  0  0  0  0999 V2000
   -2.2565    0.7002    0.7025 C   0  0  0  0  0  0  0  0  0  0  0  0
   -1.5563    0.3864   -0.5942 C   0  0  0  0  0  0  0  0  0  0  0  0
   -0.6357   -0.8057   -0.3370 C   0  0  0  0  0  0  0  0  0  0  0  0
    0.3208   -0.3889    0.7184 C   0  0  0  0  0  0  0  0  0  0  0  0
    1.5097   -0.2011    0.1737 C   0  0  0  0  0  0  0  0  0  0  0  0
    2.7316    0.2100    0.8397 C   0  0  0  0  0  0  0  0  0  0  0  0
    3.7972    0.3520    0.2036 O   0  0  0  0  0  0  0  0  0  0  0  0
    1.3661   -0.4925   -1.2713 C   0  0  0  0  0  0  0  0  0  0  0  0
    0.1409   -1.0712   -1.4598 O   0  0  0  0  0  0  0  0  0  0  0  0
   -3.0798    1.4387    0.5662 H   0  0  0  0  0  0  0  0  0  0  0  0
   -2.6724   -0.2718    1.0834 H   0  0  0  0  0  0  0  0  0  0  0  0
   -1.5115    1.0230    1.4390 H   0  0  0  0  0  0  0  0  0  0  0  0
   -0.9967    1.2708   -0.9107 H   0  0  0  0  0  0  0  0  0  0  0  0
   -2.3074    0.0785   -1.3363 H   0  0  0  0  0  0  0  0  0  0  0  0
   -1.2305   -1.6621    0.0021 H   0  0  0  0  0  0  0  0  0  0  0  0
    0.0385   -0.2718    1.7566 H   0  0  0  0  0  0  0  0  0  0  0  0
    2.7288    0.3971    1.8949 H   0  0  0  0  0  0  0  0  0  0  0  0
    2.1858   -1.1559   -1.6463 H   0  0  0  0  0  0  0  0  0  0  0  0
    1.4272    0.4643   -1.8244 H   0  0  0  0  0  0  0  0  0  0  0  0
  1  2  1  0
  2  3  1  0
  3  4  1  0
  4  5  2  0
  5  6  1  0
  6  7  2  0
  5  8  1  0
  8  9  1  0
  9  3  1  0
  1 10  1  0
  1 11  1  0
  1 12  1  0
  2 13  1  0
  2 14  1  0
  3 15  1  0
  4 16  1  0
  6 17  1  0
  8 18  1  0
  8 19  1  0
M  END
