
     RDKit          3D

 23 23  0  0  0  0  0  0  0  0999 V2000
    2.3795    0.0008    0.3613 C   0  0  0  0  0  0  0  0  0  0  0  0
    1.3209    0.7453   -0.3921 C   0  0  0  0  0  0  0  0  0  0  0  0
   -0.0145   -0.0142   -0.3670 C   0  0  0  0  0  0  0  0  0  0  0  0
    0.1384   -1.3527   -0.9877 C   0  0  0  0  0  0  0  0  0  0  0  0
   -1.1263    0.7741   -1.0286 C   0  0  0  0  0  0  0  0  0  0  0  0
   -1.6173    1.2046    0.3312 C   0  0  0  0  0  0  0  0  0  0  0  0
   -0.7153    0.1134    0.9224 C   0  0  0  0  0  0  0  0  0  0  0  0
   -1.4590   -1.0228    1.4539 C   0  0  0  0  0  0  0  0  0  0  0  0
   -1.9852   -0.9202    2.5443 O   0  0  0  0  0  0  0  0  0  0  0  0
    3.3050   -0.1573   -0.2458 H   0  0  0  0  0  0  0  0  0  0  0  0
    2.0555   -1.0094    0.6908 H   0  0  0  0  0  0  0  0  0  0  0  0
    2.6618    0.6401    1.2480 H   0  0  0  0  0  0  0  0  0  0  0  0
    1.1698    1.7688   -0.0101 H   0  0  0  0  0  0  0  0  0  0  0  0
    1.6716    0.8395   -1.4445 H   0  0  0  0  0  0  0  0  0  0  0  0
    0.0404   -2.2040   -0.2948 H   0  0  0  0  0  0  0  0  0  0  0  0
   -0.5994   -1.5207   -1.8171 H   0  0  0  0  0  0  0  0  0  0  0  0
    1.1467   -1.4805   -1.4720 H   0  0  0  0  0  0  0  0  0  0  0  0
   -1.9044    0.1408   -1.5212 H   0  0  0  0  0  0  0  0  0  0  0  0
   -0.8000    1.5706   -1.7075 H   0  0  0  0  0  0  0  0  0  0  0  0
   -1.2798    2.2340    0.5504 H   0  0  0  0  0  0  0  0  0  0  0  0
   -2.7023    1.0240    0.4995 H   0  0  0  0  0  0  0  0  0  0  0  0
   -0.1057    0.5902    1.7419 H   0  0  0  0  0  0  0  0  0  0  0  0
   -1.5804   -1.9643    0.9446 H   0  0  0  0  0  0  0  0  0  0  0  0
  1  2  1  0
  2  3  1  0
  3  4  1  0
  3  5  1  0
  5  6  1  0
  6  7  1  0
  7  8  1  0
  8  9  2  0
  7  3  1  0
  1 10  1  0
  1 11  1  0
  1 12  1  0
  2 13  1  0
  2 14  1  0
  4 15  1  0
  4 16  1  0
  4 17  1  0
  5 18  1  0
  5 19  1  0
  6 20  1  0
  6 21  1  0
  7 22  1  0
  8 23  1  0
M  END
