
     RDKit          3D

 23 23  0  0  0  0  0  0  0  0999 V2000
    2.7930   -0.8286   -0.2576 C   0  0  0  0  0  0  0  0  0  0  0  0
    1.8403    0.3683   -0.2258 C   0  0  0  0  0  0  0  0  0  0  0  0
    0.7152   -0.0130    0.7051 C   0  0  0  0  0  0  0  0  0  0  0  0
    0.0256   -1.1469    0.2807 O   0  0  0  0  0  0  0  0  0  0  0  0
   -1.0299   -0.4066   -0.2413 C   0  0  0  0  0  0  0  0  0  0  0  0
   -2.4011   -0.8759    0.1444 C   0  0  0  0  0  0  0  0  0  0  0  0
   -2.6530   -2.1833   -0.2657 O   0  0  0  0  0  0  0  0  0  0  0  0
   -0.5458    0.7634    0.5881 C   0  0  0  0  0  0  0  0  0  0  0  0
   -0.5239    2.0280   -0.1900 C   0  0  0  0  0  0  0  0  0  0  0  0
    2.1531   -1.7085   -0.5061 H   0  0  0  0  0  0  0  0  0  0  0  0
    3.6130   -0.6807   -0.9627 H   0  0  0  0  0  0  0  0  0  0  0  0
    3.1301   -0.9639    0.8006 H   0  0  0  0  0  0  0  0  0  0  0  0
    1.4866    0.5078   -1.2490 H   0  0  0  0  0  0  0  0  0  0  0  0
    2.3608    1.2820    0.0829 H   0  0  0  0  0  0  0  0  0  0  0  0
    1.0189   -0.1424    1.7632 H   0  0  0  0  0  0  0  0  0  0  0  0
   -0.9486   -0.2709   -1.3248 H   0  0  0  0  0  0  0  0  0  0  0  0
   -3.1311   -0.1852   -0.3292 H   0  0  0  0  0  0  0  0  0  0  0  0
   -2.5624   -0.7655    1.2515 H   0  0  0  0  0  0  0  0  0  0  0  0
   -2.4484   -2.7743    0.5156 H   0  0  0  0  0  0  0  0  0  0  0  0
   -1.1251    0.8252    1.5410 H   0  0  0  0  0  0  0  0  0  0  0  0
    0.3772    2.6382   -0.0575 H   0  0  0  0  0  0  0  0  0  0  0  0
   -1.3807    2.6645    0.1812 H   0  0  0  0  0  0  0  0  0  0  0  0
   -0.7636    1.8684   -1.2785 H   0  0  0  0  0  0  0  0  0  0  0  0
  1  2  1  0
  2  3  1  0
  3  4  1  0
  4  5  1  0
  5  6  1  0
  6  7  1  0
  5  8  1  0
  8  9  1  0
  8  3  1  0
  1 10  1  0
  1 11  1  0
  1 12  1  0
  2 13  1  0
  2 14  1  0
  3 15  1  0
  5 16  1  0
  6 17  1  0
  6 18  1  0
  7 19  1  0
  8 20  1  0
  9 21  1  0
  9 22  1  0
  9 23  1  0
M  END
