
     RDKit          3D

 21 21  0  0  0  0  0  0  0  0999 V2000
   -2.8368   -0.3775    0.7290 C   0  0  0  0  0  0  0  0  0  0  0  0
   -1.9881   -0.0158   -0.4593 C   0  0  0  0  0  0  0  0  0  0  0  0
   -0.7938    0.7993   -0.1156 C   0  0  0  0  0  0  0  0  0  0  0  0
   -0.0196    1.1033   -1.3491 O   0  0  0  0  0  0  0  0  0  0  0  0
    0.5855    0.4218   -0.1947 C   0  0  0  0  0  0  0  0  0  0  0  0
    1.6186    1.3478    0.4104 C   0  0  0  0  0  0  0  0  0  0  0  0
    1.0711   -0.9325   -0.4893 C   0  0  0  0  0  0  0  0  0  0  0  0
    2.4691   -1.3141   -0.1971 C   0  0  0  0  0  0  0  0  0  0  0  0
    0.3388   -1.7724   -0.9797 O   0  0  0  0  0  0  0  0  0  0  0  0
   -2.2269   -0.6597    1.6169 H   0  0  0  0  0  0  0  0  0  0  0  0
   -3.5109   -1.2226    0.4824 H   0  0  0  0  0  0  0  0  0  0  0  0
   -3.4845    0.4614    1.0655 H   0  0  0  0  0  0  0  0  0  0  0  0
   -2.6625    0.6238   -1.1096 H   0  0  0  0  0  0  0  0  0  0  0  0
   -1.8006   -0.9105   -1.0684 H   0  0  0  0  0  0  0  0  0  0  0  0
   -1.0133    1.8122    0.3392 H   0  0  0  0  0  0  0  0  0  0  0  0
    2.5624    1.2706   -0.1692 H   0  0  0  0  0  0  0  0  0  0  0  0
    1.3107    2.4253    0.3322 H   0  0  0  0  0  0  0  0  0  0  0  0
    1.8596    1.0958    1.4589 H   0  0  0  0  0  0  0  0  0  0  0  0
    2.6373   -1.2138    0.9054 H   0  0  0  0  0  0  0  0  0  0  0  0
    2.6794   -2.3427   -0.5393 H   0  0  0  0  0  0  0  0  0  0  0  0
    3.2046   -0.5997   -0.6688 H   0  0  0  0  0  0  0  0  0  0  0  0
  1  2  1  0
  2  3  1  0
  3  4  1  0
  4  5  1  0
  5  6  1  0
  5  7  1  0
  7  8  1  0
  7  9  2  0
  5  3  1  0
  1 10  1  0
  1 11  1  0
  1 12  1  0
  2 13  1  0
  2 14  1  0
  3 15  1  0
  6 16  1  0
  6 17  1  0
  6 18  1  0
  8 19  1  0
  8 20  1  0
  8 21  1  0
M  END
