
     RDKit          3D

 21 21  0  0  0  0  0  0  0  0999 V2000
    2.3961    0.4165   -0.1069 C   0  0  0  0  0  0  0  0  0  0  0  0
    1.4743   -0.5337   -0.8408 C   0  0  0  0  0  0  0  0  0  0  0  0
    0.1857   -0.7093   -0.0659 C   0  0  0  0  0  0  0  0  0  0  0  0
   -0.6789   -1.5618   -0.6934 O   0  0  0  0  0  0  0  0  0  0  0  0
   -1.9553   -1.3071   -0.2911 C   0  0  0  0  0  0  0  0  0  0  0  0
   -1.9739    0.0368    0.4023 C   0  0  0  0  0  0  0  0  0  0  0  0
   -0.6132    0.5893   -0.0302 C   0  0  0  0  0  0  0  0  0  0  0  0
   -0.0794    1.5566    0.9391 C   0  0  0  0  0  0  0  0  0  0  0  0
    0.1792    2.6847    0.5525 O   0  0  0  0  0  0  0  0  0  0  0  0
    2.3352    1.4195   -0.5931 H   0  0  0  0  0  0  0  0  0  0  0  0
    3.4691    0.0987   -0.2377 H   0  0  0  0  0  0  0  0  0  0  0  0
    2.1310    0.4664    0.9690 H   0  0  0  0  0  0  0  0  0  0  0  0
    1.9421   -1.5370   -0.9131 H   0  0  0  0  0  0  0  0  0  0  0  0
    1.2382   -0.1085   -1.8357 H   0  0  0  0  0  0  0  0  0  0  0  0
    0.3654   -0.9900    0.9842 H   0  0  0  0  0  0  0  0  0  0  0  0
   -2.6259   -1.2924   -1.1841 H   0  0  0  0  0  0  0  0  0  0  0  0
   -2.3457   -2.0557    0.4281 H   0  0  0  0  0  0  0  0  0  0  0  0
   -1.9929   -0.1093    1.5119 H   0  0  0  0  0  0  0  0  0  0  0  0
   -2.7968    0.6783    0.0859 H   0  0  0  0  0  0  0  0  0  0  0  0
   -0.7321    0.9837   -1.0409 H   0  0  0  0  0  0  0  0  0  0  0  0
    0.0776    1.2743    1.9599 H   0  0  0  0  0  0  0  0  0  0  0  0
  1  2  1  0
  2  3  1  0
  3  4  1  0
  4  5  1  0
  5  6  1  0
  6  7  1  0
  7  8  1  0
  8  9  2  0
  7  3  1  0
  1 10  1  0
  1 11  1  0
  1 12  1  0
  2 13  1  0
  2 14  1  0
  3 15  1  0
  5 16  1  0
  5 17  1  0
  6 18  1  0
  6 19  1  0
  7 20  1  0
  8 21  1  0
M  END
