
     RDKit          3D

 21 21  0  0  0  0  0  0  0  0999 V2000
    2.4344   -0.4459   -0.0433 C   0  0  0  0  0  0  0  0  0  0  0  0
    1.3517    0.1408    0.7978 C   0  0  0  0  0  0  0  0  0  0  0  0
    0.0642    0.3869    0.0120 C   0  0  0  0  0  0  0  0  0  0  0  0
    0.2984    1.3248   -1.1096 C   0  0  0  0  0  0  0  0  0  0  0  0
    1.0375    1.0066   -2.0157 O   0  0  0  0  0  0  0  0  0  0  0  0
   -0.5784   -0.8973   -0.4286 C   0  0  0  0  0  0  0  0  0  0  0  0
   -1.9159   -0.8769    0.2548 C   0  0  0  0  0  0  0  0  0  0  0  0
   -2.1002    0.6265    0.4980 C   0  0  0  0  0  0  0  0  0  0  0  0
   -0.8262    0.9725    0.9415 O   0  0  0  0  0  0  0  0  0  0  0  0
    3.2700    0.3052   -0.1006 H   0  0  0  0  0  0  0  0  0  0  0  0
    2.1194   -0.8148   -1.0221 H   0  0  0  0  0  0  0  0  0  0  0  0
    2.8794   -1.3108    0.5126 H   0  0  0  0  0  0  0  0  0  0  0  0
    1.0446   -0.5360    1.6428 H   0  0  0  0  0  0  0  0  0  0  0  0
    1.6435    1.0952    1.2769 H   0  0  0  0  0  0  0  0  0  0  0  0
   -0.1721    2.2922   -1.1474 H   0  0  0  0  0  0  0  0  0  0  0  0
   -0.7681   -0.8097   -1.5243 H   0  0  0  0  0  0  0  0  0  0  0  0
    0.0227   -1.7940   -0.1942 H   0  0  0  0  0  0  0  0  0  0  0  0
   -2.7186   -1.2337   -0.4013 H   0  0  0  0  0  0  0  0  0  0  0  0
   -1.9297   -1.4008    1.2233 H   0  0  0  0  0  0  0  0  0  0  0  0
   -2.3308    1.1368   -0.4548 H   0  0  0  0  0  0  0  0  0  0  0  0
   -2.8258    0.8322    1.2824 H   0  0  0  0  0  0  0  0  0  0  0  0
  1  2  1  0
  2  3  1  0
  3  4  1  0
  4  5  2  0
  3  6  1  0
  6  7  1  0
  7  8  1  0
  8  9  1  0
  9  3  1  0
  1 10  1  0
  1 11  1  0
  1 12  1  0
  2 13  1  0
  2 14  1  0
  4 15  1  0
  6 16  1  0
  6 17  1  0
  7 18  1  0
  7 19  1  0
  8 20  1  0
  8 21  1  0
M  END
