
     RDKit          3D

 23 23  0  0  0  0  0  0  0  0999 V2000
    2.2535    1.1984    0.0755 C   0  0  0  0  0  0  0  0  0  0  0  0
    1.9976    0.1670   -0.9710 C   0  0  0  0  0  0  0  0  0  0  0  0
    0.7475   -0.6259   -0.7653 C   0  0  0  0  0  0  0  0  0  0  0  0
    0.6890   -1.3917    0.5026 C   0  0  0  0  0  0  0  0  0  0  0  0
   -0.5470   -1.2244    1.0811 O   0  0  0  0  0  0  0  0  0  0  0  0
   -1.3810   -0.6285    0.1649 C   0  0  0  0  0  0  0  0  0  0  0  0
   -2.4796    0.1801    0.8097 C   0  0  0  0  0  0  0  0  0  0  0  0
   -3.2592    0.7352   -0.1940 O   0  0  0  0  0  0  0  0  0  0  0  0
   -0.4957    0.2200   -0.7221 C   0  0  0  0  0  0  0  0  0  0  0  0
    3.2208    1.6892   -0.1627 H   0  0  0  0  0  0  0  0  0  0  0  0
    2.3770    0.7681    1.0938 H   0  0  0  0  0  0  0  0  0  0  0  0
    1.4941    2.0171    0.0618 H   0  0  0  0  0  0  0  0  0  0  0  0
    2.8574   -0.5472   -0.9513 H   0  0  0  0  0  0  0  0  0  0  0  0
    2.0346    0.6522   -1.9610 H   0  0  0  0  0  0  0  0  0  0  0  0
    0.6292   -1.3322   -1.6122 H   0  0  0  0  0  0  0  0  0  0  0  0
    1.4462   -1.0457    1.2312 H   0  0  0  0  0  0  0  0  0  0  0  0
    0.8893   -2.4883    0.3446 H   0  0  0  0  0  0  0  0  0  0  0  0
   -1.8753   -1.3790   -0.4865 H   0  0  0  0  0  0  0  0  0  0  0  0
   -3.0867   -0.5096    1.4098 H   0  0  0  0  0  0  0  0  0  0  0  0
   -2.0774    0.9642    1.4544 H   0  0  0  0  0  0  0  0  0  0  0  0
   -4.1209    1.0881    0.1363 H   0  0  0  0  0  0  0  0  0  0  0  0
   -0.9689    0.2620   -1.7410 H   0  0  0  0  0  0  0  0  0  0  0  0
   -0.3444    1.2310   -0.3424 H   0  0  0  0  0  0  0  0  0  0  0  0
  1  2  1  0
  2  3  1  0
  3  4  1  0
  4  5  1  0
  5  6  1  0
  6  7  1  0
  7  8  1  0
  6  9  1  0
  9  3  1  0
  1 10  1  0
  1 11  1  0
  1 12  1  0
  2 13  1  0
  2 14  1  0
  3 15  1  0
  4 16  1  0
  4 17  1  0
  6 18  1  0
  7 19  1  0
  7 20  1  0
  8 21  1  0
  9 22  1  0
  9 23  1  0
M  END
