
     RDKit          3D

 25 25  0  0  0  0  0  0  0  0999 V2000
    2.9722    0.4106   -0.2793 C   0  0  0  0  0  0  0  0  0  0  0  0
    2.0801   -0.5647    0.4790 C   0  0  0  0  0  0  0  0  0  0  0  0
    0.7206   -0.6786   -0.1809 C   0  0  0  0  0  0  0  0  0  0  0  0
   -0.0919   -1.6210    0.5814 C   0  0  0  0  0  0  0  0  0  0  0  0
   -1.3930   -1.5947    0.4912 C   0  0  0  0  0  0  0  0  0  0  0  0
   -2.0639   -0.6254   -0.3712 C   0  0  0  0  0  0  0  0  0  0  0  0
   -1.3737    0.6871   -0.5356 C   0  0  0  0  0  0  0  0  0  0  0  0
   -2.0123    1.6663    0.4332 C   0  0  0  0  0  0  0  0  0  0  0  0
    0.1050    0.6647   -0.4108 C   0  0  0  0  0  0  0  0  0  0  0  0
    3.9441    0.4271    0.2363 H   0  0  0  0  0  0  0  0  0  0  0  0
    3.1441   -0.0475   -1.2743 H   0  0  0  0  0  0  0  0  0  0  0  0
    2.4968    1.4017   -0.3810 H   0  0  0  0  0  0  0  0  0  0  0  0
    2.0123   -0.3173    1.5537 H   0  0  0  0  0  0  0  0  0  0  0  0
    2.5753   -1.5590    0.3901 H   0  0  0  0  0  0  0  0  0  0  0  0
    0.9189   -1.1478   -1.1898 H   0  0  0  0  0  0  0  0  0  0  0  0
    0.4361   -2.3528    1.2313 H   0  0  0  0  0  0  0  0  0  0  0  0
   -1.9734   -2.2984    1.0609 H   0  0  0  0  0  0  0  0  0  0  0  0
   -3.1105   -0.4887    0.0113 H   0  0  0  0  0  0  0  0  0  0  0  0
   -2.2123   -1.1275   -1.3735 H   0  0  0  0  0  0  0  0  0  0  0  0
   -1.6432    1.0708   -1.5544 H   0  0  0  0  0  0  0  0  0  0  0  0
   -1.9084    2.6931   -0.0024 H   0  0  0  0  0  0  0  0  0  0  0  0
   -3.0952    1.3843    0.5061 H   0  0  0  0  0  0  0  0  0  0  0  0
   -1.4996    1.5616    1.3958 H   0  0  0  0  0  0  0  0  0  0  0  0
    0.5928    1.1535   -1.2824 H   0  0  0  0  0  0  0  0  0  0  0  0
    0.3788    1.3025    0.4654 H   0  0  0  0  0  0  0  0  0  0  0  0
  1  2  1  0
  2  3  1  0
  3  4  1  0
  4  5  2  0
  5  6  1  0
  6  7  1  0
  7  8  1  0
  7  9  1  0
  9  3  1  0
  1 10  1  0
  1 11  1  0
  1 12  1  0
  2 13  1  0
  2 14  1  0
  3 15  1  0
  4 16  1  0
  5 17  1  0
  6 18  1  0
  6 19  1  0
  7 20  1  0
  8 21  1  0
  8 22  1  0
  8 23  1  0
  9 24  1  0
  9 25  1  0
M  END
