
     RDKit          3D

 25 25  0  0  0  0  0  0  0  0999 V2000
    2.5088   -0.9804   -0.4048 C   0  0  0  0  0  0  0  0  0  0  0  0
    1.7009   -0.7506    0.8417 C   0  0  0  0  0  0  0  0  0  0  0  0
    0.2905   -0.3318    0.5806 C   0  0  0  0  0  0  0  0  0  0  0  0
   -0.4398   -1.2509   -0.1462 O   0  0  0  0  0  0  0  0  0  0  0  0
   -1.5005   -0.6054   -0.7322 C   0  0  0  0  0  0  0  0  0  0  0  0
   -2.7730   -1.1476   -0.1219 C   0  0  0  0  0  0  0  0  0  0  0  0
   -1.3404    0.8772   -0.4724 C   0  0  0  0  0  0  0  0  0  0  0  0
    0.1696    0.9053   -0.2523 C   0  0  0  0  0  0  0  0  0  0  0  0
    0.6413    2.1487    0.3933 C   0  0  0  0  0  0  0  0  0  0  0  0
    3.3795   -0.2750   -0.4378 H   0  0  0  0  0  0  0  0  0  0  0  0
    2.9296   -2.0094   -0.3440 H   0  0  0  0  0  0  0  0  0  0  0  0
    1.8801   -0.9059   -1.3170 H   0  0  0  0  0  0  0  0  0  0  0  0
    2.1730    0.0341    1.4713 H   0  0  0  0  0  0  0  0  0  0  0  0
    1.6605   -1.6620    1.4867 H   0  0  0  0  0  0  0  0  0  0  0  0
   -0.2084   -0.1615    1.5371 H   0  0  0  0  0  0  0  0  0  0  0  0
   -1.4896   -0.7632   -1.8286 H   0  0  0  0  0  0  0  0  0  0  0  0
   -2.6944   -1.0335    0.9776 H   0  0  0  0  0  0  0  0  0  0  0  0
   -2.7801   -2.2377   -0.3216 H   0  0  0  0  0  0  0  0  0  0  0  0
   -3.6840   -0.7212   -0.5518 H   0  0  0  0  0  0  0  0  0  0  0  0
   -1.8253    1.1118    0.4951 H   0  0  0  0  0  0  0  0  0  0  0  0
   -1.6520    1.5051   -1.3013 H   0  0  0  0  0  0  0  0  0  0  0  0
    0.6377    0.7758   -1.2632 H   0  0  0  0  0  0  0  0  0  0  0  0
    1.1287    2.8529   -0.3424 H   0  0  0  0  0  0  0  0  0  0  0  0
   -0.1454    2.7189    0.9232 H   0  0  0  0  0  0  0  0  0  0  0  0
    1.4328    1.9061    1.1310 H   0  0  0  0  0  0  0  0  0  0  0  0
  1  2  1  0
  2  3  1  0
  3  4  1  0
  4  5  1  0
  5  6  1  0
  5  7  1  0
  7  8  1  0
  8  9  1  0
  8  3  1  0
  1 10  1  0
  1 11  1  0
  1 12  1  0
  2 13  1  0
  2 14  1  0
  3 15  1  0
  5 16  1  0
  6 17  1  0
  6 18  1  0
  6 19  1  0
  7 20  1  0
  7 21  1  0
  8 22  1  0
  9 23  1  0
  9 24  1  0
  9 25  1  0
M  END
