
     RDKit          3D

 20 20  0  0  0  0  0  0  0  0999 V2000
   -2.5789    0.4975   -0.1922 C   0  0  0  0  0  0  0  0  0  0  0  0
   -1.5249   -0.3478    0.4884 C   0  0  0  0  0  0  0  0  0  0  0  0
   -0.2534   -0.4232   -0.3202 C   0  0  0  0  0  0  0  0  0  0  0  0
    0.3468    0.9185   -0.5398 C   0  0  0  0  0  0  0  0  0  0  0  0
    1.6154    1.1610   -0.2242 C   0  0  0  0  0  0  0  0  0  0  0  0
    2.4798    0.0988    0.3602 C   0  0  0  0  0  0  0  0  0  0  0  0
    1.6474   -0.7097    1.1432 O   0  0  0  0  0  0  0  0  0  0  0  0
    0.7666   -1.3382    0.2615 C   0  0  0  0  0  0  0  0  0  0  0  0
   -2.1697    0.8938   -1.1665 H   0  0  0  0  0  0  0  0  0  0  0  0
   -2.8569    1.3984    0.3928 H   0  0  0  0  0  0  0  0  0  0  0  0
   -3.4781   -0.0986   -0.4626 H   0  0  0  0  0  0  0  0  0  0  0  0
   -1.2559    0.2073    1.4297 H   0  0  0  0  0  0  0  0  0  0  0  0
   -1.8861   -1.3301    0.8106 H   0  0  0  0  0  0  0  0  0  0  0  0
   -0.5398   -0.8103   -1.3262 H   0  0  0  0  0  0  0  0  0  0  0  0
   -0.2978    1.6792   -0.9662 H   0  0  0  0  0  0  0  0  0  0  0  0
    2.0258    2.1369   -0.3919 H   0  0  0  0  0  0  0  0  0  0  0  0
    3.2862    0.5597    0.9622 H   0  0  0  0  0  0  0  0  0  0  0  0
    2.9636   -0.5212   -0.4172 H   0  0  0  0  0  0  0  0  0  0  0  0
    0.3240   -2.2368    0.7466 H   0  0  0  0  0  0  0  0  0  0  0  0
    1.3859   -1.7354   -0.5881 H   0  0  0  0  0  0  0  0  0  0  0  0
  1  2  1  0
  2  3  1  0
  3  4  1  0
  4  5  2  0
  5  6  1  0
  6  7  1  0
  7  8  1  0
  8  3  1  0
  1  9  1  0
  1 10  1  0
  1 11  1  0
  2 12  1  0
  2 13  1  0
  3 14  1  0
  4 15  1  0
  5 16  1  0
  6 17  1  0
  6 18  1  0
  8 19  1  0
  8 20  1  0
M  END
