
     RDKit          3D

 25 25  0  0  0  0  0  0  0  0999 V2000
    2.3367    0.9382   -0.6323 C   0  0  0  0  0  0  0  0  0  0  0  0
    2.1544   -0.0821    0.4479 C   0  0  0  0  0  0  0  0  0  0  0  0
    0.9384   -0.9132    0.3779 C   0  0  0  0  0  0  0  0  0  0  0  0
    0.8405   -1.6632   -0.7896 O   0  0  0  0  0  0  0  0  0  0  0  0
   -0.5511   -1.6708   -0.5491 C   0  0  0  0  0  0  0  0  0  0  0  0
   -0.4054   -0.3603    0.2435 C   0  0  0  0  0  0  0  0  0  0  0  0
   -1.2713   -0.4115    1.4812 C   0  0  0  0  0  0  0  0  0  0  0  0
   -0.7378    0.7889   -0.6044 C   0  0  0  0  0  0  0  0  0  0  0  0
   -2.2342    1.1412   -0.5395 C   0  0  0  0  0  0  0  0  0  0  0  0
    1.7655    0.7705   -1.5425 H   0  0  0  0  0  0  0  0  0  0  0  0
    3.4216    1.0124   -0.9539 H   0  0  0  0  0  0  0  0  0  0  0  0
    2.1615    1.9560   -0.1688 H   0  0  0  0  0  0  0  0  0  0  0  0
    2.3152    0.3905    1.4604 H   0  0  0  0  0  0  0  0  0  0  0  0
    3.0379   -0.7850    0.3593 H   0  0  0  0  0  0  0  0  0  0  0  0
    0.9396   -1.6612    1.2333 H   0  0  0  0  0  0  0  0  0  0  0  0
   -1.0777   -1.5536   -1.5061 H   0  0  0  0  0  0  0  0  0  0  0  0
   -0.8047   -2.5256    0.0779 H   0  0  0  0  0  0  0  0  0  0  0  0
   -0.9601   -1.3260    2.0536 H   0  0  0  0  0  0  0  0  0  0  0  0
   -2.3189   -0.4545    1.1719 H   0  0  0  0  0  0  0  0  0  0  0  0
   -1.0252    0.4575    2.1270 H   0  0  0  0  0  0  0  0  0  0  0  0
   -0.2007    1.7183   -0.4485 H   0  0  0  0  0  0  0  0  0  0  0  0
   -0.6003    0.5163   -1.6934 H   0  0  0  0  0  0  0  0  0  0  0  0
   -2.8463    0.2745   -0.8497 H   0  0  0  0  0  0  0  0  0  0  0  0
   -2.4580    1.9675   -1.2434 H   0  0  0  0  0  0  0  0  0  0  0  0
   -2.4194    1.4753    0.4871 H   0  0  0  0  0  0  0  0  0  0  0  0
  1  2  1  0
  2  3  1  0
  3  4  1  0
  4  5  1  0
  5  6  1  0
  6  7  1  0
  6  8  1  0
  8  9  1  0
  6  3  1  0
  1 10  1  0
  1 11  1  0
  1 12  1  0
  2 13  1  0
  2 14  1  0
  3 15  1  0
  5 16  1  0
  5 17  1  0
  7 18  1  0
  7 19  1  0
  7 20  1  0
  8 21  1  0
  8 22  1  0
  9 23  1  0
  9 24  1  0
  9 25  1  0
M  END
