
     RDKit          3D

 20 21  0  0  0  0  0  0  0  0999 V2000
    2.0518   -0.7999   -0.2149 C   0  0  0  0  0  0  0  0  0  0  0  0
    1.3794    0.5544    0.0889 C   0  0  0  0  0  0  0  0  0  0  0  0
   -0.0212    0.4257   -0.1176 C   0  0  0  0  0  0  0  0  0  0  0  0
   -0.5776   -0.6241    0.7858 C   0  0  0  0  0  0  0  0  0  0  0  0
   -1.8254   -1.1680    0.0680 C   0  0  0  0  0  0  0  0  0  0  0  0
   -1.9046   -0.2846   -1.0118 O   0  0  0  0  0  0  0  0  0  0  0  0
   -1.3755    0.8555   -0.3550 C   0  0  0  0  0  0  0  0  0  0  0  0
   -0.4165    1.6892   -0.7258 C   0  0  0  0  0  0  0  0  0  0  0  0
    1.4671   -1.3392   -1.0019 H   0  0  0  0  0  0  0  0  0  0  0  0
    3.0947   -0.6746   -0.5707 H   0  0  0  0  0  0  0  0  0  0  0  0
    2.1209   -1.4256    0.7004 H   0  0  0  0  0  0  0  0  0  0  0  0
    2.0193    1.2855   -0.4130 H   0  0  0  0  0  0  0  0  0  0  0  0
    1.5986    0.7075    1.1926 H   0  0  0  0  0  0  0  0  0  0  0  0
   -0.8494   -0.1908    1.7739 H   0  0  0  0  0  0  0  0  0  0  0  0
    0.0903   -1.4654    0.8590 H   0  0  0  0  0  0  0  0  0  0  0  0
   -1.7245   -2.2005   -0.2446 H   0  0  0  0  0  0  0  0  0  0  0  0
   -2.6935   -0.9854    0.7489 H   0  0  0  0  0  0  0  0  0  0  0  0
   -2.1261    1.1545    0.4453 H   0  0  0  0  0  0  0  0  0  0  0  0
   -0.0610    1.8047   -1.7986 H   0  0  0  0  0  0  0  0  0  0  0  0
   -0.2468    2.6811   -0.2088 H   0  0  0  0  0  0  0  0  0  0  0  0
  1  2  1  0
  2  3  1  0
  3  4  1  0
  4  5  1  0
  5  6  1  0
  6  7  1  0
  7  8  1  0
  7  3  1  0
  8  3  1  0
  1  9  1  0
  1 10  1  0
  1 11  1  0
  2 12  1  0
  2 13  1  0
  4 14  1  0
  4 15  1  0
  5 16  1  0
  5 17  1  0
  7 18  1  0
  8 19  1  0
  8 20  1  0
M  END
