
     RDKit          3D

 23 24  0  0  0  0  0  0  0  0999 V2000
    2.1789    0.9798    0.5464 C   0  0  0  0  0  0  0  0  0  0  0  0
    1.6001    0.0735   -0.4912 C   0  0  0  0  0  0  0  0  0  0  0  0
    0.3975   -0.6320    0.0331 C   0  0  0  0  0  0  0  0  0  0  0  0
    0.7247   -1.4004    1.1464 O   0  0  0  0  0  0  0  0  0  0  0  0
   -0.2650   -1.4399   -1.0848 C   0  0  0  0  0  0  0  0  0  0  0  0
   -1.4928   -0.6104   -0.9229 C   0  0  0  0  0  0  0  0  0  0  0  0
   -2.1234   -0.6220    0.4170 C   0  0  0  0  0  0  0  0  0  0  0  0
   -0.8603    0.1378    0.1781 C   0  0  0  0  0  0  0  0  0  0  0  0
   -0.9123    1.6024    0.3247 C   0  0  0  0  0  0  0  0  0  0  0  0
    2.3593    1.9876    0.1231 H   0  0  0  0  0  0  0  0  0  0  0  0
    1.5239    1.0676    1.4541 H   0  0  0  0  0  0  0  0  0  0  0  0
    3.1442    0.5667    0.9369 H   0  0  0  0  0  0  0  0  0  0  0  0
    2.3661   -0.7112   -0.7497 H   0  0  0  0  0  0  0  0  0  0  0  0
    1.4121    0.6070   -1.4538 H   0  0  0  0  0  0  0  0  0  0  0  0
    0.0263   -2.1140    1.2189 H   0  0  0  0  0  0  0  0  0  0  0  0
    0.2526   -1.3747   -2.0603 H   0  0  0  0  0  0  0  0  0  0  0  0
   -0.4468   -2.4761   -0.7385 H   0  0  0  0  0  0  0  0  0  0  0  0
   -1.9727   -0.1233   -1.7894 H   0  0  0  0  0  0  0  0  0  0  0  0
   -3.0629   -0.0690    0.5996 H   0  0  0  0  0  0  0  0  0  0  0  0
   -1.9867   -1.5309    1.0655 H   0  0  0  0  0  0  0  0  0  0  0  0
   -0.0307    2.1556   -0.0160 H   0  0  0  0  0  0  0  0  0  0  0  0
   -1.0366    1.8387    1.4227 H   0  0  0  0  0  0  0  0  0  0  0  0
   -1.7954    2.0872   -0.1600 H   0  0  0  0  0  0  0  0  0  0  0  0
  1  2  1  0
  2  3  1  0
  3  4  1  0
  3  5  1  0
  5  6  1  0
  6  7  1  0
  7  8  1  0
  8  9  1  0
  8  3  1  0
  8  6  1  0
  1 10  1  0
  1 11  1  0
  1 12  1  0
  2 13  1  0
  2 14  1  0
  4 15  1  0
  5 16  1  0
  5 17  1  0
  6 18  1  0
  7 19  1  0
  7 20  1  0
  9 21  1  0
  9 22  1  0
  9 23  1  0
M  END
