
     RDKit          3D

 20 20  0  0  0  0  0  0  0  0999 V2000
    2.2390   -0.7829    0.1001 C   0  0  0  0  0  0  0  0  0  0  0  0
    1.4193    0.2621   -0.6260 C   0  0  0  0  0  0  0  0  0  0  0  0
   -0.0473   -0.1184   -0.6993 C   0  0  0  0  0  0  0  0  0  0  0  0
   -0.6874    0.9217   -1.3884 O   0  0  0  0  0  0  0  0  0  0  0  0
   -1.1418    1.8167   -0.4528 C   0  0  0  0  0  0  0  0  0  0  0  0
   -1.3727    1.1456    0.7283 O   0  0  0  0  0  0  0  0  0  0  0  0
   -0.7199   -0.0835    0.6270 C   0  0  0  0  0  0  0  0  0  0  0  0
   -1.7449   -1.1551    0.8231 C   0  0  0  0  0  0  0  0  0  0  0  0
    3.3005   -0.4712    0.0045 H   0  0  0  0  0  0  0  0  0  0  0  0
    2.1771   -1.7816   -0.4217 H   0  0  0  0  0  0  0  0  0  0  0  0
    1.9920   -0.8681    1.1640 H   0  0  0  0  0  0  0  0  0  0  0  0
    1.8333    0.3564   -1.6497 H   0  0  0  0  0  0  0  0  0  0  0  0
    1.5765    1.2115   -0.0930 H   0  0  0  0  0  0  0  0  0  0  0  0
   -0.1826   -1.0273   -1.2812 H   0  0  0  0  0  0  0  0  0  0  0  0
   -0.4253    2.6401   -0.2342 H   0  0  0  0  0  0  0  0  0  0  0  0
   -2.0846    2.2777   -0.8671 H   0  0  0  0  0  0  0  0  0  0  0  0
   -0.0056   -0.1411    1.4832 H   0  0  0  0  0  0  0  0  0  0  0  0
   -2.4686   -1.2035   -0.0158 H   0  0  0  0  0  0  0  0  0  0  0  0
   -2.3551   -0.8604    1.7244 H   0  0  0  0  0  0  0  0  0  0  0  0
   -1.3020   -2.1389    1.0745 H   0  0  0  0  0  0  0  0  0  0  0  0
  1  2  1  0
  2  3  1  0
  3  4  1  0
  4  5  1  0
  5  6  1  0
  6  7  1  0
  7  8  1  0
  7  3  1  0
  1  9  1  0
  1 10  1  0
  1 11  1  0
  2 12  1  0
  2 13  1  0
  3 14  1  0
  5 15  1  0
  5 16  1  0
  7 17  1  0
  8 18  1  0
  8 19  1  0
  8 20  1  0
M  END
