
     RDKit          3D

 23 24  0  0  0  0  0  0  0  0999 V2000
    2.6687    0.8483    0.8189 C   0  0  0  0  0  0  0  0  0  0  0  0
    2.0213   -0.1792   -0.0877 C   0  0  0  0  0  0  0  0  0  0  0  0
    0.5630    0.1236   -0.3340 C   0  0  0  0  0  0  0  0  0  0  0  0
   -0.0463   -0.9055   -1.2302 C   0  0  0  0  0  0  0  0  0  0  0  0
   -1.5379   -0.5835   -1.2822 C   0  0  0  0  0  0  0  0  0  0  0  0
   -1.7252   -0.4124    0.2364 C   0  0  0  0  0  0  0  0  0  0  0  0
   -2.2645    0.9164    0.5988 C   0  0  0  0  0  0  0  0  0  0  0  0
   -0.2917   -0.6395    0.6438 C   0  0  0  0  0  0  0  0  0  0  0  0
    0.0235   -1.7808   -0.1208 O   0  0  0  0  0  0  0  0  0  0  0  0
    2.3837    0.7289    1.8686 H   0  0  0  0  0  0  0  0  0  0  0  0
    2.5284    1.8755    0.4245 H   0  0  0  0  0  0  0  0  0  0  0  0
    3.7762    0.6280    0.7755 H   0  0  0  0  0  0  0  0  0  0  0  0
    2.1719   -1.1613    0.3832 H   0  0  0  0  0  0  0  0  0  0  0  0
    2.5374   -0.1840   -1.0651 H   0  0  0  0  0  0  0  0  0  0  0  0
    0.3074    1.1652   -0.5012 H   0  0  0  0  0  0  0  0  0  0  0  0
    0.4355   -1.2031   -2.1260 H   0  0  0  0  0  0  0  0  0  0  0  0
   -2.0979   -1.4613   -1.6555 H   0  0  0  0  0  0  0  0  0  0  0  0
   -1.7428    0.3489   -1.8206 H   0  0  0  0  0  0  0  0  0  0  0  0
   -2.3211   -1.2578    0.5982 H   0  0  0  0  0  0  0  0  0  0  0  0
   -1.8978    1.2599    1.5965 H   0  0  0  0  0  0  0  0  0  0  0  0
   -3.3798    0.8008    0.7398 H   0  0  0  0  0  0  0  0  0  0  0  0
   -2.0796    1.7182   -0.1387 H   0  0  0  0  0  0  0  0  0  0  0  0
   -0.0323   -0.6451    1.6778 H   0  0  0  0  0  0  0  0  0  0  0  0
  1  2  1  0
  2  3  1  0
  3  4  1  0
  4  5  1  0
  5  6  1  0
  6  7  1  0
  6  8  1  0
  8  9  1  0
  8  3  1  0
  9  4  1  0
  1 10  1  0
  1 11  1  0
  1 12  1  0
  2 13  1  0
  2 14  1  0
  3 15  1  0
  4 16  1  0
  5 17  1  0
  5 18  1  0
  6 19  1  0
  7 20  1  0
  7 21  1  0
  7 22  1  0
  8 23  1  0
M  END
