
     RDKit          3D

 25 26  0  0  0  0  0  0  0  0999 V2000
    2.7892    1.0807    0.1320 C   0  0  0  0  0  0  0  0  0  0  0  0
    1.2911    1.1992   -0.1903 C   0  0  0  0  0  0  0  0  0  0  0  0
    0.8843   -0.1232   -0.7688 C   0  0  0  0  0  0  0  0  0  0  0  0
    1.1326   -1.2385    0.2356 C   0  0  0  0  0  0  0  0  0  0  0  0
   -0.1477   -1.8824   -0.3088 C   0  0  0  0  0  0  0  0  0  0  0  0
   -0.5534   -0.4706   -0.7583 C   0  0  0  0  0  0  0  0  0  0  0  0
   -1.4012    0.1516    0.3181 C   0  0  0  0  0  0  0  0  0  0  0  0
   -2.8821   -0.2657    0.2517 C   0  0  0  0  0  0  0  0  0  0  0  0
   -2.4617    1.1392   -0.0079 C   0  0  0  0  0  0  0  0  0  0  0  0
    3.0123    1.5502    1.1102 H   0  0  0  0  0  0  0  0  0  0  0  0
    3.4054    1.4908   -0.6985 H   0  0  0  0  0  0  0  0  0  0  0  0
    3.0890    0.0096    0.2235 H   0  0  0  0  0  0  0  0  0  0  0  0
    1.2241    2.0155   -0.9461 H   0  0  0  0  0  0  0  0  0  0  0  0
    0.7505    1.4632    0.7316 H   0  0  0  0  0  0  0  0  0  0  0  0
    1.3699   -0.3120   -1.7250 H   0  0  0  0  0  0  0  0  0  0  0  0
    2.0515   -1.7972    0.0240 H   0  0  0  0  0  0  0  0  0  0  0  0
    0.9701   -0.9036    1.2662 H   0  0  0  0  0  0  0  0  0  0  0  0
    0.0405   -2.5712   -1.1473 H   0  0  0  0  0  0  0  0  0  0  0  0
   -0.8014   -2.3200    0.4551 H   0  0  0  0  0  0  0  0  0  0  0  0
   -1.0718   -0.5229   -1.7374 H   0  0  0  0  0  0  0  0  0  0  0  0
   -0.9698    0.1932    1.3370 H   0  0  0  0  0  0  0  0  0  0  0  0
   -3.3896   -0.4710    1.2116 H   0  0  0  0  0  0  0  0  0  0  0  0
   -3.2091   -0.8628   -0.6233 H   0  0  0  0  0  0  0  0  0  0  0  0
   -2.4590    1.5189   -1.0390 H   0  0  0  0  0  0  0  0  0  0  0  0
   -2.6634    1.9292    0.7615 H   0  0  0  0  0  0  0  0  0  0  0  0
  1  2  1  0
  2  3  1  0
  3  4  1  0
  4  5  1  0
  5  6  1  0
  6  7  1  0
  7  8  1  0
  8  9  1  0
  6  3  1  0
  9  7  1  0
  1 10  1  0
  1 11  1  0
  1 12  1  0
  2 13  1  0
  2 14  1  0
  3 15  1  0
  4 16  1  0
  4 17  1  0
  5 18  1  0
  5 19  1  0
  6 20  1  0
  7 21  1  0
  8 22  1  0
  8 23  1  0
  9 24  1  0
  9 25  1  0
M  END
