
     RDKit          3D

 21 23  0  0  0  0  0  0  0  0999 V2000
    2.5759    0.1058   -0.0692 C   0  0  0  0  0  0  0  0  0  0  0  0
    1.3788   -0.0646    0.8695 C   0  0  0  0  0  0  0  0  0  0  0  0
    0.1487    0.0870    0.0138 C   0  0  0  0  0  0  0  0  0  0  0  0
   -0.0467   -0.8520   -1.1014 C   0  0  0  0  0  0  0  0  0  0  0  0
   -0.9501   -0.9005    0.0504 C   0  0  0  0  0  0  0  0  0  0  0  0
   -0.8752   -1.8636    1.0315 O   0  0  0  0  0  0  0  0  0  0  0  0
   -2.0032    0.1725    0.1281 C   0  0  0  0  0  0  0  0  0  0  0  0
   -1.8988    1.3912   -0.6882 C   0  0  0  0  0  0  0  0  0  0  0  0
   -0.8282    1.1823    0.2974 C   0  0  0  0  0  0  0  0  0  0  0  0
    2.6782   -0.8344   -0.6677 H   0  0  0  0  0  0  0  0  0  0  0  0
    2.3145    0.9489   -0.7431 H   0  0  0  0  0  0  0  0  0  0  0  0
    3.5108    0.2588    0.4727 H   0  0  0  0  0  0  0  0  0  0  0  0
    1.4326    0.8160    1.5628 H   0  0  0  0  0  0  0  0  0  0  0  0
    1.4202   -1.0001    1.4326 H   0  0  0  0  0  0  0  0  0  0  0  0
   -0.3942   -0.4960   -2.0919 H   0  0  0  0  0  0  0  0  0  0  0  0
    0.6970   -1.6729   -1.1784 H   0  0  0  0  0  0  0  0  0  0  0  0
   -1.4123   -2.6448    0.7297 H   0  0  0  0  0  0  0  0  0  0  0  0
   -2.7525    0.1439    0.9263 H   0  0  0  0  0  0  0  0  0  0  0  0
   -2.6241    2.1907   -0.4977 H   0  0  0  0  0  0  0  0  0  0  0  0
   -1.5662    1.3605   -1.7622 H   0  0  0  0  0  0  0  0  0  0  0  0
   -0.8053    1.6713    1.2851 H   0  0  0  0  0  0  0  0  0  0  0  0
  1  2  1  0
  2  3  1  0
  3  4  1  0
  4  5  1  0
  5  6  1  0
  5  7  1  0
  7  8  1  0
  8  9  1  0
  5  3  1  0
  9  7  1  0
  9  3  1  0
  1 10  1  0
  1 11  1  0
  1 12  1  0
  2 13  1  0
  2 14  1  0
  4 15  1  0
  4 16  1  0
  6 17  1  0
  7 18  1  0
  8 19  1  0
  8 20  1  0
  9 21  1  0
M  END
