
     RDKit          3D

 23 24  0  0  0  0  0  0  0  0999 V2000
    2.6489    0.3423   -0.1677 C   0  0  0  0  0  0  0  0  0  0  0  0
    1.2516    0.6753   -0.6621 C   0  0  0  0  0  0  0  0  0  0  0  0
    0.1924   -0.1357   -0.0627 C   0  0  0  0  0  0  0  0  0  0  0  0
    0.4429   -1.6189   -0.3946 C   0  0  0  0  0  0  0  0  0  0  0  0
   -0.0396   -0.0772    1.3296 O   0  0  0  0  0  0  0  0  0  0  0  0
   -0.6770    1.1002    1.0733 C   0  0  0  0  0  0  0  0  0  0  0  0
   -1.8676    1.4537    0.3451 C   0  0  0  0  0  0  0  0  0  0  0  0
   -1.2263    0.2605   -0.1154 C   0  0  0  0  0  0  0  0  0  0  0  0
   -2.0958   -0.9589    0.2882 C   0  0  0  0  0  0  0  0  0  0  0  0
    3.2854    1.2120   -0.4288 H   0  0  0  0  0  0  0  0  0  0  0  0
    3.0608   -0.5215   -0.7257 H   0  0  0  0  0  0  0  0  0  0  0  0
    2.6700    0.0797    0.9010 H   0  0  0  0  0  0  0  0  0  0  0  0
    1.2942    0.3721   -1.7639 H   0  0  0  0  0  0  0  0  0  0  0  0
    1.0857    1.7667   -0.7685 H   0  0  0  0  0  0  0  0  0  0  0  0
    0.0115   -2.2872    0.3542 H   0  0  0  0  0  0  0  0  0  0  0  0
    1.5322   -1.8287   -0.4246 H   0  0  0  0  0  0  0  0  0  0  0  0
    0.0637   -1.7748   -1.4206 H   0  0  0  0  0  0  0  0  0  0  0  0
    0.0849    1.8645    0.9388 H   0  0  0  0  0  0  0  0  0  0  0  0
   -1.9105    2.2917   -0.4160 H   0  0  0  0  0  0  0  0  0  0  0  0
   -2.8094    1.5148    0.9699 H   0  0  0  0  0  0  0  0  0  0  0  0
   -3.1684   -0.7403    0.1107 H   0  0  0  0  0  0  0  0  0  0  0  0
   -1.8524   -1.8342   -0.3333 H   0  0  0  0  0  0  0  0  0  0  0  0
   -1.9771   -1.1561    1.3732 H   0  0  0  0  0  0  0  0  0  0  0  0
  1  2  1  0
  2  3  1  0
  3  4  1  0
  3  5  1  0
  5  6  1  0
  6  7  1  0
  7  8  1  0
  8  9  1  0
  8  3  1  0
  8  6  1  0
  1 10  1  0
  1 11  1  0
  1 12  1  0
  2 13  1  0
  2 14  1  0
  4 15  1  0
  4 16  1  0
  4 17  1  0
  6 18  1  0
  7 19  1  0
  7 20  1  0
  9 21  1  0
  9 22  1  0
  9 23  1  0
M  END
