
     RDKit          3D

 23 24  0  0  0  0  0  0  0  0999 V2000
    2.4740   -0.6193   -0.3094 C   0  0  0  0  0  0  0  0  0  0  0  0
    1.8383   -0.3663    0.9928 C   0  0  0  0  0  0  0  0  0  0  0  0
    0.6209    0.4743    1.0022 C   0  0  0  0  0  0  0  0  0  0  0  0
    0.6562    1.8571    0.5088 C   0  0  0  0  0  0  0  0  0  0  0  0
   -0.6572    1.6886    0.0352 O   0  0  0  0  0  0  0  0  0  0  0  0
   -0.3188    0.3354   -0.1680 C   0  0  0  0  0  0  0  0  0  0  0  0
   -1.4231   -0.6310    0.1677 C   0  0  0  0  0  0  0  0  0  0  0  0
   -2.4312   -0.8402   -0.9595 C   0  0  0  0  0  0  0  0  0  0  0  0
   -2.8151   -0.2231    0.3397 C   0  0  0  0  0  0  0  0  0  0  0  0
    2.2393   -1.6377   -0.7420 H   0  0  0  0  0  0  0  0  0  0  0  0
    3.5989   -0.6300   -0.2032 H   0  0  0  0  0  0  0  0  0  0  0  0
    2.2609    0.0970   -1.1101 H   0  0  0  0  0  0  0  0  0  0  0  0
    2.5935    0.1010    1.6851 H   0  0  0  0  0  0  0  0  0  0  0  0
    1.5765   -1.3438    1.4671 H   0  0  0  0  0  0  0  0  0  0  0  0
    0.0929    0.4003    1.9814 H   0  0  0  0  0  0  0  0  0  0  0  0
    1.3052    2.1264   -0.3166 H   0  0  0  0  0  0  0  0  0  0  0  0
    0.7073    2.6321    1.3072 H   0  0  0  0  0  0  0  0  0  0  0  0
    0.2214    0.1344   -1.0919 H   0  0  0  0  0  0  0  0  0  0  0  0
   -1.0712   -1.5373    0.7185 H   0  0  0  0  0  0  0  0  0  0  0  0
   -2.6239   -1.8867   -1.1980 H   0  0  0  0  0  0  0  0  0  0  0  0
   -2.3514   -0.1834   -1.8511 H   0  0  0  0  0  0  0  0  0  0  0  0
   -3.0280    0.8762    0.3206 H   0  0  0  0  0  0  0  0  0  0  0  0
   -3.4655   -0.8241    0.9995 H   0  0  0  0  0  0  0  0  0  0  0  0
  1  2  1  0
  2  3  1  0
  3  4  1  0
  4  5  1  0
  5  6  1  0
  6  7  1  0
  7  8  1  0
  8  9  1  0
  6  3  1  0
  9  7  1  0
  1 10  1  0
  1 11  1  0
  1 12  1  0
  2 13  1  0
  2 14  1  0
  3 15  1  0
  4 16  1  0
  4 17  1  0
  6 18  1  0
  7 19  1  0
  8 20  1  0
  8 21  1  0
  9 22  1  0
  9 23  1  0
M  END
