
     RDKit          3D

 23 25  0  0  0  0  0  0  0  0999 V2000
    3.2033   -0.4223   -0.5176 C   0  0  0  0  0  0  0  0  0  0  0  0
    2.2858    0.4696    0.2509 C   0  0  0  0  0  0  0  0  0  0  0  0
    0.9000    0.5574   -0.3114 C   0  0  0  0  0  0  0  0  0  0  0  0
    0.1173   -0.6732   -0.4100 C   0  0  0  0  0  0  0  0  0  0  0  0
   -1.3184   -0.7089   -0.7977 C   0  0  0  0  0  0  0  0  0  0  0  0
   -2.0712    0.5068   -1.1705 C   0  0  0  0  0  0  0  0  0  0  0  0
   -1.6377    0.4116    0.2445 C   0  0  0  0  0  0  0  0  0  0  0  0
   -2.6601    0.0815    1.2944 C   0  0  0  0  0  0  0  0  0  0  0  0
   -0.1988    0.3413    0.6367 C   0  0  0  0  0  0  0  0  0  0  0  0
    4.2495   -0.2048   -0.1521 H   0  0  0  0  0  0  0  0  0  0  0  0
    3.0385   -1.4946   -0.3084 H   0  0  0  0  0  0  0  0  0  0  0  0
    3.1758   -0.2089   -1.5959 H   0  0  0  0  0  0  0  0  0  0  0  0
    2.7671    1.4861    0.3075 H   0  0  0  0  0  0  0  0  0  0  0  0
    2.2917    0.1088    1.3211 H   0  0  0  0  0  0  0  0  0  0  0  0
    0.7934    1.3602   -1.0988 H   0  0  0  0  0  0  0  0  0  0  0  0
    0.5739   -1.6410   -0.1569 H   0  0  0  0  0  0  0  0  0  0  0  0
   -1.8682   -1.6531   -0.6327 H   0  0  0  0  0  0  0  0  0  0  0  0
   -1.6435    1.2653   -1.8597 H   0  0  0  0  0  0  0  0  0  0  0  0
   -3.1590    0.3584   -1.3368 H   0  0  0  0  0  0  0  0  0  0  0  0
   -2.3231    0.3602    2.3197 H   0  0  0  0  0  0  0  0  0  0  0  0
   -2.9243   -0.9885    1.2061 H   0  0  0  0  0  0  0  0  0  0  0  0
   -3.5920    0.6591    1.0853 H   0  0  0  0  0  0  0  0  0  0  0  0
    0.0002    0.0292    1.6823 H   0  0  0  0  0  0  0  0  0  0  0  0
  1  2  1  0
  2  3  1  0
  3  4  1  0
  4  5  1  0
  5  6  1  0
  6  7  1  0
  7  8  1  0
  7  9  1  0
  9  3  1  0
  9  4  1  0
  7  5  1  0
  1 10  1  0
  1 11  1  0
  1 12  1  0
  2 13  1  0
  2 14  1  0
  3 15  1  0
  4 16  1  0
  5 17  1  0
  6 18  1  0
  6 19  1  0
  8 20  1  0
  8 21  1  0
  8 22  1  0
  9 23  1  0
M  END
