
     RDKit          3D

 19 20  0  0  0  0  0  0  0  0999 V2000
    2.3575   -0.0315   -0.1888 C   0  0  0  0  0  0  0  0  0  0  0  0
    1.1779   -0.0870    0.7630 C   0  0  0  0  0  0  0  0  0  0  0  0
   -0.0532    0.2351   -0.0059 C   0  0  0  0  0  0  0  0  0  0  0  0
   -0.4036   -0.6390   -1.1367 C   0  0  0  0  0  0  0  0  0  0  0  0
   -1.3169   -0.4513    0.0636 C   0  0  0  0  0  0  0  0  0  0  0  0
   -1.6022   -1.5779    0.7841 O   0  0  0  0  0  0  0  0  0  0  0  0
   -2.0068    0.8415    0.2773 C   0  0  0  0  0  0  0  0  0  0  0  0
   -0.7019    1.5424    0.1183 C   0  0  0  0  0  0  0  0  0  0  0  0
   -0.3690    2.6961    0.1042 O   0  0  0  0  0  0  0  0  0  0  0  0
    3.0274    0.8266    0.0300 H   0  0  0  0  0  0  0  0  0  0  0  0
    2.0239    0.0346   -1.2565 H   0  0  0  0  0  0  0  0  0  0  0  0
    2.9544   -0.9788   -0.0645 H   0  0  0  0  0  0  0  0  0  0  0  0
    1.3144    0.7464    1.5128 H   0  0  0  0  0  0  0  0  0  0  0  0
    1.1347   -1.0144    1.3461 H   0  0  0  0  0  0  0  0  0  0  0  0
    0.1154   -1.5978   -1.2043 H   0  0  0  0  0  0  0  0  0  0  0  0
   -0.8046   -0.2313   -2.0857 H   0  0  0  0  0  0  0  0  0  0  0  0
   -1.6611   -2.3292    0.1212 H   0  0  0  0  0  0  0  0  0  0  0  0
   -2.7552    1.1159   -0.4828 H   0  0  0  0  0  0  0  0  0  0  0  0
   -2.4311    0.8996    1.3046 H   0  0  0  0  0  0  0  0  0  0  0  0
  1  2  1  0
  2  3  1  0
  3  4  1  0
  4  5  1  0
  5  6  1  0
  5  7  1  0
  7  8  1  0
  8  9  2  0
  5  3  1  0
  8  3  1  0
  1 10  1  0
  1 11  1  0
  1 12  1  0
  2 13  1  0
  2 14  1  0
  4 15  1  0
  4 16  1  0
  6 17  1  0
  7 18  1  0
  7 19  1  0
M  END
