
     RDKit          3D

 23 24  0  0  0  0  0  0  0  0999 V2000
    2.6448   -0.0019   -0.0623 C   0  0  0  0  0  0  0  0  0  0  0  0
    1.4124    0.6342    0.5414 C   0  0  0  0  0  0  0  0  0  0  0  0
    0.1856   -0.0866    0.2126 C   0  0  0  0  0  0  0  0  0  0  0  0
    0.0267   -1.5107    0.6213 C   0  0  0  0  0  0  0  0  0  0  0  0
   -1.3566   -1.7562   -0.0281 C   0  0  0  0  0  0  0  0  0  0  0  0
   -1.5080   -0.3748   -0.6321 C   0  0  0  0  0  0  0  0  0  0  0  0
   -0.2073   -0.1305   -1.1340 O   0  0  0  0  0  0  0  0  0  0  0  0
   -1.1394    0.5704    0.4854 C   0  0  0  0  0  0  0  0  0  0  0  0
   -1.2692    1.9877    0.0492 C   0  0  0  0  0  0  0  0  0  0  0  0
    2.4992   -1.1061   -0.1706 H   0  0  0  0  0  0  0  0  0  0  0  0
    3.5329    0.1088    0.6025 H   0  0  0  0  0  0  0  0  0  0  0  0
    2.9041    0.3855   -1.0478 H   0  0  0  0  0  0  0  0  0  0  0  0
    1.3913    1.7099    0.2755 H   0  0  0  0  0  0  0  0  0  0  0  0
    1.5669    0.6118    1.6492 H   0  0  0  0  0  0  0  0  0  0  0  0
    0.7134   -2.2165    0.1544 H   0  0  0  0  0  0  0  0  0  0  0  0
   -0.0832   -1.6288    1.7149 H   0  0  0  0  0  0  0  0  0  0  0  0
   -1.2892   -2.4717   -0.8496 H   0  0  0  0  0  0  0  0  0  0  0  0
   -2.1038   -1.9769    0.7368 H   0  0  0  0  0  0  0  0  0  0  0  0
   -2.3372   -0.1599   -1.2617 H   0  0  0  0  0  0  0  0  0  0  0  0
   -1.5437    0.3157    1.4769 H   0  0  0  0  0  0  0  0  0  0  0  0
   -2.2151    2.3915    0.4699 H   0  0  0  0  0  0  0  0  0  0  0  0
   -0.4250    2.6382    0.3055 H   0  0  0  0  0  0  0  0  0  0  0  0
   -1.3996    2.0667   -1.0693 H   0  0  0  0  0  0  0  0  0  0  0  0
  1  2  1  0
  2  3  1  0
  3  4  1  0
  4  5  1  0
  5  6  1  0
  6  7  1  0
  6  8  1  0
  8  9  1  0
  7  3  1  0
  8  3  1  0
  1 10  1  0
  1 11  1  0
  1 12  1  0
  2 13  1  0
  2 14  1  0
  4 15  1  0
  4 16  1  0
  5 17  1  0
  5 18  1  0
  6 19  1  0
  8 20  1  0
  9 21  1  0
  9 22  1  0
  9 23  1  0
M  END
