
     RDKit          3D

 21 22  0  0  0  0  0  0  0  0999 V2000
    2.4419    0.0876   -0.2640 C   0  0  0  0  0  0  0  0  0  0  0  0
    1.3327   -0.0392    0.7237 C   0  0  0  0  0  0  0  0  0  0  0  0
   -0.0268   -0.1655    0.0784 C   0  0  0  0  0  0  0  0  0  0  0  0
   -0.4461    0.9718   -0.7872 C   0  0  0  0  0  0  0  0  0  0  0  0
   -1.8627    1.1974   -0.4485 C   0  0  0  0  0  0  0  0  0  0  0  0
   -2.2826    0.4527    0.5418 C   0  0  0  0  0  0  0  0  0  0  0  0
   -1.1679   -0.3953    1.0106 C   0  0  0  0  0  0  0  0  0  0  0  0
   -1.3293   -1.7179    0.5880 O   0  0  0  0  0  0  0  0  0  0  0  0
   -0.3832   -1.5221   -0.4395 C   0  0  0  0  0  0  0  0  0  0  0  0
    3.1604    0.8931    0.0498 H   0  0  0  0  0  0  0  0  0  0  0  0
    3.0595   -0.8527   -0.3501 H   0  0  0  0  0  0  0  0  0  0  0  0
    2.1143    0.3159   -1.2895 H   0  0  0  0  0  0  0  0  0  0  0  0
    1.5364   -0.9028    1.3708 H   0  0  0  0  0  0  0  0  0  0  0  0
    1.2982    0.8772    1.3749 H   0  0  0  0  0  0  0  0  0  0  0  0
   -0.3421    0.6513   -1.8469 H   0  0  0  0  0  0  0  0  0  0  0  0
    0.1130    1.9055   -0.5685 H   0  0  0  0  0  0  0  0  0  0  0  0
   -2.4933    1.9132   -0.9726 H   0  0  0  0  0  0  0  0  0  0  0  0
   -3.2735    0.4252    0.9819 H   0  0  0  0  0  0  0  0  0  0  0  0
   -0.9429   -0.2822    2.0900 H   0  0  0  0  0  0  0  0  0  0  0  0
   -0.8838   -1.5107   -1.4464 H   0  0  0  0  0  0  0  0  0  0  0  0
    0.3776   -2.3023   -0.3967 H   0  0  0  0  0  0  0  0  0  0  0  0
  1  2  1  0
  2  3  1  0
  3  4  1  0
  4  5  1  0
  5  6  2  0
  6  7  1  0
  7  8  1  0
  8  9  1  0
  7  3  1  0
  9  3  1  0
  1 10  1  0
  1 11  1  0
  1 12  1  0
  2 13  1  0
  2 14  1  0
  4 15  1  0
  4 16  1  0
  5 17  1  0
  6 18  1  0
  7 19  1  0
  9 20  1  0
  9 21  1  0
M  END
