
     RDKit          3D

 20 21  0  0  0  0  0  0  0  0999 V2000
   -2.1896   -0.6025    0.6829 C   0  0  0  0  0  0  0  0  0  0  0  0
   -1.4960    0.3074   -0.2828 C   0  0  0  0  0  0  0  0  0  0  0  0
    0.0039    0.2580   -0.1904 C   0  0  0  0  0  0  0  0  0  0  0  0
    0.6413   -1.0702   -0.4473 C   0  0  0  0  0  0  0  0  0  0  0  0
    2.1234   -1.1075   -0.3533 C   0  0  0  0  0  0  0  0  0  0  0  0
    1.3614   -1.2992   -1.6095 O   0  0  0  0  0  0  0  0  0  0  0  0
    0.7004    1.0830    0.8909 C   0  0  0  0  0  0  0  0  0  0  0  0
    0.7070    1.5235   -0.5307 C   0  0  0  0  0  0  0  0  0  0  0  0
   -1.6232   -0.6889    1.6422 H   0  0  0  0  0  0  0  0  0  0  0  0
   -3.1789   -0.1722    0.9061 H   0  0  0  0  0  0  0  0  0  0  0  0
   -2.3031   -1.5933    0.2041 H   0  0  0  0  0  0  0  0  0  0  0  0
   -1.8693    1.3485   -0.1346 H   0  0  0  0  0  0  0  0  0  0  0  0
   -1.7682    0.0115   -1.3302 H   0  0  0  0  0  0  0  0  0  0  0  0
    0.0842   -1.9333   -0.0802 H   0  0  0  0  0  0  0  0  0  0  0  0
    2.6016   -2.0375    0.0046 H   0  0  0  0  0  0  0  0  0  0  0  0
    2.7431   -0.2194   -0.4652 H   0  0  0  0  0  0  0  0  0  0  0  0
    1.6616    0.7088    1.2949 H   0  0  0  0  0  0  0  0  0  0  0  0
    0.0342    1.5356    1.6398 H   0  0  0  0  0  0  0  0  0  0  0  0
    1.6573    1.5146   -1.1005 H   0  0  0  0  0  0  0  0  0  0  0  0
    0.1091    2.4329   -0.7409 H   0  0  0  0  0  0  0  0  0  0  0  0
  1  2  1  0
  2  3  1  0
  3  4  1  0
  4  5  1  0
  5  6  1  0
  3  7  1  0
  7  8  1  0
  8  3  1  0
  6  4  1  0
  1  9  1  0
  1 10  1  0
  1 11  1  0
  2 12  1  0
  2 13  1  0
  4 14  1  0
  5 15  1  0
  5 16  1  0
  7 17  1  0
  7 18  1  0
  8 19  1  0
  8 20  1  0
M  END
