
     RDKit          3D

 18 19  0  0  0  0  0  0  0  0999 V2000
    2.4866   -0.1143    0.0699 C   0  0  0  0  0  0  0  0  0  0  0  0
    1.1668   -0.7815    0.3267 C   0  0  0  0  0  0  0  0  0  0  0  0
    0.0103    0.1707    0.3161 C   0  0  0  0  0  0  0  0  0  0  0  0
   -1.3396   -0.4211    0.5649 C   0  0  0  0  0  0  0  0  0  0  0  0
   -1.9226    0.3366   -0.6097 C   0  0  0  0  0  0  0  0  0  0  0  0
   -2.6637    1.4247   -0.1182 O   0  0  0  0  0  0  0  0  0  0  0  0
   -0.5146    0.6891   -1.0078 C   0  0  0  0  0  0  0  0  0  0  0  0
    0.1613    1.4748   -0.0959 O   0  0  0  0  0  0  0  0  0  0  0  0
    2.6772    0.6033    0.8727 H   0  0  0  0  0  0  0  0  0  0  0  0
    3.2712   -0.9119    0.1648 H   0  0  0  0  0  0  0  0  0  0  0  0
    2.5317    0.3998   -0.9101 H   0  0  0  0  0  0  0  0  0  0  0  0
    1.2198   -1.2235    1.3492 H   0  0  0  0  0  0  0  0  0  0  0  0
    0.9592   -1.6138   -0.3848 H   0  0  0  0  0  0  0  0  0  0  0  0
   -1.8075   -0.2141    1.5431 H   0  0  0  0  0  0  0  0  0  0  0  0
   -1.3661   -1.5088    0.3453 H   0  0  0  0  0  0  0  0  0  0  0  0
   -2.4852   -0.2501   -1.3362 H   0  0  0  0  0  0  0  0  0  0  0  0
   -2.3499    1.6865    0.7870 H   0  0  0  0  0  0  0  0  0  0  0  0
   -0.0350    0.2536   -1.8770 H   0  0  0  0  0  0  0  0  0  0  0  0
  1  2  1  0
  2  3  1  0
  3  4  1  0
  4  5  1  0
  5  6  1  0
  5  7  1  0
  7  8  1  0
  7  3  1  0
  8  3  1  0
  1  9  1  0
  1 10  1  0
  1 11  1  0
  2 12  1  0
  2 13  1  0
  4 14  1  0
  4 15  1  0
  5 16  1  0
  6 17  1  0
  7 18  1  0
M  END
