
     RDKit          3D

 21 23  0  0  0  0  0  0  0  0999 V2000
    2.5500   -0.2761   -0.0231 C   0  0  0  0  0  0  0  0  0  0  0  0
    1.3945    0.5808   -0.4209 C   0  0  0  0  0  0  0  0  0  0  0  0
    0.2013    0.3748    0.4779 C   0  0  0  0  0  0  0  0  0  0  0  0
   -0.8955    1.3141   -0.0510 C   0  0  0  0  0  0  0  0  0  0  0  0
   -1.8677    0.3038   -0.5784 C   0  0  0  0  0  0  0  0  0  0  0  0
   -1.9528   -0.7366    0.4582 C   0  0  0  0  0  0  0  0  0  0  0  0
   -2.1236   -1.6668   -0.5643 O   0  0  0  0  0  0  0  0  0  0  0  0
   -1.0949   -0.8822   -1.0698 C   0  0  0  0  0  0  0  0  0  0  0  0
   -0.4741   -0.9447    0.2680 C   0  0  0  0  0  0  0  0  0  0  0  0
    2.4993   -1.3107   -0.4129 H   0  0  0  0  0  0  0  0  0  0  0  0
    3.4950    0.1650   -0.4527 H   0  0  0  0  0  0  0  0  0  0  0  0
    2.7226   -0.3043    1.0719 H   0  0  0  0  0  0  0  0  0  0  0  0
    1.6930    1.6257   -0.4429 H   0  0  0  0  0  0  0  0  0  0  0  0
    1.1077    0.2962   -1.4629 H   0  0  0  0  0  0  0  0  0  0  0  0
    0.4352    0.5590    1.5223 H   0  0  0  0  0  0  0  0  0  0  0  0
   -1.3184    1.8102    0.8563 H   0  0  0  0  0  0  0  0  0  0  0  0
   -0.5181    2.0164   -0.7899 H   0  0  0  0  0  0  0  0  0  0  0  0
   -2.7300    0.6322   -1.1207 H   0  0  0  0  0  0  0  0  0  0  0  0
   -2.4402   -0.7336    1.3414 H   0  0  0  0  0  0  0  0  0  0  0  0
   -0.6603   -0.9816   -1.9768 H   0  0  0  0  0  0  0  0  0  0  0  0
   -0.0231   -1.8416    0.6360 H   0  0  0  0  0  0  0  0  0  0  0  0
  1  2  1  0
  2  3  1  0
  3  4  1  0
  4  5  1  0
  5  6  1  0
  6  7  1  0
  7  8  1  0
  8  9  1  0
  9  3  1  0
  8  5  1  0
  9  6  1  0
  1 10  1  0
  1 11  1  0
  1 12  1  0
  2 13  1  0
  2 14  1  0
  3 15  1  0
  4 16  1  0
  4 17  1  0
  5 18  1  0
  6 19  1  0
  8 20  1  0
  9 21  1  0
M  END
