
     RDKit          3D

 23 24  0  0  0  0  0  0  0  0999 V2000
   -2.6134    0.3477   -0.9527 C   0  0  0  0  0  0  0  0  0  0  0  0
   -2.0009   -0.4467    0.2085 C   0  0  0  0  0  0  0  0  0  0  0  0
   -0.6481   -0.2838    0.2846 C   0  0  0  0  0  0  0  0  0  0  0  0
    0.3045   -0.8947    1.2805 C   0  0  0  0  0  0  0  0  0  0  0  0
    1.2016   -0.1128    0.3459 C   0  0  0  0  0  0  0  0  0  0  0  0
    2.5512    0.0511    0.4299 C   0  0  0  0  0  0  0  0  0  0  0  0
    2.9643    0.6785    1.6310 O   0  0  0  0  0  0  0  0  0  0  0  0
    0.3716   -0.6727   -0.7557 C   0  0  0  0  0  0  0  0  0  0  0  0
    0.1431    0.9701    0.4467 C   0  0  0  0  0  0  0  0  0  0  0  0
   -2.0172    1.2921   -1.0442 H   0  0  0  0  0  0  0  0  0  0  0  0
   -2.4717   -0.1958   -1.9094 H   0  0  0  0  0  0  0  0  0  0  0  0
   -3.6612    0.5905   -0.7467 H   0  0  0  0  0  0  0  0  0  0  0  0
   -2.3023   -1.5077    0.0028 H   0  0  0  0  0  0  0  0  0  0  0  0
   -2.5567   -0.1455    1.1014 H   0  0  0  0  0  0  0  0  0  0  0  0
    0.4114   -1.9881    1.2350 H   0  0  0  0  0  0  0  0  0  0  0  0
    0.2219   -0.4759    2.2870 H   0  0  0  0  0  0  0  0  0  0  0  0
    2.9996    0.6728   -0.3733 H   0  0  0  0  0  0  0  0  0  0  0  0
    3.1358   -0.9021    0.4137 H   0  0  0  0  0  0  0  0  0  0  0  0
    2.9879    1.6531    1.5094 H   0  0  0  0  0  0  0  0  0  0  0  0
    0.2563   -0.0225   -1.6526 H   0  0  0  0  0  0  0  0  0  0  0  0
    0.4674   -1.7330   -0.9812 H   0  0  0  0  0  0  0  0  0  0  0  0
    0.1235    1.6681   -0.4138 H   0  0  0  0  0  0  0  0  0  0  0  0
    0.1314    1.4573    1.4260 H   0  0  0  0  0  0  0  0  0  0  0  0
  1  2  1  0
  2  3  1  0
  3  4  1  0
  4  5  1  0
  5  6  1  0
  6  7  1  0
  5  8  1  0
  5  9  1  0
  8  3  1  0
  9  3  1  0
  1 10  1  0
  1 11  1  0
  1 12  1  0
  2 13  1  0
  2 14  1  0
  4 15  1  0
  4 16  1  0
  6 17  1  0
  6 18  1  0
  7 19  1  0
  8 20  1  0
  8 21  1  0
  9 22  1  0
  9 23  1  0
M  END
