
     RDKit          3D

 19 19  0  0  0  0  0  0  0  0999 V2000
    1.8425    0.9065   -0.3113 C   0  0  0  0  0  0  0  0  0  0  0  0
    1.1205   -0.3575   -0.4519 C   0  0  0  0  0  0  0  0  0  0  0  0
   -0.2955   -0.4158   -0.0645 C   0  0  0  0  0  0  0  0  0  0  0  0
   -0.9220   -1.8060   -0.2668 C   0  0  0  0  0  0  0  0  0  0  0  0
   -0.5701    0.1624    1.3539 C   0  0  0  0  0  0  0  0  0  0  0  0
   -1.2148    0.6973    0.0869 C   0  0  0  0  0  0  0  0  0  0  0  0
   -0.9372    1.9993   -0.2934 O   0  0  0  0  0  0  0  0  0  0  0  0
    2.8168    0.8285   -0.8692 H   0  0  0  0  0  0  0  0  0  0  0  0
    1.3654    1.8152   -0.6373 H   0  0  0  0  0  0  0  0  0  0  0  0
    2.1535    1.0576    0.7604 H   0  0  0  0  0  0  0  0  0  0  0  0
    1.6773   -1.1513    0.1291 H   0  0  0  0  0  0  0  0  0  0  0  0
    1.2092   -0.7088   -1.5212 H   0  0  0  0  0  0  0  0  0  0  0  0
   -1.9949   -1.6598   -0.5665 H   0  0  0  0  0  0  0  0  0  0  0  0
   -0.8576   -2.4176    0.6356 H   0  0  0  0  0  0  0  0  0  0  0  0
   -0.4393   -2.2760   -1.1530 H   0  0  0  0  0  0  0  0  0  0  0  0
    0.1960    0.8403    1.7694 H   0  0  0  0  0  0  0  0  0  0  0  0
   -1.1514   -0.4546    2.0449 H   0  0  0  0  0  0  0  0  0  0  0  0
   -2.3058    0.4728    0.0475 H   0  0  0  0  0  0  0  0  0  0  0  0
   -1.6927    2.4674   -0.6925 H   0  0  0  0  0  0  0  0  0  0  0  0
  1  2  1  0
  2  3  1  0
  3  4  1  0
  3  5  1  0
  5  6  1  0
  6  7  1  0
  6  3  1  0
  1  8  1  0
  1  9  1  0
  1 10  1  0
  2 11  1  0
  2 12  1  0
  4 13  1  0
  4 14  1  0
  4 15  1  0
  5 16  1  0
  5 17  1  0
  6 18  1  0
  7 19  1  0
M  END
