
     RDKit          3D

 21 22  0  0  0  0  0  0  0  0999 V2000
    2.2324   -0.5384   -0.4558 C   0  0  0  0  0  0  0  0  0  0  0  0
    1.3515   -0.5517    0.7227 C   0  0  0  0  0  0  0  0  0  0  0  0
    0.0290    0.0758    0.6066 C   0  0  0  0  0  0  0  0  0  0  0  0
   -0.0020    1.5481    0.2613 C   0  0  0  0  0  0  0  0  0  0  0  0
   -1.3757    1.2710   -0.3700 C   0  0  0  0  0  0  0  0  0  0  0  0
   -0.9409   -0.1967   -0.4123 C   0  0  0  0  0  0  0  0  0  0  0  0
   -0.6973   -0.7202   -1.6186 O   0  0  0  0  0  0  0  0  0  0  0  0
   -1.6622   -0.9827    0.6187 C   0  0  0  0  0  0  0  0  0  0  0  0
   -0.8834   -0.3210    1.5850 O   0  0  0  0  0  0  0  0  0  0  0  0
    1.7442   -0.5380   -1.4378 H   0  0  0  0  0  0  0  0  0  0  0  0
    2.8925   -1.4348   -0.4294 H   0  0  0  0  0  0  0  0  0  0  0  0
    2.9467    0.3358   -0.4734 H   0  0  0  0  0  0  0  0  0  0  0  0
    1.2271   -1.5823    1.1230 H   0  0  0  0  0  0  0  0  0  0  0  0
    1.9010   -0.0043    1.5508 H   0  0  0  0  0  0  0  0  0  0  0  0
    0.7277    1.7567   -0.5346 H   0  0  0  0  0  0  0  0  0  0  0  0
   -0.0216    2.2179    1.1179 H   0  0  0  0  0  0  0  0  0  0  0  0
   -2.1476    1.4862    0.4065 H   0  0  0  0  0  0  0  0  0  0  0  0
   -1.5273    1.7358   -1.3491 H   0  0  0  0  0  0  0  0  0  0  0  0
   -1.5016   -0.7950   -2.1513 H   0  0  0  0  0  0  0  0  0  0  0  0
   -2.7448   -0.6909    0.6369 H   0  0  0  0  0  0  0  0  0  0  0  0
   -1.5480   -2.0714    0.6028 H   0  0  0  0  0  0  0  0  0  0  0  0
  1  2  1  0
  2  3  1  0
  3  4  1  0
  4  5  1  0
  5  6  1  0
  6  7  1  0
  6  8  1  0
  8  9  1  0
  6  3  1  0
  9  3  1  0
  1 10  1  0
  1 11  1  0
  1 12  1  0
  2 13  1  0
  2 14  1  0
  4 15  1  0
  4 16  1  0
  5 17  1  0
  5 18  1  0
  7 19  1  0
  8 20  1  0
  8 21  1  0
M  END
