
     RDKit          3D

 19 19  0  0  0  0  0  0  0  0999 V2000
    2.2897   -0.2985   -0.1474 C   0  0  0  0  0  0  0  0  0  0  0  0
    1.3343    0.8510   -0.2272 C   0  0  0  0  0  0  0  0  0  0  0  0
   -0.0539    0.4251   -0.6214 C   0  0  0  0  0  0  0  0  0  0  0  0
   -0.9004    1.5371   -0.6797 O   0  0  0  0  0  0  0  0  0  0  0  0
   -1.7144    1.5670    0.4656 C   0  0  0  0  0  0  0  0  0  0  0  0
   -2.4473    2.5051    0.8446 O   0  0  0  0  0  0  0  0  0  0  0  0
   -1.5770    0.3474    1.1419 O   0  0  0  0  0  0  0  0  0  0  0  0
   -0.7082   -0.4762    0.3696 C   0  0  0  0  0  0  0  0  0  0  0  0
   -1.5694   -1.4661   -0.4131 C   0  0  0  0  0  0  0  0  0  0  0  0
    3.2338   -0.0699   -0.7162 H   0  0  0  0  0  0  0  0  0  0  0  0
    1.8574   -1.2616   -0.5025 H   0  0  0  0  0  0  0  0  0  0  0  0
    2.5786   -0.4494    0.9303 H   0  0  0  0  0  0  0  0  0  0  0  0
    1.2883    1.4129    0.7063 H   0  0  0  0  0  0  0  0  0  0  0  0
    1.6869    1.5534   -1.0337 H   0  0  0  0  0  0  0  0  0  0  0  0
    0.0255   -0.0703   -1.6248 H   0  0  0  0  0  0  0  0  0  0  0  0
    0.0023   -1.0200    1.0181 H   0  0  0  0  0  0  0  0  0  0  0  0
   -2.6285   -1.1353   -0.3865 H   0  0  0  0  0  0  0  0  0  0  0  0
   -1.2830   -1.4720   -1.4928 H   0  0  0  0  0  0  0  0  0  0  0  0
   -1.4147   -2.4796   -0.0366 H   0  0  0  0  0  0  0  0  0  0  0  0
  1  2  1  0
  2  3  1  0
  3  4  1  0
  4  5  1  0
  5  6  2  0
  5  7  1  0
  7  8  1  0
  8  9  1  0
  8  3  1  0
  1 10  1  0
  1 11  1  0
  1 12  1  0
  2 13  1  0
  2 14  1  0
  3 15  1  0
  8 16  1  0
  9 17  1  0
  9 18  1  0
  9 19  1  0
M  END
