
     RDKit          3D

 23 23  0  0  0  0  0  0  0  0999 V2000
   -0.3519    2.1147    0.9442 C   0  0  0  0  0  0  0  0  0  0  0  0
    0.7099    1.1649    0.4457 C   0  0  0  0  0  0  0  0  0  0  0  0
    0.1231   -0.0216   -0.2781 C   0  0  0  0  0  0  0  0  0  0  0  0
    1.2679   -0.9008   -0.7312 C   0  0  0  0  0  0  0  0  0  0  0  0
    2.0923   -1.3898    0.4289 C   0  0  0  0  0  0  0  0  0  0  0  0
   -0.6743   -0.7083    0.6126 O   0  0  0  0  0  0  0  0  0  0  0  0
   -1.8614   -1.0027   -0.0285 C   0  0  0  0  0  0  0  0  0  0  0  0
   -1.9321   -0.0092   -1.1598 C   0  0  0  0  0  0  0  0  0  0  0  0
   -0.6171    0.3167   -1.3761 O   0  0  0  0  0  0  0  0  0  0  0  0
    0.1728    2.9887    1.3840 H   0  0  0  0  0  0  0  0  0  0  0  0
   -0.9738    1.6783    1.7568 H   0  0  0  0  0  0  0  0  0  0  0  0
   -0.9730    2.5221    0.1148 H   0  0  0  0  0  0  0  0  0  0  0  0
    1.4006    1.7377   -0.1949 H   0  0  0  0  0  0  0  0  0  0  0  0
    1.2758    0.8196    1.3322 H   0  0  0  0  0  0  0  0  0  0  0  0
    0.8663   -1.8130   -1.2528 H   0  0  0  0  0  0  0  0  0  0  0  0
    1.9455   -0.3298   -1.3964 H   0  0  0  0  0  0  0  0  0  0  0  0
    2.8361   -2.1169   -0.0001 H   0  0  0  0  0  0  0  0  0  0  0  0
    1.4947   -1.9874    1.1520 H   0  0  0  0  0  0  0  0  0  0  0  0
    2.6816   -0.5908    0.8906 H   0  0  0  0  0  0  0  0  0  0  0  0
   -2.7192   -0.8988    0.6643 H   0  0  0  0  0  0  0  0  0  0  0  0
   -1.8568   -2.0133   -0.4687 H   0  0  0  0  0  0  0  0  0  0  0  0
   -2.4417   -0.4398   -2.0389 H   0  0  0  0  0  0  0  0  0  0  0  0
   -2.4653    0.8794   -0.8007 H   0  0  0  0  0  0  0  0  0  0  0  0
  1  2  1  0
  2  3  1  0
  3  4  1  0
  4  5  1  0
  3  6  1  0
  6  7  1  0
  7  8  1  0
  8  9  1  0
  9  3  1  0
  1 10  1  0
  1 11  1  0
  1 12  1  0
  2 13  1  0
  2 14  1  0
  4 15  1  0
  4 16  1  0
  5 17  1  0
  5 18  1  0
  5 19  1  0
  7 20  1  0
  7 21  1  0
  8 22  1  0
  8 23  1  0
M  END
