
     RDKit          3D

 21 23  0  0  0  0  0  0  0  0999 V2000
    2.5898    0.3588    0.7866 C   0  0  0  0  0  0  0  0  0  0  0  0
    1.7321   -0.0461   -0.4153 C   0  0  0  0  0  0  0  0  0  0  0  0
    0.3710   -0.2868    0.0578 C   0  0  0  0  0  0  0  0  0  0  0  0
   -0.6909   -0.7014   -0.9136 C   0  0  0  0  0  0  0  0  0  0  0  0
   -0.7279    0.7282   -1.3789 C   0  0  0  0  0  0  0  0  0  0  0  0
   -0.6139    0.8322    0.1202 C   0  0  0  0  0  0  0  0  0  0  0  0
   -1.6536   -0.2320    0.1202 C   0  0  0  0  0  0  0  0  0  0  0  0
   -2.4271   -0.8098    1.0265 C   0  0  0  0  0  0  0  0  0  0  0  0
   -2.9756   -0.0130   -0.1080 O   0  0  0  0  0  0  0  0  0  0  0  0
    2.9754    1.3994    0.6723 H   0  0  0  0  0  0  0  0  0  0  0  0
    2.0106    0.3501    1.7251 H   0  0  0  0  0  0  0  0  0  0  0  0
    3.4890   -0.2874    0.8589 H   0  0  0  0  0  0  0  0  0  0  0  0
    2.1571   -1.0166   -0.8072 H   0  0  0  0  0  0  0  0  0  0  0  0
    1.8991    0.6958   -1.1797 H   0  0  0  0  0  0  0  0  0  0  0  0
    0.3583   -0.9711    0.9390 H   0  0  0  0  0  0  0  0  0  0  0  0
   -0.7250   -1.5255   -1.4787 H   0  0  0  0  0  0  0  0  0  0  0  0
    0.0778    1.0993   -1.9881 H   0  0  0  0  0  0  0  0  0  0  0  0
   -1.7719    0.9843   -1.6955 H   0  0  0  0  0  0  0  0  0  0  0  0
   -0.5729    1.6724    0.6629 H   0  0  0  0  0  0  0  0  0  0  0  0
   -2.7159   -0.3552    2.0136 H   0  0  0  0  0  0  0  0  0  0  0  0
   -2.7856   -1.8758    0.9818 H   0  0  0  0  0  0  0  0  0  0  0  0
  1  2  1  0
  2  3  1  0
  3  4  1  0
  4  5  1  0
  5  6  1  0
  6  7  1  0
  7  8  1  0
  8  9  1  0
  6  3  1  0
  9  7  1  0
  7  4  1  0
  1 10  1  0
  1 11  1  0
  1 12  1  0
  2 13  1  0
  2 14  1  0
  3 15  1  0
  4 16  1  0
  5 17  1  0
  5 18  1  0
  6 19  1  0
  8 20  1  0
  8 21  1  0
M  END
