
     RDKit          3D

 25 25  0  0  0  0  0  0  0  0999 V2000
    3.0971   -0.9132   -0.3161 C   0  0  0  0  0  0  0  0  0  0  0  0
    1.7293   -1.5581   -0.3799 C   0  0  0  0  0  0  0  0  0  0  0  0
    0.6952   -0.6015    0.1648 C   0  0  0  0  0  0  0  0  0  0  0  0
    0.5708    0.7243   -0.5615 C   0  0  0  0  0  0  0  0  0  0  0  0
    0.4356    1.9223    0.3665 C   0  0  0  0  0  0  0  0  0  0  0  0
   -0.5055   -0.2707   -0.6746 C   0  0  0  0  0  0  0  0  0  0  0  0
   -1.7870   -0.1414    0.1289 C   0  0  0  0  0  0  0  0  0  0  0  0
   -2.8852    0.1922   -0.8760 C   0  0  0  0  0  0  0  0  0  0  0  0
   -4.1151    0.3399   -0.2841 O   0  0  0  0  0  0  0  0  0  0  0  0
    3.4916   -0.9726    0.7149 H   0  0  0  0  0  0  0  0  0  0  0  0
    3.0786    0.1241   -0.7190 H   0  0  0  0  0  0  0  0  0  0  0  0
    3.7944   -1.4727   -0.9995 H   0  0  0  0  0  0  0  0  0  0  0  0
    1.4894   -1.8251   -1.4261 H   0  0  0  0  0  0  0  0  0  0  0  0
    1.7450   -2.4676    0.2401 H   0  0  0  0  0  0  0  0  0  0  0  0
    0.6163   -0.6087    1.2675 H   0  0  0  0  0  0  0  0  0  0  0  0
    1.2248    0.9025   -1.4508 H   0  0  0  0  0  0  0  0  0  0  0  0
    1.1933    2.6953    0.1006 H   0  0  0  0  0  0  0  0  0  0  0  0
    0.6431    1.6402    1.4263 H   0  0  0  0  0  0  0  0  0  0  0  0
   -0.5553    2.4170    0.2531 H   0  0  0  0  0  0  0  0  0  0  0  0
   -0.5756   -0.8023   -1.6448 H   0  0  0  0  0  0  0  0  0  0  0  0
   -2.0645   -1.1116    0.5861 H   0  0  0  0  0  0  0  0  0  0  0  0
   -1.7125    0.6366    0.8977 H   0  0  0  0  0  0  0  0  0  0  0  0
   -2.9492   -0.7016   -1.5584 H   0  0  0  0  0  0  0  0  0  0  0  0
   -2.5655    1.0303   -1.5002 H   0  0  0  0  0  0  0  0  0  0  0  0
   -4.0891    0.8225    0.5574 H   0  0  0  0  0  0  0  0  0  0  0  0
  1  2  1  0
  2  3  1  0
  3  4  1  0
  4  5  1  0
  4  6  1  0
  6  7  1  0
  7  8  1  0
  8  9  1  0
  6  3  1  0
  1 10  1  0
  1 11  1  0
  1 12  1  0
  2 13  1  0
  2 14  1  0
  3 15  1  0
  4 16  1  0
  5 17  1  0
  5 18  1  0
  5 19  1  0
  6 20  1  0
  7 21  1  0
  7 22  1  0
  8 23  1  0
  8 24  1  0
  9 25  1  0
M  END
