
     RDKit          3D

 20 20  0  0  0  0  0  0  0  0999 V2000
   -1.5606    1.4822   -0.0124 C   0  0  0  0  0  0  0  0  0  0  0  0
   -1.2711    0.0974    0.4398 C   0  0  0  0  0  0  0  0  0  0  0  0
   -0.3551   -0.6993   -0.4222 C   0  0  0  0  0  0  0  0  0  0  0  0
   -0.1990   -2.0900    0.2197 C   0  0  0  0  0  0  0  0  0  0  0  0
    0.7971   -1.5100    1.0066 O   0  0  0  0  0  0  0  0  0  0  0  0
    1.0984   -0.7224   -0.1104 C   0  0  0  0  0  0  0  0  0  0  0  0
    1.8196    0.5424    0.1501 C   0  0  0  0  0  0  0  0  0  0  0  0
    1.1370    1.4007    0.9817 O   0  0  0  0  0  0  0  0  0  0  0  0
   -1.4887    2.1750    0.8503 H   0  0  0  0  0  0  0  0  0  0  0  0
   -0.8869    1.8719   -0.8042 H   0  0  0  0  0  0  0  0  0  0  0  0
   -2.6295    1.5687   -0.3490 H   0  0  0  0  0  0  0  0  0  0  0  0
   -0.8419    0.0758    1.4809 H   0  0  0  0  0  0  0  0  0  0  0  0
   -2.2348   -0.4833    0.5293 H   0  0  0  0  0  0  0  0  0  0  0  0
   -0.6082   -0.7478   -1.4996 H   0  0  0  0  0  0  0  0  0  0  0  0
    0.2507   -2.8296   -0.4524 H   0  0  0  0  0  0  0  0  0  0  0  0
   -1.1037   -2.4002    0.7692 H   0  0  0  0  0  0  0  0  0  0  0  0
    1.6184   -1.3365   -0.9006 H   0  0  0  0  0  0  0  0  0  0  0  0
    1.9804    1.0752   -0.8111 H   0  0  0  0  0  0  0  0  0  0  0  0
    2.8297    0.2885    0.5409 H   0  0  0  0  0  0  0  0  0  0  0  0
    1.6481    2.2412    1.0973 H   0  0  0  0  0  0  0  0  0  0  0  0
  1  2  1  0
  2  3  1  0
  3  4  1  0
  4  5  1  0
  5  6  1  0
  6  7  1  0
  7  8  1  0
  6  3  1  0
  1  9  1  0
  1 10  1  0
  1 11  1  0
  2 12  1  0
  2 13  1  0
  3 14  1  0
  4 15  1  0
  4 16  1  0
  6 17  1  0
  7 18  1  0
  7 19  1  0
  8 20  1  0
M  END
