
     RDKit          3D

 19 20  0  0  0  0  0  0  0  0999 V2000
    2.1350    0.6743    0.2984 C   0  0  0  0  0  0  0  0  0  0  0  0
    1.3125   -0.1769   -0.5919 C   0  0  0  0  0  0  0  0  0  0  0  0
   -0.1323   -0.1958   -0.3390 C   0  0  0  0  0  0  0  0  0  0  0  0
   -1.0305   -1.0425   -1.2092 C   0  0  0  0  0  0  0  0  0  0  0  0
   -0.8769   -1.3244    0.2448 C   0  0  0  0  0  0  0  0  0  0  0  0
   -1.4576   -0.3863    1.2340 C   0  0  0  0  0  0  0  0  0  0  0  0
   -2.1491   -0.5134    2.2104 O   0  0  0  0  0  0  0  0  0  0  0  0
   -0.8450    0.7784    0.5392 C   0  0  0  0  0  0  0  0  0  0  0  0
   -1.7500    1.5094   -0.2578 O   0  0  0  0  0  0  0  0  0  0  0  0
    1.7860    1.7347    0.2527 H   0  0  0  0  0  0  0  0  0  0  0  0
    2.0790    0.3685    1.3582 H   0  0  0  0  0  0  0  0  0  0  0  0
    3.1850    0.6646   -0.0542 H   0  0  0  0  0  0  0  0  0  0  0  0
    1.7076   -1.2191   -0.5379 H   0  0  0  0  0  0  0  0  0  0  0  0
    1.4882    0.1626   -1.6512 H   0  0  0  0  0  0  0  0  0  0  0  0
   -1.9009   -0.5012   -1.6037 H   0  0  0  0  0  0  0  0  0  0  0  0
   -0.5021   -1.7072   -1.8927 H   0  0  0  0  0  0  0  0  0  0  0  0
   -0.3787   -2.2399    0.5574 H   0  0  0  0  0  0  0  0  0  0  0  0
   -0.2427    1.4424    1.1643 H   0  0  0  0  0  0  0  0  0  0  0  0
   -2.4275    1.9717    0.2781 H   0  0  0  0  0  0  0  0  0  0  0  0
  1  2  1  0
  2  3  1  0
  3  4  1  0
  4  5  1  0
  5  6  1  0
  6  7  2  0
  6  8  1  0
  8  9  1  0
  5  3  1  0
  8  3  1  0
  1 10  1  0
  1 11  1  0
  1 12  1  0
  2 13  1  0
  2 14  1  0
  4 15  1  0
  4 16  1  0
  5 17  1  0
  8 18  1  0
  9 19  1  0
M  END
