
     RDKit          3D

 19 20  0  0  0  0  0  0  0  0999 V2000
   -2.3340   -0.5668    0.5056 C   0  0  0  0  0  0  0  0  0  0  0  0
   -1.3191    0.5421    0.3831 C   0  0  0  0  0  0  0  0  0  0  0  0
   -0.0247   -0.0201   -0.1091 C   0  0  0  0  0  0  0  0  0  0  0  0
   -0.1531   -0.6652   -1.4290 C   0  0  0  0  0  0  0  0  0  0  0  0
   -0.6856   -0.0901   -2.3486 O   0  0  0  0  0  0  0  0  0  0  0  0
    0.6172   -0.8419    0.8185 O   0  0  0  0  0  0  0  0  0  0  0  0
    1.7632   -0.0729    0.9067 C   0  0  0  0  0  0  0  0  0  0  0  0
    2.4752    0.2702   -0.3542 C   0  0  0  0  0  0  0  0  0  0  0  0
    1.1656    0.9034   -0.0400 C   0  0  0  0  0  0  0  0  0  0  0  0
   -3.0002   -0.4305    1.4045 H   0  0  0  0  0  0  0  0  0  0  0  0
   -1.8453   -1.5729    0.6018 H   0  0  0  0  0  0  0  0  0  0  0  0
   -2.9782   -0.6392   -0.4112 H   0  0  0  0  0  0  0  0  0  0  0  0
   -1.6921    1.2920   -0.3535 H   0  0  0  0  0  0  0  0  0  0  0  0
   -1.2304    1.0202    1.3662 H   0  0  0  0  0  0  0  0  0  0  0  0
    0.2313   -1.6706   -1.5920 H   0  0  0  0  0  0  0  0  0  0  0  0
    2.1568    0.2281    1.8915 H   0  0  0  0  0  0  0  0  0  0  0  0
    2.4175   -0.5122   -1.1652 H   0  0  0  0  0  0  0  0  0  0  0  0
    3.3759    0.8799   -0.3235 H   0  0  0  0  0  0  0  0  0  0  0  0
    1.0600    1.9464    0.2484 H   0  0  0  0  0  0  0  0  0  0  0  0
  1  2  1  0
  2  3  1  0
  3  4  1  0
  4  5  2  0
  3  6  1  0
  6  7  1  0
  7  8  1  0
  8  9  1  0
  9  3  1  0
  9  7  1  0
  1 10  1  0
  1 11  1  0
  1 12  1  0
  2 13  1  0
  2 14  1  0
  4 15  1  0
  7 16  1  0
  8 17  1  0
  8 18  1  0
  9 19  1  0
M  END
