
     RDKit          3D

 23 23  0  0  0  0  0  0  0  0999 V2000
   -2.5908    0.1218    0.3157 C   0  0  0  0  0  0  0  0  0  0  0  0
   -1.5644    0.0933   -0.7897 C   0  0  0  0  0  0  0  0  0  0  0  0
   -0.1616   -0.1121   -0.2407 C   0  0  0  0  0  0  0  0  0  0  0  0
   -0.1654   -1.4412    0.4925 C   0  0  0  0  0  0  0  0  0  0  0  0
    0.8226   -0.1008   -1.3637 C   0  0  0  0  0  0  0  0  0  0  0  0
    1.8306    0.8195   -1.2212 O   0  0  0  0  0  0  0  0  0  0  0  0
    2.3823    0.8982    0.0261 C   0  0  0  0  0  0  0  0  0  0  0  0
    1.3913    0.8205    1.1540 C   0  0  0  0  0  0  0  0  0  0  0  0
    0.0802    0.8824    0.6993 O   0  0  0  0  0  0  0  0  0  0  0  0
   -3.4125    0.8252    0.0569 H   0  0  0  0  0  0  0  0  0  0  0  0
   -3.0631   -0.8730    0.4783 H   0  0  0  0  0  0  0  0  0  0  0  0
   -2.1596    0.4848    1.2807 H   0  0  0  0  0  0  0  0  0  0  0  0
   -1.8447   -0.7194   -1.4923 H   0  0  0  0  0  0  0  0  0  0  0  0
   -1.5999    1.0336   -1.3810 H   0  0  0  0  0  0  0  0  0  0  0  0
    0.8566   -1.7873    0.7301 H   0  0  0  0  0  0  0  0  0  0  0  0
   -0.6927   -2.1676   -0.1927 H   0  0  0  0  0  0  0  0  0  0  0  0
   -0.8142   -1.3560    1.3809 H   0  0  0  0  0  0  0  0  0  0  0  0
    0.2975    0.1410   -2.3346 H   0  0  0  0  0  0  0  0  0  0  0  0
    1.1925   -1.1457   -1.5066 H   0  0  0  0  0  0  0  0  0  0  0  0
    2.8714    1.9134    0.1102 H   0  0  0  0  0  0  0  0  0  0  0  0
    3.2366    0.1761    0.1823 H   0  0  0  0  0  0  0  0  0  0  0  0
    1.5172    1.6291    1.9042 H   0  0  0  0  0  0  0  0  0  0  0  0
    1.5901   -0.1359    1.7114 H   0  0  0  0  0  0  0  0  0  0  0  0
  1  2  1  0
  2  3  1  0
  3  4  1  0
  3  5  1  0
  5  6  1  0
  6  7  1  0
  7  8  1  0
  8  9  1  0
  9  3  1  0
  1 10  1  0
  1 11  1  0
  1 12  1  0
  2 13  1  0
  2 14  1  0
  4 15  1  0
  4 16  1  0
  4 17  1  0
  5 18  1  0
  5 19  1  0
  7 20  1  0
  7 21  1  0
  8 22  1  0
  8 23  1  0
M  END
