
     RDKit          3D

 21 22  0  0  0  0  0  0  0  0999 V2000
    2.4851    0.4808   -0.1182 C   0  0  0  0  0  0  0  0  0  0  0  0
    1.4113   -0.5397   -0.2786 C   0  0  0  0  0  0  0  0  0  0  0  0
    0.0941   -0.1187    0.3251 C   0  0  0  0  0  0  0  0  0  0  0  0
    0.2761    0.0980    1.6679 O   0  0  0  0  0  0  0  0  0  0  0  0
   -0.9301   -1.2079    0.0454 C   0  0  0  0  0  0  0  0  0  0  0  0
   -2.2366   -0.5080   -0.1348 C   0  0  0  0  0  0  0  0  0  0  0  0
   -2.5640    0.3341    0.9203 O   0  0  0  0  0  0  0  0  0  0  0  0
   -1.9859    0.9612   -0.1536 C   0  0  0  0  0  0  0  0  0  0  0  0
   -0.5101    1.0747   -0.3120 C   0  0  0  0  0  0  0  0  0  0  0  0
    3.4419    0.0455    0.2761 H   0  0  0  0  0  0  0  0  0  0  0  0
    2.7352    0.9141   -1.1063 H   0  0  0  0  0  0  0  0  0  0  0  0
    2.2246    1.2948    0.5895 H   0  0  0  0  0  0  0  0  0  0  0  0
    1.2406   -0.7525   -1.3743 H   0  0  0  0  0  0  0  0  0  0  0  0
    1.7569   -1.5025    0.1484 H   0  0  0  0  0  0  0  0  0  0  0  0
    0.2446   -0.7772    2.1232 H   0  0  0  0  0  0  0  0  0  0  0  0
   -0.6325   -1.8422   -0.7980 H   0  0  0  0  0  0  0  0  0  0  0  0
   -0.9461   -1.8392    0.9818 H   0  0  0  0  0  0  0  0  0  0  0  0
   -3.0028   -0.8705   -0.8248 H   0  0  0  0  0  0  0  0  0  0  0  0
   -2.6484    1.6406   -0.7088 H   0  0  0  0  0  0  0  0  0  0  0  0
   -0.2827    1.0638   -1.4097 H   0  0  0  0  0  0  0  0  0  0  0  0
   -0.1711    2.0507    0.1416 H   0  0  0  0  0  0  0  0  0  0  0  0
  1  2  1  0
  2  3  1  0
  3  4  1  0
  3  5  1  0
  5  6  1  0
  6  7  1  0
  7  8  1  0
  8  9  1  0
  9  3  1  0
  8  6  1  0
  1 10  1  0
  1 11  1  0
  1 12  1  0
  2 13  1  0
  2 14  1  0
  4 15  1  0
  5 16  1  0
  5 17  1  0
  6 18  1  0
  8 19  1  0
  9 20  1  0
  9 21  1  0
M  END
