
     RDKit          3D

 18 19  0  0  0  0  0  0  0  0999 V2000
    2.4274    0.3461   -0.0204 C   0  0  0  0  0  0  0  0  0  0  0  0
    1.2186   -0.3571   -0.5607 C   0  0  0  0  0  0  0  0  0  0  0  0
    0.0809   -0.4289    0.4229 C   0  0  0  0  0  0  0  0  0  0  0  0
   -0.4500    0.8508    0.9001 C   0  0  0  0  0  0  0  0  0  0  0  0
   -0.0669    1.9286    1.3196 O   0  0  0  0  0  0  0  0  0  0  0  0
   -1.8156    0.3005    0.6610 C   0  0  0  0  0  0  0  0  0  0  0  0
   -2.1772    0.1324   -0.7580 C   0  0  0  0  0  0  0  0  0  0  0  0
   -1.1924   -0.8147   -0.2478 C   0  0  0  0  0  0  0  0  0  0  0  0
    2.6946   -0.0327    0.9844 H   0  0  0  0  0  0  0  0  0  0  0  0
    3.2509    0.1957   -0.7536 H   0  0  0  0  0  0  0  0  0  0  0  0
    2.2061    1.4422    0.0227 H   0  0  0  0  0  0  0  0  0  0  0  0
    0.9127    0.0952   -1.5043 H   0  0  0  0  0  0  0  0  0  0  0  0
    1.5209   -1.4168   -0.7756 H   0  0  0  0  0  0  0  0  0  0  0  0
    0.3624   -1.0819    1.2735 H   0  0  0  0  0  0  0  0  0  0  0  0
   -2.4287   -0.0431    1.4920 H   0  0  0  0  0  0  0  0  0  0  0  0
   -1.8271    0.9611   -1.4410 H   0  0  0  0  0  0  0  0  0  0  0  0
   -3.1803   -0.2340   -0.9800 H   0  0  0  0  0  0  0  0  0  0  0  0
   -1.5363   -1.8436   -0.0349 H   0  0  0  0  0  0  0  0  0  0  0  0
  1  2  1  0
  2  3  1  0
  3  4  1  0
  4  5  2  0
  4  6  1  0
  6  7  1  0
  7  8  1  0
  8  3  1  0
  8  6  1  0
  1  9  1  0
  1 10  1  0
  1 11  1  0
  2 12  1  0
  2 13  1  0
  3 14  1  0
  6 15  1  0
  7 16  1  0
  7 17  1  0
  8 18  1  0
M  END
