
     RDKit          3D

 22 22  0  0  0  0  0  0  0  0999 V2000
   -1.8394   -1.2073   -0.4225 C   0  0  0  0  0  0  0  0  0  0  0  0
   -1.2481    0.0399   -1.0683 C   0  0  0  0  0  0  0  0  0  0  0  0
   -0.1789    0.5361   -0.1230 C   0  0  0  0  0  0  0  0  0  0  0  0
   -0.6835    0.8891    1.2431 C   0  0  0  0  0  0  0  0  0  0  0  0
    0.8840    1.4707   -0.6234 C   0  0  0  0  0  0  0  0  0  0  0  0
    1.1731    0.0367   -0.3746 C   0  0  0  0  0  0  0  0  0  0  0  0
    2.0267   -0.4021    0.7854 C   0  0  0  0  0  0  0  0  0  0  0  0
    1.3541   -1.4486    1.4318 O   0  0  0  0  0  0  0  0  0  0  0  0
   -1.0336   -1.7444    0.0990 H   0  0  0  0  0  0  0  0  0  0  0  0
   -2.3014   -1.8788   -1.1462 H   0  0  0  0  0  0  0  0  0  0  0  0
   -2.6202   -0.9120    0.3110 H   0  0  0  0  0  0  0  0  0  0  0  0
   -0.8175   -0.2576   -2.0563 H   0  0  0  0  0  0  0  0  0  0  0  0
   -2.0520    0.7715   -1.1798 H   0  0  0  0  0  0  0  0  0  0  0  0
   -1.4666    0.2192    1.6194 H   0  0  0  0  0  0  0  0  0  0  0  0
   -1.1750    1.9014    1.1302 H   0  0  0  0  0  0  0  0  0  0  0  0
    0.1103    1.0345    1.9888 H   0  0  0  0  0  0  0  0  0  0  0  0
    0.7227    1.8314   -1.6541 H   0  0  0  0  0  0  0  0  0  0  0  0
    1.3312    2.2098    0.0475 H   0  0  0  0  0  0  0  0  0  0  0  0
    1.3619   -0.5457   -1.3008 H   0  0  0  0  0  0  0  0  0  0  0  0
    2.1956    0.3950    1.5296 H   0  0  0  0  0  0  0  0  0  0  0  0
    3.0119   -0.7822    0.4786 H   0  0  0  0  0  0  0  0  0  0  0  0
    1.2447   -2.1564    0.7342 H   0  0  0  0  0  0  0  0  0  0  0  0
  1  2  1  0
  2  3  1  0
  3  4  1  0
  3  5  1  0
  5  6  1  0
  6  7  1  0
  7  8  1  0
  6  3  1  0
  1  9  1  0
  1 10  1  0
  1 11  1  0
  2 12  1  0
  2 13  1  0
  4 14  1  0
  4 15  1  0
  4 16  1  0
  5 17  1  0
  5 18  1  0
  6 19  1  0
  7 20  1  0
  7 21  1  0
  8 22  1  0
M  END
