
     RDKit          3D

 21 22  0  0  0  0  0  0  0  0999 V2000
   -2.4526   -0.3889    0.2322 C   0  0  0  0  0  0  0  0  0  0  0  0
   -1.3967    0.4223   -0.5280 C   0  0  0  0  0  0  0  0  0  0  0  0
   -0.1214    0.1046   -0.1590 C   0  0  0  0  0  0  0  0  0  0  0  0
    0.5408    0.1930    1.1646 C   0  0  0  0  0  0  0  0  0  0  0  0
    1.6232   -0.3727    0.2764 C   0  0  0  0  0  0  0  0  0  0  0  0
    2.7989   -0.6735    0.5845 O   0  0  0  0  0  0  0  0  0  0  0  0
    0.5450   -1.2586   -0.2900 C   0  0  0  0  0  0  0  0  0  0  0  0
    1.1608    0.6443   -0.7424 C   0  0  0  0  0  0  0  0  0  0  0  0
    1.4599    1.9582   -0.4138 O   0  0  0  0  0  0  0  0  0  0  0  0
   -2.1097   -0.6025    1.2757 H   0  0  0  0  0  0  0  0  0  0  0  0
   -2.6925   -1.3288   -0.2738 H   0  0  0  0  0  0  0  0  0  0  0  0
   -3.3963    0.1802    0.3380 H   0  0  0  0  0  0  0  0  0  0  0  0
   -1.6244    0.2294   -1.6075 H   0  0  0  0  0  0  0  0  0  0  0  0
   -1.6789    1.4835   -0.3638 H   0  0  0  0  0  0  0  0  0  0  0  0
    0.2696   -0.5473    1.9334 H   0  0  0  0  0  0  0  0  0  0  0  0
    0.7270    1.2100    1.5506 H   0  0  0  0  0  0  0  0  0  0  0  0
    3.4947   -0.4698   -0.0799 H   0  0  0  0  0  0  0  0  0  0  0  0
    0.6902   -1.5944   -1.3341 H   0  0  0  0  0  0  0  0  0  0  0  0
    0.2318   -2.0076    0.4357 H   0  0  0  0  0  0  0  0  0  0  0  0
    1.2951    0.3610   -1.7999 H   0  0  0  0  0  0  0  0  0  0  0  0
    0.6353    2.4578   -0.1990 H   0  0  0  0  0  0  0  0  0  0  0  0
  1  2  1  0
  2  3  1  0
  3  4  1  0
  4  5  1  0
  5  6  1  0
  5  7  1  0
  5  8  1  0
  8  9  1  0
  7  3  1  0
  8  3  1  0
  1 10  1  0
  1 11  1  0
  1 12  1  0
  2 13  1  0
  2 14  1  0
  4 15  1  0
  4 16  1  0
  6 17  1  0
  7 18  1  0
  7 19  1  0
  8 20  1  0
  9 21  1  0
M  END
