
     RDKit          3D

 21 21  0  0  0  0  0  0  0  0999 V2000
    2.8341    0.4015    0.4411 C   0  0  0  0  0  0  0  0  0  0  0  0
    1.8104    0.2846   -0.6697 C   0  0  0  0  0  0  0  0  0  0  0  0
    0.5722   -0.3718   -0.0455 C   0  0  0  0  0  0  0  0  0  0  0  0
   -0.4743   -0.5216   -1.0650 C   0  0  0  0  0  0  0  0  0  0  0  0
   -1.7672   -0.7098   -0.9002 C   0  0  0  0  0  0  0  0  0  0  0  0
   -2.5463   -0.8258    0.3674 C   0  0  0  0  0  0  0  0  0  0  0  0
   -1.9372   -0.1220    1.4040 O   0  0  0  0  0  0  0  0  0  0  0  0
   -1.1096    0.8911    0.9255 C   0  0  0  0  0  0  0  0  0  0  0  0
    0.2014    0.4516    1.0163 O   0  0  0  0  0  0  0  0  0  0  0  0
    3.3754   -0.5633    0.6014 H   0  0  0  0  0  0  0  0  0  0  0  0
    2.2693    0.6623    1.3612 H   0  0  0  0  0  0  0  0  0  0  0  0
    3.5536    1.2307    0.2477 H   0  0  0  0  0  0  0  0  0  0  0  0
    2.1731   -0.2654   -1.5430 H   0  0  0  0  0  0  0  0  0  0  0  0
    1.5260    1.3448   -0.9279 H   0  0  0  0  0  0  0  0  0  0  0  0
    0.8558   -1.3569    0.3794 H   0  0  0  0  0  0  0  0  0  0  0  0
   -0.1722   -0.4754   -2.1188 H   0  0  0  0  0  0  0  0  0  0  0  0
   -2.3963   -0.7993   -1.7904 H   0  0  0  0  0  0  0  0  0  0  0  0
   -2.6524   -1.8928    0.6470 H   0  0  0  0  0  0  0  0  0  0  0  0
   -3.5302   -0.3483    0.1959 H   0  0  0  0  0  0  0  0  0  0  0  0
   -1.2051    1.7848    1.5767 H   0  0  0  0  0  0  0  0  0  0  0  0
   -1.3802    1.2008   -0.1030 H   0  0  0  0  0  0  0  0  0  0  0  0
  1  2  1  0
  2  3  1  0
  3  4  1  0
  4  5  2  0
  5  6  1  0
  6  7  1  0
  7  8  1  0
  8  9  1  0
  9  3  1  0
  1 10  1  0
  1 11  1  0
  1 12  1  0
  2 13  1  0
  2 14  1  0
  3 15  1  0
  4 16  1  0
  5 17  1  0
  6 18  1  0
  6 19  1  0
  8 20  1  0
  8 21  1  0
M  END
