
     RDKit          3D

 20 21  0  0  0  0  0  0  0  0999 V2000
    2.2978   -0.3069    0.1252 C   0  0  0  0  0  0  0  0  0  0  0  0
    1.2815    0.8286    0.2607 C   0  0  0  0  0  0  0  0  0  0  0  0
   -0.0687    0.3917    0.0869 C   0  0  0  0  0  0  0  0  0  0  0  0
   -1.2176    1.3021    0.1725 C   0  0  0  0  0  0  0  0  0  0  0  0
   -2.2639    0.4992   -0.0678 C   0  0  0  0  0  0  0  0  0  0  0  0
   -1.6191   -0.8245   -0.2746 C   0  0  0  0  0  0  0  0  0  0  0  0
   -0.4419   -0.4062   -1.1714 C   0  0  0  0  0  0  0  0  0  0  0  0
   -0.5895   -0.8211    0.8398 C   0  0  0  0  0  0  0  0  0  0  0  0
    2.4002   -0.6291   -0.9402 H   0  0  0  0  0  0  0  0  0  0  0  0
    2.0232   -1.1555    0.7834 H   0  0  0  0  0  0  0  0  0  0  0  0
    3.3205    0.0625    0.4163 H   0  0  0  0  0  0  0  0  0  0  0  0
    1.6046    1.5951   -0.4741 H   0  0  0  0  0  0  0  0  0  0  0  0
    1.4480    1.2768    1.2616 H   0  0  0  0  0  0  0  0  0  0  0  0
   -1.1722    2.3595    0.3823 H   0  0  0  0  0  0  0  0  0  0  0  0
   -3.3236    0.7172   -0.1098 H   0  0  0  0  0  0  0  0  0  0  0  0
   -2.1650   -1.6824   -0.5091 H   0  0  0  0  0  0  0  0  0  0  0  0
   -0.7532    0.2397   -2.0264 H   0  0  0  0  0  0  0  0  0  0  0  0
    0.2407   -1.2173   -1.4146 H   0  0  0  0  0  0  0  0  0  0  0  0
    0.0573   -1.6958    0.8508 H   0  0  0  0  0  0  0  0  0  0  0  0
   -1.0591   -0.5336    1.8086 H   0  0  0  0  0  0  0  0  0  0  0  0
  1  2  1  0
  2  3  1  0
  3  4  1  0
  4  5  2  0
  5  6  1  0
  6  7  1  0
  6  8  1  0
  7  3  1  0
  8  3  1  0
  1  9  1  0
  1 10  1  0
  1 11  1  0
  2 12  1  0
  2 13  1  0
  4 14  1  0
  5 15  1  0
  6 16  1  0
  7 17  1  0
  7 18  1  0
  8 19  1  0
  8 20  1  0
M  END
