
     RDKit          3D

 21 23  0  0  0  0  0  0  0  0999 V2000
    2.6674    0.3636    0.2623 C   0  0  0  0  0  0  0  0  0  0  0  0
    1.9690   -0.6661   -0.5268 C   0  0  0  0  0  0  0  0  0  0  0  0
    0.4974   -0.5492   -0.6296 C   0  0  0  0  0  0  0  0  0  0  0  0
   -0.3609   -0.5840    0.6075 C   0  0  0  0  0  0  0  0  0  0  0  0
   -1.8447   -0.8019    0.4346 C   0  0  0  0  0  0  0  0  0  0  0  0
   -2.4843    0.5427    0.5749 C   0  0  0  0  0  0  0  0  0  0  0  0
   -1.7127    0.7217   -0.7121 C   0  0  0  0  0  0  0  0  0  0  0  0
   -1.9912   -0.6331   -0.9638 O   0  0  0  0  0  0  0  0  0  0  0  0
   -0.2579    0.6731   -0.3280 C   0  0  0  0  0  0  0  0  0  0  0  0
    2.0510    1.1497    0.7040 H   0  0  0  0  0  0  0  0  0  0  0  0
    3.4669    0.8840   -0.3369 H   0  0  0  0  0  0  0  0  0  0  0  0
    3.2330   -0.1101    1.1123 H   0  0  0  0  0  0  0  0  0  0  0  0
    2.2061   -1.6934   -0.1211 H   0  0  0  0  0  0  0  0  0  0  0  0
    2.3924   -0.6760   -1.5597 H   0  0  0  0  0  0  0  0  0  0  0  0
    0.0521   -1.1724   -1.4630 H   0  0  0  0  0  0  0  0  0  0  0  0
    0.0760   -0.4689    1.6032 H   0  0  0  0  0  0  0  0  0  0  0  0
   -2.2992   -1.6631    0.8712 H   0  0  0  0  0  0  0  0  0  0  0  0
   -3.5673    0.4985    0.3698 H   0  0  0  0  0  0  0  0  0  0  0  0
   -2.1907    1.1657    1.4159 H   0  0  0  0  0  0  0  0  0  0  0  0
   -2.0479    1.4434   -1.4213 H   0  0  0  0  0  0  0  0  0  0  0  0
    0.1455    1.5757    0.1068 H   0  0  0  0  0  0  0  0  0  0  0  0
  1  2  1  0
  2  3  1  0
  3  4  1  0
  4  5  1  0
  5  6  1  0
  6  7  1  0
  7  8  1  0
  7  9  1  0
  9  3  1  0
  9  4  1  0
  8  5  1  0
  1 10  1  0
  1 11  1  0
  1 12  1  0
  2 13  1  0
  2 14  1  0
  3 15  1  0
  4 16  1  0
  5 17  1  0
  6 18  1  0
  6 19  1  0
  7 20  1  0
  9 21  1  0
M  END
