
     RDKit          3D

 23 23  0  0  0  0  0  0  0  0999 V2000
   -3.2684    0.2939    0.3993 C   0  0  0  0  0  0  0  0  0  0  0  0
   -2.1299   -0.3851   -0.3212 C   0  0  0  0  0  0  0  0  0  0  0  0
   -0.9338   -0.3827    0.6349 C   0  0  0  0  0  0  0  0  0  0  0  0
    0.2635   -1.0483   -0.0071 C   0  0  0  0  0  0  0  0  0  0  0  0
    1.2509    0.0854   -0.0797 C   0  0  0  0  0  0  0  0  0  0  0  0
    2.5586   -0.2939    0.0026 O   0  0  0  0  0  0  0  0  0  0  0  0
    3.3222    0.0770   -1.1011 C   0  0  0  0  0  0  0  0  0  0  0  0
    0.7909    0.9706    1.0572 C   0  0  0  0  0  0  0  0  0  0  0  0
   -0.5947    0.9220    0.9029 O   0  0  0  0  0  0  0  0  0  0  0  0
   -4.2081    0.2769   -0.1835 H   0  0  0  0  0  0  0  0  0  0  0  0
   -3.3807   -0.2288    1.3772 H   0  0  0  0  0  0  0  0  0  0  0  0
   -2.9307    1.3227    0.6353 H   0  0  0  0  0  0  0  0  0  0  0  0
   -1.8254    0.2660   -1.1745 H   0  0  0  0  0  0  0  0  0  0  0  0
   -2.3785   -1.4129   -0.6483 H   0  0  0  0  0  0  0  0  0  0  0  0
   -1.2113   -0.8587    1.6082 H   0  0  0  0  0  0  0  0  0  0  0  0
    0.5897   -1.8536    0.6865 H   0  0  0  0  0  0  0  0  0  0  0  0
    0.0390   -1.3839   -1.0156 H   0  0  0  0  0  0  0  0  0  0  0  0
    1.0996    0.6198   -1.0428 H   0  0  0  0  0  0  0  0  0  0  0  0
    3.3487    1.1630   -1.2653 H   0  0  0  0  0  0  0  0  0  0  0  0
    4.3715   -0.2369   -0.8778 H   0  0  0  0  0  0  0  0  0  0  0  0
    3.0065   -0.4943   -1.9975 H   0  0  0  0  0  0  0  0  0  0  0  0
    1.1309    2.0258    0.9392 H   0  0  0  0  0  0  0  0  0  0  0  0
    1.0896    0.5560    2.0296 H   0  0  0  0  0  0  0  0  0  0  0  0
  1  2  1  0
  2  3  1  0
  3  4  1  0
  4  5  1  0
  5  6  1  0
  6  7  1  0
  5  8  1  0
  8  9  1  0
  9  3  1  0
  1 10  1  0
  1 11  1  0
  1 12  1  0
  2 13  1  0
  2 14  1  0
  3 15  1  0
  4 16  1  0
  4 17  1  0
  5 18  1  0
  7 19  1  0
  7 20  1  0
  7 21  1  0
  8 22  1  0
  8 23  1  0
M  END
