
     RDKit          3D

 21 22  0  0  0  0  0  0  0  0999 V2000
    2.0324    1.4991    0.1794 C   0  0  0  0  0  0  0  0  0  0  0  0
    1.6990    0.0459    0.1827 C   0  0  0  0  0  0  0  0  0  0  0  0
    0.3187   -0.2901   -0.2243 C   0  0  0  0  0  0  0  0  0  0  0  0
   -0.1879    0.0318   -1.4566 O   0  0  0  0  0  0  0  0  0  0  0  0
   -0.8922    0.1849   -0.1539 C   0  0  0  0  0  0  0  0  0  0  0  0
   -1.7683    1.3320   -0.1765 C   0  0  0  0  0  0  0  0  0  0  0  0
   -1.4987   -1.1308    0.3285 C   0  0  0  0  0  0  0  0  0  0  0  0
   -0.1040   -1.7106    0.2009 C   0  0  0  0  0  0  0  0  0  0  0  0
    0.0560   -2.6047   -0.8543 O   0  0  0  0  0  0  0  0  0  0  0  0
    3.1455    1.5884    0.2863 H   0  0  0  0  0  0  0  0  0  0  0  0
    1.7708    2.0302   -0.7413 H   0  0  0  0  0  0  0  0  0  0  0  0
    1.5970    1.9608    1.0891 H   0  0  0  0  0  0  0  0  0  0  0  0
    2.4264   -0.4638   -0.5146 H   0  0  0  0  0  0  0  0  0  0  0  0
    1.8789   -0.3500    1.2030 H   0  0  0  0  0  0  0  0  0  0  0  0
   -1.4289    2.1987   -0.7673 H   0  0  0  0  0  0  0  0  0  0  0  0
   -2.7655    1.0441   -0.6278 H   0  0  0  0  0  0  0  0  0  0  0  0
   -2.0451    1.6433    0.8741 H   0  0  0  0  0  0  0  0  0  0  0  0
   -1.7483   -1.0083    1.3988 H   0  0  0  0  0  0  0  0  0  0  0  0
   -2.2632   -1.5608   -0.3091 H   0  0  0  0  0  0  0  0  0  0  0  0
    0.3482   -2.0270    1.1408 H   0  0  0  0  0  0  0  0  0  0  0  0
   -0.5708   -2.4130   -1.5807 H   0  0  0  0  0  0  0  0  0  0  0  0
  1  2  1  0
  2  3  1  0
  3  4  1  0
  4  5  1  0
  5  6  1  0
  5  7  1  0
  7  8  1  0
  8  9  1  0
  5  3  1  0
  8  3  1  0
  1 10  1  0
  1 11  1  0
  1 12  1  0
  2 13  1  0
  2 14  1  0
  6 15  1  0
  6 16  1  0
  6 17  1  0
  7 18  1  0
  7 19  1  0
  8 20  1  0
  9 21  1  0
M  END
