
     RDKit          3D

 21 22  0  0  0  0  0  0  0  0999 V2000
    2.9079    0.4036   -0.4459 C   0  0  0  0  0  0  0  0  0  0  0  0
    1.8100   -0.5161    0.0634 C   0  0  0  0  0  0  0  0  0  0  0  0
    0.6024    0.2667    0.5278 C   0  0  0  0  0  0  0  0  0  0  0  0
   -0.1193    1.1560   -0.4653 C   0  0  0  0  0  0  0  0  0  0  0  0
   -0.6837   -0.1024   -0.0459 C   0  0  0  0  0  0  0  0  0  0  0  0
   -0.9030   -1.1949   -0.8425 O   0  0  0  0  0  0  0  0  0  0  0  0
   -2.2891   -0.9990   -0.6395 C   0  0  0  0  0  0  0  0  0  0  0  0
   -1.9307   -0.3338    0.6832 C   0  0  0  0  0  0  0  0  0  0  0  0
   -2.7174    0.7384    1.0351 O   0  0  0  0  0  0  0  0  0  0  0  0
    3.0365    0.3117   -1.5569 H   0  0  0  0  0  0  0  0  0  0  0  0
    3.8605    0.0185   -0.0158 H   0  0  0  0  0  0  0  0  0  0  0  0
    2.7127    1.4617   -0.1588 H   0  0  0  0  0  0  0  0  0  0  0  0
    2.1526   -1.1154    0.9296 H   0  0  0  0  0  0  0  0  0  0  0  0
    1.5347   -1.1746   -0.7699 H   0  0  0  0  0  0  0  0  0  0  0  0
    0.5928    0.6860    1.5631 H   0  0  0  0  0  0  0  0  0  0  0  0
    0.3972    1.1908   -1.4662 H   0  0  0  0  0  0  0  0  0  0  0  0
   -0.4958    2.1448   -0.1331 H   0  0  0  0  0  0  0  0  0  0  0  0
   -2.6982   -0.3192   -1.4001 H   0  0  0  0  0  0  0  0  0  0  0  0
   -2.7695   -1.9752   -0.5601 H   0  0  0  0  0  0  0  0  0  0  0  0
   -1.8258   -1.1378    1.4522 H   0  0  0  0  0  0  0  0  0  0  0  0
   -3.1749    0.4900    1.8949 H   0  0  0  0  0  0  0  0  0  0  0  0
  1  2  1  0
  2  3  1  0
  3  4  1  0
  4  5  1  0
  5  6  1  0
  6  7  1  0
  7  8  1  0
  8  9  1  0
  5  3  1  0
  8  5  1  0
  1 10  1  0
  1 11  1  0
  1 12  1  0
  2 13  1  0
  2 14  1  0
  3 15  1  0
  4 16  1  0
  4 17  1  0
  7 18  1  0
  7 19  1  0
  8 20  1  0
  9 21  1  0
M  END
