
     RDKit          3D

 25 25  0  0  0  0  0  0  0  0999 V2000
    2.2809   -1.2559   -0.1739 C   0  0  0  0  0  0  0  0  0  0  0  0
    1.4841   -0.3733    0.7640 C   0  0  0  0  0  0  0  0  0  0  0  0
    0.2152    0.1022    0.1157 C   0  0  0  0  0  0  0  0  0  0  0  0
   -0.1496    1.3529   -0.1113 C   0  0  0  0  0  0  0  0  0  0  0  0
    0.7265    2.5122    0.2824 C   0  0  0  0  0  0  0  0  0  0  0  0
   -1.4658    1.4220   -0.7721 C   0  0  0  0  0  0  0  0  0  0  0  0
   -2.0894    0.0852   -0.4947 C   0  0  0  0  0  0  0  0  0  0  0  0
   -0.8534   -0.8184   -0.3781 C   0  0  0  0  0  0  0  0  0  0  0  0
   -1.0967   -1.9795    0.5163 C   0  0  0  0  0  0  0  0  0  0  0  0
    2.0433   -1.0295   -1.2472 H   0  0  0  0  0  0  0  0  0  0  0  0
    2.0942   -2.3313    0.0452 H   0  0  0  0  0  0  0  0  0  0  0  0
    3.3554   -1.0746   -0.0237 H   0  0  0  0  0  0  0  0  0  0  0  0
    2.1223    0.5199    0.9985 H   0  0  0  0  0  0  0  0  0  0  0  0
    1.2388   -0.9541    1.6583 H   0  0  0  0  0  0  0  0  0  0  0  0
    1.1541    2.3198    1.2843 H   0  0  0  0  0  0  0  0  0  0  0  0
    1.5915    2.5511   -0.4261 H   0  0  0  0  0  0  0  0  0  0  0  0
    0.1582    3.4470    0.3288 H   0  0  0  0  0  0  0  0  0  0  0  0
   -2.0783    2.2748   -0.4360 H   0  0  0  0  0  0  0  0  0  0  0  0
   -1.2603    1.5031   -1.8807 H   0  0  0  0  0  0  0  0  0  0  0  0
   -2.6256    0.1331    0.4641 H   0  0  0  0  0  0  0  0  0  0  0  0
   -2.7181   -0.2898   -1.3314 H   0  0  0  0  0  0  0  0  0  0  0  0
   -0.5353   -1.1534   -1.3877 H   0  0  0  0  0  0  0  0  0  0  0  0
   -2.1459   -1.9609    0.8922 H   0  0  0  0  0  0  0  0  0  0  0  0
   -1.0004   -2.9326   -0.0662 H   0  0  0  0  0  0  0  0  0  0  0  0
   -0.4456   -2.0700    1.3790 H   0  0  0  0  0  0  0  0  0  0  0  0
  1  2  1  0
  2  3  1  0
  3  4  2  0
  4  5  1  0
  4  6  1  0
  6  7  1  0
  7  8  1  0
  8  9  1  0
  8  3  1  0
  1 10  1  0
  1 11  1  0
  1 12  1  0
  2 13  1  0
  2 14  1  0
  5 15  1  0
  5 16  1  0
  5 17  1  0
  6 18  1  0
  6 19  1  0
  7 20  1  0
  7 21  1  0
  8 22  1  0
  9 23  1  0
  9 24  1  0
  9 25  1  0
M  END
