
     RDKit          3D

 23 24  0  0  0  0  0  0  0  0999 V2000
    2.7115    0.0506    0.7129 C   0  0  0  0  0  0  0  0  0  0  0  0
    1.6068    0.5708   -0.1811 C   0  0  0  0  0  0  0  0  0  0  0  0
    0.4117   -0.2720   -0.2289 C   0  0  0  0  0  0  0  0  0  0  0  0
   -0.6862    0.2617   -1.1285 C   0  0  0  0  0  0  0  0  0  0  0  0
   -1.5843   -0.9609   -1.1709 C   0  0  0  0  0  0  0  0  0  0  0  0
   -1.5925   -1.2950    0.3328 C   0  0  0  0  0  0  0  0  0  0  0  0
   -0.6383   -0.1945    0.8232 C   0  0  0  0  0  0  0  0  0  0  0  0
   -1.2318    0.9783    0.0694 C   0  0  0  0  0  0  0  0  0  0  0  0
   -0.7941    2.2228    0.3734 O   0  0  0  0  0  0  0  0  0  0  0  0
    3.4923    0.8562    0.7335 H   0  0  0  0  0  0  0  0  0  0  0  0
    3.2264   -0.8343    0.2449 H   0  0  0  0  0  0  0  0  0  0  0  0
    2.3773   -0.2048    1.7225 H   0  0  0  0  0  0  0  0  0  0  0  0
    2.0572    0.5815   -1.2207 H   0  0  0  0  0  0  0  0  0  0  0  0
    1.4280    1.6179    0.0620 H   0  0  0  0  0  0  0  0  0  0  0  0
    0.6454   -1.3530   -0.4448 H   0  0  0  0  0  0  0  0  0  0  0  0
   -0.4422    0.7699   -2.0137 H   0  0  0  0  0  0  0  0  0  0  0  0
   -2.5893   -0.7395   -1.5413 H   0  0  0  0  0  0  0  0  0  0  0  0
   -1.0559   -1.7481   -1.7455 H   0  0  0  0  0  0  0  0  0  0  0  0
   -1.1226   -2.2868    0.4846 H   0  0  0  0  0  0  0  0  0  0  0  0
   -2.5887   -1.1989    0.7623 H   0  0  0  0  0  0  0  0  0  0  0  0
   -0.4241   -0.1223    1.8473 H   0  0  0  0  0  0  0  0  0  0  0  0
   -2.3561    0.9116    0.1515 H   0  0  0  0  0  0  0  0  0  0  0  0
   -0.8504    2.3887    1.3551 H   0  0  0  0  0  0  0  0  0  0  0  0
  1  2  1  0
  2  3  1  0
  3  4  1  0
  4  5  1  0
  5  6  1  0
  6  7  1  0
  7  8  1  0
  8  9  1  0
  7  3  1  0
  8  4  1  0
  1 10  1  0
  1 11  1  0
  1 12  1  0
  2 13  1  0
  2 14  1  0
  3 15  1  0
  4 16  1  0
  5 17  1  0
  5 18  1  0
  6 19  1  0
  6 20  1  0
  7 21  1  0
  8 22  1  0
  9 23  1  0
M  END
