
     RDKit          3D

 23 24  0  0  0  0  0  0  0  0999 V2000
   -2.6258   -0.8584    0.5337 C   0  0  0  0  0  0  0  0  0  0  0  0
   -1.9787    0.4873    0.4684 C   0  0  0  0  0  0  0  0  0  0  0  0
   -0.7740    0.4539   -0.4395 C   0  0  0  0  0  0  0  0  0  0  0  0
   -0.0873    1.7806   -0.5401 C   0  0  0  0  0  0  0  0  0  0  0  0
    0.8901    1.7885    0.4629 O   0  0  0  0  0  0  0  0  0  0  0  0
    1.3029    0.4937    0.6500 C   0  0  0  0  0  0  0  0  0  0  0  0
    1.6293   -0.2782   -0.6265 C   0  0  0  0  0  0  0  0  0  0  0  0
    2.7338   -1.2806   -0.4441 C   0  0  0  0  0  0  0  0  0  0  0  0
    0.3195   -0.4408    0.0741 C   0  0  0  0  0  0  0  0  0  0  0  0
   -2.2414   -1.4899   -0.2936 H   0  0  0  0  0  0  0  0  0  0  0  0
   -2.4162   -1.3701    1.5039 H   0  0  0  0  0  0  0  0  0  0  0  0
   -3.7303   -0.8195    0.3950 H   0  0  0  0  0  0  0  0  0  0  0  0
   -1.7080    0.8743    1.4681 H   0  0  0  0  0  0  0  0  0  0  0  0
   -2.6946    1.2122    0.0279 H   0  0  0  0  0  0  0  0  0  0  0  0
   -1.1155    0.0975   -1.4386 H   0  0  0  0  0  0  0  0  0  0  0  0
   -0.7668    2.6121   -0.3350 H   0  0  0  0  0  0  0  0  0  0  0  0
    0.3738    1.9487   -1.5456 H   0  0  0  0  0  0  0  0  0  0  0  0
    1.8664    0.2947    1.5620 H   0  0  0  0  0  0  0  0  0  0  0  0
    1.6924    0.3071   -1.5495 H   0  0  0  0  0  0  0  0  0  0  0  0
    2.9083   -1.8816   -1.3631 H   0  0  0  0  0  0  0  0  0  0  0  0
    3.6826   -0.6838   -0.3110 H   0  0  0  0  0  0  0  0  0  0  0  0
    2.6303   -1.8933    0.4676 H   0  0  0  0  0  0  0  0  0  0  0  0
    0.1094   -1.3543    0.6158 H   0  0  0  0  0  0  0  0  0  0  0  0
  1  2  1  0
  2  3  1  0
  3  4  1  0
  4  5  1  0
  5  6  1  0
  6  7  1  0
  7  8  1  0
  7  9  1  0
  9  3  1  0
  9  6  1  0
  1 10  1  0
  1 11  1  0
  1 12  1  0
  2 13  1  0
  2 14  1  0
  3 15  1  0
  4 16  1  0
  4 17  1  0
  6 18  1  0
  7 19  1  0
  8 20  1  0
  8 21  1  0
  8 22  1  0
  9 23  1  0
M  END
