
     RDKit          3D

 23 24  0  0  0  0  0  0  0  0999 V2000
    2.6593   -0.0192   -0.7850 C   0  0  0  0  0  0  0  0  0  0  0  0
    1.6211    0.3222    0.2751 C   0  0  0  0  0  0  0  0  0  0  0  0
    0.2342    0.0956   -0.2531 C   0  0  0  0  0  0  0  0  0  0  0  0
   -0.1000   -1.2971   -0.6922 C   0  0  0  0  0  0  0  0  0  0  0  0
   -1.6320   -1.2629   -0.7805 C   0  0  0  0  0  0  0  0  0  0  0  0
   -1.9592   -0.3904    0.4217 C   0  0  0  0  0  0  0  0  0  0  0  0
   -0.9500    0.7023    0.3050 C   0  0  0  0  0  0  0  0  0  0  0  0
   -0.9132    1.7806    1.3652 C   0  0  0  0  0  0  0  0  0  0  0  0
   -0.4454    1.0946   -0.9148 O   0  0  0  0  0  0  0  0  0  0  0  0
    2.8333    0.8073   -1.4879 H   0  0  0  0  0  0  0  0  0  0  0  0
    3.6117   -0.3815   -0.3038 H   0  0  0  0  0  0  0  0  0  0  0  0
    2.2896   -0.8839   -1.3716 H   0  0  0  0  0  0  0  0  0  0  0  0
    1.7517    1.3455    0.6754 H   0  0  0  0  0  0  0  0  0  0  0  0
    1.7891   -0.3928    1.1191 H   0  0  0  0  0  0  0  0  0  0  0  0
    0.2520   -2.0802   -0.0182 H   0  0  0  0  0  0  0  0  0  0  0  0
    0.2280   -1.4564   -1.7568 H   0  0  0  0  0  0  0  0  0  0  0  0
   -1.9614   -0.8155   -1.7304 H   0  0  0  0  0  0  0  0  0  0  0  0
   -1.9646   -2.3046   -0.6359 H   0  0  0  0  0  0  0  0  0  0  0  0
   -1.6739   -1.0156    1.3195 H   0  0  0  0  0  0  0  0  0  0  0  0
   -3.0003   -0.0682    0.4519 H   0  0  0  0  0  0  0  0  0  0  0  0
   -0.0633    2.4567    1.1513 H   0  0  0  0  0  0  0  0  0  0  0  0
   -1.8333    2.3905    1.2667 H   0  0  0  0  0  0  0  0  0  0  0  0
   -0.7733    1.3729    2.3793 H   0  0  0  0  0  0  0  0  0  0  0  0
  1  2  1  0
  2  3  1  0
  3  4  1  0
  4  5  1  0
  5  6  1  0
  6  7  1  0
  7  8  1  0
  7  9  1  0
  7  3  1  0
  9  3  1  0
  1 10  1  0
  1 11  1  0
  1 12  1  0
  2 13  1  0
  2 14  1  0
  4 15  1  0
  4 16  1  0
  5 17  1  0
  5 18  1  0
  6 19  1  0
  6 20  1  0
  8 21  1  0
  8 22  1  0
  8 23  1  0
M  END
