
     RDKit          3D

 21 21  0  0  0  0  0  0  0  0999 V2000
    2.5700    0.9529   -0.0534 C   0  0  0  0  0  0  0  0  0  0  0  0
    1.7564   -0.2858    0.2699 C   0  0  0  0  0  0  0  0  0  0  0  0
    0.4797   -0.1989   -0.5006 C   0  0  0  0  0  0  0  0  0  0  0  0
   -0.3779    0.9736   -0.2147 C   0  0  0  0  0  0  0  0  0  0  0  0
   -0.2828    2.1587    0.0676 O   0  0  0  0  0  0  0  0  0  0  0  0
   -1.5636    0.0600   -0.4247 C   0  0  0  0  0  0  0  0  0  0  0  0
   -2.7070    0.3809    0.4812 C   0  0  0  0  0  0  0  0  0  0  0  0
   -0.6542   -1.0673    0.0400 C   0  0  0  0  0  0  0  0  0  0  0  0
   -0.7310   -2.2304   -0.6950 O   0  0  0  0  0  0  0  0  0  0  0  0
    2.0116    1.8190    0.3579 H   0  0  0  0  0  0  0  0  0  0  0  0
    2.6338    1.0355   -1.1442 H   0  0  0  0  0  0  0  0  0  0  0  0
    3.5567    0.8291    0.4372 H   0  0  0  0  0  0  0  0  0  0  0  0
    2.2781   -1.2095   -0.0343 H   0  0  0  0  0  0  0  0  0  0  0  0
    1.5837   -0.3689    1.3627 H   0  0  0  0  0  0  0  0  0  0  0  0
    0.6643   -0.3211   -1.5823 H   0  0  0  0  0  0  0  0  0  0  0  0
   -1.7757   -0.0349   -1.4967 H   0  0  0  0  0  0  0  0  0  0  0  0
   -2.6599    1.4370    0.7968 H   0  0  0  0  0  0  0  0  0  0  0  0
   -2.6285   -0.2654    1.3822 H   0  0  0  0  0  0  0  0  0  0  0  0
   -3.6994    0.2247    0.0199 H   0  0  0  0  0  0  0  0  0  0  0  0
   -0.5890   -1.1822    1.1358 H   0  0  0  0  0  0  0  0  0  0  0  0
    0.1347   -2.7071   -0.5946 H   0  0  0  0  0  0  0  0  0  0  0  0
  1  2  1  0
  2  3  1  0
  3  4  1  0
  4  5  2  0
  4  6  1  0
  6  7  1  0
  6  8  1  0
  8  9  1  0
  8  3  1  0
  1 10  1  0
  1 11  1  0
  1 12  1  0
  2 13  1  0
  2 14  1  0
  3 15  1  0
  6 16  1  0
  7 17  1  0
  7 18  1  0
  7 19  1  0
  8 20  1  0
  9 21  1  0
M  END
