
     RDKit          3D

 23 24  0  0  0  0  0  0  0  0999 V2000
    2.7330    0.4300    0.3578 C   0  0  0  0  0  0  0  0  0  0  0  0
    1.8692   -0.2387   -0.6497 C   0  0  0  0  0  0  0  0  0  0  0  0
    0.4465   -0.2625   -0.3257 C   0  0  0  0  0  0  0  0  0  0  0  0
   -0.5294   -0.9063   -1.2583 C   0  0  0  0  0  0  0  0  0  0  0  0
   -1.6318   -0.2207   -0.4367 C   0  0  0  0  0  0  0  0  0  0  0  0
   -2.3710   -1.2576    0.3593 C   0  0  0  0  0  0  0  0  0  0  0  0
   -0.4749    0.4239    0.3445 C   0  0  0  0  0  0  0  0  0  0  0  0
   -0.6450    1.7926    0.8613 C   0  0  0  0  0  0  0  0  0  0  0  0
    0.2111   -0.5064    1.0905 O   0  0  0  0  0  0  0  0  0  0  0  0
    3.2688    1.3069   -0.1102 H   0  0  0  0  0  0  0  0  0  0  0  0
    3.5763   -0.2298    0.7169 H   0  0  0  0  0  0  0  0  0  0  0  0
    2.2245    0.8227    1.2376 H   0  0  0  0  0  0  0  0  0  0  0  0
    2.2354   -1.3044   -0.7455 H   0  0  0  0  0  0  0  0  0  0  0  0
    2.0638    0.2020   -1.6629 H   0  0  0  0  0  0  0  0  0  0  0  0
   -0.5242   -1.9950   -1.1971 H   0  0  0  0  0  0  0  0  0  0  0  0
   -0.4760   -0.4611   -2.2537 H   0  0  0  0  0  0  0  0  0  0  0  0
   -2.2376    0.4833   -1.0037 H   0  0  0  0  0  0  0  0  0  0  0  0
   -2.9624   -0.8165    1.1810 H   0  0  0  0  0  0  0  0  0  0  0  0
   -1.6241   -1.9680    0.7871 H   0  0  0  0  0  0  0  0  0  0  0  0
   -3.0300   -1.8073   -0.3255 H   0  0  0  0  0  0  0  0  0  0  0  0
   -0.7240    2.5509    0.0353 H   0  0  0  0  0  0  0  0  0  0  0  0
   -1.5820    1.9059    1.4818 H   0  0  0  0  0  0  0  0  0  0  0  0
    0.1835    2.0561    1.5159 H   0  0  0  0  0  0  0  0  0  0  0  0
  1  2  1  0
  2  3  1  0
  3  4  1  0
  4  5  1  0
  5  6  1  0
  5  7  1  0
  7  8  1  0
  7  9  1  0
  7  3  1  0
  9  3  1  0
  1 10  1  0
  1 11  1  0
  1 12  1  0
  2 13  1  0
  2 14  1  0
  4 15  1  0
  4 16  1  0
  5 17  1  0
  6 18  1  0
  6 19  1  0
  6 20  1  0
  8 21  1  0
  8 22  1  0
  8 23  1  0
M  END
