
     RDKit          3D

 23 24  0  0  0  0  0  0  0  0999 V2000
    2.3034   -0.1766    1.1209 C   0  0  0  0  0  0  0  0  0  0  0  0
    1.5661    0.4991    0.0216 C   0  0  0  0  0  0  0  0  0  0  0  0
    0.5558   -0.3957   -0.6592 C   0  0  0  0  0  0  0  0  0  0  0  0
   -0.1373    0.4044   -1.7677 C   0  0  0  0  0  0  0  0  0  0  0  0
   -1.3769    0.3765   -0.9225 C   0  0  0  0  0  0  0  0  0  0  0  0
   -1.9727    1.5641   -0.5247 O   0  0  0  0  0  0  0  0  0  0  0  0
   -1.9863   -0.9315   -0.7038 C   0  0  0  0  0  0  0  0  0  0  0  0
   -0.7524   -0.5459    0.0372 C   0  0  0  0  0  0  0  0  0  0  0  0
   -0.8846   -0.3859    1.5162 C   0  0  0  0  0  0  0  0  0  0  0  0
    3.3956   -0.0998    0.9466 H   0  0  0  0  0  0  0  0  0  0  0  0
    2.0362   -1.2525    1.1091 H   0  0  0  0  0  0  0  0  0  0  0  0
    2.1245    0.2568    2.1264 H   0  0  0  0  0  0  0  0  0  0  0  0
    1.0125    1.4071    0.3622 H   0  0  0  0  0  0  0  0  0  0  0  0
    2.2822    0.8589   -0.7450 H   0  0  0  0  0  0  0  0  0  0  0  0
    0.9682   -1.3533   -1.0411 H   0  0  0  0  0  0  0  0  0  0  0  0
    0.2675    1.3982   -1.9475 H   0  0  0  0  0  0  0  0  0  0  0  0
   -0.3021   -0.1820   -2.6946 H   0  0  0  0  0  0  0  0  0  0  0  0
   -1.3003    2.2517   -0.2928 H   0  0  0  0  0  0  0  0  0  0  0  0
   -1.9203   -1.6574   -1.5578 H   0  0  0  0  0  0  0  0  0  0  0  0
   -2.9073   -1.0231   -0.1360 H   0  0  0  0  0  0  0  0  0  0  0  0
   -0.7530   -1.3305    2.0765 H   0  0  0  0  0  0  0  0  0  0  0  0
   -0.2649    0.3959    1.9593 H   0  0  0  0  0  0  0  0  0  0  0  0
   -1.9539   -0.0786    1.7167 H   0  0  0  0  0  0  0  0  0  0  0  0
  1  2  1  0
  2  3  1  0
  3  4  1  0
  4  5  1  0
  5  6  1  0
  5  7  1  0
  7  8  1  0
  8  9  1  0
  8  3  1  0
  8  5  1  0
  1 10  1  0
  1 11  1  0
  1 12  1  0
  2 13  1  0
  2 14  1  0
  3 15  1  0
  4 16  1  0
  4 17  1  0
  6 18  1  0
  7 19  1  0
  7 20  1  0
  9 21  1  0
  9 22  1  0
  9 23  1  0
M  END
