
     RDKit          3D

 25 25  0  0  0  0  0  0  0  0999 V2000
    3.0268    0.0502   -1.1090 C   0  0  0  0  0  0  0  0  0  0  0  0
    2.5399   -0.5834    0.1806 C   0  0  0  0  0  0  0  0  0  0  0  0
    1.2122    0.0679    0.5138 C   0  0  0  0  0  0  0  0  0  0  0  0
    0.5651   -0.3742    1.6925 O   0  0  0  0  0  0  0  0  0  0  0  0
   -0.0124   -0.6821    0.3575 C   0  0  0  0  0  0  0  0  0  0  0  0
   -1.3337   -0.0023    0.2009 C   0  0  0  0  0  0  0  0  0  0  0  0
   -1.6995    0.8826    1.3714 C   0  0  0  0  0  0  0  0  0  0  0  0
   -2.4073   -1.0384   -0.0613 C   0  0  0  0  0  0  0  0  0  0  0  0
   -1.2534    0.9148   -1.0254 C   0  0  0  0  0  0  0  0  0  0  0  0
    3.3328   -0.7292   -1.8431 H   0  0  0  0  0  0  0  0  0  0  0  0
    3.9321    0.6613   -0.9175 H   0  0  0  0  0  0  0  0  0  0  0  0
    2.2696    0.7084   -1.5665 H   0  0  0  0  0  0  0  0  0  0  0  0
    3.2321   -0.3293    1.0292 H   0  0  0  0  0  0  0  0  0  0  0  0
    2.4437   -1.6862    0.0570 H   0  0  0  0  0  0  0  0  0  0  0  0
    1.2000    1.1575    0.3557 H   0  0  0  0  0  0  0  0  0  0  0  0
   -0.0259   -1.7817    0.2307 H   0  0  0  0  0  0  0  0  0  0  0  0
   -1.5217    0.4104    2.3456 H   0  0  0  0  0  0  0  0  0  0  0  0
   -2.7570    1.1935    1.2155 H   0  0  0  0  0  0  0  0  0  0  0  0
   -1.0667    1.7967    1.2868 H   0  0  0  0  0  0  0  0  0  0  0  0
   -2.2894   -1.8578    0.6936 H   0  0  0  0  0  0  0  0  0  0  0  0
   -2.1983   -1.4793   -1.0593 H   0  0  0  0  0  0  0  0  0  0  0  0
   -3.4121   -0.6167   -0.0841 H   0  0  0  0  0  0  0  0  0  0  0  0
   -1.9939    1.7255   -0.8720 H   0  0  0  0  0  0  0  0  0  0  0  0
   -0.2280    1.2779   -1.0834 H   0  0  0  0  0  0  0  0  0  0  0  0
   -1.5550    0.3138   -1.9094 H   0  0  0  0  0  0  0  0  0  0  0  0
  1  2  1  0
  2  3  1  0
  3  4  1  0
  4  5  1  0
  5  6  1  0
  6  7  1  0
  6  8  1  0
  6  9  1  0
  5  3  1  0
  1 10  1  0
  1 11  1  0
  1 12  1  0
  2 13  1  0
  2 14  1  0
  3 15  1  0
  5 16  1  0
  7 17  1  0
  7 18  1  0
  7 19  1  0
  8 20  1  0
  8 21  1  0
  8 22  1  0
  9 23  1  0
  9 24  1  0
  9 25  1  0
M  END
