
     RDKit          3D

 17 18  0  0  0  0  0  0  0  0999 V2000
   -2.2086    0.0615   -0.1361 C   0  0  0  0  0  0  0  0  0  0  0  0
   -0.8538    0.6483    0.2781 C   0  0  0  0  0  0  0  0  0  0  0  0
    0.1846   -0.3610   -0.0357 C   0  0  0  0  0  0  0  0  0  0  0  0
    0.0975   -1.6300    0.5904 O   0  0  0  0  0  0  0  0  0  0  0  0
    1.3188   -1.4503    1.2069 C   0  0  0  0  0  0  0  0  0  0  0  0
    1.9766   -2.1064    2.0329 O   0  0  0  0  0  0  0  0  0  0  0  0
    1.5460   -0.1703    0.5040 C   0  0  0  0  0  0  0  0  0  0  0  0
    1.2894   -0.1652   -0.9649 C   0  0  0  0  0  0  0  0  0  0  0  0
    1.5324    0.9988   -1.6426 O   0  0  0  0  0  0  0  0  0  0  0  0
   -2.9204    0.9179   -0.1428 H   0  0  0  0  0  0  0  0  0  0  0  0
   -2.5015   -0.7424    0.5558 H   0  0  0  0  0  0  0  0  0  0  0  0
   -2.1141   -0.3994   -1.1424 H   0  0  0  0  0  0  0  0  0  0  0  0
   -0.6805    1.5669   -0.3133 H   0  0  0  0  0  0  0  0  0  0  0  0
   -0.9575    0.8632    1.3721 H   0  0  0  0  0  0  0  0  0  0  0  0
    1.8105    0.7380    1.0555 H   0  0  0  0  0  0  0  0  0  0  0  0
    1.6879   -1.0781   -1.4933 H   0  0  0  0  0  0  0  0  0  0  0  0
    0.7926    1.6175   -1.7244 H   0  0  0  0  0  0  0  0  0  0  0  0
  1  2  1  0
  2  3  1  0
  3  4  1  0
  4  5  1  0
  5  6  2  0
  5  7  1  0
  7  8  1  0
  8  9  1  0
  7  3  1  0
  8  3  1  0
  1 10  1  0
  1 11  1  0
  1 12  1  0
  2 13  1  0
  2 14  1  0
  7 15  1  0
  8 16  1  0
  9 17  1  0
M  END
