
     RDKit          3D

 21 21  0  0  0  0  0  0  0  0999 V2000
   -2.4016    0.0088    0.8008 C   0  0  0  0  0  0  0  0  0  0  0  0
   -2.0935    0.2148   -0.6538 C   0  0  0  0  0  0  0  0  0  0  0  0
   -0.6554   -0.1111   -0.9451 C   0  0  0  0  0  0  0  0  0  0  0  0
    0.3095    0.7482   -0.1604 C   0  0  0  0  0  0  0  0  0  0  0  0
    1.5739   -0.1070   -0.3028 C   0  0  0  0  0  0  0  0  0  0  0  0
    2.6376    0.2686    0.6553 C   0  0  0  0  0  0  0  0  0  0  0  0
    1.0003   -1.4575   -0.0719 C   0  0  0  0  0  0  0  0  0  0  0  0
    1.6389   -2.4174    0.3850 O   0  0  0  0  0  0  0  0  0  0  0  0
   -0.3339   -1.4068   -0.4598 O   0  0  0  0  0  0  0  0  0  0  0  0
   -1.5715   -0.4198    1.3818 H   0  0  0  0  0  0  0  0  0  0  0  0
   -2.6811    0.9883    1.2255 H   0  0  0  0  0  0  0  0  0  0  0  0
   -3.2724   -0.6750    0.9279 H   0  0  0  0  0  0  0  0  0  0  0  0
   -2.3308    1.2257   -1.0107 H   0  0  0  0  0  0  0  0  0  0  0  0
   -2.7097   -0.4899   -1.2476 H   0  0  0  0  0  0  0  0  0  0  0  0
   -0.4257   -0.0251   -2.0103 H   0  0  0  0  0  0  0  0  0  0  0  0
    0.4771    1.7221   -0.6534 H   0  0  0  0  0  0  0  0  0  0  0  0
    0.0250    0.8678    0.8953 H   0  0  0  0  0  0  0  0  0  0  0  0
    1.9173    0.0280   -1.3422 H   0  0  0  0  0  0  0  0  0  0  0  0
    3.6263   -0.0502    0.2116 H   0  0  0  0  0  0  0  0  0  0  0  0
    2.5526   -0.2776    1.6038 H   0  0  0  0  0  0  0  0  0  0  0  0
    2.7170    1.3652    0.7712 H   0  0  0  0  0  0  0  0  0  0  0  0
  1  2  1  0
  2  3  1  0
  3  4  1  0
  4  5  1  0
  5  6  1  0
  5  7  1  0
  7  8  2  0
  7  9  1  0
  9  3  1  0
  1 10  1  0
  1 11  1  0
  1 12  1  0
  2 13  1  0
  2 14  1  0
  3 15  1  0
  4 16  1  0
  4 17  1  0
  5 18  1  0
  6 19  1  0
  6 20  1  0
  6 21  1  0
M  END
