
     RDKit          3D

 22 23  0  0  0  0  0  0  0  0999 V2000
    2.1672    0.8831    0.1896 C   0  0  0  0  0  0  0  0  0  0  0  0
    1.5106   -0.4448    0.4659 C   0  0  0  0  0  0  0  0  0  0  0  0
    0.1987   -0.6433   -0.1345 C   0  0  0  0  0  0  0  0  0  0  0  0
   -0.0875   -0.6082   -1.5876 C   0  0  0  0  0  0  0  0  0  0  0  0
   -1.4803   -0.0470   -1.2862 C   0  0  0  0  0  0  0  0  0  0  0  0
   -1.0640   -0.0611    0.1905 C   0  0  0  0  0  0  0  0  0  0  0  0
   -1.3371    1.1356    1.0078 C   0  0  0  0  0  0  0  0  0  0  0  0
   -0.8164   -1.4053    0.7362 C   0  0  0  0  0  0  0  0  0  0  0  0
    2.3743    1.0435   -0.8926 H   0  0  0  0  0  0  0  0  0  0  0  0
    3.1905    0.8201    0.6650 H   0  0  0  0  0  0  0  0  0  0  0  0
    1.6710    1.7360    0.6599 H   0  0  0  0  0  0  0  0  0  0  0  0
    2.2267   -1.2340    0.0889 H   0  0  0  0  0  0  0  0  0  0  0  0
    1.4727   -0.5779    1.5519 H   0  0  0  0  0  0  0  0  0  0  0  0
    0.4786    0.1541   -2.1497 H   0  0  0  0  0  0  0  0  0  0  0  0
   -0.1548   -1.5579   -2.1304 H   0  0  0  0  0  0  0  0  0  0  0  0
   -1.6834    0.9410   -1.6956 H   0  0  0  0  0  0  0  0  0  0  0  0
   -2.2961   -0.8077   -1.4077 H   0  0  0  0  0  0  0  0  0  0  0  0
   -0.7105    2.0159    0.7551 H   0  0  0  0  0  0  0  0  0  0  0  0
   -2.3955    1.4686    0.7870 H   0  0  0  0  0  0  0  0  0  0  0  0
   -1.3288    0.8992    2.0829 H   0  0  0  0  0  0  0  0  0  0  0  0
   -1.3599   -2.2433    0.2846 H   0  0  0  0  0  0  0  0  0  0  0  0
   -0.5763   -1.4665    1.8189 H   0  0  0  0  0  0  0  0  0  0  0  0
  1  2  1  0
  2  3  1  0
  3  4  1  0
  4  5  1  0
  5  6  1  0
  6  7  1  0
  6  8  1  0
  6  3  1  0
  8  3  1  0
  1  9  1  0
  1 10  1  0
  1 11  1  0
  2 12  1  0
  2 13  1  0
  4 14  1  0
  4 15  1  0
  5 16  1  0
  5 17  1  0
  7 18  1  0
  7 19  1  0
  7 20  1  0
  8 21  1  0
  8 22  1  0
M  END
