
     RDKit          3D

 17 17  0  0  0  0  0  0  0  0999 V2000
    2.1947    0.1759    0.3912 C   0  0  0  0  0  0  0  0  0  0  0  0
    0.9630    0.4047   -0.4622 C   0  0  0  0  0  0  0  0  0  0  0  0
   -0.0280   -0.7207   -0.2889 C   0  0  0  0  0  0  0  0  0  0  0  0
   -1.2891   -0.6146   -1.0784 C   0  0  0  0  0  0  0  0  0  0  0  0
   -1.2918   -0.5280    0.4582 C   0  0  0  0  0  0  0  0  0  0  0  0
   -1.6920    0.7818    0.9823 C   0  0  0  0  0  0  0  0  0  0  0  0
   -2.4345    0.8346    1.9477 O   0  0  0  0  0  0  0  0  0  0  0  0
    2.0759    0.5946    1.4186 H   0  0  0  0  0  0  0  0  0  0  0  0
    3.0213    0.7546   -0.1122 H   0  0  0  0  0  0  0  0  0  0  0  0
    2.5041   -0.8779    0.4251 H   0  0  0  0  0  0  0  0  0  0  0  0
    0.5334    1.3830   -0.2350 H   0  0  0  0  0  0  0  0  0  0  0  0
    1.2696    0.4171   -1.5352 H   0  0  0  0  0  0  0  0  0  0  0  0
    0.4284   -1.7328   -0.2618 H   0  0  0  0  0  0  0  0  0  0  0  0
   -1.4656    0.3223   -1.6431 H   0  0  0  0  0  0  0  0  0  0  0  0
   -1.7378   -1.5118   -1.5353 H   0  0  0  0  0  0  0  0  0  0  0  0
   -1.6993   -1.4082    0.9856 H   0  0  0  0  0  0  0  0  0  0  0  0
   -1.3524    1.7252    0.5434 H   0  0  0  0  0  0  0  0  0  0  0  0
  1  2  1  0
  2  3  1  0
  3  4  1  0
  4  5  1  0
  5  6  1  0
  6  7  2  0
  5  3  1  0
  1  8  1  0
  1  9  1  0
  1 10  1  0
  2 11  1  0
  2 12  1  0
  3 13  1  0
  4 14  1  0
  4 15  1  0
  5 16  1  0
  6 17  1  0
M  END
