
     RDKit          3D

 23 24  0  0  0  0  0  0  0  0999 V2000
   -2.6076   -1.4270    0.1291 C   0  0  0  0  0  0  0  0  0  0  0  0
   -1.7923   -0.2983   -0.4698 C   0  0  0  0  0  0  0  0  0  0  0  0
   -1.0626    0.4546    0.5962 C   0  0  0  0  0  0  0  0  0  0  0  0
   -0.2086    1.6089    0.1426 C   0  0  0  0  0  0  0  0  0  0  0  0
   -0.1696    1.8440   -1.2234 O   0  0  0  0  0  0  0  0  0  0  0  0
    0.4036    0.4114    0.7461 C   0  0  0  0  0  0  0  0  0  0  0  0
    1.2717   -0.5284   -0.0077 C   0  0  0  0  0  0  0  0  0  0  0  0
    2.7703   -0.3950    0.3086 C   0  0  0  0  0  0  0  0  0  0  0  0
    2.1957   -0.1581   -1.0699 C   0  0  0  0  0  0  0  0  0  0  0  0
   -3.0486   -2.0260   -0.7045 H   0  0  0  0  0  0  0  0  0  0  0  0
   -3.4897   -0.9967    0.6720 H   0  0  0  0  0  0  0  0  0  0  0  0
   -1.9793   -2.0620    0.7624 H   0  0  0  0  0  0  0  0  0  0  0  0
   -1.1684   -0.6579   -1.2851 H   0  0  0  0  0  0  0  0  0  0  0  0
   -2.5325    0.4257   -0.9227 H   0  0  0  0  0  0  0  0  0  0  0  0
   -1.7044    0.7002    1.4825 H   0  0  0  0  0  0  0  0  0  0  0  0
   -0.2385    2.5654    0.7354 H   0  0  0  0  0  0  0  0  0  0  0  0
    0.5119    2.5001   -1.4783 H   0  0  0  0  0  0  0  0  0  0  0  0
    0.7559    0.5559    1.8126 H   0  0  0  0  0  0  0  0  0  0  0  0
    0.9219   -1.5999    0.0295 H   0  0  0  0  0  0  0  0  0  0  0  0
    3.3429   -1.2985    0.5288 H   0  0  0  0  0  0  0  0  0  0  0  0
    3.0928    0.4925    0.8774 H   0  0  0  0  0  0  0  0  0  0  0  0
    2.2540    0.8460   -1.5212 H   0  0  0  0  0  0  0  0  0  0  0  0
    2.4815   -0.9570   -1.7972 H   0  0  0  0  0  0  0  0  0  0  0  0
  1  2  1  0
  2  3  1  0
  3  4  1  0
  4  5  1  0
  4  6  1  0
  6  7  1  0
  7  8  1  0
  8  9  1  0
  6  3  1  0
  9  7  1  0
  1 10  1  0
  1 11  1  0
  1 12  1  0
  2 13  1  0
  2 14  1  0
  3 15  1  0
  4 16  1  0
  5 17  1  0
  6 18  1  0
  7 19  1  0
  8 20  1  0
  8 21  1  0
  9 22  1  0
  9 23  1  0
M  END
