
     RDKit          3D

 23 23  0  0  0  0  0  0  0  0999 V2000
   -3.2386    0.7507    0.0310 C   0  0  0  0  0  0  0  0  0  0  0  0
   -2.4105   -0.4687    0.2782 C   0  0  0  0  0  0  0  0  0  0  0  0
   -0.9880   -0.3569   -0.1102 C   0  0  0  0  0  0  0  0  0  0  0  0
   -0.3209    0.6523   -0.6449 C   0  0  0  0  0  0  0  0  0  0  0  0
    1.0981    0.2082   -0.8276 C   0  0  0  0  0  0  0  0  0  0  0  0
    1.9529    0.6084    0.3526 C   0  0  0  0  0  0  0  0  0  0  0  0
    3.3619    0.1078    0.0559 C   0  0  0  0  0  0  0  0  0  0  0  0
    0.9707   -1.1569   -0.8997 O   0  0  0  0  0  0  0  0  0  0  0  0
    0.0179   -1.4488    0.0466 C   0  0  0  0  0  0  0  0  0  0  0  0
   -2.6105    1.5396   -0.4154 H   0  0  0  0  0  0  0  0  0  0  0  0
   -4.0823    0.5689   -0.6884 H   0  0  0  0  0  0  0  0  0  0  0  0
   -3.7041    1.1147    0.9819 H   0  0  0  0  0  0  0  0  0  0  0  0
   -2.5277   -0.7847    1.3467 H   0  0  0  0  0  0  0  0  0  0  0  0
   -2.9088   -1.3097   -0.2926 H   0  0  0  0  0  0  0  0  0  0  0  0
   -0.6844    1.6283   -0.9157 H   0  0  0  0  0  0  0  0  0  0  0  0
    1.5125    0.5674   -1.7824 H   0  0  0  0  0  0  0  0  0  0  0  0
    1.9578    1.6907    0.5164 H   0  0  0  0  0  0  0  0  0  0  0  0
    1.5734    0.1096    1.2558 H   0  0  0  0  0  0  0  0  0  0  0  0
    3.6338    0.3616   -0.9999 H   0  0  0  0  0  0  0  0  0  0  0  0
    4.0383    0.5911    0.7674 H   0  0  0  0  0  0  0  0  0  0  0  0
    3.4028   -0.9961    0.1232 H   0  0  0  0  0  0  0  0  0  0  0  0
   -0.4346   -2.4354   -0.2325 H   0  0  0  0  0  0  0  0  0  0  0  0
    0.3902   -1.5422    1.0717 H   0  0  0  0  0  0  0  0  0  0  0  0
  1  2  1  0
  2  3  1  0
  3  4  2  0
  4  5  1  0
  5  6  1  0
  6  7  1  0
  5  8  1  0
  8  9  1  0
  9  3  1  0
  1 10  1  0
  1 11  1  0
  1 12  1  0
  2 13  1  0
  2 14  1  0
  4 15  1  0
  5 16  1  0
  6 17  1  0
  6 18  1  0
  7 19  1  0
  7 20  1  0
  7 21  1  0
  9 22  1  0
  9 23  1  0
M  END
