
     RDKit          3D

 18 19  0  0  0  0  0  0  0  0999 V2000
    2.2961    0.1681    0.2590 C   0  0  0  0  0  0  0  0  0  0  0  0
    1.2503   -0.3286   -0.7183 C   0  0  0  0  0  0  0  0  0  0  0  0
   -0.0291   -0.5011    0.0660 C   0  0  0  0  0  0  0  0  0  0  0  0
   -1.2122   -0.9896   -0.7050 C   0  0  0  0  0  0  0  0  0  0  0  0
   -2.3474   -0.6378    0.0349 O   0  0  0  0  0  0  0  0  0  0  0  0
   -2.0768    0.6096    0.5576 C   0  0  0  0  0  0  0  0  0  0  0  0
   -0.5914    0.6920    0.8039 C   0  0  0  0  0  0  0  0  0  0  0  0
   -0.0397   -0.3964    1.4309 O   0  0  0  0  0  0  0  0  0  0  0  0
    1.8222    0.7240    1.0942 H   0  0  0  0  0  0  0  0  0  0  0  0
    2.8049   -0.7579    0.6507 H   0  0  0  0  0  0  0  0  0  0  0  0
    3.0076    0.8124   -0.2972 H   0  0  0  0  0  0  0  0  0  0  0  0
    1.1028    0.4913   -1.4805 H   0  0  0  0  0  0  0  0  0  0  0  0
    1.5502   -1.2390   -1.2310 H   0  0  0  0  0  0  0  0  0  0  0  0
   -1.2684   -0.3660   -1.6441 H   0  0  0  0  0  0  0  0  0  0  0  0
   -1.1974   -2.0658   -0.9355 H   0  0  0  0  0  0  0  0  0  0  0  0
   -2.4421    1.4393   -0.0964 H   0  0  0  0  0  0  0  0  0  0  0  0
   -2.5806    0.7135    1.5413 H   0  0  0  0  0  0  0  0  0  0  0  0
   -0.0491    1.6321    0.6693 H   0  0  0  0  0  0  0  0  0  0  0  0
  1  2  1  0
  2  3  1  0
  3  4  1  0
  4  5  1  0
  5  6  1  0
  6  7  1  0
  7  8  1  0
  7  3  1  0
  8  3  1  0
  1  9  1  0
  1 10  1  0
  1 11  1  0
  2 12  1  0
  2 13  1  0
  4 14  1  0
  4 15  1  0
  6 16  1  0
  6 17  1  0
  7 18  1  0
M  END
