
     RDKit          3D

 23 24  0  0  0  0  0  0  0  0999 V2000
   -2.7299   -0.9311    0.2081 C   0  0  0  0  0  0  0  0  0  0  0  0
   -1.7125    0.1314    0.5580 C   0  0  0  0  0  0  0  0  0  0  0  0
   -0.6357    0.2127   -0.4951 C   0  0  0  0  0  0  0  0  0  0  0  0
   -1.1628    0.5287   -1.7430 O   0  0  0  0  0  0  0  0  0  0  0  0
    0.3014   -0.9678   -0.5382 C   0  0  0  0  0  0  0  0  0  0  0  0
    1.5069   -0.0760   -0.5245 C   0  0  0  0  0  0  0  0  0  0  0  0
    2.6153   -0.3754    0.4588 C   0  0  0  0  0  0  0  0  0  0  0  0
    1.5506    1.2120   -1.2291 C   0  0  0  0  0  0  0  0  0  0  0  0
    0.5366    1.0717   -0.1529 C   0  0  0  0  0  0  0  0  0  0  0  0
   -3.7476   -0.5618    0.3758 H   0  0  0  0  0  0  0  0  0  0  0  0
   -2.6446   -1.2616   -0.8469 H   0  0  0  0  0  0  0  0  0  0  0  0
   -2.5189   -1.8414    0.8367 H   0  0  0  0  0  0  0  0  0  0  0  0
   -2.2480    1.1124    0.5519 H   0  0  0  0  0  0  0  0  0  0  0  0
   -1.3144   -0.0038    1.5681 H   0  0  0  0  0  0  0  0  0  0  0  0
   -1.1082    1.5163   -1.8585 H   0  0  0  0  0  0  0  0  0  0  0  0
    0.1554   -1.5728   -1.4637 H   0  0  0  0  0  0  0  0  0  0  0  0
    0.3006   -1.5992    0.3877 H   0  0  0  0  0  0  0  0  0  0  0  0
    3.5153   -0.6892   -0.1349 H   0  0  0  0  0  0  0  0  0  0  0  0
    2.3033   -1.1329    1.1932 H   0  0  0  0  0  0  0  0  0  0  0  0
    2.8518    0.5677    0.9882 H   0  0  0  0  0  0  0  0  0  0  0  0
    1.1058    1.3203   -2.2581 H   0  0  0  0  0  0  0  0  0  0  0  0
    2.3907    1.8704   -1.0247 H   0  0  0  0  0  0  0  0  0  0  0  0
    0.6889    1.4693    0.8605 H   0  0  0  0  0  0  0  0  0  0  0  0
  1  2  1  0
  2  3  1  0
  3  4  1  0
  3  5  1  0
  5  6  1  0
  6  7  1  0
  6  8  1  0
  8  9  1  0
  9  3  1  0
  9  6  1  0
  1 10  1  0
  1 11  1  0
  1 12  1  0
  2 13  1  0
  2 14  1  0
  4 15  1  0
  5 16  1  0
  5 17  1  0
  7 18  1  0
  7 19  1  0
  7 20  1  0
  8 21  1  0
  8 22  1  0
  9 23  1  0
M  END
