
     RDKit          3D

 20 21  0  0  0  0  0  0  0  0999 V2000
    2.5558   -0.0843    0.1099 C   0  0  0  0  0  0  0  0  0  0  0  0
    1.3125   -0.5146    0.8560 C   0  0  0  0  0  0  0  0  0  0  0  0
    0.1417   -0.3435   -0.0677 C   0  0  0  0  0  0  0  0  0  0  0  0
   -1.1685   -0.7457    0.5740 C   0  0  0  0  0  0  0  0  0  0  0  0
   -2.1506   -0.2452   -0.4936 C   0  0  0  0  0  0  0  0  0  0  0  0
   -1.6080    1.1304   -0.7614 C   0  0  0  0  0  0  0  0  0  0  0  0
   -0.6283    1.3103   -1.7156 O   0  0  0  0  0  0  0  0  0  0  0  0
   -0.1188    1.0777   -0.4548 C   0  0  0  0  0  0  0  0  0  0  0  0
    3.1563    0.6269    0.7139 H   0  0  0  0  0  0  0  0  0  0  0  0
    2.2993    0.4523   -0.8350 H   0  0  0  0  0  0  0  0  0  0  0  0
    3.1676   -0.9679   -0.2069 H   0  0  0  0  0  0  0  0  0  0  0  0
    1.1651    0.0670    1.7719 H   0  0  0  0  0  0  0  0  0  0  0  0
    1.3661   -1.5914    1.1222 H   0  0  0  0  0  0  0  0  0  0  0  0
    0.2781   -0.9946   -0.9561 H   0  0  0  0  0  0  0  0  0  0  0  0
   -1.3891   -0.1554    1.4792 H   0  0  0  0  0  0  0  0  0  0  0  0
   -1.2920   -1.8198    0.6928 H   0  0  0  0  0  0  0  0  0  0  0  0
   -2.0446   -0.9237   -1.3784 H   0  0  0  0  0  0  0  0  0  0  0  0
   -3.1783   -0.2101   -0.1236 H   0  0  0  0  0  0  0  0  0  0  0  0
   -2.1871    2.0233   -0.4613 H   0  0  0  0  0  0  0  0  0  0  0  0
    0.3229    1.9083    0.1344 H   0  0  0  0  0  0  0  0  0  0  0  0
  1  2  1  0
  2  3  1  0
  3  4  1  0
  4  5  1  0
  5  6  1  0
  6  7  1  0
  7  8  1  0
  8  3  1  0
  8  6  1  0
  1  9  1  0
  1 10  1  0
  1 11  1  0
  2 12  1  0
  2 13  1  0
  3 14  1  0
  4 15  1  0
  4 16  1  0
  5 17  1  0
  5 18  1  0
  6 19  1  0
  8 20  1  0
M  END
