
     RDKit          3D

 25 25  0  0  0  0  0  0  0  0999 V2000
    2.7160    0.9733    0.2853 C   0  0  0  0  0  0  0  0  0  0  0  0
    1.7690   -0.2253    0.4549 C   0  0  0  0  0  0  0  0  0  0  0  0
    0.5531    0.1333   -0.3983 C   0  0  0  0  0  0  0  0  0  0  0  0
    0.0747    1.3360    0.1719 O   0  0  0  0  0  0  0  0  0  0  0  0
   -1.0785    1.7637   -0.4765 C   0  0  0  0  0  0  0  0  0  0  0  0
   -2.2468    0.8445   -0.1942 C   0  0  0  0  0  0  0  0  0  0  0  0
   -1.7769   -0.5153    0.2624 C   0  0  0  0  0  0  0  0  0  0  0  0
   -0.4845   -0.9334   -0.4009 C   0  0  0  0  0  0  0  0  0  0  0  0
   -0.0442   -2.2238    0.2328 C   0  0  0  0  0  0  0  0  0  0  0  0
    2.2468    1.7880    0.9115 H   0  0  0  0  0  0  0  0  0  0  0  0
    2.7794    1.3042   -0.7496 H   0  0  0  0  0  0  0  0  0  0  0  0
    3.6728    0.7398    0.7708 H   0  0  0  0  0  0  0  0  0  0  0  0
    2.3165   -1.0911    0.0439 H   0  0  0  0  0  0  0  0  0  0  0  0
    1.5393   -0.2849    1.5177 H   0  0  0  0  0  0  0  0  0  0  0  0
    0.9607    0.3541   -1.4113 H   0  0  0  0  0  0  0  0  0  0  0  0
   -0.9398    1.8487   -1.5591 H   0  0  0  0  0  0  0  0  0  0  0  0
   -1.3217    2.7627   -0.0703 H   0  0  0  0  0  0  0  0  0  0  0  0
   -2.8530    1.2625    0.6573 H   0  0  0  0  0  0  0  0  0  0  0  0
   -2.9204    0.7967   -1.0751 H   0  0  0  0  0  0  0  0  0  0  0  0
   -1.7253   -0.5671    1.3668 H   0  0  0  0  0  0  0  0  0  0  0  0
   -2.5552   -1.2446   -0.0554 H   0  0  0  0  0  0  0  0  0  0  0  0
   -0.7354   -1.1689   -1.4592 H   0  0  0  0  0  0  0  0  0  0  0  0
    0.5892   -2.7711   -0.4919 H   0  0  0  0  0  0  0  0  0  0  0  0
   -0.9877   -2.7966    0.4561 H   0  0  0  0  0  0  0  0  0  0  0  0
    0.4520   -2.0854    1.2104 H   0  0  0  0  0  0  0  0  0  0  0  0
  1  2  1  0
  2  3  1  0
  3  4  1  0
  4  5  1  0
  5  6  1  0
  6  7  1  0
  7  8  1  0
  8  9  1  0
  8  3  1  0
  1 10  1  0
  1 11  1  0
  1 12  1  0
  2 13  1  0
  2 14  1  0
  3 15  1  0
  5 16  1  0
  5 17  1  0
  6 18  1  0
  6 19  1  0
  7 20  1  0
  7 21  1  0
  8 22  1  0
  9 23  1  0
  9 24  1  0
  9 25  1  0
M  END
