
     RDKit          3D

 27 27  0  0  0  0  0  0  0  0999 V2000
    2.2750   -1.4669   -0.6383 C   0  0  0  0  0  0  0  0  0  0  0  0
    1.0126   -1.3270    0.2235 C   0  0  0  0  0  0  0  0  0  0  0  0
    0.8148    0.0873    0.6879 C   0  0  0  0  0  0  0  0  0  0  0  0
    0.6513    1.1934   -0.2948 C   0  0  0  0  0  0  0  0  0  0  0  0
    1.3788    2.5232   -0.0372 C   0  0  0  0  0  0  0  0  0  0  0  0
   -0.4604    0.8088    0.5937 C   0  0  0  0  0  0  0  0  0  0  0  0
   -1.7357    0.2011    0.1304 C   0  0  0  0  0  0  0  0  0  0  0  0
   -1.7754   -0.3564   -1.2346 C   0  0  0  0  0  0  0  0  0  0  0  0
   -2.2363   -0.8439    1.1391 C   0  0  0  0  0  0  0  0  0  0  0  0
    2.4605   -0.5760   -1.2403 H   0  0  0  0  0  0  0  0  0  0  0  0
    3.1673   -1.6461   -0.0052 H   0  0  0  0  0  0  0  0  0  0  0  0
    2.1016   -2.3755   -1.2610 H   0  0  0  0  0  0  0  0  0  0  0  0
    0.1328   -1.7833   -0.2633 H   0  0  0  0  0  0  0  0  0  0  0  0
    1.2194   -1.9852    1.1161 H   0  0  0  0  0  0  0  0  0  0  0  0
    1.5129    0.3477    1.5315 H   0  0  0  0  0  0  0  0  0  0  0  0
    0.6365    0.9758   -1.3899 H   0  0  0  0  0  0  0  0  0  0  0  0
    0.6523    3.3523   -0.1164 H   0  0  0  0  0  0  0  0  0  0  0  0
    2.2209    2.6206   -0.7528 H   0  0  0  0  0  0  0  0  0  0  0  0
    1.8362    2.5348    0.9748 H   0  0  0  0  0  0  0  0  0  0  0  0
   -0.6380    1.5448    1.4404 H   0  0  0  0  0  0  0  0  0  0  0  0
   -2.5300    1.0082    0.1716 H   0  0  0  0  0  0  0  0  0  0  0  0
   -2.6029    0.0792   -1.8725 H   0  0  0  0  0  0  0  0  0  0  0  0
   -2.0514   -1.4522   -1.1931 H   0  0  0  0  0  0  0  0  0  0  0  0
   -0.8807   -0.2951   -1.8410 H   0  0  0  0  0  0  0  0  0  0  0  0
   -1.4267   -1.4639    1.5297 H   0  0  0  0  0  0  0  0  0  0  0  0
   -3.0240   -1.4103    0.6040 H   0  0  0  0  0  0  0  0  0  0  0  0
   -2.7113   -0.2953    1.9977 H   0  0  0  0  0  0  0  0  0  0  0  0
  1  2  1  0
  2  3  1  0
  3  4  1  0
  4  5  1  0
  4  6  1  0
  6  7  1  0
  7  8  1  0
  7  9  1  0
  6  3  1  0
  1 10  1  0
  1 11  1  0
  1 12  1  0
  2 13  1  0
  2 14  1  0
  3 15  1  0
  4 16  1  0
  5 17  1  0
  5 18  1  0
  5 19  1  0
  6 20  1  0
  7 21  1  0
  8 22  1  0
  8 23  1  0
  8 24  1  0
  9 25  1  0
  9 26  1  0
  9 27  1  0
M  END
