
     RDKit          3D

 21 23  0  0  0  0  0  0  0  0999 V2000
    2.4971    0.4055    0.0897 C   0  0  0  0  0  0  0  0  0  0  0  0
    1.5762   -0.7129   -0.2806 C   0  0  0  0  0  0  0  0  0  0  0  0
    0.1805   -0.2331   -0.3437 C   0  0  0  0  0  0  0  0  0  0  0  0
   -0.8882   -1.2182   -0.7017 C   0  0  0  0  0  0  0  0  0  0  0  0
   -2.1734   -0.5004   -0.3631 C   0  0  0  0  0  0  0  0  0  0  0  0
   -1.7931    0.6988    0.4849 C   0  0  0  0  0  0  0  0  0  0  0  0
   -0.7166    1.5468   -0.0821 C   0  0  0  0  0  0  0  0  0  0  0  0
    0.0556    0.9425   -1.0763 O   0  0  0  0  0  0  0  0  0  0  0  0
   -0.3937    0.4621    0.8346 C   0  0  0  0  0  0  0  0  0  0  0  0
    2.4891    0.6180    1.1722 H   0  0  0  0  0  0  0  0  0  0  0  0
    3.5406    0.0665   -0.1565 H   0  0  0  0  0  0  0  0  0  0  0  0
    2.2630    1.3567   -0.4585 H   0  0  0  0  0  0  0  0  0  0  0  0
    1.8723   -1.0513   -1.3099 H   0  0  0  0  0  0  0  0  0  0  0  0
    1.7376   -1.5372    0.4380 H   0  0  0  0  0  0  0  0  0  0  0  0
   -0.8223   -2.1315   -0.0587 H   0  0  0  0  0  0  0  0  0  0  0  0
   -0.8392   -1.5684   -1.7405 H   0  0  0  0  0  0  0  0  0  0  0  0
   -2.6918   -0.1994   -1.2997 H   0  0  0  0  0  0  0  0  0  0  0  0
   -2.8497   -1.1591    0.1931 H   0  0  0  0  0  0  0  0  0  0  0  0
   -2.4973    1.0800    1.2350 H   0  0  0  0  0  0  0  0  0  0  0  0
   -0.6052    2.6064    0.1389 H   0  0  0  0  0  0  0  0  0  0  0  0
    0.0584    0.5281    1.7997 H   0  0  0  0  0  0  0  0  0  0  0  0
  1  2  1  0
  2  3  1  0
  3  4  1  0
  4  5  1  0
  5  6  1  0
  6  7  1  0
  7  8  1  0
  7  9  1  0
  8  3  1  0
  9  3  1  0
  9  6  1  0
  1 10  1  0
  1 11  1  0
  1 12  1  0
  2 13  1  0
  2 14  1  0
  4 15  1  0
  4 16  1  0
  5 17  1  0
  5 18  1  0
  6 19  1  0
  7 20  1  0
  9 21  1  0
M  END
