
     RDKit          3D

 21 22  0  0  0  0  0  0  0  0999 V2000
   -2.3821    1.0562   -0.2364 C   0  0  0  0  0  0  0  0  0  0  0  0
   -1.9803   -0.3104   -0.7426 C   0  0  0  0  0  0  0  0  0  0  0  0
   -0.8847   -0.8090    0.1888 C   0  0  0  0  0  0  0  0  0  0  0  0
   -0.4345   -2.0711   -0.1855 O   0  0  0  0  0  0  0  0  0  0  0  0
    0.8843   -1.6515   -0.3590 C   0  0  0  0  0  0  0  0  0  0  0  0
    0.4664   -0.2613   -0.0717 C   0  0  0  0  0  0  0  0  0  0  0  0
    0.6805    0.7777   -0.9441 O   0  0  0  0  0  0  0  0  0  0  0  0
    1.1697    0.7754    0.4574 C   0  0  0  0  0  0  0  0  0  0  0  0
    2.7022    0.7460    0.5206 C   0  0  0  0  0  0  0  0  0  0  0  0
   -2.6409    1.7193   -1.0851 H   0  0  0  0  0  0  0  0  0  0  0  0
   -3.2177    0.9198    0.4683 H   0  0  0  0  0  0  0  0  0  0  0  0
   -1.5536    1.5124    0.3247 H   0  0  0  0  0  0  0  0  0  0  0  0
   -2.8371   -1.0173   -0.7379 H   0  0  0  0  0  0  0  0  0  0  0  0
   -1.6049   -0.2696   -1.7841 H   0  0  0  0  0  0  0  0  0  0  0  0
   -1.1412   -0.7848    1.2526 H   0  0  0  0  0  0  0  0  0  0  0  0
    1.4987   -2.0922    0.4724 H   0  0  0  0  0  0  0  0  0  0  0  0
    1.3255   -1.8672   -1.3522 H   0  0  0  0  0  0  0  0  0  0  0  0
    0.7451    1.6319    1.0033 H   0  0  0  0  0  0  0  0  0  0  0  0
    3.1438    0.7305   -0.4973 H   0  0  0  0  0  0  0  0  0  0  0  0
    2.9542   -0.2480    0.9919 H   0  0  0  0  0  0  0  0  0  0  0  0
    3.1066    1.5133    1.1803 H   0  0  0  0  0  0  0  0  0  0  0  0
  1  2  1  0
  2  3  1  0
  3  4  1  0
  4  5  1  0
  5  6  1  0
  6  7  1  0
  7  8  1  0
  8  9  1  0
  6  3  1  0
  8  6  1  0
  1 10  1  0
  1 11  1  0
  1 12  1  0
  2 13  1  0
  2 14  1  0
  3 15  1  0
  5 16  1  0
  5 17  1  0
  8 18  1  0
  9 19  1  0
  9 20  1  0
  9 21  1  0
M  END
