
     RDKit          3D

 21 22  0  0  0  0  0  0  0  0999 V2000
   -2.2831   -0.9827    0.0620 C   0  0  0  0  0  0  0  0  0  0  0  0
   -1.8711    0.4411    0.2202 C   0  0  0  0  0  0  0  0  0  0  0  0
   -0.4192    0.6809   -0.1087 C   0  0  0  0  0  0  0  0  0  0  0  0
   -0.0133    2.0091    0.0333 O   0  0  0  0  0  0  0  0  0  0  0  0
    0.4784   -0.3907    0.4454 C   0  0  0  0  0  0  0  0  0  0  0  0
    1.8818    0.0810    0.7487 C   0  0  0  0  0  0  0  0  0  0  0  0
    2.5449   -0.1077   -0.6026 C   0  0  0  0  0  0  0  0  0  0  0  0
    1.5559    0.3174   -1.4692 O   0  0  0  0  0  0  0  0  0  0  0  0
    0.3522   -0.1609   -1.0145 C   0  0  0  0  0  0  0  0  0  0  0  0
   -1.5101   -1.6409   -0.3712 H   0  0  0  0  0  0  0  0  0  0  0  0
   -3.2234   -1.0498   -0.5585 H   0  0  0  0  0  0  0  0  0  0  0  0
   -2.5765   -1.4635    1.0389 H   0  0  0  0  0  0  0  0  0  0  0  0
   -2.1043    0.7566    1.2598 H   0  0  0  0  0  0  0  0  0  0  0  0
   -2.5123    1.0865   -0.4343 H   0  0  0  0  0  0  0  0  0  0  0  0
   -0.7405    2.6060    0.3115 H   0  0  0  0  0  0  0  0  0  0  0  0
    0.0921   -1.3177    0.8508 H   0  0  0  0  0  0  0  0  0  0  0  0
    1.8672    1.1610    1.0526 H   0  0  0  0  0  0  0  0  0  0  0  0
    2.3706   -0.4710    1.5543 H   0  0  0  0  0  0  0  0  0  0  0  0
    2.7801   -1.1707   -0.7097 H   0  0  0  0  0  0  0  0  0  0  0  0
    3.4235    0.5619   -0.6449 H   0  0  0  0  0  0  0  0  0  0  0  0
   -0.0928   -0.9461   -1.6636 H   0  0  0  0  0  0  0  0  0  0  0  0
  1  2  1  0
  2  3  1  0
  3  4  1  0
  3  5  1  0
  5  6  1  0
  6  7  1  0
  7  8  1  0
  8  9  1  0
  9  3  1  0
  9  5  1  0
  1 10  1  0
  1 11  1  0
  1 12  1  0
  2 13  1  0
  2 14  1  0
  4 15  1  0
  5 16  1  0
  6 17  1  0
  6 18  1  0
  7 19  1  0
  7 20  1  0
  9 21  1  0
M  END
