
     RDKit          3D

 21 21  0  0  0  0  0  0  0  0999 V2000
    2.0475   -0.7400    0.0953 C   0  0  0  0  0  0  0  0  0  0  0  0
    1.2962    0.4919   -0.2730 C   0  0  0  0  0  0  0  0  0  0  0  0
   -0.1768    0.4441   -0.0497 C   0  0  0  0  0  0  0  0  0  0  0  0
   -0.8142    1.7561   -0.4646 C   0  0  0  0  0  0  0  0  0  0  0  0
   -0.6781   -0.0990    1.2332 C   0  0  0  0  0  0  0  0  0  0  0  0
   -1.3927   -1.2008    0.4843 C   0  0  0  0  0  0  0  0  0  0  0  0
   -0.7997   -0.7215   -0.8137 C   0  0  0  0  0  0  0  0  0  0  0  0
    3.1280   -0.5168   -0.0412 H   0  0  0  0  0  0  0  0  0  0  0  0
    1.9285   -1.0414    1.1526 H   0  0  0  0  0  0  0  0  0  0  0  0
    1.8374   -1.5961   -0.5978 H   0  0  0  0  0  0  0  0  0  0  0  0
    1.7137    1.3424    0.3015 H   0  0  0  0  0  0  0  0  0  0  0  0
    1.4543    0.6353   -1.3817 H   0  0  0  0  0  0  0  0  0  0  0  0
   -0.0670    2.4868   -0.8336 H   0  0  0  0  0  0  0  0  0  0  0  0
   -1.3158    2.2559    0.4095 H   0  0  0  0  0  0  0  0  0  0  0  0
   -1.5382    1.6147   -1.2989 H   0  0  0  0  0  0  0  0  0  0  0  0
    0.0478   -0.5381    1.9329 H   0  0  0  0  0  0  0  0  0  0  0  0
   -1.4269    0.5674    1.7481 H   0  0  0  0  0  0  0  0  0  0  0  0
   -2.5135   -1.1079    0.5009 H   0  0  0  0  0  0  0  0  0  0  0  0
   -1.0750   -2.2252    0.7093 H   0  0  0  0  0  0  0  0  0  0  0  0
   -1.5803   -0.4001   -1.5314 H   0  0  0  0  0  0  0  0  0  0  0  0
   -0.0752   -1.4076   -1.2819 H   0  0  0  0  0  0  0  0  0  0  0  0
  1  2  1  0
  2  3  1  0
  3  4  1  0
  3  5  1  0
  5  6  1  0
  6  7  1  0
  7  3  1  0
  1  8  1  0
  1  9  1  0
  1 10  1  0
  2 11  1  0
  2 12  1  0
  4 13  1  0
  4 14  1  0
  4 15  1  0
  5 16  1  0
  5 17  1  0
  6 18  1  0
  6 19  1  0
  7 20  1  0
  7 21  1  0
M  END
