
     RDKit          3D

 25 25  0  0  0  0  0  0  0  0999 V2000
    2.9480   -0.1785   -0.0919 C   0  0  0  0  0  0  0  0  0  0  0  0
    1.6681    0.5411    0.3128 C   0  0  0  0  0  0  0  0  0  0  0  0
    0.5150   -0.3903    0.0598 C   0  0  0  0  0  0  0  0  0  0  0  0
    0.4451   -0.7452   -1.2920 O   0  0  0  0  0  0  0  0  0  0  0  0
   -0.7646   -1.4261   -1.4019 C   0  0  0  0  0  0  0  0  0  0  0  0
   -1.7241   -0.7850   -0.4355 C   0  0  0  0  0  0  0  0  0  0  0  0
   -0.8230    0.2367    0.2704 C   0  0  0  0  0  0  0  0  0  0  0  0
   -1.0054    1.5426   -0.4628 C   0  0  0  0  0  0  0  0  0  0  0  0
   -1.2406    0.3403    1.6972 C   0  0  0  0  0  0  0  0  0  0  0  0
    3.7165   -0.1426    0.7020 H   0  0  0  0  0  0  0  0  0  0  0  0
    2.7524   -1.2462   -0.3029 H   0  0  0  0  0  0  0  0  0  0  0  0
    3.3364    0.2754   -1.0280 H   0  0  0  0  0  0  0  0  0  0  0  0
    1.5720    1.5042   -0.1815 H   0  0  0  0  0  0  0  0  0  0  0  0
    1.7544    0.7166    1.4053 H   0  0  0  0  0  0  0  0  0  0  0  0
    0.5639   -1.3150    0.6318 H   0  0  0  0  0  0  0  0  0  0  0  0
   -0.5641   -2.4879   -1.1688 H   0  0  0  0  0  0  0  0  0  0  0  0
   -1.1023   -1.2851   -2.4584 H   0  0  0  0  0  0  0  0  0  0  0  0
   -2.5902   -0.3133   -0.9099 H   0  0  0  0  0  0  0  0  0  0  0  0
   -2.0140   -1.5452    0.3416 H   0  0  0  0  0  0  0  0  0  0  0  0
   -0.3088    2.2818   -0.0552 H   0  0  0  0  0  0  0  0  0  0  0  0
   -2.0352    1.9048   -0.1949 H   0  0  0  0  0  0  0  0  0  0  0  0
   -0.9241    1.4163   -1.5595 H   0  0  0  0  0  0  0  0  0  0  0  0
   -0.6236    1.0591    2.2502 H   0  0  0  0  0  0  0  0  0  0  0  0
   -1.2613   -0.6718    2.1559 H   0  0  0  0  0  0  0  0  0  0  0  0
   -2.2905    0.7132    1.7162 H   0  0  0  0  0  0  0  0  0  0  0  0
  1  2  1  0
  2  3  1  0
  3  4  1  0
  4  5  1  0
  5  6  1  0
  6  7  1  0
  7  8  1  0
  7  9  1  0
  7  3  1  0
  1 10  1  0
  1 11  1  0
  1 12  1  0
  2 13  1  0
  2 14  1  0
  3 15  1  0
  5 16  1  0
  5 17  1  0
  6 18  1  0
  6 19  1  0
  8 20  1  0
  8 21  1  0
  8 22  1  0
  9 23  1  0
  9 24  1  0
  9 25  1  0
M  END
