
     RDKit          3D

 20 20  0  0  0  0  0  0  0  0999 V2000
   -2.0693   -0.4993    0.8762 C   0  0  0  0  0  0  0  0  0  0  0  0
   -1.2591    0.4166    0.0019 C   0  0  0  0  0  0  0  0  0  0  0  0
   -0.0544   -0.2685   -0.5431 C   0  0  0  0  0  0  0  0  0  0  0  0
   -0.3505   -1.3710   -1.3117 O   0  0  0  0  0  0  0  0  0  0  0  0
    0.8440    0.7192   -1.2995 C   0  0  0  0  0  0  0  0  0  0  0  0
    1.5033    1.0091    0.0356 C   0  0  0  0  0  0  0  0  0  0  0  0
    1.0901   -0.4162    0.4266 C   0  0  0  0  0  0  0  0  0  0  0  0
    0.7728   -0.5799    1.7439 O   0  0  0  0  0  0  0  0  0  0  0  0
   -2.2024   -1.4501    0.3167 H   0  0  0  0  0  0  0  0  0  0  0  0
   -1.5620   -0.6322    1.8409 H   0  0  0  0  0  0  0  0  0  0  0  0
   -3.0761   -0.0191    1.0524 H   0  0  0  0  0  0  0  0  0  0  0  0
   -1.9174    0.7590   -0.8315 H   0  0  0  0  0  0  0  0  0  0  0  0
   -1.0015    1.3255    0.5761 H   0  0  0  0  0  0  0  0  0  0  0  0
    0.3462   -1.5267   -1.9946 H   0  0  0  0  0  0  0  0  0  0  0  0
    1.5647    0.1498   -1.9414 H   0  0  0  0  0  0  0  0  0  0  0  0
    0.3178    1.5423   -1.7712 H   0  0  0  0  0  0  0  0  0  0  0  0
    2.5995    1.1451   -0.0207 H   0  0  0  0  0  0  0  0  0  0  0  0
    1.0043    1.7964    0.6321 H   0  0  0  0  0  0  0  0  0  0  0  0
    1.8773   -1.1053    0.0120 H   0  0  0  0  0  0  0  0  0  0  0  0
    1.5726   -0.9950    2.1994 H   0  0  0  0  0  0  0  0  0  0  0  0
  1  2  1  0
  2  3  1  0
  3  4  1  0
  3  5  1  0
  5  6  1  0
  6  7  1  0
  7  8  1  0
  7  3  1  0
  1  9  1  0
  1 10  1  0
  1 11  1  0
  2 12  1  0
  2 13  1  0
  4 14  1  0
  5 15  1  0
  5 16  1  0
  6 17  1  0
  6 18  1  0
  7 19  1  0
  8 20  1  0
M  END
