
     RDKit          3D

 25 25  0  0  0  0  0  0  0  0999 V2000
    2.2632    1.2482    1.0134 C   0  0  0  0  0  0  0  0  0  0  0  0
    1.5874   -0.0835    0.9850 C   0  0  0  0  0  0  0  0  0  0  0  0
    1.0385   -0.3316   -0.4263 C   0  0  0  0  0  0  0  0  0  0  0  0
    0.0890    0.7409   -0.7140 C   0  0  0  0  0  0  0  0  0  0  0  0
   -1.1852    0.5822   -0.4146 C   0  0  0  0  0  0  0  0  0  0  0  0
   -2.1518    1.6703   -0.7059 C   0  0  0  0  0  0  0  0  0  0  0  0
   -1.6406   -0.6532    0.1995 C   0  0  0  0  0  0  0  0  0  0  0  0
   -0.9299   -1.8999   -0.2209 C   0  0  0  0  0  0  0  0  0  0  0  0
    0.5111   -1.7206   -0.5616 C   0  0  0  0  0  0  0  0  0  0  0  0
    1.7258    1.8979    1.7343 H   0  0  0  0  0  0  0  0  0  0  0  0
    3.3172    1.1380    1.3634 H   0  0  0  0  0  0  0  0  0  0  0  0
    2.1998    1.7314    0.0255 H   0  0  0  0  0  0  0  0  0  0  0  0
    2.2766   -0.9152    1.2664 H   0  0  0  0  0  0  0  0  0  0  0  0
    0.7666   -0.1233    1.7303 H   0  0  0  0  0  0  0  0  0  0  0  0
    1.9073   -0.2205   -1.1221 H   0  0  0  0  0  0  0  0  0  0  0  0
    0.4645    1.6733   -1.1812 H   0  0  0  0  0  0  0  0  0  0  0  0
   -2.6134    1.5609   -1.7191 H   0  0  0  0  0  0  0  0  0  0  0  0
   -1.6613    2.6843   -0.6905 H   0  0  0  0  0  0  0  0  0  0  0  0
   -2.9387    1.7159    0.0904 H   0  0  0  0  0  0  0  0  0  0  0  0
   -1.5619   -0.5262    1.3199 H   0  0  0  0  0  0  0  0  0  0  0  0
   -2.7429   -0.7481    0.0219 H   0  0  0  0  0  0  0  0  0  0  0  0
   -1.5245   -2.3568   -1.0448 H   0  0  0  0  0  0  0  0  0  0  0  0
   -1.0044   -2.6165    0.6264 H   0  0  0  0  0  0  0  0  0  0  0  0
    1.1622   -2.3916    0.0398 H   0  0  0  0  0  0  0  0  0  0  0  0
    0.6453   -2.0565   -1.6154 H   0  0  0  0  0  0  0  0  0  0  0  0
  1  2  1  0
  2  3  1  0
  3  4  1  0
  4  5  2  0
  5  6  1  0
  5  7  1  0
  7  8  1  0
  8  9  1  0
  9  3  1  0
  1 10  1  0
  1 11  1  0
  1 12  1  0
  2 13  1  0
  2 14  1  0
  3 15  1  0
  4 16  1  0
  6 17  1  0
  6 18  1  0
  6 19  1  0
  7 20  1  0
  7 21  1  0
  8 22  1  0
  8 23  1  0
  9 24  1  0
  9 25  1  0
M  END
