
     RDKit          3D

 21 22  0  0  0  0  0  0  0  0999 V2000
    2.2449   -0.6031    0.4573 C   0  0  0  0  0  0  0  0  0  0  0  0
    1.2541    0.5412    0.5288 C   0  0  0  0  0  0  0  0  0  0  0  0
    0.2141    0.2999   -0.5246 C   0  0  0  0  0  0  0  0  0  0  0  0
    0.6699    0.2347   -1.8182 O   0  0  0  0  0  0  0  0  0  0  0  0
   -0.8294   -0.7238   -0.2261 C   0  0  0  0  0  0  0  0  0  0  0  0
   -1.3894   -0.2466    1.0825 C   0  0  0  0  0  0  0  0  0  0  0  0
   -1.4669    1.1468    0.8215 O   0  0  0  0  0  0  0  0  0  0  0  0
   -0.9926    1.2483   -0.4540 C   0  0  0  0  0  0  0  0  0  0  0  0
   -1.7067    0.0988   -1.1880 C   0  0  0  0  0  0  0  0  0  0  0  0
    2.0913   -1.2339   -0.4439 H   0  0  0  0  0  0  0  0  0  0  0  0
    2.2179   -1.2470    1.3577 H   0  0  0  0  0  0  0  0  0  0  0  0
    3.3009   -0.2291    0.3814 H   0  0  0  0  0  0  0  0  0  0  0  0
    0.8270    0.6916    1.5217 H   0  0  0  0  0  0  0  0  0  0  0  0
    1.8218    1.4692    0.2740 H   0  0  0  0  0  0  0  0  0  0  0  0
    0.7426   -0.7409   -2.0501 H   0  0  0  0  0  0  0  0  0  0  0  0
   -0.6927   -1.7436   -0.4302 H   0  0  0  0  0  0  0  0  0  0  0  0
   -0.7873   -0.4740    1.9568 H   0  0  0  0  0  0  0  0  0  0  0  0
   -2.4358   -0.6386    1.1472 H   0  0  0  0  0  0  0  0  0  0  0  0
   -0.9171    2.1749   -0.9619 H   0  0  0  0  0  0  0  0  0  0  0  0
   -1.4063   -0.0121   -2.2382 H   0  0  0  0  0  0  0  0  0  0  0  0
   -2.7604   -0.0128   -0.9353 H   0  0  0  0  0  0  0  0  0  0  0  0
  1  2  1  0
  2  3  1  0
  3  4  1  0
  3  5  1  0
  5  6  1  0
  6  7  1  0
  7  8  1  0
  8  9  1  0
  8  3  1  0
  9  5  1  0
  1 10  1  0
  1 11  1  0
  1 12  1  0
  2 13  1  0
  2 14  1  0
  4 15  1  0
  5 16  1  0
  6 17  1  0
  6 18  1  0
  8 19  1  0
  9 20  1  0
  9 21  1  0
M  END
