
     RDKit          3D

 23 24  0  0  0  0  0  0  0  0999 V2000
    2.4513    0.7436    0.2017 C   0  0  0  0  0  0  0  0  0  0  0  0
    1.5770   -0.3492   -0.4093 C   0  0  0  0  0  0  0  0  0  0  0  0
    0.3282   -0.5338    0.3670 C   0  0  0  0  0  0  0  0  0  0  0  0
   -0.5830   -1.6091   -0.1909 C   0  0  0  0  0  0  0  0  0  0  0  0
   -1.6861   -1.5718    0.7973 C   0  0  0  0  0  0  0  0  0  0  0  0
   -1.8676   -0.2615    0.9992 C   0  0  0  0  0  0  0  0  0  0  0  0
   -0.8484    0.3534    0.0667 C   0  0  0  0  0  0  0  0  0  0  0  0
   -0.7330    1.7677   -0.0442 C   0  0  0  0  0  0  0  0  0  0  0  0
   -1.0702   -0.5235   -1.1511 C   0  0  0  0  0  0  0  0  0  0  0  0
    3.5304    0.4362    0.2107 H   0  0  0  0  0  0  0  0  0  0  0  0
    2.4121    1.6614   -0.4158 H   0  0  0  0  0  0  0  0  0  0  0  0
    2.1754    0.9633    1.2378 H   0  0  0  0  0  0  0  0  0  0  0  0
    1.4634   -0.0969   -1.4571 H   0  0  0  0  0  0  0  0  0  0  0  0
    2.1764   -1.3000   -0.3126 H   0  0  0  0  0  0  0  0  0  0  0  0
    0.4554   -0.6413    1.4640 H   0  0  0  0  0  0  0  0  0  0  0  0
   -0.1973   -2.5035   -0.5670 H   0  0  0  0  0  0  0  0  0  0  0  0
   -2.2070   -2.4102    1.2380 H   0  0  0  0  0  0  0  0  0  0  0  0
   -2.5452    0.2770    1.6432 H   0  0  0  0  0  0  0  0  0  0  0  0
   -1.5513    2.2925    0.5332 H   0  0  0  0  0  0  0  0  0  0  0  0
    0.2080    2.2611    0.3200 H   0  0  0  0  0  0  0  0  0  0  0  0
   -0.9030    2.1120   -1.1069 H   0  0  0  0  0  0  0  0  0  0  0  0
   -0.4547   -0.3584   -2.0219 H   0  0  0  0  0  0  0  0  0  0  0  0
   -2.1309   -0.7090   -1.4019 H   0  0  0  0  0  0  0  0  0  0  0  0
  1  2  1  0
  2  3  1  0
  3  4  1  0
  4  5  1  0
  5  6  2  0
  6  7  1  0
  7  8  1  0
  7  9  1  0
  7  3  1  0
  9  4  1  0
  1 10  1  0
  1 11  1  0
  1 12  1  0
  2 13  1  0
  2 14  1  0
  3 15  1  0
  4 16  1  0
  5 17  1  0
  6 18  1  0
  8 19  1  0
  8 20  1  0
  8 21  1  0
  9 22  1  0
  9 23  1  0
M  END
