
     RDKit          3D

 15 15  0  0  0  0  0  0  0  0999 V2000
   -2.0024    0.3567    0.2787 C   0  0  0  0  0  0  0  0  0  0  0  0
   -0.7057    0.0278    0.9783 C   0  0  0  0  0  0  0  0  0  0  0  0
    0.0857   -0.8920    0.0727 C   0  0  0  0  0  0  0  0  0  0  0  0
    1.3253   -1.2196    0.7170 O   0  0  0  0  0  0  0  0  0  0  0  0
    2.2221   -0.1988    0.3664 C   0  0  0  0  0  0  0  0  0  0  0  0
    3.3205    0.0964    0.9160 O   0  0  0  0  0  0  0  0  0  0  0  0
    1.6514    0.4868   -0.7793 C   0  0  0  0  0  0  0  0  0  0  0  0
    2.1840    1.4791   -1.3831 O   0  0  0  0  0  0  0  0  0  0  0  0
    0.4503   -0.1394   -1.0694 O   0  0  0  0  0  0  0  0  0  0  0  0
   -2.0504   -0.0909   -0.7360 H   0  0  0  0  0  0  0  0  0  0  0  0
   -2.1674    1.4393    0.1640 H   0  0  0  0  0  0  0  0  0  0  0  0
   -2.8168   -0.1408    0.8609 H   0  0  0  0  0  0  0  0  0  0  0  0
   -0.8502   -0.3905    1.9872 H   0  0  0  0  0  0  0  0  0  0  0  0
   -0.1554    0.9808    1.1039 H   0  0  0  0  0  0  0  0  0  0  0  0
   -0.4908   -1.7947   -0.1756 H   0  0  0  0  0  0  0  0  0  0  0  0
  1  2  1  0
  2  3  1  0
  3  4  1  0
  4  5  1  0
  5  6  2  0
  5  7  1  0
  7  8  2  0
  7  9  1  0
  9  3  1  0
  1 10  1  0
  1 11  1  0
  1 12  1  0
  2 13  1  0
  2 14  1  0
  3 15  1  0
M  END
