
     RDKit          3D

 21 22  0  0  0  0  0  0  0  0999 V2000
    2.6709    0.1639    0.4732 C   0  0  0  0  0  0  0  0  0  0  0  0
    1.8213   -0.8654   -0.2303 C   0  0  0  0  0  0  0  0  0  0  0  0
    0.4276   -0.3950   -0.2867 C   0  0  0  0  0  0  0  0  0  0  0  0
    0.0929    0.7767    0.2380 C   0  0  0  0  0  0  0  0  0  0  0  0
   -1.3048    1.3266    0.2211 C   0  0  0  0  0  0  0  0  0  0  0  0
   -2.3410    0.2934   -0.1740 C   0  0  0  0  0  0  0  0  0  0  0  0
   -1.7674   -1.0047    0.1776 C   0  0  0  0  0  0  0  0  0  0  0  0
   -1.4559   -2.0921   -0.4800 O   0  0  0  0  0  0  0  0  0  0  0  0
   -0.6561   -1.1472   -0.8979 C   0  0  0  0  0  0  0  0  0  0  0  0
    2.3314    0.3538    1.4932 H   0  0  0  0  0  0  0  0  0  0  0  0
    2.6151    1.1090   -0.1196 H   0  0  0  0  0  0  0  0  0  0  0  0
    3.7405   -0.1540    0.5352 H   0  0  0  0  0  0  0  0  0  0  0  0
    2.1593   -1.0088   -1.2859 H   0  0  0  0  0  0  0  0  0  0  0  0
    1.9021   -1.8311    0.3413 H   0  0  0  0  0  0  0  0  0  0  0  0
    0.8060    1.4487    0.7309 H   0  0  0  0  0  0  0  0  0  0  0  0
   -1.5263    1.5803    1.2924 H   0  0  0  0  0  0  0  0  0  0  0  0
   -1.3632    2.2441   -0.3919 H   0  0  0  0  0  0  0  0  0  0  0  0
   -2.5256    0.4394   -1.2776 H   0  0  0  0  0  0  0  0  0  0  0  0
   -3.2955    0.5580    0.3146 H   0  0  0  0  0  0  0  0  0  0  0  0
   -1.4280   -1.0341    1.2572 H   0  0  0  0  0  0  0  0  0  0  0  0
   -0.9035   -0.7615   -1.9308 H   0  0  0  0  0  0  0  0  0  0  0  0
  1  2  1  0
  2  3  1  0
  3  4  2  0
  4  5  1  0
  5  6  1  0
  6  7  1  0
  7  8  1  0
  8  9  1  0
  9  3  1  0
  9  7  1  0
  1 10  1  0
  1 11  1  0
  1 12  1  0
  2 13  1  0
  2 14  1  0
  4 15  1  0
  5 16  1  0
  5 17  1  0
  6 18  1  0
  6 19  1  0
  7 20  1  0
  9 21  1  0
M  END
