
     RDKit          3D

 21 22  0  0  0  0  0  0  0  0999 V2000
    2.4381   -0.8386    0.2437 C   0  0  0  0  0  0  0  0  0  0  0  0
    0.9605   -0.7496    0.5772 C   0  0  0  0  0  0  0  0  0  0  0  0
    0.2850    0.1984   -0.4177 C   0  0  0  0  0  0  0  0  0  0  0  0
   -1.1726    0.4126   -0.2502 C   0  0  0  0  0  0  0  0  0  0  0  0
   -1.6111    1.7077   -0.5891 O   0  0  0  0  0  0  0  0  0  0  0  0
   -2.1667   -0.6762   -0.3686 C   0  0  0  0  0  0  0  0  0  0  0  0
   -1.8004   -0.2224    0.9822 C   0  0  0  0  0  0  0  0  0  0  0  0
    1.0993    1.4081   -0.8225 C   0  0  0  0  0  0  0  0  0  0  0  0
    0.8931    0.3493   -1.6601 O   0  0  0  0  0  0  0  0  0  0  0  0
    2.9981   -0.3498    1.0699 H   0  0  0  0  0  0  0  0  0  0  0  0
    2.7690   -1.8835    0.2128 H   0  0  0  0  0  0  0  0  0  0  0  0
    2.6764   -0.3247   -0.7138 H   0  0  0  0  0  0  0  0  0  0  0  0
    0.8046   -0.4187    1.6257 H   0  0  0  0  0  0  0  0  0  0  0  0
    0.5384   -1.7549    0.4850 H   0  0  0  0  0  0  0  0  0  0  0  0
   -2.6010    1.6811   -0.7473 H   0  0  0  0  0  0  0  0  0  0  0  0
   -3.1623   -0.3900   -0.7645 H   0  0  0  0  0  0  0  0  0  0  0  0
   -1.8672   -1.6968   -0.6935 H   0  0  0  0  0  0  0  0  0  0  0  0
   -1.1867   -0.8344    1.6612 H   0  0  0  0  0  0  0  0  0  0  0  0
   -2.4672    0.4797    1.5570 H   0  0  0  0  0  0  0  0  0  0  0  0
    2.0396    1.5639   -0.2776 H   0  0  0  0  0  0  0  0  0  0  0  0
    0.5333    2.3387   -1.1098 H   0  0  0  0  0  0  0  0  0  0  0  0
  1  2  1  0
  2  3  1  0
  3  4  1  0
  4  5  1  0
  4  6  1  0
  6  7  1  0
  3  8  1  0
  8  9  1  0
  9  3  1  0
  7  4  1  0
  1 10  1  0
  1 11  1  0
  1 12  1  0
  2 13  1  0
  2 14  1  0
  5 15  1  0
  6 16  1  0
  6 17  1  0
  7 18  1  0
  7 19  1  0
  8 20  1  0
  8 21  1  0
M  END
