
     RDKit          3D

 17 18  0  0  0  0  0  0  0  0999 V2000
   -2.0002   -0.2903    0.2698 C   0  0  0  0  0  0  0  0  0  0  0  0
   -0.7082    0.2939    0.7761 C   0  0  0  0  0  0  0  0  0  0  0  0
    0.2957    0.4580   -0.3503 C   0  0  0  0  0  0  0  0  0  0  0  0
   -0.0950    1.2743   -1.3737 O   0  0  0  0  0  0  0  0  0  0  0  0
    1.6428    0.6955    0.2200 C   0  0  0  0  0  0  0  0  0  0  0  0
    2.2168    1.6358    0.6967 O   0  0  0  0  0  0  0  0  0  0  0  0
    1.9775   -0.7105   -0.0463 C   0  0  0  0  0  0  0  0  0  0  0  0
    1.0836   -1.7197    0.2879 O   0  0  0  0  0  0  0  0  0  0  0  0
    0.8437   -0.9034   -0.7845 C   0  0  0  0  0  0  0  0  0  0  0  0
   -2.3246    0.1957   -0.6548 H   0  0  0  0  0  0  0  0  0  0  0  0
   -1.8677   -1.3672    0.0868 H   0  0  0  0  0  0  0  0  0  0  0  0
   -2.7787   -0.1349    1.0540 H   0  0  0  0  0  0  0  0  0  0  0  0
   -0.2982   -0.3254    1.5994 H   0  0  0  0  0  0  0  0  0  0  0  0
   -0.8691    1.3080    1.2273 H   0  0  0  0  0  0  0  0  0  0  0  0
   -0.8057    1.9025   -1.0710 H   0  0  0  0  0  0  0  0  0  0  0  0
    3.0155   -1.0495   -0.1492 H   0  0  0  0  0  0  0  0  0  0  0  0
    0.6719   -1.2630   -1.7884 H   0  0  0  0  0  0  0  0  0  0  0  0
  1  2  1  0
  2  3  1  0
  3  4  1  0
  3  5  1  0
  5  6  2  0
  5  7  1  0
  7  8  1  0
  8  9  1  0
  9  3  1  0
  9  7  1  0
  1 10  1  0
  1 11  1  0
  1 12  1  0
  2 13  1  0
  2 14  1  0
  4 15  1  0
  7 16  1  0
  9 17  1  0
M  END
