
     RDKit          3D

 19 19  0  0  0  0  0  0  0  0999 V2000
   -2.5638    0.0739   -0.0051 C   0  0  0  0  0  0  0  0  0  0  0  0
   -1.4144   -0.6146    0.6501 C   0  0  0  0  0  0  0  0  0  0  0  0
   -0.1295   -0.5303   -0.1578 C   0  0  0  0  0  0  0  0  0  0  0  0
    0.2996    0.8704   -0.3778 C   0  0  0  0  0  0  0  0  0  0  0  0
    1.7396    1.1085   -0.2048 C   0  0  0  0  0  0  0  0  0  0  0  0
    2.6185    0.2495    0.2354 C   0  0  0  0  0  0  0  0  0  0  0  0
    2.1530   -1.0854    0.5984 C   0  0  0  0  0  0  0  0  0  0  0  0
    2.9724   -1.9444    1.0282 O   0  0  0  0  0  0  0  0  0  0  0  0
    0.8108   -1.3527    0.4522 O   0  0  0  0  0  0  0  0  0  0  0  0
   -2.2865    0.8267   -0.7544 H   0  0  0  0  0  0  0  0  0  0  0  0
   -3.2094    0.5139    0.8081 H   0  0  0  0  0  0  0  0  0  0  0  0
   -3.2562   -0.6487   -0.5286 H   0  0  0  0  0  0  0  0  0  0  0  0
   -1.2610   -0.2181    1.6866 H   0  0  0  0  0  0  0  0  0  0  0  0
   -1.6802   -1.6869    0.7849 H   0  0  0  0  0  0  0  0  0  0  0  0
   -0.3803   -0.9932   -1.1561 H   0  0  0  0  0  0  0  0  0  0  0  0
    0.0447    1.2057   -1.4258 H   0  0  0  0  0  0  0  0  0  0  0  0
   -0.2412    1.5958    0.2789 H   0  0  0  0  0  0  0  0  0  0  0  0
    2.1017    2.1074   -0.4740 H   0  0  0  0  0  0  0  0  0  0  0  0
    3.6822    0.5224    0.3310 H   0  0  0  0  0  0  0  0  0  0  0  0
  1  2  1  0
  2  3  1  0
  3  4  1  0
  4  5  1  0
  5  6  2  0
  6  7  1  0
  7  8  2  0
  7  9  1  0
  9  3  1  0
  1 10  1  0
  1 11  1  0
  1 12  1  0
  2 13  1  0
  2 14  1  0
  3 15  1  0
  4 16  1  0
  4 17  1  0
  5 18  1  0
  6 19  1  0
M  END
