
     RDKit          3D

 20 21  0  0  0  0  0  0  0  0999 V2000
    2.2988    0.3640    0.5858 C   0  0  0  0  0  0  0  0  0  0  0  0
    0.7713    0.5279    0.7295 C   0  0  0  0  0  0  0  0  0  0  0  0
    0.1993    0.0646   -0.5630 C   0  0  0  0  0  0  0  0  0  0  0  0
    0.4739   -1.2776   -0.8979 C   0  0  0  0  0  0  0  0  0  0  0  0
   -0.8933   -1.0642   -0.6005 C   0  0  0  0  0  0  0  0  0  0  0  0
   -1.6842   -0.4192    0.4404 C   0  0  0  0  0  0  0  0  0  0  0  0
   -1.6562    1.0155   -0.1125 C   0  0  0  0  0  0  0  0  0  0  0  0
   -0.6330    1.0139   -1.0980 O   0  0  0  0  0  0  0  0  0  0  0  0
    2.4790   -0.5167   -0.0239 H   0  0  0  0  0  0  0  0  0  0  0  0
    2.6241    1.2483   -0.0368 H   0  0  0  0  0  0  0  0  0  0  0  0
    2.7854    0.3554    1.5774 H   0  0  0  0  0  0  0  0  0  0  0  0
    0.5437   -0.1341    1.6099 H   0  0  0  0  0  0  0  0  0  0  0  0
    0.6387    1.5751    0.9775 H   0  0  0  0  0  0  0  0  0  0  0  0
    1.0385   -1.9381   -0.2036 H   0  0  0  0  0  0  0  0  0  0  0  0
    0.8263   -1.4797   -1.9418 H   0  0  0  0  0  0  0  0  0  0  0  0
   -1.5319   -1.0867   -1.5505 H   0  0  0  0  0  0  0  0  0  0  0  0
   -2.7663   -0.7588    0.3982 H   0  0  0  0  0  0  0  0  0  0  0  0
   -1.4130   -0.4977    1.4756 H   0  0  0  0  0  0  0  0  0  0  0  0
   -2.6204    1.2538   -0.6062 H   0  0  0  0  0  0  0  0  0  0  0  0
   -1.4807    1.7545    0.6600 H   0  0  0  0  0  0  0  0  0  0  0  0
  1  2  1  0
  2  3  1  0
  3  4  1  0
  4  5  1  0
  5  6  1  0
  6  7  1  0
  7  8  1  0
  5  3  1  0
  8  3  1  0
  1  9  1  0
  1 10  1  0
  1 11  1  0
  2 12  1  0
  2 13  1  0
  4 14  1  0
  4 15  1  0
  5 16  1  0
  6 17  1  0
  6 18  1  0
  7 19  1  0
  7 20  1  0
M  END
