
     RDKit          3D

 23 24  0  0  0  0  0  0  0  0999 V2000
   -3.0548    1.2050    0.1020 C   0  0  0  0  0  0  0  0  0  0  0  0
   -2.3613   -0.1223   -0.0197 C   0  0  0  0  0  0  0  0  0  0  0  0
   -0.9230    0.0085   -0.4755 C   0  0  0  0  0  0  0  0  0  0  0  0
   -0.1856   -1.2533   -0.6155 C   0  0  0  0  0  0  0  0  0  0  0  0
    1.2574   -1.1044   -1.1053 C   0  0  0  0  0  0  0  0  0  0  0  0
    1.5503   -0.4720    0.2253 C   0  0  0  0  0  0  0  0  0  0  0  0
    2.4687    0.7258    0.1837 C   0  0  0  0  0  0  0  0  0  0  0  0
    3.6843    0.2601   -0.3710 O   0  0  0  0  0  0  0  0  0  0  0  0
    0.1248   -0.2206    0.5210 C   0  0  0  0  0  0  0  0  0  0  0  0
   -2.4184    1.9972    0.5115 H   0  0  0  0  0  0  0  0  0  0  0  0
   -3.4803    1.4491   -0.8910 H   0  0  0  0  0  0  0  0  0  0  0  0
   -3.9329    1.0617    0.7815 H   0  0  0  0  0  0  0  0  0  0  0  0
   -2.9565   -0.7877   -0.6711 H   0  0  0  0  0  0  0  0  0  0  0  0
   -2.3812   -0.6019    0.9960 H   0  0  0  0  0  0  0  0  0  0  0  0
   -0.8110    0.7582   -1.3011 H   0  0  0  0  0  0  0  0  0  0  0  0
   -0.5416   -2.2260   -0.2821 H   0  0  0  0  0  0  0  0  0  0  0  0
    1.7530   -2.0726   -1.3080 H   0  0  0  0  0  0  0  0  0  0  0  0
    1.3542   -0.3591   -1.9352 H   0  0  0  0  0  0  0  0  0  0  0  0
    2.0086   -1.2507    0.9007 H   0  0  0  0  0  0  0  0  0  0  0  0
    2.6920    1.0433    1.2237 H   0  0  0  0  0  0  0  0  0  0  0  0
    2.0170    1.5187   -0.4224 H   0  0  0  0  0  0  0  0  0  0  0  0
    4.3442    0.9742   -0.4620 H   0  0  0  0  0  0  0  0  0  0  0  0
   -0.2081   -0.5312    1.5379 H   0  0  0  0  0  0  0  0  0  0  0  0
  1  2  1  0
  2  3  1  0
  3  4  1  0
  4  5  1  0
  5  6  1  0
  6  7  1  0
  7  8  1  0
  6  9  1  0
  9  3  1  0
  9  4  1  0
  1 10  1  0
  1 11  1  0
  1 12  1  0
  2 13  1  0
  2 14  1  0
  3 15  1  0
  4 16  1  0
  5 17  1  0
  5 18  1  0
  6 19  1  0
  7 20  1  0
  7 21  1  0
  8 22  1  0
  9 23  1  0
M  END
