
     RDKit          3D

 20 20  0  0  0  0  0  0  0  0999 V2000
    2.0990    0.0777   -1.3371 C   0  0  0  0  0  0  0  0  0  0  0  0
    1.7770   -0.4257    0.0551 C   0  0  0  0  0  0  0  0  0  0  0  0
    0.5792    0.3209    0.5871 C   0  0  0  0  0  0  0  0  0  0  0  0
    0.2435   -0.1064    1.8659 O   0  0  0  0  0  0  0  0  0  0  0  0
   -0.5759   -1.0724    1.2849 C   0  0  0  0  0  0  0  0  0  0  0  0
   -0.7571   -0.1584    0.1073 C   0  0  0  0  0  0  0  0  0  0  0  0
   -1.7316    0.8191    0.2567 O   0  0  0  0  0  0  0  0  0  0  0  0
   -2.5091    0.9817   -0.8707 C   0  0  0  0  0  0  0  0  0  0  0  0
    2.7936    0.9318   -1.2735 H   0  0  0  0  0  0  0  0  0  0  0  0
    2.6362   -0.7287   -1.8950 H   0  0  0  0  0  0  0  0  0  0  0  0
    1.1432    0.3443   -1.8442 H   0  0  0  0  0  0  0  0  0  0  0  0
    1.6812   -1.5073    0.1048 H   0  0  0  0  0  0  0  0  0  0  0  0
    2.6481   -0.1466    0.7007 H   0  0  0  0  0  0  0  0  0  0  0  0
    0.6666    1.4081    0.4560 H   0  0  0  0  0  0  0  0  0  0  0  0
   -1.5258   -1.2640    1.8510 H   0  0  0  0  0  0  0  0  0  0  0  0
   -0.0868   -2.0088    0.9890 H   0  0  0  0  0  0  0  0  0  0  0  0
   -0.7750   -0.6354   -0.8893 H   0  0  0  0  0  0  0  0  0  0  0  0
   -1.9320    1.2775   -1.7707 H   0  0  0  0  0  0  0  0  0  0  0  0
   -3.1486    0.0876   -1.0901 H   0  0  0  0  0  0  0  0  0  0  0  0
   -3.2259    1.8051   -0.6583 H   0  0  0  0  0  0  0  0  0  0  0  0
  1  2  1  0
  2  3  1  0
  3  4  1  0
  4  5  1  0
  5  6  1  0
  6  7  1  0
  7  8  1  0
  6  3  1  0
  1  9  1  0
  1 10  1  0
  1 11  1  0
  2 12  1  0
  2 13  1  0
  3 14  1  0
  5 15  1  0
  5 16  1  0
  6 17  1  0
  8 18  1  0
  8 19  1  0
  8 20  1  0
M  END
