
     RDKit          3D

 21 22  0  0  0  0  0  0  0  0999 V2000
    2.6109    0.6637   -0.7133 C   0  0  0  0  0  0  0  0  0  0  0  0
    1.4452    1.0135    0.1452 C   0  0  0  0  0  0  0  0  0  0  0  0
    0.4706   -0.1203    0.3352 C   0  0  0  0  0  0  0  0  0  0  0  0
    0.9608   -1.2540    0.9173 O   0  0  0  0  0  0  0  0  0  0  0  0
   -0.4745   -0.2493   -0.7992 C   0  0  0  0  0  0  0  0  0  0  0  0
   -1.0069    0.9818   -0.3968 O   0  0  0  0  0  0  0  0  0  0  0  0
   -0.8808    0.3239    0.8132 C   0  0  0  0  0  0  0  0  0  0  0  0
   -1.4615   -0.8747    0.1308 C   0  0  0  0  0  0  0  0  0  0  0  0
   -2.8756   -0.6696   -0.3525 C   0  0  0  0  0  0  0  0  0  0  0  0
    2.3613   -0.0012   -1.5660 H   0  0  0  0  0  0  0  0  0  0  0  0
    3.0185    1.6175   -1.1400 H   0  0  0  0  0  0  0  0  0  0  0  0
    3.4392    0.1702   -0.1578 H   0  0  0  0  0  0  0  0  0  0  0  0
    0.9318    1.8939   -0.2889 H   0  0  0  0  0  0  0  0  0  0  0  0
    1.8194    1.3181    1.1427 H   0  0  0  0  0  0  0  0  0  0  0  0
    1.9351   -1.3425    0.9107 H   0  0  0  0  0  0  0  0  0  0  0  0
   -0.2809   -0.5133   -1.7517 H   0  0  0  0  0  0  0  0  0  0  0  0
   -1.1113    0.6771    1.7274 H   0  0  0  0  0  0  0  0  0  0  0  0
   -1.2163   -1.8560    0.5401 H   0  0  0  0  0  0  0  0  0  0  0  0
   -3.6250   -1.1115    0.3484 H   0  0  0  0  0  0  0  0  0  0  0  0
   -3.0120   -1.0896   -1.3904 H   0  0  0  0  0  0  0  0  0  0  0  0
   -3.0479    0.4222   -0.4364 H   0  0  0  0  0  0  0  0  0  0  0  0
  1  2  1  0
  2  3  1  0
  3  4  1  0
  3  5  1  0
  5  6  1  0
  6  7  1  0
  7  8  1  0
  8  9  1  0
  7  3  1  0
  8  5  1  0
  1 10  1  0
  1 11  1  0
  1 12  1  0
  2 13  1  0
  2 14  1  0
  4 15  1  0
  5 16  1  0
  7 17  1  0
  8 18  1  0
  9 19  1  0
  9 20  1  0
  9 21  1  0
M  END
