
     RDKit          3D

 21 22  0  0  0  0  0  0  0  0999 V2000
    2.1172    1.3895   -0.0441 C   0  0  0  0  0  0  0  0  0  0  0  0
    1.9550    0.0357    0.5919 C   0  0  0  0  0  0  0  0  0  0  0  0
    0.9760   -0.7531   -0.2480 C   0  0  0  0  0  0  0  0  0  0  0  0
    0.7074   -2.0412    0.2004 O   0  0  0  0  0  0  0  0  0  0  0  0
   -0.6016   -1.8342   -0.2300 C   0  0  0  0  0  0  0  0  0  0  0  0
   -1.4318   -1.0510    0.7070 C   0  0  0  0  0  0  0  0  0  0  0  0
   -0.4627   -0.3057   -0.0785 C   0  0  0  0  0  0  0  0  0  0  0  0
   -0.8785    0.5255   -1.0752 O   0  0  0  0  0  0  0  0  0  0  0  0
   -2.1708    0.9665   -0.9858 C   0  0  0  0  0  0  0  0  0  0  0  0
    1.1039    1.7705   -0.3310 H   0  0  0  0  0  0  0  0  0  0  0  0
    2.6540    1.2386   -1.0138 H   0  0  0  0  0  0  0  0  0  0  0  0
    2.5929    2.1357    0.5929 H   0  0  0  0  0  0  0  0  0  0  0  0
    1.5873    0.1253    1.6352 H   0  0  0  0  0  0  0  0  0  0  0  0
    2.9353   -0.4624    0.6491 H   0  0  0  0  0  0  0  0  0  0  0  0
    1.2818   -0.8002   -1.3116 H   0  0  0  0  0  0  0  0  0  0  0  0
   -0.9139   -2.1246   -1.2307 H   0  0  0  0  0  0  0  0  0  0  0  0
   -1.2360   -1.2982    1.7955 H   0  0  0  0  0  0  0  0  0  0  0  0
   -2.5018   -0.9898    0.5110 H   0  0  0  0  0  0  0  0  0  0  0  0
   -2.9516    0.1989   -1.0113 H   0  0  0  0  0  0  0  0  0  0  0  0
   -2.3982    1.7387   -1.7759 H   0  0  0  0  0  0  0  0  0  0  0  0
   -2.3635    1.5356   -0.0251 H   0  0  0  0  0  0  0  0  0  0  0  0
  1  2  1  0
  2  3  1  0
  3  4  1  0
  4  5  1  0
  5  6  1  0
  6  7  1  0
  7  8  1  0
  8  9  1  0
  7  3  1  0
  7  5  1  0
  1 10  1  0
  1 11  1  0
  1 12  1  0
  2 13  1  0
  2 14  1  0
  3 15  1  0
  5 16  1  0
  6 17  1  0
  6 18  1  0
  9 19  1  0
  9 20  1  0
  9 21  1  0
M  END
