
     RDKit          3D

 20 20  0  0  0  0  0  0  0  0999 V2000
    2.5677   -0.0523    0.4066 C   0  0  0  0  0  0  0  0  0  0  0  0
    1.4384    0.5641   -0.3916 C   0  0  0  0  0  0  0  0  0  0  0  0
    0.2190   -0.3076   -0.2117 C   0  0  0  0  0  0  0  0  0  0  0  0
   -0.1169   -0.3668    1.1110 O   0  0  0  0  0  0  0  0  0  0  0  0
   -1.5106   -0.3499    1.2066 C   0  0  0  0  0  0  0  0  0  0  0  0
   -1.8419    0.7272    0.1617 C   0  0  0  0  0  0  0  0  0  0  0  0
   -0.9716    0.2075   -0.9826 C   0  0  0  0  0  0  0  0  0  0  0  0
   -1.6758   -0.8870   -1.5085 O   0  0  0  0  0  0  0  0  0  0  0  0
    2.5630    0.3622    1.4390 H   0  0  0  0  0  0  0  0  0  0  0  0
    3.5325    0.1436   -0.1126 H   0  0  0  0  0  0  0  0  0  0  0  0
    2.3683   -1.1439    0.5229 H   0  0  0  0  0  0  0  0  0  0  0  0
    1.2864    1.6009   -0.0929 H   0  0  0  0  0  0  0  0  0  0  0  0
    1.7589    0.5388   -1.4703 H   0  0  0  0  0  0  0  0  0  0  0  0
    0.4730   -1.3268   -0.5650 H   0  0  0  0  0  0  0  0  0  0  0  0
   -1.8652   -0.0575    2.1882 H   0  0  0  0  0  0  0  0  0  0  0  0
   -1.8823   -1.3019    0.8217 H   0  0  0  0  0  0  0  0  0  0  0  0
   -2.9027    0.7329   -0.0843 H   0  0  0  0  0  0  0  0  0  0  0  0
   -1.4505    1.6890    0.5535 H   0  0  0  0  0  0  0  0  0  0  0  0
   -0.7357    0.9654   -1.7192 H   0  0  0  0  0  0  0  0  0  0  0  0
   -1.2542   -1.7379   -1.2727 H   0  0  0  0  0  0  0  0  0  0  0  0
  1  2  1  0
  2  3  1  0
  3  4  1  0
  4  5  1  0
  5  6  1  0
  6  7  1  0
  7  8  1  0
  7  3  1  0
  1  9  1  0
  1 10  1  0
  1 11  1  0
  2 12  1  0
  2 13  1  0
  3 14  1  0
  5 15  1  0
  5 16  1  0
  6 17  1  0
  6 18  1  0
  7 19  1  0
  8 20  1  0
M  END
