
     RDKit          3D

 23 23  0  0  0  0  0  0  0  0999 V2000
   -2.4047    1.0185   -0.0025 C   0  0  0  0  0  0  0  0  0  0  0  0
   -1.7177   -0.2134   -0.4951 C   0  0  0  0  0  0  0  0  0  0  0  0
   -0.4039   -0.4752    0.1724 C   0  0  0  0  0  0  0  0  0  0  0  0
   -0.4678   -0.6450    1.5252 O   0  0  0  0  0  0  0  0  0  0  0  0
    0.2581   -1.7002   -0.4746 C   0  0  0  0  0  0  0  0  0  0  0  0
    1.5873   -0.9890   -0.1854 C   0  0  0  0  0  0  0  0  0  0  0  0
    0.7712    0.3049   -0.3199 C   0  0  0  0  0  0  0  0  0  0  0  0
    1.3379    1.3388    0.5983 C   0  0  0  0  0  0  0  0  0  0  0  0
    2.4233    1.9369   -0.0717 O   0  0  0  0  0  0  0  0  0  0  0  0
   -2.7608    0.8620    1.0412 H   0  0  0  0  0  0  0  0  0  0  0  0
   -3.3019    1.1993   -0.6174 H   0  0  0  0  0  0  0  0  0  0  0  0
   -1.6876    1.8547   -0.0241 H   0  0  0  0  0  0  0  0  0  0  0  0
   -2.3894   -1.0860   -0.2504 H   0  0  0  0  0  0  0  0  0  0  0  0
   -1.6157   -0.2228   -1.5957 H   0  0  0  0  0  0  0  0  0  0  0  0
   -0.0786   -1.4985    1.8320 H   0  0  0  0  0  0  0  0  0  0  0  0
    0.0650   -1.6697   -1.5589 H   0  0  0  0  0  0  0  0  0  0  0  0
    0.1086   -2.6365    0.0522 H   0  0  0  0  0  0  0  0  0  0  0  0
    1.8600   -1.1802    0.8615 H   0  0  0  0  0  0  0  0  0  0  0  0
    2.3370   -1.1448   -0.9556 H   0  0  0  0  0  0  0  0  0  0  0  0
    0.7138    0.6516   -1.3530 H   0  0  0  0  0  0  0  0  0  0  0  0
    0.6082    2.1505    0.8213 H   0  0  0  0  0  0  0  0  0  0  0  0
    1.7758    0.9086    1.5338 H   0  0  0  0  0  0  0  0  0  0  0  0
    2.9818    1.2354   -0.5335 H   0  0  0  0  0  0  0  0  0  0  0  0
  1  2  1  0
  2  3  1  0
  3  4  1  0
  3  5  1  0
  5  6  1  0
  6  7  1  0
  7  8  1  0
  8  9  1  0
  7  3  1  0
  1 10  1  0
  1 11  1  0
  1 12  1  0
  2 13  1  0
  2 14  1  0
  4 15  1  0
  5 16  1  0
  5 17  1  0
  6 18  1  0
  6 19  1  0
  7 20  1  0
  8 21  1  0
  8 22  1  0
  9 23  1  0
M  END
