
     RDKit          3D

 19 20  0  0  0  0  0  0  0  0999 V2000
    2.7705   -0.2952   -0.4125 C   0  0  0  0  0  0  0  0  0  0  0  0
    1.6027    0.5653   -0.0524 C   0  0  0  0  0  0  0  0  0  0  0  0
    0.3669    0.0705   -0.8041 C   0  0  0  0  0  0  0  0  0  0  0  0
   -0.8766    0.6881   -0.6609 C   0  0  0  0  0  0  0  0  0  0  0  0
   -2.2687    0.4820   -0.8640 C   0  0  0  0  0  0  0  0  0  0  0  0
   -2.7418   -0.2792    0.1142 C   0  0  0  0  0  0  0  0  0  0  0  0
   -1.5557   -0.5600    0.9487 C   0  0  0  0  0  0  0  0  0  0  0  0
   -1.5634   -0.6153    2.1819 O   0  0  0  0  0  0  0  0  0  0  0  0
   -0.5401   -0.7206   -0.0918 C   0  0  0  0  0  0  0  0  0  0  0  0
    3.1627    0.0843   -1.3973 H   0  0  0  0  0  0  0  0  0  0  0  0
    3.5848   -0.2133    0.3340 H   0  0  0  0  0  0  0  0  0  0  0  0
    2.5259   -1.3448   -0.5400 H   0  0  0  0  0  0  0  0  0  0  0  0
    1.4274    0.5506    1.0456 H   0  0  0  0  0  0  0  0  0  0  0  0
    1.7682    1.6098   -0.4023 H   0  0  0  0  0  0  0  0  0  0  0  0
    0.6702   -0.1852   -1.8631 H   0  0  0  0  0  0  0  0  0  0  0  0
   -0.7990    1.5489    0.1182 H   0  0  0  0  0  0  0  0  0  0  0  0
   -2.8962    0.8603   -1.6717 H   0  0  0  0  0  0  0  0  0  0  0  0
   -3.7896   -0.6126    0.2881 H   0  0  0  0  0  0  0  0  0  0  0  0
   -0.8481   -1.6333   -0.6970 H   0  0  0  0  0  0  0  0  0  0  0  0
  1  2  1  0
  2  3  1  0
  3  4  1  0
  4  5  1  0
  5  6  2  0
  6  7  1  0
  7  8  2  0
  7  9  1  0
  9  3  1  0
  9  4  1  0
  1 10  1  0
  1 11  1  0
  1 12  1  0
  2 13  1  0
  2 14  1  0
  3 15  1  0
  4 16  1  0
  5 17  1  0
  6 18  1  0
  9 19  1  0
M  END
