
     RDKit          3D

 22 23  0  0  0  0  0  0  0  0999 V2000
    2.3635    0.8601   -0.3371 C   0  0  0  0  0  0  0  0  0  0  0  0
    1.4999   -0.2906    0.1507 C   0  0  0  0  0  0  0  0  0  0  0  0
    0.3138   -0.4707   -0.7145 C   0  0  0  0  0  0  0  0  0  0  0  0
   -0.5937   -1.6178   -0.2685 C   0  0  0  0  0  0  0  0  0  0  0  0
   -1.9372   -0.9239    0.0780 C   0  0  0  0  0  0  0  0  0  0  0  0
   -1.3593    0.3728    0.5346 C   0  0  0  0  0  0  0  0  0  0  0  0
   -1.1543    1.6345   -0.0318 C   0  0  0  0  0  0  0  0  0  0  0  0
   -0.6447    0.6157   -0.8598 C   0  0  0  0  0  0  0  0  0  0  0  0
    2.8664    0.6174   -1.2951 H   0  0  0  0  0  0  0  0  0  0  0  0
    3.1034    1.1162    0.4477 H   0  0  0  0  0  0  0  0  0  0  0  0
    1.7443    1.7672   -0.4905 H   0  0  0  0  0  0  0  0  0  0  0  0
    2.1522   -1.2056    0.0144 H   0  0  0  0  0  0  0  0  0  0  0  0
    1.3383   -0.1327    1.2153 H   0  0  0  0  0  0  0  0  0  0  0  0
    0.7135   -0.8074   -1.7196 H   0  0  0  0  0  0  0  0  0  0  0  0
   -0.2101   -2.1184    0.6313 H   0  0  0  0  0  0  0  0  0  0  0  0
   -0.8269   -2.3169   -1.0738 H   0  0  0  0  0  0  0  0  0  0  0  0
   -2.5108   -0.7667   -0.8340 H   0  0  0  0  0  0  0  0  0  0  0  0
   -2.4527   -1.4455    0.8827 H   0  0  0  0  0  0  0  0  0  0  0  0
   -0.6580    0.1185    1.3915 H   0  0  0  0  0  0  0  0  0  0  0  0
   -2.0421    2.2411   -0.3452 H   0  0  0  0  0  0  0  0  0  0  0  0
   -0.4037    2.3449    0.4266 H   0  0  0  0  0  0  0  0  0  0  0  0
   -1.3020    0.4079   -1.7683 H   0  0  0  0  0  0  0  0  0  0  0  0
  1  2  1  0
  2  3  1  0
  3  4  1  0
  4  5  1  0
  5  6  1  0
  6  7  1  0
  7  8  1  0
  8  3  1  0
  8  6  1  0
  1  9  1  0
  1 10  1  0
  1 11  1  0
  2 12  1  0
  2 13  1  0
  3 14  1  0
  4 15  1  0
  4 16  1  0
  5 17  1  0
  5 18  1  0
  6 19  1  0
  7 20  1  0
  7 21  1  0
  8 22  1  0
M  END
