
     RDKit          3D

 23 24  0  0  0  0  0  0  0  0999 V2000
   -1.9604   -1.1900   -0.3936 C   0  0  0  0  0  0  0  0  0  0  0  0
   -1.7227   -0.2350    0.7598 C   0  0  0  0  0  0  0  0  0  0  0  0
   -0.3404    0.3468    0.5299 C   0  0  0  0  0  0  0  0  0  0  0  0
    0.7601   -0.6720    0.4991 C   0  0  0  0  0  0  0  0  0  0  0  0
    2.1343   -0.0532    0.2651 C   0  0  0  0  0  0  0  0  0  0  0  0
    1.5200   -0.9958   -0.7030 C   0  0  0  0  0  0  0  0  0  0  0  0
    1.1026   -0.5472   -1.9552 O   0  0  0  0  0  0  0  0  0  0  0  0
   -0.3396    1.5077   -0.4017 C   0  0  0  0  0  0  0  0  0  0  0  0
   -0.0484    1.7131    1.0540 C   0  0  0  0  0  0  0  0  0  0  0  0
   -2.2321   -0.5549   -1.2681 H   0  0  0  0  0  0  0  0  0  0  0  0
   -1.0298   -1.7269   -0.6815 H   0  0  0  0  0  0  0  0  0  0  0  0
   -2.7188   -1.9568   -0.1669 H   0  0  0  0  0  0  0  0  0  0  0  0
   -2.4525    0.5977    0.7406 H   0  0  0  0  0  0  0  0  0  0  0  0
   -1.7822   -0.7785    1.7352 H   0  0  0  0  0  0  0  0  0  0  0  0
    0.6926   -1.4641    1.2735 H   0  0  0  0  0  0  0  0  0  0  0  0
    2.8971   -0.3555    0.9755 H   0  0  0  0  0  0  0  0  0  0  0  0
    2.1998    0.9960   -0.0669 H   0  0  0  0  0  0  0  0  0  0  0  0
    2.0204   -1.9880   -0.7588 H   0  0  0  0  0  0  0  0  0  0  0  0
    1.8722   -0.3052   -2.5349 H   0  0  0  0  0  0  0  0  0  0  0  0
   -1.2858    1.9520   -0.7639 H   0  0  0  0  0  0  0  0  0  0  0  0
    0.4824    1.5462   -1.1235 H   0  0  0  0  0  0  0  0  0  0  0  0
   -0.7715    2.1985    1.7099 H   0  0  0  0  0  0  0  0  0  0  0  0
    1.0029    1.9650    1.2755 H   0  0  0  0  0  0  0  0  0  0  0  0
  1  2  1  0
  2  3  1  0
  3  4  1  0
  4  5  1  0
  5  6  1  0
  6  7  1  0
  3  8  1  0
  8  9  1  0
  9  3  1  0
  6  4  1  0
  1 10  1  0
  1 11  1  0
  1 12  1  0
  2 13  1  0
  2 14  1  0
  4 15  1  0
  5 16  1  0
  5 17  1  0
  6 18  1  0
  7 19  1  0
  8 20  1  0
  8 21  1  0
  9 22  1  0
  9 23  1  0
M  END
