
     RDKit          3D

 23 23  0  0  0  0  0  0  0  0999 V2000
    2.6378   -0.2055    0.3807 C   0  0  0  0  0  0  0  0  0  0  0  0
    1.5553    0.7520    0.0271 C   0  0  0  0  0  0  0  0  0  0  0  0
    0.1717    0.2712    0.2768 C   0  0  0  0  0  0  0  0  0  0  0  0
   -0.2944   -0.9503   -0.4209 C   0  0  0  0  0  0  0  0  0  0  0  0
   -1.0184   -1.9607    0.4805 C   0  0  0  0  0  0  0  0  0  0  0  0
   -1.3377   -0.1130   -1.1463 C   0  0  0  0  0  0  0  0  0  0  0  0
   -0.8227    1.1360   -0.4969 C   0  0  0  0  0  0  0  0  0  0  0  0
   -1.7446    1.8344    0.4075 C   0  0  0  0  0  0  0  0  0  0  0  0
   -1.5750    3.0136    0.6493 O   0  0  0  0  0  0  0  0  0  0  0  0
    2.4887   -1.2242    0.0216 H   0  0  0  0  0  0  0  0  0  0  0  0
    2.8066   -0.1608    1.4873 H   0  0  0  0  0  0  0  0  0  0  0  0
    3.5865    0.1957   -0.0849 H   0  0  0  0  0  0  0  0  0  0  0  0
    1.6503    1.0250   -1.0403 H   0  0  0  0  0  0  0  0  0  0  0  0
    1.7116    1.6829    0.6039 H   0  0  0  0  0  0  0  0  0  0  0  0
   -0.0608    0.2277    1.3661 H   0  0  0  0  0  0  0  0  0  0  0  0
    0.4068   -1.4862   -1.0675 H   0  0  0  0  0  0  0  0  0  0  0  0
   -0.5399   -2.9457    0.4478 H   0  0  0  0  0  0  0  0  0  0  0  0
   -2.0820   -2.0868    0.1540 H   0  0  0  0  0  0  0  0  0  0  0  0
   -1.0709   -1.5694    1.5222 H   0  0  0  0  0  0  0  0  0  0  0  0
   -1.1548   -0.1862   -2.2403 H   0  0  0  0  0  0  0  0  0  0  0  0
   -2.3831   -0.3791   -0.9381 H   0  0  0  0  0  0  0  0  0  0  0  0
   -0.3479    1.7896   -1.2670 H   0  0  0  0  0  0  0  0  0  0  0  0
   -2.5830    1.3398    0.8775 H   0  0  0  0  0  0  0  0  0  0  0  0
  1  2  1  0
  2  3  1  0
  3  4  1  0
  4  5  1  0
  4  6  1  0
  6  7  1  0
  7  8  1  0
  8  9  2  0
  7  3  1  0
  1 10  1  0
  1 11  1  0
  1 12  1  0
  2 13  1  0
  2 14  1  0
  3 15  1  0
  4 16  1  0
  5 17  1  0
  5 18  1  0
  5 19  1  0
  6 20  1  0
  6 21  1  0
  7 22  1  0
  8 23  1  0
M  END
