
     RDKit          3D

 20 20  0  0  0  0  0  0  0  0999 V2000
    2.0761    0.9086    0.3346 C   0  0  0  0  0  0  0  0  0  0  0  0
    1.5833   -0.4235   -0.0868 C   0  0  0  0  0  0  0  0  0  0  0  0
    0.1463   -0.6279   -0.1805 C   0  0  0  0  0  0  0  0  0  0  0  0
   -0.8455    0.2018    0.0592 C   0  0  0  0  0  0  0  0  0  0  0  0
   -0.8316    1.6164    0.5027 C   0  0  0  0  0  0  0  0  0  0  0  0
   -2.1665   -0.5209   -0.1903 C   0  0  0  0  0  0  0  0  0  0  0  0
   -1.8050   -1.8608   -0.0195 O   0  0  0  0  0  0  0  0  0  0  0  0
   -0.5442   -1.9239   -0.6057 C   0  0  0  0  0  0  0  0  0  0  0  0
    2.0491    1.0229    1.4573 H   0  0  0  0  0  0  0  0  0  0  0  0
    1.6575    1.7665   -0.2117 H   0  0  0  0  0  0  0  0  0  0  0  0
    3.2048    0.9916    0.1432 H   0  0  0  0  0  0  0  0  0  0  0  0
    2.0935   -1.2007    0.5547 H   0  0  0  0  0  0  0  0  0  0  0  0
    2.0186   -0.6596   -1.1111 H   0  0  0  0  0  0  0  0  0  0  0  0
   -0.6248    2.2443   -0.3698 H   0  0  0  0  0  0  0  0  0  0  0  0
   -1.8396    1.9297    0.8813 H   0  0  0  0  0  0  0  0  0  0  0  0
   -0.1391    1.8083    1.3221 H   0  0  0  0  0  0  0  0  0  0  0  0
   -2.7951   -0.2617    0.6839 H   0  0  0  0  0  0  0  0  0  0  0  0
   -2.5839   -0.2834   -1.1622 H   0  0  0  0  0  0  0  0  0  0  0  0
   -0.6901   -1.9333   -1.7034 H   0  0  0  0  0  0  0  0  0  0  0  0
    0.0361   -2.7943   -0.2980 H   0  0  0  0  0  0  0  0  0  0  0  0
  1  2  1  0
  2  3  1  0
  3  4  2  0
  4  5  1  0
  4  6  1  0
  6  7  1  0
  7  8  1  0
  8  3  1  0
  1  9  1  0
  1 10  1  0
  1 11  1  0
  2 12  1  0
  2 13  1  0
  5 14  1  0
  5 15  1  0
  5 16  1  0
  6 17  1  0
  6 18  1  0
  8 19  1  0
  8 20  1  0
M  END
