
     RDKit          3D

 21 21  0  0  0  0  0  0  0  0999 V2000
    1.9339    0.1876    0.4916 C   0  0  0  0  0  0  0  0  0  0  0  0
    1.0639   -0.7210   -0.2853 C   0  0  0  0  0  0  0  0  0  0  0  0
   -0.3931   -0.4571   -0.2899 C   0  0  0  0  0  0  0  0  0  0  0  0
   -0.8723    0.8629   -0.8283 C   0  0  0  0  0  0  0  0  0  0  0  0
   -0.3660    2.0677   -0.1192 C   0  0  0  0  0  0  0  0  0  0  0  0
   -1.2075   -0.9899    0.8494 C   0  0  0  0  0  0  0  0  0  0  0  0
   -1.0700   -2.2515    0.0909 C   0  0  0  0  0  0  0  0  0  0  0  0
   -1.0114   -3.4669    0.3922 O   0  0  0  0  0  0  0  0  0  0  0  0
   -1.0374   -1.4912   -1.0639 O   0  0  0  0  0  0  0  0  0  0  0  0
    2.9682   -0.2725    0.5347 H   0  0  0  0  0  0  0  0  0  0  0  0
    1.6616    0.3012    1.5580 H   0  0  0  0  0  0  0  0  0  0  0  0
    2.1076    1.1771    0.0257 H   0  0  0  0  0  0  0  0  0  0  0  0
    1.4048   -0.6407   -1.3634 H   0  0  0  0  0  0  0  0  0  0  0  0
    1.3224   -1.7766   -0.0218 H   0  0  0  0  0  0  0  0  0  0  0  0
   -1.9938    0.8340   -0.7902 H   0  0  0  0  0  0  0  0  0  0  0  0
   -0.6536    0.9565   -1.9280 H   0  0  0  0  0  0  0  0  0  0  0  0
   -1.2275    2.7981   -0.0480 H   0  0  0  0  0  0  0  0  0  0  0  0
   -0.0216    1.8570    0.8940 H   0  0  0  0  0  0  0  0  0  0  0  0
    0.3759    2.6226   -0.7513 H   0  0  0  0  0  0  0  0  0  0  0  0
   -2.2335   -0.6086    0.8103 H   0  0  0  0  0  0  0  0  0  0  0  0
   -0.7508   -0.9886    1.8426 H   0  0  0  0  0  0  0  0  0  0  0  0
  1  2  1  0
  2  3  1  0
  3  4  1  0
  4  5  1  0
  3  6  1  0
  6  7  1  0
  7  8  2  0
  7  9  1  0
  9  3  1  0
  1 10  1  0
  1 11  1  0
  1 12  1  0
  2 13  1  0
  2 14  1  0
  4 15  1  0
  4 16  1  0
  5 17  1  0
  5 18  1  0
  5 19  1  0
  6 20  1  0
  6 21  1  0
M  END
