
     RDKit          3D

 21 22  0  0  0  0  0  0  0  0999 V2000
    2.5350    0.7088   -0.4262 C   0  0  0  0  0  0  0  0  0  0  0  0
    1.5594   -0.4592   -0.4951 C   0  0  0  0  0  0  0  0  0  0  0  0
    0.3846   -0.1272    0.3607 C   0  0  0  0  0  0  0  0  0  0  0  0
    0.5078    0.1190    1.7061 O   0  0  0  0  0  0  0  0  0  0  0  0
   -0.1098   -1.0523    1.3184 C   0  0  0  0  0  0  0  0  0  0  0  0
   -1.4813   -1.0295    0.7008 C   0  0  0  0  0  0  0  0  0  0  0  0
   -0.9857    0.0322   -0.2533 C   0  0  0  0  0  0  0  0  0  0  0  0
   -1.6732    1.3338    0.0013 C   0  0  0  0  0  0  0  0  0  0  0  0
   -0.9670   -0.3017   -1.5830 O   0  0  0  0  0  0  0  0  0  0  0  0
    2.9397    0.7112    0.6054 H   0  0  0  0  0  0  0  0  0  0  0  0
    3.3113    0.6406   -1.2072 H   0  0  0  0  0  0  0  0  0  0  0  0
    1.9070    1.6230   -0.6292 H   0  0  0  0  0  0  0  0  0  0  0  0
    1.2287   -0.6258   -1.5234 H   0  0  0  0  0  0  0  0  0  0  0  0
    2.0717   -1.3950   -0.1373 H   0  0  0  0  0  0  0  0  0  0  0  0
    0.3377   -1.9660    1.6959 H   0  0  0  0  0  0  0  0  0  0  0  0
   -2.2573   -0.7310    1.4032 H   0  0  0  0  0  0  0  0  0  0  0  0
   -1.6611   -1.9708    0.1233 H   0  0  0  0  0  0  0  0  0  0  0  0
   -1.4016    2.1280   -0.7002 H   0  0  0  0  0  0  0  0  0  0  0  0
   -1.5852    1.6623    1.0653 H   0  0  0  0  0  0  0  0  0  0  0  0
   -2.7782    1.1511   -0.1418 H   0  0  0  0  0  0  0  0  0  0  0  0
   -1.8826   -0.4516   -1.8839 H   0  0  0  0  0  0  0  0  0  0  0  0
  1  2  1  0
  2  3  1  0
  3  4  1  0
  4  5  1  0
  5  6  1  0
  6  7  1  0
  7  8  1  0
  7  9  1  0
  5  3  1  0
  7  3  1  0
  1 10  1  0
  1 11  1  0
  1 12  1  0
  2 13  1  0
  2 14  1  0
  5 15  1  0
  6 16  1  0
  6 17  1  0
  8 18  1  0
  8 19  1  0
  8 20  1  0
  9 21  1  0
M  END
