
     RDKit          3D

 23 24  0  0  0  0  0  0  0  0999 V2000
    2.4054   -0.0734    0.1974 C   0  0  0  0  0  0  0  0  0  0  0  0
    1.0809   -0.7101    0.6050 C   0  0  0  0  0  0  0  0  0  0  0  0
    0.0388   -0.1513   -0.3640 C   0  0  0  0  0  0  0  0  0  0  0  0
    0.4189   -0.5234   -1.7924 C   0  0  0  0  0  0  0  0  0  0  0  0
    0.0461    1.2975   -0.1648 C   0  0  0  0  0  0  0  0  0  0  0  0
   -1.0972    1.7290    0.2862 C   0  0  0  0  0  0  0  0  0  0  0  0
   -2.0533    0.6573    0.4638 C   0  0  0  0  0  0  0  0  0  0  0  0
   -1.8470   -0.4775    1.3885 C   0  0  0  0  0  0  0  0  0  0  0  0
   -1.3301   -0.6074   -0.0186 C   0  0  0  0  0  0  0  0  0  0  0  0
    2.6428    0.8111    0.8536 H   0  0  0  0  0  0  0  0  0  0  0  0
    3.1810   -0.8652    0.3729 H   0  0  0  0  0  0  0  0  0  0  0  0
    2.3721    0.2538   -0.8610 H   0  0  0  0  0  0  0  0  0  0  0  0
    1.1355   -1.7951    0.6025 H   0  0  0  0  0  0  0  0  0  0  0  0
    0.8346   -0.3301    1.5962 H   0  0  0  0  0  0  0  0  0  0  0  0
    0.9186    0.2967   -2.3094 H   0  0  0  0  0  0  0  0  0  0  0  0
   -0.5363   -0.7253   -2.3178 H   0  0  0  0  0  0  0  0  0  0  0  0
    0.9920   -1.4683   -1.7556 H   0  0  0  0  0  0  0  0  0  0  0  0
    0.9476    1.9487   -0.3825 H   0  0  0  0  0  0  0  0  0  0  0  0
   -1.3317    2.7801    0.5128 H   0  0  0  0  0  0  0  0  0  0  0  0
   -3.0798    0.8005    0.0584 H   0  0  0  0  0  0  0  0  0  0  0  0
   -2.7397   -1.1072    1.5998 H   0  0  0  0  0  0  0  0  0  0  0  0
   -1.0928   -0.5039    2.1691 H   0  0  0  0  0  0  0  0  0  0  0  0
   -1.9063   -1.2365   -0.7401 H   0  0  0  0  0  0  0  0  0  0  0  0
  1  2  1  0
  2  3  1  0
  3  4  1  0
  3  5  1  0
  5  6  2  0
  6  7  1  0
  7  8  1  0
  8  9  1  0
  9  3  1  0
  9  7  1  0
  1 10  1  0
  1 11  1  0
  1 12  1  0
  2 13  1  0
  2 14  1  0
  4 15  1  0
  4 16  1  0
  4 17  1  0
  5 18  1  0
  6 19  1  0
  7 20  1  0
  8 21  1  0
  8 22  1  0
  9 23  1  0
M  END
