
     RDKit          3D

 21 22  0  0  0  0  0  0  0  0999 V2000
   -2.2149   -0.9057    0.0587 C   0  0  0  0  0  0  0  0  0  0  0  0
   -1.1743   -0.0938    0.7754 C   0  0  0  0  0  0  0  0  0  0  0  0
   -0.1793    0.5005   -0.1913 C   0  0  0  0  0  0  0  0  0  0  0  0
   -0.8494    1.4122   -1.1948 C   0  0  0  0  0  0  0  0  0  0  0  0
    0.8316    1.1886    0.4256 O   0  0  0  0  0  0  0  0  0  0  0  0
    1.8200    0.2624    0.7526 C   0  0  0  0  0  0  0  0  0  0  0  0
    2.7158   -0.2861   -0.2812 C   0  0  0  0  0  0  0  0  0  0  0  0
    1.4045   -0.9511    0.0162 C   0  0  0  0  0  0  0  0  0  0  0  0
    0.3865   -0.5688   -0.8773 O   0  0  0  0  0  0  0  0  0  0  0  0
   -3.2417   -0.4915    0.1571 H   0  0  0  0  0  0  0  0  0  0  0  0
   -1.9381   -0.9546   -1.0283 H   0  0  0  0  0  0  0  0  0  0  0  0
   -2.2229   -1.9716    0.4269 H   0  0  0  0  0  0  0  0  0  0  0  0
   -0.6709   -0.7283    1.5235 H   0  0  0  0  0  0  0  0  0  0  0  0
   -1.6939    0.7530    1.2661 H   0  0  0  0  0  0  0  0  0  0  0  0
   -0.1008    1.6722   -1.9734 H   0  0  0  0  0  0  0  0  0  0  0  0
   -1.7758    0.9948   -1.6118 H   0  0  0  0  0  0  0  0  0  0  0  0
   -1.0464    2.3765   -0.6403 H   0  0  0  0  0  0  0  0  0  0  0  0
    2.1385    0.2586    1.7973 H   0  0  0  0  0  0  0  0  0  0  0  0
    2.8597    0.2587   -1.2268 H   0  0  0  0  0  0  0  0  0  0  0  0
    3.6103   -0.8212    0.0793 H   0  0  0  0  0  0  0  0  0  0  0  0
    1.3414   -1.9047    0.5337 H   0  0  0  0  0  0  0  0  0  0  0  0
  1  2  1  0
  2  3  1  0
  3  4  1  0
  3  5  1  0
  5  6  1  0
  6  7  1  0
  7  8  1  0
  8  9  1  0
  9  3  1  0
  8  6  1  0
  1 10  1  0
  1 11  1  0
  1 12  1  0
  2 13  1  0
  2 14  1  0
  4 15  1  0
  4 16  1  0
  4 17  1  0
  6 18  1  0
  7 19  1  0
  7 20  1  0
  8 21  1  0
M  END
