
     RDKit          3D

 21 22  0  0  0  0  0  0  0  0999 V2000
    2.6685    0.4762    0.4612 C   0  0  0  0  0  0  0  0  0  0  0  0
    1.3342    0.7614   -0.1811 C   0  0  0  0  0  0  0  0  0  0  0  0
    0.6354   -0.4354   -0.7038 C   0  0  0  0  0  0  0  0  0  0  0  0
    0.2285   -1.5858    0.1222 C   0  0  0  0  0  0  0  0  0  0  0  0
   -0.7893   -0.6018   -0.1428 C   0  0  0  0  0  0  0  0  0  0  0  0
   -1.8394   -0.6437   -1.1878 C   0  0  0  0  0  0  0  0  0  0  0  0
   -2.4617    0.6149   -1.0242 O   0  0  0  0  0  0  0  0  0  0  0  0
   -2.2720    0.9849    0.2790 C   0  0  0  0  0  0  0  0  0  0  0  0
   -1.2332    0.2705    0.8113 O   0  0  0  0  0  0  0  0  0  0  0  0
    2.8893    1.3395    1.1245 H   0  0  0  0  0  0  0  0  0  0  0  0
    2.7226   -0.4958    0.9619 H   0  0  0  0  0  0  0  0  0  0  0  0
    3.4634    0.5202   -0.3380 H   0  0  0  0  0  0  0  0  0  0  0  0
    0.7115    1.3633    0.5448 H   0  0  0  0  0  0  0  0  0  0  0  0
    1.5257    1.4569   -1.0252 H   0  0  0  0  0  0  0  0  0  0  0  0
    0.7825   -0.6583   -1.7851 H   0  0  0  0  0  0  0  0  0  0  0  0
    0.6138   -1.6260    1.1845 H   0  0  0  0  0  0  0  0  0  0  0  0
    0.2268   -2.6003   -0.3302 H   0  0  0  0  0  0  0  0  0  0  0  0
   -2.5561   -1.4695   -1.1141 H   0  0  0  0  0  0  0  0  0  0  0  0
   -1.4441   -0.6336   -2.2329 H   0  0  0  0  0  0  0  0  0  0  0  0
   -2.0189    2.0840    0.3313 H   0  0  0  0  0  0  0  0  0  0  0  0
   -3.1874    0.8787    0.9112 H   0  0  0  0  0  0  0  0  0  0  0  0
  1  2  1  0
  2  3  1  0
  3  4  1  0
  4  5  1  0
  5  6  1  0
  6  7  1  0
  7  8  1  0
  8  9  1  0
  5  3  1  0
  9  5  1  0
  1 10  1  0
  1 11  1  0
  1 12  1  0
  2 13  1  0
  2 14  1  0
  3 15  1  0
  4 16  1  0
  4 17  1  0
  6 18  1  0
  6 19  1  0
  8 20  1  0
  8 21  1  0
M  END
