
     RDKit          3D

 21 22  0  0  0  0  0  0  0  0999 V2000
   -2.3724   -0.8223    0.2468 C   0  0  0  0  0  0  0  0  0  0  0  0
   -1.1906    0.0008    0.7784 C   0  0  0  0  0  0  0  0  0  0  0  0
   -0.7794    0.8929   -0.3537 C   0  0  0  0  0  0  0  0  0  0  0  0
    0.3655    1.8146   -0.1090 C   0  0  0  0  0  0  0  0  0  0  0  0
    1.4361    0.9918    0.5489 C   0  0  0  0  0  0  0  0  0  0  0  0
    1.3501   -0.1343   -0.1912 C   0  0  0  0  0  0  0  0  0  0  0  0
    2.1144   -1.3993   -0.0244 C   0  0  0  0  0  0  0  0  0  0  0  0
    0.3068    0.2570   -1.1784 C   0  0  0  0  0  0  0  0  0  0  0  0
    0.7003    1.5852   -1.4674 O   0  0  0  0  0  0  0  0  0  0  0  0
   -2.8363   -1.4269    1.0419 H   0  0  0  0  0  0  0  0  0  0  0  0
   -1.9614   -1.4316   -0.5807 H   0  0  0  0  0  0  0  0  0  0  0  0
   -3.0954   -0.0456   -0.1400 H   0  0  0  0  0  0  0  0  0  0  0  0
   -1.4708    0.5251    1.6921 H   0  0  0  0  0  0  0  0  0  0  0  0
   -0.4024   -0.7440    1.0110 H   0  0  0  0  0  0  0  0  0  0  0  0
   -1.5742    1.3807   -0.9186 H   0  0  0  0  0  0  0  0  0  0  0  0
    0.2225    2.8139    0.2050 H   0  0  0  0  0  0  0  0  0  0  0  0
    2.0880    1.2296    1.3755 H   0  0  0  0  0  0  0  0  0  0  0  0
    1.8560   -2.0847   -0.8253 H   0  0  0  0  0  0  0  0  0  0  0  0
    3.2037   -1.1792   -0.1164 H   0  0  0  0  0  0  0  0  0  0  0  0
    1.9696   -1.8410    0.9890 H   0  0  0  0  0  0  0  0  0  0  0  0
    0.0697   -0.3829   -1.9835 H   0  0  0  0  0  0  0  0  0  0  0  0
  1  2  1  0
  2  3  1  0
  3  4  1  0
  4  5  1  0
  5  6  2  0
  6  7  1  0
  6  8  1  0
  8  9  1  0
  8  3  1  0
  9  4  1  0
  1 10  1  0
  1 11  1  0
  1 12  1  0
  2 13  1  0
  2 14  1  0
  3 15  1  0
  4 16  1  0
  5 17  1  0
  7 18  1  0
  7 19  1  0
  7 20  1  0
  8 21  1  0
M  END
