
     RDKit          3D

 25 25  0  0  0  0  0  0  0  0999 V2000
   -2.4128   -0.8376   -0.0259 C   0  0  0  0  0  0  0  0  0  0  0  0
   -1.2842   -0.7927    0.9909 C   0  0  0  0  0  0  0  0  0  0  0  0
   -0.1273   -0.0766    0.3465 C   0  0  0  0  0  0  0  0  0  0  0  0
   -0.5329    1.3270   -0.0441 C   0  0  0  0  0  0  0  0  0  0  0  0
    0.5991    2.0796   -0.6942 C   0  0  0  0  0  0  0  0  0  0  0  0
    0.9884   -0.0422    1.3298 C   0  0  0  0  0  0  0  0  0  0  0  0
    2.0921   -0.5295    0.7810 C   0  0  0  0  0  0  0  0  0  0  0  0
    1.8793   -0.9505   -0.6163 C   0  0  0  0  0  0  0  0  0  0  0  0
    0.3958   -0.8742   -0.7959 C   0  0  0  0  0  0  0  0  0  0  0  0
   -2.9362    0.1366   -0.0416 H   0  0  0  0  0  0  0  0  0  0  0  0
   -3.0726   -1.6881    0.2237 H   0  0  0  0  0  0  0  0  0  0  0  0
   -2.0004   -0.9890   -1.0540 H   0  0  0  0  0  0  0  0  0  0  0  0
   -1.6364   -0.1775    1.8293 H   0  0  0  0  0  0  0  0  0  0  0  0
   -0.9648   -1.8030    1.3017 H   0  0  0  0  0  0  0  0  0  0  0  0
   -0.8111    1.8920    0.8691 H   0  0  0  0  0  0  0  0  0  0  0  0
   -1.3877    1.3420   -0.7264 H   0  0  0  0  0  0  0  0  0  0  0  0
    1.5088    2.0791   -0.0233 H   0  0  0  0  0  0  0  0  0  0  0  0
    0.8771    1.6690   -1.6830 H   0  0  0  0  0  0  0  0  0  0  0  0
    0.2829    3.1307   -0.8533 H   0  0  0  0  0  0  0  0  0  0  0  0
    0.8459    0.3448    2.3466 H   0  0  0  0  0  0  0  0  0  0  0  0
    3.0416   -0.6088    1.3012 H   0  0  0  0  0  0  0  0  0  0  0  0
    2.2102   -2.0028   -0.7995 H   0  0  0  0  0  0  0  0  0  0  0  0
    2.3689   -0.2726   -1.3520 H   0  0  0  0  0  0  0  0  0  0  0  0
    0.1199   -0.4426   -1.7929 H   0  0  0  0  0  0  0  0  0  0  0  0
   -0.0436   -1.9128   -0.8173 H   0  0  0  0  0  0  0  0  0  0  0  0
  1  2  1  0
  2  3  1  0
  3  4  1  0
  4  5  1  0
  3  6  1  0
  6  7  2  0
  7  8  1  0
  8  9  1  0
  9  3  1  0
  1 10  1  0
  1 11  1  0
  1 12  1  0
  2 13  1  0
  2 14  1  0
  4 15  1  0
  4 16  1  0
  5 17  1  0
  5 18  1  0
  5 19  1  0
  6 20  1  0
  7 21  1  0
  8 22  1  0
  8 23  1  0
  9 24  1  0
  9 25  1  0
M  END
