
     RDKit          3D

 21 21  0  0  0  0  0  0  0  0999 V2000
   -1.4517    1.9199   -0.6616 C   0  0  0  0  0  0  0  0  0  0  0  0
   -1.4616    0.8401    0.3923 C   0  0  0  0  0  0  0  0  0  0  0  0
   -0.3934   -0.2054    0.1657 C   0  0  0  0  0  0  0  0  0  0  0  0
    1.0015    0.2803    0.1583 C   0  0  0  0  0  0  0  0  0  0  0  0
    1.2484    1.3682    0.6669 O   0  0  0  0  0  0  0  0  0  0  0  0
    2.1439   -0.4626   -0.4253 C   0  0  0  0  0  0  0  0  0  0  0  0
    3.3422    0.2244   -0.2825 O   0  0  0  0  0  0  0  0  0  0  0  0
   -0.7526   -1.5193   -0.3851 C   0  0  0  0  0  0  0  0  0  0  0  0
   -0.5881   -1.4331    1.0888 C   0  0  0  0  0  0  0  0  0  0  0  0
   -2.0878    1.6617   -1.5286 H   0  0  0  0  0  0  0  0  0  0  0  0
   -0.4544    2.1983   -1.0031 H   0  0  0  0  0  0  0  0  0  0  0  0
   -1.9144    2.8202   -0.1979 H   0  0  0  0  0  0  0  0  0  0  0  0
   -1.3090    1.3020    1.3830 H   0  0  0  0  0  0  0  0  0  0  0  0
   -2.4728    0.3807    0.3582 H   0  0  0  0  0  0  0  0  0  0  0  0
    2.2142   -1.5052   -0.0825 H   0  0  0  0  0  0  0  0  0  0  0  0
    1.9804   -0.5128   -1.5444 H   0  0  0  0  0  0  0  0  0  0  0  0
    3.9985   -0.2026    0.2801 H   0  0  0  0  0  0  0  0  0  0  0  0
   -1.7970   -1.6668   -0.7859 H   0  0  0  0  0  0  0  0  0  0  0  0
   -0.0209   -2.1569   -0.9009 H   0  0  0  0  0  0  0  0  0  0  0  0
    0.2837   -1.8372    1.6123 H   0  0  0  0  0  0  0  0  0  0  0  0
   -1.5092   -1.4938    1.6925 H   0  0  0  0  0  0  0  0  0  0  0  0
  1  2  1  0
  2  3  1  0
  3  4  1  0
  4  5  2  0
  4  6  1  0
  6  7  1  0
  3  8  1  0
  8  9  1  0
  9  3  1  0
  1 10  1  0
  1 11  1  0
  1 12  1  0
  2 13  1  0
  2 14  1  0
  6 15  1  0
  6 16  1  0
  7 17  1  0
  8 18  1  0
  8 19  1  0
  9 20  1  0
  9 21  1  0
M  END
