
     RDKit          3D

 19 20  0  0  0  0  0  0  0  0999 V2000
    2.4132   -0.1221   -0.6474 C   0  0  0  0  0  0  0  0  0  0  0  0
    1.1447   -0.8795   -0.2202 C   0  0  0  0  0  0  0  0  0  0  0  0
    0.1361    0.1470    0.1258 C   0  0  0  0  0  0  0  0  0  0  0  0
   -1.2098   -0.2533    0.5847 C   0  0  0  0  0  0  0  0  0  0  0  0
   -1.5080   -0.6171   -0.8395 C   0  0  0  0  0  0  0  0  0  0  0  0
   -0.7614    0.6465   -0.9749 C   0  0  0  0  0  0  0  0  0  0  0  0
   -1.6295    1.1446    0.1645 C   0  0  0  0  0  0  0  0  0  0  0  0
    2.1009    0.8416   -1.1045 H   0  0  0  0  0  0  0  0  0  0  0  0
    3.0449    0.1248    0.2258 H   0  0  0  0  0  0  0  0  0  0  0  0
    2.9630   -0.6871   -1.4256 H   0  0  0  0  0  0  0  0  0  0  0  0
    0.8794   -1.5242   -1.0632 H   0  0  0  0  0  0  0  0  0  0  0  0
    1.4285   -1.5151    0.6566 H   0  0  0  0  0  0  0  0  0  0  0  0
    0.5249    1.0463    0.6874 H   0  0  0  0  0  0  0  0  0  0  0  0
   -1.4979   -0.7228    1.4155 H   0  0  0  0  0  0  0  0  0  0  0  0
   -1.1225   -1.5458   -1.2420 H   0  0  0  0  0  0  0  0  0  0  0  0
   -2.6052   -0.4282   -1.0435 H   0  0  0  0  0  0  0  0  0  0  0  0
   -0.4967    1.1691   -1.7815 H   0  0  0  0  0  0  0  0  0  0  0  0
   -1.1176    1.8952    0.7697 H   0  0  0  0  0  0  0  0  0  0  0  0
   -2.6871    1.2799   -0.0612 H   0  0  0  0  0  0  0  0  0  0  0  0
  1  2  1  0
  2  3  1  0
  3  4  1  0
  4  5  1  0
  5  6  1  0
  6  7  1  0
  6  3  1  0
  7  4  1  0
  1  8  1  0
  1  9  1  0
  1 10  1  0
  2 11  1  0
  2 12  1  0
  3 13  1  0
  4 14  1  0
  5 15  1  0
  5 16  1  0
  6 17  1  0
  7 18  1  0
  7 19  1  0
M  END
