
     RDKit          3D

 22 23  0  0  0  0  0  0  0  0999 V2000
   -2.7616    0.7547    0.0674 C   0  0  0  0  0  0  0  0  0  0  0  0
   -1.8729   -0.1823    0.8213 C   0  0  0  0  0  0  0  0  0  0  0  0
   -0.7833   -0.7728   -0.0876 C   0  0  0  0  0  0  0  0  0  0  0  0
    0.1332    0.0766   -0.7282 C   0  0  0  0  0  0  0  0  0  0  0  0
    1.4289   -0.0880   -1.4085 C   0  0  0  0  0  0  0  0  0  0  0  0
    2.3947    0.1462   -0.2282 C   0  0  0  0  0  0  0  0  0  0  0  0
    1.5028    0.0158    1.0269 C   0  0  0  0  0  0  0  0  0  0  0  0
    0.4964   -0.9103    0.4588 C   0  0  0  0  0  0  0  0  0  0  0  0
   -2.3218    1.7692   -0.0402 H   0  0  0  0  0  0  0  0  0  0  0  0
   -3.7345    0.8691    0.5638 H   0  0  0  0  0  0  0  0  0  0  0  0
   -2.9535    0.3752   -0.9579 H   0  0  0  0  0  0  0  0  0  0  0  0
   -2.4461   -0.9682    1.3128 H   0  0  0  0  0  0  0  0  0  0  0  0
   -1.3682    0.4144    1.6258 H   0  0  0  0  0  0  0  0  0  0  0  0
   -1.2382   -1.6053   -0.6878 H   0  0  0  0  0  0  0  0  0  0  0  0
    0.0359    1.1686   -0.4267 H   0  0  0  0  0  0  0  0  0  0  0  0
    1.6269    0.7199   -2.1342 H   0  0  0  0  0  0  0  0  0  0  0  0
    1.6124   -1.0474   -1.8927 H   0  0  0  0  0  0  0  0  0  0  0  0
    3.1131   -0.6864   -0.2037 H   0  0  0  0  0  0  0  0  0  0  0  0
    2.8571    1.1387   -0.2840 H   0  0  0  0  0  0  0  0  0  0  0  0
    2.1093   -0.3850    1.8442 H   0  0  0  0  0  0  0  0  0  0  0  0
    1.1170    1.0464    1.2238 H   0  0  0  0  0  0  0  0  0  0  0  0
    1.0524   -1.8491    0.1346 H   0  0  0  0  0  0  0  0  0  0  0  0
  1  2  1  0
  2  3  1  0
  3  4  1  0
  4  5  1  0
  5  6  1  0
  6  7  1  0
  7  8  1  0
  8  3  1  0
  8  4  1  0
  1  9  1  0
  1 10  1  0
  1 11  1  0
  2 12  1  0
  2 13  1  0
  3 14  1  0
  4 15  1  0
  5 16  1  0
  5 17  1  0
  6 18  1  0
  6 19  1  0
  7 20  1  0
  7 21  1  0
  8 22  1  0
M  END
