
     RDKit          3D

 21 23  0  0  0  0  0  0  0  0999 V2000
    3.0974    0.2826   -0.0771 C   0  0  0  0  0  0  0  0  0  0  0  0
    2.0297   -0.6768   -0.5959 C   0  0  0  0  0  0  0  0  0  0  0  0
    0.7452    0.1186   -0.6969 C   0  0  0  0  0  0  0  0  0  0  0  0
    0.2319    0.7167    0.5548 C   0  0  0  0  0  0  0  0  0  0  0  0
   -0.9622    1.4127    0.5407 O   0  0  0  0  0  0  0  0  0  0  0  0
   -1.6516    0.2957    0.2308 C   0  0  0  0  0  0  0  0  0  0  0  0
   -2.9007    0.2254   -0.5063 C   0  0  0  0  0  0  0  0  0  0  0  0
   -2.7961   -0.2496    0.9385 C   0  0  0  0  0  0  0  0  0  0  0  0
   -0.4378   -0.5184   -0.0851 C   0  0  0  0  0  0  0  0  0  0  0  0
    4.0413   -0.2800   -0.0290 H   0  0  0  0  0  0  0  0  0  0  0  0
    2.7938    0.7202    0.8927 H   0  0  0  0  0  0  0  0  0  0  0  0
    3.1577    1.0927   -0.8611 H   0  0  0  0  0  0  0  0  0  0  0  0
    2.3154   -0.9798   -1.6073 H   0  0  0  0  0  0  0  0  0  0  0  0
    1.9079   -1.5500    0.0921 H   0  0  0  0  0  0  0  0  0  0  0  0
    0.6037    0.6813   -1.6471 H   0  0  0  0  0  0  0  0  0  0  0  0
    0.7321    0.5743    1.5316 H   0  0  0  0  0  0  0  0  0  0  0  0
   -2.9815   -0.5212   -1.3123 H   0  0  0  0  0  0  0  0  0  0  0  0
   -3.5244    1.1320   -0.7007 H   0  0  0  0  0  0  0  0  0  0  0  0
   -2.8134   -1.3723    1.0601 H   0  0  0  0  0  0  0  0  0  0  0  0
   -3.2474    0.3338    1.7393 H   0  0  0  0  0  0  0  0  0  0  0  0
   -0.3409   -1.4378    0.5382 H   0  0  0  0  0  0  0  0  0  0  0  0
  1  2  1  0
  2  3  1  0
  3  4  1  0
  4  5  1  0
  5  6  1  0
  6  7  1  0
  7  8  1  0
  6  9  1  0
  9  3  1  0
  9  4  1  0
  8  6  1  0
  1 10  1  0
  1 11  1  0
  1 12  1  0
  2 13  1  0
  2 14  1  0
  3 15  1  0
  4 16  1  0
  7 17  1  0
  7 18  1  0
  8 19  1  0
  8 20  1  0
  9 21  1  0
M  END
