
     RDKit          3D

 19 20  0  0  0  0  0  0  0  0999 V2000
    1.1553   -0.7327    1.9889 C   0  0  0  0  0  0  0  0  0  0  0  0
    1.1998   -0.9389    0.5248 C   0  0  0  0  0  0  0  0  0  0  0  0
    0.3076   -0.1408   -0.2719 C   0  0  0  0  0  0  0  0  0  0  0  0
    0.3921    1.3459   -0.2493 C   0  0  0  0  0  0  0  0  0  0  0  0
   -0.4936    1.6557   -1.2235 C   0  0  0  0  0  0  0  0  0  0  0  0
   -0.9333    0.2747   -1.6320 C   0  0  0  0  0  0  0  0  0  0  0  0
    0.2930   -0.3966   -1.6522 O   0  0  0  0  0  0  0  0  0  0  0  0
   -1.1628   -0.3779   -0.2908 C   0  0  0  0  0  0  0  0  0  0  0  0
   -1.8563    0.3808    0.6336 O   0  0  0  0  0  0  0  0  0  0  0  0
    0.8568    0.2831    2.3092 H   0  0  0  0  0  0  0  0  0  0  0  0
    0.5034   -1.5076    2.4612 H   0  0  0  0  0  0  0  0  0  0  0  0
    2.1745   -0.9063    2.4372 H   0  0  0  0  0  0  0  0  0  0  0  0
    2.2640   -0.7512    0.1895 H   0  0  0  0  0  0  0  0  0  0  0  0
    1.0374   -2.0203    0.2859 H   0  0  0  0  0  0  0  0  0  0  0  0
    0.9907    2.0021    0.3689 H   0  0  0  0  0  0  0  0  0  0  0  0
   -0.7992    2.6221   -1.6017 H   0  0  0  0  0  0  0  0  0  0  0  0
   -1.6225    0.1599   -2.4183 H   0  0  0  0  0  0  0  0  0  0  0  0
   -1.4902   -1.4381   -0.3485 H   0  0  0  0  0  0  0  0  0  0  0  0
   -2.8168    0.4862    0.4136 H   0  0  0  0  0  0  0  0  0  0  0  0
  1  2  1  0
  2  3  1  0
  3  4  1  0
  4  5  2  0
  5  6  1  0
  6  7  1  0
  6  8  1  0
  8  9  1  0
  7  3  1  0
  8  3  1  0
  1 10  1  0
  1 11  1  0
  1 12  1  0
  2 13  1  0
  2 14  1  0
  4 15  1  0
  5 16  1  0
  6 17  1  0
  8 18  1  0
  9 19  1  0
M  END
