
     RDKit          3D

 23 24  0  0  0  0  0  0  0  0999 V2000
    2.2584   -0.7993   -0.3690 C   0  0  0  0  0  0  0  0  0  0  0  0
    1.5432    0.5246   -0.5073 C   0  0  0  0  0  0  0  0  0  0  0  0
    0.4049    0.5404    0.4751 C   0  0  0  0  0  0  0  0  0  0  0  0
   -0.3984    1.8515    0.4234 C   0  0  0  0  0  0  0  0  0  0  0  0
   -1.6229    0.9689    0.7100 C   0  0  0  0  0  0  0  0  0  0  0  0
   -0.8269   -0.1683    0.1663 C   0  0  0  0  0  0  0  0  0  0  0  0
   -1.0876   -1.5274    0.6532 C   0  0  0  0  0  0  0  0  0  0  0  0
   -1.7599   -1.8027   -0.5392 O   0  0  0  0  0  0  0  0  0  0  0  0
   -1.1289   -0.6985   -1.1574 C   0  0  0  0  0  0  0  0  0  0  0  0
    2.0666   -1.2243    0.6593 H   0  0  0  0  0  0  0  0  0  0  0  0
    1.8973   -1.5690   -1.0793 H   0  0  0  0  0  0  0  0  0  0  0  0
    3.3451   -0.6072   -0.4839 H   0  0  0  0  0  0  0  0  0  0  0  0
    1.2426    0.6862   -1.5407 H   0  0  0  0  0  0  0  0  0  0  0  0
    2.2597    1.3437   -0.2493 H   0  0  0  0  0  0  0  0  0  0  0  0
    0.7478    0.4013    1.5197 H   0  0  0  0  0  0  0  0  0  0  0  0
   -0.1502    2.5594    1.2133 H   0  0  0  0  0  0  0  0  0  0  0  0
   -0.4229    2.3003   -0.5747 H   0  0  0  0  0  0  0  0  0  0  0  0
   -1.7749    0.9173    1.8059 H   0  0  0  0  0  0  0  0  0  0  0  0
   -2.4957    1.1894    0.1035 H   0  0  0  0  0  0  0  0  0  0  0  0
   -0.1614   -2.1478    0.7560 H   0  0  0  0  0  0  0  0  0  0  0  0
   -1.7767   -1.6179    1.5386 H   0  0  0  0  0  0  0  0  0  0  0  0
   -1.8275   -0.0561   -1.7268 H   0  0  0  0  0  0  0  0  0  0  0  0
   -0.3319   -1.0644   -1.7965 H   0  0  0  0  0  0  0  0  0  0  0  0
  1  2  1  0
  2  3  1  0
  3  4  1  0
  4  5  1  0
  5  6  1  0
  6  7  1  0
  7  8  1  0
  8  9  1  0
  6  3  1  0
  9  6  1  0
  1 10  1  0
  1 11  1  0
  1 12  1  0
  2 13  1  0
  2 14  1  0
  3 15  1  0
  4 16  1  0
  4 17  1  0
  5 18  1  0
  5 19  1  0
  7 20  1  0
  7 21  1  0
  9 22  1  0
  9 23  1  0
M  END
