
     RDKit          3D

 21 21  0  0  0  0  0  0  0  0999 V2000
   -2.6308    0.1466   -0.4073 C   0  0  0  0  0  0  0  0  0  0  0  0
   -1.1554   -0.2621   -0.4857 C   0  0  0  0  0  0  0  0  0  0  0  0
   -0.4143    0.6637    0.4500 C   0  0  0  0  0  0  0  0  0  0  0  0
   -0.9501    0.4803    1.7710 O   0  0  0  0  0  0  0  0  0  0  0  0
   -0.0666   -0.6156    1.8656 C   0  0  0  0  0  0  0  0  0  0  0  0
   -0.1907   -1.7090    2.4671 O   0  0  0  0  0  0  0  0  0  0  0  0
    0.8517    0.1468    1.0265 C   0  0  0  0  0  0  0  0  0  0  0  0
    1.7666   -0.6023    0.1204 C   0  0  0  0  0  0  0  0  0  0  0  0
    2.1448    0.3508   -0.9966 C   0  0  0  0  0  0  0  0  0  0  0  0
   -2.7276    1.1960   -0.0222 H   0  0  0  0  0  0  0  0  0  0  0  0
   -3.1897   -0.5516    0.2605 H   0  0  0  0  0  0  0  0  0  0  0  0
   -3.1120    0.1177   -1.4019 H   0  0  0  0  0  0  0  0  0  0  0  0
   -0.8323   -0.1394   -1.5302 H   0  0  0  0  0  0  0  0  0  0  0  0
   -1.0799   -1.3155   -0.2170 H   0  0  0  0  0  0  0  0  0  0  0  0
   -0.4474    1.6862    0.0817 H   0  0  0  0  0  0  0  0  0  0  0  0
    1.3782    0.9275    1.5964 H   0  0  0  0  0  0  0  0  0  0  0  0
    1.2825   -1.4908   -0.3392 H   0  0  0  0  0  0  0  0  0  0  0  0
    2.7092   -0.8637    0.6388 H   0  0  0  0  0  0  0  0  0  0  0  0
    2.9598    1.0260   -0.6491 H   0  0  0  0  0  0  0  0  0  0  0  0
    2.4435   -0.1756   -1.9236 H   0  0  0  0  0  0  0  0  0  0  0  0
    1.2603    0.9840   -1.2021 H   0  0  0  0  0  0  0  0  0  0  0  0
  1  2  1  0
  2  3  1  0
  3  4  1  0
  4  5  1  0
  5  6  2  0
  5  7  1  0
  7  8  1  0
  8  9  1  0
  7  3  1  0
  1 10  1  0
  1 11  1  0
  1 12  1  0
  2 13  1  0
  2 14  1  0
  3 15  1  0
  7 16  1  0
  8 17  1  0
  8 18  1  0
  9 19  1  0
  9 20  1  0
  9 21  1  0
M  END
