
     RDKit          3D

 23 23  0  0  0  0  0  0  0  0999 V2000
   -2.3362   -0.9429    0.0483 C   0  0  0  0  0  0  0  0  0  0  0  0
   -1.6154    0.2447    0.6983 C   0  0  0  0  0  0  0  0  0  0  0  0
   -0.1567   -0.0798    0.7026 C   0  0  0  0  0  0  0  0  0  0  0  0
    0.4523   -0.3078   -0.6718 C   0  0  0  0  0  0  0  0  0  0  0  0
    1.3576   -1.5022   -0.7343 C   0  0  0  0  0  0  0  0  0  0  0  0
    2.4119   -1.3609    0.1523 O   0  0  0  0  0  0  0  0  0  0  0  0
    0.8274    0.8804    0.1304 C   0  0  0  0  0  0  0  0  0  0  0  0
    0.2963    2.2439   -0.1682 C   0  0  0  0  0  0  0  0  0  0  0  0
    2.1553    0.8637    0.6104 O   0  0  0  0  0  0  0  0  0  0  0  0
   -2.2857   -1.8407    0.6949 H   0  0  0  0  0  0  0  0  0  0  0  0
   -3.3668   -0.6023   -0.1507 H   0  0  0  0  0  0  0  0  0  0  0  0
   -1.8250   -1.0959   -0.9249 H   0  0  0  0  0  0  0  0  0  0  0  0
   -2.0143    0.4677    1.6940 H   0  0  0  0  0  0  0  0  0  0  0  0
   -1.8603    1.1214    0.0303 H   0  0  0  0  0  0  0  0  0  0  0  0
    0.1824   -0.6902    1.5532 H   0  0  0  0  0  0  0  0  0  0  0  0
   -0.1559   -0.1114   -1.5630 H   0  0  0  0  0  0  0  0  0  0  0  0
    0.7482   -2.3847   -0.3777 H   0  0  0  0  0  0  0  0  0  0  0  0
    1.6660   -1.7614   -1.7593 H   0  0  0  0  0  0  0  0  0  0  0  0
    2.3496   -1.9967    0.9251 H   0  0  0  0  0  0  0  0  0  0  0  0
    1.0899    3.0356   -0.0359 H   0  0  0  0  0  0  0  0  0  0  0  0
   -0.1406    2.3170   -1.1899 H   0  0  0  0  0  0  0  0  0  0  0  0
   -0.5152    2.5649    0.5487 H   0  0  0  0  0  0  0  0  0  0  0  0
    2.7353    0.9374   -0.2127 H   0  0  0  0  0  0  0  0  0  0  0  0
  1  2  1  0
  2  3  1  0
  3  4  1  0
  4  5  1  0
  5  6  1  0
  4  7  1  0
  7  8  1  0
  7  9  1  0
  7  3  1  0
  1 10  1  0
  1 11  1  0
  1 12  1  0
  2 13  1  0
  2 14  1  0
  3 15  1  0
  4 16  1  0
  5 17  1  0
  5 18  1  0
  6 19  1  0
  8 20  1  0
  8 21  1  0
  8 22  1  0
  9 23  1  0
M  END
