
     RDKit          3D

 23 23  0  0  0  0  0  0  0  0999 V2000
   -2.7449    1.3276   -0.6881 C   0  0  0  0  0  0  0  0  0  0  0  0
   -2.4843   -0.1339   -0.3551 C   0  0  0  0  0  0  0  0  0  0  0  0
   -1.0042   -0.3569   -0.1627 C   0  0  0  0  0  0  0  0  0  0  0  0
   -0.0364    0.5391   -0.2561 C   0  0  0  0  0  0  0  0  0  0  0  0
    1.3029   -0.0071   -0.0096 C   0  0  0  0  0  0  0  0  0  0  0  0
    1.8694    0.3761    1.1762 O   0  0  0  0  0  0  0  0  0  0  0  0
    3.1179    0.9705    1.0259 C   0  0  0  0  0  0  0  0  0  0  0  0
    1.0577   -1.5207   -0.0501 C   0  0  0  0  0  0  0  0  0  0  0  0
   -0.4180   -1.6726    0.1722 C   0  0  0  0  0  0  0  0  0  0  0  0
   -2.4175    1.5491   -1.7124 H   0  0  0  0  0  0  0  0  0  0  0  0
   -2.1729    1.9502    0.0196 H   0  0  0  0  0  0  0  0  0  0  0  0
   -3.8266    1.5310   -0.5352 H   0  0  0  0  0  0  0  0  0  0  0  0
   -2.8805   -0.7392   -1.1889 H   0  0  0  0  0  0  0  0  0  0  0  0
   -3.0194   -0.4376    0.5568 H   0  0  0  0  0  0  0  0  0  0  0  0
   -0.2337    1.5799   -0.4946 H   0  0  0  0  0  0  0  0  0  0  0  0
    1.9314    0.2188   -0.8981 H   0  0  0  0  0  0  0  0  0  0  0  0
    3.1085    1.8771    0.4127 H   0  0  0  0  0  0  0  0  0  0  0  0
    3.6203    1.1308    1.9930 H   0  0  0  0  0  0  0  0  0  0  0  0
    3.7505    0.2018    0.4910 H   0  0  0  0  0  0  0  0  0  0  0  0
    1.6535   -1.9539    0.7815 H   0  0  0  0  0  0  0  0  0  0  0  0
    1.3319   -1.9611   -1.0092 H   0  0  0  0  0  0  0  0  0  0  0  0
   -0.6407   -2.0019    1.2092 H   0  0  0  0  0  0  0  0  0  0  0  0
   -0.8649   -2.4672   -0.4907 H   0  0  0  0  0  0  0  0  0  0  0  0
  1  2  1  0
  2  3  1  0
  3  4  2  0
  4  5  1  0
  5  6  1  0
  6  7  1  0
  5  8  1  0
  8  9  1  0
  9  3  1  0
  1 10  1  0
  1 11  1  0
  1 12  1  0
  2 13  1  0
  2 14  1  0
  4 15  1  0
  5 16  1  0
  7 17  1  0
  7 18  1  0
  7 19  1  0
  8 20  1  0
  8 21  1  0
  9 22  1  0
  9 23  1  0
M  END
