
     RDKit          3D

 21 22  0  0  0  0  0  0  0  0999 V2000
    2.3112    0.4311   -0.3736 C   0  0  0  0  0  0  0  0  0  0  0  0
    1.4035   -0.7644   -0.2450 C   0  0  0  0  0  0  0  0  0  0  0  0
   -0.0013   -0.4002    0.1476 C   0  0  0  0  0  0  0  0  0  0  0  0
   -0.1681    0.3186    1.4681 C   0  0  0  0  0  0  0  0  0  0  0  0
   -1.2588    1.2924    1.2596 C   0  0  0  0  0  0  0  0  0  0  0  0
   -1.7023    1.2762    0.0071 C   0  0  0  0  0  0  0  0  0  0  0  0
   -0.9294    0.2606   -0.7674 C   0  0  0  0  0  0  0  0  0  0  0  0
   -1.1655   -1.1797   -0.3015 C   0  0  0  0  0  0  0  0  0  0  0  0
   -1.0786   -2.1106   -1.3310 O   0  0  0  0  0  0  0  0  0  0  0  0
    1.8329    1.2679   -0.9289 H   0  0  0  0  0  0  0  0  0  0  0  0
    2.6800    0.7404    0.6287 H   0  0  0  0  0  0  0  0  0  0  0  0
    3.2057    0.1482   -0.9671 H   0  0  0  0  0  0  0  0  0  0  0  0
    1.4180   -1.3024   -1.2057 H   0  0  0  0  0  0  0  0  0  0  0  0
    1.8426   -1.4267    0.5323 H   0  0  0  0  0  0  0  0  0  0  0  0
   -0.5225   -0.4422    2.1971 H   0  0  0  0  0  0  0  0  0  0  0  0
    0.7850    0.7856    1.7733 H   0  0  0  0  0  0  0  0  0  0  0  0
   -1.6677    1.9491    2.0080 H   0  0  0  0  0  0  0  0  0  0  0  0
   -2.4907    1.8837   -0.4165 H   0  0  0  0  0  0  0  0  0  0  0  0
   -0.7222    0.4422   -1.8316 H   0  0  0  0  0  0  0  0  0  0  0  0
   -2.0352   -1.3639    0.3726 H   0  0  0  0  0  0  0  0  0  0  0  0
   -1.7366   -1.8058   -2.0261 H   0  0  0  0  0  0  0  0  0  0  0  0
  1  2  1  0
  2  3  1  0
  3  4  1  0
  4  5  1  0
  5  6  2  0
  6  7  1  0
  7  8  1  0
  8  9  1  0
  7  3  1  0
  8  3  1  0
  1 10  1  0
  1 11  1  0
  1 12  1  0
  2 13  1  0
  2 14  1  0
  4 15  1  0
  4 16  1  0
  5 17  1  0
  6 18  1  0
  7 19  1  0
  8 20  1  0
  9 21  1  0
M  END
