
     RDKit          3D

 23 24  0  0  0  0  0  0  0  0999 V2000
   -2.7347    0.0749    0.3026 C   0  0  0  0  0  0  0  0  0  0  0  0
   -1.6081    0.6698   -0.5317 C   0  0  0  0  0  0  0  0  0  0  0  0
   -0.3303    0.4077    0.2003 C   0  0  0  0  0  0  0  0  0  0  0  0
   -0.0720   -1.0778    0.4033 C   0  0  0  0  0  0  0  0  0  0  0  0
    1.3927   -1.1679    0.0423 C   0  0  0  0  0  0  0  0  0  0  0  0
    2.1989   -0.2537    0.9079 C   0  0  0  0  0  0  0  0  0  0  0  0
    1.9541    0.9986    0.5569 C   0  0  0  0  0  0  0  0  0  0  0  0
    0.8915    0.9545   -0.4727 C   0  0  0  0  0  0  0  0  0  0  0  0
    1.3644   -0.3032   -1.2354 C   0  0  0  0  0  0  0  0  0  0  0  0
   -3.5937    0.8029    0.3163 H   0  0  0  0  0  0  0  0  0  0  0  0
   -2.4084   -0.1801    1.3272 H   0  0  0  0  0  0  0  0  0  0  0  0
   -3.1419   -0.8475   -0.1662 H   0  0  0  0  0  0  0  0  0  0  0  0
   -1.7531    1.7481   -0.6060 H   0  0  0  0  0  0  0  0  0  0  0  0
   -1.6476    0.2436   -1.5360 H   0  0  0  0  0  0  0  0  0  0  0  0
   -0.4115    0.8531    1.2132 H   0  0  0  0  0  0  0  0  0  0  0  0
   -0.2870   -1.4049    1.4290 H   0  0  0  0  0  0  0  0  0  0  0  0
   -0.6697   -1.6051   -0.3637 H   0  0  0  0  0  0  0  0  0  0  0  0
    1.7892   -2.1422   -0.1030 H   0  0  0  0  0  0  0  0  0  0  0  0
    2.8638   -0.6049    1.6855 H   0  0  0  0  0  0  0  0  0  0  0  0
    2.4287    1.8682    0.9403 H   0  0  0  0  0  0  0  0  0  0  0  0
    0.7751    1.8125   -1.0870 H   0  0  0  0  0  0  0  0  0  0  0  0
    0.6189   -0.6532   -1.9416 H   0  0  0  0  0  0  0  0  0  0  0  0
    2.3807   -0.1933   -1.6038 H   0  0  0  0  0  0  0  0  0  0  0  0
  1  2  1  0
  2  3  1  0
  3  4  1  0
  4  5  1  0
  5  6  1  0
  6  7  2  0
  7  8  1  0
  8  9  1  0
  8  3  1  0
  9  5  1  0
  1 10  1  0
  1 11  1  0
  1 12  1  0
  2 13  1  0
  2 14  1  0
  3 15  1  0
  4 16  1  0
  4 17  1  0
  5 18  1  0
  6 19  1  0
  7 20  1  0
  8 21  1  0
  9 22  1  0
  9 23  1  0
M  END
