
     RDKit          3D

 21 23  0  0  0  0  0  0  0  0999 V2000
    2.2677    0.1060    0.6503 C   0  0  0  0  0  0  0  0  0  0  0  0
    1.3746   -0.6371   -0.3462 C   0  0  0  0  0  0  0  0  0  0  0  0
    0.1551    0.1893   -0.5397 C   0  0  0  0  0  0  0  0  0  0  0  0
   -0.9192   -0.3204   -1.4950 C   0  0  0  0  0  0  0  0  0  0  0  0
   -1.1729   -0.1176   -0.0767 C   0  0  0  0  0  0  0  0  0  0  0  0
   -1.5725   -1.2580    0.7742 C   0  0  0  0  0  0  0  0  0  0  0  0
   -1.3537    1.2833    0.4525 C   0  0  0  0  0  0  0  0  0  0  0  0
   -0.3927    1.8489    1.2577 O   0  0  0  0  0  0  0  0  0  0  0  0
    0.0699    1.5754   -0.0079 C   0  0  0  0  0  0  0  0  0  0  0  0
    3.2090   -0.4573    0.8134 H   0  0  0  0  0  0  0  0  0  0  0  0
    2.5759    1.0442    0.1172 H   0  0  0  0  0  0  0  0  0  0  0  0
    1.7354    0.3711    1.5699 H   0  0  0  0  0  0  0  0  0  0  0  0
    1.1642   -1.6679    0.0206 H   0  0  0  0  0  0  0  0  0  0  0  0
    1.9628   -0.6874   -1.2866 H   0  0  0  0  0  0  0  0  0  0  0  0
   -0.7692   -1.3492   -1.8511 H   0  0  0  0  0  0  0  0  0  0  0  0
   -1.1435    0.4035   -2.2908 H   0  0  0  0  0  0  0  0  0  0  0  0
   -2.5896   -1.0242    1.2051 H   0  0  0  0  0  0  0  0  0  0  0  0
   -1.7543   -2.1441    0.1150 H   0  0  0  0  0  0  0  0  0  0  0  0
   -0.9181   -1.4857    1.6209 H   0  0  0  0  0  0  0  0  0  0  0  0
   -2.1292    1.9390    0.0309 H   0  0  0  0  0  0  0  0  0  0  0  0
    0.2004    2.3883   -0.7336 H   0  0  0  0  0  0  0  0  0  0  0  0
  1  2  1  0
  2  3  1  0
  3  4  1  0
  4  5  1  0
  5  6  1  0
  5  7  1  0
  7  8  1  0
  8  9  1  0
  5  3  1  0
  9  7  1  0
  9  3  1  0
  1 10  1  0
  1 11  1  0
  1 12  1  0
  2 13  1  0
  2 14  1  0
  4 15  1  0
  4 16  1  0
  6 17  1  0
  6 18  1  0
  6 19  1  0
  7 20  1  0
  9 21  1  0
M  END
