
     RDKit          3D

 19 21  0  0  0  0  0  0  0  0999 V2000
    2.4107    0.2436    0.2728 C   0  0  0  0  0  0  0  0  0  0  0  0
    1.2714   -0.7472    0.1550 C   0  0  0  0  0  0  0  0  0  0  0  0
   -0.0589   -0.1994    0.3249 C   0  0  0  0  0  0  0  0  0  0  0  0
   -0.6897    0.8592   -0.5015 C   0  0  0  0  0  0  0  0  0  0  0  0
   -1.8542    1.2830    0.3987 C   0  0  0  0  0  0  0  0  0  0  0  0
   -1.8476    0.4549    1.4992 O   0  0  0  0  0  0  0  0  0  0  0  0
   -1.1749   -0.7201    1.0988 C   0  0  0  0  0  0  0  0  0  0  0  0
   -1.1805   -1.0638   -0.3312 C   0  0  0  0  0  0  0  0  0  0  0  0
   -1.1519   -0.1444   -1.3500 O   0  0  0  0  0  0  0  0  0  0  0  0
    2.4249    0.9848   -0.5295 H   0  0  0  0  0  0  0  0  0  0  0  0
    2.3966    0.7441    1.2656 H   0  0  0  0  0  0  0  0  0  0  0  0
    3.3511   -0.3817    0.2692 H   0  0  0  0  0  0  0  0  0  0  0  0
    1.4211   -1.2674   -0.8376 H   0  0  0  0  0  0  0  0  0  0  0  0
    1.4613   -1.5340    0.9138 H   0  0  0  0  0  0  0  0  0  0  0  0
   -0.0930    1.6504   -0.9235 H   0  0  0  0  0  0  0  0  0  0  0  0
   -2.8337    1.0992   -0.1337 H   0  0  0  0  0  0  0  0  0  0  0  0
   -1.8340    2.3518    0.6281 H   0  0  0  0  0  0  0  0  0  0  0  0
   -1.0895   -1.5283    1.8112 H   0  0  0  0  0  0  0  0  0  0  0  0
   -0.9290   -2.0847   -0.6129 H   0  0  0  0  0  0  0  0  0  0  0  0
  1  2  1  0
  2  3  1  0
  3  4  1  0
  4  5  1  0
  5  6  1  0
  6  7  1  0
  7  8  1  0
  8  9  1  0
  7  3  1  0
  8  3  1  0
  9  4  1  0
  1 10  1  0
  1 11  1  0
  1 12  1  0
  2 13  1  0
  2 14  1  0
  4 15  1  0
  5 16  1  0
  5 17  1  0
  7 18  1  0
  8 19  1  0
M  END
