
     RDKit          3D

 23 24  0  0  0  0  0  0  0  0999 V2000
    2.8435    1.2922    0.3867 C   0  0  0  0  0  0  0  0  0  0  0  0
    2.3821   -0.1008    0.7398 C   0  0  0  0  0  0  0  0  0  0  0  0
    1.3948   -0.6284   -0.2732 C   0  0  0  0  0  0  0  0  0  0  0  0
    0.9688   -1.9555    0.0822 O   0  0  0  0  0  0  0  0  0  0  0  0
    0.0301   -0.8048    0.1415 C   0  0  0  0  0  0  0  0  0  0  0  0
   -1.1190   -1.0436   -0.7737 C   0  0  0  0  0  0  0  0  0  0  0  0
   -2.4646   -1.2061   -0.0814 C   0  0  0  0  0  0  0  0  0  0  0  0
   -2.2026   -0.0458   -0.9444 C   0  0  0  0  0  0  0  0  0  0  0  0
   -2.0472    1.3280   -0.2837 C   0  0  0  0  0  0  0  0  0  0  0  0
    2.8709    1.4396   -0.7023 H   0  0  0  0  0  0  0  0  0  0  0  0
    2.1677    2.0328    0.8767 H   0  0  0  0  0  0  0  0  0  0  0  0
    3.8531    1.4757    0.8327 H   0  0  0  0  0  0  0  0  0  0  0  0
    3.2983   -0.7404    0.7906 H   0  0  0  0  0  0  0  0  0  0  0  0
    1.9353   -0.1307    1.7719 H   0  0  0  0  0  0  0  0  0  0  0  0
    1.6673   -0.4602   -1.3216 H   0  0  0  0  0  0  0  0  0  0  0  0
   -0.2218   -0.5424    1.2012 H   0  0  0  0  0  0  0  0  0  0  0  0
   -0.9207   -1.6966   -1.6681 H   0  0  0  0  0  0  0  0  0  0  0  0
   -2.5299   -1.0303    1.0022 H   0  0  0  0  0  0  0  0  0  0  0  0
   -3.1231   -2.0407   -0.4381 H   0  0  0  0  0  0  0  0  0  0  0  0
   -2.7188   -0.0230   -1.9235 H   0  0  0  0  0  0  0  0  0  0  0  0
   -2.8269    2.0125   -0.6699 H   0  0  0  0  0  0  0  0  0  0  0  0
   -1.0244    1.6648   -0.5172 H   0  0  0  0  0  0  0  0  0  0  0  0
   -2.2128    1.2037    0.8040 H   0  0  0  0  0  0  0  0  0  0  0  0
  1  2  1  0
  2  3  1  0
  3  4  1  0
  4  5  1  0
  5  6  1  0
  6  7  1  0
  7  8  1  0
  8  9  1  0
  5  3  1  0
  8  6  1  0
  1 10  1  0
  1 11  1  0
  1 12  1  0
  2 13  1  0
  2 14  1  0
  3 15  1  0
  5 16  1  0
  6 17  1  0
  7 18  1  0
  7 19  1  0
  8 20  1  0
  9 21  1  0
  9 22  1  0
  9 23  1  0
M  END
