
     RDKit          3D

 23 23  0  0  0  0  0  0  0  0999 V2000
    2.7982   -0.8197   -0.1184 C   0  0  0  0  0  0  0  0  0  0  0  0
    1.9895    0.3696   -0.5964 C   0  0  0  0  0  0  0  0  0  0  0  0
    0.5814    0.2150   -0.1080 C   0  0  0  0  0  0  0  0  0  0  0  0
   -0.2284    1.4211   -0.5956 C   0  0  0  0  0  0  0  0  0  0  0  0
   -1.3798    1.5655    0.3016 C   0  0  0  0  0  0  0  0  0  0  0  0
   -2.2865    0.6654    0.6711 C   0  0  0  0  0  0  0  0  0  0  0  0
   -2.3281   -0.7386    0.2350 C   0  0  0  0  0  0  0  0  0  0  0  0
   -0.9906   -1.4266    0.2826 C   0  0  0  0  0  0  0  0  0  0  0  0
   -0.0617   -0.8985   -0.5808 O   0  0  0  0  0  0  0  0  0  0  0  0
    3.6480   -1.0086   -0.8027 H   0  0  0  0  0  0  0  0  0  0  0  0
    2.1020   -1.6863   -0.0902 H   0  0  0  0  0  0  0  0  0  0  0  0
    3.2555   -0.6277    0.8928 H   0  0  0  0  0  0  0  0  0  0  0  0
    2.4178    1.2633   -0.0611 H   0  0  0  0  0  0  0  0  0  0  0  0
    2.0740    0.5114   -1.6779 H   0  0  0  0  0  0  0  0  0  0  0  0
    0.5876    0.2936    1.0005 H   0  0  0  0  0  0  0  0  0  0  0  0
    0.4255    2.2937   -0.5788 H   0  0  0  0  0  0  0  0  0  0  0  0
   -0.5194    1.2538   -1.6678 H   0  0  0  0  0  0  0  0  0  0  0  0
   -1.5012    2.5499    0.7184 H   0  0  0  0  0  0  0  0  0  0  0  0
   -3.0630    1.0078    1.3578 H   0  0  0  0  0  0  0  0  0  0  0  0
   -3.0050   -1.3064    0.9231 H   0  0  0  0  0  0  0  0  0  0  0  0
   -2.7338   -0.8813   -0.7870 H   0  0  0  0  0  0  0  0  0  0  0  0
   -1.1764   -2.4854   -0.0497 H   0  0  0  0  0  0  0  0  0  0  0  0
   -0.6057   -1.5309    1.3315 H   0  0  0  0  0  0  0  0  0  0  0  0
  1  2  1  0
  2  3  1  0
  3  4  1  0
  4  5  1  0
  5  6  2  0
  6  7  1  0
  7  8  1  0
  8  9  1  0
  9  3  1  0
  1 10  1  0
  1 11  1  0
  1 12  1  0
  2 13  1  0
  2 14  1  0
  3 15  1  0
  4 16  1  0
  4 17  1  0
  5 18  1  0
  6 19  1  0
  7 20  1  0
  7 21  1  0
  8 22  1  0
  8 23  1  0
M  END
