
     RDKit          3D

 23 23  0  0  0  0  0  0  0  0999 V2000
    0.3215    2.5604    0.2803 C   0  0  0  0  0  0  0  0  0  0  0  0
   -0.5371    1.3694    0.4965 C   0  0  0  0  0  0  0  0  0  0  0  0
   -0.2750    0.2031   -0.3815 C   0  0  0  0  0  0  0  0  0  0  0  0
    1.0117   -0.4681   -0.4090 C   0  0  0  0  0  0  0  0  0  0  0  0
    2.1764    0.0922    0.3376 C   0  0  0  0  0  0  0  0  0  0  0  0
    0.5626   -1.6376    0.1769 O   0  0  0  0  0  0  0  0  0  0  0  0
   -0.6852   -1.0810    0.3106 C   0  0  0  0  0  0  0  0  0  0  0  0
   -1.7126   -1.8950   -0.4397 C   0  0  0  0  0  0  0  0  0  0  0  0
   -1.7453   -3.1948    0.0638 O   0  0  0  0  0  0  0  0  0  0  0  0
    1.2734    2.5619    0.8332 H   0  0  0  0  0  0  0  0  0  0  0  0
   -0.2482    3.4539    0.6749 H   0  0  0  0  0  0  0  0  0  0  0  0
    0.5371    2.7817   -0.7659 H   0  0  0  0  0  0  0  0  0  0  0  0
   -0.5072    1.1011    1.5921 H   0  0  0  0  0  0  0  0  0  0  0  0
   -1.5901    1.6809    0.3153 H   0  0  0  0  0  0  0  0  0  0  0  0
   -0.8329    0.2886   -1.3503 H   0  0  0  0  0  0  0  0  0  0  0  0
    1.3390   -0.7065   -1.4649 H   0  0  0  0  0  0  0  0  0  0  0  0
    1.9779    0.3344    1.3813 H   0  0  0  0  0  0  0  0  0  0  0  0
    2.9674   -0.7165    0.3539 H   0  0  0  0  0  0  0  0  0  0  0  0
    2.6401    0.9129   -0.2489 H   0  0  0  0  0  0  0  0  0  0  0  0
   -0.9648   -0.9807    1.3729 H   0  0  0  0  0  0  0  0  0  0  0  0
   -2.7363   -1.4924   -0.3436 H   0  0  0  0  0  0  0  0  0  0  0  0
   -1.4874   -1.9484   -1.5225 H   0  0  0  0  0  0  0  0  0  0  0  0
   -1.4852   -3.2194    1.0258 H   0  0  0  0  0  0  0  0  0  0  0  0
  1  2  1  0
  2  3  1  0
  3  4  1  0
  4  5  1  0
  4  6  1  0
  6  7  1  0
  7  8  1  0
  8  9  1  0
  7  3  1  0
  1 10  1  0
  1 11  1  0
  1 12  1  0
  2 13  1  0
  2 14  1  0
  3 15  1  0
  4 16  1  0
  5 17  1  0
  5 18  1  0
  5 19  1  0
  7 20  1  0
  8 21  1  0
  8 22  1  0
  9 23  1  0
M  END
