
     RDKit          3D

 23 23  0  0  0  0  0  0  0  0999 V2000
   -2.4080   -0.9037   -0.0254 C   0  0  0  0  0  0  0  0  0  0  0  0
   -1.3028   -0.4017   -0.9541 C   0  0  0  0  0  0  0  0  0  0  0  0
   -0.1364   -0.0760   -0.0578 C   0  0  0  0  0  0  0  0  0  0  0  0
   -0.4408    0.9039    0.8913 O   0  0  0  0  0  0  0  0  0  0  0  0
   -0.8213    2.0829    0.2970 C   0  0  0  0  0  0  0  0  0  0  0  0
    0.5128   -1.3378    0.4898 C   0  0  0  0  0  0  0  0  0  0  0  0
    1.2540   -0.3805   -0.4217 C   0  0  0  0  0  0  0  0  0  0  0  0
    2.3410    0.3869    0.2572 C   0  0  0  0  0  0  0  0  0  0  0  0
    3.5986   -0.0395   -0.2167 O   0  0  0  0  0  0  0  0  0  0  0  0
   -3.0390   -0.0494    0.3391 H   0  0  0  0  0  0  0  0  0  0  0  0
   -3.0086   -1.7000   -0.4889 H   0  0  0  0  0  0  0  0  0  0  0  0
   -1.9668   -1.3393    0.9016 H   0  0  0  0  0  0  0  0  0  0  0  0
   -1.6208    0.4054   -1.6018 H   0  0  0  0  0  0  0  0  0  0  0  0
   -1.0667   -1.2773   -1.6172 H   0  0  0  0  0  0  0  0  0  0  0  0
   -1.7113    2.0107   -0.3465 H   0  0  0  0  0  0  0  0  0  0  0  0
    0.0121    2.5327   -0.2848 H   0  0  0  0  0  0  0  0  0  0  0  0
   -1.1017    2.7897    1.1233 H   0  0  0  0  0  0  0  0  0  0  0  0
    0.7843   -1.3738    1.5635 H   0  0  0  0  0  0  0  0  0  0  0  0
    0.3117   -2.3065    0.0397 H   0  0  0  0  0  0  0  0  0  0  0  0
    1.4424   -0.6639   -1.4712 H   0  0  0  0  0  0  0  0  0  0  0  0
    2.2249    1.4828    0.1638 H   0  0  0  0  0  0  0  0  0  0  0  0
    2.3836    0.1929    1.3683 H   0  0  0  0  0  0  0  0  0  0  0  0
    3.7588   -0.9384    0.1124 H   0  0  0  0  0  0  0  0  0  0  0  0
  1  2  1  0
  2  3  1  0
  3  4  1  0
  4  5  1  0
  3  6  1  0
  6  7  1  0
  7  8  1  0
  8  9  1  0
  7  3  1  0
  1 10  1  0
  1 11  1  0
  1 12  1  0
  2 13  1  0
  2 14  1  0
  5 15  1  0
  5 16  1  0
  5 17  1  0
  6 18  1  0
  6 19  1  0
  7 20  1  0
  8 21  1  0
  8 22  1  0
  9 23  1  0
M  END
