
     RDKit          3D

 21 21  0  0  0  0  0  0  0  0999 V2000
    2.7547   -0.1905    0.4564 C   0  0  0  0  0  0  0  0  0  0  0  0
    1.8251    0.6173   -0.4501 C   0  0  0  0  0  0  0  0  0  0  0  0
    0.6698   -0.3378   -0.7750 C   0  0  0  0  0  0  0  0  0  0  0  0
    0.0725   -0.6859    0.4572 O   0  0  0  0  0  0  0  0  0  0  0  0
   -1.1613   -0.1336    0.0671 C   0  0  0  0  0  0  0  0  0  0  0  0
   -2.1926   -1.2054   -0.0279 C   0  0  0  0  0  0  0  0  0  0  0  0
   -1.5624    1.0588    0.9144 C   0  0  0  0  0  0  0  0  0  0  0  0
   -0.5621    0.3148   -1.2144 C   0  0  0  0  0  0  0  0  0  0  0  0
   -0.9990    0.9492   -2.1570 O   0  0  0  0  0  0  0  0  0  0  0  0
    3.3726   -0.8303   -0.1700 H   0  0  0  0  0  0  0  0  0  0  0  0
    2.1174   -0.8681    1.0955 H   0  0  0  0  0  0  0  0  0  0  0  0
    3.3014    0.4544    1.1602 H   0  0  0  0  0  0  0  0  0  0  0  0
    2.3509    0.9391   -1.3721 H   0  0  0  0  0  0  0  0  0  0  0  0
    1.4856    1.4779    0.1482 H   0  0  0  0  0  0  0  0  0  0  0  0
    1.0512   -1.1784   -1.3548 H   0  0  0  0  0  0  0  0  0  0  0  0
   -2.3936   -1.5482   -1.0693 H   0  0  0  0  0  0  0  0  0  0  0  0
   -3.1356   -0.8170    0.4316 H   0  0  0  0  0  0  0  0  0  0  0  0
   -1.9008   -2.1077    0.5849 H   0  0  0  0  0  0  0  0  0  0  0  0
   -0.7102    1.7133    1.0897 H   0  0  0  0  0  0  0  0  0  0  0  0
   -2.3229    1.6237    0.3314 H   0  0  0  0  0  0  0  0  0  0  0  0
   -2.0606    0.7544    1.8538 H   0  0  0  0  0  0  0  0  0  0  0  0
  1  2  1  0
  2  3  1  0
  3  4  1  0
  4  5  1  0
  5  6  1  0
  5  7  1  0
  5  8  1  0
  8  9  2  0
  8  3  1  0
  1 10  1  0
  1 11  1  0
  1 12  1  0
  2 13  1  0
  2 14  1  0
  3 15  1  0
  6 16  1  0
  6 17  1  0
  6 18  1  0
  7 19  1  0
  7 20  1  0
  7 21  1  0
M  END
