
     RDKit          3D

 23 23  0  0  0  0  0  0  0  0999 V2000
   -0.8776    2.1903   -0.9166 C   0  0  0  0  0  0  0  0  0  0  0  0
   -0.0783    1.5065    0.1354 C   0  0  0  0  0  0  0  0  0  0  0  0
    0.0089    0.0024   -0.0544 C   0  0  0  0  0  0  0  0  0  0  0  0
   -1.3918   -0.5867   -0.0239 C   0  0  0  0  0  0  0  0  0  0  0  0
   -1.3375   -2.0735   -0.2092 C   0  0  0  0  0  0  0  0  0  0  0  0
    0.8583   -0.5169    1.0264 C   0  0  0  0  0  0  0  0  0  0  0  0
    2.0666   -0.7111    0.5525 C   0  0  0  0  0  0  0  0  0  0  0  0
    2.0416   -0.3177   -0.8786 C   0  0  0  0  0  0  0  0  0  0  0  0
    0.6846   -0.3224   -1.2059 O   0  0  0  0  0  0  0  0  0  0  0  0
   -1.9739    2.0817   -0.6995 H   0  0  0  0  0  0  0  0  0  0  0  0
   -0.6343    3.2797   -0.8753 H   0  0  0  0  0  0  0  0  0  0  0  0
   -0.6478    1.8199   -1.9468 H   0  0  0  0  0  0  0  0  0  0  0  0
   -0.5164    1.7639    1.1222 H   0  0  0  0  0  0  0  0  0  0  0  0
    0.9772    1.8792    0.0782 H   0  0  0  0  0  0  0  0  0  0  0  0
   -1.8797   -0.2744    0.9170 H   0  0  0  0  0  0  0  0  0  0  0  0
   -1.9152   -0.1617   -0.9216 H   0  0  0  0  0  0  0  0  0  0  0  0
   -0.3442   -2.3322   -0.5986 H   0  0  0  0  0  0  0  0  0  0  0  0
   -1.5550   -2.5441    0.7716 H   0  0  0  0  0  0  0  0  0  0  0  0
   -2.0905   -2.4358   -0.9238 H   0  0  0  0  0  0  0  0  0  0  0  0
    0.5899   -0.7276    2.0698 H   0  0  0  0  0  0  0  0  0  0  0  0
    2.9371   -1.0925    1.1045 H   0  0  0  0  0  0  0  0  0  0  0  0
    2.5893   -1.0983   -1.4654 H   0  0  0  0  0  0  0  0  0  0  0  0
    2.4886    0.6710   -1.0611 H   0  0  0  0  0  0  0  0  0  0  0  0
  1  2  1  0
  2  3  1  0
  3  4  1  0
  4  5  1  0
  3  6  1  0
  6  7  2  0
  7  8  1  0
  8  9  1  0
  9  3  1  0
  1 10  1  0
  1 11  1  0
  1 12  1  0
  2 13  1  0
  2 14  1  0
  4 15  1  0
  4 16  1  0
  5 17  1  0
  5 18  1  0
  5 19  1  0
  6 20  1  0
  7 21  1  0
  8 22  1  0
  8 23  1  0
M  END
