
     RDKit          3D

 21 21  0  0  0  0  0  0  0  0999 V2000
    2.5973   -0.3494   -0.0042 C   0  0  0  0  0  0  0  0  0  0  0  0
    1.3816    0.4263    0.4136 C   0  0  0  0  0  0  0  0  0  0  0  0
    0.2284    0.2732   -0.5326 C   0  0  0  0  0  0  0  0  0  0  0  0
   -0.2195   -1.1367   -0.6678 C   0  0  0  0  0  0  0  0  0  0  0  0
   -1.1717   -1.4382    0.1889 C   0  0  0  0  0  0  0  0  0  0  0  0
   -1.4623   -0.2410    0.9992 C   0  0  0  0  0  0  0  0  0  0  0  0
   -0.9938    0.9022    0.1647 C   0  0  0  0  0  0  0  0  0  0  0  0
   -1.9642    1.2115   -0.8975 C   0  0  0  0  0  0  0  0  0  0  0  0
   -2.3947    0.2948   -1.5759 O   0  0  0  0  0  0  0  0  0  0  0  0
    3.4624    0.0763    0.5710 H   0  0  0  0  0  0  0  0  0  0  0  0
    2.8437   -0.1863   -1.0743 H   0  0  0  0  0  0  0  0  0  0  0  0
    2.4585   -1.4305    0.2289 H   0  0  0  0  0  0  0  0  0  0  0  0
    1.0811    0.0642    1.4136 H   0  0  0  0  0  0  0  0  0  0  0  0
    1.6603    1.5001    0.4237 H   0  0  0  0  0  0  0  0  0  0  0  0
    0.4074    0.7297   -1.5109 H   0  0  0  0  0  0  0  0  0  0  0  0
    0.1818   -1.8408   -1.3815 H   0  0  0  0  0  0  0  0  0  0  0  0
   -1.7028   -2.3925    0.3320 H   0  0  0  0  0  0  0  0  0  0  0  0
   -0.8775   -0.3453    1.9419 H   0  0  0  0  0  0  0  0  0  0  0  0
   -2.5457   -0.1173    1.2086 H   0  0  0  0  0  0  0  0  0  0  0  0
   -0.7164    1.7483    0.7874 H   0  0  0  0  0  0  0  0  0  0  0  0
   -2.2541    2.2513   -1.0285 H   0  0  0  0  0  0  0  0  0  0  0  0
  1  2  1  0
  2  3  1  0
  3  4  1  0
  4  5  2  0
  5  6  1  0
  6  7  1  0
  7  8  1  0
  8  9  2  0
  7  3  1  0
  1 10  1  0
  1 11  1  0
  1 12  1  0
  2 13  1  0
  2 14  1  0
  3 15  1  0
  4 16  1  0
  5 17  1  0
  6 18  1  0
  6 19  1  0
  7 20  1  0
  8 21  1  0
M  END
