
     RDKit          3D

 23 23  0  0  0  0  0  0  0  0999 V2000
   -3.1863    0.1557    0.4632 C   0  0  0  0  0  0  0  0  0  0  0  0
   -2.1946    0.0054   -0.6415 C   0  0  0  0  0  0  0  0  0  0  0  0
   -0.7757    0.1908   -0.2230 C   0  0  0  0  0  0  0  0  0  0  0  0
    0.0914    0.0023   -1.4741 C   0  0  0  0  0  0  0  0  0  0  0  0
    1.4803    0.2892   -1.0538 C   0  0  0  0  0  0  0  0  0  0  0  0
    1.8177    0.0735    0.2029 C   0  0  0  0  0  0  0  0  0  0  0  0
    3.2159    0.3525    0.6656 C   0  0  0  0  0  0  0  0  0  0  0  0
    0.8727   -0.4456    1.2277 C   0  0  0  0  0  0  0  0  0  0  0  0
   -0.3729   -0.7357    0.7211 O   0  0  0  0  0  0  0  0  0  0  0  0
   -4.1874    0.3858   -0.0064 H   0  0  0  0  0  0  0  0  0  0  0  0
   -3.3175   -0.8359    0.9571 H   0  0  0  0  0  0  0  0  0  0  0  0
   -2.9081    0.9283    1.2021 H   0  0  0  0  0  0  0  0  0  0  0  0
   -2.3715   -0.9747   -1.1385 H   0  0  0  0  0  0  0  0  0  0  0  0
   -2.4134    0.7725   -1.4291 H   0  0  0  0  0  0  0  0  0  0  0  0
   -0.6218    1.1999    0.1551 H   0  0  0  0  0  0  0  0  0  0  0  0
    0.0570   -1.0939   -1.7389 H   0  0  0  0  0  0  0  0  0  0  0  0
   -0.2574    0.6280   -2.3066 H   0  0  0  0  0  0  0  0  0  0  0  0
    2.2162    0.6653   -1.7383 H   0  0  0  0  0  0  0  0  0  0  0  0
    3.7361   -0.6091    0.7836 H   0  0  0  0  0  0  0  0  0  0  0  0
    3.1665    0.8021    1.6939 H   0  0  0  0  0  0  0  0  0  0  0  0
    3.7426    1.0521   -0.0281 H   0  0  0  0  0  0  0  0  0  0  0  0
    0.8639    0.2872    2.0606 H   0  0  0  0  0  0  0  0  0  0  0  0
    1.3462   -1.3754    1.6453 H   0  0  0  0  0  0  0  0  0  0  0  0
  1  2  1  0
  2  3  1  0
  3  4  1  0
  4  5  1  0
  5  6  2  0
  6  7  1  0
  6  8  1  0
  8  9  1  0
  9  3  1  0
  1 10  1  0
  1 11  1  0
  1 12  1  0
  2 13  1  0
  2 14  1  0
  3 15  1  0
  4 16  1  0
  4 17  1  0
  5 18  1  0
  7 19  1  0
  7 20  1  0
  7 21  1  0
  8 22  1  0
  8 23  1  0
M  END
