
     RDKit          3D

 22 23  0  0  0  0  0  0  0  0999 V2000
    2.2291   -0.1538   -0.6999 C   0  0  0  0  0  0  0  0  0  0  0  0
    1.9741    0.1187    0.7541 C   0  0  0  0  0  0  0  0  0  0  0  0
    0.5239    0.1719    1.1165 C   0  0  0  0  0  0  0  0  0  0  0  0
   -0.3222    1.1911    0.4507 C   0  0  0  0  0  0  0  0  0  0  0  0
   -1.4044    0.2029    0.1681 C   0  0  0  0  0  0  0  0  0  0  0  0
   -1.9932    0.2270   -1.2098 C   0  0  0  0  0  0  0  0  0  0  0  0
   -1.6970   -0.9556    1.0293 C   0  0  0  0  0  0  0  0  0  0  0  0
   -0.3261   -0.8752    0.4660 C   0  0  0  0  0  0  0  0  0  0  0  0
    3.3252   -0.0061   -0.8710 H   0  0  0  0  0  0  0  0  0  0  0  0
    2.0094   -1.1934   -0.9756 H   0  0  0  0  0  0  0  0  0  0  0  0
    1.6408    0.5228   -1.3133 H   0  0  0  0  0  0  0  0  0  0  0  0
    2.5306    0.9957    1.0711 H   0  0  0  0  0  0  0  0  0  0  0  0
    2.4130   -0.7575    1.3103 H   0  0  0  0  0  0  0  0  0  0  0  0
    0.4015    0.1896    2.2156 H   0  0  0  0  0  0  0  0  0  0  0  0
    0.1141    1.5959   -0.4897 H   0  0  0  0  0  0  0  0  0  0  0  0
   -0.6466    2.0193    1.1110 H   0  0  0  0  0  0  0  0  0  0  0  0
   -1.3538   -0.1876   -1.9908 H   0  0  0  0  0  0  0  0  0  0  0  0
   -2.3190    1.2743   -1.4439 H   0  0  0  0  0  0  0  0  0  0  0  0
   -2.9523   -0.3689   -1.2479 H   0  0  0  0  0  0  0  0  0  0  0  0
   -1.8054   -0.8522    2.1259 H   0  0  0  0  0  0  0  0  0  0  0  0
   -2.3292   -1.7441    0.5872 H   0  0  0  0  0  0  0  0  0  0  0  0
   -0.0127   -1.4146   -0.4218 H   0  0  0  0  0  0  0  0  0  0  0  0
  1  2  1  0
  2  3  1  0
  3  4  1  0
  4  5  1  0
  5  6  1  0
  5  7  1  0
  7  8  1  0
  8  3  1  0
  8  5  1  0
  1  9  1  0
  1 10  1  0
  1 11  1  0
  2 12  1  0
  2 13  1  0
  3 14  1  0
  4 15  1  0
  4 16  1  0
  6 17  1  0
  6 18  1  0
  6 19  1  0
  7 20  1  0
  7 21  1  0
  8 22  1  0
M  END
