
     RDKit          3D

 21 21  0  0  0  0  0  0  0  0999 V2000
   -2.1457    0.2108    0.7838 C   0  0  0  0  0  0  0  0  0  0  0  0
   -1.0288    0.5819   -0.1667 C   0  0  0  0  0  0  0  0  0  0  0  0
    0.1527   -0.3166    0.0534 C   0  0  0  0  0  0  0  0  0  0  0  0
   -0.1244   -1.7704   -0.1609 C   0  0  0  0  0  0  0  0  0  0  0  0
    0.9499   -0.0890    1.2898 C   0  0  0  0  0  0  0  0  0  0  0  0
    2.0865   -0.4153    0.5591 O   0  0  0  0  0  0  0  0  0  0  0  0
    1.4482    0.1329   -0.5460 C   0  0  0  0  0  0  0  0  0  0  0  0
    1.6862    1.5924   -0.5849 C   0  0  0  0  0  0  0  0  0  0  0  0
    2.3775    2.1092    0.2651 O   0  0  0  0  0  0  0  0  0  0  0  0
   -2.8315    1.1086    0.8059 H   0  0  0  0  0  0  0  0  0  0  0  0
   -2.7231   -0.6455    0.4424 H   0  0  0  0  0  0  0  0  0  0  0  0
   -1.7049    0.0884    1.8038 H   0  0  0  0  0  0  0  0  0  0  0  0
   -1.4132    0.3270   -1.1992 H   0  0  0  0  0  0  0  0  0  0  0  0
   -0.7938    1.6423   -0.1879 H   0  0  0  0  0  0  0  0  0  0  0  0
   -1.2201   -1.9245   -0.0739 H   0  0  0  0  0  0  0  0  0  0  0  0
    0.3459   -2.4241    0.6122 H   0  0  0  0  0  0  0  0  0  0  0  0
    0.2177   -2.1443   -1.1510 H   0  0  0  0  0  0  0  0  0  0  0  0
    0.9864    0.9370    1.6776 H   0  0  0  0  0  0  0  0  0  0  0  0
    0.7523   -0.8760    2.0536 H   0  0  0  0  0  0  0  0  0  0  0  0
    1.7097   -0.3752   -1.5140 H   0  0  0  0  0  0  0  0  0  0  0  0
    1.2725    2.2506   -1.3442 H   0  0  0  0  0  0  0  0  0  0  0  0
  1  2  1  0
  2  3  1  0
  3  4  1  0
  3  5  1  0
  5  6  1  0
  6  7  1  0
  7  8  1  0
  8  9  2  0
  7  3  1  0
  1 10  1  0
  1 11  1  0
  1 12  1  0
  2 13  1  0
  2 14  1  0
  4 15  1  0
  4 16  1  0
  4 17  1  0
  5 18  1  0
  5 19  1  0
  7 20  1  0
  8 21  1  0
M  END
