
     RDKit          3D

 21 22  0  0  0  0  0  0  0  0999 V2000
   -2.0005   -1.1139    0.0920 C   0  0  0  0  0  0  0  0  0  0  0  0
   -1.4919    0.2550   -0.2620 C   0  0  0  0  0  0  0  0  0  0  0  0
    0.0011    0.3942   -0.1200 C   0  0  0  0  0  0  0  0  0  0  0  0
    0.4993    1.7936   -0.4851 C   0  0  0  0  0  0  0  0  0  0  0  0
   -0.0890    2.7575    0.3443 O   0  0  0  0  0  0  0  0  0  0  0  0
    0.8412   -0.7356   -0.5220 C   0  0  0  0  0  0  0  0  0  0  0  0
    2.2454   -0.9252   -0.0124 C   0  0  0  0  0  0  0  0  0  0  0  0
    2.0679   -0.0753    1.0504 O   0  0  0  0  0  0  0  0  0  0  0  0
    0.6828   -0.3314    0.9528 C   0  0  0  0  0  0  0  0  0  0  0  0
   -1.6561   -1.8387   -0.6877 H   0  0  0  0  0  0  0  0  0  0  0  0
   -3.1224   -1.0552    0.0797 H   0  0  0  0  0  0  0  0  0  0  0  0
   -1.6712   -1.4823    1.0686 H   0  0  0  0  0  0  0  0  0  0  0  0
   -1.7126    0.3972   -1.3596 H   0  0  0  0  0  0  0  0  0  0  0  0
   -2.0469    1.0669    0.2464 H   0  0  0  0  0  0  0  0  0  0  0  0
    1.6059    1.8410   -0.4235 H   0  0  0  0  0  0  0  0  0  0  0  0
    0.2149    2.0657   -1.5216 H   0  0  0  0  0  0  0  0  0  0  0  0
   -0.3796    2.2783    1.1735 H   0  0  0  0  0  0  0  0  0  0  0  0
    0.3634   -1.6509   -0.8765 H   0  0  0  0  0  0  0  0  0  0  0  0
    2.4107   -1.9661    0.3637 H   0  0  0  0  0  0  0  0  0  0  0  0
    3.0137   -0.6506   -0.7512 H   0  0  0  0  0  0  0  0  0  0  0  0
    0.2238   -1.0244    1.6504 H   0  0  0  0  0  0  0  0  0  0  0  0
  1  2  1  0
  2  3  1  0
  3  4  1  0
  4  5  1  0
  3  6  1  0
  6  7  1  0
  7  8  1  0
  8  9  1  0
  9  3  1  0
  9  6  1  0
  1 10  1  0
  1 11  1  0
  1 12  1  0
  2 13  1  0
  2 14  1  0
  4 15  1  0
  4 16  1  0
  5 17  1  0
  6 18  1  0
  7 19  1  0
  7 20  1  0
  9 21  1  0
M  END
