
     RDKit          3D

 23 24  0  0  0  0  0  0  0  0999 V2000
    1.9733    1.4543   -0.2706 C   0  0  0  0  0  0  0  0  0  0  0  0
    1.8079   -0.0360   -0.3048 C   0  0  0  0  0  0  0  0  0  0  0  0
    0.6290   -0.4266    0.5244 C   0  0  0  0  0  0  0  0  0  0  0  0
    0.3504   -1.9163    0.5739 C   0  0  0  0  0  0  0  0  0  0  0  0
   -1.1394   -1.5441    0.5759 C   0  0  0  0  0  0  0  0  0  0  0  0
   -0.7196   -0.2179    0.0194 C   0  0  0  0  0  0  0  0  0  0  0  0
   -1.1827    0.2385   -1.2527 C   0  0  0  0  0  0  0  0  0  0  0  0
   -1.5017    0.9941    0.0665 C   0  0  0  0  0  0  0  0  0  0  0  0
   -2.8256    0.9904    0.4841 O   0  0  0  0  0  0  0  0  0  0  0  0
    1.5944    1.8065    0.7230 H   0  0  0  0  0  0  0  0  0  0  0  0
    1.3964    1.9421   -1.0801 H   0  0  0  0  0  0  0  0  0  0  0  0
    3.0387    1.7621   -0.3125 H   0  0  0  0  0  0  0  0  0  0  0  0
    2.7211   -0.4608    0.2079 H   0  0  0  0  0  0  0  0  0  0  0  0
    1.8108   -0.4689   -1.3154 H   0  0  0  0  0  0  0  0  0  0  0  0
    0.7689   -0.0557    1.5723 H   0  0  0  0  0  0  0  0  0  0  0  0
    0.6804   -2.4215    1.4972 H   0  0  0  0  0  0  0  0  0  0  0  0
    0.6121   -2.4518   -0.3557 H   0  0  0  0  0  0  0  0  0  0  0  0
   -1.5408   -1.4174    1.6109 H   0  0  0  0  0  0  0  0  0  0  0  0
   -1.7578   -2.1760   -0.0943 H   0  0  0  0  0  0  0  0  0  0  0  0
   -0.6143    0.7878   -2.0177 H   0  0  0  0  0  0  0  0  0  0  0  0
   -2.0867   -0.2729   -1.6965 H   0  0  0  0  0  0  0  0  0  0  0  0
   -0.9351    1.9658    0.1486 H   0  0  0  0  0  0  0  0  0  0  0  0
   -3.0797    1.9242    0.6963 H   0  0  0  0  0  0  0  0  0  0  0  0
  1  2  1  0
  2  3  1  0
  3  4  1  0
  4  5  1  0
  5  6  1  0
  6  7  1  0
  7  8  1  0
  8  9  1  0
  6  3  1  0
  8  6  1  0
  1 10  1  0
  1 11  1  0
  1 12  1  0
  2 13  1  0
  2 14  1  0
  3 15  1  0
  4 16  1  0
  4 17  1  0
  5 18  1  0
  5 19  1  0
  7 20  1  0
  7 21  1  0
  8 22  1  0
  9 23  1  0
M  END
