
     RDKit          3D

 25 25  0  0  0  0  0  0  0  0999 V2000
    2.5830    0.7941    0.5397 C   0  0  0  0  0  0  0  0  0  0  0  0
    1.3841    0.7697   -0.3411 C   0  0  0  0  0  0  0  0  0  0  0  0
    0.2952   -0.1430    0.1010 C   0  0  0  0  0  0  0  0  0  0  0  0
    0.8073   -1.5438    0.1589 C   0  0  0  0  0  0  0  0  0  0  0  0
   -0.3388    0.1940    1.2582 O   0  0  0  0  0  0  0  0  0  0  0  0
   -1.4913   -0.5882    1.2779 C   0  0  0  0  0  0  0  0  0  0  0  0
   -1.8979   -0.8327   -0.1416 C   0  0  0  0  0  0  0  0  0  0  0  0
   -0.8507   -0.0141   -0.9028 C   0  0  0  0  0  0  0  0  0  0  0  0
   -1.3531    1.3962   -0.9423 C   0  0  0  0  0  0  0  0  0  0  0  0
    3.4604    0.2559    0.0739 H   0  0  0  0  0  0  0  0  0  0  0  0
    2.4459    0.3309    1.5275 H   0  0  0  0  0  0  0  0  0  0  0  0
    2.9343    1.8374    0.6844 H   0  0  0  0  0  0  0  0  0  0  0  0
    1.7067    0.4496   -1.3578 H   0  0  0  0  0  0  0  0  0  0  0  0
    1.0049    1.8241   -0.4876 H   0  0  0  0  0  0  0  0  0  0  0  0
    1.5971   -1.5905    0.9276 H   0  0  0  0  0  0  0  0  0  0  0  0
    0.0276   -2.2833    0.4734 H   0  0  0  0  0  0  0  0  0  0  0  0
    1.2624   -1.8640   -0.8005 H   0  0  0  0  0  0  0  0  0  0  0  0
   -2.3189   -0.0242    1.7691 H   0  0  0  0  0  0  0  0  0  0  0  0
   -1.3676   -1.5308    1.8351 H   0  0  0  0  0  0  0  0  0  0  0  0
   -2.8814   -0.4159   -0.4108 H   0  0  0  0  0  0  0  0  0  0  0  0
   -1.8133   -1.8876   -0.4590 H   0  0  0  0  0  0  0  0  0  0  0  0
   -0.6052   -0.4376   -1.8702 H   0  0  0  0  0  0  0  0  0  0  0  0
   -2.4791    1.4461   -0.8654 H   0  0  0  0  0  0  0  0  0  0  0  0
   -0.9888    2.0263   -0.1058 H   0  0  0  0  0  0  0  0  0  0  0  0
   -1.1228    1.8315   -1.9420 H   0  0  0  0  0  0  0  0  0  0  0  0
  1  2  1  0
  2  3  1  0
  3  4  1  0
  3  5  1  0
  5  6  1  0
  6  7  1  0
  7  8  1  0
  8  9  1  0
  8  3  1  0
  1 10  1  0
  1 11  1  0
  1 12  1  0
  2 13  1  0
  2 14  1  0
  4 15  1  0
  4 16  1  0
  4 17  1  0
  6 18  1  0
  6 19  1  0
  7 20  1  0
  7 21  1  0
  8 22  1  0
  9 23  1  0
  9 24  1  0
  9 25  1  0
M  END
