
     RDKit          3D

 22 22  0  0  0  0  0  0  0  0999 V2000
    2.5350   -0.4833   -0.5182 C   0  0  0  0  0  0  0  0  0  0  0  0
    1.2289    0.2764   -0.5822 C   0  0  0  0  0  0  0  0  0  0  0  0
    0.4544    0.1131    0.7049 C   0  0  0  0  0  0  0  0  0  0  0  0
   -0.8634    0.7687    0.8794 C   0  0  0  0  0  0  0  0  0  0  0  0
   -1.2491    1.7729   -0.1601 C   0  0  0  0  0  0  0  0  0  0  0  0
   -0.8092   -0.6739    0.6216 C   0  0  0  0  0  0  0  0  0  0  0  0
   -1.2623   -1.2816   -0.6704 C   0  0  0  0  0  0  0  0  0  0  0  0
   -0.9873   -1.5443    1.7209 O   0  0  0  0  0  0  0  0  0  0  0  0
    2.3110   -1.5535   -0.3056 H   0  0  0  0  0  0  0  0  0  0  0  0
    3.1290   -0.0172    0.3109 H   0  0  0  0  0  0  0  0  0  0  0  0
    3.0666   -0.4306   -1.4651 H   0  0  0  0  0  0  0  0  0  0  0  0
    0.6637   -0.1618   -1.4513 H   0  0  0  0  0  0  0  0  0  0  0  0
    1.4533    1.3127   -0.8359 H   0  0  0  0  0  0  0  0  0  0  0  0
    1.0903    0.0635    1.6113 H   0  0  0  0  0  0  0  0  0  0  0  0
   -1.1603    1.0816    1.9214 H   0  0  0  0  0  0  0  0  0  0  0  0
   -1.1935    1.4245   -1.1892 H   0  0  0  0  0  0  0  0  0  0  0  0
   -0.5181    2.6300   -0.0791 H   0  0  0  0  0  0  0  0  0  0  0  0
   -2.2653    2.2082    0.0131 H   0  0  0  0  0  0  0  0  0  0  0  0
   -1.4197   -0.5811   -1.4851 H   0  0  0  0  0  0  0  0  0  0  0  0
   -0.5367   -2.0562   -1.0484 H   0  0  0  0  0  0  0  0  0  0  0  0
   -2.2644   -1.7611   -0.4680 H   0  0  0  0  0  0  0  0  0  0  0  0
   -1.4027   -1.1068    2.4753 H   0  0  0  0  0  0  0  0  0  0  0  0
  1  2  1  0
  2  3  1  0
  3  4  1  0
  4  5  1  0
  4  6  1  0
  6  7  1  0
  6  8  1  0
  6  3  1  0
  1  9  1  0
  1 10  1  0
  1 11  1  0
  2 12  1  0
  2 13  1  0
  3 14  1  0
  4 15  1  0
  5 16  1  0
  5 17  1  0
  5 18  1  0
  7 19  1  0
  7 20  1  0
  7 21  1  0
  8 22  1  0
M  END
