
     RDKit          3D

 18 19  0  0  0  0  0  0  0  0999 V2000
    1.9918   -0.4111    0.2548 C   0  0  0  0  0  0  0  0  0  0  0  0
    1.1189    0.7954    0.4408 C   0  0  0  0  0  0  0  0  0  0  0  0
   -0.3286    0.5341    0.2084 C   0  0  0  0  0  0  0  0  0  0  0  0
   -1.0811    1.6845    0.3952 O   0  0  0  0  0  0  0  0  0  0  0  0
   -0.7079   -0.3453   -0.9249 C   0  0  0  0  0  0  0  0  0  0  0  0
   -2.0070   -0.6154   -0.2251 C   0  0  0  0  0  0  0  0  0  0  0  0
   -0.9032   -0.7145    0.7840 C   0  0  0  0  0  0  0  0  0  0  0  0
   -0.1975   -1.4073   -0.1904 O   0  0  0  0  0  0  0  0  0  0  0  0
    3.0531   -0.0586    0.4144 H   0  0  0  0  0  0  0  0  0  0  0  0
    1.8185   -1.2106    0.9885 H   0  0  0  0  0  0  0  0  0  0  0  0
    1.9765   -0.7719   -0.7990 H   0  0  0  0  0  0  0  0  0  0  0  0
    1.4750    1.5892   -0.2365 H   0  0  0  0  0  0  0  0  0  0  0  0
    1.2564    1.1276    1.5063 H   0  0  0  0  0  0  0  0  0  0  0  0
   -0.7430    2.3450   -0.2847 H   0  0  0  0  0  0  0  0  0  0  0  0
   -0.5802   -0.1846   -1.9127 H   0  0  0  0  0  0  0  0  0  0  0  0
   -2.7079    0.2099   -0.1361 H   0  0  0  0  0  0  0  0  0  0  0  0
   -2.4422   -1.6011   -0.5197 H   0  0  0  0  0  0  0  0  0  0  0  0
   -0.9918   -0.9653    1.7555 H   0  0  0  0  0  0  0  0  0  0  0  0
  1  2  1  0
  2  3  1  0
  3  4  1  0
  3  5  1  0
  5  6  1  0
  6  7  1  0
  7  8  1  0
  7  3  1  0
  8  5  1  0
  1  9  1  0
  1 10  1  0
  1 11  1  0
  2 12  1  0
  2 13  1  0
  4 14  1  0
  5 15  1  0
  6 16  1  0
  6 17  1  0
  7 18  1  0
M  END
