
     RDKit          3D

 21 23  0  0  0  0  0  0  0  0999 V2000
    2.3322   -0.0498    0.5587 C   0  0  0  0  0  0  0  0  0  0  0  0
    1.2257   -0.9767    0.1456 C   0  0  0  0  0  0  0  0  0  0  0  0
    0.2526   -0.2344   -0.7132 C   0  0  0  0  0  0  0  0  0  0  0  0
   -0.9287   -1.0779   -1.2012 C   0  0  0  0  0  0  0  0  0  0  0  0
   -1.9867   -1.0680   -0.1593 C   0  0  0  0  0  0  0  0  0  0  0  0
   -1.4719   -0.4990    1.0367 O   0  0  0  0  0  0  0  0  0  0  0  0
   -0.7962    0.4137    0.2044 C   0  0  0  0  0  0  0  0  0  0  0  0
   -0.4405    1.7095    0.7469 C   0  0  0  0  0  0  0  0  0  0  0  0
   -1.7813    0.1744   -0.8110 C   0  0  0  0  0  0  0  0  0  0  0  0
    1.9326    0.5833    1.3903 H   0  0  0  0  0  0  0  0  0  0  0  0
    3.1753   -0.6959    0.9224 H   0  0  0  0  0  0  0  0  0  0  0  0
    2.6244    0.5753   -0.3045 H   0  0  0  0  0  0  0  0  0  0  0  0
    1.5836   -1.8651   -0.4126 H   0  0  0  0  0  0  0  0  0  0  0  0
    0.7620   -1.3654    1.0757 H   0  0  0  0  0  0  0  0  0  0  0  0
    0.6370    0.5012   -1.4060 H   0  0  0  0  0  0  0  0  0  0  0  0
   -1.0566   -1.3292   -2.2316 H   0  0  0  0  0  0  0  0  0  0  0  0
   -2.8326   -1.7278   -0.1293 H   0  0  0  0  0  0  0  0  0  0  0  0
    0.4578    2.1107    0.2711 H   0  0  0  0  0  0  0  0  0  0  0  0
   -0.1903    1.6074    1.8436 H   0  0  0  0  0  0  0  0  0  0  0  0
   -1.2368    2.4767    0.7075 H   0  0  0  0  0  0  0  0  0  0  0  0
   -2.2615    0.7370   -1.5344 H   0  0  0  0  0  0  0  0  0  0  0  0
  1  2  1  0
  2  3  1  0
  3  4  1  0
  4  5  1  0
  5  6  1  0
  6  7  1  0
  7  8  1  0
  7  9  1  0
  7  3  1  0
  9  4  1  0
  9  5  1  0
  1 10  1  0
  1 11  1  0
  1 12  1  0
  2 13  1  0
  2 14  1  0
  3 15  1  0
  4 16  1  0
  5 17  1  0
  8 18  1  0
  8 19  1  0
  8 20  1  0
  9 21  1  0
M  END
