
     RDKit          3D

 19 20  0  0  0  0  0  0  0  0999 V2000
    2.3145    0.5001   -0.3135 C   0  0  0  0  0  0  0  0  0  0  0  0
    1.1721   -0.4383   -0.7024 C   0  0  0  0  0  0  0  0  0  0  0  0
    0.1408   -0.3251    0.3814 C   0  0  0  0  0  0  0  0  0  0  0  0
   -1.0985   -1.1908    0.1879 C   0  0  0  0  0  0  0  0  0  0  0  0
   -1.7843   -0.1180    1.0516 C   0  0  0  0  0  0  0  0  0  0  0  0
   -0.8585    0.7985    0.2322 C   0  0  0  0  0  0  0  0  0  0  0  0
   -1.3790    0.5493   -1.1086 C   0  0  0  0  0  0  0  0  0  0  0  0
   -1.5796    1.3979   -2.0037 O   0  0  0  0  0  0  0  0  0  0  0  0
   -1.5757   -0.8412   -1.0963 O   0  0  0  0  0  0  0  0  0  0  0  0
    2.6619    1.0669   -1.2091 H   0  0  0  0  0  0  0  0  0  0  0  0
    3.1447   -0.0588    0.1798 H   0  0  0  0  0  0  0  0  0  0  0  0
    1.9603    1.2703    0.4067 H   0  0  0  0  0  0  0  0  0  0  0  0
    0.7959   -0.2376   -1.7026 H   0  0  0  0  0  0  0  0  0  0  0  0
    1.6069   -1.4593   -0.7095 H   0  0  0  0  0  0  0  0  0  0  0  0
    0.5192   -0.3893    1.3986 H   0  0  0  0  0  0  0  0  0  0  0  0
   -1.1016   -2.1822    0.5240 H   0  0  0  0  0  0  0  0  0  0  0  0
   -2.8457    0.0179    0.8459 H   0  0  0  0  0  0  0  0  0  0  0  0
   -1.4428   -0.1170    2.0840 H   0  0  0  0  0  0  0  0  0  0  0  0
   -0.6506    1.7567    0.6015 H   0  0  0  0  0  0  0  0  0  0  0  0
  1  2  1  0
  2  3  1  0
  3  4  1  0
  4  5  1  0
  5  6  1  0
  6  7  1  0
  7  8  2  0
  7  9  1  0
  6  3  1  0
  9  4  1  0
  1 10  1  0
  1 11  1  0
  1 12  1  0
  2 13  1  0
  2 14  1  0
  3 15  1  0
  4 16  1  0
  5 17  1  0
  5 18  1  0
  6 19  1  0
M  END
