
     RDKit          3D

 20 20  0  0  0  0  0  0  0  0999 V2000
    2.5513    0.3243    0.2709 C   0  0  0  0  0  0  0  0  0  0  0  0
    1.5713   -0.7896   -0.0510 C   0  0  0  0  0  0  0  0  0  0  0  0
    0.1944   -0.2917   -0.1467 C   0  0  0  0  0  0  0  0  0  0  0  0
   -0.0897    0.9781    0.0352 C   0  0  0  0  0  0  0  0  0  0  0  0
   -1.4540    1.5516   -0.0459 C   0  0  0  0  0  0  0  0  0  0  0  0
   -2.4267    0.6372   -0.3283 O   0  0  0  0  0  0  0  0  0  0  0  0
   -2.1826   -0.6405    0.1249 C   0  0  0  0  0  0  0  0  0  0  0  0
   -0.9084   -1.2303   -0.4544 C   0  0  0  0  0  0  0  0  0  0  0  0
    3.5696   -0.0593    0.3313 H   0  0  0  0  0  0  0  0  0  0  0  0
    2.5061    1.0752   -0.5503 H   0  0  0  0  0  0  0  0  0  0  0  0
    2.3059    0.7992    1.2361 H   0  0  0  0  0  0  0  0  0  0  0  0
    1.9373   -1.2561   -0.9970 H   0  0  0  0  0  0  0  0  0  0  0  0
    1.6580   -1.5724    0.7278 H   0  0  0  0  0  0  0  0  0  0  0  0
    0.7182    1.6737    0.2620 H   0  0  0  0  0  0  0  0  0  0  0  0
   -1.4295    2.2969   -0.8899 H   0  0  0  0  0  0  0  0  0  0  0  0
   -1.6188    2.1422    0.8768 H   0  0  0  0  0  0  0  0  0  0  0  0
   -2.1692   -0.7336    1.2196 H   0  0  0  0  0  0  0  0  0  0  0  0
   -3.0116   -1.2860   -0.2389 H   0  0  0  0  0  0  0  0  0  0  0  0
   -0.7081   -2.1641    0.1461 H   0  0  0  0  0  0  0  0  0  0  0  0
   -1.0134   -1.4549   -1.5283 H   0  0  0  0  0  0  0  0  0  0  0  0
  1  2  1  0
  2  3  1  0
  3  4  2  0
  4  5  1  0
  5  6  1  0
  6  7  1  0
  7  8  1  0
  8  3  1  0
  1  9  1  0
  1 10  1  0
  1 11  1  0
  2 12  1  0
  2 13  1  0
  4 14  1  0
  5 15  1  0
  5 16  1  0
  7 17  1  0
  7 18  1  0
  8 19  1  0
  8 20  1  0
M  END
