
     RDKit          3D

 21 22  0  0  0  0  0  0  0  0999 V2000
   -2.0481   -0.8151   -0.8428 C   0  0  0  0  0  0  0  0  0  0  0  0
   -1.5764    0.2925    0.0474 C   0  0  0  0  0  0  0  0  0  0  0  0
   -0.1074    0.3703    0.2255 C   0  0  0  0  0  0  0  0  0  0  0  0
    0.2789    1.5082    1.1322 C   0  0  0  0  0  0  0  0  0  0  0  0
    0.6402   -0.9049    0.3966 C   0  0  0  0  0  0  0  0  0  0  0  0
    0.3924   -1.1547   -0.9429 O   0  0  0  0  0  0  0  0  0  0  0  0
    0.7548    0.1842   -0.9802 C   0  0  0  0  0  0  0  0  0  0  0  0
    1.8735   -0.1737   -0.0572 C   0  0  0  0  0  0  0  0  0  0  0  0
    2.8700   -0.9836   -0.5964 O   0  0  0  0  0  0  0  0  0  0  0  0
   -3.1682   -0.7526   -0.8714 H   0  0  0  0  0  0  0  0  0  0  0  0
   -1.8039   -1.8208   -0.5006 H   0  0  0  0  0  0  0  0  0  0  0  0
   -1.7006   -0.6071   -1.8952 H   0  0  0  0  0  0  0  0  0  0  0  0
   -1.9732    1.2432   -0.3554 H   0  0  0  0  0  0  0  0  0  0  0  0
   -2.0463    0.1713    1.0535 H   0  0  0  0  0  0  0  0  0  0  0  0
    0.9727    2.2280    0.6732 H   0  0  0  0  0  0  0  0  0  0  0  0
    0.6846    1.0508    2.0680 H   0  0  0  0  0  0  0  0  0  0  0  0
   -0.6214    2.0975    1.4531 H   0  0  0  0  0  0  0  0  0  0  0  0
    0.5826   -1.5624    1.1570 H   0  0  0  0  0  0  0  0  0  0  0  0
    0.7996    0.7733   -1.7969 H   0  0  0  0  0  0  0  0  0  0  0  0
    2.2486    0.6204    0.6084 H   0  0  0  0  0  0  0  0  0  0  0  0
    2.9475   -1.7648    0.0241 H   0  0  0  0  0  0  0  0  0  0  0  0
  1  2  1  0
  2  3  1  0
  3  4  1  0
  3  5  1  0
  5  6  1  0
  6  7  1  0
  7  8  1  0
  8  9  1  0
  7  3  1  0
  8  5  1  0
  1 10  1  0
  1 11  1  0
  1 12  1  0
  2 13  1  0
  2 14  1  0
  4 15  1  0
  4 16  1  0
  4 17  1  0
  5 18  1  0
  7 19  1  0
  8 20  1  0
  9 21  1  0
M  END
