
     RDKit          3D

 21 22  0  0  0  0  0  0  0  0999 V2000
    2.5497    0.4855    0.2931 C   0  0  0  0  0  0  0  0  0  0  0  0
    1.5792   -0.6388    0.1647 C   0  0  0  0  0  0  0  0  0  0  0  0
    0.1557   -0.0874    0.3370 C   0  0  0  0  0  0  0  0  0  0  0  0
   -0.7526   -1.2916    0.1921 C   0  0  0  0  0  0  0  0  0  0  0  0
   -2.1480   -0.8416    0.1623 C   0  0  0  0  0  0  0  0  0  0  0  0
   -2.4431    0.2593   -0.5206 C   0  0  0  0  0  0  0  0  0  0  0  0
   -1.4178    1.0409   -1.2470 C   0  0  0  0  0  0  0  0  0  0  0  0
   -0.8548    2.0649   -0.4271 O   0  0  0  0  0  0  0  0  0  0  0  0
   -0.0907    0.9433   -0.7444 C   0  0  0  0  0  0  0  0  0  0  0  0
    2.6611    0.9657   -0.6910 H   0  0  0  0  0  0  0  0  0  0  0  0
    3.5273    0.1372    0.7107 H   0  0  0  0  0  0  0  0  0  0  0  0
    2.1177    1.2668    0.9792 H   0  0  0  0  0  0  0  0  0  0  0  0
    1.7594   -1.4705    0.8740 H   0  0  0  0  0  0  0  0  0  0  0  0
    1.5755   -1.1046   -0.8498 H   0  0  0  0  0  0  0  0  0  0  0  0
    0.0058    0.3195    1.3432 H   0  0  0  0  0  0  0  0  0  0  0  0
   -0.5111   -1.7496   -0.8070 H   0  0  0  0  0  0  0  0  0  0  0  0
   -0.5193   -1.9754    1.0228 H   0  0  0  0  0  0  0  0  0  0  0  0
   -2.8970   -1.4198    0.6978 H   0  0  0  0  0  0  0  0  0  0  0  0
   -3.4654    0.6132   -0.5588 H   0  0  0  0  0  0  0  0  0  0  0  0
   -1.5942    1.3020   -2.3079 H   0  0  0  0  0  0  0  0  0  0  0  0
    0.7625    1.1808   -1.4065 H   0  0  0  0  0  0  0  0  0  0  0  0
  1  2  1  0
  2  3  1  0
  3  4  1  0
  4  5  1  0
  5  6  2  0
  6  7  1  0
  7  8  1  0
  8  9  1  0
  9  3  1  0
  9  7  1  0
  1 10  1  0
  1 11  1  0
  1 12  1  0
  2 13  1  0
  2 14  1  0
  3 15  1  0
  4 16  1  0
  4 17  1  0
  5 18  1  0
  6 19  1  0
  7 20  1  0
  9 21  1  0
M  END
