
     RDKit          3D

 23 24  0  0  0  0  0  0  0  0999 V2000
    2.7805    0.8224    0.3596 C   0  0  0  0  0  0  0  0  0  0  0  0
    2.0820   -0.2202   -0.4838 C   0  0  0  0  0  0  0  0  0  0  0  0
    0.6479   -0.3621   -0.1061 C   0  0  0  0  0  0  0  0  0  0  0  0
    0.1384    0.3941    0.8795 C   0  0  0  0  0  0  0  0  0  0  0  0
   -1.2785    0.1397    1.1318 C   0  0  0  0  0  0  0  0  0  0  0  0
   -2.4711    0.8129    0.8130 C   0  0  0  0  0  0  0  0  0  0  0  0
   -1.8444    0.2721   -0.3307 C   0  0  0  0  0  0  0  0  0  0  0  0
   -1.6522   -1.0749   -0.8573 C   0  0  0  0  0  0  0  0  0  0  0  0
   -0.1517   -1.3616   -0.8651 C   0  0  0  0  0  0  0  0  0  0  0  0
    2.7414    0.5296    1.4180 H   0  0  0  0  0  0  0  0  0  0  0  0
    3.8533    0.8722    0.0828 H   0  0  0  0  0  0  0  0  0  0  0  0
    2.2942    1.8011    0.2107 H   0  0  0  0  0  0  0  0  0  0  0  0
    2.1810    0.0911   -1.5365 H   0  0  0  0  0  0  0  0  0  0  0  0
    2.5887   -1.2027   -0.3868 H   0  0  0  0  0  0  0  0  0  0  0  0
    0.7821    1.0932    1.3811 H   0  0  0  0  0  0  0  0  0  0  0  0
   -1.3836   -0.8810    1.6108 H   0  0  0  0  0  0  0  0  0  0  0  0
   -2.5737    1.9320    0.9055 H   0  0  0  0  0  0  0  0  0  0  0  0
   -3.4489    0.3564    1.1476 H   0  0  0  0  0  0  0  0  0  0  0  0
   -1.3284    1.0257   -1.0004 H   0  0  0  0  0  0  0  0  0  0  0  0
   -2.1104   -1.8206   -0.1755 H   0  0  0  0  0  0  0  0  0  0  0  0
   -2.1056   -1.2561   -1.8558 H   0  0  0  0  0  0  0  0  0  0  0  0
    0.0726   -2.3513   -0.4246 H   0  0  0  0  0  0  0  0  0  0  0  0
    0.1864   -1.3310   -1.9178 H   0  0  0  0  0  0  0  0  0  0  0  0
  1  2  1  0
  2  3  1  0
  3  4  2  0
  4  5  1  0
  5  6  1  0
  6  7  1  0
  7  8  1  0
  8  9  1  0
  9  3  1  0
  7  5  1  0
  1 10  1  0
  1 11  1  0
  1 12  1  0
  2 13  1  0
  2 14  1  0
  4 15  1  0
  5 16  1  0
  6 17  1  0
  6 18  1  0
  7 19  1  0
  8 20  1  0
  8 21  1  0
  9 22  1  0
  9 23  1  0
M  END
