
     RDKit          3D

 23 23  0  0  0  0  0  0  0  0999 V2000
    2.7972   -0.2723    0.1516 C   0  0  0  0  0  0  0  0  0  0  0  0
    1.7605    0.6601   -0.4558 C   0  0  0  0  0  0  0  0  0  0  0  0
    0.4202   -0.0063   -0.2743 C   0  0  0  0  0  0  0  0  0  0  0  0
    0.1147   -0.2346    1.1549 C   0  0  0  0  0  0  0  0  0  0  0  0
   -1.0748   -0.7158    1.4723 C   0  0  0  0  0  0  0  0  0  0  0  0
   -2.0277   -0.9958    0.3687 C   0  0  0  0  0  0  0  0  0  0  0  0
   -1.9760   -0.0252   -0.7565 C   0  0  0  0  0  0  0  0  0  0  0  0
   -0.7020    0.7144   -0.9411 C   0  0  0  0  0  0  0  0  0  0  0  0
   -0.7973    2.0475   -0.5328 O   0  0  0  0  0  0  0  0  0  0  0  0
    3.7425   -0.2545   -0.4647 H   0  0  0  0  0  0  0  0  0  0  0  0
    2.4219   -1.3285    0.0662 H   0  0  0  0  0  0  0  0  0  0  0  0
    2.9751    0.0238    1.1901 H   0  0  0  0  0  0  0  0  0  0  0  0
    1.8021    1.6732   -0.0498 H   0  0  0  0  0  0  0  0  0  0  0  0
    1.9434    0.6864   -1.5708 H   0  0  0  0  0  0  0  0  0  0  0  0
    0.5018   -1.0126   -0.7526 H   0  0  0  0  0  0  0  0  0  0  0  0
    0.8557   -0.0085    1.9041 H   0  0  0  0  0  0  0  0  0  0  0  0
   -1.3267   -0.8936    2.5169 H   0  0  0  0  0  0  0  0  0  0  0  0
   -3.0474   -1.0006    0.8355 H   0  0  0  0  0  0  0  0  0  0  0  0
   -1.8756   -2.0613    0.0258 H   0  0  0  0  0  0  0  0  0  0  0  0
   -2.8003    0.7177   -0.6037 H   0  0  0  0  0  0  0  0  0  0  0  0
   -2.2597   -0.5823   -1.6924 H   0  0  0  0  0  0  0  0  0  0  0  0
   -0.4871    0.7644   -2.0492 H   0  0  0  0  0  0  0  0  0  0  0  0
   -0.9606    2.1042    0.4575 H   0  0  0  0  0  0  0  0  0  0  0  0
  1  2  1  0
  2  3  1  0
  3  4  1  0
  4  5  2  0
  5  6  1  0
  6  7  1  0
  7  8  1  0
  8  9  1  0
  8  3  1  0
  1 10  1  0
  1 11  1  0
  1 12  1  0
  2 13  1  0
  2 14  1  0
  3 15  1  0
  4 16  1  0
  5 17  1  0
  6 18  1  0
  6 19  1  0
  7 20  1  0
  7 21  1  0
  8 22  1  0
  9 23  1  0
M  END
