
     RDKit          3D

 17 18  0  0  0  0  0  0  0  0999 V2000
    2.0930   -0.3148    0.1217 C   0  0  0  0  0  0  0  0  0  0  0  0
    1.2530    0.4665   -0.8160 C   0  0  0  0  0  0  0  0  0  0  0  0
   -0.2242    0.3008   -0.6191 C   0  0  0  0  0  0  0  0  0  0  0  0
   -0.6802   -1.0064   -0.7674 O   0  0  0  0  0  0  0  0  0  0  0  0
   -1.9559   -1.0577   -0.2238 C   0  0  0  0  0  0  0  0  0  0  0  0
   -2.9587   -1.7457   -0.5738 O   0  0  0  0  0  0  0  0  0  0  0  0
   -1.9626   -0.1115    0.9148 C   0  0  0  0  0  0  0  0  0  0  0  0
   -2.0230    1.2447    0.7057 O   0  0  0  0  0  0  0  0  0  0  0  0
   -0.7255    0.7376    0.7083 C   0  0  0  0  0  0  0  0  0  0  0  0
    1.7021   -0.4364    1.1328 H   0  0  0  0  0  0  0  0  0  0  0  0
    3.0749    0.2336    0.2342 H   0  0  0  0  0  0  0  0  0  0  0  0
    2.3953   -1.3182   -0.2971 H   0  0  0  0  0  0  0  0  0  0  0  0
    1.4917    1.5324   -0.7355 H   0  0  0  0  0  0  0  0  0  0  0  0
    1.4849    0.1583   -1.8608 H   0  0  0  0  0  0  0  0  0  0  0  0
   -0.7228    0.9141   -1.4233 H   0  0  0  0  0  0  0  0  0  0  0  0
   -2.1796   -0.5048    1.9349 H   0  0  0  0  0  0  0  0  0  0  0  0
   -0.0623    0.9075    1.5643 H   0  0  0  0  0  0  0  0  0  0  0  0
  1  2  1  0
  2  3  1  0
  3  4  1  0
  4  5  1  0
  5  6  2  0
  5  7  1  0
  7  8  1  0
  8  9  1  0
  9  3  1  0
  9  7  1  0
  1 10  1  0
  1 11  1  0
  1 12  1  0
  2 13  1  0
  2 14  1  0
  3 15  1  0
  7 16  1  0
  9 17  1  0
M  END
