
     RDKit          3D

 19 21  0  0  0  0  0  0  0  0999 V2000
    2.4227   -0.2382   -0.5908 C   0  0  0  0  0  0  0  0  0  0  0  0
    1.4504    0.1206    0.5292 C   0  0  0  0  0  0  0  0  0  0  0  0
    0.0622    0.0885    0.0274 C   0  0  0  0  0  0  0  0  0  0  0  0
   -0.5258   -1.1569   -0.5351 C   0  0  0  0  0  0  0  0  0  0  0  0
   -1.8654   -1.0954   -0.3993 C   0  0  0  0  0  0  0  0  0  0  0  0
   -2.2470    0.2000    0.2642 C   0  0  0  0  0  0  0  0  0  0  0  0
   -2.0395    1.2624   -0.6010 O   0  0  0  0  0  0  0  0  0  0  0  0
   -0.6853    1.3225   -0.3218 C   0  0  0  0  0  0  0  0  0  0  0  0
   -0.9713    0.5703    0.9379 C   0  0  0  0  0  0  0  0  0  0  0  0
    3.3847   -0.4859   -0.0967 H   0  0  0  0  0  0  0  0  0  0  0  0
    1.9742   -1.1235   -1.1030 H   0  0  0  0  0  0  0  0  0  0  0  0
    2.5226    0.6316   -1.2930 H   0  0  0  0  0  0  0  0  0  0  0  0
    1.7310    1.0312    1.0635 H   0  0  0  0  0  0  0  0  0  0  0  0
    1.5623   -0.7163    1.2783 H   0  0  0  0  0  0  0  0  0  0  0  0
    0.0001   -1.9959   -0.9867 H   0  0  0  0  0  0  0  0  0  0  0  0
   -2.6095   -1.8217   -0.6958 H   0  0  0  0  0  0  0  0  0  0  0  0
   -3.1625    0.1809    0.8415 H   0  0  0  0  0  0  0  0  0  0  0  0
   -0.1327    2.2593   -0.3324 H   0  0  0  0  0  0  0  0  0  0  0  0
   -0.8711    0.9663    1.9191 H   0  0  0  0  0  0  0  0  0  0  0  0
  1  2  1  0
  2  3  1  0
  3  4  1  0
  4  5  2  0
  5  6  1  0
  6  7  1  0
  7  8  1  0
  8  9  1  0
  8  3  1  0
  9  3  1  0
  9  6  1  0
  1 10  1  0
  1 11  1  0
  1 12  1  0
  2 13  1  0
  2 14  1  0
  4 15  1  0
  5 16  1  0
  6 17  1  0
  8 18  1  0
  9 19  1  0
M  END
