
     RDKit          3D

 16 16  0  0  0  0  0  0  0  0999 V2000
   -2.0191   -0.3635   -0.2473 C   0  0  0  0  0  0  0  0  0  0  0  0
   -1.0540    0.5852    0.4261 C   0  0  0  0  0  0  0  0  0  0  0  0
    0.3096    0.5186   -0.1691 C   0  0  0  0  0  0  0  0  0  0  0  0
    1.0018   -0.8158   -0.1110 C   0  0  0  0  0  0  0  0  0  0  0  0
    2.1854    0.1541    0.0013 C   0  0  0  0  0  0  0  0  0  0  0  0
    1.2979    0.9821    0.7287 O   0  0  0  0  0  0  0  0  0  0  0  0
   -2.1151   -1.3143    0.3204 H   0  0  0  0  0  0  0  0  0  0  0  0
   -3.0344    0.1226   -0.2658 H   0  0  0  0  0  0  0  0  0  0  0  0
   -1.7606   -0.5698   -1.2939 H   0  0  0  0  0  0  0  0  0  0  0  0
   -1.0253    0.3250    1.5030 H   0  0  0  0  0  0  0  0  0  0  0  0
   -1.4258    1.6225    0.3182 H   0  0  0  0  0  0  0  0  0  0  0  0
    0.4303    1.0761   -1.1174 H   0  0  0  0  0  0  0  0  0  0  0  0
    0.8172   -1.3059    0.8599 H   0  0  0  0  0  0  0  0  0  0  0  0
    0.9866   -1.4295   -1.0036 H   0  0  0  0  0  0  0  0  0  0  0  0
    3.0392   -0.2163    0.5570 H   0  0  0  0  0  0  0  0  0  0  0  0
    2.3663    0.6287   -0.9768 H   0  0  0  0  0  0  0  0  0  0  0  0
  1  2  1  0
  2  3  1  0
  3  4  1  0
  4  5  1  0
  5  6  1  0
  6  3  1  0
  1  7  1  0
  1  8  1  0
  1  9  1  0
  2 10  1  0
  2 11  1  0
  3 12  1  0
  4 13  1  0
  4 14  1  0
  5 15  1  0
  5 16  1  0
M  END
