
     RDKit          3D

 20 20  0  0  0  0  0  0  0  0999 V2000
   -2.0385   -0.5636   -0.4721 C   0  0  0  0  0  0  0  0  0  0  0  0
   -0.6244   -0.1621   -0.9152 C   0  0  0  0  0  0  0  0  0  0  0  0
    0.1778    0.0411    0.3273 C   0  0  0  0  0  0  0  0  0  0  0  0
   -0.3890    1.1329    1.2361 C   0  0  0  0  0  0  0  0  0  0  0  0
   -0.5990    2.2408    0.4089 O   0  0  0  0  0  0  0  0  0  0  0  0
    0.4708   -1.2004    0.9780 O   0  0  0  0  0  0  0  0  0  0  0  0
    1.5141   -0.3856    0.5430 C   0  0  0  0  0  0  0  0  0  0  0  0
    2.3413   -0.8352   -0.6405 C   0  0  0  0  0  0  0  0  0  0  0  0
   -2.0266   -0.9324    0.5831 H   0  0  0  0  0  0  0  0  0  0  0  0
   -2.7166    0.3181   -0.4854 H   0  0  0  0  0  0  0  0  0  0  0  0
   -2.4435   -1.3668   -1.1230 H   0  0  0  0  0  0  0  0  0  0  0  0
   -0.6962    0.8192   -1.4607 H   0  0  0  0  0  0  0  0  0  0  0  0
   -0.2013   -0.8793   -1.6177 H   0  0  0  0  0  0  0  0  0  0  0  0
   -1.3456    0.7898    1.6902 H   0  0  0  0  0  0  0  0  0  0  0  0
    0.3283    1.3352    2.0331 H   0  0  0  0  0  0  0  0  0  0  0  0
   -1.5636    2.4201    0.3541 H   0  0  0  0  0  0  0  0  0  0  0  0
    2.1002    0.0551    1.3635 H   0  0  0  0  0  0  0  0  0  0  0  0
    3.3068   -0.3064   -0.6556 H   0  0  0  0  0  0  0  0  0  0  0  0
    2.5719   -1.9160   -0.5449 H   0  0  0  0  0  0  0  0  0  0  0  0
    1.8333   -0.6045   -1.6023 H   0  0  0  0  0  0  0  0  0  0  0  0
  1  2  1  0
  2  3  1  0
  3  4  1  0
  4  5  1  0
  3  6  1  0
  6  7  1  0
  7  8  1  0
  7  3  1  0
  1  9  1  0
  1 10  1  0
  1 11  1  0
  2 12  1  0
  2 13  1  0
  4 14  1  0
  4 15  1  0
  5 16  1  0
  7 17  1  0
  8 18  1  0
  8 19  1  0
  8 20  1  0
M  END
