
     RDKit          3D

 20 21  0  0  0  0  0  0  0  0999 V2000
   -2.7064   -0.1545    0.2373 C   0  0  0  0  0  0  0  0  0  0  0  0
   -1.5863   -0.2841   -0.7890 C   0  0  0  0  0  0  0  0  0  0  0  0
   -0.3678    0.3802   -0.1906 C   0  0  0  0  0  0  0  0  0  0  0  0
    0.8406    0.3208   -1.1268 C   0  0  0  0  0  0  0  0  0  0  0  0
    1.6607   -0.1058    0.0573 C   0  0  0  0  0  0  0  0  0  0  0  0
    2.7990    0.5236    0.4620 C   0  0  0  0  0  0  0  0  0  0  0  0
    2.7690   -0.8866   -0.0739 O   0  0  0  0  0  0  0  0  0  0  0  0
    0.4303   -0.5208    0.7539 C   0  0  0  0  0  0  0  0  0  0  0  0
   -3.6471    0.1618   -0.3009 H   0  0  0  0  0  0  0  0  0  0  0  0
   -2.9151   -1.1060    0.7452 H   0  0  0  0  0  0  0  0  0  0  0  0
   -2.4766    0.6124    1.0060 H   0  0  0  0  0  0  0  0  0  0  0  0
   -1.3609   -1.3509   -0.9998 H   0  0  0  0  0  0  0  0  0  0  0  0
   -1.8638    0.2432   -1.7257 H   0  0  0  0  0  0  0  0  0  0  0  0
   -0.5406    1.3567    0.2624 H   0  0  0  0  0  0  0  0  0  0  0  0
    0.7224   -0.4172   -1.9292 H   0  0  0  0  0  0  0  0  0  0  0  0
    1.1515    1.3107   -1.5196 H   0  0  0  0  0  0  0  0  0  0  0  0
    3.2038    0.5210    1.5141 H   0  0  0  0  0  0  0  0  0  0  0  0
    3.4083    1.1824   -0.1920 H   0  0  0  0  0  0  0  0  0  0  0  0
    0.1126   -1.5801    0.6612 H   0  0  0  0  0  0  0  0  0  0  0  0
    0.3663   -0.2069    1.8171 H   0  0  0  0  0  0  0  0  0  0  0  0
  1  2  1  0
  2  3  1  0
  3  4  1  0
  4  5  1  0
  5  6  1  0
  6  7  1  0
  5  8  1  0
  8  3  1  0
  7  5  1  0
  1  9  1  0
  1 10  1  0
  1 11  1  0
  2 12  1  0
  2 13  1  0
  3 14  1  0
  4 15  1  0
  4 16  1  0
  6 17  1  0
  6 18  1  0
  8 19  1  0
  8 20  1  0
M  END
