
     RDKit          3D

 15 15  0  0  0  0  0  0  0  0999 V2000
    1.9539    0.3713   -0.1805 C   0  0  0  0  0  0  0  0  0  0  0  0
    0.7314   -0.4340    0.1022 C   0  0  0  0  0  0  0  0  0  0  0  0
   -0.4743    0.0546   -0.6702 C   0  0  0  0  0  0  0  0  0  0  0  0
   -1.6945   -0.7917   -0.3532 C   0  0  0  0  0  0  0  0  0  0  0  0
   -2.4282    0.4206   -0.5152 O   0  0  0  0  0  0  0  0  0  0  0  0
   -1.2928    1.0755    0.0005 C   0  0  0  0  0  0  0  0  0  0  0  0
   -1.1882    2.1009    0.7218 O   0  0  0  0  0  0  0  0  0  0  0  0
    1.9349    0.7518   -1.2148 H   0  0  0  0  0  0  0  0  0  0  0  0
    2.8480   -0.3118   -0.1145 H   0  0  0  0  0  0  0  0  0  0  0  0
    2.1295    1.2040    0.5153 H   0  0  0  0  0  0  0  0  0  0  0  0
    0.9274   -1.4892   -0.2254 H   0  0  0  0  0  0  0  0  0  0  0  0
    0.5400   -0.4344    1.1790 H   0  0  0  0  0  0  0  0  0  0  0  0
   -0.3123    0.1538   -1.7422 H   0  0  0  0  0  0  0  0  0  0  0  0
   -1.7521   -1.0908    0.7269 H   0  0  0  0  0  0  0  0  0  0  0  0
   -1.9227   -1.5806   -1.0769 H   0  0  0  0  0  0  0  0  0  0  0  0
  1  2  1  0
  2  3  1  0
  3  4  1  0
  4  5  1  0
  5  6  1  0
  6  7  2  0
  6  3  1  0
  1  8  1  0
  1  9  1  0
  1 10  1  0
  2 11  1  0
  2 12  1  0
  3 13  1  0
  4 14  1  0
  4 15  1  0
M  END
