
     RDKit          3D

 23 24  0  0  0  0  0  0  0  0999 V2000
    2.6805   -0.1874   -0.2563 C   0  0  0  0  0  0  0  0  0  0  0  0
    1.3116   -0.5245   -0.8069 C   0  0  0  0  0  0  0  0  0  0  0  0
    0.2089   -0.1250    0.1180 C   0  0  0  0  0  0  0  0  0  0  0  0
    0.0846   -0.6568    1.4876 C   0  0  0  0  0  0  0  0  0  0  0  0
   -0.8231   -1.1684    0.4293 C   0  0  0  0  0  0  0  0  0  0  0  0
   -1.9431   -0.3098   -0.0938 C   0  0  0  0  0  0  0  0  0  0  0  0
   -2.5285   -0.8300   -1.2427 O   0  0  0  0  0  0  0  0  0  0  0  0
   -0.8943    0.7467   -0.4322 C   0  0  0  0  0  0  0  0  0  0  0  0
   -1.0348    1.9835    0.4602 C   0  0  0  0  0  0  0  0  0  0  0  0
    3.4047   -0.0432   -1.0898 H   0  0  0  0  0  0  0  0  0  0  0  0
    3.0970   -0.9922    0.3795 H   0  0  0  0  0  0  0  0  0  0  0  0
    2.6169    0.7274    0.3739 H   0  0  0  0  0  0  0  0  0  0  0  0
    1.2759   -1.6167   -0.9795 H   0  0  0  0  0  0  0  0  0  0  0  0
    1.1980    0.0543   -1.7470 H   0  0  0  0  0  0  0  0  0  0  0  0
   -0.2765    0.0493    2.2594 H   0  0  0  0  0  0  0  0  0  0  0  0
    0.8603   -1.3666    1.8245 H   0  0  0  0  0  0  0  0  0  0  0  0
   -0.7544   -2.1834    0.0433 H   0  0  0  0  0  0  0  0  0  0  0  0
   -2.6963    0.0042    0.6420 H   0  0  0  0  0  0  0  0  0  0  0  0
   -1.8694   -1.2866   -1.8235 H   0  0  0  0  0  0  0  0  0  0  0  0
   -0.8016    0.9801   -1.4945 H   0  0  0  0  0  0  0  0  0  0  0  0
   -1.4929    2.7625   -0.1700 H   0  0  0  0  0  0  0  0  0  0  0  0
   -1.6189    1.7185    1.3546 H   0  0  0  0  0  0  0  0  0  0  0  0
   -0.0047    2.2641    0.7640 H   0  0  0  0  0  0  0  0  0  0  0  0
  1  2  1  0
  2  3  1  0
  3  4  1  0
  4  5  1  0
  5  6  1  0
  6  7  1  0
  6  8  1  0
  8  9  1  0
  5  3  1  0
  8  3  1  0
  1 10  1  0
  1 11  1  0
  1 12  1  0
  2 13  1  0
  2 14  1  0
  4 15  1  0
  4 16  1  0
  5 17  1  0
  6 18  1  0
  7 19  1  0
  8 20  1  0
  9 21  1  0
  9 22  1  0
  9 23  1  0
M  END
