
     RDKit          3D

 19 19  0  0  0  0  0  0  0  0999 V2000
   -1.9807   -1.9059   -0.3959 C   0  0  0  0  0  0  0  0  0  0  0  0
   -1.3964   -1.5458    0.9419 C   0  0  0  0  0  0  0  0  0  0  0  0
   -0.3751   -0.4385    0.8446 C   0  0  0  0  0  0  0  0  0  0  0  0
   -0.9150    0.8736    0.2763 C   0  0  0  0  0  0  0  0  0  0  0  0
    0.1046    0.0670   -0.4517 C   0  0  0  0  0  0  0  0  0  0  0  0
    1.4480    0.6752   -0.4992 C   0  0  0  0  0  0  0  0  0  0  0  0
    2.5477    1.1819   -0.5424 C   0  0  0  0  0  0  0  0  0  0  0  0
    3.8624    1.7679   -0.6109 C   0  0  0  0  0  0  0  0  0  0  0  0
    4.3299    2.2023   -1.6964 O   0  0  0  0  0  0  0  0  0  0  0  0
   -2.7228   -1.1384   -0.6955 H   0  0  0  0  0  0  0  0  0  0  0  0
   -1.2303   -2.1314   -1.1574 H   0  0  0  0  0  0  0  0  0  0  0  0
   -2.5859   -2.8441   -0.2295 H   0  0  0  0  0  0  0  0  0  0  0  0
   -0.9003   -2.4116    1.4294 H   0  0  0  0  0  0  0  0  0  0  0  0
   -2.2294   -1.2547    1.6155 H   0  0  0  0  0  0  0  0  0  0  0  0
    0.3372   -0.3476    1.6916 H   0  0  0  0  0  0  0  0  0  0  0  0
   -1.9605    0.8662   -0.1331 H   0  0  0  0  0  0  0  0  0  0  0  0
   -0.6240    1.8156    0.7478 H   0  0  0  0  0  0  0  0  0  0  0  0
   -0.2159   -0.3775   -1.3951 H   0  0  0  0  0  0  0  0  0  0  0  0
    4.5065    1.8623    0.2601 H   0  0  0  0  0  0  0  0  0  0  0  0
  1  2  1  0
  2  3  1  0
  3  4  1  0
  4  5  1  0
  5  6  1  0
  6  7  3  0
  7  8  1  0
  8  9  2  0
  5  3  1  0
  1 10  1  0
  1 11  1  0
  1 12  1  0
  2 13  1  0
  2 14  1  0
  3 15  1  0
  4 16  1  0
  4 17  1  0
  5 18  1  0
  8 19  1  0
M  END
