
     RDKit          3D

 22 23  0  0  0  0  0  0  0  0999 V2000
    2.5191    0.1499    0.6769 C   0  0  0  0  0  0  0  0  0  0  0  0
    1.5930   -0.4010   -0.3545 C   0  0  0  0  0  0  0  0  0  0  0  0
    0.3415    0.3929   -0.5531 C   0  0  0  0  0  0  0  0  0  0  0  0
   -0.5174   -0.2668   -1.6251 C   0  0  0  0  0  0  0  0  0  0  0  0
   -1.5142   -0.7361   -0.6295 C   0  0  0  0  0  0  0  0  0  0  0  0
   -1.1564   -1.2359    0.7084 C   0  0  0  0  0  0  0  0  0  0  0  0
   -0.7780    0.1455    0.4073 C   0  0  0  0  0  0  0  0  0  0  0  0
   -1.6183    1.3090    0.9010 C   0  0  0  0  0  0  0  0  0  0  0  0
    2.4525   -0.4647    1.6202 H   0  0  0  0  0  0  0  0  0  0  0  0
    2.4084    1.2222    0.8640 H   0  0  0  0  0  0  0  0  0  0  0  0
    3.5884    0.0024    0.3426 H   0  0  0  0  0  0  0  0  0  0  0  0
    1.3814   -1.4675   -0.1595 H   0  0  0  0  0  0  0  0  0  0  0  0
    2.1394   -0.3868   -1.3427 H   0  0  0  0  0  0  0  0  0  0  0  0
    0.5230    1.4589   -0.6852 H   0  0  0  0  0  0  0  0  0  0  0  0
   -0.9118    0.4879   -2.3545 H   0  0  0  0  0  0  0  0  0  0  0  0
   -0.0226   -1.0735   -2.1794 H   0  0  0  0  0  0  0  0  0  0  0  0
   -2.5587   -0.5000   -0.8518 H   0  0  0  0  0  0  0  0  0  0  0  0
   -2.0051   -1.3752    1.4116 H   0  0  0  0  0  0  0  0  0  0  0  0
   -0.3369   -1.9553    0.8867 H   0  0  0  0  0  0  0  0  0  0  0  0
   -2.1395    1.7078   -0.0177 H   0  0  0  0  0  0  0  0  0  0  0  0
   -1.0010    2.0988    1.3663 H   0  0  0  0  0  0  0  0  0  0  0  0
   -2.3866    0.8877    1.5679 H   0  0  0  0  0  0  0  0  0  0  0  0
  1  2  1  0
  2  3  1  0
  3  4  1  0
  4  5  1  0
  5  6  1  0
  6  7  1  0
  7  8  1  0
  7  3  1  0
  7  5  1  0
  1  9  1  0
  1 10  1  0
  1 11  1  0
  2 12  1  0
  2 13  1  0
  3 14  1  0
  4 15  1  0
  4 16  1  0
  5 17  1  0
  6 18  1  0
  6 19  1  0
  8 20  1  0
  8 21  1  0
  8 22  1  0
M  END
