
     RDKit          3D

 19 20  0  0  0  0  0  0  0  0999 V2000
    2.1693    0.0903   -1.2874 C   0  0  0  0  0  0  0  0  0  0  0  0
    1.3949   -0.3432   -0.0626 C   0  0  0  0  0  0  0  0  0  0  0  0
   -0.0770   -0.3435   -0.3269 C   0  0  0  0  0  0  0  0  0  0  0  0
   -0.8245   -0.7890    0.9405 C   0  0  0  0  0  0  0  0  0  0  0  0
   -2.2450   -0.6000    0.5729 C   0  0  0  0  0  0  0  0  0  0  0  0
   -2.2151    0.5550   -0.0963 C   0  0  0  0  0  0  0  0  0  0  0  0
   -0.7853    0.9567    0.0156 C   0  0  0  0  0  0  0  0  0  0  0  0
   -0.4945    0.5883    1.4299 C   0  0  0  0  0  0  0  0  0  0  0  0
   -0.1660    1.0432    2.4863 O   0  0  0  0  0  0  0  0  0  0  0  0
    1.9172   -0.4707   -2.1901 H   0  0  0  0  0  0  0  0  0  0  0  0
    2.0642    1.2055   -1.4190 H   0  0  0  0  0  0  0  0  0  0  0  0
    3.2656   -0.0456   -1.0665 H   0  0  0  0  0  0  0  0  0  0  0  0
    1.6568    0.3362    0.7632 H   0  0  0  0  0  0  0  0  0  0  0  0
    1.7197   -1.3923    0.1841 H   0  0  0  0  0  0  0  0  0  0  0  0
   -0.3908   -0.8374   -1.2431 H   0  0  0  0  0  0  0  0  0  0  0  0
   -0.4861   -1.6302    1.4618 H   0  0  0  0  0  0  0  0  0  0  0  0
   -3.0449   -1.2775    0.8237 H   0  0  0  0  0  0  0  0  0  0  0  0
   -3.0132    1.0902   -0.6035 H   0  0  0  0  0  0  0  0  0  0  0  0
   -0.4452    1.8640   -0.3825 H   0  0  0  0  0  0  0  0  0  0  0  0
  1  2  1  0
  2  3  1  0
  3  4  1  0
  4  5  1  0
  5  6  2  0
  6  7  1  0
  7  8  1  0
  8  9  2  0
  7  3  1  0
  8  4  1  0
  1 10  1  0
  1 11  1  0
  1 12  1  0
  2 13  1  0
  2 14  1  0
  3 15  1  0
  4 16  1  0
  5 17  1  0
  6 18  1  0
  7 19  1  0
M  END
