
     RDKit          3D

 25 25  0  0  0  0  0  0  0  0999 V2000
   -1.5665    2.1100   -0.4547 C   0  0  0  0  0  0  0  0  0  0  0  0
   -0.1986    1.5302   -0.5830 C   0  0  0  0  0  0  0  0  0  0  0  0
    0.0565    0.2550    0.1407 C   0  0  0  0  0  0  0  0  0  0  0  0
    1.5005   -0.2382   -0.0676 C   0  0  0  0  0  0  0  0  0  0  0  0
    1.7136   -1.4257    0.6151 O   0  0  0  0  0  0  0  0  0  0  0  0
    3.0354   -1.7984    0.3740 C   0  0  0  0  0  0  0  0  0  0  0  0
   -0.5877   -0.0461    1.4646 C   0  0  0  0  0  0  0  0  0  0  0  0
   -0.9297   -0.8398    0.2556 C   0  0  0  0  0  0  0  0  0  0  0  0
   -2.2895   -0.7557   -0.3636 C   0  0  0  0  0  0  0  0  0  0  0  0
   -2.2668    1.7669   -1.2482 H   0  0  0  0  0  0  0  0  0  0  0  0
   -1.9934    2.0789    0.5571 H   0  0  0  0  0  0  0  0  0  0  0  0
   -1.4691    3.2211   -0.6693 H   0  0  0  0  0  0  0  0  0  0  0  0
    0.5202    2.3177   -0.2027 H   0  0  0  0  0  0  0  0  0  0  0  0
    0.0427    1.4655   -1.6724 H   0  0  0  0  0  0  0  0  0  0  0  0
    2.2209    0.5290    0.2801 H   0  0  0  0  0  0  0  0  0  0  0  0
    1.6423   -0.3888   -1.1568 H   0  0  0  0  0  0  0  0  0  0  0  0
    3.7133   -0.9900    0.7506 H   0  0  0  0  0  0  0  0  0  0  0  0
    3.2171   -1.9520   -0.7111 H   0  0  0  0  0  0  0  0  0  0  0  0
    3.3267   -2.7090    0.9425 H   0  0  0  0  0  0  0  0  0  0  0  0
    0.0706   -0.5364    2.2424 H   0  0  0  0  0  0  0  0  0  0  0  0
   -1.2640    0.7308    1.8713 H   0  0  0  0  0  0  0  0  0  0  0  0
   -0.5464   -1.9062    0.2790 H   0  0  0  0  0  0  0  0  0  0  0  0
   -2.1516   -0.6091   -1.4548 H   0  0  0  0  0  0  0  0  0  0  0  0
   -2.9795   -0.0566    0.1201 H   0  0  0  0  0  0  0  0  0  0  0  0
   -2.8170   -1.7531   -0.2873 H   0  0  0  0  0  0  0  0  0  0  0  0
  1  2  1  0
  2  3  1  0
  3  4  1  0
  4  5  1  0
  5  6  1  0
  3  7  1  0
  7  8  1  0
  8  9  1  0
  8  3  1  0
  1 10  1  0
  1 11  1  0
  1 12  1  0
  2 13  1  0
  2 14  1  0
  4 15  1  0
  4 16  1  0
  6 17  1  0
  6 18  1  0
  6 19  1  0
  7 20  1  0
  7 21  1  0
  8 22  1  0
  9 23  1  0
  9 24  1  0
  9 25  1  0
M  END
