
     RDKit          3D

 21 22  0  0  0  0  0  0  0  0999 V2000
    2.6325   -0.4526   -0.3736 C   0  0  0  0  0  0  0  0  0  0  0  0
    1.2114   -0.9677   -0.2158 C   0  0  0  0  0  0  0  0  0  0  0  0
    0.2398    0.1446   -0.3199 C   0  0  0  0  0  0  0  0  0  0  0  0
    0.5237    1.4269   -0.5220 C   0  0  0  0  0  0  0  0  0  0  0  0
   -0.7527    2.2139   -0.5612 C   0  0  0  0  0  0  0  0  0  0  0  0
   -1.6980    1.3520   -0.0780 O   0  0  0  0  0  0  0  0  0  0  0  0
   -1.2311    0.0621   -0.2218 C   0  0  0  0  0  0  0  0  0  0  0  0
   -1.7772   -1.0308    0.6740 C   0  0  0  0  0  0  0  0  0  0  0  0
   -2.0254   -1.0033   -0.8104 C   0  0  0  0  0  0  0  0  0  0  0  0
    2.7252    0.2662   -1.2104 H   0  0  0  0  0  0  0  0  0  0  0  0
    3.3393   -1.2768   -0.5969 H   0  0  0  0  0  0  0  0  0  0  0  0
    2.9816   -0.0031    0.5828 H   0  0  0  0  0  0  0  0  0  0  0  0
    1.0294   -1.6774   -1.0530 H   0  0  0  0  0  0  0  0  0  0  0  0
    1.1660   -1.5210    0.7261 H   0  0  0  0  0  0  0  0  0  0  0  0
    1.5439    1.8273   -0.6396 H   0  0  0  0  0  0  0  0  0  0  0  0
   -0.5918    3.0762    0.1192 H   0  0  0  0  0  0  0  0  0  0  0  0
   -0.9664    2.5799   -1.5856 H   0  0  0  0  0  0  0  0  0  0  0  0
   -2.5531   -0.6633    1.3764 H   0  0  0  0  0  0  0  0  0  0  0  0
   -1.0700   -1.7869    1.0878 H   0  0  0  0  0  0  0  0  0  0  0  0
   -1.6353   -1.8254   -1.4156 H   0  0  0  0  0  0  0  0  0  0  0  0
   -3.0919   -0.7408   -1.0718 H   0  0  0  0  0  0  0  0  0  0  0  0
  1  2  1  0
  2  3  1  0
  3  4  2  0
  4  5  1  0
  5  6  1  0
  6  7  1  0
  7  8  1  0
  8  9  1  0
  7  3  1  0
  9  7  1  0
  1 10  1  0
  1 11  1  0
  1 12  1  0
  2 13  1  0
  2 14  1  0
  4 15  1  0
  5 16  1  0
  5 17  1  0
  8 18  1  0
  8 19  1  0
  9 20  1  0
  9 21  1  0
M  END
