
     RDKit          3D

 23 23  0  0  0  0  0  0  0  0999 V2000
    2.6076    0.1612   -0.2225 C   0  0  0  0  0  0  0  0  0  0  0  0
    1.3681   -0.6478    0.0796 C   0  0  0  0  0  0  0  0  0  0  0  0
    0.1392   -0.1005   -0.5842 C   0  0  0  0  0  0  0  0  0  0  0  0
   -0.2027    1.2916   -0.1894 C   0  0  0  0  0  0  0  0  0  0  0  0
   -1.6382    1.5149    0.1529 C   0  0  0  0  0  0  0  0  0  0  0  0
   -2.1840    0.6127    1.0149 O   0  0  0  0  0  0  0  0  0  0  0  0
   -1.4611   -0.5512    1.1855 C   0  0  0  0  0  0  0  0  0  0  0  0
   -1.0214   -1.0019   -0.2092 C   0  0  0  0  0  0  0  0  0  0  0  0
   -0.7098   -2.3364   -0.2582 O   0  0  0  0  0  0  0  0  0  0  0  0
    3.4645   -0.4129    0.2312 H   0  0  0  0  0  0  0  0  0  0  0  0
    2.7759    0.1906   -1.3188 H   0  0  0  0  0  0  0  0  0  0  0  0
    2.5743    1.1748    0.2134 H   0  0  0  0  0  0  0  0  0  0  0  0
    1.2728   -0.8061    1.1572 H   0  0  0  0  0  0  0  0  0  0  0  0
    1.5483   -1.6630   -0.3737 H   0  0  0  0  0  0  0  0  0  0  0  0
    0.2830   -0.2283   -1.6866 H   0  0  0  0  0  0  0  0  0  0  0  0
    0.0241    1.9496   -1.0803 H   0  0  0  0  0  0  0  0  0  0  0  0
    0.4751    1.6977    0.6146 H   0  0  0  0  0  0  0  0  0  0  0  0
   -1.6971    2.5265    0.6557 H   0  0  0  0  0  0  0  0  0  0  0  0
   -2.2515    1.6561   -0.7855 H   0  0  0  0  0  0  0  0  0  0  0  0
   -2.0832   -1.2988    1.6835 H   0  0  0  0  0  0  0  0  0  0  0  0
   -0.5883   -0.3043    1.8249 H   0  0  0  0  0  0  0  0  0  0  0  0
   -1.8724   -0.7845   -0.9066 H   0  0  0  0  0  0  0  0  0  0  0  0
   -0.8233   -2.6399   -1.1984 H   0  0  0  0  0  0  0  0  0  0  0  0
  1  2  1  0
  2  3  1  0
  3  4  1  0
  4  5  1  0
  5  6  1  0
  6  7  1  0
  7  8  1  0
  8  9  1  0
  8  3  1  0
  1 10  1  0
  1 11  1  0
  1 12  1  0
  2 13  1  0
  2 14  1  0
  3 15  1  0
  4 16  1  0
  4 17  1  0
  5 18  1  0
  5 19  1  0
  7 20  1  0
  7 21  1  0
  8 22  1  0
  9 23  1  0
M  END
