
     RDKit          3D

 21 21  0  0  0  0  0  0  0  0999 V2000
    2.1021   -0.8586   -0.3178 C   0  0  0  0  0  0  0  0  0  0  0  0
    0.8998   -0.1461   -0.8787 C   0  0  0  0  0  0  0  0  0  0  0  0
   -0.1704    0.1094    0.1717 C   0  0  0  0  0  0  0  0  0  0  0  0
   -0.7466   -1.1259    0.7598 C   0  0  0  0  0  0  0  0  0  0  0  0
   -1.4433   -2.1544   -0.0492 C   0  0  0  0  0  0  0  0  0  0  0  0
   -0.6504   -1.2865    1.9815 O   0  0  0  0  0  0  0  0  0  0  0  0
   -1.2870    0.8381   -0.5857 O   0  0  0  0  0  0  0  0  0  0  0  0
   -0.6593    1.3536    0.6003 C   0  0  0  0  0  0  0  0  0  0  0  0
   -0.1558    2.7488    0.3375 C   0  0  0  0  0  0  0  0  0  0  0  0
    2.1462   -0.9022    0.7882 H   0  0  0  0  0  0  0  0  0  0  0  0
    3.0126   -0.2476   -0.5957 H   0  0  0  0  0  0  0  0  0  0  0  0
    2.2244   -1.8630   -0.7095 H   0  0  0  0  0  0  0  0  0  0  0  0
    0.4009   -0.8214   -1.6186 H   0  0  0  0  0  0  0  0  0  0  0  0
    1.1895    0.7393   -1.4339 H   0  0  0  0  0  0  0  0  0  0  0  0
   -2.5465   -1.7722   -0.0630 H   0  0  0  0  0  0  0  0  0  0  0  0
   -1.4341   -3.1664    0.4410 H   0  0  0  0  0  0  0  0  0  0  0  0
   -1.1087   -2.2408   -1.1005 H   0  0  0  0  0  0  0  0  0  0  0  0
   -1.4420    1.3791    1.4420 H   0  0  0  0  0  0  0  0  0  0  0  0
    0.6173    2.8385   -0.4271 H   0  0  0  0  0  0  0  0  0  0  0  0
    0.1089    3.2328    1.2822 H   0  0  0  0  0  0  0  0  0  0  0  0
   -1.0577    3.3457   -0.0244 H   0  0  0  0  0  0  0  0  0  0  0  0
  1  2  1  0
  2  3  1  0
  3  4  1  0
  4  5  1  0
  4  6  2  0
  3  7  1  0
  7  8  1  0
  8  9  1  0
  8  3  1  0
  1 10  1  0
  1 11  1  0
  1 12  1  0
  2 13  1  0
  2 14  1  0
  5 15  1  0
  5 16  1  0
  5 17  1  0
  8 18  1  0
  9 19  1  0
  9 20  1  0
  9 21  1  0
M  END
