
     RDKit          3D

 23 24  0  0  0  0  0  0  0  0999 V2000
   -3.4762    0.1043    0.3830 C   0  0  0  0  0  0  0  0  0  0  0  0
   -2.1928    0.4472   -0.3257 C   0  0  0  0  0  0  0  0  0  0  0  0
   -1.1967   -0.6907   -0.2833 C   0  0  0  0  0  0  0  0  0  0  0  0
   -0.7420   -1.1684    0.9193 O   0  0  0  0  0  0  0  0  0  0  0  0
    0.0900   -0.4657    0.1089 C   0  0  0  0  0  0  0  0  0  0  0  0
    1.3083   -1.0554   -0.5217 C   0  0  0  0  0  0  0  0  0  0  0  0
    1.9494    0.3224   -0.4115 C   0  0  0  0  0  0  0  0  0  0  0  0
    3.3032    0.2473    0.2535 C   0  0  0  0  0  0  0  0  0  0  0  0
    0.8241    0.7485    0.5152 C   0  0  0  0  0  0  0  0  0  0  0  0
   -4.3179    0.4313   -0.2820 H   0  0  0  0  0  0  0  0  0  0  0  0
   -3.5907    0.6623    1.3287 H   0  0  0  0  0  0  0  0  0  0  0  0
   -3.5370   -0.9898    0.5098 H   0  0  0  0  0  0  0  0  0  0  0  0
   -2.3645    0.7840   -1.3672 H   0  0  0  0  0  0  0  0  0  0  0  0
   -1.7498    1.3154    0.2057 H   0  0  0  0  0  0  0  0  0  0  0  0
   -1.4668   -1.5022   -1.0224 H   0  0  0  0  0  0  0  0  0  0  0  0
    1.0962   -1.3214   -1.5879 H   0  0  0  0  0  0  0  0  0  0  0  0
    1.8236   -1.8583   -0.0007 H   0  0  0  0  0  0  0  0  0  0  0  0
    1.9462    0.8984   -1.3599 H   0  0  0  0  0  0  0  0  0  0  0  0
    3.1674   -0.0733    1.2964 H   0  0  0  0  0  0  0  0  0  0  0  0
    3.7961    1.2236    0.2399 H   0  0  0  0  0  0  0  0  0  0  0  0
    3.8797   -0.5407   -0.2723 H   0  0  0  0  0  0  0  0  0  0  0  0
    0.3205    1.6962    0.2235 H   0  0  0  0  0  0  0  0  0  0  0  0
    1.1296    0.7849    1.5983 H   0  0  0  0  0  0  0  0  0  0  0  0
  1  2  1  0
  2  3  1  0
  3  4  1  0
  4  5  1  0
  5  6  1  0
  6  7  1  0
  7  8  1  0
  7  9  1  0
  5  3  1  0
  9  5  1  0
  1 10  1  0
  1 11  1  0
  1 12  1  0
  2 13  1  0
  2 14  1  0
  3 15  1  0
  6 16  1  0
  6 17  1  0
  7 18  1  0
  8 19  1  0
  8 20  1  0
  8 21  1  0
  9 22  1  0
  9 23  1  0
M  END
