
     RDKit          3D

 25 26  0  0  0  0  0  0  0  0999 V2000
   -2.6014    1.3427    0.0912 C   0  0  0  0  0  0  0  0  0  0  0  0
   -2.1575   -0.0538   -0.1780 C   0  0  0  0  0  0  0  0  0  0  0  0
   -0.7355   -0.1406   -0.6980 C   0  0  0  0  0  0  0  0  0  0  0  0
   -0.4727   -1.6385   -0.9099 C   0  0  0  0  0  0  0  0  0  0  0  0
    1.0228   -1.7035   -0.9749 C   0  0  0  0  0  0  0  0  0  0  0  0
    1.4543   -0.7876    0.1223 C   0  0  0  0  0  0  0  0  0  0  0  0
    1.6425    0.6704   -0.1003 C   0  0  0  0  0  0  0  0  0  0  0  0
    2.5391    1.3546    0.8906 C   0  0  0  0  0  0  0  0  0  0  0  0
    0.2889    0.1955    0.3393 C   0  0  0  0  0  0  0  0  0  0  0  0
   -2.3727    2.0332   -0.7473 H   0  0  0  0  0  0  0  0  0  0  0  0
   -2.2484    1.6998    1.0645 H   0  0  0  0  0  0  0  0  0  0  0  0
   -3.7282    1.3213    0.1596 H   0  0  0  0  0  0  0  0  0  0  0  0
   -2.1771   -0.6338    0.7684 H   0  0  0  0  0  0  0  0  0  0  0  0
   -2.8204   -0.5217   -0.9416 H   0  0  0  0  0  0  0  0  0  0  0  0
   -0.5935    0.4292   -1.6184 H   0  0  0  0  0  0  0  0  0  0  0  0
   -0.9880   -2.0275   -1.7880 H   0  0  0  0  0  0  0  0  0  0  0  0
   -0.8093   -2.1169    0.0530 H   0  0  0  0  0  0  0  0  0  0  0  0
    1.3991   -1.4073   -1.9659 H   0  0  0  0  0  0  0  0  0  0  0  0
    1.3087   -2.7628   -0.7183 H   0  0  0  0  0  0  0  0  0  0  0  0
    1.9006   -1.2551    1.0136 H   0  0  0  0  0  0  0  0  0  0  0  0
    1.7083    1.0981   -1.1249 H   0  0  0  0  0  0  0  0  0  0  0  0
    2.1551    2.2954    1.2825 H   0  0  0  0  0  0  0  0  0  0  0  0
    3.5301    1.5115    0.4051 H   0  0  0  0  0  0  0  0  0  0  0  0
    2.7639    0.6820    1.7707 H   0  0  0  0  0  0  0  0  0  0  0  0
   -0.0086    0.4157    1.3818 H   0  0  0  0  0  0  0  0  0  0  0  0
  1  2  1  0
  2  3  1  0
  3  4  1  0
  4  5  1  0
  5  6  1  0
  6  7  1  0
  7  8  1  0
  7  9  1  0
  9  3  1  0
  9  6  1  0
  1 10  1  0
  1 11  1  0
  1 12  1  0
  2 13  1  0
  2 14  1  0
  3 15  1  0
  4 16  1  0
  4 17  1  0
  5 18  1  0
  5 19  1  0
  6 20  1  0
  7 21  1  0
  8 22  1  0
  8 23  1  0
  8 24  1  0
  9 25  1  0
M  END
