
     RDKit          3D

 22 22  0  0  0  0  0  0  0  0999 V2000
    2.4810    0.7077   -0.9126 C   0  0  0  0  0  0  0  0  0  0  0  0
    1.9698    0.0947    0.3389 C   0  0  0  0  0  0  0  0  0  0  0  0
    0.5479   -0.3257    0.3209 C   0  0  0  0  0  0  0  0  0  0  0  0
    0.2106   -1.3465   -0.7172 C   0  0  0  0  0  0  0  0  0  0  0  0
   -1.2773   -1.2355   -0.7467 C   0  0  0  0  0  0  0  0  0  0  0  0
   -1.6458   -0.0316   -0.3242 C   0  0  0  0  0  0  0  0  0  0  0  0
   -3.0468    0.4463   -0.2157 C   0  0  0  0  0  0  0  0  0  0  0  0
   -0.4337    0.7636    0.0246 C   0  0  0  0  0  0  0  0  0  0  0  0
    3.2526    1.4776   -0.6165 H   0  0  0  0  0  0  0  0  0  0  0  0
    3.0830   -0.0605   -1.4786 H   0  0  0  0  0  0  0  0  0  0  0  0
    1.7411    1.1983   -1.5472 H   0  0  0  0  0  0  0  0  0  0  0  0
    2.1023    0.7825    1.2196 H   0  0  0  0  0  0  0  0  0  0  0  0
    2.5845   -0.8006    0.5909 H   0  0  0  0  0  0  0  0  0  0  0  0
    0.2937   -0.7490    1.3094 H   0  0  0  0  0  0  0  0  0  0  0  0
    0.6153   -1.0667   -1.7221 H   0  0  0  0  0  0  0  0  0  0  0  0
    0.5561   -2.3696   -0.4769 H   0  0  0  0  0  0  0  0  0  0  0  0
   -1.9194   -2.0451   -1.0726 H   0  0  0  0  0  0  0  0  0  0  0  0
   -3.4607    0.7652   -1.2103 H   0  0  0  0  0  0  0  0  0  0  0  0
   -3.7196   -0.3292    0.2260 H   0  0  0  0  0  0  0  0  0  0  0  0
   -3.1361    1.3344    0.4404 H   0  0  0  0  0  0  0  0  0  0  0  0
   -0.1813    1.3505   -0.8886 H   0  0  0  0  0  0  0  0  0  0  0  0
   -0.6173    1.4391    0.8827 H   0  0  0  0  0  0  0  0  0  0  0  0
  1  2  1  0
  2  3  1  0
  3  4  1  0
  4  5  1  0
  5  6  2  0
  6  7  1  0
  6  8  1  0
  8  3  1  0
  1  9  1  0
  1 10  1  0
  1 11  1  0
  2 12  1  0
  2 13  1  0
  3 14  1  0
  4 15  1  0
  4 16  1  0
  5 17  1  0
  7 18  1  0
  7 19  1  0
  7 20  1  0
  8 21  1  0
  8 22  1  0
M  END
