
     RDKit          3D

 21 21  0  0  0  0  0  0  0  0999 V2000
    2.2480    0.1914    0.2506 C   0  0  0  0  0  0  0  0  0  0  0  0
    1.0812   -0.1116   -0.6410 C   0  0  0  0  0  0  0  0  0  0  0  0
   -0.2439    0.2826   -0.0560 C   0  0  0  0  0  0  0  0  0  0  0  0
   -0.3088    1.7506    0.2264 C   0  0  0  0  0  0  0  0  0  0  0  0
   -1.2881   -0.0342   -1.0672 C   0  0  0  0  0  0  0  0  0  0  0  0
   -1.8555   -1.2032   -0.8155 C   0  0  0  0  0  0  0  0  0  0  0  0
   -1.2314   -1.7695    0.3962 C   0  0  0  0  0  0  0  0  0  0  0  0
   -1.1712   -2.9507    0.7674 O   0  0  0  0  0  0  0  0  0  0  0  0
   -0.6706   -0.5703    1.0993 C   0  0  0  0  0  0  0  0  0  0  0  0
    2.3074    1.2324    0.5889 H   0  0  0  0  0  0  0  0  0  0  0  0
    2.2845   -0.5466    1.0776 H   0  0  0  0  0  0  0  0  0  0  0  0
    3.1722    0.0034   -0.3535 H   0  0  0  0  0  0  0  0  0  0  0  0
    1.0942   -1.2022   -0.8440 H   0  0  0  0  0  0  0  0  0  0  0  0
    1.2076    0.4262   -1.6041 H   0  0  0  0  0  0  0  0  0  0  0  0
   -0.5666    1.9776    1.2811 H   0  0  0  0  0  0  0  0  0  0  0  0
   -1.0682    2.2748   -0.4257 H   0  0  0  0  0  0  0  0  0  0  0  0
    0.6502    2.2685    0.0067 H   0  0  0  0  0  0  0  0  0  0  0  0
   -1.5806    0.5814   -1.9164 H   0  0  0  0  0  0  0  0  0  0  0  0
   -2.6506   -1.7033   -1.3775 H   0  0  0  0  0  0  0  0  0  0  0  0
    0.1120   -0.8195    1.8082 H   0  0  0  0  0  0  0  0  0  0  0  0
   -1.5219   -0.0779    1.5985 H   0  0  0  0  0  0  0  0  0  0  0  0
  1  2  1  0
  2  3  1  0
  3  4  1  0
  3  5  1  0
  5  6  2  0
  6  7  1  0
  7  8  2  0
  7  9  1  0
  9  3  1  0
  1 10  1  0
  1 11  1  0
  1 12  1  0
  2 13  1  0
  2 14  1  0
  4 15  1  0
  4 16  1  0
  4 17  1  0
  5 18  1  0
  6 19  1  0
  9 20  1  0
  9 21  1  0
M  END
