
     RDKit          3D

 19 20  0  0  0  0  0  0  0  0999 V2000
    2.3509   -0.1456    0.7340 C   0  0  0  0  0  0  0  0  0  0  0  0
    1.4918    0.0272   -0.4893 C   0  0  0  0  0  0  0  0  0  0  0  0
    0.2204    0.7829   -0.2051 C   0  0  0  0  0  0  0  0  0  0  0  0
   -0.5238    0.9043   -1.3801 O   0  0  0  0  0  0  0  0  0  0  0  0
   -1.5186    0.0124   -1.0593 C   0  0  0  0  0  0  0  0  0  0  0  0
   -1.2767   -1.2409   -0.3419 C   0  0  0  0  0  0  0  0  0  0  0  0
   -0.9224    0.0012    0.3786 C   0  0  0  0  0  0  0  0  0  0  0  0
   -1.8035    0.5996    1.3855 C   0  0  0  0  0  0  0  0  0  0  0  0
   -2.9712    0.2787    1.4536 O   0  0  0  0  0  0  0  0  0  0  0  0
    3.3877    0.1993    0.5422 H   0  0  0  0  0  0  0  0  0  0  0  0
    1.9760    0.3664    1.6190 H   0  0  0  0  0  0  0  0  0  0  0  0
    2.4289   -1.2515    0.9513 H   0  0  0  0  0  0  0  0  0  0  0  0
    1.2902   -0.9232   -0.9782 H   0  0  0  0  0  0  0  0  0  0  0  0
    2.0638    0.6479   -1.2228 H   0  0  0  0  0  0  0  0  0  0  0  0
    0.4216    1.7643    0.2831 H   0  0  0  0  0  0  0  0  0  0  0  0
   -2.5404    0.3825   -1.1761 H   0  0  0  0  0  0  0  0  0  0  0  0
   -2.1992   -1.8171   -0.0684 H   0  0  0  0  0  0  0  0  0  0  0  0
   -0.4341   -1.9222   -0.5780 H   0  0  0  0  0  0  0  0  0  0  0  0
   -1.4415    1.3337    2.0858 H   0  0  0  0  0  0  0  0  0  0  0  0
  1  2  1  0
  2  3  1  0
  3  4  1  0
  4  5  1  0
  5  6  1  0
  6  7  1  0
  7  8  1  0
  8  9  2  0
  7  3  1  0
  7  5  1  0
  1 10  1  0
  1 11  1  0
  1 12  1  0
  2 13  1  0
  2 14  1  0
  3 15  1  0
  5 16  1  0
  6 17  1  0
  6 18  1  0
  8 19  1  0
M  END
