
     RDKit          3D

 23 24  0  0  0  0  0  0  0  0999 V2000
    2.5067    0.2229    0.6466 C   0  0  0  0  0  0  0  0  0  0  0  0
    1.2292   -0.5426    0.9929 C   0  0  0  0  0  0  0  0  0  0  0  0
    0.1208    0.0569    0.2096 C   0  0  0  0  0  0  0  0  0  0  0  0
   -0.1933    1.4675    0.4087 C   0  0  0  0  0  0  0  0  0  0  0  0
   -1.4877    1.6834    0.1995 C   0  0  0  0  0  0  0  0  0  0  0  0
   -2.1667    0.4008   -0.1672 C   0  0  0  0  0  0  0  0  0  0  0  0
   -1.2003   -0.6752    0.2354 C   0  0  0  0  0  0  0  0  0  0  0  0
   -0.7506   -1.4907   -0.9439 C   0  0  0  0  0  0  0  0  0  0  0  0
    0.2190   -0.3419   -1.2618 C   0  0  0  0  0  0  0  0  0  0  0  0
    2.7534   -0.0090   -0.4062 H   0  0  0  0  0  0  0  0  0  0  0  0
    2.3235    1.3116    0.7193 H   0  0  0  0  0  0  0  0  0  0  0  0
    3.3277   -0.0140    1.3492 H   0  0  0  0  0  0  0  0  0  0  0  0
    1.3859   -1.5774    0.7039 H   0  0  0  0  0  0  0  0  0  0  0  0
    1.0679   -0.4862    2.0934 H   0  0  0  0  0  0  0  0  0  0  0  0
    0.4940    2.2560    0.6860 H   0  0  0  0  0  0  0  0  0  0  0  0
   -2.0445    2.6254    0.2658 H   0  0  0  0  0  0  0  0  0  0  0  0
   -3.1645    0.3019    0.2563 H   0  0  0  0  0  0  0  0  0  0  0  0
   -2.2823    0.4456   -1.2898 H   0  0  0  0  0  0  0  0  0  0  0  0
   -1.4275   -1.2513    1.1247 H   0  0  0  0  0  0  0  0  0  0  0  0
   -0.2233   -2.4059   -0.5999 H   0  0  0  0  0  0  0  0  0  0  0  0
   -1.4676   -1.6166   -1.7555 H   0  0  0  0  0  0  0  0  0  0  0  0
   -0.2105    0.4155   -1.9195 H   0  0  0  0  0  0  0  0  0  0  0  0
    1.1907   -0.7769   -1.5473 H   0  0  0  0  0  0  0  0  0  0  0  0
  1  2  1  0
  2  3  1  0
  3  4  1  0
  4  5  2  0
  5  6  1  0
  6  7  1  0
  7  8  1  0
  8  9  1  0
  7  3  1  0
  9  3  1  0
  1 10  1  0
  1 11  1  0
  1 12  1  0
  2 13  1  0
  2 14  1  0
  4 15  1  0
  5 16  1  0
  6 17  1  0
  6 18  1  0
  7 19  1  0
  8 20  1  0
  8 21  1  0
  9 22  1  0
  9 23  1  0
M  END
