
     RDKit          3D

 25 26  0  0  0  0  0  0  0  0999 V2000
    2.7195   -0.7350    0.2441 C   0  0  0  0  0  0  0  0  0  0  0  0
    1.8193    0.4498    0.3956 C   0  0  0  0  0  0  0  0  0  0  0  0
    0.3924    0.2008    0.0948 C   0  0  0  0  0  0  0  0  0  0  0  0
   -0.4453    1.4376    0.2697 C   0  0  0  0  0  0  0  0  0  0  0  0
   -1.8778    1.2393   -0.1103 C   0  0  0  0  0  0  0  0  0  0  0  0
   -2.2469   -0.1587   -0.4616 C   0  0  0  0  0  0  0  0  0  0  0  0
   -1.1294   -1.1387   -0.3285 C   0  0  0  0  0  0  0  0  0  0  0  0
    0.0521   -0.5755   -1.1366 C   0  0  0  0  0  0  0  0  0  0  0  0
   -0.2750   -0.9038    0.8953 C   0  0  0  0  0  0  0  0  0  0  0  0
    2.4312   -1.5349    0.9200 H   0  0  0  0  0  0  0  0  0  0  0  0
    3.7661   -0.3684    0.4593 H   0  0  0  0  0  0  0  0  0  0  0  0
    2.7009   -1.0653   -0.8086 H   0  0  0  0  0  0  0  0  0  0  0  0
    1.8725    0.8499    1.4512 H   0  0  0  0  0  0  0  0  0  0  0  0
    2.1609    1.2989   -0.2371 H   0  0  0  0  0  0  0  0  0  0  0  0
   -0.3275    1.7474    1.3496 H   0  0  0  0  0  0  0  0  0  0  0  0
    0.0573    2.2504   -0.3059 H   0  0  0  0  0  0  0  0  0  0  0  0
   -2.0880    1.9585   -0.9567 H   0  0  0  0  0  0  0  0  0  0  0  0
   -2.5001    1.5351    0.7816 H   0  0  0  0  0  0  0  0  0  0  0  0
   -3.1530   -0.5183    0.0928 H   0  0  0  0  0  0  0  0  0  0  0  0
   -2.5694   -0.1704   -1.5439 H   0  0  0  0  0  0  0  0  0  0  0  0
   -1.4036   -2.1600   -0.5585 H   0  0  0  0  0  0  0  0  0  0  0  0
    0.7546   -1.3846   -1.3259 H   0  0  0  0  0  0  0  0  0  0  0  0
   -0.3076   -0.0018   -2.0030 H   0  0  0  0  0  0  0  0  0  0  0  0
   -0.8097   -0.5144    1.7779 H   0  0  0  0  0  0  0  0  0  0  0  0
    0.4065   -1.7382    1.0449 H   0  0  0  0  0  0  0  0  0  0  0  0
  1  2  1  0
  2  3  1  0
  3  4  1  0
  4  5  1  0
  5  6  1  0
  6  7  1  0
  7  8  1  0
  7  9  1  0
  8  3  1  0
  9  3  1  0
  1 10  1  0
  1 11  1  0
  1 12  1  0
  2 13  1  0
  2 14  1  0
  4 15  1  0
  4 16  1  0
  5 17  1  0
  5 18  1  0
  6 19  1  0
  6 20  1  0
  7 21  1  0
  8 22  1  0
  8 23  1  0
  9 24  1  0
  9 25  1  0
M  END
