
     RDKit          3D

 21 21  0  0  0  0  0  0  0  0999 V2000
   -2.6083    0.9825   -0.0827 C   0  0  0  0  0  0  0  0  0  0  0  0
   -1.8995   -0.3180    0.0444 C   0  0  0  0  0  0  0  0  0  0  0  0
   -0.5738   -0.3704   -0.6618 C   0  0  0  0  0  0  0  0  0  0  0  0
    0.4072    0.6386   -0.1760 C   0  0  0  0  0  0  0  0  0  0  0  0
    1.6428   -0.0863    0.1959 C   0  0  0  0  0  0  0  0  0  0  0  0
    2.9240    0.5509    0.6081 C   0  0  0  0  0  0  0  0  0  0  0  0
    1.4118   -1.3854    0.0986 C   0  0  0  0  0  0  0  0  0  0  0  0
    0.0622   -1.6702   -0.3284 C   0  0  0  0  0  0  0  0  0  0  0  0
   -0.5089   -2.7708   -0.4188 O   0  0  0  0  0  0  0  0  0  0  0  0
   -2.5150    1.6098    0.8425 H   0  0  0  0  0  0  0  0  0  0  0  0
   -2.3302    1.5831   -0.9624 H   0  0  0  0  0  0  0  0  0  0  0  0
   -3.7164    0.7866   -0.1680 H   0  0  0  0  0  0  0  0  0  0  0  0
   -1.7774   -0.5905    1.1032 H   0  0  0  0  0  0  0  0  0  0  0  0
   -2.5353   -1.1239   -0.4097 H   0  0  0  0  0  0  0  0  0  0  0  0
   -0.7278   -0.3560   -1.7598 H   0  0  0  0  0  0  0  0  0  0  0  0
    0.6863    1.2906   -1.0542 H   0  0  0  0  0  0  0  0  0  0  0  0
    0.0502    1.2869    0.6353 H   0  0  0  0  0  0  0  0  0  0  0  0
    2.7524    1.2424    1.4427 H   0  0  0  0  0  0  0  0  0  0  0  0
    3.6347   -0.2226    0.9783 H   0  0  0  0  0  0  0  0  0  0  0  0
    3.4339    1.0439   -0.2538 H   0  0  0  0  0  0  0  0  0  0  0  0
    2.1872   -2.1212    0.3266 H   0  0  0  0  0  0  0  0  0  0  0  0
  1  2  1  0
  2  3  1  0
  3  4  1  0
  4  5  1  0
  5  6  1  0
  5  7  2  0
  7  8  1  0
  8  9  2  0
  8  3  1  0
  1 10  1  0
  1 11  1  0
  1 12  1  0
  2 13  1  0
  2 14  1  0
  3 15  1  0
  4 16  1  0
  4 17  1  0
  6 18  1  0
  6 19  1  0
  6 20  1  0
  7 21  1  0
M  END
