
     RDKit          3D

 19 19  0  0  0  0  0  0  0  0999 V2000
    2.5783   -0.2138    0.4227 C   0  0  0  0  0  0  0  0  0  0  0  0
    1.1805   -0.3610    0.9660 C   0  0  0  0  0  0  0  0  0  0  0  0
    0.1389    0.1608   -0.0099 C   0  0  0  0  0  0  0  0  0  0  0  0
   -1.2805    0.0764    0.4118 C   0  0  0  0  0  0  0  0  0  0  0  0
   -1.4846   -0.0806    1.6136 O   0  0  0  0  0  0  0  0  0  0  0  0
   -2.4338    0.1653   -0.4875 C   0  0  0  0  0  0  0  0  0  0  0  0
   -3.6072    0.0708    0.2516 O   0  0  0  0  0  0  0  0  0  0  0  0
    0.5336   -0.0651   -1.4402 C   0  0  0  0  0  0  0  0  0  0  0  0
    0.4685    1.2168   -0.8573 O   0  0  0  0  0  0  0  0  0  0  0  0
    2.8561   -1.0974   -0.2243 H   0  0  0  0  0  0  0  0  0  0  0  0
    2.7695    0.7143   -0.1176 H   0  0  0  0  0  0  0  0  0  0  0  0
    3.2745   -0.2784    1.2949 H   0  0  0  0  0  0  0  0  0  0  0  0
    1.0614    0.1973    1.9405 H   0  0  0  0  0  0  0  0  0  0  0  0
    0.9813   -1.4458    1.0904 H   0  0  0  0  0  0  0  0  0  0  0  0
   -2.4306    1.1919   -0.9651 H   0  0  0  0  0  0  0  0  0  0  0  0
   -2.4372   -0.6019   -1.2880 H   0  0  0  0  0  0  0  0  0  0  0  0
   -3.4387    0.0194    1.2233 H   0  0  0  0  0  0  0  0  0  0  0  0
   -0.2760   -0.3877   -2.1264 H   0  0  0  0  0  0  0  0  0  0  0  0
    1.5459   -0.3644   -1.6986 H   0  0  0  0  0  0  0  0  0  0  0  0
  1  2  1  0
  2  3  1  0
  3  4  1  0
  4  5  2  0
  4  6  1  0
  6  7  1  0
  3  8  1  0
  8  9  1  0
  9  3  1  0
  1 10  1  0
  1 11  1  0
  1 12  1  0
  2 13  1  0
  2 14  1  0
  6 15  1  0
  6 16  1  0
  7 17  1  0
  8 18  1  0
  8 19  1  0
M  END
