
     RDKit          3D

 23 23  0  0  0  0  0  0  0  0999 V2000
   -0.3038   -2.1803    0.6722 C   0  0  0  0  0  0  0  0  0  0  0  0
    0.6486   -1.0926    0.2090 C   0  0  0  0  0  0  0  0  0  0  0  0
   -0.0031   -0.0718   -0.6628 C   0  0  0  0  0  0  0  0  0  0  0  0
    0.9224    0.9945   -1.1767 C   0  0  0  0  0  0  0  0  0  0  0  0
    1.5461    1.7820   -0.0763 C   0  0  0  0  0  0  0  0  0  0  0  0
    2.3583    1.0567    0.7518 O   0  0  0  0  0  0  0  0  0  0  0  0
   -0.9604   -0.6105   -1.5214 O   0  0  0  0  0  0  0  0  0  0  0  0
   -1.3919    0.3153   -0.5719 C   0  0  0  0  0  0  0  0  0  0  0  0
   -2.3670   -0.0388    0.4867 C   0  0  0  0  0  0  0  0  0  0  0  0
   -1.2461   -2.2231    0.1361 H   0  0  0  0  0  0  0  0  0  0  0  0
   -0.3623   -2.1004    1.7738 H   0  0  0  0  0  0  0  0  0  0  0  0
    0.1650   -3.1999    0.5121 H   0  0  0  0  0  0  0  0  0  0  0  0
    1.4528   -1.5906   -0.3626 H   0  0  0  0  0  0  0  0  0  0  0  0
    1.1065   -0.5975    1.0769 H   0  0  0  0  0  0  0  0  0  0  0  0
    1.7295    0.4219   -1.7395 H   0  0  0  0  0  0  0  0  0  0  0  0
    0.4154    1.6533   -1.9312 H   0  0  0  0  0  0  0  0  0  0  0  0
    2.1093    2.6699   -0.4892 H   0  0  0  0  0  0  0  0  0  0  0  0
    0.7767    2.2701    0.5833 H   0  0  0  0  0  0  0  0  0  0  0  0
    3.1681    1.5294    1.0620 H   0  0  0  0  0  0  0  0  0  0  0  0
   -1.6812    1.2829   -1.0910 H   0  0  0  0  0  0  0  0  0  0  0  0
   -3.1502   -0.7835    0.1647 H   0  0  0  0  0  0  0  0  0  0  0  0
   -1.9484   -0.3582    1.4536 H   0  0  0  0  0  0  0  0  0  0  0  0
   -2.9842    0.8711    0.7402 H   0  0  0  0  0  0  0  0  0  0  0  0
  1  2  1  0
  2  3  1  0
  3  4  1  0
  4  5  1  0
  5  6  1  0
  3  7  1  0
  7  8  1  0
  8  9  1  0
  8  3  1  0
  1 10  1  0
  1 11  1  0
  1 12  1  0
  2 13  1  0
  2 14  1  0
  4 15  1  0
  4 16  1  0
  5 17  1  0
  5 18  1  0
  6 19  1  0
  8 20  1  0
  9 21  1  0
  9 22  1  0
  9 23  1  0
M  END
