
     RDKit          3D

 21 21  0  0  0  0  0  0  0  0999 V2000
    2.2927   -0.7700    0.1428 C   0  0  0  0  0  0  0  0  0  0  0  0
    1.6508    0.5225   -0.2247 C   0  0  0  0  0  0  0  0  0  0  0  0
    0.2219    0.3830   -0.6859 C   0  0  0  0  0  0  0  0  0  0  0  0
   -0.2372    1.6993   -0.9951 O   0  0  0  0  0  0  0  0  0  0  0  0
   -1.2968    2.0268   -0.1410 C   0  0  0  0  0  0  0  0  0  0  0  0
   -1.6519    3.1663    0.2630 O   0  0  0  0  0  0  0  0  0  0  0  0
   -1.9237    0.7152    0.1920 C   0  0  0  0  0  0  0  0  0  0  0  0
   -0.6875   -0.1449    0.3757 C   0  0  0  0  0  0  0  0  0  0  0  0
   -1.0629   -1.5943    0.1729 C   0  0  0  0  0  0  0  0  0  0  0  0
    2.2177   -1.0137    1.2204 H   0  0  0  0  0  0  0  0  0  0  0  0
    1.9186   -1.6471   -0.4239 H   0  0  0  0  0  0  0  0  0  0  0  0
    3.3843   -0.6992   -0.0766 H   0  0  0  0  0  0  0  0  0  0  0  0
    1.7020    1.2030    0.6461 H   0  0  0  0  0  0  0  0  0  0  0  0
    2.2352    0.9800   -1.0524 H   0  0  0  0  0  0  0  0  0  0  0  0
    0.1540   -0.1931   -1.6314 H   0  0  0  0  0  0  0  0  0  0  0  0
   -2.5087    0.3999   -0.7041 H   0  0  0  0  0  0  0  0  0  0  0  0
   -2.5427    0.7713    1.1089 H   0  0  0  0  0  0  0  0  0  0  0  0
   -0.2665    0.0554    1.3669 H   0  0  0  0  0  0  0  0  0  0  0  0
   -0.9315   -2.0919    1.1629 H   0  0  0  0  0  0  0  0  0  0  0  0
   -0.5149   -2.0874   -0.6284 H   0  0  0  0  0  0  0  0  0  0  0  0
   -2.1529   -1.6810   -0.0882 H   0  0  0  0  0  0  0  0  0  0  0  0
  1  2  1  0
  2  3  1  0
  3  4  1  0
  4  5  1  0
  5  6  2  0
  5  7  1  0
  7  8  1  0
  8  9  1  0
  8  3  1  0
  1 10  1  0
  1 11  1  0
  1 12  1  0
  2 13  1  0
  2 14  1  0
  3 15  1  0
  7 16  1  0
  7 17  1  0
  8 18  1  0
  9 19  1  0
  9 20  1  0
  9 21  1  0
M  END
