
     RDKit          3D

 25 25  0  0  0  0  0  0  0  0999 V2000
   -2.7387    0.8006    0.3505 C   0  0  0  0  0  0  0  0  0  0  0  0
   -1.9146   -0.0277    1.3121 C   0  0  0  0  0  0  0  0  0  0  0  0
   -0.5988   -0.2942    0.5370 C   0  0  0  0  0  0  0  0  0  0  0  0
    0.0722    0.9865    0.1969 C   0  0  0  0  0  0  0  0  0  0  0  0
    1.3559    0.7844   -0.5420 C   0  0  0  0  0  0  0  0  0  0  0  0
    2.2318    0.0674    0.2604 O   0  0  0  0  0  0  0  0  0  0  0  0
    3.4214   -0.1108   -0.4446 C   0  0  0  0  0  0  0  0  0  0  0  0
   -0.9206   -1.1481   -0.7149 C   0  0  0  0  0  0  0  0  0  0  0  0
   -0.0656   -1.6304    0.4345 C   0  0  0  0  0  0  0  0  0  0  0  0
   -2.4811    0.5668   -0.7036 H   0  0  0  0  0  0  0  0  0  0  0  0
   -3.8212    0.6141    0.4498 H   0  0  0  0  0  0  0  0  0  0  0  0
   -2.4660    1.8621    0.5243 H   0  0  0  0  0  0  0  0  0  0  0  0
   -1.6524    0.5058    2.2277 H   0  0  0  0  0  0  0  0  0  0  0  0
   -2.3708   -0.9986    1.5305 H   0  0  0  0  0  0  0  0  0  0  0  0
    0.3551    1.5656    1.1297 H   0  0  0  0  0  0  0  0  0  0  0  0
   -0.6401    1.6505   -0.3558 H   0  0  0  0  0  0  0  0  0  0  0  0
    1.2110    0.2625   -1.5125 H   0  0  0  0  0  0  0  0  0  0  0  0
    1.8037    1.7873   -0.7799 H   0  0  0  0  0  0  0  0  0  0  0  0
    3.8311    0.8756   -0.6788 H   0  0  0  0  0  0  0  0  0  0  0  0
    3.1686   -0.7240   -1.3332 H   0  0  0  0  0  0  0  0  0  0  0  0
    4.1117   -0.6612    0.2511 H   0  0  0  0  0  0  0  0  0  0  0  0
   -0.4653   -0.8695   -1.6696 H   0  0  0  0  0  0  0  0  0  0  0  0
   -1.9002   -1.6106   -0.8118 H   0  0  0  0  0  0  0  0  0  0  0  0
    0.9700   -1.8094    0.1727 H   0  0  0  0  0  0  0  0  0  0  0  0
   -0.4972   -2.4448    1.0556 H   0  0  0  0  0  0  0  0  0  0  0  0
  1  2  1  0
  2  3  1  0
  3  4  1  0
  4  5  1  0
  5  6  1  0
  6  7  1  0
  3  8  1  0
  8  9  1  0
  9  3  1  0
  1 10  1  0
  1 11  1  0
  1 12  1  0
  2 13  1  0
  2 14  1  0
  4 15  1  0
  4 16  1  0
  5 17  1  0
  5 18  1  0
  7 19  1  0
  7 20  1  0
  7 21  1  0
  8 22  1  0
  8 23  1  0
  9 24  1  0
  9 25  1  0
M  END
