
     RDKit          3D

 21 22  0  0  0  0  0  0  0  0999 V2000
    2.3074   -0.1672   -0.4164 C   0  0  0  0  0  0  0  0  0  0  0  0
    1.2906   -0.4119    0.6658 C   0  0  0  0  0  0  0  0  0  0  0  0
   -0.1174   -0.1440    0.2319 C   0  0  0  0  0  0  0  0  0  0  0  0
   -0.3105    1.2759   -0.2036 C   0  0  0  0  0  0  0  0  0  0  0  0
   -1.4384    2.0925    0.1195 C   0  0  0  0  0  0  0  0  0  0  0  0
   -0.2034    2.2414    0.8795 O   0  0  0  0  0  0  0  0  0  0  0  0
   -0.7005   -1.0983   -0.7629 C   0  0  0  0  0  0  0  0  0  0  0  0
   -1.5946   -1.5791    0.3433 C   0  0  0  0  0  0  0  0  0  0  0  0
   -1.0166   -0.6125    1.1794 O   0  0  0  0  0  0  0  0  0  0  0  0
    3.2873   -0.5579   -0.0183 H   0  0  0  0  0  0  0  0  0  0  0  0
    2.4569    0.9014   -0.6136 H   0  0  0  0  0  0  0  0  0  0  0  0
    2.0948   -0.7298   -1.3393 H   0  0  0  0  0  0  0  0  0  0  0  0
    1.5210    0.3248    1.4845 H   0  0  0  0  0  0  0  0  0  0  0  0
    1.4137   -1.4173    1.0858 H   0  0  0  0  0  0  0  0  0  0  0  0
    0.3650    1.5871   -1.0269 H   0  0  0  0  0  0  0  0  0  0  0  0
   -1.6783    2.9599   -0.5358 H   0  0  0  0  0  0  0  0  0  0  0  0
   -2.2350    1.7626    0.8093 H   0  0  0  0  0  0  0  0  0  0  0  0
   -0.0084   -1.8289   -1.1896 H   0  0  0  0  0  0  0  0  0  0  0  0
   -1.3123   -0.6462   -1.5732 H   0  0  0  0  0  0  0  0  0  0  0  0
   -2.6756   -1.3361    0.2270 H   0  0  0  0  0  0  0  0  0  0  0  0
   -1.4457   -2.6165    0.6537 H   0  0  0  0  0  0  0  0  0  0  0  0
  1  2  1  0
  2  3  1  0
  3  4  1  0
  4  5  1  0
  5  6  1  0
  3  7  1  0
  7  8  1  0
  8  9  1  0
  9  3  1  0
  6  4  1  0
  1 10  1  0
  1 11  1  0
  1 12  1  0
  2 13  1  0
  2 14  1  0
  4 15  1  0
  5 16  1  0
  5 17  1  0
  7 18  1  0
  7 19  1  0
  8 20  1  0
  8 21  1  0
M  END
