
     RDKit          3D

 21 22  0  0  0  0  0  0  0  0999 V2000
   -3.1151   -0.0525   -0.1707 C   0  0  0  0  0  0  0  0  0  0  0  0
   -1.9566    0.8852   -0.4272 C   0  0  0  0  0  0  0  0  0  0  0  0
   -0.7951    0.0520   -0.8903 C   0  0  0  0  0  0  0  0  0  0  0  0
   -0.5175   -0.8594    0.1613 O   0  0  0  0  0  0  0  0  0  0  0  0
    0.8449   -0.8840    0.0972 C   0  0  0  0  0  0  0  0  0  0  0  0
    1.8867   -0.1895    0.7375 C   0  0  0  0  0  0  0  0  0  0  0  0
    3.3153   -0.3417    0.1865 C   0  0  0  0  0  0  0  0  0  0  0  0
    0.9493    0.6948    0.1757 C   0  0  0  0  0  0  0  0  0  0  0  0
    0.3689    0.8423   -1.0452 O   0  0  0  0  0  0  0  0  0  0  0  0
   -4.0193    0.4526    0.1737 H   0  0  0  0  0  0  0  0  0  0  0  0
   -2.8130   -0.8341    0.5822 H   0  0  0  0  0  0  0  0  0  0  0  0
   -3.3640   -0.6260   -1.0963 H   0  0  0  0  0  0  0  0  0  0  0  0
   -1.7420    1.4044    0.5118 H   0  0  0  0  0  0  0  0  0  0  0  0
   -2.2971    1.6098   -1.1909 H   0  0  0  0  0  0  0  0  0  0  0  0
   -1.0453   -0.5032   -1.7959 H   0  0  0  0  0  0  0  0  0  0  0  0
    1.1206   -1.3338   -0.9088 H   0  0  0  0  0  0  0  0  0  0  0  0
    1.9516   -0.2921    1.8641 H   0  0  0  0  0  0  0  0  0  0  0  0
    3.3177   -0.4507   -0.8949 H   0  0  0  0  0  0  0  0  0  0  0  0
    3.7484   -1.2656    0.6515 H   0  0  0  0  0  0  0  0  0  0  0  0
    3.9088    0.5029    0.5607 H   0  0  0  0  0  0  0  0  0  0  0  0
    0.2526    1.1884    0.9274 H   0  0  0  0  0  0  0  0  0  0  0  0
  1  2  1  0
  2  3  1  0
  3  4  1  0
  4  5  1  0
  5  6  1  0
  6  7  1  0
  6  8  1  0
  8  9  1  0
  9  3  1  0
  8  5  1  0
  1 10  1  0
  1 11  1  0
  1 12  1  0
  2 13  1  0
  2 14  1  0
  3 15  1  0
  5 16  1  0
  6 17  1  0
  7 18  1  0
  7 19  1  0
  7 20  1  0
  8 21  1  0
M  END
