
     RDKit          3D

 25 25  0  0  0  0  0  0  0  0999 V2000
    2.4419    0.4670    1.0893 C   0  0  0  0  0  0  0  0  0  0  0  0
    1.6333   -0.4947    0.2420 C   0  0  0  0  0  0  0  0  0  0  0  0
    0.6589    0.2496   -0.5983 C   0  0  0  0  0  0  0  0  0  0  0  0
   -0.3656    1.0916    0.0801 C   0  0  0  0  0  0  0  0  0  0  0  0
   -0.8784    0.6691    1.4027 C   0  0  0  0  0  0  0  0  0  0  0  0
   -1.3350    0.6641   -1.0276 C   0  0  0  0  0  0  0  0  0  0  0  0
   -2.6047    0.3838   -0.5936 O   0  0  0  0  0  0  0  0  0  0  0  0
   -0.4307   -0.5286   -1.2552 C   0  0  0  0  0  0  0  0  0  0  0  0
   -0.8497   -1.8022   -0.6168 C   0  0  0  0  0  0  0  0  0  0  0  0
    1.8374    1.4008    1.1853 H   0  0  0  0  0  0  0  0  0  0  0  0
    3.3814    0.7818    0.5511 H   0  0  0  0  0  0  0  0  0  0  0  0
    2.6997    0.0392    2.0743 H   0  0  0  0  0  0  0  0  0  0  0  0
    2.3527   -1.0016   -0.4295 H   0  0  0  0  0  0  0  0  0  0  0  0
    1.2023   -1.2609    0.8922 H   0  0  0  0  0  0  0  0  0  0  0  0
    1.1931    0.8632   -1.3624 H   0  0  0  0  0  0  0  0  0  0  0  0
   -0.1416    2.1879    0.0571 H   0  0  0  0  0  0  0  0  0  0  0  0
   -0.3491   -0.1715    1.8740 H   0  0  0  0  0  0  0  0  0  0  0  0
   -1.9634    0.3792    1.3853 H   0  0  0  0  0  0  0  0  0  0  0  0
   -0.8353    1.5101    2.1568 H   0  0  0  0  0  0  0  0  0  0  0  0
   -1.2577    1.4042   -1.8617 H   0  0  0  0  0  0  0  0  0  0  0  0
   -3.1953    0.3508   -1.3896 H   0  0  0  0  0  0  0  0  0  0  0  0
   -0.2951   -0.6786   -2.3645 H   0  0  0  0  0  0  0  0  0  0  0  0
    0.0244   -2.4748   -0.5108 H   0  0  0  0  0  0  0  0  0  0  0  0
   -1.3763   -1.7043    0.3360 H   0  0  0  0  0  0  0  0  0  0  0  0
   -1.5471   -2.3253   -1.3161 H   0  0  0  0  0  0  0  0  0  0  0  0
  1  2  1  0
  2  3  1  0
  3  4  1  0
  4  5  1  0
  4  6  1  0
  6  7  1  0
  6  8  1  0
  8  9  1  0
  8  3  1  0
  1 10  1  0
  1 11  1  0
  1 12  1  0
  2 13  1  0
  2 14  1  0
  3 15  1  0
  4 16  1  0
  5 17  1  0
  5 18  1  0
  5 19  1  0
  6 20  1  0
  7 21  1  0
  8 22  1  0
  9 23  1  0
  9 24  1  0
  9 25  1  0
M  END
