
     RDKit          3D

 19 19  0  0  0  0  0  0  0  0999 V2000
   -1.8370   -0.7335   -0.2222 C   0  0  0  0  0  0  0  0  0  0  0  0
   -1.0422    0.4582   -0.7014 C   0  0  0  0  0  0  0  0  0  0  0  0
    0.0154    0.7727    0.3118 C   0  0  0  0  0  0  0  0  0  0  0  0
   -0.5220    1.0751    1.5584 O   0  0  0  0  0  0  0  0  0  0  0  0
    0.9016    1.8496   -0.1897 C   0  0  0  0  0  0  0  0  0  0  0  0
    0.9933    3.0936   -0.1462 O   0  0  0  0  0  0  0  0  0  0  0  0
    1.6782    0.8760   -0.7906 O   0  0  0  0  0  0  0  0  0  0  0  0
    1.2713    0.0107    0.2793 C   0  0  0  0  0  0  0  0  0  0  0  0
    1.2839   -1.4003   -0.1542 C   0  0  0  0  0  0  0  0  0  0  0  0
   -1.2144   -1.2962    0.4953 H   0  0  0  0  0  0  0  0  0  0  0  0
   -2.6896   -0.3173    0.3898 H   0  0  0  0  0  0  0  0  0  0  0  0
   -2.2213   -1.3523   -1.0557 H   0  0  0  0  0  0  0  0  0  0  0  0
   -0.6729    0.2369   -1.6964 H   0  0  0  0  0  0  0  0  0  0  0  0
   -1.7403    1.3390   -0.8125 H   0  0  0  0  0  0  0  0  0  0  0  0
   -0.0940    0.6100    2.3017 H   0  0  0  0  0  0  0  0  0  0  0  0
    1.8708    0.1614    1.1951 H   0  0  0  0  0  0  0  0  0  0  0  0
    0.6381   -1.6620   -0.9843 H   0  0  0  0  0  0  0  0  0  0  0  0
    1.0444   -2.0761    0.7058 H   0  0  0  0  0  0  0  0  0  0  0  0
    2.3368   -1.6455   -0.4840 H   0  0  0  0  0  0  0  0  0  0  0  0
  1  2  1  0
  2  3  1  0
  3  4  1  0
  3  5  1  0
  5  6  2  0
  5  7  1  0
  7  8  1  0
  8  9  1  0
  8  3  1  0
  1 10  1  0
  1 11  1  0
  1 12  1  0
  2 13  1  0
  2 14  1  0
  4 15  1  0
  8 16  1  0
  9 17  1  0
  9 18  1  0
  9 19  1  0
M  END
