
     RDKit          3D

 23 23  0  0  0  0  0  0  0  0999 V2000
    2.7238    0.8090    0.2405 C   0  0  0  0  0  0  0  0  0  0  0  0
    2.0329   -0.2021   -0.6597 C   0  0  0  0  0  0  0  0  0  0  0  0
    0.7095   -0.5266   -0.0114 C   0  0  0  0  0  0  0  0  0  0  0  0
   -0.1658    0.6951    0.1421 C   0  0  0  0  0  0  0  0  0  0  0  0
   -1.5750    0.2638   -0.2204 C   0  0  0  0  0  0  0  0  0  0  0  0
   -2.5548    0.6330    0.8494 C   0  0  0  0  0  0  0  0  0  0  0  0
   -1.4944   -1.2581   -0.3086 C   0  0  0  0  0  0  0  0  0  0  0  0
   -0.1210   -1.4289   -0.8452 C   0  0  0  0  0  0  0  0  0  0  0  0
    0.2880   -2.1242   -1.7473 O   0  0  0  0  0  0  0  0  0  0  0  0
    3.4419    0.2841    0.9248 H   0  0  0  0  0  0  0  0  0  0  0  0
    1.9982    1.3208    0.9011 H   0  0  0  0  0  0  0  0  0  0  0  0
    3.2435    1.5556   -0.3606 H   0  0  0  0  0  0  0  0  0  0  0  0
    1.9084    0.1883   -1.6807 H   0  0  0  0  0  0  0  0  0  0  0  0
    2.6376   -1.1205   -0.6782 H   0  0  0  0  0  0  0  0  0  0  0  0
    0.8958   -1.0321    0.9574 H   0  0  0  0  0  0  0  0  0  0  0  0
    0.2263    1.4542   -0.5735 H   0  0  0  0  0  0  0  0  0  0  0  0
   -0.0905    1.0316    1.1964 H   0  0  0  0  0  0  0  0  0  0  0  0
   -1.8761    0.6418   -1.2285 H   0  0  0  0  0  0  0  0  0  0  0  0
   -3.0823    1.5996    0.6102 H   0  0  0  0  0  0  0  0  0  0  0  0
   -3.3502   -0.1615    0.8894 H   0  0  0  0  0  0  0  0  0  0  0  0
   -2.0377    0.7123    1.8111 H   0  0  0  0  0  0  0  0  0  0  0  0
   -1.4808   -1.6523    0.7313 H   0  0  0  0  0  0  0  0  0  0  0  0
   -2.2773   -1.6829   -0.9398 H   0  0  0  0  0  0  0  0  0  0  0  0
  1  2  1  0
  2  3  1  0
  3  4  1  0
  4  5  1  0
  5  6  1  0
  5  7  1  0
  7  8  1  0
  8  9  2  0
  8  3  1  0
  1 10  1  0
  1 11  1  0
  1 12  1  0
  2 13  1  0
  2 14  1  0
  3 15  1  0
  4 16  1  0
  4 17  1  0
  5 18  1  0
  6 19  1  0
  6 20  1  0
  6 21  1  0
  7 22  1  0
  7 23  1  0
M  END
