
     RDKit          3D

 23 23  0  0  0  0  0  0  0  0999 V2000
   -2.2932   -0.7401    0.0135 C   0  0  0  0  0  0  0  0  0  0  0  0
   -0.8368   -0.8340    0.4839 C   0  0  0  0  0  0  0  0  0  0  0  0
    0.0053   -0.0174   -0.4736 C   0  0  0  0  0  0  0  0  0  0  0  0
   -0.0610   -0.4803   -1.8652 C   0  0  0  0  0  0  0  0  0  0  0  0
   -0.3929    0.2984   -2.7495 O   0  0  0  0  0  0  0  0  0  0  0  0
   -0.3614    1.4514   -0.3209 C   0  0  0  0  0  0  0  0  0  0  0  0
    0.7635    1.5218    0.7207 C   0  0  0  0  0  0  0  0  0  0  0  0
    1.3804    0.3431    0.0356 C   0  0  0  0  0  0  0  0  0  0  0  0
    2.0081   -0.6900    0.9159 C   0  0  0  0  0  0  0  0  0  0  0  0
   -2.9761   -0.5288    0.8403 H   0  0  0  0  0  0  0  0  0  0  0  0
   -2.3969    0.0107   -0.7861 H   0  0  0  0  0  0  0  0  0  0  0  0
   -2.5016   -1.7362   -0.4704 H   0  0  0  0  0  0  0  0  0  0  0  0
   -0.4915   -1.8628    0.5721 H   0  0  0  0  0  0  0  0  0  0  0  0
   -0.8207   -0.3694    1.4910 H   0  0  0  0  0  0  0  0  0  0  0  0
    0.1688   -1.4796   -2.1570 H   0  0  0  0  0  0  0  0  0  0  0  0
   -1.3632    1.6361    0.0717 H   0  0  0  0  0  0  0  0  0  0  0  0
   -0.1288    2.0733   -1.2017 H   0  0  0  0  0  0  0  0  0  0  0  0
    0.4301    1.2668    1.7429 H   0  0  0  0  0  0  0  0  0  0  0  0
    1.2900    2.4865    0.6275 H   0  0  0  0  0  0  0  0  0  0  0  0
    2.0457    0.6505   -0.7754 H   0  0  0  0  0  0  0  0  0  0  0  0
    2.4476   -1.4702    0.2512 H   0  0  0  0  0  0  0  0  0  0  0  0
    2.8317   -0.2836    1.5100 H   0  0  0  0  0  0  0  0  0  0  0  0
    1.2528   -1.2461    1.5406 H   0  0  0  0  0  0  0  0  0  0  0  0
  1  2  1  0
  2  3  1  0
  3  4  1  0
  4  5  2  0
  3  6  1  0
  6  7  1  0
  7  8  1  0
  8  9  1  0
  8  3  1  0
  1 10  1  0
  1 11  1  0
  1 12  1  0
  2 13  1  0
  2 14  1  0
  4 15  1  0
  6 16  1  0
  6 17  1  0
  7 18  1  0
  7 19  1  0
  8 20  1  0
  9 21  1  0
  9 22  1  0
  9 23  1  0
M  END
