
     RDKit          3D

 23 24  0  0  0  0  0  0  0  0999 V2000
    3.0017    0.5945   -0.2315 C   0  0  0  0  0  0  0  0  0  0  0  0
    1.6698    0.1735   -0.8234 C   0  0  0  0  0  0  0  0  0  0  0  0
    0.8917   -0.6300    0.1255 C   0  0  0  0  0  0  0  0  0  0  0  0
    0.5588   -0.0020    1.3553 O   0  0  0  0  0  0  0  0  0  0  0  0
   -0.2955   -1.0991    1.4709 C   0  0  0  0  0  0  0  0  0  0  0  0
   -1.5156   -1.4181    0.7947 C   0  0  0  0  0  0  0  0  0  0  0  0
   -0.6108   -0.5917    0.0067 C   0  0  0  0  0  0  0  0  0  0  0  0
   -1.1102    0.8618   -0.0380 C   0  0  0  0  0  0  0  0  0  0  0  0
   -2.6429    0.8788   -0.1486 C   0  0  0  0  0  0  0  0  0  0  0  0
    2.8587    1.4830    0.4126 H   0  0  0  0  0  0  0  0  0  0  0  0
    3.6142    0.9517   -1.0996 H   0  0  0  0  0  0  0  0  0  0  0  0
    3.4665   -0.2492    0.2952 H   0  0  0  0  0  0  0  0  0  0  0  0
    1.9295   -0.5013   -1.6927 H   0  0  0  0  0  0  0  0  0  0  0  0
    1.2404    1.0636   -1.2577 H   0  0  0  0  0  0  0  0  0  0  0  0
    1.3319   -1.6393    0.2408 H   0  0  0  0  0  0  0  0  0  0  0  0
    0.3833   -2.0062    1.5335 H   0  0  0  0  0  0  0  0  0  0  0  0
   -2.4672   -1.0371    1.2505 H   0  0  0  0  0  0  0  0  0  0  0  0
   -1.7220   -2.4273    0.3252 H   0  0  0  0  0  0  0  0  0  0  0  0
   -0.8925    1.4170    0.8686 H   0  0  0  0  0  0  0  0  0  0  0  0
   -0.7084    1.2796   -0.9790 H   0  0  0  0  0  0  0  0  0  0  0  0
   -2.8774    1.8871   -0.5939 H   0  0  0  0  0  0  0  0  0  0  0  0
   -3.0127    0.1396   -0.8552 H   0  0  0  0  0  0  0  0  0  0  0  0
   -3.0911    0.8712    0.8430 H   0  0  0  0  0  0  0  0  0  0  0  0
  1  2  1  0
  2  3  1  0
  3  4  1  0
  4  5  1  0
  5  6  1  0
  6  7  1  0
  7  8  1  0
  8  9  1  0
  7  3  1  0
  7  5  1  0
  1 10  1  0
  1 11  1  0
  1 12  1  0
  2 13  1  0
  2 14  1  0
  3 15  1  0
  5 16  1  0
  6 17  1  0
  6 18  1  0
  8 19  1  0
  8 20  1  0
  9 21  1  0
  9 22  1  0
  9 23  1  0
M  END
