
     RDKit          3D

 25 26  0  0  0  0  0  0  0  0999 V2000
   -1.9948    1.4048   -0.1502 C   0  0  0  0  0  0  0  0  0  0  0  0
   -1.8211   -0.0219   -0.5330 C   0  0  0  0  0  0  0  0  0  0  0  0
   -0.6267   -0.6858    0.0895 C   0  0  0  0  0  0  0  0  0  0  0  0
   -0.4802   -2.1530   -0.3272 C   0  0  0  0  0  0  0  0  0  0  0  0
   -0.2143   -0.3029    1.4903 C   0  0  0  0  0  0  0  0  0  0  0  0
    0.6126    0.0171    0.3528 C   0  0  0  0  0  0  0  0  0  0  0  0
    0.9903    1.3496   -0.1346 C   0  0  0  0  0  0  0  0  0  0  0  0
    2.3723    0.7803   -0.4868 C   0  0  0  0  0  0  0  0  0  0  0  0
    1.9772   -0.5432    0.1710 C   0  0  0  0  0  0  0  0  0  0  0  0
   -1.9050    2.0836   -1.0260 H   0  0  0  0  0  0  0  0  0  0  0  0
   -1.3159    1.7736    0.6246 H   0  0  0  0  0  0  0  0  0  0  0  0
   -3.0360    1.5560    0.2602 H   0  0  0  0  0  0  0  0  0  0  0  0
   -2.7289   -0.6193   -0.2910 H   0  0  0  0  0  0  0  0  0  0  0  0
   -1.7231   -0.1009   -1.6549 H   0  0  0  0  0  0  0  0  0  0  0  0
   -1.4179   -2.5464   -0.7656 H   0  0  0  0  0  0  0  0  0  0  0  0
   -0.2214   -2.7779    0.5463 H   0  0  0  0  0  0  0  0  0  0  0  0
    0.3185   -2.2289   -1.0756 H   0  0  0  0  0  0  0  0  0  0  0  0
    0.1353   -1.1531    2.1454 H   0  0  0  0  0  0  0  0  0  0  0  0
   -0.8222    0.4192    2.0682 H   0  0  0  0  0  0  0  0  0  0  0  0
    0.4874    1.6649   -1.0958 H   0  0  0  0  0  0  0  0  0  0  0  0
    1.0804    2.1668    0.6078 H   0  0  0  0  0  0  0  0  0  0  0  0
    3.1859    1.3144    0.0243 H   0  0  0  0  0  0  0  0  0  0  0  0
    2.5667    0.6722   -1.5535 H   0  0  0  0  0  0  0  0  0  0  0  0
    2.0903   -1.4282   -0.4562 H   0  0  0  0  0  0  0  0  0  0  0  0
    2.4906   -0.6409    1.1701 H   0  0  0  0  0  0  0  0  0  0  0  0
  1  2  1  0
  2  3  1  0
  3  4  1  0
  3  5  1  0
  5  6  1  0
  6  7  1  0
  7  8  1  0
  8  9  1  0
  6  3  1  0
  9  6  1  0
  1 10  1  0
  1 11  1  0
  1 12  1  0
  2 13  1  0
  2 14  1  0
  4 15  1  0
  4 16  1  0
  4 17  1  0
  5 18  1  0
  5 19  1  0
  7 20  1  0
  7 21  1  0
  8 22  1  0
  8 23  1  0
  9 24  1  0
  9 25  1  0
M  END
