
     RDKit          3D

 25 25  0  0  0  0  0  0  0  0999 V2000
    2.1716    0.4198    0.5323 C   0  0  0  0  0  0  0  0  0  0  0  0
    1.8134   -0.0971   -0.8030 C   0  0  0  0  0  0  0  0  0  0  0  0
    0.3790   -0.2227   -1.1325 C   0  0  0  0  0  0  0  0  0  0  0  0
   -0.4295    1.0560   -1.0889 C   0  0  0  0  0  0  0  0  0  0  0  0
   -1.4526    0.3508   -0.2512 C   0  0  0  0  0  0  0  0  0  0  0  0
   -1.6986    0.9771    1.0831 C   0  0  0  0  0  0  0  0  0  0  0  0
   -0.5825   -0.8800   -0.2484 C   0  0  0  0  0  0  0  0  0  0  0  0
   -0.1336   -1.3481    1.1098 C   0  0  0  0  0  0  0  0  0  0  0  0
   -1.3059   -1.9360   -0.8556 O   0  0  0  0  0  0  0  0  0  0  0  0
    2.3565   -0.3394    1.3126 H   0  0  0  0  0  0  0  0  0  0  0  0
    1.4884    1.1780    0.9546 H   0  0  0  0  0  0  0  0  0  0  0  0
    3.1644    0.9533    0.4346 H   0  0  0  0  0  0  0  0  0  0  0  0
    2.2618    0.5977   -1.5642 H   0  0  0  0  0  0  0  0  0  0  0  0
    2.3130   -1.0703   -0.9740 H   0  0  0  0  0  0  0  0  0  0  0  0
    0.2960   -0.6316   -2.1871 H   0  0  0  0  0  0  0  0  0  0  0  0
   -0.8008    1.4320   -2.0603 H   0  0  0  0  0  0  0  0  0  0  0  0
    0.0987    1.8683   -0.5634 H   0  0  0  0  0  0  0  0  0  0  0  0
   -2.4100    0.2655   -0.8110 H   0  0  0  0  0  0  0  0  0  0  0  0
   -0.8166    1.3631    1.5913 H   0  0  0  0  0  0  0  0  0  0  0  0
   -2.3800    1.8489    0.9144 H   0  0  0  0  0  0  0  0  0  0  0  0
   -2.2553    0.2963    1.7585 H   0  0  0  0  0  0  0  0  0  0  0  0
   -0.9646   -1.9532    1.5851 H   0  0  0  0  0  0  0  0  0  0  0  0
    0.0236   -0.5114    1.8236 H   0  0  0  0  0  0  0  0  0  0  0  0
    0.7049   -2.0460    1.0256 H   0  0  0  0  0  0  0  0  0  0  0  0
   -1.8413   -1.5708   -1.5860 H   0  0  0  0  0  0  0  0  0  0  0  0
  1  2  1  0
  2  3  1  0
  3  4  1  0
  4  5  1  0
  5  6  1  0
  5  7  1  0
  7  8  1  0
  7  9  1  0
  7  3  1  0
  1 10  1  0
  1 11  1  0
  1 12  1  0
  2 13  1  0
  2 14  1  0
  3 15  1  0
  4 16  1  0
  4 17  1  0
  5 18  1  0
  6 19  1  0
  6 20  1  0
  6 21  1  0
  8 22  1  0
  8 23  1  0
  8 24  1  0
  9 25  1  0
M  END
