
     RDKit          3D

 21 21  0  0  0  0  0  0  0  0999 V2000
    2.0651   -0.1100    0.7874 C   0  0  0  0  0  0  0  0  0  0  0  0
    1.5154   -0.6548   -0.4636 C   0  0  0  0  0  0  0  0  0  0  0  0
    0.1950   -0.1563   -0.8965 C   0  0  0  0  0  0  0  0  0  0  0  0
    0.2140    1.3117   -1.1149 C   0  0  0  0  0  0  0  0  0  0  0  0
    0.5771    2.0589   -2.0354 O   0  0  0  0  0  0  0  0  0  0  0  0
   -0.3438    1.5447    0.1348 O   0  0  0  0  0  0  0  0  0  0  0  0
   -0.8410    0.2063    0.0810 C   0  0  0  0  0  0  0  0  0  0  0  0
   -0.9639   -0.5108    1.3547 C   0  0  0  0  0  0  0  0  0  0  0  0
   -2.2100    0.2779   -0.6163 C   0  0  0  0  0  0  0  0  0  0  0  0
    1.4570    0.6224    1.3210 H   0  0  0  0  0  0  0  0  0  0  0  0
    2.2686   -0.9569    1.5010 H   0  0  0  0  0  0  0  0  0  0  0  0
    3.0789    0.3713    0.6533 H   0  0  0  0  0  0  0  0  0  0  0  0
    1.4820   -1.7801   -0.4546 H   0  0  0  0  0  0  0  0  0  0  0  0
    2.2455   -0.4169   -1.2926 H   0  0  0  0  0  0  0  0  0  0  0  0
   -0.1730   -0.6835   -1.7867 H   0  0  0  0  0  0  0  0  0  0  0  0
   -1.9030   -1.1119    1.4107 H   0  0  0  0  0  0  0  0  0  0  0  0
   -0.1187   -1.1589    1.6409 H   0  0  0  0  0  0  0  0  0  0  0  0
   -1.0626    0.2492    2.1842 H   0  0  0  0  0  0  0  0  0  0  0  0
   -2.5114   -0.7220   -0.9666 H   0  0  0  0  0  0  0  0  0  0  0  0
   -2.9359    0.7277    0.0833 H   0  0  0  0  0  0  0  0  0  0  0  0
   -2.0353    0.8918   -1.5250 H   0  0  0  0  0  0  0  0  0  0  0  0
  1  2  1  0
  2  3  1  0
  3  4  1  0
  4  5  2  0
  4  6  1  0
  6  7  1  0
  7  8  1  0
  7  9  1  0
  7  3  1  0
  1 10  1  0
  1 11  1  0
  1 12  1  0
  2 13  1  0
  2 14  1  0
  3 15  1  0
  8 16  1  0
  8 17  1  0
  8 18  1  0
  9 19  1  0
  9 20  1  0
  9 21  1  0
M  END
