
     RDKit          3D

 21 21  0  0  0  0  0  0  0  0999 V2000
    2.6904   -0.4834    0.4385 C   0  0  0  0  0  0  0  0  0  0  0  0
    1.6221    0.6054    0.3788 C   0  0  0  0  0  0  0  0  0  0  0  0
    0.5805    0.1493   -0.6018 C   0  0  0  0  0  0  0  0  0  0  0  0
   -0.0290   -1.1486   -0.1575 C   0  0  0  0  0  0  0  0  0  0  0  0
   -1.2986   -1.2289    0.2218 C   0  0  0  0  0  0  0  0  0  0  0  0
   -2.1903   -0.0555    0.2321 C   0  0  0  0  0  0  0  0  0  0  0  0
   -2.9267    0.0564   -0.9468 O   0  0  0  0  0  0  0  0  0  0  0  0
   -1.2710    1.1755    0.2694 C   0  0  0  0  0  0  0  0  0  0  0  0
   -0.4287    1.0600   -0.8154 O   0  0  0  0  0  0  0  0  0  0  0  0
    2.2487   -1.3574    0.9554 H   0  0  0  0  0  0  0  0  0  0  0  0
    2.8714   -0.7957   -0.6262 H   0  0  0  0  0  0  0  0  0  0  0  0
    3.6148   -0.1260    0.9264 H   0  0  0  0  0  0  0  0  0  0  0  0
    2.1192    1.5057   -0.0052 H   0  0  0  0  0  0  0  0  0  0  0  0
    1.2293    0.8203    1.3852 H   0  0  0  0  0  0  0  0  0  0  0  0
    1.1121   -0.0870   -1.5518 H   0  0  0  0  0  0  0  0  0  0  0  0
    0.6365   -2.0148   -0.1671 H   0  0  0  0  0  0  0  0  0  0  0  0
   -1.6598   -2.2009    0.5274 H   0  0  0  0  0  0  0  0  0  0  0  0
   -2.8911   -0.0476    1.0748 H   0  0  0  0  0  0  0  0  0  0  0  0
   -3.3024    0.9808   -0.9554 H   0  0  0  0  0  0  0  0  0  0  0  0
   -1.9494    2.0434    0.1429 H   0  0  0  0  0  0  0  0  0  0  0  0
   -0.7779    1.1488    1.2454 H   0  0  0  0  0  0  0  0  0  0  0  0
  1  2  1  0
  2  3  1  0
  3  4  1  0
  4  5  2  0
  5  6  1  0
  6  7  1  0
  6  8  1  0
  8  9  1  0
  9  3  1  0
  1 10  1  0
  1 11  1  0
  1 12  1  0
  2 13  1  0
  2 14  1  0
  3 15  1  0
  4 16  1  0
  5 17  1  0
  6 18  1  0
  7 19  1  0
  8 20  1  0
  8 21  1  0
M  END
