
     RDKit          3D

 23 24  0  0  0  0  0  0  0  0999 V2000
    2.2344   -0.6804   -0.6373 C   0  0  0  0  0  0  0  0  0  0  0  0
    1.4953   -0.5036    0.6730 C   0  0  0  0  0  0  0  0  0  0  0  0
    0.4473    0.5532    0.4564 C   0  0  0  0  0  0  0  0  0  0  0  0
   -0.3643    0.8163    1.7184 C   0  0  0  0  0  0  0  0  0  0  0  0
   -1.3962    1.5975    1.1714 O   0  0  0  0  0  0  0  0  0  0  0  0
   -1.8269    0.9621    0.0441 C   0  0  0  0  0  0  0  0  0  0  0  0
   -1.2730    1.1855   -1.2950 C   0  0  0  0  0  0  0  0  0  0  0  0
   -0.6494    0.1236   -0.4755 C   0  0  0  0  0  0  0  0  0  0  0  0
   -0.9648   -1.3163   -0.6904 C   0  0  0  0  0  0  0  0  0  0  0  0
    1.8490   -1.5326   -1.2337 H   0  0  0  0  0  0  0  0  0  0  0  0
    2.1393    0.2233   -1.2937 H   0  0  0  0  0  0  0  0  0  0  0  0
    3.3228   -0.8763   -0.4556 H   0  0  0  0  0  0  0  0  0  0  0  0
    1.0898   -1.4430    1.0532 H   0  0  0  0  0  0  0  0  0  0  0  0
    2.2302   -0.0902    1.3935 H   0  0  0  0  0  0  0  0  0  0  0  0
    0.8936    1.4880    0.1189 H   0  0  0  0  0  0  0  0  0  0  0  0
    0.1991    1.3773    2.4678 H   0  0  0  0  0  0  0  0  0  0  0  0
   -0.8445   -0.1034    2.0919 H   0  0  0  0  0  0  0  0  0  0  0  0
   -2.8115    0.4724    0.1244 H   0  0  0  0  0  0  0  0  0  0  0  0
   -0.6142    2.0450   -1.5414 H   0  0  0  0  0  0  0  0  0  0  0  0
   -1.8758    0.8270   -2.1535 H   0  0  0  0  0  0  0  0  0  0  0  0
   -0.5115   -1.7527   -1.6056 H   0  0  0  0  0  0  0  0  0  0  0  0
   -2.0730   -1.4392   -0.8292 H   0  0  0  0  0  0  0  0  0  0  0  0
   -0.6958   -1.9335    0.1958 H   0  0  0  0  0  0  0  0  0  0  0  0
  1  2  1  0
  2  3  1  0
  3  4  1  0
  4  5  1  0
  5  6  1  0
  6  7  1  0
  7  8  1  0
  8  9  1  0
  8  3  1  0
  8  6  1  0
  1 10  1  0
  1 11  1  0
  1 12  1  0
  2 13  1  0
  2 14  1  0
  3 15  1  0
  4 16  1  0
  4 17  1  0
  6 18  1  0
  7 19  1  0
  7 20  1  0
  9 21  1  0
  9 22  1  0
  9 23  1  0
M  END
