
     RDKit          3D

 21 21  0  0  0  0  0  0  0  0999 V2000
    2.2252    0.4947    0.1094 C   0  0  0  0  0  0  0  0  0  0  0  0
    1.4789   -0.3766   -0.8115 C   0  0  0  0  0  0  0  0  0  0  0  0
    0.0309   -0.5473   -0.5836 C   0  0  0  0  0  0  0  0  0  0  0  0
   -0.4004   -1.1162    0.7087 C   0  0  0  0  0  0  0  0  0  0  0  0
   -1.8568   -0.6842    0.8412 C   0  0  0  0  0  0  0  0  0  0  0  0
   -2.0573    0.3693   -0.1832 C   0  0  0  0  0  0  0  0  0  0  0  0
   -3.1212    0.7821   -0.5841 O   0  0  0  0  0  0  0  0  0  0  0  0
   -0.6992    0.7946   -0.5976 C   0  0  0  0  0  0  0  0  0  0  0  0
   -0.0774    1.5954    0.3471 O   0  0  0  0  0  0  0  0  0  0  0  0
    2.2807    1.5501   -0.2531 H   0  0  0  0  0  0  0  0  0  0  0  0
    1.8516    0.5461    1.1450 H   0  0  0  0  0  0  0  0  0  0  0  0
    3.3047    0.1726    0.2057 H   0  0  0  0  0  0  0  0  0  0  0  0
    1.6291   -0.0253   -1.8555 H   0  0  0  0  0  0  0  0  0  0  0  0
    1.9499   -1.4002   -0.7865 H   0  0  0  0  0  0  0  0  0  0  0  0
   -0.4237   -1.1382   -1.4050 H   0  0  0  0  0  0  0  0  0  0  0  0
    0.1192   -0.7289    1.5903 H   0  0  0  0  0  0  0  0  0  0  0  0
   -0.4112   -2.2214    0.6498 H   0  0  0  0  0  0  0  0  0  0  0  0
   -2.0641   -0.2192    1.8256 H   0  0  0  0  0  0  0  0  0  0  0  0
   -2.5562   -1.5322    0.7240 H   0  0  0  0  0  0  0  0  0  0  0  0
   -0.6845    1.2449   -1.6085 H   0  0  0  0  0  0  0  0  0  0  0  0
   -0.5184    2.4399    0.5219 H   0  0  0  0  0  0  0  0  0  0  0  0
  1  2  1  0
  2  3  1  0
  3  4  1  0
  4  5  1  0
  5  6  1  0
  6  7  2  0
  6  8  1  0
  8  9  1  0
  8  3  1  0
  1 10  1  0
  1 11  1  0
  1 12  1  0
  2 13  1  0
  2 14  1  0
  3 15  1  0
  4 16  1  0
  4 17  1  0
  5 18  1  0
  5 19  1  0
  8 20  1  0
  9 21  1  0
M  END
