
     RDKit          3D

 21 22  0  0  0  0  0  0  0  0999 V2000
    2.7327    0.0452    0.1274 C   0  0  0  0  0  0  0  0  0  0  0  0
    1.4622   -0.6977   -0.1298 C   0  0  0  0  0  0  0  0  0  0  0  0
    0.2759   -0.2643    0.6191 C   0  0  0  0  0  0  0  0  0  0  0  0
   -0.2432    1.1085    0.4899 C   0  0  0  0  0  0  0  0  0  0  0  0
   -1.4042    0.6693   -0.3361 C   0  0  0  0  0  0  0  0  0  0  0  0
   -2.6617    1.1337    0.0424 O   0  0  0  0  0  0  0  0  0  0  0  0
   -1.3249   -0.4088   -1.3290 C   0  0  0  0  0  0  0  0  0  0  0  0
   -1.0291   -0.7714    0.0584 C   0  0  0  0  0  0  0  0  0  0  0  0
   -1.8996   -1.4868    0.8456 O   0  0  0  0  0  0  0  0  0  0  0  0
    2.6162    1.1254    0.2634 H   0  0  0  0  0  0  0  0  0  0  0  0
    3.4394   -0.0927   -0.7186 H   0  0  0  0  0  0  0  0  0  0  0  0
    3.2471   -0.3506    1.0281 H   0  0  0  0  0  0  0  0  0  0  0  0
    1.2805   -0.6452   -1.2219 H   0  0  0  0  0  0  0  0  0  0  0  0
    1.6698   -1.7794    0.0780 H   0  0  0  0  0  0  0  0  0  0  0  0
    0.3470   -0.6491    1.6868 H   0  0  0  0  0  0  0  0  0  0  0  0
    0.4103    1.8860    0.0587 H   0  0  0  0  0  0  0  0  0  0  0  0
   -0.5959    1.4876    1.4885 H   0  0  0  0  0  0  0  0  0  0  0  0
   -2.8113    1.9695   -0.4715 H   0  0  0  0  0  0  0  0  0  0  0  0
   -2.3143   -0.7795   -1.7080 H   0  0  0  0  0  0  0  0  0  0  0  0
   -0.5390   -0.5368   -2.0669 H   0  0  0  0  0  0  0  0  0  0  0  0
   -2.6577   -0.9631    1.1955 H   0  0  0  0  0  0  0  0  0  0  0  0
  1  2  1  0
  2  3  1  0
  3  4  1  0
  4  5  1  0
  5  6  1  0
  5  7  1  0
  7  8  1  0
  8  9  1  0
  8  3  1  0
  8  5  1  0
  1 10  1  0
  1 11  1  0
  1 12  1  0
  2 13  1  0
  2 14  1  0
  3 15  1  0
  4 16  1  0
  4 17  1  0
  6 18  1  0
  7 19  1  0
  7 20  1  0
  9 21  1  0
M  END
