
     RDKit          3D

 21 23  0  0  0  0  0  0  0  0999 V2000
    2.4426    0.4029    0.9488 C   0  0  0  0  0  0  0  0  0  0  0  0
    1.4511    0.7988   -0.1085 C   0  0  0  0  0  0  0  0  0  0  0  0
    0.1936    0.0794    0.0388 C   0  0  0  0  0  0  0  0  0  0  0  0
    0.1729   -1.4087   -0.0373 C   0  0  0  0  0  0  0  0  0  0  0  0
   -1.0377   -1.1572    0.8129 C   0  0  0  0  0  0  0  0  0  0  0  0
   -0.3446   -0.0423    1.3325 O   0  0  0  0  0  0  0  0  0  0  0  0
   -2.0361   -0.4649   -0.0945 C   0  0  0  0  0  0  0  0  0  0  0  0
   -2.1892    0.9996   -0.0185 C   0  0  0  0  0  0  0  0  0  0  0  0
   -1.0056    0.5278   -0.7484 C   0  0  0  0  0  0  0  0  0  0  0  0
    2.8562   -0.6131    0.8133 H   0  0  0  0  0  0  0  0  0  0  0  0
    2.0997    0.5383    1.9723 H   0  0  0  0  0  0  0  0  0  0  0  0
    3.3272    1.0950    0.8219 H   0  0  0  0  0  0  0  0  0  0  0  0
    1.9106    0.5480   -1.0910 H   0  0  0  0  0  0  0  0  0  0  0  0
    1.2792    1.8852   -0.0100 H   0  0  0  0  0  0  0  0  0  0  0  0
    0.9394   -1.9427    0.5258 H   0  0  0  0  0  0  0  0  0  0  0  0
   -0.0460   -1.7821   -1.0518 H   0  0  0  0  0  0  0  0  0  0  0  0
   -1.3806   -1.8963    1.4962 H   0  0  0  0  0  0  0  0  0  0  0  0
   -2.6547   -1.0393   -0.7827 H   0  0  0  0  0  0  0  0  0  0  0  0
   -1.9708    1.5512    0.9411 H   0  0  0  0  0  0  0  0  0  0  0  0
   -3.0452    1.4338   -0.5494 H   0  0  0  0  0  0  0  0  0  0  0  0
   -0.9621    0.4866   -1.8571 H   0  0  0  0  0  0  0  0  0  0  0  0
  1  2  1  0
  2  3  1  0
  3  4  1  0
  4  5  1  0
  5  6  1  0
  5  7  1  0
  7  8  1  0
  8  9  1  0
  6  3  1  0
  9  7  1  0
  9  3  1  0
  1 10  1  0
  1 11  1  0
  1 12  1  0
  2 13  1  0
  2 14  1  0
  4 15  1  0
  4 16  1  0
  5 17  1  0
  7 18  1  0
  8 19  1  0
  8 20  1  0
  9 21  1  0
M  END
