
     RDKit          3D

 21 21  0  0  0  0  0  0  0  0999 V2000
    3.1226    0.3732    0.5967 C   0  0  0  0  0  0  0  0  0  0  0  0
    2.1456   -0.6677    0.1348 C   0  0  0  0  0  0  0  0  0  0  0  0
    0.8769    0.0015   -0.3511 C   0  0  0  0  0  0  0  0  0  0  0  0
   -0.0518   -1.0875   -0.7958 O   0  0  0  0  0  0  0  0  0  0  0  0
   -0.3141   -0.2090    0.3751 C   0  0  0  0  0  0  0  0  0  0  0  0
   -1.6143    0.4995    0.1797 C   0  0  0  0  0  0  0  0  0  0  0  0
   -2.6036   -0.0627    1.1876 C   0  0  0  0  0  0  0  0  0  0  0  0
   -2.1663    0.3924   -1.1854 C   0  0  0  0  0  0  0  0  0  0  0  0
   -2.2300   -0.6684   -1.7462 O   0  0  0  0  0  0  0  0  0  0  0  0
    3.6694    0.8098   -0.2647 H   0  0  0  0  0  0  0  0  0  0  0  0
    3.8318    0.0143    1.3517 H   0  0  0  0  0  0  0  0  0  0  0  0
    2.5159    1.1770    1.1083 H   0  0  0  0  0  0  0  0  0  0  0  0
    1.9118   -1.3043    1.0373 H   0  0  0  0  0  0  0  0  0  0  0  0
    2.5664   -1.3663   -0.6080 H   0  0  0  0  0  0  0  0  0  0  0  0
    1.0058    0.7008   -1.1783 H   0  0  0  0  0  0  0  0  0  0  0  0
   -0.2666   -0.8568    1.2744 H   0  0  0  0  0  0  0  0  0  0  0  0
   -1.4559    1.5774    0.4512 H   0  0  0  0  0  0  0  0  0  0  0  0
   -3.5270    0.5503    1.1429 H   0  0  0  0  0  0  0  0  0  0  0  0
   -2.7663   -1.1184    0.9242 H   0  0  0  0  0  0  0  0  0  0  0  0
   -2.1309   -0.0304    2.1778 H   0  0  0  0  0  0  0  0  0  0  0  0
   -2.5193    1.2751   -1.6928 H   0  0  0  0  0  0  0  0  0  0  0  0
  1  2  1  0
  2  3  1  0
  3  4  1  0
  4  5  1  0
  5  6  1  0
  6  7  1  0
  6  8  1  0
  8  9  2  0
  5  3  1  0
  1 10  1  0
  1 11  1  0
  1 12  1  0
  2 13  1  0
  2 14  1  0
  3 15  1  0
  5 16  1  0
  6 17  1  0
  7 18  1  0
  7 19  1  0
  7 20  1  0
  8 21  1  0
M  END
