
     RDKit          3D

 23 25  0  0  0  0  0  0  0  0999 V2000
    2.4124   -0.0947    0.8284 C   0  0  0  0  0  0  0  0  0  0  0  0
    1.2175   -0.8742    0.2587 C   0  0  0  0  0  0  0  0  0  0  0  0
    0.4888    0.0168   -0.6278 C   0  0  0  0  0  0  0  0  0  0  0  0
   -0.0965    1.2721   -0.1508 C   0  0  0  0  0  0  0  0  0  0  0  0
   -0.6358    1.7928    1.0323 C   0  0  0  0  0  0  0  0  0  0  0  0
   -1.2099    0.5396    0.7057 C   0  0  0  0  0  0  0  0  0  0  0  0
   -1.8755   -0.0310   -0.4664 C   0  0  0  0  0  0  0  0  0  0  0  0
   -1.6168   -1.5354   -0.8054 C   0  0  0  0  0  0  0  0  0  0  0  0
   -0.6942   -0.5754   -1.3538 C   0  0  0  0  0  0  0  0  0  0  0  0
    2.8630    0.5626    0.0649 H   0  0  0  0  0  0  0  0  0  0  0  0
    2.0706    0.4695    1.7223 H   0  0  0  0  0  0  0  0  0  0  0  0
    3.1331   -0.8616    1.1777 H   0  0  0  0  0  0  0  0  0  0  0  0
    0.7418   -1.4343    1.0386 H   0  0  0  0  0  0  0  0  0  0  0  0
    1.7206   -1.6531   -0.3961 H   0  0  0  0  0  0  0  0  0  0  0  0
    1.2307    0.2844   -1.4495 H   0  0  0  0  0  0  0  0  0  0  0  0
   -0.5117    1.8109   -1.0737 H   0  0  0  0  0  0  0  0  0  0  0  0
    0.0637    1.9142    1.9077 H   0  0  0  0  0  0  0  0  0  0  0  0
   -1.3396    2.6731    1.0482 H   0  0  0  0  0  0  0  0  0  0  0  0
   -0.8643   -0.2720    1.3909 H   0  0  0  0  0  0  0  0  0  0  0  0
   -2.6753    0.4554   -1.0232 H   0  0  0  0  0  0  0  0  0  0  0  0
   -1.2542   -2.1389    0.0792 H   0  0  0  0  0  0  0  0  0  0  0  0
   -2.3615   -1.9873   -1.4547 H   0  0  0  0  0  0  0  0  0  0  0  0
   -0.8068   -0.3335   -2.4530 H   0  0  0  0  0  0  0  0  0  0  0  0
  1  2  1  0
  2  3  1  0
  3  4  1  0
  4  5  1  0
  5  6  1  0
  6  7  1  0
  7  8  1  0
  8  9  1  0
  9  3  1  0
  6  4  1  0
  9  7  1  0
  1 10  1  0
  1 11  1  0
  1 12  1  0
  2 13  1  0
  2 14  1  0
  3 15  1  0
  4 16  1  0
  5 17  1  0
  5 18  1  0
  6 19  1  0
  7 20  1  0
  8 21  1  0
  8 22  1  0
  9 23  1  0
M  END
