
     RDKit          3D

 19 19  0  0  0  0  0  0  0  0999 V2000
    2.5609    0.0039    0.2150 C   0  0  0  0  0  0  0  0  0  0  0  0
    1.3006   -0.8339    0.2772 C   0  0  0  0  0  0  0  0  0  0  0  0
    0.2472   -0.0484   -0.5146 C   0  0  0  0  0  0  0  0  0  0  0  0
    0.1412    1.1852    0.1686 O   0  0  0  0  0  0  0  0  0  0  0  0
   -1.2166    1.4995    0.2315 C   0  0  0  0  0  0  0  0  0  0  0  0
   -1.7872    0.6032    1.1536 O   0  0  0  0  0  0  0  0  0  0  0  0
   -2.1638   -0.5215    0.3831 C   0  0  0  0  0  0  0  0  0  0  0  0
   -1.0358   -0.7556   -0.5628 C   0  0  0  0  0  0  0  0  0  0  0  0
   -1.2083   -1.5966   -1.4307 O   0  0  0  0  0  0  0  0  0  0  0  0
    2.7982    0.1329   -0.8721 H   0  0  0  0  0  0  0  0  0  0  0  0
    3.3957   -0.4314    0.7773 H   0  0  0  0  0  0  0  0  0  0  0  0
    2.2781    1.0212    0.5754 H   0  0  0  0  0  0  0  0  0  0  0  0
    0.9905   -0.8441    1.3576 H   0  0  0  0  0  0  0  0  0  0  0  0
    1.4341   -1.8425   -0.1095 H   0  0  0  0  0  0  0  0  0  0  0  0
    0.6810    0.1701   -1.5146 H   0  0  0  0  0  0  0  0  0  0  0  0
   -1.3675    2.5344    0.5558 H   0  0  0  0  0  0  0  0  0  0  0  0
   -1.6340    1.3297   -0.7887 H   0  0  0  0  0  0  0  0  0  0  0  0
   -2.3316   -1.3973    1.0458 H   0  0  0  0  0  0  0  0  0  0  0  0
   -3.0829   -0.2091   -0.1539 H   0  0  0  0  0  0  0  0  0  0  0  0
  1  2  1  0
  2  3  1  0
  3  4  1  0
  4  5  1  0
  5  6  1  0
  6  7  1  0
  7  8  1  0
  8  9  2  0
  8  3  1  0
  1 10  1  0
  1 11  1  0
  1 12  1  0
  2 13  1  0
  2 14  1  0
  3 15  1  0
  5 16  1  0
  5 17  1  0
  7 18  1  0
  7 19  1  0
M  END
