
     RDKit          3D

 21 23  0  0  0  0  0  0  0  0999 V2000
    2.7897    0.1588    0.1210 C   0  0  0  0  0  0  0  0  0  0  0  0
    1.4398    0.8230    0.0805 C   0  0  0  0  0  0  0  0  0  0  0  0
    0.3353   -0.0799   -0.3110 C   0  0  0  0  0  0  0  0  0  0  0  0
    0.5254   -0.6439   -1.6226 O   0  0  0  0  0  0  0  0  0  0  0  0
    0.1890   -1.4021   -0.4613 C   0  0  0  0  0  0  0  0  0  0  0  0
   -1.3291   -1.3502   -0.2416 C   0  0  0  0  0  0  0  0  0  0  0  0
   -1.7746   -0.7915    1.0312 C   0  0  0  0  0  0  0  0  0  0  0  0
   -1.0797    0.1510    0.1248 C   0  0  0  0  0  0  0  0  0  0  0  0
   -1.8425    1.1726   -0.6466 C   0  0  0  0  0  0  0  0  0  0  0  0
    3.0205   -0.3234    1.0790 H   0  0  0  0  0  0  0  0  0  0  0  0
    3.5582    0.9719   -0.0175 H   0  0  0  0  0  0  0  0  0  0  0  0
    2.8287   -0.5530   -0.7476 H   0  0  0  0  0  0  0  0  0  0  0  0
    1.5150    1.6303   -0.7072 H   0  0  0  0  0  0  0  0  0  0  0  0
    1.2119    1.3712    1.0194 H   0  0  0  0  0  0  0  0  0  0  0  0
    0.7288   -2.3193   -0.2613 H   0  0  0  0  0  0  0  0  0  0  0  0
   -1.9453   -1.4705   -1.1331 H   0  0  0  0  0  0  0  0  0  0  0  0
   -2.8474   -0.5813    1.1989 H   0  0  0  0  0  0  0  0  0  0  0  0
   -1.2606   -1.1845    1.9512 H   0  0  0  0  0  0  0  0  0  0  0  0
   -2.2363    0.7886   -1.5868 H   0  0  0  0  0  0  0  0  0  0  0  0
   -1.1590    2.0531   -0.8129 H   0  0  0  0  0  0  0  0  0  0  0  0
   -2.6676    1.5788    0.0036 H   0  0  0  0  0  0  0  0  0  0  0  0
  1  2  1  0
  2  3  1  0
  3  4  1  0
  4  5  1  0
  5  6  1  0
  6  7  1  0
  7  8  1  0
  8  9  1  0
  5  3  1  0
  8  6  1  0
  8  3  1  0
  1 10  1  0
  1 11  1  0
  1 12  1  0
  2 13  1  0
  2 14  1  0
  5 15  1  0
  6 16  1  0
  7 17  1  0
  7 18  1  0
  9 19  1  0
  9 20  1  0
  9 21  1  0
M  END
