
     RDKit          3D

 17 17  0  0  0  0  0  0  0  0999 V2000
    2.3873   -0.1199   -0.4147 C   0  0  0  0  0  0  0  0  0  0  0  0
    1.2970   -0.0202    0.6085 C   0  0  0  0  0  0  0  0  0  0  0  0
   -0.0173    0.4232    0.0131 C   0  0  0  0  0  0  0  0  0  0  0  0
   -0.4809   -0.4357   -0.9546 O   0  0  0  0  0  0  0  0  0  0  0  0
   -1.8622   -0.3240   -1.0141 C   0  0  0  0  0  0  0  0  0  0  0  0
   -2.2781   -0.0693    0.3897 C   0  0  0  0  0  0  0  0  0  0  0  0
   -3.4022   -0.1628    0.9371 O   0  0  0  0  0  0  0  0  0  0  0  0
   -1.0612    0.3409    1.0797 C   0  0  0  0  0  0  0  0  0  0  0  0
   -0.9581    0.5665    2.3128 O   0  0  0  0  0  0  0  0  0  0  0  0
    2.0903   -0.8166   -1.2215 H   0  0  0  0  0  0  0  0  0  0  0  0
    3.2848   -0.5365    0.1060 H   0  0  0  0  0  0  0  0  0  0  0  0
    2.6974    0.8632   -0.8225 H   0  0  0  0  0  0  0  0  0  0  0  0
    1.5674    0.7231    1.3857 H   0  0  0  0  0  0  0  0  0  0  0  0
    1.1574   -1.0389    1.0398 H   0  0  0  0  0  0  0  0  0  0  0  0
    0.0204    1.4407   -0.3802 H   0  0  0  0  0  0  0  0  0  0  0  0
   -2.2507   -1.3159   -1.3619 H   0  0  0  0  0  0  0  0  0  0  0  0
   -2.1914    0.4824   -1.7029 H   0  0  0  0  0  0  0  0  0  0  0  0
  1  2  1  0
  2  3  1  0
  3  4  1  0
  4  5  1  0
  5  6  1  0
  6  7  2  0
  6  8  1  0
  8  9  2  0
  8  3  1  0
  1 10  1  0
  1 11  1  0
  1 12  1  0
  2 13  1  0
  2 14  1  0
  3 15  1  0
  5 16  1  0
  5 17  1  0
M  END
