
     RDKit          3D

 23 23  0  0  0  0  0  0  0  0999 V2000
    2.4724   -0.9785   -0.0216 C   0  0  0  0  0  0  0  0  0  0  0  0
    1.4801    0.1507    0.0973 C   0  0  0  0  0  0  0  0  0  0  0  0
    0.1660   -0.1538   -0.5574 C   0  0  0  0  0  0  0  0  0  0  0  0
   -0.5130   -1.3621    0.0316 C   0  0  0  0  0  0  0  0  0  0  0  0
   -1.9742   -0.9267    0.0547 C   0  0  0  0  0  0  0  0  0  0  0  0
   -1.8172    0.5136    0.5654 C   0  0  0  0  0  0  0  0  0  0  0  0
   -0.7508    1.0118   -0.4106 C   0  0  0  0  0  0  0  0  0  0  0  0
   -0.1098    2.2396    0.0797 C   0  0  0  0  0  0  0  0  0  0  0  0
    0.4099    2.9911   -0.7005 O   0  0  0  0  0  0  0  0  0  0  0  0
    2.0333   -1.9533    0.2169 H   0  0  0  0  0  0  0  0  0  0  0  0
    2.8164   -0.9777   -1.0959 H   0  0  0  0  0  0  0  0  0  0  0  0
    3.3428   -0.7433    0.6021 H   0  0  0  0  0  0  0  0  0  0  0  0
    1.3032    0.4443    1.1559 H   0  0  0  0  0  0  0  0  0  0  0  0
    1.9066    1.0419   -0.4067 H   0  0  0  0  0  0  0  0  0  0  0  0
    0.3935   -0.3895   -1.6385 H   0  0  0  0  0  0  0  0  0  0  0  0
   -0.2304   -1.5250    1.0960 H   0  0  0  0  0  0  0  0  0  0  0  0
   -0.4029   -2.2706   -0.5651 H   0  0  0  0  0  0  0  0  0  0  0  0
   -2.3770   -0.8188   -0.9789 H   0  0  0  0  0  0  0  0  0  0  0  0
   -2.5916   -1.5337    0.7165 H   0  0  0  0  0  0  0  0  0  0  0  0
   -2.7283    1.1018    0.4000 H   0  0  0  0  0  0  0  0  0  0  0  0
   -1.4321    0.5450    1.5887 H   0  0  0  0  0  0  0  0  0  0  0  0
   -1.2719    1.1566   -1.3915 H   0  0  0  0  0  0  0  0  0  0  0  0
   -0.1251    2.4367    1.1617 H   0  0  0  0  0  0  0  0  0  0  0  0
  1  2  1  0
  2  3  1  0
  3  4  1  0
  4  5  1  0
  5  6  1  0
  6  7  1  0
  7  8  1  0
  8  9  2  0
  7  3  1  0
  1 10  1  0
  1 11  1  0
  1 12  1  0
  2 13  1  0
  2 14  1  0
  3 15  1  0
  4 16  1  0
  4 17  1  0
  5 18  1  0
  5 19  1  0
  6 20  1  0
  6 21  1  0
  7 22  1  0
  8 23  1  0
M  END
