
     RDKit          3D

 17 17  0  0  0  0  0  0  0  0999 V2000
   -2.2947   -0.6058    0.2059 C   0  0  0  0  0  0  0  0  0  0  0  0
   -1.4165    0.5083   -0.3418 C   0  0  0  0  0  0  0  0  0  0  0  0
    0.0350    0.1884   -0.1056 C   0  0  0  0  0  0  0  0  0  0  0  0
    0.5253   -0.8795    0.4802 C   0  0  0  0  0  0  0  0  0  0  0  0
    1.9718   -0.8552    0.5349 C   0  0  0  0  0  0  0  0  0  0  0  0
    2.7571   -1.7270    1.0310 O   0  0  0  0  0  0  0  0  0  0  0  0
    2.3645    0.3832   -0.0994 C   0  0  0  0  0  0  0  0  0  0  0  0
    3.5729    0.8051   -0.2648 O   0  0  0  0  0  0  0  0  0  0  0  0
    1.1341    1.0653   -0.5170 C   0  0  0  0  0  0  0  0  0  0  0  0
   -2.2484   -1.5210   -0.4064 H   0  0  0  0  0  0  0  0  0  0  0  0
   -1.9255   -0.7859    1.2580 H   0  0  0  0  0  0  0  0  0  0  0  0
   -3.3313   -0.2610    0.2346 H   0  0  0  0  0  0  0  0  0  0  0  0
   -1.6631    1.4215    0.2340 H   0  0  0  0  0  0  0  0  0  0  0  0
   -1.5704    0.6379   -1.4112 H   0  0  0  0  0  0  0  0  0  0  0  0
   -0.1346   -1.6752    0.8686 H   0  0  0  0  0  0  0  0  0  0  0  0
    1.1738    1.2089   -1.6275 H   0  0  0  0  0  0  0  0  0  0  0  0
    1.0499    2.0920   -0.0737 H   0  0  0  0  0  0  0  0  0  0  0  0
  1  2  1  0
  2  3  1  0
  3  4  2  0
  4  5  1  0
  5  6  2  0
  5  7  1  0
  7  8  2  0
  7  9  1  0
  9  3  1  0
  1 10  1  0
  1 11  1  0
  1 12  1  0
  2 13  1  0
  2 14  1  0
  4 15  1  0
  9 16  1  0
  9 17  1  0
M  END
