
     RDKit          3D

 23 24  0  0  0  0  0  0  0  0999 V2000
    2.5391    1.0454    0.0298 C   0  0  0  0  0  0  0  0  0  0  0  0
    1.7528    0.3667   -1.0435 C   0  0  0  0  0  0  0  0  0  0  0  0
    0.6546   -0.5128   -0.5126 C   0  0  0  0  0  0  0  0  0  0  0  0
   -0.1981   -1.2431   -1.5002 C   0  0  0  0  0  0  0  0  0  0  0  0
   -1.5901   -0.8246   -1.2434 C   0  0  0  0  0  0  0  0  0  0  0  0
   -1.6480   -0.0103   -0.2104 C   0  0  0  0  0  0  0  0  0  0  0  0
   -2.9159    0.5834    0.2962 C   0  0  0  0  0  0  0  0  0  0  0  0
   -0.3261    0.2455    0.3837 C   0  0  0  0  0  0  0  0  0  0  0  0
    0.5214   -0.8549    0.9029 C   0  0  0  0  0  0  0  0  0  0  0  0
    1.9589    1.4038    0.8797 H   0  0  0  0  0  0  0  0  0  0  0  0
    3.3875    0.4044    0.4004 H   0  0  0  0  0  0  0  0  0  0  0  0
    3.0347    1.9384   -0.4403 H   0  0  0  0  0  0  0  0  0  0  0  0
    1.3484    1.1711   -1.7251 H   0  0  0  0  0  0  0  0  0  0  0  0
    2.4470   -0.2511   -1.6515 H   0  0  0  0  0  0  0  0  0  0  0  0
    0.0536   -0.9494   -2.5524 H   0  0  0  0  0  0  0  0  0  0  0  0
   -0.0812   -2.3479   -1.4484 H   0  0  0  0  0  0  0  0  0  0  0  0
   -2.4300   -1.1609   -1.8437 H   0  0  0  0  0  0  0  0  0  0  0  0
   -2.7353    1.3709    1.0547 H   0  0  0  0  0  0  0  0  0  0  0  0
   -3.4772   -0.2382    0.7918 H   0  0  0  0  0  0  0  0  0  0  0  0
   -3.5215    1.0173   -0.5483 H   0  0  0  0  0  0  0  0  0  0  0  0
   -0.0695    1.2578    0.7206 H   0  0  0  0  0  0  0  0  0  0  0  0
   -0.0165   -1.8013    1.1479 H   0  0  0  0  0  0  0  0  0  0  0  0
    1.3115   -0.6102    1.6272 H   0  0  0  0  0  0  0  0  0  0  0  0
  1  2  1  0
  2  3  1  0
  3  4  1  0
  4  5  1  0
  5  6  2  0
  6  7  1  0
  6  8  1  0
  8  9  1  0
  8  3  1  0
  9  3  1  0
  1 10  1  0
  1 11  1  0
  1 12  1  0
  2 13  1  0
  2 14  1  0
  4 15  1  0
  4 16  1  0
  5 17  1  0
  7 18  1  0
  7 19  1  0
  7 20  1  0
  8 21  1  0
  9 22  1  0
  9 23  1  0
M  END
