
     RDKit          3D

 23 23  0  0  0  0  0  0  0  0999 V2000
   -1.8701   -1.0709    0.9909 C   0  0  0  0  0  0  0  0  0  0  0  0
   -1.5762   -0.2156   -0.1986 C   0  0  0  0  0  0  0  0  0  0  0  0
   -0.2680    0.4760   -0.1614 C   0  0  0  0  0  0  0  0  0  0  0  0
   -0.0167    1.3182   -1.3684 C   0  0  0  0  0  0  0  0  0  0  0  0
    0.0487    1.2532    1.0974 C   0  0  0  0  0  0  0  0  0  0  0  0
    1.4039    0.9398    0.8326 O   0  0  0  0  0  0  0  0  0  0  0  0
    0.9150   -0.2777    0.3446 C   0  0  0  0  0  0  0  0  0  0  0  0
    1.7324   -0.8997   -0.7503 C   0  0  0  0  0  0  0  0  0  0  0  0
    3.0366   -1.1730   -0.3475 O   0  0  0  0  0  0  0  0  0  0  0  0
   -1.1087   -1.8813    1.0758 H   0  0  0  0  0  0  0  0  0  0  0  0
   -1.8843   -0.4937    1.9363 H   0  0  0  0  0  0  0  0  0  0  0  0
   -2.8815   -1.5382    0.8102 H   0  0  0  0  0  0  0  0  0  0  0  0
   -2.3787    0.5764   -0.2653 H   0  0  0  0  0  0  0  0  0  0  0  0
   -1.6560   -0.8096   -1.1059 H   0  0  0  0  0  0  0  0  0  0  0  0
   -0.7589    2.1682   -1.3419 H   0  0  0  0  0  0  0  0  0  0  0  0
    1.0103    1.7748   -1.3442 H   0  0  0  0  0  0  0  0  0  0  0  0
   -0.2165    0.7882   -2.3160 H   0  0  0  0  0  0  0  0  0  0  0  0
   -0.2909    0.7764    2.0431 H   0  0  0  0  0  0  0  0  0  0  0  0
   -0.1933    2.3172    1.0197 H   0  0  0  0  0  0  0  0  0  0  0  0
    0.7182   -0.9759    1.1482 H   0  0  0  0  0  0  0  0  0  0  0  0
    1.2336   -1.8620   -1.0076 H   0  0  0  0  0  0  0  0  0  0  0  0
    1.7792   -0.3038   -1.6712 H   0  0  0  0  0  0  0  0  0  0  0  0
    3.2219   -0.8869    0.5793 H   0  0  0  0  0  0  0  0  0  0  0  0
  1  2  1  0
  2  3  1  0
  3  4  1  0
  3  5  1  0
  5  6  1  0
  6  7  1  0
  7  8  1  0
  8  9  1  0
  7  3  1  0
  1 10  1  0
  1 11  1  0
  1 12  1  0
  2 13  1  0
  2 14  1  0
  4 15  1  0
  4 16  1  0
  4 17  1  0
  5 18  1  0
  5 19  1  0
  7 20  1  0
  8 21  1  0
  8 22  1  0
  9 23  1  0
M  END
