
     RDKit          3D

 19 20  0  0  0  0  0  0  0  0999 V2000
    2.0621   -0.3989    0.3721 C   0  0  0  0  0  0  0  0  0  0  0  0
    1.1902   -0.0791   -0.8525 C   0  0  0  0  0  0  0  0  0  0  0  0
   -0.1059    0.1828   -0.5013 C   0  0  0  0  0  0  0  0  0  0  0  0
   -0.5973    1.2758    0.4069 C   0  0  0  0  0  0  0  0  0  0  0  0
   -1.8387    0.5247    0.0126 C   0  0  0  0  0  0  0  0  0  0  0  0
   -1.2693    0.4562   -1.3198 C   0  0  0  0  0  0  0  0  0  0  0  0
   -1.5962    0.5669   -2.4480 O   0  0  0  0  0  0  0  0  0  0  0  0
   -1.0238   -0.7091    0.2961 C   0  0  0  0  0  0  0  0  0  0  0  0
   -0.6904   -0.9040    1.6177 O   0  0  0  0  0  0  0  0  0  0  0  0
    2.9982   -0.9169    0.0115 H   0  0  0  0  0  0  0  0  0  0  0  0
    2.3011    0.5205    0.9404 H   0  0  0  0  0  0  0  0  0  0  0  0
    1.5688   -1.1025    1.0520 H   0  0  0  0  0  0  0  0  0  0  0  0
    1.3075   -0.9552   -1.5196 H   0  0  0  0  0  0  0  0  0  0  0  0
    1.6997    0.7602   -1.3524 H   0  0  0  0  0  0  0  0  0  0  0  0
   -0.2985    1.2027    1.4553 H   0  0  0  0  0  0  0  0  0  0  0  0
   -0.4967    2.2568   -0.0781 H   0  0  0  0  0  0  0  0  0  0  0  0
   -2.7754    0.7119    0.3073 H   0  0  0  0  0  0  0  0  0  0  0  0
   -1.4200   -1.5635   -0.2582 H   0  0  0  0  0  0  0  0  0  0  0  0
   -1.0154   -1.8292    1.8581 H   0  0  0  0  0  0  0  0  0  0  0  0
  1  2  1  0
  2  3  1  0
  3  4  1  0
  4  5  1  0
  5  6  1  0
  6  7  2  0
  5  8  1  0
  8  9  1  0
  6  3  1  0
  8  3  1  0
  1 10  1  0
  1 11  1  0
  1 12  1  0
  2 13  1  0
  2 14  1  0
  4 15  1  0
  4 16  1  0
  5 17  1  0
  8 18  1  0
  9 19  1  0
M  END
