
     RDKit          3D

 20 21  0  0  0  0  0  0  0  0999 V2000
   -2.3443    0.0070    0.1726 C   0  0  0  0  0  0  0  0  0  0  0  0
   -1.0688   -0.6253    0.6802 C   0  0  0  0  0  0  0  0  0  0  0  0
    0.0866   -0.2802   -0.2508 C   0  0  0  0  0  0  0  0  0  0  0  0
   -0.0001   -0.6981   -1.6548 C   0  0  0  0  0  0  0  0  0  0  0  0
   -0.0759    0.7376   -1.2956 C   0  0  0  0  0  0  0  0  0  0  0  0
    1.0226    1.4494   -0.8978 O   0  0  0  0  0  0  0  0  0  0  0  0
    1.1695    0.6173    0.2341 C   0  0  0  0  0  0  0  0  0  0  0  0
    2.5649    0.0551    0.2447 C   0  0  0  0  0  0  0  0  0  0  0  0
   -2.4266   -0.0253   -0.9313 H   0  0  0  0  0  0  0  0  0  0  0  0
   -2.3539    1.0580    0.5057 H   0  0  0  0  0  0  0  0  0  0  0  0
   -3.2454   -0.4779    0.5734 H   0  0  0  0  0  0  0  0  0  0  0  0
   -1.2155   -1.7218    0.7683 H   0  0  0  0  0  0  0  0  0  0  0  0
   -0.8470   -0.2370    1.6974 H   0  0  0  0  0  0  0  0  0  0  0  0
   -0.9799   -1.1493   -1.9576 H   0  0  0  0  0  0  0  0  0  0  0  0
    0.8540   -1.0809   -2.2370 H   0  0  0  0  0  0  0  0  0  0  0  0
   -0.9896    1.3295   -1.4436 H   0  0  0  0  0  0  0  0  0  0  0  0
    0.9830    1.1893    1.1517 H   0  0  0  0  0  0  0  0  0  0  0  0
    2.7469   -0.6663    1.0516 H   0  0  0  0  0  0  0  0  0  0  0  0
    2.8640   -0.4200   -0.6993 H   0  0  0  0  0  0  0  0  0  0  0  0
    3.2555    0.9389    0.3842 H   0  0  0  0  0  0  0  0  0  0  0  0
  1  2  1  0
  2  3  1  0
  3  4  1  0
  4  5  1  0
  5  6  1  0
  6  7  1  0
  7  8  1  0
  5  3  1  0
  7  3  1  0
  1  9  1  0
  1 10  1  0
  1 11  1  0
  2 12  1  0
  2 13  1  0
  4 14  1  0
  4 15  1  0
  5 16  1  0
  7 17  1  0
  8 18  1  0
  8 19  1  0
  8 20  1  0
M  END
