
     RDKit          3D

 27 27  0  0  0  0  0  0  0  0999 V2000
    2.5282    0.5685    0.5173 C   0  0  0  0  0  0  0  0  0  0  0  0
    1.7056   -0.4459   -0.2204 C   0  0  0  0  0  0  0  0  0  0  0  0
    0.2145   -0.2307   -0.0037 C   0  0  0  0  0  0  0  0  0  0  0  0
   -0.1096   -0.3417    1.4561 C   0  0  0  0  0  0  0  0  0  0  0  0
   -0.2826    1.0679   -0.6318 C   0  0  0  0  0  0  0  0  0  0  0  0
   -0.7604    2.0900    0.3582 C   0  0  0  0  0  0  0  0  0  0  0  0
   -1.4274    0.3017   -1.2238 C   0  0  0  0  0  0  0  0  0  0  0  0
   -0.6619   -0.9735   -0.9528 C   0  0  0  0  0  0  0  0  0  0  0  0
   -1.4816   -2.0884   -0.3841 C   0  0  0  0  0  0  0  0  0  0  0  0
    2.5609    0.3558    1.6116 H   0  0  0  0  0  0  0  0  0  0  0  0
    2.1060    1.5799    0.3044 H   0  0  0  0  0  0  0  0  0  0  0  0
    3.5551    0.5854    0.0798 H   0  0  0  0  0  0  0  0  0  0  0  0
    1.9718   -0.5217   -1.2750 H   0  0  0  0  0  0  0  0  0  0  0  0
    1.9332   -1.4520    0.2340 H   0  0  0  0  0  0  0  0  0  0  0  0
    0.5580    0.3490    2.0082 H   0  0  0  0  0  0  0  0  0  0  0  0
   -1.1805   -0.1742    1.6793 H   0  0  0  0  0  0  0  0  0  0  0  0
    0.1312   -1.3664    1.7956 H   0  0  0  0  0  0  0  0  0  0  0  0
    0.4243    1.4215   -1.4044 H   0  0  0  0  0  0  0  0  0  0  0  0
   -0.8249    3.0651   -0.1805 H   0  0  0  0  0  0  0  0  0  0  0  0
   -0.0503    2.1284    1.2039 H   0  0  0  0  0  0  0  0  0  0  0  0
   -1.7746    1.7804    0.7333 H   0  0  0  0  0  0  0  0  0  0  0  0
   -1.5834    0.4420   -2.3059 H   0  0  0  0  0  0  0  0  0  0  0  0
   -2.3878    0.3599   -0.6751 H   0  0  0  0  0  0  0  0  0  0  0  0
   -0.0868   -1.3340   -1.8357 H   0  0  0  0  0  0  0  0  0  0  0  0
   -0.7886   -2.9151   -0.1203 H   0  0  0  0  0  0  0  0  0  0  0  0
   -2.1566   -2.4507   -1.2104 H   0  0  0  0  0  0  0  0  0  0  0  0
   -2.1318   -1.8012    0.4420 H   0  0  0  0  0  0  0  0  0  0  0  0
  1  2  1  0
  2  3  1  0
  3  4  1  0
  3  5  1  0
  5  6  1  0
  5  7  1  0
  7  8  1  0
  8  9  1  0
  8  3  1  0
  1 10  1  0
  1 11  1  0
  1 12  1  0
  2 13  1  0
  2 14  1  0
  4 15  1  0
  4 16  1  0
  4 17  1  0
  5 18  1  0
  6 19  1  0
  6 20  1  0
  6 21  1  0
  7 22  1  0
  7 23  1  0
  8 24  1  0
  9 25  1  0
  9 26  1  0
  9 27  1  0
M  END
