
     RDKit          3D

 23 23  0  0  0  0  0  0  0  0999 V2000
    3.0938   -0.3482   -0.6541 C   0  0  0  0  0  0  0  0  0  0  0  0
    1.9920    0.5568   -0.1596 C   0  0  0  0  0  0  0  0  0  0  0  0
    0.6621   -0.0984   -0.3276 C   0  0  0  0  0  0  0  0  0  0  0  0
   -0.3895    0.8772    0.1935 C   0  0  0  0  0  0  0  0  0  0  0  0
   -1.5107   -0.0456    0.5502 C   0  0  0  0  0  0  0  0  0  0  0  0
   -2.6667    0.2282   -0.3637 C   0  0  0  0  0  0  0  0  0  0  0  0
   -1.9187    0.1736    1.8485 O   0  0  0  0  0  0  0  0  0  0  0  0
   -0.9194   -1.4227    0.3683 C   0  0  0  0  0  0  0  0  0  0  0  0
    0.4799   -1.2293    0.4282 O   0  0  0  0  0  0  0  0  0  0  0  0
    4.0450    0.0396   -0.2360 H   0  0  0  0  0  0  0  0  0  0  0  0
    2.8623   -1.3694   -0.3166 H   0  0  0  0  0  0  0  0  0  0  0  0
    3.0806   -0.3389   -1.7647 H   0  0  0  0  0  0  0  0  0  0  0  0
    1.9710    1.5110   -0.7372 H   0  0  0  0  0  0  0  0  0  0  0  0
    2.1344    0.8069    0.9091 H   0  0  0  0  0  0  0  0  0  0  0  0
    0.5040   -0.3199   -1.4015 H   0  0  0  0  0  0  0  0  0  0  0  0
   -0.6366    1.6474   -0.5370 H   0  0  0  0  0  0  0  0  0  0  0  0
    0.0326    1.3037    1.1352 H   0  0  0  0  0  0  0  0  0  0  0  0
   -3.5666   -0.2593    0.0704 H   0  0  0  0  0  0  0  0  0  0  0  0
   -2.4818   -0.0853   -1.4002 H   0  0  0  0  0  0  0  0  0  0  0  0
   -2.7890    1.3484   -0.3964 H   0  0  0  0  0  0  0  0  0  0  0  0
   -1.4838    0.9553    2.2355 H   0  0  0  0  0  0  0  0  0  0  0  0
   -1.2527   -2.1341    1.1634 H   0  0  0  0  0  0  0  0  0  0  0  0
   -1.2421   -1.7970   -0.6076 H   0  0  0  0  0  0  0  0  0  0  0  0
  1  2  1  0
  2  3  1  0
  3  4  1  0
  4  5  1  0
  5  6  1  0
  5  7  1  0
  5  8  1  0
  8  9  1  0
  9  3  1  0
  1 10  1  0
  1 11  1  0
  1 12  1  0
  2 13  1  0
  2 14  1  0
  3 15  1  0
  4 16  1  0
  4 17  1  0
  6 18  1  0
  6 19  1  0
  6 20  1  0
  7 21  1  0
  8 22  1  0
  8 23  1  0
M  END
