
     RDKit          3D

 21 22  0  0  0  0  0  0  0  0999 V2000
    2.3651   -0.1356   -0.1127 C   0  0  0  0  0  0  0  0  0  0  0  0
    1.3404    0.8191    0.4050 C   0  0  0  0  0  0  0  0  0  0  0  0
   -0.0336    0.2453    0.5281 C   0  0  0  0  0  0  0  0  0  0  0  0
   -0.1880   -0.9352    1.4399 C   0  0  0  0  0  0  0  0  0  0  0  0
   -0.2382   -1.8330    0.3469 O   0  0  0  0  0  0  0  0  0  0  0  0
   -0.4229   -0.7749   -0.5086 C   0  0  0  0  0  0  0  0  0  0  0  0
   -1.8912   -0.3932   -0.7424 C   0  0  0  0  0  0  0  0  0  0  0  0
   -1.7653    1.1162   -0.5887 C   0  0  0  0  0  0  0  0  0  0  0  0
   -1.0127    1.2004    0.5825 O   0  0  0  0  0  0  0  0  0  0  0  0
    3.3589    0.1439    0.3396 H   0  0  0  0  0  0  0  0  0  0  0  0
    2.4860    0.0002   -1.2044 H   0  0  0  0  0  0  0  0  0  0  0  0
    2.1859   -1.1826    0.1388 H   0  0  0  0  0  0  0  0  0  0  0  0
    1.2724    1.7097   -0.2575 H   0  0  0  0  0  0  0  0  0  0  0  0
    1.6498    1.2034    1.3984 H   0  0  0  0  0  0  0  0  0  0  0  0
    0.6566   -1.1000    2.1111 H   0  0  0  0  0  0  0  0  0  0  0  0
   -1.1877   -0.9315    1.9210 H   0  0  0  0  0  0  0  0  0  0  0  0
    0.1594   -0.7750   -1.4363 H   0  0  0  0  0  0  0  0  0  0  0  0
   -2.2526   -0.7022   -1.7168 H   0  0  0  0  0  0  0  0  0  0  0  0
   -2.4832   -0.7469    0.1202 H   0  0  0  0  0  0  0  0  0  0  0  0
   -1.2374    1.5015   -1.4717 H   0  0  0  0  0  0  0  0  0  0  0  0
   -2.7619    1.5704   -0.4340 H   0  0  0  0  0  0  0  0  0  0  0  0
  1  2  1  0
  2  3  1  0
  3  4  1  0
  4  5  1  0
  5  6  1  0
  6  7  1  0
  7  8  1  0
  8  9  1  0
  6  3  1  0
  9  3  1  0
  1 10  1  0
  1 11  1  0
  1 12  1  0
  2 13  1  0
  2 14  1  0
  4 15  1  0
  4 16  1  0
  6 17  1  0
  7 18  1  0
  7 19  1  0
  8 20  1  0
  8 21  1  0
M  END
