
     RDKit          3D

 25 26  0  0  0  0  0  0  0  0999 V2000
    2.7479    0.4988    0.7128 C   0  0  0  0  0  0  0  0  0  0  0  0
    1.5200    1.0599   -0.0142 C   0  0  0  0  0  0  0  0  0  0  0  0
    0.7948   -0.1274   -0.5767 C   0  0  0  0  0  0  0  0  0  0  0  0
    0.3217   -1.1380    0.3789 C   0  0  0  0  0  0  0  0  0  0  0  0
   -0.5045   -2.3135    0.0123 C   0  0  0  0  0  0  0  0  0  0  0  0
   -1.1632   -1.5861   -1.1448 C   0  0  0  0  0  0  0  0  0  0  0  0
   -0.6462   -0.2945   -0.5010 C   0  0  0  0  0  0  0  0  0  0  0  0
   -1.5895    0.5191    0.2827 C   0  0  0  0  0  0  0  0  0  0  0  0
   -1.6416    1.9704   -0.0354 C   0  0  0  0  0  0  0  0  0  0  0  0
    2.3330   -0.2030    1.4746 H   0  0  0  0  0  0  0  0  0  0  0  0
    3.3542    1.2975    1.1578 H   0  0  0  0  0  0  0  0  0  0  0  0
    3.3153   -0.0739   -0.0666 H   0  0  0  0  0  0  0  0  0  0  0  0
    1.8353    1.7831   -0.8151 H   0  0  0  0  0  0  0  0  0  0  0  0
    0.9207    1.5727    0.7724 H   0  0  0  0  0  0  0  0  0  0  0  0
    1.3005   -0.5511   -1.4918 H   0  0  0  0  0  0  0  0  0  0  0  0
    0.3825   -0.8984    1.4365 H   0  0  0  0  0  0  0  0  0  0  0  0
   -1.2926   -2.5207    0.7919 H   0  0  0  0  0  0  0  0  0  0  0  0
    0.0055   -3.2465   -0.2446 H   0  0  0  0  0  0  0  0  0  0  0  0
   -0.5859   -1.8205   -2.0770 H   0  0  0  0  0  0  0  0  0  0  0  0
   -2.2459   -1.6639   -1.2132 H   0  0  0  0  0  0  0  0  0  0  0  0
   -1.4469    0.4279    1.3990 H   0  0  0  0  0  0  0  0  0  0  0  0
   -2.6285    0.1057    0.1181 H   0  0  0  0  0  0  0  0  0  0  0  0
   -0.8365    2.3279   -0.6959 H   0  0  0  0  0  0  0  0  0  0  0  0
   -2.6028    2.2583   -0.5535 H   0  0  0  0  0  0  0  0  0  0  0  0
   -1.6472    2.6161    0.8925 H   0  0  0  0  0  0  0  0  0  0  0  0
  1  2  1  0
  2  3  1  0
  3  4  1  0
  4  5  1  0
  5  6  1  0
  6  7  1  0
  7  8  1  0
  8  9  1  0
  7  3  1  0
  7  4  1  0
  1 10  1  0
  1 11  1  0
  1 12  1  0
  2 13  1  0
  2 14  1  0
  3 15  1  0
  4 16  1  0
  5 17  1  0
  5 18  1  0
  6 19  1  0
  6 20  1  0
  8 21  1  0
  8 22  1  0
  9 23  1  0
  9 24  1  0
  9 25  1  0
M  END
