
     RDKit          3D

 21 21  0  0  0  0  0  0  0  0999 V2000
    2.7618    0.2782   -0.2761 C   0  0  0  0  0  0  0  0  0  0  0  0
    1.5465   -0.3763    0.3395 C   0  0  0  0  0  0  0  0  0  0  0  0
    0.3113   -0.2079   -0.4750 C   0  0  0  0  0  0  0  0  0  0  0  0
   -0.2489    1.1165   -0.8058 C   0  0  0  0  0  0  0  0  0  0  0  0
   -0.9807    0.1787    0.0915 C   0  0  0  0  0  0  0  0  0  0  0  0
   -1.1929    0.6841    1.4517 C   0  0  0  0  0  0  0  0  0  0  0  0
   -0.3222    1.3442    1.9868 O   0  0  0  0  0  0  0  0  0  0  0  0
   -2.1787   -0.6141   -0.4401 C   0  0  0  0  0  0  0  0  0  0  0  0
   -1.9057   -1.9602   -0.1029 O   0  0  0  0  0  0  0  0  0  0  0  0
    3.6541   -0.1895    0.1825 H   0  0  0  0  0  0  0  0  0  0  0  0
    2.6903    1.3626   -0.0675 H   0  0  0  0  0  0  0  0  0  0  0  0
    2.7616    0.0737   -1.3754 H   0  0  0  0  0  0  0  0  0  0  0  0
    1.4151   -0.0434    1.3770 H   0  0  0  0  0  0  0  0  0  0  0  0
    1.8123   -1.4693    0.4184 H   0  0  0  0  0  0  0  0  0  0  0  0
    0.2949   -0.9211   -1.3564 H   0  0  0  0  0  0  0  0  0  0  0  0
    0.1839    2.0498   -0.3879 H   0  0  0  0  0  0  0  0  0  0  0  0
   -0.7478    1.2948   -1.7837 H   0  0  0  0  0  0  0  0  0  0  0  0
   -2.0867    0.5063    2.0210 H   0  0  0  0  0  0  0  0  0  0  0  0
   -3.1109   -0.3167    0.0528 H   0  0  0  0  0  0  0  0  0  0  0  0
   -2.2512   -0.5365   -1.5323 H   0  0  0  0  0  0  0  0  0  0  0  0
   -2.4062   -2.2539    0.6820 H   0  0  0  0  0  0  0  0  0  0  0  0
  1  2  1  0
  2  3  1  0
  3  4  1  0
  4  5  1  0
  5  6  1  0
  6  7  2  0
  5  8  1  0
  8  9  1  0
  5  3  1  0
  1 10  1  0
  1 11  1  0
  1 12  1  0
  2 13  1  0
  2 14  1  0
  3 15  1  0
  4 16  1  0
  4 17  1  0
  6 18  1  0
  8 19  1  0
  8 20  1  0
  9 21  1  0
M  END
