
     RDKit          3D

 21 22  0  0  0  0  0  0  0  0999 V2000
    2.6197   -0.2481    0.0760 C   0  0  0  0  0  0  0  0  0  0  0  0
    1.3296    0.4441    0.3677 C   0  0  0  0  0  0  0  0  0  0  0  0
    0.1307   -0.2874   -0.1999 C   0  0  0  0  0  0  0  0  0  0  0  0
   -1.1975    0.3838    0.0751 C   0  0  0  0  0  0  0  0  0  0  0  0
   -1.5796    1.3740   -1.0285 C   0  0  0  0  0  0  0  0  0  0  0  0
   -2.2243   -0.2018    0.8555 C   0  0  0  0  0  0  0  0  0  0  0  0
   -1.3797    0.9434    1.3520 O   0  0  0  0  0  0  0  0  0  0  0  0
    0.2077   -1.7082   -0.3779 C   0  0  0  0  0  0  0  0  0  0  0  0
    0.2256   -0.8135   -1.4867 O   0  0  0  0  0  0  0  0  0  0  0  0
    3.4462    0.4588    0.3298 H   0  0  0  0  0  0  0  0  0  0  0  0
    2.7909   -1.1468    0.7168 H   0  0  0  0  0  0  0  0  0  0  0  0
    2.7520   -0.4882   -0.9971 H   0  0  0  0  0  0  0  0  0  0  0  0
    1.3761    1.4532   -0.1076 H   0  0  0  0  0  0  0  0  0  0  0  0
    1.1941    0.5268    1.4494 H   0  0  0  0  0  0  0  0  0  0  0  0
   -1.1988    1.0019   -2.0110 H   0  0  0  0  0  0  0  0  0  0  0  0
   -1.0565    2.3403   -0.8522 H   0  0  0  0  0  0  0  0  0  0  0  0
   -2.6622    1.4837   -1.1112 H   0  0  0  0  0  0  0  0  0  0  0  0
   -2.0215   -1.0467    1.5393 H   0  0  0  0  0  0  0  0  0  0  0  0
   -3.2741    0.1356    0.7414 H   0  0  0  0  0  0  0  0  0  0  0  0
    1.1819   -2.2250   -0.2744 H   0  0  0  0  0  0  0  0  0  0  0  0
   -0.6604   -2.3797   -0.2790 H   0  0  0  0  0  0  0  0  0  0  0  0
  1  2  1  0
  2  3  1  0
  3  4  1  0
  4  5  1  0
  4  6  1  0
  6  7  1  0
  3  8  1  0
  8  9  1  0
  9  3  1  0
  7  4  1  0
  1 10  1  0
  1 11  1  0
  1 12  1  0
  2 13  1  0
  2 14  1  0
  5 15  1  0
  5 16  1  0
  5 17  1  0
  6 18  1  0
  6 19  1  0
  8 20  1  0
  8 21  1  0
M  END
