
     RDKit          3D

 19 20  0  0  0  0  0  0  0  0999 V2000
    2.3435    0.1912   -0.4258 C   0  0  0  0  0  0  0  0  0  0  0  0
    1.0648    0.5186    0.3022 C   0  0  0  0  0  0  0  0  0  0  0  0
    0.0843   -0.6231    0.3067 C   0  0  0  0  0  0  0  0  0  0  0  0
   -0.3539   -1.0762   -1.0738 C   0  0  0  0  0  0  0  0  0  0  0  0
   -1.7252   -0.5490   -0.8591 C   0  0  0  0  0  0  0  0  0  0  0  0
   -2.7570   -0.4998   -1.4895 O   0  0  0  0  0  0  0  0  0  0  0  0
   -1.3196   -0.0959    0.4659 C   0  0  0  0  0  0  0  0  0  0  0  0
   -1.6883    1.0490    1.1749 C   0  0  0  0  0  0  0  0  0  0  0  0
   -2.0462   -0.3269    1.5957 O   0  0  0  0  0  0  0  0  0  0  0  0
    2.3484   -0.8707   -0.7963 H   0  0  0  0  0  0  0  0  0  0  0  0
    3.2356    0.3770    0.2283 H   0  0  0  0  0  0  0  0  0  0  0  0
    2.4535    0.8700   -1.2989 H   0  0  0  0  0  0  0  0  0  0  0  0
    0.5550    1.3832   -0.1940 H   0  0  0  0  0  0  0  0  0  0  0  0
    1.2583    0.7877    1.3628 H   0  0  0  0  0  0  0  0  0  0  0  0
    0.3041   -1.4622    0.9756 H   0  0  0  0  0  0  0  0  0  0  0  0
   -0.3489   -2.1896   -1.2052 H   0  0  0  0  0  0  0  0  0  0  0  0
    0.1930   -0.6254   -1.9152 H   0  0  0  0  0  0  0  0  0  0  0  0
   -0.9899    1.5303    1.9027 H   0  0  0  0  0  0  0  0  0  0  0  0
   -2.6114    1.6119    0.9429 H   0  0  0  0  0  0  0  0  0  0  0  0
  1  2  1  0
  2  3  1  0
  3  4  1  0
  4  5  1  0
  5  6  2  0
  5  7  1  0
  7  8  1  0
  8  9  1  0
  7  3  1  0
  9  7  1  0
  1 10  1  0
  1 11  1  0
  1 12  1  0
  2 13  1  0
  2 14  1  0
  3 15  1  0
  4 16  1  0
  4 17  1  0
  8 18  1  0
  8 19  1  0
M  END
