
     RDKit          3D

 23 24  0  0  0  0  0  0  0  0999 V2000
    1.4606    1.8928    0.1184 C   0  0  0  0  0  0  0  0  0  0  0  0
    1.6517    0.6065   -0.6527 C   0  0  0  0  0  0  0  0  0  0  0  0
    0.5402   -0.3658   -0.4444 C   0  0  0  0  0  0  0  0  0  0  0  0
    0.5261   -1.6950   -1.1079 C   0  0  0  0  0  0  0  0  0  0  0  0
    0.0347   -2.3482    0.1864 C   0  0  0  0  0  0  0  0  0  0  0  0
    0.1940   -0.9669    0.8312 C   0  0  0  0  0  0  0  0  0  0  0  0
   -0.6515    0.1224    0.2886 C   0  0  0  0  0  0  0  0  0  0  0  0
   -1.8525   -0.1228   -0.3450 O   0  0  0  0  0  0  0  0  0  0  0  0
   -2.7411    0.9271   -0.1826 C   0  0  0  0  0  0  0  0  0  0  0  0
    1.4526    1.7016    1.2085 H   0  0  0  0  0  0  0  0  0  0  0  0
    0.5662    2.4446   -0.1769 H   0  0  0  0  0  0  0  0  0  0  0  0
    2.3391    2.5443   -0.1354 H   0  0  0  0  0  0  0  0  0  0  0  0
    1.6539    0.8964   -1.7342 H   0  0  0  0  0  0  0  0  0  0  0  0
    2.6367    0.1837   -0.4245 H   0  0  0  0  0  0  0  0  0  0  0  0
   -0.2010   -1.7728   -1.9398 H   0  0  0  0  0  0  0  0  0  0  0  0
    1.5314   -2.0990   -1.3640 H   0  0  0  0  0  0  0  0  0  0  0  0
    0.7618   -3.0461    0.6441 H   0  0  0  0  0  0  0  0  0  0  0  0
   -1.0015   -2.6797    0.1775 H   0  0  0  0  0  0  0  0  0  0  0  0
    0.7485   -0.8878    1.7594 H   0  0  0  0  0  0  0  0  0  0  0  0
   -0.5934    1.0830    0.8056 H   0  0  0  0  0  0  0  0  0  0  0  0
   -3.6728    0.6573   -0.7149 H   0  0  0  0  0  0  0  0  0  0  0  0
   -2.3840    1.8747   -0.6268 H   0  0  0  0  0  0  0  0  0  0  0  0
   -2.9996    1.0497    0.8986 H   0  0  0  0  0  0  0  0  0  0  0  0
  1  2  1  0
  2  3  1  0
  3  4  1  0
  4  5  1  0
  5  6  1  0
  6  7  1  0
  7  8  1  0
  8  9  1  0
  6  3  1  0
  7  3  1  0
  1 10  1  0
  1 11  1  0
  1 12  1  0
  2 13  1  0
  2 14  1  0
  4 15  1  0
  4 16  1  0
  5 17  1  0
  5 18  1  0
  6 19  1  0
  7 20  1  0
  9 21  1  0
  9 22  1  0
  9 23  1  0
M  END
