
     RDKit          3D

 21 22  0  0  0  0  0  0  0  0999 V2000
    2.4528   -0.6790    0.2026 C   0  0  0  0  0  0  0  0  0  0  0  0
    1.5735   -0.1591   -0.9429 C   0  0  0  0  0  0  0  0  0  0  0  0
    0.3170    0.3451   -0.3422 C   0  0  0  0  0  0  0  0  0  0  0  0
   -0.0873    1.6002   -0.4611 C   0  0  0  0  0  0  0  0  0  0  0  0
   -1.3600    1.8131    0.2324 C   0  0  0  0  0  0  0  0  0  0  0  0
   -1.6520    0.5806    1.0010 C   0  0  0  0  0  0  0  0  0  0  0  0
   -0.7235   -0.0521    1.7851 O   0  0  0  0  0  0  0  0  0  0  0  0
   -0.6472   -0.4203    0.4490 C   0  0  0  0  0  0  0  0  0  0  0  0
   -1.2561   -1.6840   -0.0413 C   0  0  0  0  0  0  0  0  0  0  0  0
    3.2110   -1.3381   -0.2425 H   0  0  0  0  0  0  0  0  0  0  0  0
    1.8186   -1.1668    0.9632 H   0  0  0  0  0  0  0  0  0  0  0  0
    2.9982    0.2120    0.6283 H   0  0  0  0  0  0  0  0  0  0  0  0
    1.4130   -0.9961   -1.6464 H   0  0  0  0  0  0  0  0  0  0  0  0
    2.1441    0.6618   -1.4165 H   0  0  0  0  0  0  0  0  0  0  0  0
    0.4261    2.4193   -0.9992 H   0  0  0  0  0  0  0  0  0  0  0  0
   -2.1647    1.9305   -0.5463 H   0  0  0  0  0  0  0  0  0  0  0  0
   -1.4010    2.7419    0.8351 H   0  0  0  0  0  0  0  0  0  0  0  0
   -2.6937    0.2401    1.1661 H   0  0  0  0  0  0  0  0  0  0  0  0
   -0.7744   -2.6059    0.2910 H   0  0  0  0  0  0  0  0  0  0  0  0
   -2.3449   -1.7859    0.2415 H   0  0  0  0  0  0  0  0  0  0  0  0
   -1.2492   -1.6574   -1.1569 H   0  0  0  0  0  0  0  0  0  0  0  0
  1  2  1  0
  2  3  1  0
  3  4  2  0
  4  5  1  0
  5  6  1  0
  6  7  1  0
  7  8  1  0
  8  9  1  0
  8  3  1  0
  8  6  1  0
  1 10  1  0
  1 11  1  0
  1 12  1  0
  2 13  1  0
  2 14  1  0
  4 15  1  0
  5 16  1  0
  5 17  1  0
  6 18  1  0
  9 19  1  0
  9 20  1  0
  9 21  1  0
M  END
