
     RDKit          3D

 19 21  0  0  0  0  0  0  0  0999 V2000
    2.6074    0.0621   -0.3893 C   0  0  0  0  0  0  0  0  0  0  0  0
    1.2504    0.6603   -0.0918 C   0  0  0  0  0  0  0  0  0  0  0  0
    0.3885   -0.2830    0.6703 C   0  0  0  0  0  0  0  0  0  0  0  0
   -0.9800    0.1077    1.0610 C   0  0  0  0  0  0  0  0  0  0  0  0
   -1.7439    1.0171    0.0842 C   0  0  0  0  0  0  0  0  0  0  0  0
   -2.9453    0.4442   -0.3312 O   0  0  0  0  0  0  0  0  0  0  0  0
   -1.6127    0.1185   -0.9199 C   0  0  0  0  0  0  0  0  0  0  0  0
   -0.7985   -0.8299   -0.1096 C   0  0  0  0  0  0  0  0  0  0  0  0
   -1.1327   -2.1521   -0.0109 O   0  0  0  0  0  0  0  0  0  0  0  0
    2.5476   -0.5913   -1.2806 H   0  0  0  0  0  0  0  0  0  0  0  0
    3.3673    0.8349   -0.5492 H   0  0  0  0  0  0  0  0  0  0  0  0
    2.8794   -0.5617    0.4899 H   0  0  0  0  0  0  0  0  0  0  0  0
    0.7511    0.9117   -1.0435 H   0  0  0  0  0  0  0  0  0  0  0  0
    1.3387    1.6278    0.4573 H   0  0  0  0  0  0  0  0  0  0  0  0
    0.9050   -0.9694    1.3664 H   0  0  0  0  0  0  0  0  0  0  0  0
   -1.4763   -0.2167    1.9695 H   0  0  0  0  0  0  0  0  0  0  0  0
   -1.6636    2.0965    0.2033 H   0  0  0  0  0  0  0  0  0  0  0  0
   -1.7021    0.0800   -1.9895 H   0  0  0  0  0  0  0  0  0  0  0  0
   -1.9803   -2.3566    0.4135 H   0  0  0  0  0  0  0  0  0  0  0  0
  1  2  1  0
  2  3  1  0
  3  4  1  0
  4  5  1  0
  5  6  1  0
  6  7  1  0
  7  8  1  0
  8  9  1  0
  8  3  1  0
  8  4  1  0
  7  5  1  0
  1 10  1  0
  1 11  1  0
  1 12  1  0
  2 13  1  0
  2 14  1  0
  3 15  1  0
  4 16  1  0
  5 17  1  0
  7 18  1  0
  9 19  1  0
M  END
