
     RDKit          3D

 25 26  0  0  0  0  0  0  0  0999 V2000
    2.8328    0.1375    0.8377 C   0  0  0  0  0  0  0  0  0  0  0  0
    1.9309    0.2776   -0.3554 C   0  0  0  0  0  0  0  0  0  0  0  0
    0.4957    0.4716   -0.0187 C   0  0  0  0  0  0  0  0  0  0  0  0
   -0.1024   -0.6746    0.7823 C   0  0  0  0  0  0  0  0  0  0  0  0
   -1.4810   -0.3201    1.2907 C   0  0  0  0  0  0  0  0  0  0  0  0
   -2.1090    0.7411    0.4291 C   0  0  0  0  0  0  0  0  0  0  0  0
   -1.7448    0.6162   -1.0181 C   0  0  0  0  0  0  0  0  0  0  0  0
   -0.3844   -0.0103   -1.1804 C   0  0  0  0  0  0  0  0  0  0  0  0
   -0.3111   -1.3860   -0.5554 C   0  0  0  0  0  0  0  0  0  0  0  0
    3.2160   -0.9068    0.8617 H   0  0  0  0  0  0  0  0  0  0  0  0
    2.3199    0.3112    1.7979 H   0  0  0  0  0  0  0  0  0  0  0  0
    3.7219    0.7936    0.7991 H   0  0  0  0  0  0  0  0  0  0  0  0
    2.2723    1.2076   -0.8986 H   0  0  0  0  0  0  0  0  0  0  0  0
    2.0780   -0.5451   -1.0714 H   0  0  0  0  0  0  0  0  0  0  0  0
    0.1922    1.4618    0.3465 H   0  0  0  0  0  0  0  0  0  0  0  0
    0.5660   -1.1737    1.4784 H   0  0  0  0  0  0  0  0  0  0  0  0
   -2.1047   -1.2494    1.1910 H   0  0  0  0  0  0  0  0  0  0  0  0
   -1.4983   -0.0375    2.3478 H   0  0  0  0  0  0  0  0  0  0  0  0
   -1.9027    1.7714    0.8298 H   0  0  0  0  0  0  0  0  0  0  0  0
   -3.2245    0.6013    0.4956 H   0  0  0  0  0  0  0  0  0  0  0  0
   -1.6778    1.6421   -1.4441 H   0  0  0  0  0  0  0  0  0  0  0  0
   -2.4794    0.0546   -1.6205 H   0  0  0  0  0  0  0  0  0  0  0  0
    0.0792    0.0880   -2.1606 H   0  0  0  0  0  0  0  0  0  0  0  0
   -1.2599   -1.9544   -0.5576 H   0  0  0  0  0  0  0  0  0  0  0  0
    0.5751   -1.9178   -0.9364 H   0  0  0  0  0  0  0  0  0  0  0  0
  1  2  1  0
  2  3  1  0
  3  4  1  0
  4  5  1  0
  5  6  1  0
  6  7  1  0
  7  8  1  0
  8  9  1  0
  8  3  1  0
  9  4  1  0
  1 10  1  0
  1 11  1  0
  1 12  1  0
  2 13  1  0
  2 14  1  0
  3 15  1  0
  4 16  1  0
  5 17  1  0
  5 18  1  0
  6 19  1  0
  6 20  1  0
  7 21  1  0
  7 22  1  0
  8 23  1  0
  9 24  1  0
  9 25  1  0
M  END
