
     RDKit          3D

 23 23  0  0  0  0  0  0  0  0999 V2000
   -1.6040    1.4308    0.3056 C   0  0  0  0  0  0  0  0  0  0  0  0
   -1.2924    0.5118   -0.7973 C   0  0  0  0  0  0  0  0  0  0  0  0
   -0.4518   -0.6628   -0.6004 C   0  0  0  0  0  0  0  0  0  0  0  0
   -0.9357   -1.6464    0.4393 C   0  0  0  0  0  0  0  0  0  0  0  0
    0.1882   -2.0173    1.1715 O   0  0  0  0  0  0  0  0  0  0  0  0
    1.1030   -0.9736    1.1098 C   0  0  0  0  0  0  0  0  0  0  0  0
    0.9862   -0.5812   -0.3738 C   0  0  0  0  0  0  0  0  0  0  0  0
    1.7440    0.6349   -0.6907 C   0  0  0  0  0  0  0  0  0  0  0  0
    1.2849    1.7123    0.0402 O   0  0  0  0  0  0  0  0  0  0  0  0
   -1.0684    1.1663    1.2387 H   0  0  0  0  0  0  0  0  0  0  0  0
   -2.7069    1.5432    0.5067 H   0  0  0  0  0  0  0  0  0  0  0  0
   -1.2926    2.4600    0.0289 H   0  0  0  0  0  0  0  0  0  0  0  0
   -2.2931    0.2114   -1.2560 H   0  0  0  0  0  0  0  0  0  0  0  0
   -0.8263    1.1216   -1.6378 H   0  0  0  0  0  0  0  0  0  0  0  0
   -0.5620   -1.2749   -1.5883 H   0  0  0  0  0  0  0  0  0  0  0  0
   -1.4356   -2.5370    0.0140 H   0  0  0  0  0  0  0  0  0  0  0  0
   -1.6485   -1.1981    1.1546 H   0  0  0  0  0  0  0  0  0  0  0  0
    2.1223   -1.3694    1.3104 H   0  0  0  0  0  0  0  0  0  0  0  0
    0.8603   -0.0927    1.6914 H   0  0  0  0  0  0  0  0  0  0  0  0
    1.5026   -1.4600   -0.9063 H   0  0  0  0  0  0  0  0  0  0  0  0
    1.8588    0.8559   -1.7702 H   0  0  0  0  0  0  0  0  0  0  0  0
    2.8109    0.4624   -0.3486 H   0  0  0  0  0  0  0  0  0  0  0  0
    1.6563    1.7029    0.9584 H   0  0  0  0  0  0  0  0  0  0  0  0
  1  2  1  0
  2  3  1  0
  3  4  1  0
  4  5  1  0
  5  6  1  0
  6  7  1  0
  7  8  1  0
  8  9  1  0
  7  3  1  0
  1 10  1  0
  1 11  1  0
  1 12  1  0
  2 13  1  0
  2 14  1  0
  3 15  1  0
  4 16  1  0
  4 17  1  0
  6 18  1  0
  6 19  1  0
  7 20  1  0
  8 21  1  0
  8 22  1  0
  9 23  1  0
M  END
