
     RDKit          3D

 19 21  0  0  0  0  0  0  0  0999 V2000
    2.3940    0.4190    0.7138 C   0  0  0  0  0  0  0  0  0  0  0  0
    1.7726   -0.1390   -0.5363 C   0  0  0  0  0  0  0  0  0  0  0  0
    0.3045   -0.0619   -0.4590 C   0  0  0  0  0  0  0  0  0  0  0  0
   -0.5058    0.5933   -1.2816 C   0  0  0  0  0  0  0  0  0  0  0  0
   -1.9328    0.4028   -0.8323 C   0  0  0  0  0  0  0  0  0  0  0  0
   -2.1460    0.3901    0.6344 C   0  0  0  0  0  0  0  0  0  0  0  0
   -1.0411    0.2405    1.4393 O   0  0  0  0  0  0  0  0  0  0  0  0
   -0.5079   -0.7386    0.6043 C   0  0  0  0  0  0  0  0  0  0  0  0
   -1.8270   -0.8488   -0.0652 C   0  0  0  0  0  0  0  0  0  0  0  0
    1.6247    0.5948    1.4743 H   0  0  0  0  0  0  0  0  0  0  0  0
    3.1183   -0.3330    1.1341 H   0  0  0  0  0  0  0  0  0  0  0  0
    3.0002    1.3348    0.4825 H   0  0  0  0  0  0  0  0  0  0  0  0
    2.0646   -1.2243   -0.6481 H   0  0  0  0  0  0  0  0  0  0  0  0
    2.1938    0.3745   -1.4002 H   0  0  0  0  0  0  0  0  0  0  0  0
   -0.1579    1.1587   -2.1239 H   0  0  0  0  0  0  0  0  0  0  0  0
   -2.7303    0.5826   -1.5466 H   0  0  0  0  0  0  0  0  0  0  0  0
   -3.1393    0.5891    1.0793 H   0  0  0  0  0  0  0  0  0  0  0  0
   -0.0668   -1.6092    1.0695 H   0  0  0  0  0  0  0  0  0  0  0  0
   -2.4177   -1.7252   -0.1647 H   0  0  0  0  0  0  0  0  0  0  0  0
  1  2  1  0
  2  3  1  0
  3  4  2  0
  4  5  1  0
  5  6  1  0
  6  7  1  0
  7  8  1  0
  8  9  1  0
  8  3  1  0
  9  5  1  0
  9  6  1  0
  1 10  1  0
  1 11  1  0
  1 12  1  0
  2 13  1  0
  2 14  1  0
  4 15  1  0
  5 16  1  0
  6 17  1  0
  8 18  1  0
  9 19  1  0
M  END
