
     RDKit          3D

 23 24  0  0  0  0  0  0  0  0999 V2000
    1.9826   -0.4984    1.2239 C   0  0  0  0  0  0  0  0  0  0  0  0
    1.2047    0.4406    0.3635 C   0  0  0  0  0  0  0  0  0  0  0  0
    0.0765   -0.2286   -0.3878 C   0  0  0  0  0  0  0  0  0  0  0  0
    0.5856   -1.3153   -1.3003 C   0  0  0  0  0  0  0  0  0  0  0  0
   -0.7899    0.7985   -1.0492 C   0  0  0  0  0  0  0  0  0  0  0  0
   -0.2188    2.0783   -1.0789 O   0  0  0  0  0  0  0  0  0  0  0  0
   -1.8805    0.6016   -0.0559 C   0  0  0  0  0  0  0  0  0  0  0  0
   -1.6279    0.3791    1.3821 C   0  0  0  0  0  0  0  0  0  0  0  0
   -1.1007   -0.6483    0.4422 C   0  0  0  0  0  0  0  0  0  0  0  0
    3.0676   -0.4797    0.9320 H   0  0  0  0  0  0  0  0  0  0  0  0
    1.9821   -0.0917    2.2777 H   0  0  0  0  0  0  0  0  0  0  0  0
    1.6473   -1.5378    1.2053 H   0  0  0  0  0  0  0  0  0  0  0  0
    1.8835    0.8690   -0.4324 H   0  0  0  0  0  0  0  0  0  0  0  0
    0.8502    1.3209    0.9338 H   0  0  0  0  0  0  0  0  0  0  0  0
    0.5810   -2.2941   -0.8220 H   0  0  0  0  0  0  0  0  0  0  0  0
   -0.0703   -1.3030   -2.2036 H   0  0  0  0  0  0  0  0  0  0  0  0
    1.6279   -1.0878   -1.6441 H   0  0  0  0  0  0  0  0  0  0  0  0
   -1.0841    0.4321   -2.0683 H   0  0  0  0  0  0  0  0  0  0  0  0
   -0.8352    2.7187   -1.4697 H   0  0  0  0  0  0  0  0  0  0  0  0
   -2.8875    0.4351   -0.4578 H   0  0  0  0  0  0  0  0  0  0  0  0
   -2.5103    0.0884    1.9831 H   0  0  0  0  0  0  0  0  0  0  0  0
   -0.8691    0.9235    1.9567 H   0  0  0  0  0  0  0  0  0  0  0  0
   -1.6146   -1.6011    0.2696 H   0  0  0  0  0  0  0  0  0  0  0  0
  1  2  1  0
  2  3  1  0
  3  4  1  0
  3  5  1  0
  5  6  1  0
  5  7  1  0
  7  8  1  0
  8  9  1  0
  9  3  1  0
  9  7  1  0
  1 10  1  0
  1 11  1  0
  1 12  1  0
  2 13  1  0
  2 14  1  0
  4 15  1  0
  4 16  1  0
  4 17  1  0
  5 18  1  0
  6 19  1  0
  7 20  1  0
  8 21  1  0
  8 22  1  0
  9 23  1  0
M  END
