
     RDKit          3D

 25 25  0  0  0  0  0  0  0  0999 V2000
    2.9151   -0.1422   -0.4048 C   0  0  0  0  0  0  0  0  0  0  0  0
    1.8051   -0.8357    0.2923 C   0  0  0  0  0  0  0  0  0  0  0  0
    0.4315   -0.4578   -0.1879 C   0  0  0  0  0  0  0  0  0  0  0  0
   -0.5837   -1.2696    0.6430 C   0  0  0  0  0  0  0  0  0  0  0  0
   -1.4978   -0.0608    0.4213 C   0  0  0  0  0  0  0  0  0  0  0  0
   -2.2177   -0.2170   -0.8646 C   0  0  0  0  0  0  0  0  0  0  0  0
   -2.2474    0.2912    1.5281 O   0  0  0  0  0  0  0  0  0  0  0  0
   -0.2075    0.7354    0.3897 C   0  0  0  0  0  0  0  0  0  0  0  0
   -0.3480    1.9763   -0.4098 C   0  0  0  0  0  0  0  0  0  0  0  0
    2.7054    0.9147   -0.6604 H   0  0  0  0  0  0  0  0  0  0  0  0
    3.2096   -0.6547   -1.3647 H   0  0  0  0  0  0  0  0  0  0  0  0
    3.8301   -0.1301    0.2249 H   0  0  0  0  0  0  0  0  0  0  0  0
    1.9143   -0.7488    1.3885 H   0  0  0  0  0  0  0  0  0  0  0  0
    1.9142   -1.9409    0.0785 H   0  0  0  0  0  0  0  0  0  0  0  0
    0.2330   -0.6672   -1.2458 H   0  0  0  0  0  0  0  0  0  0  0  0
   -0.3207   -1.3210    1.7200 H   0  0  0  0  0  0  0  0  0  0  0  0
   -0.9147   -2.1943    0.1692 H   0  0  0  0  0  0  0  0  0  0  0  0
   -1.6652    0.0525   -1.7632 H   0  0  0  0  0  0  0  0  0  0  0  0
   -2.5395   -1.2902   -1.0077 H   0  0  0  0  0  0  0  0  0  0  0  0
   -3.1795    0.3604   -0.8212 H   0  0  0  0  0  0  0  0  0  0  0  0
   -2.1722   -0.3866    2.2393 H   0  0  0  0  0  0  0  0  0  0  0  0
    0.1290    0.9464    1.4113 H   0  0  0  0  0  0  0  0  0  0  0  0
    0.6028    2.5286   -0.5013 H   0  0  0  0  0  0  0  0  0  0  0  0
   -0.7525    1.8524   -1.4158 H   0  0  0  0  0  0  0  0  0  0  0  0
   -1.0438    2.6589    0.1412 H   0  0  0  0  0  0  0  0  0  0  0  0
  1  2  1  0
  2  3  1  0
  3  4  1  0
  4  5  1  0
  5  6  1  0
  5  7  1  0
  5  8  1  0
  8  9  1  0
  8  3  1  0
  1 10  1  0
  1 11  1  0
  1 12  1  0
  2 13  1  0
  2 14  1  0
  3 15  1  0
  4 16  1  0
  4 17  1  0
  6 18  1  0
  6 19  1  0
  6 20  1  0
  7 21  1  0
  8 22  1  0
  9 23  1  0
  9 24  1  0
  9 25  1  0
M  END
