
     RDKit          3D

 21 21  0  0  0  0  0  0  0  0999 V2000
    2.4958   -0.7660   -0.0009 C   0  0  0  0  0  0  0  0  0  0  0  0
    1.6176    0.4724   -0.0354 C   0  0  0  0  0  0  0  0  0  0  0  0
    0.3415    0.1692    0.6847 C   0  0  0  0  0  0  0  0  0  0  0  0
   -0.3996   -0.9811    0.0328 C   0  0  0  0  0  0  0  0  0  0  0  0
   -1.4563    0.0304   -0.4230 C   0  0  0  0  0  0  0  0  0  0  0  0
   -2.8025   -0.4013    0.0205 C   0  0  0  0  0  0  0  0  0  0  0  0
   -2.9373   -0.7878    1.1634 O   0  0  0  0  0  0  0  0  0  0  0  0
   -0.8133    1.0762    0.4422 C   0  0  0  0  0  0  0  0  0  0  0  0
   -0.5678    2.2946   -0.1299 O   0  0  0  0  0  0  0  0  0  0  0  0
    2.3311   -1.2586    0.9733 H   0  0  0  0  0  0  0  0  0  0  0  0
    2.2470   -1.4665   -0.8250 H   0  0  0  0  0  0  0  0  0  0  0  0
    3.5808   -0.5031   -0.1414 H   0  0  0  0  0  0  0  0  0  0  0  0
    2.1337    1.3569    0.3877 H   0  0  0  0  0  0  0  0  0  0  0  0
    1.4269    0.6761   -1.1235 H   0  0  0  0  0  0  0  0  0  0  0  0
    0.5362   -0.0830    1.7443 H   0  0  0  0  0  0  0  0  0  0  0  0
    0.1632   -1.4483   -0.7921 H   0  0  0  0  0  0  0  0  0  0  0  0
   -0.7988   -1.7393    0.7516 H   0  0  0  0  0  0  0  0  0  0  0  0
   -1.3794    0.2029   -1.5166 H   0  0  0  0  0  0  0  0  0  0  0  0
   -3.6488   -0.3784   -0.6425 H   0  0  0  0  0  0  0  0  0  0  0  0
   -1.4142    1.1943    1.3900 H   0  0  0  0  0  0  0  0  0  0  0  0
   -0.6562    2.3404   -1.0994 H   0  0  0  0  0  0  0  0  0  0  0  0
  1  2  1  0
  2  3  1  0
  3  4  1  0
  4  5  1  0
  5  6  1  0
  6  7  2  0
  5  8  1  0
  8  9  1  0
  8  3  1  0
  1 10  1  0
  1 11  1  0
  1 12  1  0
  2 13  1  0
  2 14  1  0
  3 15  1  0
  4 16  1  0
  4 17  1  0
  5 18  1  0
  6 19  1  0
  8 20  1  0
  9 21  1  0
M  END
