
     RDKit          3D

 23 23  0  0  0  0  0  0  0  0999 V2000
    2.5611    0.7152   -0.7891 C   0  0  0  0  0  0  0  0  0  0  0  0
    1.9897    0.1076    0.4746 C   0  0  0  0  0  0  0  0  0  0  0  0
    0.7655   -0.6865    0.0794 C   0  0  0  0  0  0  0  0  0  0  0  0
   -0.1954    0.2849   -0.5578 C   0  0  0  0  0  0  0  0  0  0  0  0
   -1.4806    0.2029   -0.2771 C   0  0  0  0  0  0  0  0  0  0  0  0
   -2.4032    1.1696   -0.9167 C   0  0  0  0  0  0  0  0  0  0  0  0
   -1.9798   -0.8437    0.6642 C   0  0  0  0  0  0  0  0  0  0  0  0
   -1.0978   -1.9067    0.7829 O   0  0  0  0  0  0  0  0  0  0  0  0
    0.1233   -1.3954    1.2307 C   0  0  0  0  0  0  0  0  0  0  0  0
    3.6705    0.7504   -0.7297 H   0  0  0  0  0  0  0  0  0  0  0  0
    2.1322    1.7388   -0.9393 H   0  0  0  0  0  0  0  0  0  0  0  0
    2.3238    0.0287   -1.6248 H   0  0  0  0  0  0  0  0  0  0  0  0
    2.7144   -0.5140    1.0211 H   0  0  0  0  0  0  0  0  0  0  0  0
    1.7304    0.9557    1.1379 H   0  0  0  0  0  0  0  0  0  0  0  0
    0.9886   -1.4318   -0.7071 H   0  0  0  0  0  0  0  0  0  0  0  0
    0.2490    1.0119   -1.2280 H   0  0  0  0  0  0  0  0  0  0  0  0
   -2.3395    1.0308   -2.0060 H   0  0  0  0  0  0  0  0  0  0  0  0
   -2.0253    2.2058   -0.6893 H   0  0  0  0  0  0  0  0  0  0  0  0
   -3.4314    1.1211   -0.5209 H   0  0  0  0  0  0  0  0  0  0  0  0
   -2.9787   -1.1549    0.3090 H   0  0  0  0  0  0  0  0  0  0  0  0
   -2.0943   -0.3954    1.6782 H   0  0  0  0  0  0  0  0  0  0  0  0
   -0.0067   -0.7269    2.1170 H   0  0  0  0  0  0  0  0  0  0  0  0
    0.7840   -2.2681    1.4908 H   0  0  0  0  0  0  0  0  0  0  0  0
  1  2  1  0
  2  3  1  0
  3  4  1  0
  4  5  2  0
  5  6  1  0
  5  7  1  0
  7  8  1  0
  8  9  1  0
  9  3  1  0
  1 10  1  0
  1 11  1  0
  1 12  1  0
  2 13  1  0
  2 14  1  0
  3 15  1  0
  4 16  1  0
  6 17  1  0
  6 18  1  0
  6 19  1  0
  7 20  1  0
  7 21  1  0
  9 22  1  0
  9 23  1  0
M  END
