
     RDKit          3D

 22 22  0  0  0  0  0  0  0  0999 V2000
    2.7592    0.4040   -0.2674 C   0  0  0  0  0  0  0  0  0  0  0  0
    1.6442   -0.5821   -0.3487 C   0  0  0  0  0  0  0  0  0  0  0  0
    0.3015    0.0627   -0.2457 C   0  0  0  0  0  0  0  0  0  0  0  0
    0.0935    1.3613   -0.0981 C   0  0  0  0  0  0  0  0  0  0  0  0
   -1.3569    1.6921   -0.0262 C   0  0  0  0  0  0  0  0  0  0  0  0
   -2.0287    0.3667    0.3006 C   0  0  0  0  0  0  0  0  0  0  0  0
   -1.0252   -0.5940   -0.2907 C   0  0  0  0  0  0  0  0  0  0  0  0
   -1.0684   -1.8624    0.5283 C   0  0  0  0  0  0  0  0  0  0  0  0
    3.6864   -0.0264   -0.7457 H   0  0  0  0  0  0  0  0  0  0  0  0
    3.0575    0.5590    0.8090 H   0  0  0  0  0  0  0  0  0  0  0  0
    2.5727    1.3483   -0.7851 H   0  0  0  0  0  0  0  0  0  0  0  0
    1.7635   -1.3719    0.4048 H   0  0  0  0  0  0  0  0  0  0  0  0
    1.6820   -1.0747   -1.3488 H   0  0  0  0  0  0  0  0  0  0  0  0
    0.8556    2.1461   -0.0305 H   0  0  0  0  0  0  0  0  0  0  0  0
   -1.7457    2.0355   -0.9974 H   0  0  0  0  0  0  0  0  0  0  0  0
   -1.5607    2.4374    0.7502 H   0  0  0  0  0  0  0  0  0  0  0  0
   -2.9759    0.2264   -0.2401 H   0  0  0  0  0  0  0  0  0  0  0  0
   -2.1417    0.2423    1.3877 H   0  0  0  0  0  0  0  0  0  0  0  0
   -1.2611   -0.7729   -1.3595 H   0  0  0  0  0  0  0  0  0  0  0  0
   -0.2473   -1.8750    1.2776 H   0  0  0  0  0  0  0  0  0  0  0  0
   -0.9483   -2.7624   -0.1126 H   0  0  0  0  0  0  0  0  0  0  0  0
   -2.0564   -1.9601    1.0239 H   0  0  0  0  0  0  0  0  0  0  0  0
  1  2  1  0
  2  3  1  0
  3  4  2  0
  4  5  1  0
  5  6  1  0
  6  7  1  0
  7  8  1  0
  7  3  1  0
  1  9  1  0
  1 10  1  0
  1 11  1  0
  2 12  1  0
  2 13  1  0
  4 14  1  0
  5 15  1  0
  5 16  1  0
  6 17  1  0
  6 18  1  0
  7 19  1  0
  8 20  1  0
  8 21  1  0
  8 22  1  0
M  END
