
     RDKit          3D

 21 23  0  0  0  0  0  0  0  0999 V2000
    2.9953    0.4226    0.4079 C   0  0  0  0  0  0  0  0  0  0  0  0
    1.8564   -0.6061    0.3880 C   0  0  0  0  0  0  0  0  0  0  0  0
    0.8230   -0.0411   -0.5818 C   0  0  0  0  0  0  0  0  0  0  0  0
    0.3681    1.2989   -0.0588 O   0  0  0  0  0  0  0  0  0  0  0  0
   -0.4430    0.2165   -0.2311 C   0  0  0  0  0  0  0  0  0  0  0  0
   -1.3905   -0.2994    0.7620 C   0  0  0  0  0  0  0  0  0  0  0  0
   -2.0179   -1.0845   -0.3765 C   0  0  0  0  0  0  0  0  0  0  0  0
   -1.7404    0.2730   -0.9627 C   0  0  0  0  0  0  0  0  0  0  0  0
   -2.3126    0.8161    0.3250 C   0  0  0  0  0  0  0  0  0  0  0  0
    3.9299   -0.0096    0.7902 H   0  0  0  0  0  0  0  0  0  0  0  0
    3.1796    0.6904   -0.6596 H   0  0  0  0  0  0  0  0  0  0  0  0
    2.6910    1.3230    0.9700 H   0  0  0  0  0  0  0  0  0  0  0  0
    2.2778   -1.5047   -0.1104 H   0  0  0  0  0  0  0  0  0  0  0  0
    1.4545   -0.7943    1.3809 H   0  0  0  0  0  0  0  0  0  0  0  0
    1.2700    0.1707   -1.5760 H   0  0  0  0  0  0  0  0  0  0  0  0
   -1.2619   -0.6298    1.6955 H   0  0  0  0  0  0  0  0  0  0  0  0
   -3.0844   -1.3384   -0.2388 H   0  0  0  0  0  0  0  0  0  0  0  0
   -1.3649   -1.9066   -0.7353 H   0  0  0  0  0  0  0  0  0  0  0  0
   -1.9333    0.5905   -1.8892 H   0  0  0  0  0  0  0  0  0  0  0  0
   -1.9384    1.8214    0.5266 H   0  0  0  0  0  0  0  0  0  0  0  0
   -3.3584    0.5912    0.5256 H   0  0  0  0  0  0  0  0  0  0  0  0
  1  2  1  0
  2  3  1  0
  3  4  1  0
  4  5  1  0
  5  6  1  0
  6  7  1  0
  7  8  1  0
  8  9  1  0
  5  3  1  0
  9  6  1  0
  8  5  1  0
  1 10  1  0
  1 11  1  0
  1 12  1  0
  2 13  1  0
  2 14  1  0
  3 15  1  0
  6 16  1  0
  7 17  1  0
  7 18  1  0
  8 19  1  0
  9 20  1  0
  9 21  1  0
M  END
