
     RDKit          3D

 21 22  0  0  0  0  0  0  0  0999 V2000
    2.4600    0.5213    0.9081 C   0  0  0  0  0  0  0  0  0  0  0  0
    1.6625   -0.6956    0.4908 C   0  0  0  0  0  0  0  0  0  0  0  0
    0.4712   -0.2275   -0.2938 C   0  0  0  0  0  0  0  0  0  0  0  0
   -0.3298   -1.2823   -0.7248 O   0  0  0  0  0  0  0  0  0  0  0  0
   -1.4250   -0.6962   -1.3911 C   0  0  0  0  0  0  0  0  0  0  0  0
   -1.9740    0.4102   -0.5307 C   0  0  0  0  0  0  0  0  0  0  0  0
   -1.6696    0.0317    0.9179 C   0  0  0  0  0  0  0  0  0  0  0  0
   -0.3799    0.7326    0.5120 C   0  0  0  0  0  0  0  0  0  0  0  0
   -1.1222    1.4765   -0.3797 O   0  0  0  0  0  0  0  0  0  0  0  0
    3.4727    0.4389    0.4636 H   0  0  0  0  0  0  0  0  0  0  0  0
    1.9858    1.4593    0.5538 H   0  0  0  0  0  0  0  0  0  0  0  0
    2.5073    0.5407    2.0160 H   0  0  0  0  0  0  0  0  0  0  0  0
    1.3249   -1.2977    1.3556 H   0  0  0  0  0  0  0  0  0  0  0  0
    2.2576   -1.3565   -0.1689 H   0  0  0  0  0  0  0  0  0  0  0  0
    0.7932    0.3186   -1.2053 H   0  0  0  0  0  0  0  0  0  0  0  0
   -1.1064   -0.3537   -2.3909 H   0  0  0  0  0  0  0  0  0  0  0  0
   -2.1980   -1.4919   -1.4323 H   0  0  0  0  0  0  0  0  0  0  0  0
   -3.0036    0.7000   -0.7336 H   0  0  0  0  0  0  0  0  0  0  0  0
   -1.5654   -1.0606    1.0838 H   0  0  0  0  0  0  0  0  0  0  0  0
   -2.2729    0.5795    1.6443 H   0  0  0  0  0  0  0  0  0  0  0  0
    0.1115    1.2525    1.3311 H   0  0  0  0  0  0  0  0  0  0  0  0
  1  2  1  0
  2  3  1  0
  3  4  1  0
  4  5  1  0
  5  6  1  0
  6  7  1  0
  7  8  1  0
  8  9  1  0
  8  3  1  0
  9  6  1  0
  1 10  1  0
  1 11  1  0
  1 12  1  0
  2 13  1  0
  2 14  1  0
  3 15  1  0
  5 16  1  0
  5 17  1  0
  6 18  1  0
  7 19  1  0
  7 20  1  0
  8 21  1  0
M  END
