
     RDKit          3D

 21 22  0  0  0  0  0  0  0  0999 V2000
    2.4071    0.3598   -0.4122 C   0  0  0  0  0  0  0  0  0  0  0  0
    1.0558    0.6924    0.1754 C   0  0  0  0  0  0  0  0  0  0  0  0
    0.3163   -0.5417    0.5117 C   0  0  0  0  0  0  0  0  0  0  0  0
    0.0643   -1.4494   -0.7026 C   0  0  0  0  0  0  0  0  0  0  0  0
   -1.3562   -1.5191   -0.8069 O   0  0  0  0  0  0  0  0  0  0  0  0
   -1.6608   -0.2228   -0.4828 C   0  0  0  0  0  0  0  0  0  0  0  0
   -2.1351    0.4566    0.6429 C   0  0  0  0  0  0  0  0  0  0  0  0
   -1.9233    1.8515    0.7732 O   0  0  0  0  0  0  0  0  0  0  0  0
   -1.0715   -0.3865    0.9803 C   0  0  0  0  0  0  0  0  0  0  0  0
    3.0834    1.2279   -0.1707 H   0  0  0  0  0  0  0  0  0  0  0  0
    2.3534    0.3125   -1.5007 H   0  0  0  0  0  0  0  0  0  0  0  0
    2.8297   -0.5503    0.0557 H   0  0  0  0  0  0  0  0  0  0  0  0
    0.5778    1.4134   -0.4738 H   0  0  0  0  0  0  0  0  0  0  0  0
    1.2553    1.2172    1.1485 H   0  0  0  0  0  0  0  0  0  0  0  0
    0.9469   -1.1388    1.2074 H   0  0  0  0  0  0  0  0  0  0  0  0
    0.4361   -0.8847   -1.5815 H   0  0  0  0  0  0  0  0  0  0  0  0
    0.4991   -2.4393   -0.5784 H   0  0  0  0  0  0  0  0  0  0  0  0
   -1.0474    0.4240   -1.1865 H   0  0  0  0  0  0  0  0  0  0  0  0
   -3.1802    0.2316    1.0034 H   0  0  0  0  0  0  0  0  0  0  0  0
   -2.0654    2.2959   -0.1037 H   0  0  0  0  0  0  0  0  0  0  0  0
   -1.3851   -1.3502    1.5013 H   0  0  0  0  0  0  0  0  0  0  0  0
  1  2  1  0
  2  3  1  0
  3  4  1  0
  4  5  1  0
  5  6  1  0
  6  7  1  0
  7  8  1  0
  7  9  1  0
  9  3  1  0
  9  6  1  0
  1 10  1  0
  1 11  1  0
  1 12  1  0
  2 13  1  0
  2 14  1  0
  3 15  1  0
  4 16  1  0
  4 17  1  0
  6 18  1  0
  7 19  1  0
  8 20  1  0
  9 21  1  0
M  END
