
     RDKit          3D

 21 22  0  0  0  0  0  0  0  0999 V2000
   -2.5644    0.1126   -0.4178 C   0  0  0  0  0  0  0  0  0  0  0  0
   -1.3136   -0.6734   -0.6138 C   0  0  0  0  0  0  0  0  0  0  0  0
   -0.2287   -0.1396    0.3177 C   0  0  0  0  0  0  0  0  0  0  0  0
   -0.6849   -0.2749    1.6338 O   0  0  0  0  0  0  0  0  0  0  0  0
   -0.0168    1.2960    0.0759 C   0  0  0  0  0  0  0  0  0  0  0  0
    1.2035    1.5232   -0.3493 C   0  0  0  0  0  0  0  0  0  0  0  0
    1.9667    0.2744   -0.4477 C   0  0  0  0  0  0  0  0  0  0  0  0
    2.3184   -0.5241    0.7440 C   0  0  0  0  0  0  0  0  0  0  0  0
    1.0416   -0.8284    0.0584 C   0  0  0  0  0  0  0  0  0  0  0  0
   -2.9532    0.4323   -1.4120 H   0  0  0  0  0  0  0  0  0  0  0  0
   -3.3983   -0.5092    0.0227 H   0  0  0  0  0  0  0  0  0  0  0  0
   -2.4533    0.9707    0.2623 H   0  0  0  0  0  0  0  0  0  0  0  0
   -1.4838   -1.7315   -0.2923 H   0  0  0  0  0  0  0  0  0  0  0  0
   -0.8951   -0.6212   -1.6287 H   0  0  0  0  0  0  0  0  0  0  0  0
   -0.2791   -1.0462    2.1005 H   0  0  0  0  0  0  0  0  0  0  0  0
   -0.7641    2.1137    0.2213 H   0  0  0  0  0  0  0  0  0  0  0  0
    1.6336    2.5122   -0.6085 H   0  0  0  0  0  0  0  0  0  0  0  0
    2.4564    0.1140   -1.4289 H   0  0  0  0  0  0  0  0  0  0  0  0
    3.1286   -1.2470    0.6301 H   0  0  0  0  0  0  0  0  0  0  0  0
    2.2961   -0.0279    1.7427 H   0  0  0  0  0  0  0  0  0  0  0  0
    0.9903   -1.7258   -0.6103 H   0  0  0  0  0  0  0  0  0  0  0  0
  1  2  1  0
  2  3  1  0
  3  4  1  0
  3  5  1  0
  5  6  2  0
  6  7  1  0
  7  8  1  0
  8  9  1  0
  9  3  1  0
  9  7  1  0
  1 10  1  0
  1 11  1  0
  1 12  1  0
  2 13  1  0
  2 14  1  0
  4 15  1  0
  5 16  1  0
  6 17  1  0
  7 18  1  0
  8 19  1  0
  8 20  1  0
  9 21  1  0
M  END
