
     RDKit          3D

 23 23  0  0  0  0  0  0  0  0999 V2000
    2.6947   -0.5185    0.1669 C   0  0  0  0  0  0  0  0  0  0  0  0
    1.4477   -0.0466    0.8743 C   0  0  0  0  0  0  0  0  0  0  0  0
    0.3988    0.2746   -0.1691 C   0  0  0  0  0  0  0  0  0  0  0  0
    0.0630   -0.9076   -0.9929 C   0  0  0  0  0  0  0  0  0  0  0  0
    0.6982   -1.4027   -1.9074 O   0  0  0  0  0  0  0  0  0  0  0  0
   -1.2413   -1.4353   -0.5135 C   0  0  0  0  0  0  0  0  0  0  0  0
   -1.7343   -0.4514    0.5029 C   0  0  0  0  0  0  0  0  0  0  0  0
   -0.8814    0.7750    0.4229 C   0  0  0  0  0  0  0  0  0  0  0  0
   -1.4333    1.8569   -0.4426 C   0  0  0  0  0  0  0  0  0  0  0  0
    2.8661   -1.6038    0.3461 H   0  0  0  0  0  0  0  0  0  0  0  0
    2.6055   -0.3749   -0.9195 H   0  0  0  0  0  0  0  0  0  0  0  0
    3.5679    0.0931    0.4933 H   0  0  0  0  0  0  0  0  0  0  0  0
    1.6676    0.8860    1.4335 H   0  0  0  0  0  0  0  0  0  0  0  0
    1.0795   -0.7831    1.6238 H   0  0  0  0  0  0  0  0  0  0  0  0
    0.8454    1.0331   -0.8454 H   0  0  0  0  0  0  0  0  0  0  0  0
   -1.0614   -2.4535   -0.0752 H   0  0  0  0  0  0  0  0  0  0  0  0
   -1.9339   -1.5861   -1.3632 H   0  0  0  0  0  0  0  0  0  0  0  0
   -2.8068   -0.2188    0.4157 H   0  0  0  0  0  0  0  0  0  0  0  0
   -1.5524   -0.9100    1.5139 H   0  0  0  0  0  0  0  0  0  0  0  0
   -0.7068    1.2124    1.4434 H   0  0  0  0  0  0  0  0  0  0  0  0
   -2.0154    1.5028   -1.3104 H   0  0  0  0  0  0  0  0  0  0  0  0
   -2.0155    2.6199    0.1456 H   0  0  0  0  0  0  0  0  0  0  0  0
   -0.5519    2.4387   -0.8432 H   0  0  0  0  0  0  0  0  0  0  0  0
  1  2  1  0
  2  3  1  0
  3  4  1  0
  4  5  2  0
  4  6  1  0
  6  7  1  0
  7  8  1  0
  8  9  1  0
  8  3  1  0
  1 10  1  0
  1 11  1  0
  1 12  1  0
  2 13  1  0
  2 14  1  0
  3 15  1  0
  6 16  1  0
  6 17  1  0
  7 18  1  0
  7 19  1  0
  8 20  1  0
  9 21  1  0
  9 22  1  0
  9 23  1  0
M  END
