
     RDKit          3D

 25 25  0  0  0  0  0  0  0  0999 V2000
    3.1556   -0.8034   -0.1038 C   0  0  0  0  0  0  0  0  0  0  0  0
    2.0615    0.2045    0.2616 C   0  0  0  0  0  0  0  0  0  0  0  0
    0.7798   -0.5613    0.4085 C   0  0  0  0  0  0  0  0  0  0  0  0
    0.3621   -1.2469   -0.7316 O   0  0  0  0  0  0  0  0  0  0  0  0
   -0.9583   -0.8389   -0.6193 C   0  0  0  0  0  0  0  0  0  0  0  0
   -1.9007   -1.8569   -0.0259 C   0  0  0  0  0  0  0  0  0  0  0  0
   -0.4856    0.1816    0.4209 C   0  0  0  0  0  0  0  0  0  0  0  0
   -0.5562    1.5569   -0.1496 C   0  0  0  0  0  0  0  0  0  0  0  0
   -1.9505    2.1437   -0.0366 C   0  0  0  0  0  0  0  0  0  0  0  0
    4.1355   -0.2662   -0.0349 H   0  0  0  0  0  0  0  0  0  0  0  0
    3.1080   -1.6464    0.6009 H   0  0  0  0  0  0  0  0  0  0  0  0
    2.9663   -1.0800   -1.1539 H   0  0  0  0  0  0  0  0  0  0  0  0
    2.2848    0.6606    1.2478 H   0  0  0  0  0  0  0  0  0  0  0  0
    2.0622    0.9636   -0.5114 H   0  0  0  0  0  0  0  0  0  0  0  0
    0.8975   -1.2896    1.2417 H   0  0  0  0  0  0  0  0  0  0  0  0
   -1.3882   -0.3826   -1.5351 H   0  0  0  0  0  0  0  0  0  0  0  0
   -1.3967   -2.4999    0.7251 H   0  0  0  0  0  0  0  0  0  0  0  0
   -2.2841   -2.4910   -0.8414 H   0  0  0  0  0  0  0  0  0  0  0  0
   -2.7744   -1.3752    0.4531 H   0  0  0  0  0  0  0  0  0  0  0  0
   -1.0342    0.0841    1.3842 H   0  0  0  0  0  0  0  0  0  0  0  0
    0.1996    2.2593    0.2420 H   0  0  0  0  0  0  0  0  0  0  0  0
   -0.3722    1.4875   -1.2467 H   0  0  0  0  0  0  0  0  0  0  0  0
   -2.0018    2.7584    0.8794 H   0  0  0  0  0  0  0  0  0  0  0  0
   -2.6735    1.3136    0.0574 H   0  0  0  0  0  0  0  0  0  0  0  0
   -2.2364    2.7247   -0.9323 H   0  0  0  0  0  0  0  0  0  0  0  0
  1  2  1  0
  2  3  1  0
  3  4  1  0
  4  5  1  0
  5  6  1  0
  5  7  1  0
  7  8  1  0
  8  9  1  0
  7  3  1  0
  1 10  1  0
  1 11  1  0
  1 12  1  0
  2 13  1  0
  2 14  1  0
  3 15  1  0
  5 16  1  0
  6 17  1  0
  6 18  1  0
  6 19  1  0
  7 20  1  0
  8 21  1  0
  8 22  1  0
  9 23  1  0
  9 24  1  0
  9 25  1  0
M  END
