
     RDKit          3D

 25 25  0  0  0  0  0  0  0  0999 V2000
    2.8365    0.1358    0.0979 C   0  0  0  0  0  0  0  0  0  0  0  0
    1.4924    0.3979    0.6818 C   0  0  0  0  0  0  0  0  0  0  0  0
    0.3389    0.0363   -0.2238 C   0  0  0  0  0  0  0  0  0  0  0  0
   -1.0065    0.3205    0.4130 C   0  0  0  0  0  0  0  0  0  0  0  0
   -1.2137   -0.4500    1.6898 C   0  0  0  0  0  0  0  0  0  0  0  0
   -2.1445    0.1126   -0.5772 C   0  0  0  0  0  0  0  0  0  0  0  0
   -3.3607    0.3874    0.0610 O   0  0  0  0  0  0  0  0  0  0  0  0
    0.4559   -1.1512   -1.1263 C   0  0  0  0  0  0  0  0  0  0  0  0
    0.4921    0.2584   -1.6628 C   0  0  0  0  0  0  0  0  0  0  0  0
    3.0061   -0.8928   -0.2370 H   0  0  0  0  0  0  0  0  0  0  0  0
    3.5897    0.3464    0.8861 H   0  0  0  0  0  0  0  0  0  0  0  0
    3.0723    0.8375   -0.7376 H   0  0  0  0  0  0  0  0  0  0  0  0
    1.4187    1.4807    0.9064 H   0  0  0  0  0  0  0  0  0  0  0  0
    1.3894   -0.1552    1.6362 H   0  0  0  0  0  0  0  0  0  0  0  0
   -1.0865    1.4104    0.7055 H   0  0  0  0  0  0  0  0  0  0  0  0
   -2.2783   -0.7652    1.7746 H   0  0  0  0  0  0  0  0  0  0  0  0
   -0.9784    0.1593    2.5914 H   0  0  0  0  0  0  0  0  0  0  0  0
   -0.6055   -1.3620    1.7591 H   0  0  0  0  0  0  0  0  0  0  0  0
   -2.0455    0.9032   -1.3615 H   0  0  0  0  0  0  0  0  0  0  0  0
   -2.2100   -0.8993   -0.9639 H   0  0  0  0  0  0  0  0  0  0  0  0
   -3.2993    1.2145    0.6066 H   0  0  0  0  0  0  0  0  0  0  0  0
    1.4118   -1.7115   -1.2101 H   0  0  0  0  0  0  0  0  0  0  0  0
   -0.4216   -1.7874   -1.3613 H   0  0  0  0  0  0  0  0  0  0  0  0
   -0.3208    0.4873   -2.3593 H   0  0  0  0  0  0  0  0  0  0  0  0
    1.4674    0.6865   -1.9886 H   0  0  0  0  0  0  0  0  0  0  0  0
  1  2  1  0
  2  3  1  0
  3  4  1  0
  4  5  1  0
  4  6  1  0
  6  7  1  0
  3  8  1  0
  8  9  1  0
  9  3  1  0
  1 10  1  0
  1 11  1  0
  1 12  1  0
  2 13  1  0
  2 14  1  0
  4 15  1  0
  5 16  1  0
  5 17  1  0
  5 18  1  0
  6 19  1  0
  6 20  1  0
  7 21  1  0
  8 22  1  0
  8 23  1  0
  9 24  1  0
  9 25  1  0
M  END
