
     RDKit          3D

 23 23  0  0  0  0  0  0  0  0999 V2000
    3.0034   -0.4693   -0.3955 C   0  0  0  0  0  0  0  0  0  0  0  0
    1.7921   -0.2298    0.4672 C   0  0  0  0  0  0  0  0  0  0  0  0
    0.4979   -0.5372   -0.2436 C   0  0  0  0  0  0  0  0  0  0  0  0
    0.1906    0.1714   -1.4070 O   0  0  0  0  0  0  0  0  0  0  0  0
   -0.5810    0.4959   -0.2999 C   0  0  0  0  0  0  0  0  0  0  0  0
   -0.3307    1.8544    0.3248 C   0  0  0  0  0  0  0  0  0  0  0  0
   -1.9781    0.0031   -0.1716 C   0  0  0  0  0  0  0  0  0  0  0  0
   -2.0397   -1.4880   -0.1953 C   0  0  0  0  0  0  0  0  0  0  0  0
   -2.4836    0.5005    1.0512 O   0  0  0  0  0  0  0  0  0  0  0  0
    2.7917   -0.3894   -1.4804 H   0  0  0  0  0  0  0  0  0  0  0  0
    3.4700   -1.4536   -0.1714 H   0  0  0  0  0  0  0  0  0  0  0  0
    3.7780    0.2901   -0.1080 H   0  0  0  0  0  0  0  0  0  0  0  0
    1.8587   -0.9190    1.3300 H   0  0  0  0  0  0  0  0  0  0  0  0
    1.7985    0.8000    0.9032 H   0  0  0  0  0  0  0  0  0  0  0  0
    0.2852   -1.6065   -0.3298 H   0  0  0  0  0  0  0  0  0  0  0  0
   -0.4639    1.8662    1.4114 H   0  0  0  0  0  0  0  0  0  0  0  0
    0.6740    2.2566    0.0030 H   0  0  0  0  0  0  0  0  0  0  0  0
   -1.0720    2.5531   -0.1150 H   0  0  0  0  0  0  0  0  0  0  0  0
   -2.6506    0.4117   -0.9808 H   0  0  0  0  0  0  0  0  0  0  0  0
   -1.5593   -1.8647   -1.1210 H   0  0  0  0  0  0  0  0  0  0  0  0
   -3.1003   -1.8609   -0.1174 H   0  0  0  0  0  0  0  0  0  0  0  0
   -1.4572   -1.8733    0.6652 H   0  0  0  0  0  0  0  0  0  0  0  0
   -2.4238    1.4887    0.9807 H   0  0  0  0  0  0  0  0  0  0  0  0
  1  2  1  0
  2  3  1  0
  3  4  1  0
  4  5  1  0
  5  6  1  0
  5  7  1  0
  7  8  1  0
  7  9  1  0
  5  3  1  0
  1 10  1  0
  1 11  1  0
  1 12  1  0
  2 13  1  0
  2 14  1  0
  3 15  1  0
  6 16  1  0
  6 17  1  0
  6 18  1  0
  7 19  1  0
  8 20  1  0
  8 21  1  0
  8 22  1  0
  9 23  1  0
M  END
