
     RDKit          3D

 19 19  0  0  0  0  0  0  0  0999 V2000
   -2.2244    1.6249    0.0401 C   0  0  0  0  0  0  0  0  0  0  0  0
   -1.8654    0.2090   -0.3670 C   0  0  0  0  0  0  0  0  0  0  0  0
   -1.5705   -0.5655    0.8731 C   0  0  0  0  0  0  0  0  0  0  0  0
   -1.2144   -1.9623    0.5011 O   0  0  0  0  0  0  0  0  0  0  0  0
   -0.3138   -1.0875    1.2673 C   0  0  0  0  0  0  0  0  0  0  0  0
    0.8772   -0.7380    0.4587 C   0  0  0  0  0  0  0  0  0  0  0  0
    1.8493   -0.4466   -0.1941 C   0  0  0  0  0  0  0  0  0  0  0  0
    3.0212   -0.0688   -0.9891 C   0  0  0  0  0  0  0  0  0  0  0  0
    3.9388   -1.1184   -1.0631 O   0  0  0  0  0  0  0  0  0  0  0  0
   -3.2914    1.6990    0.3618 H   0  0  0  0  0  0  0  0  0  0  0  0
   -1.5421    1.9971    0.8492 H   0  0  0  0  0  0  0  0  0  0  0  0
   -2.1091    2.3362   -0.8140 H   0  0  0  0  0  0  0  0  0  0  0  0
   -1.0504    0.2643   -1.0821 H   0  0  0  0  0  0  0  0  0  0  0  0
   -2.8010   -0.2238   -0.8155 H   0  0  0  0  0  0  0  0  0  0  0  0
   -2.4153   -0.5636    1.6112 H   0  0  0  0  0  0  0  0  0  0  0  0
   -0.1490   -1.4020    2.3046 H   0  0  0  0  0  0  0  0  0  0  0  0
    2.7451    0.1729   -2.0423 H   0  0  0  0  0  0  0  0  0  0  0  0
    3.4588    0.8269   -0.5072 H   0  0  0  0  0  0  0  0  0  0  0  0
    4.6563   -0.9537   -0.3927 H   0  0  0  0  0  0  0  0  0  0  0  0
  1  2  1  0
  2  3  1  0
  3  4  1  0
  4  5  1  0
  5  6  1  0
  6  7  3  0
  7  8  1  0
  8  9  1  0
  5  3  1  0
  1 10  1  0
  1 11  1  0
  1 12  1  0
  2 13  1  0
  2 14  1  0
  3 15  1  0
  5 16  1  0
  8 17  1  0
  8 18  1  0
  9 19  1  0
M  END
