
     RDKit          3D

 21 22  0  0  0  0  0  0  0  0999 V2000
   -1.9832    0.8712    0.1872 C   0  0  0  0  0  0  0  0  0  0  0  0
   -1.5830   -0.5251    0.4206 C   0  0  0  0  0  0  0  0  0  0  0  0
   -0.1849   -0.9418    0.1937 C   0  0  0  0  0  0  0  0  0  0  0  0
   -0.0415   -2.3443    0.4901 O   0  0  0  0  0  0  0  0  0  0  0  0
    0.9741   -0.1770    0.7062 C   0  0  0  0  0  0  0  0  0  0  0  0
    1.1985    1.2719    0.4215 C   0  0  0  0  0  0  0  0  0  0  0  0
    1.1800    0.9352   -1.0424 C   0  0  0  0  0  0  0  0  0  0  0  0
    0.7551   -0.4786   -0.8082 C   0  0  0  0  0  0  0  0  0  0  0  0
    1.6983   -1.4214   -1.3063 O   0  0  0  0  0  0  0  0  0  0  0  0
   -1.8300    1.4818    1.1168 H   0  0  0  0  0  0  0  0  0  0  0  0
   -3.1202    0.8732    0.1005 H   0  0  0  0  0  0  0  0  0  0  0  0
   -1.6495    1.3404   -0.7330 H   0  0  0  0  0  0  0  0  0  0  0  0
   -2.2781   -1.1790   -0.1947 H   0  0  0  0  0  0  0  0  0  0  0  0
   -1.8706   -0.7976    1.4832 H   0  0  0  0  0  0  0  0  0  0  0  0
    0.2239   -2.4497    1.4301 H   0  0  0  0  0  0  0  0  0  0  0  0
    1.8226   -0.6957    1.2042 H   0  0  0  0  0  0  0  0  0  0  0  0
    0.4568    1.9838    0.7730 H   0  0  0  0  0  0  0  0  0  0  0  0
    2.2316    1.6059    0.7155 H   0  0  0  0  0  0  0  0  0  0  0  0
    2.1949    1.0233   -1.5389 H   0  0  0  0  0  0  0  0  0  0  0  0
    0.5141    1.6027   -1.6042 H   0  0  0  0  0  0  0  0  0  0  0  0
    1.2912   -1.9792   -2.0151 H   0  0  0  0  0  0  0  0  0  0  0  0
  1  2  1  0
  2  3  1  0
  3  4  1  0
  3  5  1  0
  5  6  1  0
  6  7  1  0
  7  8  1  0
  8  9  1  0
  8  3  1  0
  8  5  1  0
  1 10  1  0
  1 11  1  0
  1 12  1  0
  2 13  1  0
  2 14  1  0
  4 15  1  0
  5 16  1  0
  6 17  1  0
  6 18  1  0
  7 19  1  0
  7 20  1  0
  9 21  1  0
M  END
