
     RDKit          3D

 25 25  0  0  0  0  0  0  0  0999 V2000
    2.8066    0.8896    0.1597 C   0  0  0  0  0  0  0  0  0  0  0  0
    1.8141   -0.1645    0.5409 C   0  0  0  0  0  0  0  0  0  0  0  0
    0.6760   -0.2937   -0.4506 C   0  0  0  0  0  0  0  0  0  0  0  0
   -0.0782    0.9743   -0.5726 C   0  0  0  0  0  0  0  0  0  0  0  0
   -1.2430    0.9028    0.0452 C   0  0  0  0  0  0  0  0  0  0  0  0
   -2.2303    1.9966    0.1103 C   0  0  0  0  0  0  0  0  0  0  0  0
   -1.3892   -0.4386    0.6519 C   0  0  0  0  0  0  0  0  0  0  0  0
   -0.2967   -1.2997    0.1207 C   0  0  0  0  0  0  0  0  0  0  0  0
   -0.7492   -2.3124   -0.8941 C   0  0  0  0  0  0  0  0  0  0  0  0
    3.3365    1.2300    1.0968 H   0  0  0  0  0  0  0  0  0  0  0  0
    2.3407    1.7972   -0.2721 H   0  0  0  0  0  0  0  0  0  0  0  0
    3.5805    0.4374   -0.4691 H   0  0  0  0  0  0  0  0  0  0  0  0
    1.3519    0.1296    1.5098 H   0  0  0  0  0  0  0  0  0  0  0  0
    2.3187   -1.1328    0.6384 H   0  0  0  0  0  0  0  0  0  0  0  0
    1.0246   -0.5874   -1.4427 H   0  0  0  0  0  0  0  0  0  0  0  0
    0.3115    1.8362   -1.1120 H   0  0  0  0  0  0  0  0  0  0  0  0
   -3.0789    1.7824    0.7818 H   0  0  0  0  0  0  0  0  0  0  0  0
   -1.7663    2.9396    0.5042 H   0  0  0  0  0  0  0  0  0  0  0  0
   -2.6780    2.1786   -0.9008 H   0  0  0  0  0  0  0  0  0  0  0  0
   -2.4006   -0.8652    0.5171 H   0  0  0  0  0  0  0  0  0  0  0  0
   -1.2567   -0.2914    1.7641 H   0  0  0  0  0  0  0  0  0  0  0  0
    0.1411   -1.8745    0.9737 H   0  0  0  0  0  0  0  0  0  0  0  0
   -0.9806   -1.8899   -1.8740 H   0  0  0  0  0  0  0  0  0  0  0  0
    0.0596   -3.0859   -0.9880 H   0  0  0  0  0  0  0  0  0  0  0  0
   -1.6144   -2.8583   -0.4388 H   0  0  0  0  0  0  0  0  0  0  0  0
  1  2  1  0
  2  3  1  0
  3  4  1  0
  4  5  2  0
  5  6  1  0
  5  7  1  0
  7  8  1  0
  8  9  1  0
  8  3  1  0
  1 10  1  0
  1 11  1  0
  1 12  1  0
  2 13  1  0
  2 14  1  0
  3 15  1  0
  4 16  1  0
  6 17  1  0
  6 18  1  0
  6 19  1  0
  7 20  1  0
  7 21  1  0
  8 22  1  0
  9 23  1  0
  9 24  1  0
  9 25  1  0
M  END
