
     RDKit          3D

 21 23  0  0  0  0  0  0  0  0999 V2000
    2.5886   -0.3660    0.1780 C   0  0  0  0  0  0  0  0  0  0  0  0
    1.5627    0.4448   -0.5708 C   0  0  0  0  0  0  0  0  0  0  0  0
    0.1742    0.2231   -0.1502 C   0  0  0  0  0  0  0  0  0  0  0  0
   -0.4562   -1.1717   -0.2492 C   0  0  0  0  0  0  0  0  0  0  0  0
   -1.7913   -0.8266    0.4037 C   0  0  0  0  0  0  0  0  0  0  0  0
   -2.2081    0.3523   -0.4646 C   0  0  0  0  0  0  0  0  0  0  0  0
   -0.9284    1.1781   -0.2955 C   0  0  0  0  0  0  0  0  0  0  0  0
   -0.4572    0.7617    1.0546 C   0  0  0  0  0  0  0  0  0  0  0  0
   -1.3792   -0.1924    1.5472 O   0  0  0  0  0  0  0  0  0  0  0  0
    2.4608   -1.4369   -0.0583 H   0  0  0  0  0  0  0  0  0  0  0  0
    2.5903   -0.1500    1.2670 H   0  0  0  0  0  0  0  0  0  0  0  0
    3.5883   -0.0703   -0.2029 H   0  0  0  0  0  0  0  0  0  0  0  0
    1.6852    0.1909   -1.6523 H   0  0  0  0  0  0  0  0  0  0  0  0
    1.8176    1.5144   -0.4247 H   0  0  0  0  0  0  0  0  0  0  0  0
    0.1018   -1.8944    0.3442 H   0  0  0  0  0  0  0  0  0  0  0  0
   -0.5766   -1.4698   -1.3036 H   0  0  0  0  0  0  0  0  0  0  0  0
   -2.4879   -1.6206    0.4774 H   0  0  0  0  0  0  0  0  0  0  0  0
   -2.3587    0.0375   -1.5092 H   0  0  0  0  0  0  0  0  0  0  0  0
   -3.0718    0.8643   -0.0183 H   0  0  0  0  0  0  0  0  0  0  0  0
   -0.8645    2.1770   -0.6801 H   0  0  0  0  0  0  0  0  0  0  0  0
    0.0103    1.4547    1.7558 H   0  0  0  0  0  0  0  0  0  0  0  0
  1  2  1  0
  2  3  1  0
  3  4  1  0
  4  5  1  0
  5  6  1  0
  6  7  1  0
  7  8  1  0
  8  9  1  0
  7  3  1  0
  8  3  1  0
  9  5  1  0
  1 10  1  0
  1 11  1  0
  1 12  1  0
  2 13  1  0
  2 14  1  0
  4 15  1  0
  4 16  1  0
  5 17  1  0
  6 18  1  0
  6 19  1  0
  7 20  1  0
  8 21  1  0
M  END
