
     RDKit          3D

 22 22  0  0  0  0  0  0  0  0999 V2000
    2.3108   -1.2709   -0.2381 C   0  0  0  0  0  0  0  0  0  0  0  0
    1.5993   -0.0377    0.3378 C   0  0  0  0  0  0  0  0  0  0  0  0
    0.3720    0.2272   -0.4545 C   0  0  0  0  0  0  0  0  0  0  0  0
   -0.5552    1.3296   -0.1878 C   0  0  0  0  0  0  0  0  0  0  0  0
   -0.4341    2.2525    0.9832 C   0  0  0  0  0  0  0  0  0  0  0  0
   -0.9358   -0.0958    0.1996 C   0  0  0  0  0  0  0  0  0  0  0  0
   -1.9766   -0.8100   -0.6257 C   0  0  0  0  0  0  0  0  0  0  0  0
   -1.3944   -2.0345   -1.0198 O   0  0  0  0  0  0  0  0  0  0  0  0
    1.6079   -2.1282   -0.2758 H   0  0  0  0  0  0  0  0  0  0  0  0
    2.6707   -1.0694   -1.2755 H   0  0  0  0  0  0  0  0  0  0  0  0
    3.1350   -1.5648    0.4445 H   0  0  0  0  0  0  0  0  0  0  0  0
    1.3281   -0.3228    1.3755 H   0  0  0  0  0  0  0  0  0  0  0  0
    2.3051    0.8093    0.3881 H   0  0  0  0  0  0  0  0  0  0  0  0
    0.4642   -0.0840   -1.5378 H   0  0  0  0  0  0  0  0  0  0  0  0
   -1.1264    1.7597   -1.0400 H   0  0  0  0  0  0  0  0  0  0  0  0
   -0.1100    1.6822    1.8570 H   0  0  0  0  0  0  0  0  0  0  0  0
   -1.4754    2.6155    1.2178 H   0  0  0  0  0  0  0  0  0  0  0  0
    0.1550    3.1633    0.7841 H   0  0  0  0  0  0  0  0  0  0  0  0
   -0.9326   -0.3774    1.2642 H   0  0  0  0  0  0  0  0  0  0  0  0
   -2.2492   -0.1911   -1.4901 H   0  0  0  0  0  0  0  0  0  0  0  0
   -2.8383   -1.0489    0.0033 H   0  0  0  0  0  0  0  0  0  0  0  0
   -1.9202   -2.8040   -0.7099 H   0  0  0  0  0  0  0  0  0  0  0  0
  1  2  1  0
  2  3  1  0
  3  4  1  0
  4  5  1  0
  4  6  1  0
  6  7  1  0
  7  8  1  0
  6  3  1  0
  1  9  1  0
  1 10  1  0
  1 11  1  0
  2 12  1  0
  2 13  1  0
  3 14  1  0
  4 15  1  0
  5 16  1  0
  5 17  1  0
  5 18  1  0
  6 19  1  0
  7 20  1  0
  7 21  1  0
  8 22  1  0
M  END
