
     RDKit          3D

 19 19  0  0  0  0  0  0  0  0999 V2000
   -2.6808   -0.1978    0.1872 C   0  0  0  0  0  0  0  0  0  0  0  0
   -1.4673    0.3669    0.9319 C   0  0  0  0  0  0  0  0  0  0  0  0
   -0.2161    0.0542    0.1745 C   0  0  0  0  0  0  0  0  0  0  0  0
    0.6105    0.9824   -0.2929 C   0  0  0  0  0  0  0  0  0  0  0  0
    1.7221    0.3014   -0.9775 C   0  0  0  0  0  0  0  0  0  0  0  0
    2.8803    0.2594   -0.0741 C   0  0  0  0  0  0  0  0  0  0  0  0
    3.4381    1.2869    0.2401 O   0  0  0  0  0  0  0  0  0  0  0  0
    1.1923   -0.9556   -1.2435 O   0  0  0  0  0  0  0  0  0  0  0  0
    0.3336   -1.2687   -0.1922 C   0  0  0  0  0  0  0  0  0  0  0  0
   -2.8653    0.4955   -0.6589 H   0  0  0  0  0  0  0  0  0  0  0  0
   -2.4856   -1.2000   -0.1916 H   0  0  0  0  0  0  0  0  0  0  0  0
   -3.5342   -0.1284    0.8794 H   0  0  0  0  0  0  0  0  0  0  0  0
   -1.4350   -0.0076    1.9719 H   0  0  0  0  0  0  0  0  0  0  0  0
   -1.6363    1.4604    0.9821 H   0  0  0  0  0  0  0  0  0  0  0  0
    0.4949    2.0544   -0.1927 H   0  0  0  0  0  0  0  0  0  0  0  0
    1.9314    0.8599   -1.9182 H   0  0  0  0  0  0  0  0  0  0  0  0
    3.2419   -0.6697    0.3136 H   0  0  0  0  0  0  0  0  0  0  0  0
    0.9365   -1.7237    0.6054 H   0  0  0  0  0  0  0  0  0  0  0  0
   -0.4609   -1.9700   -0.5446 H   0  0  0  0  0  0  0  0  0  0  0  0
  1  2  1  0
  2  3  1  0
  3  4  2  0
  4  5  1  0
  5  6  1  0
  6  7  2  0
  5  8  1  0
  8  9  1  0
  9  3  1  0
  1 10  1  0
  1 11  1  0
  1 12  1  0
  2 13  1  0
  2 14  1  0
  4 15  1  0
  5 16  1  0
  6 17  1  0
  9 18  1  0
  9 19  1  0
M  END
