
     RDKit          3D

 21 22  0  0  0  0  0  0  0  0999 V2000
   -2.8716   -0.4745   -0.0641 C   0  0  0  0  0  0  0  0  0  0  0  0
   -1.6505   -0.2669    0.7793 C   0  0  0  0  0  0  0  0  0  0  0  0
   -0.6382    0.5523    0.0234 C   0  0  0  0  0  0  0  0  0  0  0  0
   -1.0853    1.8240   -0.3546 O   0  0  0  0  0  0  0  0  0  0  0  0
    0.3875   -0.0507   -0.6770 C   0  0  0  0  0  0  0  0  0  0  0  0
    1.3113    0.5843   -1.4990 O   0  0  0  0  0  0  0  0  0  0  0  0
    2.0287    0.5438   -0.3305 C   0  0  0  0  0  0  0  0  0  0  0  0
    2.8615   -0.7312   -0.1428 C   0  0  0  0  0  0  0  0  0  0  0  0
    0.8310    0.4690    0.5517 C   0  0  0  0  0  0  0  0  0  0  0  0
   -2.5610   -0.4743   -1.1215 H   0  0  0  0  0  0  0  0  0  0  0  0
   -3.6522    0.2854    0.1448 H   0  0  0  0  0  0  0  0  0  0  0  0
   -3.3025   -1.4806    0.1346 H   0  0  0  0  0  0  0  0  0  0  0  0
   -1.1848   -1.2728    0.9633 H   0  0  0  0  0  0  0  0  0  0  0  0
   -1.9235    0.1390    1.7508 H   0  0  0  0  0  0  0  0  0  0  0  0
   -1.7081    2.1231    0.3553 H   0  0  0  0  0  0  0  0  0  0  0  0
    0.4192   -1.1716   -0.8153 H   0  0  0  0  0  0  0  0  0  0  0  0
    2.6909    1.4089   -0.2434 H   0  0  0  0  0  0  0  0  0  0  0  0
    3.9405   -0.5165   -0.1171 H   0  0  0  0  0  0  0  0  0  0  0  0
    2.6206   -1.2207    0.8338 H   0  0  0  0  0  0  0  0  0  0  0  0
    2.6402   -1.4652   -0.9497 H   0  0  0  0  0  0  0  0  0  0  0  0
    0.8465    1.1953    1.2967 H   0  0  0  0  0  0  0  0  0  0  0  0
  1  2  1  0
  2  3  1  0
  3  4  1  0
  3  5  1  0
  5  6  1  0
  6  7  1  0
  7  8  1  0
  7  9  1  0
  9  3  1  0
  9  5  1  0
  1 10  1  0
  1 11  1  0
  1 12  1  0
  2 13  1  0
  2 14  1  0
  4 15  1  0
  5 16  1  0
  7 17  1  0
  8 18  1  0
  8 19  1  0
  8 20  1  0
  9 21  1  0
M  END
