
     RDKit          3D

 21 21  0  0  0  0  0  0  0  0999 V2000
    2.6763   -0.4693   -0.2732 C   0  0  0  0  0  0  0  0  0  0  0  0
    1.8393    0.6726    0.2948 C   0  0  0  0  0  0  0  0  0  0  0  0
    0.5622    0.0612    0.8042 C   0  0  0  0  0  0  0  0  0  0  0  0
   -0.1473   -0.6196   -0.3675 C   0  0  0  0  0  0  0  0  0  0  0  0
   -1.3297    0.1416    0.1579 C   0  0  0  0  0  0  0  0  0  0  0  0
   -2.0647    0.9930   -0.8435 C   0  0  0  0  0  0  0  0  0  0  0  0
   -2.2450   -0.7892    0.8793 C   0  0  0  0  0  0  0  0  0  0  0  0
   -2.9844   -1.4696    0.1661 O   0  0  0  0  0  0  0  0  0  0  0  0
   -0.5071    0.8978    0.9680 O   0  0  0  0  0  0  0  0  0  0  0  0
    1.9613   -1.1831   -0.7305 H   0  0  0  0  0  0  0  0  0  0  0  0
    3.1069   -0.9907    0.6266 H   0  0  0  0  0  0  0  0  0  0  0  0
    3.4511   -0.1241   -0.9639 H   0  0  0  0  0  0  0  0  0  0  0  0
    1.6138    1.3352   -0.5865 H   0  0  0  0  0  0  0  0  0  0  0  0
    2.4075    1.2220    1.0590 H   0  0  0  0  0  0  0  0  0  0  0  0
    0.7469   -0.5998    1.6704 H   0  0  0  0  0  0  0  0  0  0  0  0
    0.1494   -0.2480   -1.3613 H   0  0  0  0  0  0  0  0  0  0  0  0
   -0.1389   -1.7006   -0.2052 H   0  0  0  0  0  0  0  0  0  0  0  0
   -3.1594    0.8973   -0.6719 H   0  0  0  0  0  0  0  0  0  0  0  0
   -1.7916    0.7914   -1.8858 H   0  0  0  0  0  0  0  0  0  0  0  0
   -1.8446    2.0851   -0.6705 H   0  0  0  0  0  0  0  0  0  0  0  0
   -2.3021   -0.9031    1.9336 H   0  0  0  0  0  0  0  0  0  0  0  0
  1  2  1  0
  2  3  1  0
  3  4  1  0
  4  5  1  0
  5  6  1  0
  5  7  1  0
  7  8  2  0
  5  9  1  0
  9  3  1  0
  1 10  1  0
  1 11  1  0
  1 12  1  0
  2 13  1  0
  2 14  1  0
  3 15  1  0
  4 16  1  0
  4 17  1  0
  6 18  1  0
  6 19  1  0
  6 20  1  0
  7 21  1  0
M  END
