
     RDKit          3D

 25 25  0  0  0  0  0  0  0  0999 V2000
   -2.7216   -0.6188   -0.8998 C   0  0  0  0  0  0  0  0  0  0  0  0
   -1.9530    0.2220    0.1063 C   0  0  0  0  0  0  0  0  0  0  0  0
   -0.5470    0.3864   -0.3367 C   0  0  0  0  0  0  0  0  0  0  0  0
    0.4655    1.1460    0.4112 C   0  0  0  0  0  0  0  0  0  0  0  0
    0.0754    1.9291    1.6682 C   0  0  0  0  0  0  0  0  0  0  0  0
    0.4910   -0.3281    0.5244 C   0  0  0  0  0  0  0  0  0  0  0  0
    1.4528   -1.1734   -0.2441 C   0  0  0  0  0  0  0  0  0  0  0  0
    2.2621   -0.4046   -1.2508 C   0  0  0  0  0  0  0  0  0  0  0  0
    2.3105   -1.8301    0.6531 O   0  0  0  0  0  0  0  0  0  0  0  0
   -3.6821   -0.0921   -1.1081 H   0  0  0  0  0  0  0  0  0  0  0  0
   -2.9010   -1.6486   -0.5152 H   0  0  0  0  0  0  0  0  0  0  0  0
   -2.1294   -0.6516   -1.8444 H   0  0  0  0  0  0  0  0  0  0  0  0
   -2.4749    1.1812    0.3075 H   0  0  0  0  0  0  0  0  0  0  0  0
   -1.9694   -0.3348    1.0620 H   0  0  0  0  0  0  0  0  0  0  0  0
   -0.4103    0.3513   -1.4408 H   0  0  0  0  0  0  0  0  0  0  0  0
    1.2666    1.6605   -0.1590 H   0  0  0  0  0  0  0  0  0  0  0  0
   -0.5019    1.3210    2.3683 H   0  0  0  0  0  0  0  0  0  0  0  0
    1.0410    2.1951    2.1574 H   0  0  0  0  0  0  0  0  0  0  0  0
   -0.4262    2.8601    1.3854 H   0  0  0  0  0  0  0  0  0  0  0  0
    0.1770   -0.7523    1.4915 H   0  0  0  0  0  0  0  0  0  0  0  0
    0.9295   -1.9976   -0.8120 H   0  0  0  0  0  0  0  0  0  0  0  0
    1.5995    0.2698   -1.7931 H   0  0  0  0  0  0  0  0  0  0  0  0
    3.0664    0.1205   -0.7006 H   0  0  0  0  0  0  0  0  0  0  0  0
    2.6768   -1.1508   -1.9883 H   0  0  0  0  0  0  0  0  0  0  0  0
    1.9029   -2.6600    0.9577 H   0  0  0  0  0  0  0  0  0  0  0  0
  1  2  1  0
  2  3  1  0
  3  4  1  0
  4  5  1  0
  4  6  1  0
  6  7  1  0
  7  8  1  0
  7  9  1  0
  6  3  1  0
  1 10  1  0
  1 11  1  0
  1 12  1  0
  2 13  1  0
  2 14  1  0
  3 15  1  0
  4 16  1  0
  5 17  1  0
  5 18  1  0
  5 19  1  0
  6 20  1  0
  7 21  1  0
  8 22  1  0
  8 23  1  0
  8 24  1  0
  9 25  1  0
M  END
