
     RDKit          3D

 21 21  0  0  0  0  0  0  0  0999 V2000
    2.5807   -0.0731    0.8589 C   0  0  0  0  0  0  0  0  0  0  0  0
    1.5915   -0.0443   -0.2555 C   0  0  0  0  0  0  0  0  0  0  0  0
    0.3230    0.6784    0.0542 C   0  0  0  0  0  0  0  0  0  0  0  0
    0.5226    2.0180    0.3839 O   0  0  0  0  0  0  0  0  0  0  0  0
   -0.6692   -0.0528    0.9194 C   0  0  0  0  0  0  0  0  0  0  0  0
   -1.2036   -0.6429   -0.3809 C   0  0  0  0  0  0  0  0  0  0  0  0
   -2.6871   -0.8134   -0.4401 C   0  0  0  0  0  0  0  0  0  0  0  0
   -0.6467    0.5324   -1.0768 C   0  0  0  0  0  0  0  0  0  0  0  0
   -0.9189    1.0856   -2.1269 O   0  0  0  0  0  0  0  0  0  0  0  0
    2.8240    0.9363    1.2515 H   0  0  0  0  0  0  0  0  0  0  0  0
    3.5398   -0.4716    0.4486 H   0  0  0  0  0  0  0  0  0  0  0  0
    2.3058   -0.7468    1.6908 H   0  0  0  0  0  0  0  0  0  0  0  0
    1.3770   -1.0694   -0.5765 H   0  0  0  0  0  0  0  0  0  0  0  0
    2.0769    0.4725   -1.1230 H   0  0  0  0  0  0  0  0  0  0  0  0
    0.5482    2.5566   -0.4354 H   0  0  0  0  0  0  0  0  0  0  0  0
   -0.2825   -0.8160    1.5886 H   0  0  0  0  0  0  0  0  0  0  0  0
   -1.3959    0.6765    1.3513 H   0  0  0  0  0  0  0  0  0  0  0  0
   -0.6491   -1.5571   -0.6843 H   0  0  0  0  0  0  0  0  0  0  0  0
   -3.2323   -0.1300    0.2563 H   0  0  0  0  0  0  0  0  0  0  0  0
   -3.0637   -0.6536   -1.4893 H   0  0  0  0  0  0  0  0  0  0  0  0
   -2.9406   -1.8852   -0.2147 H   0  0  0  0  0  0  0  0  0  0  0  0
  1  2  1  0
  2  3  1  0
  3  4  1  0
  3  5  1  0
  5  6  1  0
  6  7  1  0
  6  8  1  0
  8  9  2  0
  8  3  1  0
  1 10  1  0
  1 11  1  0
  1 12  1  0
  2 13  1  0
  2 14  1  0
  4 15  1  0
  5 16  1  0
  5 17  1  0
  6 18  1  0
  7 19  1  0
  7 20  1  0
  7 21  1  0
M  END
