
     RDKit          3D

 25 25  0  0  0  0  0  0  0  0999 V2000
    2.0594   -0.5155    1.7168 C   0  0  0  0  0  0  0  0  0  0  0  0
    1.9480   -0.8158    0.2502 C   0  0  0  0  0  0  0  0  0  0  0  0
    0.7670   -0.0817   -0.3869 C   0  0  0  0  0  0  0  0  0  0  0  0
   -0.5440   -0.4180    0.1870 C   0  0  0  0  0  0  0  0  0  0  0  0
   -1.7574    0.2598   -0.3785 C   0  0  0  0  0  0  0  0  0  0  0  0
   -2.9250   -0.3534    0.4370 C   0  0  0  0  0  0  0  0  0  0  0  0
   -1.7653    1.6423   -0.0606 O   0  0  0  0  0  0  0  0  0  0  0  0
    1.0170    1.3256   -0.8778 C   0  0  0  0  0  0  0  0  0  0  0  0
    0.9622    0.1818   -1.8340 C   0  0  0  0  0  0  0  0  0  0  0  0
    1.9133    0.5421    1.9630 H   0  0  0  0  0  0  0  0  0  0  0  0
    3.0589   -0.8572    2.0572 H   0  0  0  0  0  0  0  0  0  0  0  0
    1.3264   -1.1832    2.2519 H   0  0  0  0  0  0  0  0  0  0  0  0
    2.8883   -0.5381   -0.2609 H   0  0  0  0  0  0  0  0  0  0  0  0
    1.7818   -1.8865    0.0800 H   0  0  0  0  0  0  0  0  0  0  0  0
   -0.5706   -0.1880    1.3004 H   0  0  0  0  0  0  0  0  0  0  0  0
   -0.7201   -1.5391    0.1815 H   0  0  0  0  0  0  0  0  0  0  0  0
   -1.9053    0.1424   -1.4514 H   0  0  0  0  0  0  0  0  0  0  0  0
   -3.8837   -0.1421   -0.0283 H   0  0  0  0  0  0  0  0  0  0  0  0
   -2.7249   -1.4460    0.4567 H   0  0  0  0  0  0  0  0  0  0  0  0
   -2.8070    0.0258    1.4677 H   0  0  0  0  0  0  0  0  0  0  0  0
   -2.3670    2.1399   -0.6348 H   0  0  0  0  0  0  0  0  0  0  0  0
    2.0400    1.7035   -0.6197 H   0  0  0  0  0  0  0  0  0  0  0  0
    0.2110    2.0541   -1.0131 H   0  0  0  0  0  0  0  0  0  0  0  0
    0.0814    0.0380   -2.4865 H   0  0  0  0  0  0  0  0  0  0  0  0
    1.9155   -0.0907   -2.3170 H   0  0  0  0  0  0  0  0  0  0  0  0
  1  2  1  0
  2  3  1  0
  3  4  1  0
  4  5  1  0
  5  6  1  0
  5  7  1  0
  3  8  1  0
  8  9  1  0
  9  3  1  0
  1 10  1  0
  1 11  1  0
  1 12  1  0
  2 13  1  0
  2 14  1  0
  4 15  1  0
  4 16  1  0
  5 17  1  0
  6 18  1  0
  6 19  1  0
  6 20  1  0
  7 21  1  0
  8 22  1  0
  8 23  1  0
  9 24  1  0
  9 25  1  0
M  END
