
     RDKit          3D

 25 26  0  0  0  0  0  0  0  0999 V2000
   -3.0888    0.3891   -0.2964 C   0  0  0  0  0  0  0  0  0  0  0  0
   -2.0083    0.0064    0.6556 C   0  0  0  0  0  0  0  0  0  0  0  0
   -0.8913   -0.7697    0.0256 C   0  0  0  0  0  0  0  0  0  0  0  0
    0.1449   -1.0922    1.1246 C   0  0  0  0  0  0  0  0  0  0  0  0
    1.3804   -0.7286    0.3865 C   0  0  0  0  0  0  0  0  0  0  0  0
    2.1865    0.4168    0.2735 C   0  0  0  0  0  0  0  0  0  0  0  0
    3.1499    0.5614   -0.9151 C   0  0  0  0  0  0  0  0  0  0  0  0
    0.8376    0.7073   -0.0077 C   0  0  0  0  0  0  0  0  0  0  0  0
   -0.1685    0.1686   -0.9339 C   0  0  0  0  0  0  0  0  0  0  0  0
   -4.0588    0.5462    0.2306 H   0  0  0  0  0  0  0  0  0  0  0  0
   -2.8809    1.3641   -0.8111 H   0  0  0  0  0  0  0  0  0  0  0  0
   -3.2667   -0.3915   -1.0478 H   0  0  0  0  0  0  0  0  0  0  0  0
   -2.5015   -0.6044    1.4698 H   0  0  0  0  0  0  0  0  0  0  0  0
   -1.6675    0.9241    1.1727 H   0  0  0  0  0  0  0  0  0  0  0  0
   -1.2236   -1.6892   -0.4759 H   0  0  0  0  0  0  0  0  0  0  0  0
    0.1152   -2.1875    1.3258 H   0  0  0  0  0  0  0  0  0  0  0  0
   -0.0491   -0.5376    2.0395 H   0  0  0  0  0  0  0  0  0  0  0  0
    1.4860   -1.4561   -0.4792 H   0  0  0  0  0  0  0  0  0  0  0  0
    2.6756    0.8207    1.1882 H   0  0  0  0  0  0  0  0  0  0  0  0
    4.1940    0.5256   -0.6084 H   0  0  0  0  0  0  0  0  0  0  0  0
    2.9805    1.5435   -1.4246 H   0  0  0  0  0  0  0  0  0  0  0  0
    2.9126   -0.2189   -1.6838 H   0  0  0  0  0  0  0  0  0  0  0  0
    0.3010    1.2572    0.8290 H   0  0  0  0  0  0  0  0  0  0  0  0
    0.3069   -0.4683   -1.7381 H   0  0  0  0  0  0  0  0  0  0  0  0
   -0.8663    0.9130   -1.3643 H   0  0  0  0  0  0  0  0  0  0  0  0
  1  2  1  0
  2  3  1  0
  3  4  1  0
  4  5  1  0
  5  6  1  0
  6  7  1  0
  6  8  1  0
  8  9  1  0
  9  3  1  0
  8  5  1  0
  1 10  1  0
  1 11  1  0
  1 12  1  0
  2 13  1  0
  2 14  1  0
  3 15  1  0
  4 16  1  0
  4 17  1  0
  5 18  1  0
  6 19  1  0
  7 20  1  0
  7 21  1  0
  7 22  1  0
  8 23  1  0
  9 24  1  0
  9 25  1  0
M  END
