
     RDKit          3D

 21 21  0  0  0  0  0  0  0  0999 V2000
    2.2040    0.6428   -0.1856 C   0  0  0  0  0  0  0  0  0  0  0  0
    1.2894   -0.1080    0.7595 C   0  0  0  0  0  0  0  0  0  0  0  0
    0.1546   -0.6502   -0.0122 C   0  0  0  0  0  0  0  0  0  0  0  0
   -0.8308   -1.4148    0.7847 C   0  0  0  0  0  0  0  0  0  0  0  0
   -0.6660   -1.8437    1.8969 O   0  0  0  0  0  0  0  0  0  0  0  0
   -1.9781   -1.4720   -0.1510 C   0  0  0  0  0  0  0  0  0  0  0  0
   -2.0024   -0.2254   -0.7172 O   0  0  0  0  0  0  0  0  0  0  0  0
   -0.7137    0.3032   -0.7253 C   0  0  0  0  0  0  0  0  0  0  0  0
   -0.7914    1.6798   -0.1339 C   0  0  0  0  0  0  0  0  0  0  0  0
    2.8800    1.2632    0.4654 H   0  0  0  0  0  0  0  0  0  0  0  0
    1.6605    1.2471   -0.9285 H   0  0  0  0  0  0  0  0  0  0  0  0
    2.7786   -0.1180   -0.7592 H   0  0  0  0  0  0  0  0  0  0  0  0
    1.8967   -0.9835    1.1236 H   0  0  0  0  0  0  0  0  0  0  0  0
    1.0257    0.4609    1.6586 H   0  0  0  0  0  0  0  0  0  0  0  0
    0.5726   -1.3836   -0.7618 H   0  0  0  0  0  0  0  0  0  0  0  0
   -2.8842   -1.7236    0.4260 H   0  0  0  0  0  0  0  0  0  0  0  0
   -1.7303   -2.2617   -0.9045 H   0  0  0  0  0  0  0  0  0  0  0  0
   -0.4005    0.3606   -1.7948 H   0  0  0  0  0  0  0  0  0  0  0  0
   -1.8235    1.9242    0.2474 H   0  0  0  0  0  0  0  0  0  0  0  0
   -0.0364    1.8754    0.6465 H   0  0  0  0  0  0  0  0  0  0  0  0
   -0.6050    2.4273   -0.9345 H   0  0  0  0  0  0  0  0  0  0  0  0
  1  2  1  0
  2  3  1  0
  3  4  1  0
  4  5  2  0
  4  6  1  0
  6  7  1  0
  7  8  1  0
  8  9  1  0
  8  3  1  0
  1 10  1  0
  1 11  1  0
  1 12  1  0
  2 13  1  0
  2 14  1  0
  3 15  1  0
  6 16  1  0
  6 17  1  0
  8 18  1  0
  9 19  1  0
  9 20  1  0
  9 21  1  0
M  END
