
     RDKit          3D

 21 21  0  0  0  0  0  0  0  0999 V2000
   -2.7530   -0.3726   -0.5490 C   0  0  0  0  0  0  0  0  0  0  0  0
   -1.4325   -0.9468   -0.1046 C   0  0  0  0  0  0  0  0  0  0  0  0
   -0.4858    0.0781    0.4175 C   0  0  0  0  0  0  0  0  0  0  0  0
   -0.0234    1.2045   -0.4304 C   0  0  0  0  0  0  0  0  0  0  0  0
    0.3447    2.4041    0.1714 O   0  0  0  0  0  0  0  0  0  0  0  0
    0.8966    0.0586   -0.1895 C   0  0  0  0  0  0  0  0  0  0  0  0
    1.1369   -0.7709   -1.2903 O   0  0  0  0  0  0  0  0  0  0  0  0
    2.1019    0.2233    0.7033 C   0  0  0  0  0  0  0  0  0  0  0  0
    2.4873   -1.0348    1.1894 O   0  0  0  0  0  0  0  0  0  0  0  0
   -2.7581    0.7236   -0.5915 H   0  0  0  0  0  0  0  0  0  0  0  0
   -3.6069   -0.7209    0.0852 H   0  0  0  0  0  0  0  0  0  0  0  0
   -2.9456   -0.7628   -1.5725 H   0  0  0  0  0  0  0  0  0  0  0  0
   -0.9528   -1.5569   -0.8778 H   0  0  0  0  0  0  0  0  0  0  0  0
   -1.6643   -1.6579    0.7415 H   0  0  0  0  0  0  0  0  0  0  0  0
   -0.5235    0.3200    1.5155 H   0  0  0  0  0  0  0  0  0  0  0  0
   -0.4356    1.3328   -1.4707 H   0  0  0  0  0  0  0  0  0  0  0  0
    1.2364    2.6613   -0.2062 H   0  0  0  0  0  0  0  0  0  0  0  0
    1.2332   -1.6956   -0.8991 H   0  0  0  0  0  0  0  0  0  0  0  0
    1.8350    0.8253    1.6080 H   0  0  0  0  0  0  0  0  0  0  0  0
    2.9319    0.6997    0.1412 H   0  0  0  0  0  0  0  0  0  0  0  0
    3.3776   -1.0122    1.6085 H   0  0  0  0  0  0  0  0  0  0  0  0
  1  2  1  0
  2  3  1  0
  3  4  1  0
  4  5  1  0
  4  6  1  0
  6  7  1  0
  6  8  1  0
  8  9  1  0
  6  3  1  0
  1 10  1  0
  1 11  1  0
  1 12  1  0
  2 13  1  0
  2 14  1  0
  3 15  1  0
  4 16  1  0
  5 17  1  0
  7 18  1  0
  8 19  1  0
  8 20  1  0
  9 21  1  0
M  END
