
     RDKit          3D

 21 23  0  0  0  0  0  0  0  0999 V2000
    2.4288   -0.3849   -0.3332 C   0  0  0  0  0  0  0  0  0  0  0  0
    1.4528    0.3439    0.5638 C   0  0  0  0  0  0  0  0  0  0  0  0
    0.0700    0.2210    0.1607 C   0  0  0  0  0  0  0  0  0  0  0  0
   -0.5646   -1.1536    0.0858 C   0  0  0  0  0  0  0  0  0  0  0  0
   -1.8615   -0.3627    0.3110 C   0  0  0  0  0  0  0  0  0  0  0  0
   -1.0026    0.5056    1.2229 C   0  0  0  0  0  0  0  0  0  0  0  0
   -1.9490    0.4693   -0.9382 C   0  0  0  0  0  0  0  0  0  0  0  0
   -1.5480    1.7865   -0.9264 O   0  0  0  0  0  0  0  0  0  0  0  0
   -0.4737    0.9141   -1.0284 C   0  0  0  0  0  0  0  0  0  0  0  0
    1.8636   -1.0602   -1.0285 H   0  0  0  0  0  0  0  0  0  0  0  0
    3.0700    0.3008   -0.9229 H   0  0  0  0  0  0  0  0  0  0  0  0
    3.0760   -1.0855    0.2643 H   0  0  0  0  0  0  0  0  0  0  0  0
    1.6037    0.0726    1.6386 H   0  0  0  0  0  0  0  0  0  0  0  0
    1.7480    1.4275    0.5123 H   0  0  0  0  0  0  0  0  0  0  0  0
   -0.3156   -1.7536    0.9888 H   0  0  0  0  0  0  0  0  0  0  0  0
   -0.4981   -1.6544   -0.8771 H   0  0  0  0  0  0  0  0  0  0  0  0
   -2.6989   -0.8655    0.7058 H   0  0  0  0  0  0  0  0  0  0  0  0
   -0.6808    0.0041    2.1598 H   0  0  0  0  0  0  0  0  0  0  0  0
   -1.3005    1.5492    1.2941 H   0  0  0  0  0  0  0  0  0  0  0  0
   -2.3990    0.0058   -1.8232 H   0  0  0  0  0  0  0  0  0  0  0  0
   -0.0206    0.7201   -2.0303 H   0  0  0  0  0  0  0  0  0  0  0  0
  1  2  1  0
  2  3  1  0
  3  4  1  0
  4  5  1  0
  5  6  1  0
  5  7  1  0
  7  8  1  0
  8  9  1  0
  6  3  1  0
  9  7  1  0
  9  3  1  0
  1 10  1  0
  1 11  1  0
  1 12  1  0
  2 13  1  0
  2 14  1  0
  4 15  1  0
  4 16  1  0
  5 17  1  0
  6 18  1  0
  6 19  1  0
  7 20  1  0
  9 21  1  0
M  END
