
     RDKit          3D

 18 18  0  0  0  0  0  0  0  0999 V2000
    1.7922   -0.9652   -0.2858 C   0  0  0  0  0  0  0  0  0  0  0  0
    1.1104    0.3501   -0.2784 C   0  0  0  0  0  0  0  0  0  0  0  0
   -0.3512    0.2953    0.0803 C   0  0  0  0  0  0  0  0  0  0  0  0
   -0.9512    1.7125    0.0559 C   0  0  0  0  0  0  0  0  0  0  0  0
   -0.9020   -0.6403    1.0521 C   0  0  0  0  0  0  0  0  0  0  0  0
   -1.2150   -0.7885   -0.4181 C   0  0  0  0  0  0  0  0  0  0  0  0
    2.0896   -1.2926    0.7261 H   0  0  0  0  0  0  0  0  0  0  0  0
    1.1945   -1.7323   -0.7873 H   0  0  0  0  0  0  0  0  0  0  0  0
    2.7599   -0.8319   -0.8544 H   0  0  0  0  0  0  0  0  0  0  0  0
    1.1499    0.7575   -1.3313 H   0  0  0  0  0  0  0  0  0  0  0  0
    1.6508    1.0699    0.3678 H   0  0  0  0  0  0  0  0  0  0  0  0
   -2.0058    1.6208    0.3327 H   0  0  0  0  0  0  0  0  0  0  0  0
   -0.3667    2.3156    0.7597 H   0  0  0  0  0  0  0  0  0  0  0  0
   -0.8206    2.0429   -1.0150 H   0  0  0  0  0  0  0  0  0  0  0  0
   -0.3295   -1.4402    1.5512 H   0  0  0  0  0  0  0  0  0  0  0  0
   -1.7364   -0.2616    1.7038 H   0  0  0  0  0  0  0  0  0  0  0  0
   -2.2250   -0.4979   -0.7931 H   0  0  0  0  0  0  0  0  0  0  0  0
   -0.8439   -1.7140   -0.8662 H   0  0  0  0  0  0  0  0  0  0  0  0
  1  2  1  0
  2  3  1  0
  3  4  1  0
  3  5  1  0
  5  6  1  0
  6  3  1  0
  1  7  1  0
  1  8  1  0
  1  9  1  0
  2 10  1  0
  2 11  1  0
  4 12  1  0
  4 13  1  0
  4 14  1  0
  5 15  1  0
  5 16  1  0
  6 17  1  0
  6 18  1  0
M  END
