
     RDKit          3D

 25 25  0  0  0  0  0  0  0  0999 V2000
   -1.7238    1.7578    0.2818 C   0  0  0  0  0  0  0  0  0  0  0  0
   -0.6931    0.7656    0.7670 C   0  0  0  0  0  0  0  0  0  0  0  0
   -0.1004   -0.0410   -0.3349 C   0  0  0  0  0  0  0  0  0  0  0  0
   -1.0565   -0.7689   -1.0081 O   0  0  0  0  0  0  0  0  0  0  0  0
   -1.7612   -1.6707   -0.2573 C   0  0  0  0  0  0  0  0  0  0  0  0
    0.6586    0.8373   -1.3346 C   0  0  0  0  0  0  0  0  0  0  0  0
    1.9415    0.1594   -0.9966 C   0  0  0  0  0  0  0  0  0  0  0  0
    1.1528   -0.7750   -0.0874 C   0  0  0  0  0  0  0  0  0  0  0  0
    1.7349   -0.7773    1.2809 C   0  0  0  0  0  0  0  0  0  0  0  0
   -1.4978    2.7996    0.5886 H   0  0  0  0  0  0  0  0  0  0  0  0
   -2.7402    1.5424    0.7197 H   0  0  0  0  0  0  0  0  0  0  0  0
   -1.8478    1.6999   -0.8385 H   0  0  0  0  0  0  0  0  0  0  0  0
    0.0456    1.3464    1.3505 H   0  0  0  0  0  0  0  0  0  0  0  0
   -1.1734    0.0764    1.4901 H   0  0  0  0  0  0  0  0  0  0  0  0
   -2.4816   -2.1693   -0.9602 H   0  0  0  0  0  0  0  0  0  0  0  0
   -2.4327   -1.1312    0.4586 H   0  0  0  0  0  0  0  0  0  0  0  0
   -1.1644   -2.4500    0.2158 H   0  0  0  0  0  0  0  0  0  0  0  0
    0.3925    0.6586   -2.3962 H   0  0  0  0  0  0  0  0  0  0  0  0
    0.6031    1.9291   -1.0648 H   0  0  0  0  0  0  0  0  0  0  0  0
    2.4572   -0.3561   -1.8339 H   0  0  0  0  0  0  0  0  0  0  0  0
    2.6751    0.8069   -0.4457 H   0  0  0  0  0  0  0  0  0  0  0  0
    1.1654   -1.8132   -0.5109 H   0  0  0  0  0  0  0  0  0  0  0  0
    1.7583    0.1939    1.7722 H   0  0  0  0  0  0  0  0  0  0  0  0
    1.2754   -1.5177    1.9619 H   0  0  0  0  0  0  0  0  0  0  0  0
    2.8124   -1.1030    1.1821 H   0  0  0  0  0  0  0  0  0  0  0  0
  1  2  1  0
  2  3  1  0
  3  4  1  0
  4  5  1  0
  3  6  1  0
  6  7  1  0
  7  8  1  0
  8  9  1  0
  8  3  1  0
  1 10  1  0
  1 11  1  0
  1 12  1  0
  2 13  1  0
  2 14  1  0
  5 15  1  0
  5 16  1  0
  5 17  1  0
  6 18  1  0
  6 19  1  0
  7 20  1  0
  7 21  1  0
  8 22  1  0
  9 23  1  0
  9 24  1  0
  9 25  1  0
M  END
