
     RDKit          3D

 19 20  0  0  0  0  0  0  0  0999 V2000
   -2.6376   -0.3782   -0.4840 C   0  0  0  0  0  0  0  0  0  0  0  0
   -1.6864    0.3798    0.4223 C   0  0  0  0  0  0  0  0  0  0  0  0
   -0.3416    0.1982    0.1744 C   0  0  0  0  0  0  0  0  0  0  0  0
    0.8023    0.8244    0.9167 C   0  0  0  0  0  0  0  0  0  0  0  0
    1.3639    0.0091   -0.2136 C   0  0  0  0  0  0  0  0  0  0  0  0
    2.6891   -0.1062   -0.5736 C   0  0  0  0  0  0  0  0  0  0  0  0
    0.3428    0.5639   -0.9816 O   0  0  0  0  0  0  0  0  0  0  0  0
    0.4162   -1.0337    0.1347 C   0  0  0  0  0  0  0  0  0  0  0  0
    0.3766   -2.2091    0.2800 O   0  0  0  0  0  0  0  0  0  0  0  0
   -2.2941   -1.4324   -0.6253 H   0  0  0  0  0  0  0  0  0  0  0  0
   -2.6830    0.1544   -1.4623 H   0  0  0  0  0  0  0  0  0  0  0  0
   -3.6329   -0.3838   -0.0017 H   0  0  0  0  0  0  0  0  0  0  0  0
   -1.9815    0.0874    1.4592 H   0  0  0  0  0  0  0  0  0  0  0  0
   -2.0200    1.4575    0.3466 H   0  0  0  0  0  0  0  0  0  0  0  0
    0.9764    0.4483    1.9273 H   0  0  0  0  0  0  0  0  0  0  0  0
    0.9178    1.9125    0.8173 H   0  0  0  0  0  0  0  0  0  0  0  0
    3.4056    0.2821    0.2041 H   0  0  0  0  0  0  0  0  0  0  0  0
    3.0278   -1.1731   -0.7325 H   0  0  0  0  0  0  0  0  0  0  0  0
    2.9588    0.3989   -1.5451 H   0  0  0  0  0  0  0  0  0  0  0  0
  1  2  1  0
  2  3  1  0
  3  4  1  0
  4  5  1  0
  5  6  1  0
  5  7  1  0
  5  8  1  0
  8  9  2  0
  7  3  1  0
  8  3  1  0
  1 10  1  0
  1 11  1  0
  1 12  1  0
  2 13  1  0
  2 14  1  0
  4 15  1  0
  4 16  1  0
  6 17  1  0
  6 18  1  0
  6 19  1  0
M  END
