
     RDKit          3D

 23 23  0  0  0  0  0  0  0  0999 V2000
    2.6311    0.3873    0.0466 C   0  0  0  0  0  0  0  0  0  0  0  0
    1.4684   -0.5315    0.3400 C   0  0  0  0  0  0  0  0  0  0  0  0
    0.3870   -0.2864   -0.6916 C   0  0  0  0  0  0  0  0  0  0  0  0
   -0.0661    1.1592   -0.6175 C   0  0  0  0  0  0  0  0  0  0  0  0
   -1.0151    0.7005    0.4721 C   0  0  0  0  0  0  0  0  0  0  0  0
   -2.3107    1.4161    0.4005 C   0  0  0  0  0  0  0  0  0  0  0  0
   -2.3578    2.5376    0.8632 O   0  0  0  0  0  0  0  0  0  0  0  0
   -1.0029   -0.6380   -0.2281 C   0  0  0  0  0  0  0  0  0  0  0  0
   -1.1128   -1.8336    0.6707 C   0  0  0  0  0  0  0  0  0  0  0  0
    3.5505   -0.2501   -0.0670 H   0  0  0  0  0  0  0  0  0  0  0  0
    2.8480    1.0859    0.8701 H   0  0  0  0  0  0  0  0  0  0  0  0
    2.4623    0.9852   -0.8868 H   0  0  0  0  0  0  0  0  0  0  0  0
    1.7874   -1.6077    0.2958 H   0  0  0  0  0  0  0  0  0  0  0  0
    1.1288   -0.3549    1.3617 H   0  0  0  0  0  0  0  0  0  0  0  0
    0.6153   -0.6289   -1.7009 H   0  0  0  0  0  0  0  0  0  0  0  0
   -0.6317    1.4114   -1.5270 H   0  0  0  0  0  0  0  0  0  0  0  0
    0.7101    1.8736   -0.3052 H   0  0  0  0  0  0  0  0  0  0  0  0
   -0.6036    0.7129    1.4969 H   0  0  0  0  0  0  0  0  0  0  0  0
   -3.2147    1.0119   -0.0331 H   0  0  0  0  0  0  0  0  0  0  0  0
   -1.7172   -0.6816   -1.0475 H   0  0  0  0  0  0  0  0  0  0  0  0
   -0.7176   -2.7114    0.0946 H   0  0  0  0  0  0  0  0  0  0  0  0
   -2.2057   -2.0443    0.7912 H   0  0  0  0  0  0  0  0  0  0  0  0
   -0.6331   -1.7131    1.6431 H   0  0  0  0  0  0  0  0  0  0  0  0
  1  2  1  0
  2  3  1  0
  3  4  1  0
  4  5  1  0
  5  6  1  0
  6  7  2  0
  5  8  1  0
  8  9  1  0
  8  3  1  0
  1 10  1  0
  1 11  1  0
  1 12  1  0
  2 13  1  0
  2 14  1  0
  3 15  1  0
  4 16  1  0
  4 17  1  0
  5 18  1  0
  6 19  1  0
  8 20  1  0
  9 21  1  0
  9 22  1  0
  9 23  1  0
M  END
