
     RDKit          3D

 18 18  0  0  0  0  0  0  0  0999 V2000
    2.0506    0.2813   -0.0484 C   0  0  0  0  0  0  0  0  0  0  0  0
    0.8647   -0.3508   -0.6688 C   0  0  0  0  0  0  0  0  0  0  0  0
   -0.4535    0.2094   -0.2508 C   0  0  0  0  0  0  0  0  0  0  0  0
   -0.6466    1.6441   -0.5457 C   0  0  0  0  0  0  0  0  0  0  0  0
    0.1193    2.5116   -0.1581 O   0  0  0  0  0  0  0  0  0  0  0  0
   -0.9715   -0.1943    1.0969 C   0  0  0  0  0  0  0  0  0  0  0  0
   -1.5548   -1.3496    0.3421 C   0  0  0  0  0  0  0  0  0  0  0  0
   -1.4849   -0.5496   -0.8217 O   0  0  0  0  0  0  0  0  0  0  0  0
    2.6132   -0.4620    0.5862 H   0  0  0  0  0  0  0  0  0  0  0  0
    1.8615    1.1451    0.5910 H   0  0  0  0  0  0  0  0  0  0  0  0
    2.7983    0.5687   -0.8452 H   0  0  0  0  0  0  0  0  0  0  0  0
    0.9206   -0.2456   -1.7921 H   0  0  0  0  0  0  0  0  0  0  0  0
    0.8727   -1.4416   -0.4603 H   0  0  0  0  0  0  0  0  0  0  0  0
   -1.5037    2.0083   -1.1387 H   0  0  0  0  0  0  0  0  0  0  0  0
   -1.7733    0.5068    1.4256 H   0  0  0  0  0  0  0  0  0  0  0  0
   -0.2207   -0.4495    1.8632 H   0  0  0  0  0  0  0  0  0  0  0  0
   -2.6101   -1.6060    0.5818 H   0  0  0  0  0  0  0  0  0  0  0  0
   -0.8817   -2.2262    0.2428 H   0  0  0  0  0  0  0  0  0  0  0  0
  1  2  1  0
  2  3  1  0
  3  4  1  0
  4  5  2  0
  3  6  1  0
  6  7  1  0
  7  8  1  0
  8  3  1  0
  1  9  1  0
  1 10  1  0
  1 11  1  0
  2 12  1  0
  2 13  1  0
  4 14  1  0
  6 15  1  0
  6 16  1  0
  7 17  1  0
  7 18  1  0
M  END
