
     RDKit          3D

 23 23  0  0  0  0  0  0  0  0999 V2000
    2.8531   -0.7108   -0.3348 C   0  0  0  0  0  0  0  0  0  0  0  0
    1.8246   -0.6261    0.7758 C   0  0  0  0  0  0  0  0  0  0  0  0
    0.4962   -0.2090    0.2552 C   0  0  0  0  0  0  0  0  0  0  0  0
   -0.6045   -0.9384    0.3589 C   0  0  0  0  0  0  0  0  0  0  0  0
   -1.6854   -0.1574   -0.2831 C   0  0  0  0  0  0  0  0  0  0  0  0
   -2.7299   -1.0262   -0.9256 C   0  0  0  0  0  0  0  0  0  0  0  0
   -1.0176    0.6414   -1.1744 O   0  0  0  0  0  0  0  0  0  0  0  0
    0.1400    1.0491   -0.4664 C   0  0  0  0  0  0  0  0  0  0  0  0
   -0.2785    2.1529    0.4419 C   0  0  0  0  0  0  0  0  0  0  0  0
    3.1542    0.2911   -0.6573 H   0  0  0  0  0  0  0  0  0  0  0  0
    2.3585   -1.2022   -1.1991 H   0  0  0  0  0  0  0  0  0  0  0  0
    3.7230   -1.2414    0.0520 H   0  0  0  0  0  0  0  0  0  0  0  0
    2.1948    0.0575    1.5818 H   0  0  0  0  0  0  0  0  0  0  0  0
    1.7717   -1.6354    1.2290 H   0  0  0  0  0  0  0  0  0  0  0  0
   -0.6962   -1.9378    0.8338 H   0  0  0  0  0  0  0  0  0  0  0  0
   -2.2069    0.4919    0.4514 H   0  0  0  0  0  0  0  0  0  0  0  0
   -2.2360   -1.7105   -1.6445 H   0  0  0  0  0  0  0  0  0  0  0  0
   -3.4694   -0.3769   -1.4050 H   0  0  0  0  0  0  0  0  0  0  0  0
   -3.2135   -1.6226   -0.1289 H   0  0  0  0  0  0  0  0  0  0  0  0
    0.9099    1.3176   -1.2043 H   0  0  0  0  0  0  0  0  0  0  0  0
    0.5439    2.8315    0.7391 H   0  0  0  0  0  0  0  0  0  0  0  0
   -0.9926    2.8029   -0.1456 H   0  0  0  0  0  0  0  0  0  0  0  0
   -0.8396    1.7587    1.2862 H   0  0  0  0  0  0  0  0  0  0  0  0
  1  2  1  0
  2  3  1  0
  3  4  2  0
  4  5  1  0
  5  6  1  0
  5  7  1  0
  7  8  1  0
  8  9  1  0
  8  3  1  0
  1 10  1  0
  1 11  1  0
  1 12  1  0
  2 13  1  0
  2 14  1  0
  4 15  1  0
  5 16  1  0
  6 17  1  0
  6 18  1  0
  6 19  1  0
  8 20  1  0
  9 21  1  0
  9 22  1  0
  9 23  1  0
M  END
