
     RDKit          3D

 19 20  0  0  0  0  0  0  0  0999 V2000
    2.5140    0.4403    0.3265 C   0  0  0  0  0  0  0  0  0  0  0  0
    1.5238   -0.5584   -0.1608 C   0  0  0  0  0  0  0  0  0  0  0  0
    0.1589   -0.4203    0.4557 C   0  0  0  0  0  0  0  0  0  0  0  0
   -0.6386   -1.4254   -0.1076 O   0  0  0  0  0  0  0  0  0  0  0  0
   -1.5775   -0.7907   -0.9111 C   0  0  0  0  0  0  0  0  0  0  0  0
   -2.5720   -0.1692    0.0071 C   0  0  0  0  0  0  0  0  0  0  0  0
   -1.9120    0.8681    0.5584 C   0  0  0  0  0  0  0  0  0  0  0  0
   -0.5625    0.8175   -0.0368 C   0  0  0  0  0  0  0  0  0  0  0  0
   -0.8869    0.3690   -1.3438 O   0  0  0  0  0  0  0  0  0  0  0  0
    2.1327    1.1846    1.0259 H   0  0  0  0  0  0  0  0  0  0  0  0
    2.9097    0.9907   -0.5697 H   0  0  0  0  0  0  0  0  0  0  0  0
    3.4026   -0.1207    0.7222 H   0  0  0  0  0  0  0  0  0  0  0  0
    1.8542   -1.6081    0.0264 H   0  0  0  0  0  0  0  0  0  0  0  0
    1.3725   -0.5027   -1.2777 H   0  0  0  0  0  0  0  0  0  0  0  0
    0.2145   -0.4805    1.5465 H   0  0  0  0  0  0  0  0  0  0  0  0
   -1.9853   -1.3746   -1.7074 H   0  0  0  0  0  0  0  0  0  0  0  0
   -3.5933   -0.4814    0.1891 H   0  0  0  0  0  0  0  0  0  0  0  0
   -2.3624    1.5386    1.2754 H   0  0  0  0  0  0  0  0  0  0  0  0
    0.0073    1.7229   -0.0183 H   0  0  0  0  0  0  0  0  0  0  0  0
  1  2  1  0
  2  3  1  0
  3  4  1  0
  4  5  1  0
  5  6  1  0
  6  7  2  0
  7  8  1  0
  8  9  1  0
  8  3  1  0
  9  5  1  0
  1 10  1  0
  1 11  1  0
  1 12  1  0
  2 13  1  0
  2 14  1  0
  3 15  1  0
  5 16  1  0
  6 17  1  0
  7 18  1  0
  8 19  1  0
M  END
