
     RDKit          3D

 23 24  0  0  0  0  0  0  0  0999 V2000
    3.0024    0.2140   -0.1696 C   0  0  0  0  0  0  0  0  0  0  0  0
    1.5720    0.0541   -0.6819 C   0  0  0  0  0  0  0  0  0  0  0  0
    0.6405    0.3546    0.4506 C   0  0  0  0  0  0  0  0  0  0  0  0
    0.8258   -0.5038    1.5416 O   0  0  0  0  0  0  0  0  0  0  0  0
   -0.5720   -0.6667    1.6942 C   0  0  0  0  0  0  0  0  0  0  0  0
   -0.7536   -0.0914    0.3547 C   0  0  0  0  0  0  0  0  0  0  0  0
   -1.1899   -0.9406   -0.7650 C   0  0  0  0  0  0  0  0  0  0  0  0
   -2.2766    0.1072   -1.0512 C   0  0  0  0  0  0  0  0  0  0  0  0
   -1.8233    0.9290    0.1461 C   0  0  0  0  0  0  0  0  0  0  0  0
    3.0300    0.0219    0.9156 H   0  0  0  0  0  0  0  0  0  0  0  0
    3.6662   -0.4866   -0.6819 H   0  0  0  0  0  0  0  0  0  0  0  0
    3.3270    1.2808   -0.3080 H   0  0  0  0  0  0  0  0  0  0  0  0
    1.4488    0.7848   -1.4895 H   0  0  0  0  0  0  0  0  0  0  0  0
    1.4967   -0.9950   -1.0337 H   0  0  0  0  0  0  0  0  0  0  0  0
    0.7762    1.4107    0.7781 H   0  0  0  0  0  0  0  0  0  0  0  0
   -0.9048   -0.0442    2.5367 H   0  0  0  0  0  0  0  0  0  0  0  0
   -0.8022   -1.7547    1.8084 H   0  0  0  0  0  0  0  0  0  0  0  0
   -0.4890   -1.0906   -1.5947 H   0  0  0  0  0  0  0  0  0  0  0  0
   -1.6450   -1.9019   -0.4005 H   0  0  0  0  0  0  0  0  0  0  0  0
   -3.2937   -0.2700   -0.8597 H   0  0  0  0  0  0  0  0  0  0  0  0
   -2.1266    0.6443   -1.9977 H   0  0  0  0  0  0  0  0  0  0  0  0
   -2.5595    1.0321    0.9543 H   0  0  0  0  0  0  0  0  0  0  0  0
   -1.3495    1.9119   -0.1471 H   0  0  0  0  0  0  0  0  0  0  0  0
  1  2  1  0
  2  3  1  0
  3  4  1  0
  4  5  1  0
  5  6  1  0
  6  7  1  0
  7  8  1  0
  8  9  1  0
  6  3  1  0
  9  6  1  0
  1 10  1  0
  1 11  1  0
  1 12  1  0
  2 13  1  0
  2 14  1  0
  3 15  1  0
  5 16  1  0
  5 17  1  0
  7 18  1  0
  7 19  1  0
  8 20  1  0
  8 21  1  0
  9 22  1  0
  9 23  1  0
M  END
