
     RDKit          3D

 23 24  0  0  0  0  0  0  0  0999 V2000
   -2.4440    1.0657   -0.4611 C   0  0  0  0  0  0  0  0  0  0  0  0
   -0.9904    0.8603   -0.7183 C   0  0  0  0  0  0  0  0  0  0  0  0
   -0.3950   -0.3051    0.0053 C   0  0  0  0  0  0  0  0  0  0  0  0
    1.0667   -0.6250   -0.1651 C   0  0  0  0  0  0  0  0  0  0  0  0
    1.9757    0.4614    0.2502 C   0  0  0  0  0  0  0  0  0  0  0  0
    3.4314    0.2773    0.1344 C   0  0  0  0  0  0  0  0  0  0  0  0
    2.7710    0.9112   -0.9215 O   0  0  0  0  0  0  0  0  0  0  0  0
   -1.2608   -1.5640    0.1160 C   0  0  0  0  0  0  0  0  0  0  0  0
   -1.0312   -0.7044    1.3036 C   0  0  0  0  0  0  0  0  0  0  0  0
   -2.8118    1.9355   -1.0851 H   0  0  0  0  0  0  0  0  0  0  0  0
   -3.0900    0.2222   -0.7761 H   0  0  0  0  0  0  0  0  0  0  0  0
   -2.6950    1.2986    0.5899 H   0  0  0  0  0  0  0  0  0  0  0  0
   -0.8940    0.6500   -1.8251 H   0  0  0  0  0  0  0  0  0  0  0  0
   -0.4447    1.8038   -0.5633 H   0  0  0  0  0  0  0  0  0  0  0  0
    1.2753   -1.5163    0.4948 H   0  0  0  0  0  0  0  0  0  0  0  0
    1.2182   -0.9820   -1.1995 H   0  0  0  0  0  0  0  0  0  0  0  0
    1.6190    1.3737    0.7595 H   0  0  0  0  0  0  0  0  0  0  0  0
    4.1382    0.9340    0.6612 H   0  0  0  0  0  0  0  0  0  0  0  0
    3.8257   -0.7187   -0.1363 H   0  0  0  0  0  0  0  0  0  0  0  0
   -0.7718   -2.5571    0.0896 H   0  0  0  0  0  0  0  0  0  0  0  0
   -2.2532   -1.5759   -0.3571 H   0  0  0  0  0  0  0  0  0  0  0  0
   -1.9214   -0.2081    1.7084 H   0  0  0  0  0  0  0  0  0  0  0  0
   -0.3180   -1.0370    2.0955 H   0  0  0  0  0  0  0  0  0  0  0  0
  1  2  1  0
  2  3  1  0
  3  4  1  0
  4  5  1  0
  5  6  1  0
  6  7  1  0
  3  8  1  0
  8  9  1  0
  9  3  1  0
  7  5  1  0
  1 10  1  0
  1 11  1  0
  1 12  1  0
  2 13  1  0
  2 14  1  0
  4 15  1  0
  4 16  1  0
  5 17  1  0
  6 18  1  0
  6 19  1  0
  8 20  1  0
  8 21  1  0
  9 22  1  0
  9 23  1  0
M  END
