
     RDKit          3D

 21 22  0  0  0  0  0  0  0  0999 V2000
    2.6211   -0.1412   -0.1124 C   0  0  0  0  0  0  0  0  0  0  0  0
    1.4659   -0.2982   -1.0733 C   0  0  0  0  0  0  0  0  0  0  0  0
    0.1987   -0.0093   -0.2937 C   0  0  0  0  0  0  0  0  0  0  0  0
   -0.0975   -0.8735    0.8795 C   0  0  0  0  0  0  0  0  0  0  0  0
   -0.9596   -0.9320   -0.3550 C   0  0  0  0  0  0  0  0  0  0  0  0
   -2.2235   -0.1422   -0.2887 C   0  0  0  0  0  0  0  0  0  0  0  0
   -1.7928    1.2412    0.0816 C   0  0  0  0  0  0  0  0  0  0  0  0
   -0.4099    1.3238   -0.4319 C   0  0  0  0  0  0  0  0  0  0  0  0
    0.1240    2.3069   -0.8830 O   0  0  0  0  0  0  0  0  0  0  0  0
    3.4641   -0.8171   -0.3328 H   0  0  0  0  0  0  0  0  0  0  0  0
    3.0343    0.8994   -0.1223 H   0  0  0  0  0  0  0  0  0  0  0  0
    2.2646   -0.3373    0.9227 H   0  0  0  0  0  0  0  0  0  0  0  0
    1.5231    0.4128   -1.9273 H   0  0  0  0  0  0  0  0  0  0  0  0
    1.4599   -1.3642   -1.4282 H   0  0  0  0  0  0  0  0  0  0  0  0
   -0.5206   -0.4534    1.8163 H   0  0  0  0  0  0  0  0  0  0  0  0
    0.6323   -1.6846    1.0748 H   0  0  0  0  0  0  0  0  0  0  0  0
   -0.8667   -1.7953   -1.0392 H   0  0  0  0  0  0  0  0  0  0  0  0
   -2.8274   -0.5646    0.5672 H   0  0  0  0  0  0  0  0  0  0  0  0
   -2.8300   -0.1881   -1.2074 H   0  0  0  0  0  0  0  0  0  0  0  0
   -1.8022    1.3874    1.1888 H   0  0  0  0  0  0  0  0  0  0  0  0
   -2.4580    2.0295   -0.3267 H   0  0  0  0  0  0  0  0  0  0  0  0
  1  2  1  0
  2  3  1  0
  3  4  1  0
  4  5  1  0
  5  6  1  0
  6  7  1  0
  7  8  1  0
  8  9  2  0
  5  3  1  0
  8  3  1  0
  1 10  1  0
  1 11  1  0
  1 12  1  0
  2 13  1  0
  2 14  1  0
  4 15  1  0
  4 16  1  0
  5 17  1  0
  6 18  1  0
  6 19  1  0
  7 20  1  0
  7 21  1  0
M  END
