
     RDKit          3D

 21 22  0  0  0  0  0  0  0  0999 V2000
   -2.7398   -0.6919   -0.0660 C   0  0  0  0  0  0  0  0  0  0  0  0
   -1.8216    0.4207   -0.3907 C   0  0  0  0  0  0  0  0  0  0  0  0
   -0.3908    0.1160   -0.2867 C   0  0  0  0  0  0  0  0  0  0  0  0
    0.1362   -1.0383    0.0635 C   0  0  0  0  0  0  0  0  0  0  0  0
    1.6090   -1.2106   -0.2235 C   0  0  0  0  0  0  0  0  0  0  0  0
    2.1867    0.1456   -0.5139 C   0  0  0  0  0  0  0  0  0  0  0  0
    1.6923    1.2221    0.4010 C   0  0  0  0  0  0  0  0  0  0  0  0
    0.5731    1.2140   -0.6068 C   0  0  0  0  0  0  0  0  0  0  0  0
    1.4700    0.7300   -1.5580 O   0  0  0  0  0  0  0  0  0  0  0  0
   -3.6705   -0.2936    0.4342 H   0  0  0  0  0  0  0  0  0  0  0  0
   -2.3559   -1.4723    0.5840 H   0  0  0  0  0  0  0  0  0  0  0  0
   -3.1378   -1.2051   -0.9906 H   0  0  0  0  0  0  0  0  0  0  0  0
   -2.0785    0.7885   -1.4268 H   0  0  0  0  0  0  0  0  0  0  0  0
   -2.0443    1.2903    0.2776 H   0  0  0  0  0  0  0  0  0  0  0  0
   -0.3539   -1.8588    0.5229 H   0  0  0  0  0  0  0  0  0  0  0  0
    2.1323   -1.6565    0.6372 H   0  0  0  0  0  0  0  0  0  0  0  0
    1.6692   -1.8273   -1.1421 H   0  0  0  0  0  0  0  0  0  0  0  0
    3.2760    0.1249   -0.6915 H   0  0  0  0  0  0  0  0  0  0  0  0
    1.4099    0.9073    1.4261 H   0  0  0  0  0  0  0  0  0  0  0  0
    2.2969    2.1248    0.3763 H   0  0  0  0  0  0  0  0  0  0  0  0
    0.1416    2.1703   -0.8859 H   0  0  0  0  0  0  0  0  0  0  0  0
  1  2  1  0
  2  3  1  0
  3  4  2  0
  4  5  1  0
  5  6  1  0
  6  7  1  0
  7  8  1  0
  8  9  1  0
  8  3  1  0
  9  6  1  0
  1 10  1  0
  1 11  1  0
  1 12  1  0
  2 13  1  0
  2 14  1  0
  4 15  1  0
  5 16  1  0
  5 17  1  0
  6 18  1  0
  7 19  1  0
  7 20  1  0
  8 21  1  0
M  END
