
     RDKit          3D

 21 21  0  0  0  0  0  0  0  0999 V2000
   -2.5235    1.3574    0.1749 C   0  0  0  0  0  0  0  0  0  0  0  0
   -1.9821   -0.0308    0.2259 C   0  0  0  0  0  0  0  0  0  0  0  0
   -0.7591   -0.2385   -0.6268 C   0  0  0  0  0  0  0  0  0  0  0  0
   -0.2181   -1.6618   -0.5638 C   0  0  0  0  0  0  0  0  0  0  0  0
    0.5772   -0.4544   -0.0136 C   0  0  0  0  0  0  0  0  0  0  0  0
    1.7806   -0.1174   -0.8485 C   0  0  0  0  0  0  0  0  0  0  0  0
    3.0035   -0.3506   -0.1926 O   0  0  0  0  0  0  0  0  0  0  0  0
    3.2768    0.3292    0.9768 C   0  0  0  0  0  0  0  0  0  0  0  0
    2.4155    1.1353    1.4102 O   0  0  0  0  0  0  0  0  0  0  0  0
   -1.8577    2.0339   -0.4010 H   0  0  0  0  0  0  0  0  0  0  0  0
   -3.5309    1.3837   -0.3202 H   0  0  0  0  0  0  0  0  0  0  0  0
   -2.7196    1.7530    1.2111 H   0  0  0  0  0  0  0  0  0  0  0  0
   -1.8116   -0.3131    1.2875 H   0  0  0  0  0  0  0  0  0  0  0  0
   -2.7610   -0.7308   -0.1535 H   0  0  0  0  0  0  0  0  0  0  0  0
   -0.7748    0.2890   -1.5793 H   0  0  0  0  0  0  0  0  0  0  0  0
    0.0611   -2.0537   -1.5558 H   0  0  0  0  0  0  0  0  0  0  0  0
   -0.5879   -2.3291    0.2195 H   0  0  0  0  0  0  0  0  0  0  0  0
    0.6706   -0.3673    1.0691 H   0  0  0  0  0  0  0  0  0  0  0  0
    1.8251   -0.7241   -1.8005 H   0  0  0  0  0  0  0  0  0  0  0  0
    1.6895    0.9354   -1.1989 H   0  0  0  0  0  0  0  0  0  0  0  0
    4.2265    0.1546    1.4968 H   0  0  0  0  0  0  0  0  0  0  0  0
  1  2  1  0
  2  3  1  0
  3  4  1  0
  4  5  1  0
  5  6  1  0
  6  7  1  0
  7  8  1  0
  8  9  2  0
  5  3  1  0
  1 10  1  0
  1 11  1  0
  1 12  1  0
  2 13  1  0
  2 14  1  0
  3 15  1  0
  4 16  1  0
  4 17  1  0
  5 18  1  0
  6 19  1  0
  6 20  1  0
  8 21  1  0
M  END
