
     RDKit          3D

 21 23  0  0  0  0  0  0  0  0999 V2000
    2.8446    0.0344   -0.6716 C   0  0  0  0  0  0  0  0  0  0  0  0
    1.6327   -0.8453   -0.5319 C   0  0  0  0  0  0  0  0  0  0  0  0
    0.5954   -0.2244    0.3967 C   0  0  0  0  0  0  0  0  0  0  0  0
    0.0799    1.1583   -0.0941 C   0  0  0  0  0  0  0  0  0  0  0  0
   -0.7569    0.0137    0.0643 C   0  0  0  0  0  0  0  0  0  0  0  0
   -1.6629   -0.6282   -0.8655 C   0  0  0  0  0  0  0  0  0  0  0  0
   -2.7190    0.3562   -0.4185 C   0  0  0  0  0  0  0  0  0  0  0  0
   -1.9902   -0.1615    0.8026 C   0  0  0  0  0  0  0  0  0  0  0  0
   -2.1133   -1.4179    0.2030 O   0  0  0  0  0  0  0  0  0  0  0  0
    2.7932    0.6809   -1.5730 H   0  0  0  0  0  0  0  0  0  0  0  0
    3.7519   -0.6126   -0.8246 H   0  0  0  0  0  0  0  0  0  0  0  0
    2.9843    0.6844    0.2120 H   0  0  0  0  0  0  0  0  0  0  0  0
    1.2131   -0.9981   -1.5506 H   0  0  0  0  0  0  0  0  0  0  0  0
    1.9269   -1.8244   -0.1513 H   0  0  0  0  0  0  0  0  0  0  0  0
    0.9389   -0.2318    1.4609 H   0  0  0  0  0  0  0  0  0  0  0  0
    0.4887    1.5318   -1.0464 H   0  0  0  0  0  0  0  0  0  0  0  0
    0.0426    1.9610    0.6880 H   0  0  0  0  0  0  0  0  0  0  0  0
   -1.5434   -0.9595   -1.8127 H   0  0  0  0  0  0  0  0  0  0  0  0
   -3.7610    0.0313   -0.5312 H   0  0  0  0  0  0  0  0  0  0  0  0
   -2.4999    1.3997   -0.6895 H   0  0  0  0  0  0  0  0  0  0  0  0
   -2.2457    0.0522    1.7584 H   0  0  0  0  0  0  0  0  0  0  0  0
  1  2  1  0
  2  3  1  0
  3  4  1  0
  4  5  1  0
  5  6  1  0
  6  7  1  0
  7  8  1  0
  8  9  1  0
  5  3  1  0
  9  6  1  0
  8  5  1  0
  1 10  1  0
  1 11  1  0
  1 12  1  0
  2 13  1  0
  2 14  1  0
  3 15  1  0
  4 16  1  0
  4 17  1  0
  6 18  1  0
  7 19  1  0
  7 20  1  0
  8 21  1  0
M  END
