
     RDKit          3D

 19 20  0  0  0  0  0  0  0  0999 V2000
    2.3385    0.7566    0.0904 C   0  0  0  0  0  0  0  0  0  0  0  0
    1.5046   -0.4827    0.0250 C   0  0  0  0  0  0  0  0  0  0  0  0
    0.0969   -0.1415   -0.0677 C   0  0  0  0  0  0  0  0  0  0  0  0
   -0.9002   -1.3145   -0.1440 C   0  0  0  0  0  0  0  0  0  0  0  0
   -1.8292   -0.1906    0.3534 C   0  0  0  0  0  0  0  0  0  0  0  0
   -1.7453    0.7335   -0.8171 C   0  0  0  0  0  0  0  0  0  0  0  0
   -0.3504    0.6993   -1.0708 O   0  0  0  0  0  0  0  0  0  0  0  0
   -0.6574    0.2245    1.1451 C   0  0  0  0  0  0  0  0  0  0  0  0
   -0.4443    0.6468    2.2323 O   0  0  0  0  0  0  0  0  0  0  0  0
    2.0474    1.3910   -0.7953 H   0  0  0  0  0  0  0  0  0  0  0  0
    2.0537    1.3370    1.0009 H   0  0  0  0  0  0  0  0  0  0  0  0
    3.4258    0.5404    0.0632 H   0  0  0  0  0  0  0  0  0  0  0  0
    1.6893   -1.1184    0.8995 H   0  0  0  0  0  0  0  0  0  0  0  0
    1.8140   -1.0366   -0.9042 H   0  0  0  0  0  0  0  0  0  0  0  0
   -1.1762   -1.5973   -1.1595 H   0  0  0  0  0  0  0  0  0  0  0  0
   -0.7407   -2.0894    0.5997 H   0  0  0  0  0  0  0  0  0  0  0  0
   -2.7379   -0.4586    0.8005 H   0  0  0  0  0  0  0  0  0  0  0  0
   -2.3166    0.3344   -1.6809 H   0  0  0  0  0  0  0  0  0  0  0  0
   -2.0719    1.7660   -0.5704 H   0  0  0  0  0  0  0  0  0  0  0  0
  1  2  1  0
  2  3  1  0
  3  4  1  0
  4  5  1  0
  5  6  1  0
  6  7  1  0
  5  8  1  0
  8  9  2  0
  7  3  1  0
  8  3  1  0
  1 10  1  0
  1 11  1  0
  1 12  1  0
  2 13  1  0
  2 14  1  0
  4 15  1  0
  4 16  1  0
  5 17  1  0
  6 18  1  0
  6 19  1  0
M  END
