
     RDKit          3D

 21 21  0  0  0  0  0  0  0  0999 V2000
   -3.0379    0.0127    0.0548 C   0  0  0  0  0  0  0  0  0  0  0  0
   -1.6785    0.6702    0.0768 C   0  0  0  0  0  0  0  0  0  0  0  0
   -0.5937   -0.2288   -0.4754 C   0  0  0  0  0  0  0  0  0  0  0  0
   -0.5296   -1.3940    0.2995 O   0  0  0  0  0  0  0  0  0  0  0  0
    0.5524   -0.8815    1.0503 C   0  0  0  0  0  0  0  0  0  0  0  0
    0.7575    0.2000    0.0205 C   0  0  0  0  0  0  0  0  0  0  0  0
    1.9226   -0.0717   -0.8839 C   0  0  0  0  0  0  0  0  0  0  0  0
    3.1481    0.4276   -0.2032 C   0  0  0  0  0  0  0  0  0  0  0  0
    3.7058   -0.2150    0.6685 O   0  0  0  0  0  0  0  0  0  0  0  0
   -3.3177   -0.3997   -0.9169 H   0  0  0  0  0  0  0  0  0  0  0  0
   -3.1138   -0.7622    0.8419 H   0  0  0  0  0  0  0  0  0  0  0  0
   -3.7740    0.8182    0.2867 H   0  0  0  0  0  0  0  0  0  0  0  0
   -1.7259    1.5918   -0.5333 H   0  0  0  0  0  0  0  0  0  0  0  0
   -1.4336    0.9085    1.1223 H   0  0  0  0  0  0  0  0  0  0  0  0
   -0.6300   -0.4003   -1.5674 H   0  0  0  0  0  0  0  0  0  0  0  0
    0.1374   -0.5145    2.0254 H   0  0  0  0  0  0  0  0  0  0  0  0
    1.3222   -1.6505    1.1126 H   0  0  0  0  0  0  0  0  0  0  0  0
    0.8068    1.2198    0.4556 H   0  0  0  0  0  0  0  0  0  0  0  0
    1.8572    0.4274   -1.8679 H   0  0  0  0  0  0  0  0  0  0  0  0
    2.0632   -1.1571   -1.0748 H   0  0  0  0  0  0  0  0  0  0  0  0
    3.5614    1.3992   -0.4920 H   0  0  0  0  0  0  0  0  0  0  0  0
  1  2  1  0
  2  3  1  0
  3  4  1  0
  4  5  1  0
  5  6  1  0
  6  7  1  0
  7  8  1  0
  8  9  2  0
  6  3  1  0
  1 10  1  0
  1 11  1  0
  1 12  1  0
  2 13  1  0
  2 14  1  0
  3 15  1  0
  5 16  1  0
  5 17  1  0
  6 18  1  0
  7 19  1  0
  7 20  1  0
  8 21  1  0
M  END
