
     RDKit          3D

 21 21  0  0  0  0  0  0  0  0999 V2000
   -2.3971   -0.4505   -2.4716 C   0  0  0  0  0  0  0  0  0  0  0  0
   -1.8287    0.7017   -1.6277 C   0  0  0  0  0  0  0  0  0  0  0  0
   -0.6526    0.2244   -0.8264 C   0  0  0  0  0  0  0  0  0  0  0  0
   -0.8518   -0.8967    0.1412 C   0  0  0  0  0  0  0  0  0  0  0  0
   -0.4246    0.5597    0.5774 C   0  0  0  0  0  0  0  0  0  0  0  0
    1.0013    0.5640    1.0871 C   0  0  0  0  0  0  0  0  0  0  0  0
    2.0953    0.5870    1.4837 C   0  0  0  0  0  0  0  0  0  0  0  0
    3.5223    0.6405    1.9879 C   0  0  0  0  0  0  0  0  0  0  0  0
    3.4894    0.6430    3.3869 O   0  0  0  0  0  0  0  0  0  0  0  0
   -3.4122   -0.1884   -2.8262 H   0  0  0  0  0  0  0  0  0  0  0  0
   -1.7294   -0.7245   -3.2815 H   0  0  0  0  0  0  0  0  0  0  0  0
   -2.4416   -1.3438   -1.7814 H   0  0  0  0  0  0  0  0  0  0  0  0
   -2.6573    1.0763   -0.9988 H   0  0  0  0  0  0  0  0  0  0  0  0
   -1.5633    1.5062   -2.3435 H   0  0  0  0  0  0  0  0  0  0  0  0
    0.2930    0.1250   -1.4470 H   0  0  0  0  0  0  0  0  0  0  0  0
   -0.0713   -1.6713    0.2257 H   0  0  0  0  0  0  0  0  0  0  0  0
   -1.8244   -1.2054    0.5140 H   0  0  0  0  0  0  0  0  0  0  0  0
   -1.1081    1.0388    1.2713 H   0  0  0  0  0  0  0  0  0  0  0  0
    3.9756    1.5798    1.6601 H   0  0  0  0  0  0  0  0  0  0  0  0
    4.0252   -0.2169    1.5449 H   0  0  0  0  0  0  0  0  0  0  0  0
    2.5603    0.4290    3.7238 H   0  0  0  0  0  0  0  0  0  0  0  0
  1  2  1  0
  2  3  1  0
  3  4  1  0
  4  5  1  0
  5  6  1  0
  6  7  3  0
  7  8  1  0
  8  9  1  0
  5  3  1  0
  1 10  1  0
  1 11  1  0
  1 12  1  0
  2 13  1  0
  2 14  1  0
  3 15  1  0
  4 16  1  0
  4 17  1  0
  5 18  1  0
  8 19  1  0
  8 20  1  0
  9 21  1  0
M  END
