
     RDKit          3D

 23 24  0  0  0  0  0  0  0  0999 V2000
   -2.4801    0.9428   -0.1344 C   0  0  0  0  0  0  0  0  0  0  0  0
   -0.9534    1.0986   -0.1545 C   0  0  0  0  0  0  0  0  0  0  0  0
   -0.3592   -0.1526    0.3563 C   0  0  0  0  0  0  0  0  0  0  0  0
   -0.6433   -1.4539   -0.3768 C   0  0  0  0  0  0  0  0  0  0  0  0
    0.8404   -1.7770   -0.2452 C   0  0  0  0  0  0  0  0  0  0  0  0
    1.0165   -0.4877    0.4930 C   0  0  0  0  0  0  0  0  0  0  0  0
    2.1280    0.2523    0.4737 O   0  0  0  0  0  0  0  0  0  0  0  0
    2.3994    0.9718   -0.6585 C   0  0  0  0  0  0  0  0  0  0  0  0
    0.1359   -0.3105    1.7393 C   0  0  0  0  0  0  0  0  0  0  0  0
   -2.8288    0.2770   -0.9456 H   0  0  0  0  0  0  0  0  0  0  0  0
   -2.8869    1.9492   -0.3555 H   0  0  0  0  0  0  0  0  0  0  0  0
   -2.8296    0.5573    0.8389 H   0  0  0  0  0  0  0  0  0  0  0  0
   -0.7058    1.3256   -1.2118 H   0  0  0  0  0  0  0  0  0  0  0  0
   -0.7233    1.9287    0.5369 H   0  0  0  0  0  0  0  0  0  0  0  0
   -0.9823   -1.3207   -1.4204 H   0  0  0  0  0  0  0  0  0  0  0  0
   -1.2673   -2.1400    0.2089 H   0  0  0  0  0  0  0  0  0  0  0  0
    1.0366   -2.6488    0.4078 H   0  0  0  0  0  0  0  0  0  0  0  0
    1.3897   -1.8031   -1.1971 H   0  0  0  0  0  0  0  0  0  0  0  0
    2.5090    0.3169   -1.5684 H   0  0  0  0  0  0  0  0  0  0  0  0
    1.6428    1.7269   -0.9236 H   0  0  0  0  0  0  0  0  0  0  0  0
    3.4040    1.4494   -0.5310 H   0  0  0  0  0  0  0  0  0  0  0  0
    0.3570    0.5295    2.4020 H   0  0  0  0  0  0  0  0  0  0  0  0
   -0.1994   -1.2316    2.2662 H   0  0  0  0  0  0  0  0  0  0  0  0
  1  2  1  0
  2  3  1  0
  3  4  1  0
  4  5  1  0
  5  6  1  0
  6  7  1  0
  7  8  1  0
  6  9  1  0
  6  3  1  0
  9  3  1  0
  1 10  1  0
  1 11  1  0
  1 12  1  0
  2 13  1  0
  2 14  1  0
  4 15  1  0
  4 16  1  0
  5 17  1  0
  5 18  1  0
  8 19  1  0
  8 20  1  0
  8 21  1  0
  9 22  1  0
  9 23  1  0
M  END
