
     RDKit          3D

 20 20  0  0  0  0  0  0  0  0999 V2000
    1.5138   -1.6122   -0.0307 C   0  0  0  0  0  0  0  0  0  0  0  0
    0.2887   -1.0131   -0.6605 C   0  0  0  0  0  0  0  0  0  0  0  0
   -0.0861    0.3297   -0.1225 C   0  0  0  0  0  0  0  0  0  0  0  0
   -1.2087    0.8879   -0.7147 O   0  0  0  0  0  0  0  0  0  0  0  0
   -2.3071    0.0828   -0.5150 C   0  0  0  0  0  0  0  0  0  0  0  0
    0.0221    0.6486    1.3280 C   0  0  0  0  0  0  0  0  0  0  0  0
    0.9478    1.2968    0.3141 C   0  0  0  0  0  0  0  0  0  0  0  0
    0.8037    2.6491    0.1968 O   0  0  0  0  0  0  0  0  0  0  0  0
    1.6818   -1.3502    1.0091 H   0  0  0  0  0  0  0  0  0  0  0  0
    2.3886   -1.2794   -0.6330 H   0  0  0  0  0  0  0  0  0  0  0  0
    1.4980   -2.7223   -0.0930 H   0  0  0  0  0  0  0  0  0  0  0  0
   -0.5501   -1.7182   -0.4200 H   0  0  0  0  0  0  0  0  0  0  0  0
    0.3792   -1.0067   -1.7613 H   0  0  0  0  0  0  0  0  0  0  0  0
   -2.2541   -0.9242   -0.9381 H   0  0  0  0  0  0  0  0  0  0  0  0
   -3.2101    0.6048   -0.9210 H   0  0  0  0  0  0  0  0  0  0  0  0
   -2.5448   -0.0637    0.5687 H   0  0  0  0  0  0  0  0  0  0  0  0
    0.5549   -0.0076    2.0393 H   0  0  0  0  0  0  0  0  0  0  0  0
   -0.7445    1.2693    1.8249 H   0  0  0  0  0  0  0  0  0  0  0  0
    1.9938    0.9234    0.2333 H   0  0  0  0  0  0  0  0  0  0  0  0
    0.8333    3.0051   -0.7044 H   0  0  0  0  0  0  0  0  0  0  0  0
  1  2  1  0
  2  3  1  0
  3  4  1  0
  4  5  1  0
  3  6  1  0
  6  7  1  0
  7  8  1  0
  7  3  1  0
  1  9  1  0
  1 10  1  0
  1 11  1  0
  2 12  1  0
  2 13  1  0
  5 14  1  0
  5 15  1  0
  5 16  1  0
  6 17  1  0
  6 18  1  0
  7 19  1  0
  8 20  1  0
M  END
