
     RDKit          3D

 22 22  0  0  0  0  0  0  0  0999 V2000
    2.3166   -0.5901   -0.5725 C   0  0  0  0  0  0  0  0  0  0  0  0
    0.8453   -0.5643   -0.9224 C   0  0  0  0  0  0  0  0  0  0  0  0
    0.1054    0.3233    0.0551 C   0  0  0  0  0  0  0  0  0  0  0  0
    0.6123    1.7562    0.0403 C   0  0  0  0  0  0  0  0  0  0  0  0
   -0.2181   -0.1697    1.4152 C   0  0  0  0  0  0  0  0  0  0  0  0
   -1.3086    0.0989    0.3849 C   0  0  0  0  0  0  0  0  0  0  0  0
   -2.0638   -1.1175   -0.0273 C   0  0  0  0  0  0  0  0  0  0  0  0
   -2.0900    1.2455    0.5386 O   0  0  0  0  0  0  0  0  0  0  0  0
    2.9485   -0.1290   -1.3749 H   0  0  0  0  0  0  0  0  0  0  0  0
    2.4992   -0.0921    0.4136 H   0  0  0  0  0  0  0  0  0  0  0  0
    2.6127   -1.6655   -0.5066 H   0  0  0  0  0  0  0  0  0  0  0  0
    0.7648   -0.1522   -1.9500 H   0  0  0  0  0  0  0  0  0  0  0  0
    0.4045   -1.5808   -0.9619 H   0  0  0  0  0  0  0  0  0  0  0  0
   -0.0869    2.4088    0.6119 H   0  0  0  0  0  0  0  0  0  0  0  0
    0.7807    2.1214   -0.9886 H   0  0  0  0  0  0  0  0  0  0  0  0
    1.5903    1.7315    0.5759 H   0  0  0  0  0  0  0  0  0  0  0  0
   -0.0185   -1.2138    1.7156 H   0  0  0  0  0  0  0  0  0  0  0  0
   -0.2618    0.5232    2.2770 H   0  0  0  0  0  0  0  0  0  0  0  0
   -1.7647   -1.4700   -1.0326 H   0  0  0  0  0  0  0  0  0  0  0  0
   -3.1656   -0.9258   -0.0935 H   0  0  0  0  0  0  0  0  0  0  0  0
   -1.9728   -1.9364    0.7463 H   0  0  0  0  0  0  0  0  0  0  0  0
   -2.5294    1.3981   -0.3439 H   0  0  0  0  0  0  0  0  0  0  0  0
  1  2  1  0
  2  3  1  0
  3  4  1  0
  3  5  1  0
  5  6  1  0
  6  7  1  0
  6  8  1  0
  6  3  1  0
  1  9  1  0
  1 10  1  0
  1 11  1  0
  2 12  1  0
  2 13  1  0
  4 14  1  0
  4 15  1  0
  4 16  1  0
  5 17  1  0
  5 18  1  0
  7 19  1  0
  7 20  1  0
  7 21  1  0
  8 22  1  0
M  END
