
     RDKit          3D

 21 22  0  0  0  0  0  0  0  0999 V2000
    2.6565    0.6972   -0.0668 C   0  0  0  0  0  0  0  0  0  0  0  0
    1.5816    0.0784   -0.9123 C   0  0  0  0  0  0  0  0  0  0  0  0
    0.5152   -0.6034   -0.1018 C   0  0  0  0  0  0  0  0  0  0  0  0
   -0.4139   -1.1302   -1.0279 O   0  0  0  0  0  0  0  0  0  0  0  0
   -1.4959   -1.4448   -0.2052 C   0  0  0  0  0  0  0  0  0  0  0  0
   -1.6738   -0.2602    0.7136 C   0  0  0  0  0  0  0  0  0  0  0  0
   -2.0789    1.0197    0.0775 C   0  0  0  0  0  0  0  0  0  0  0  0
   -0.7622    1.4824    0.0710 O   0  0  0  0  0  0  0  0  0  0  0  0
   -0.2976    0.3561    0.7280 C   0  0  0  0  0  0  0  0  0  0  0  0
    3.1494   -0.1514    0.4882 H   0  0  0  0  0  0  0  0  0  0  0  0
    2.1830    1.4176    0.6204 H   0  0  0  0  0  0  0  0  0  0  0  0
    3.3837    1.1759   -0.7505 H   0  0  0  0  0  0  0  0  0  0  0  0
    2.0541   -0.6982   -1.5493 H   0  0  0  0  0  0  0  0  0  0  0  0
    1.0734    0.8318   -1.5569 H   0  0  0  0  0  0  0  0  0  0  0  0
    0.9153   -1.3712    0.5654 H   0  0  0  0  0  0  0  0  0  0  0  0
   -2.3859   -1.6936   -0.7861 H   0  0  0  0  0  0  0  0  0  0  0  0
   -1.1447   -2.2884    0.4444 H   0  0  0  0  0  0  0  0  0  0  0  0
   -2.1063   -0.5284    1.6733 H   0  0  0  0  0  0  0  0  0  0  0  0
   -2.6975    1.6478    0.7625 H   0  0  0  0  0  0  0  0  0  0  0  0
   -2.4863    0.9532   -0.9511 H   0  0  0  0  0  0  0  0  0  0  0  0
    0.0308    0.5099    1.7635 H   0  0  0  0  0  0  0  0  0  0  0  0
  1  2  1  0
  2  3  1  0
  3  4  1  0
  4  5  1  0
  5  6  1  0
  6  7  1  0
  7  8  1  0
  8  9  1  0
  9  3  1  0
  9  6  1  0
  1 10  1  0
  1 11  1  0
  1 12  1  0
  2 13  1  0
  2 14  1  0
  3 15  1  0
  5 16  1  0
  5 17  1  0
  6 18  1  0
  7 19  1  0
  7 20  1  0
  9 21  1  0
M  END
