
     RDKit          3D

 22 22  0  0  0  0  0  0  0  0999 V2000
    2.7318   -0.2709    0.4017 C   0  0  0  0  0  0  0  0  0  0  0  0
    1.4879   -0.9655   -0.1453 C   0  0  0  0  0  0  0  0  0  0  0  0
    0.7222    0.0299   -0.9498 C   0  0  0  0  0  0  0  0  0  0  0  0
    0.2714    1.2588   -0.1387 C   0  0  0  0  0  0  0  0  0  0  0  0
    0.5315    1.2840    1.2078 O   0  0  0  0  0  0  0  0  0  0  0  0
   -0.7069    0.3110   -0.7441 C   0  0  0  0  0  0  0  0  0  0  0  0
   -1.5975   -0.5491    0.0891 C   0  0  0  0  0  0  0  0  0  0  0  0
   -2.9939    0.0618    0.0613 C   0  0  0  0  0  0  0  0  0  0  0  0
    3.0068    0.5950   -0.2629 H   0  0  0  0  0  0  0  0  0  0  0  0
    2.5954    0.1099    1.4157 H   0  0  0  0  0  0  0  0  0  0  0  0
    3.5957   -0.9870    0.4451 H   0  0  0  0  0  0  0  0  0  0  0  0
    1.8764   -1.7387   -0.8564 H   0  0  0  0  0  0  0  0  0  0  0  0
    0.8998   -1.4255    0.6722 H   0  0  0  0  0  0  0  0  0  0  0  0
    1.1918    0.2686   -1.9364 H   0  0  0  0  0  0  0  0  0  0  0  0
    0.4531    2.2551   -0.6363 H   0  0  0  0  0  0  0  0  0  0  0  0
    0.2488    0.5113    1.7174 H   0  0  0  0  0  0  0  0  0  0  0  0
   -1.2336    0.7362   -1.6500 H   0  0  0  0  0  0  0  0  0  0  0  0
   -1.3111   -0.6630    1.1299 H   0  0  0  0  0  0  0  0  0  0  0  0
   -1.7174   -1.5643   -0.3850 H   0  0  0  0  0  0  0  0  0  0  0  0
   -3.0564    0.9629    0.7109 H   0  0  0  0  0  0  0  0  0  0  0  0
   -3.2336    0.4417   -0.9734 H   0  0  0  0  0  0  0  0  0  0  0  0
   -3.7621   -0.6623    0.3435 H   0  0  0  0  0  0  0  0  0  0  0  0
  1  2  1  0
  2  3  1  0
  3  4  1  0
  4  5  1  0
  4  6  1  0
  6  7  1  0
  7  8  1  0
  6  3  1  0
  1  9  1  0
  1 10  1  0
  1 11  1  0
  2 12  1  0
  2 13  1  0
  3 14  1  0
  4 15  1  0
  5 16  1  0
  6 17  1  0
  7 18  1  0
  7 19  1  0
  8 20  1  0
  8 21  1  0
  8 22  1  0
M  END
