
     RDKit          3D

 23 24  0  0  0  0  0  0  0  0999 V2000
    3.1574    0.0048   -0.2187 C   0  0  0  0  0  0  0  0  0  0  0  0
    1.8996   -0.7145    0.2817 C   0  0  0  0  0  0  0  0  0  0  0  0
    0.7647    0.2574    0.1387 C   0  0  0  0  0  0  0  0  0  0  0  0
    0.5960    0.6521   -1.2156 O   0  0  0  0  0  0  0  0  0  0  0  0
   -0.7364    0.3896   -1.4554 C   0  0  0  0  0  0  0  0  0  0  0  0
   -0.8459   -1.0446   -0.9084 C   0  0  0  0  0  0  0  0  0  0  0  0
   -0.5834   -0.3326    0.3991 C   0  0  0  0  0  0  0  0  0  0  0  0
   -1.4398    0.8017   -0.1875 C   0  0  0  0  0  0  0  0  0  0  0  0
   -2.9032    0.5917   -0.1189 C   0  0  0  0  0  0  0  0  0  0  0  0
    3.1010    1.0366    0.1998 H   0  0  0  0  0  0  0  0  0  0  0  0
    4.0737   -0.5159    0.1196 H   0  0  0  0  0  0  0  0  0  0  0  0
    3.0633    0.0804   -1.3009 H   0  0  0  0  0  0  0  0  0  0  0  0
    1.7245   -1.6509   -0.2445 H   0  0  0  0  0  0  0  0  0  0  0  0
    2.0636   -0.8621    1.3694 H   0  0  0  0  0  0  0  0  0  0  0  0
    0.9739    1.1732    0.7207 H   0  0  0  0  0  0  0  0  0  0  0  0
   -1.1753    0.5878   -2.3950 H   0  0  0  0  0  0  0  0  0  0  0  0
   -0.0269   -1.6449   -1.3094 H   0  0  0  0  0  0  0  0  0  0  0  0
   -1.8226   -1.5066   -1.0296 H   0  0  0  0  0  0  0  0  0  0  0  0
   -0.8579   -0.7541    1.3140 H   0  0  0  0  0  0  0  0  0  0  0  0
   -1.0966    1.7553    0.2161 H   0  0  0  0  0  0  0  0  0  0  0  0
   -3.4228    1.0167   -1.0001 H   0  0  0  0  0  0  0  0  0  0  0  0
   -3.2165   -0.4672    0.0374 H   0  0  0  0  0  0  0  0  0  0  0  0
   -3.2903    1.1462    0.7622 H   0  0  0  0  0  0  0  0  0  0  0  0
  1  2  1  0
  2  3  1  0
  3  4  1  0
  4  5  1  0
  5  6  1  0
  6  7  1  0
  7  8  1  0
  8  9  1  0
  7  3  1  0
  8  5  1  0
  1 10  1  0
  1 11  1  0
  1 12  1  0
  2 13  1  0
  2 14  1  0
  3 15  1  0
  5 16  1  0
  6 17  1  0
  6 18  1  0
  7 19  1  0
  8 20  1  0
  9 21  1  0
  9 22  1  0
  9 23  1  0
M  END
