
     RDKit          3D

 19 19  0  0  0  0  0  0  0  0999 V2000
    2.0741   -0.7412   -0.1579 C   0  0  0  0  0  0  0  0  0  0  0  0
    0.9839    0.0976   -0.7914 C   0  0  0  0  0  0  0  0  0  0  0  0
    0.0860    0.5825    0.3274 C   0  0  0  0  0  0  0  0  0  0  0  0
    0.8438    1.3303    1.1983 O   0  0  0  0  0  0  0  0  0  0  0  0
   -1.1078    1.2906   -0.1894 C   0  0  0  0  0  0  0  0  0  0  0  0
   -2.1438    0.4701   -0.2757 C   0  0  0  0  0  0  0  0  0  0  0  0
   -1.7529   -0.8979    0.1803 C   0  0  0  0  0  0  0  0  0  0  0  0
   -0.5143   -0.6197    0.9560 C   0  0  0  0  0  0  0  0  0  0  0  0
   -0.0386   -1.2092    1.9092 O   0  0  0  0  0  0  0  0  0  0  0  0
    2.9583   -0.7728   -0.8285 H   0  0  0  0  0  0  0  0  0  0  0  0
    1.7479   -1.7906   -0.0270 H   0  0  0  0  0  0  0  0  0  0  0  0
    2.3463   -0.3732    0.8613 H   0  0  0  0  0  0  0  0  0  0  0  0
    0.4073   -0.5702   -1.4880 H   0  0  0  0  0  0  0  0  0  0  0  0
    1.3649    0.9180   -1.4025 H   0  0  0  0  0  0  0  0  0  0  0  0
    1.0711    2.1795    0.7419 H   0  0  0  0  0  0  0  0  0  0  0  0
   -1.1375    2.3335   -0.4611 H   0  0  0  0  0  0  0  0  0  0  0  0
   -3.1547    0.7094   -0.6224 H   0  0  0  0  0  0  0  0  0  0  0  0
   -1.5054   -1.5476   -0.7098 H   0  0  0  0  0  0  0  0  0  0  0  0
   -2.5285   -1.3891    0.7792 H   0  0  0  0  0  0  0  0  0  0  0  0
  1  2  1  0
  2  3  1  0
  3  4  1  0
  3  5  1  0
  5  6  2  0
  6  7  1  0
  7  8  1  0
  8  9  2  0
  8  3  1  0
  1 10  1  0
  1 11  1  0
  1 12  1  0
  2 13  1  0
  2 14  1  0
  4 15  1  0
  5 16  1  0
  6 17  1  0
  7 18  1  0
  7 19  1  0
M  END
