
     RDKit          3D

 17 17  0  0  0  0  0  0  0  0999 V2000
   -2.5326   -0.5486    1.1312 C   0  0  0  0  0  0  0  0  0  0  0  0
   -2.0902   -0.2234   -0.2764 C   0  0  0  0  0  0  0  0  0  0  0  0
   -0.5990   -0.4321   -0.4530 C   0  0  0  0  0  0  0  0  0  0  0  0
   -0.2272   -0.0967   -1.8535 O   0  0  0  0  0  0  0  0  0  0  0  0
    0.2415    0.6743   -0.6601 C   0  0  0  0  0  0  0  0  0  0  0  0
    1.6983    0.6057   -0.5356 C   0  0  0  0  0  0  0  0  0  0  0  0
    2.9108    0.5422   -0.4441 C   0  0  0  0  0  0  0  0  0  0  0  0
    4.3388    0.4474   -0.3211 C   0  0  0  0  0  0  0  0  0  0  0  0
    4.8712   -0.6648   -0.0695 O   0  0  0  0  0  0  0  0  0  0  0  0
   -2.5888   -1.6495    1.2938 H   0  0  0  0  0  0  0  0  0  0  0  0
   -3.6010   -0.1941    1.2080 H   0  0  0  0  0  0  0  0  0  0  0  0
   -1.9504   -0.0173    1.8922 H   0  0  0  0  0  0  0  0  0  0  0  0
   -2.6913   -0.8560   -0.9589 H   0  0  0  0  0  0  0  0  0  0  0  0
   -2.3699    0.8427   -0.4677 H   0  0  0  0  0  0  0  0  0  0  0  0
   -0.2471   -1.4371   -0.1687 H   0  0  0  0  0  0  0  0  0  0  0  0
   -0.1643    1.7097   -0.6645 H   0  0  0  0  0  0  0  0  0  0  0  0
    5.0012    1.2976   -0.4349 H   0  0  0  0  0  0  0  0  0  0  0  0
  1  2  1  0
  2  3  1  0
  3  4  1  0
  4  5  1  0
  5  6  1  0
  6  7  3  0
  7  8  1  0
  8  9  2  0
  5  3  1  0
  1 10  1  0
  1 11  1  0
  1 12  1  0
  2 13  1  0
  2 14  1  0
  3 15  1  0
  5 16  1  0
  8 17  1  0
M  END
