
     RDKit          3D

 19 19  0  0  0  0  0  0  0  0999 V2000
   -2.6153    0.7026   -0.3122 C   0  0  0  0  0  0  0  0  0  0  0  0
   -1.6463   -0.2771    0.2582 C   0  0  0  0  0  0  0  0  0  0  0  0
   -0.4143   -0.4632   -0.6327 C   0  0  0  0  0  0  0  0  0  0  0  0
    0.4076   -1.3525   -0.0598 O   0  0  0  0  0  0  0  0  0  0  0  0
    1.7463   -1.1833   -0.0798 C   0  0  0  0  0  0  0  0  0  0  0  0
    2.2849    0.1853   -0.1389 C   0  0  0  0  0  0  0  0  0  0  0  0
    1.3370    1.2116   -0.6021 C   0  0  0  0  0  0  0  0  0  0  0  0
    1.6766    2.4035   -0.6605 O   0  0  0  0  0  0  0  0  0  0  0  0
    0.0862    0.7824   -0.9566 O   0  0  0  0  0  0  0  0  0  0  0  0
   -2.5048    1.6811    0.2100 H   0  0  0  0  0  0  0  0  0  0  0  0
   -3.6808    0.3895   -0.1224 H   0  0  0  0  0  0  0  0  0  0  0  0
   -2.5366    0.8434   -1.3995 H   0  0  0  0  0  0  0  0  0  0  0  0
   -1.3176   -0.0055    1.2810 H   0  0  0  0  0  0  0  0  0  0  0  0
   -2.1910   -1.2570    0.3593 H   0  0  0  0  0  0  0  0  0  0  0  0
   -0.8318   -0.9129   -1.5827 H   0  0  0  0  0  0  0  0  0  0  0  0
    2.1828   -1.6941    0.8203 H   0  0  0  0  0  0  0  0  0  0  0  0
    2.1444   -1.7884   -0.9486 H   0  0  0  0  0  0  0  0  0  0  0  0
    2.6620    0.5366    0.8668 H   0  0  0  0  0  0  0  0  0  0  0  0
    3.2107    0.1982   -0.7853 H   0  0  0  0  0  0  0  0  0  0  0  0
  1  2  1  0
  2  3  1  0
  3  4  1  0
  4  5  1  0
  5  6  1  0
  6  7  1  0
  7  8  2  0
  7  9  1  0
  9  3  1  0
  1 10  1  0
  1 11  1  0
  1 12  1  0
  2 13  1  0
  2 14  1  0
  3 15  1  0
  5 16  1  0
  5 17  1  0
  6 18  1  0
  6 19  1  0
M  END
