
     RDKit          3D

 21 22  0  0  0  0  0  0  0  0999 V2000
   -2.7755    0.5029    0.2210 C   0  0  0  0  0  0  0  0  0  0  0  0
   -1.7739   -0.5853    0.4678 C   0  0  0  0  0  0  0  0  0  0  0  0
   -0.3520   -0.0692    0.5021 C   0  0  0  0  0  0  0  0  0  0  0  0
    0.0213    0.5351   -0.6783 O   0  0  0  0  0  0  0  0  0  0  0  0
    1.2361    1.1512   -0.5184 C   0  0  0  0  0  0  0  0  0  0  0  0
    2.1979    0.4509    0.3675 C   0  0  0  0  0  0  0  0  0  0  0  0
    1.9451   -1.0040    0.5491 C   0  0  0  0  0  0  0  0  0  0  0  0
    1.2018   -1.7436   -0.3235 O   0  0  0  0  0  0  0  0  0  0  0  0
    0.5340   -1.2719    0.8034 C   0  0  0  0  0  0  0  0  0  0  0  0
   -2.4396    1.2393   -0.5322 H   0  0  0  0  0  0  0  0  0  0  0  0
   -3.7006    0.0044   -0.1780 H   0  0  0  0  0  0  0  0  0  0  0  0
   -3.0934    0.9841    1.1732 H   0  0  0  0  0  0  0  0  0  0  0  0
   -1.8452   -1.3828   -0.2982 H   0  0  0  0  0  0  0  0  0  0  0  0
   -1.9637   -1.0331    1.4764 H   0  0  0  0  0  0  0  0  0  0  0  0
   -0.2623    0.6947    1.3168 H   0  0  0  0  0  0  0  0  0  0  0  0
    1.7384    1.3757   -1.5024 H   0  0  0  0  0  0  0  0  0  0  0  0
    1.0249    2.1715   -0.0839 H   0  0  0  0  0  0  0  0  0  0  0  0
    3.2525    0.5739    0.0246 H   0  0  0  0  0  0  0  0  0  0  0  0
    2.1811    0.9208    1.3935 H   0  0  0  0  0  0  0  0  0  0  0  0
    2.6917   -1.5275    1.1769 H   0  0  0  0  0  0  0  0  0  0  0  0
    0.1813   -1.9871    1.5572 H   0  0  0  0  0  0  0  0  0  0  0  0
  1  2  1  0
  2  3  1  0
  3  4  1  0
  4  5  1  0
  5  6  1  0
  6  7  1  0
  7  8  1  0
  8  9  1  0
  9  3  1  0
  9  7  1  0
  1 10  1  0
  1 11  1  0
  1 12  1  0
  2 13  1  0
  2 14  1  0
  3 15  1  0
  5 16  1  0
  5 17  1  0
  6 18  1  0
  6 19  1  0
  7 20  1  0
  9 21  1  0
M  END
