
     RDKit          3D

 22 23  0  0  0  0  0  0  0  0999 V2000
    2.5836    0.3830    0.1421 C   0  0  0  0  0  0  0  0  0  0  0  0
    1.5812   -0.4158   -0.7018 C   0  0  0  0  0  0  0  0  0  0  0  0
    0.2357    0.1863   -0.5250 C   0  0  0  0  0  0  0  0  0  0  0  0
   -0.2895    0.1963    0.9051 C   0  0  0  0  0  0  0  0  0  0  0  0
   -1.5347    0.9909    0.6914 C   0  0  0  0  0  0  0  0  0  0  0  0
   -2.1049    0.2296   -0.5223 C   0  0  0  0  0  0  0  0  0  0  0  0
   -0.9567   -0.6975   -0.7833 C   0  0  0  0  0  0  0  0  0  0  0  0
   -0.7211   -1.2406    0.6333 C   0  0  0  0  0  0  0  0  0  0  0  0
    3.2508    0.9977   -0.5058 H   0  0  0  0  0  0  0  0  0  0  0  0
    3.1684   -0.2871    0.7875 H   0  0  0  0  0  0  0  0  0  0  0  0
    2.0616    1.1086    0.8028 H   0  0  0  0  0  0  0  0  0  0  0  0
    1.8809   -0.2780   -1.7610 H   0  0  0  0  0  0  0  0  0  0  0  0
    1.6491   -1.4903   -0.4676 H   0  0  0  0  0  0  0  0  0  0  0  0
    0.1857    1.1960   -0.9569 H   0  0  0  0  0  0  0  0  0  0  0  0
    0.3731    0.3933    1.6960 H   0  0  0  0  0  0  0  0  0  0  0  0
   -2.2289    1.0220    1.5171 H   0  0  0  0  0  0  0  0  0  0  0  0
   -1.2256    2.0023    0.3213 H   0  0  0  0  0  0  0  0  0  0  0  0
   -2.9600   -0.3441   -0.1250 H   0  0  0  0  0  0  0  0  0  0  0  0
   -2.3434    0.9059   -1.3368 H   0  0  0  0  0  0  0  0  0  0  0  0
   -0.9629   -1.3776   -1.5857 H   0  0  0  0  0  0  0  0  0  0  0  0
   -1.6955   -1.4859    1.0777 H   0  0  0  0  0  0  0  0  0  0  0  0
    0.0531   -1.9949    0.6968 H   0  0  0  0  0  0  0  0  0  0  0  0
  1  2  1  0
  2  3  1  0
  3  4  1  0
  4  5  1  0
  5  6  1  0
  6  7  1  0
  7  8  1  0
  7  3  1  0
  8  4  1  0
  1  9  1  0
  1 10  1  0
  1 11  1  0
  2 12  1  0
  2 13  1  0
  3 14  1  0
  4 15  1  0
  5 16  1  0
  5 17  1  0
  6 18  1  0
  6 19  1  0
  7 20  1  0
  8 21  1  0
  8 22  1  0
M  END
