
     RDKit          3D

 25 25  0  0  0  0  0  0  0  0999 V2000
    2.8591   -0.4442    0.5839 C   0  0  0  0  0  0  0  0  0  0  0  0
    2.2303    0.4985   -0.3985 C   0  0  0  0  0  0  0  0  0  0  0  0
    0.7514    0.6072   -0.2736 C   0  0  0  0  0  0  0  0  0  0  0  0
    0.2958    1.0980    1.0789 C   0  0  0  0  0  0  0  0  0  0  0  0
   -1.2032    0.7789    0.9811 C   0  0  0  0  0  0  0  0  0  0  0  0
   -1.1939   -0.3999    0.0464 C   0  0  0  0  0  0  0  0  0  0  0  0
   -1.7557   -1.5836    0.8023 C   0  0  0  0  0  0  0  0  0  0  0  0
   -2.0830   -0.1187   -1.1564 C   0  0  0  0  0  0  0  0  0  0  0  0
    0.0907   -0.6007   -0.3849 O   0  0  0  0  0  0  0  0  0  0  0  0
    3.9734   -0.3703    0.4263 H   0  0  0  0  0  0  0  0  0  0  0  0
    2.6116   -1.4995    0.3222 H   0  0  0  0  0  0  0  0  0  0  0  0
    2.6780   -0.2059    1.6304 H   0  0  0  0  0  0  0  0  0  0  0  0
    2.6636    1.5105   -0.2713 H   0  0  0  0  0  0  0  0  0  0  0  0
    2.4776    0.1612   -1.4105 H   0  0  0  0  0  0  0  0  0  0  0  0
    0.3672    1.2910   -1.0267 H   0  0  0  0  0  0  0  0  0  0  0  0
    0.4323    2.1651    1.2367 H   0  0  0  0  0  0  0  0  0  0  0  0
    0.6743    0.4644    1.9030 H   0  0  0  0  0  0  0  0  0  0  0  0
   -1.6468    1.6485    0.4429 H   0  0  0  0  0  0  0  0  0  0  0  0
   -1.6496    0.5823    1.9555 H   0  0  0  0  0  0  0  0  0  0  0  0
   -2.8142   -1.3314    1.0652 H   0  0  0  0  0  0  0  0  0  0  0  0
   -1.7618   -2.5011    0.2150 H   0  0  0  0  0  0  0  0  0  0  0  0
   -1.2124   -1.6414    1.7606 H   0  0  0  0  0  0  0  0  0  0  0  0
   -3.0220    0.3235   -0.7845 H   0  0  0  0  0  0  0  0  0  0  0  0
   -2.2497   -1.0284   -1.7480 H   0  0  0  0  0  0  0  0  0  0  0  0
   -1.5131    0.5958   -1.7986 H   0  0  0  0  0  0  0  0  0  0  0  0
  1  2  1  0
  2  3  1  0
  3  4  1  0
  4  5  1  0
  5  6  1  0
  6  7  1  0
  6  8  1  0
  6  9  1  0
  9  3  1  0
  1 10  1  0
  1 11  1  0
  1 12  1  0
  2 13  1  0
  2 14  1  0
  3 15  1  0
  4 16  1  0
  4 17  1  0
  5 18  1  0
  5 19  1  0
  7 20  1  0
  7 21  1  0
  7 22  1  0
  8 23  1  0
  8 24  1  0
  8 25  1  0
M  END
