
     RDKit          3D

 25 26  0  0  0  0  0  0  0  0999 V2000
   -1.9123   -1.6327   -0.5564 C   0  0  0  0  0  0  0  0  0  0  0  0
   -0.5763   -1.5933    0.1108 C   0  0  0  0  0  0  0  0  0  0  0  0
   -0.0135   -0.2166    0.2697 C   0  0  0  0  0  0  0  0  0  0  0  0
    1.3577   -0.2143    0.9581 C   0  0  0  0  0  0  0  0  0  0  0  0
    2.2605   -1.0419    0.0671 C   0  0  0  0  0  0  0  0  0  0  0  0
   -0.9576    0.8824    0.5154 C   0  0  0  0  0  0  0  0  0  0  0  0
   -0.5266    2.3229    0.4991 C   0  0  0  0  0  0  0  0  0  0  0  0
    0.3708    2.1015   -0.6923 C   0  0  0  0  0  0  0  0  0  0  0  0
   -0.2205    0.7236   -0.8332 C   0  0  0  0  0  0  0  0  0  0  0  0
   -2.2027   -2.7222   -0.6192 H   0  0  0  0  0  0  0  0  0  0  0  0
   -1.9470   -1.2067   -1.5596 H   0  0  0  0  0  0  0  0  0  0  0  0
   -2.6834   -1.1967    0.1397 H   0  0  0  0  0  0  0  0  0  0  0  0
    0.1543   -2.2127   -0.4753 H   0  0  0  0  0  0  0  0  0  0  0  0
   -0.6777   -2.1101    1.0927 H   0  0  0  0  0  0  0  0  0  0  0  0
    1.2167   -0.7654    1.9071 H   0  0  0  0  0  0  0  0  0  0  0  0
    1.7373    0.8120    1.1052 H   0  0  0  0  0  0  0  0  0  0  0  0
    1.9788   -0.7964   -0.9782 H   0  0  0  0  0  0  0  0  0  0  0  0
    2.0389   -2.1053    0.2957 H   0  0  0  0  0  0  0  0  0  0  0  0
    3.3293   -0.8524    0.2480 H   0  0  0  0  0  0  0  0  0  0  0  0
   -2.0500    0.7038    0.5185 H   0  0  0  0  0  0  0  0  0  0  0  0
    0.0003    2.6718    1.4271 H   0  0  0  0  0  0  0  0  0  0  0  0
   -1.3557    3.0324    0.2389 H   0  0  0  0  0  0  0  0  0  0  0  0
    1.4279    2.1559   -0.3961 H   0  0  0  0  0  0  0  0  0  0  0  0
    0.1101    2.7501   -1.5692 H   0  0  0  0  0  0  0  0  0  0  0  0
   -0.8591    0.5105   -1.7138 H   0  0  0  0  0  0  0  0  0  0  0  0
  1  2  1  0
  2  3  1  0
  3  4  1  0
  4  5  1  0
  3  6  1  0
  6  7  1  0
  7  8  1  0
  8  9  1  0
  9  3  1  0
  9  6  1  0
  1 10  1  0
  1 11  1  0
  1 12  1  0
  2 13  1  0
  2 14  1  0
  4 15  1  0
  4 16  1  0
  5 17  1  0
  5 18  1  0
  5 19  1  0
  6 20  1  0
  7 21  1  0
  7 22  1  0
  8 23  1  0
  8 24  1  0
  9 25  1  0
M  END
