
     RDKit          3D

 23 23  0  0  0  0  0  0  0  0999 V2000
   -2.1780   -1.2618    0.0256 C   0  0  0  0  0  0  0  0  0  0  0  0
   -1.5913   -0.0931    0.7842 C   0  0  0  0  0  0  0  0  0  0  0  0
   -0.3344    0.4197    0.1111 C   0  0  0  0  0  0  0  0  0  0  0  0
    0.7563   -0.5931    0.0012 C   0  0  0  0  0  0  0  0  0  0  0  0
    1.0905   -0.9968    1.3047 O   0  0  0  0  0  0  0  0  0  0  0  0
    1.9894   -0.0870   -0.6913 C   0  0  0  0  0  0  0  0  0  0  0  0
    2.9248   -1.1201   -0.7337 O   0  0  0  0  0  0  0  0  0  0  0  0
    0.0320    1.8442    0.5020 C   0  0  0  0  0  0  0  0  0  0  0  0
   -0.5372    1.4920   -0.8789 C   0  0  0  0  0  0  0  0  0  0  0  0
   -3.1180   -1.5436    0.5808 H   0  0  0  0  0  0  0  0  0  0  0  0
   -2.5399   -0.9290   -0.9774 H   0  0  0  0  0  0  0  0  0  0  0  0
   -1.4986   -2.1123   -0.0714 H   0  0  0  0  0  0  0  0  0  0  0  0
   -2.3767    0.6816    0.8661 H   0  0  0  0  0  0  0  0  0  0  0  0
   -1.3706   -0.4323    1.8234 H   0  0  0  0  0  0  0  0  0  0  0  0
    0.3716   -1.4647   -0.5659 H   0  0  0  0  0  0  0  0  0  0  0  0
    1.3229   -1.9579    1.3369 H   0  0  0  0  0  0  0  0  0  0  0  0
    2.4601    0.7664   -0.2138 H   0  0  0  0  0  0  0  0  0  0  0  0
    1.7563    0.1789   -1.7375 H   0  0  0  0  0  0  0  0  0  0  0  0
    3.8214   -0.8405   -0.4188 H   0  0  0  0  0  0  0  0  0  0  0  0
    1.0875    2.1355    0.5611 H   0  0  0  0  0  0  0  0  0  0  0  0
   -0.6337    2.3913    1.2061 H   0  0  0  0  0  0  0  0  0  0  0  0
   -1.5808    1.8469   -1.0911 H   0  0  0  0  0  0  0  0  0  0  0  0
    0.1464    1.6756   -1.7234 H   0  0  0  0  0  0  0  0  0  0  0  0
  1  2  1  0
  2  3  1  0
  3  4  1  0
  4  5  1  0
  4  6  1  0
  6  7  1  0
  3  8  1  0
  8  9  1  0
  9  3  1  0
  1 10  1  0
  1 11  1  0
  1 12  1  0
  2 13  1  0
  2 14  1  0
  4 15  1  0
  5 16  1  0
  6 17  1  0
  6 18  1  0
  7 19  1  0
  8 20  1  0
  8 21  1  0
  9 22  1  0
  9 23  1  0
M  END
