
     RDKit          3D

 23 24  0  0  0  0  0  0  0  0999 V2000
    2.8423    0.4344   -0.0234 C   0  0  0  0  0  0  0  0  0  0  0  0
    1.7398   -0.3579    0.6315 C   0  0  0  0  0  0  0  0  0  0  0  0
    0.4004    0.3281    0.4279 C   0  0  0  0  0  0  0  0  0  0  0  0
   -0.0180    0.5107   -0.9636 C   0  0  0  0  0  0  0  0  0  0  0  0
   -1.2558    0.9599   -1.3434 O   0  0  0  0  0  0  0  0  0  0  0  0
   -1.9940    0.3024   -0.3322 C   0  0  0  0  0  0  0  0  0  0  0  0
   -2.3057    1.3456    0.7502 C   0  0  0  0  0  0  0  0  0  0  0  0
   -0.7538   -0.4720   -0.0178 C   0  0  0  0  0  0  0  0  0  0  0  0
   -0.6180   -1.9108   -0.4265 C   0  0  0  0  0  0  0  0  0  0  0  0
    2.6747    0.3667   -1.1258 H   0  0  0  0  0  0  0  0  0  0  0  0
    2.8064    1.5061    0.2279 H   0  0  0  0  0  0  0  0  0  0  0  0
    3.8065   -0.0513    0.1790 H   0  0  0  0  0  0  0  0  0  0  0  0
    1.9151   -0.4829    1.7301 H   0  0  0  0  0  0  0  0  0  0  0  0
    1.6710   -1.3508    0.1915 H   0  0  0  0  0  0  0  0  0  0  0  0
    0.1849    1.0702    1.2318 H   0  0  0  0  0  0  0  0  0  0  0  0
    0.5909    0.0820   -1.7673 H   0  0  0  0  0  0  0  0  0  0  0  0
   -2.8673   -0.2485   -0.6784 H   0  0  0  0  0  0  0  0  0  0  0  0
   -1.5043    2.1326    0.7589 H   0  0  0  0  0  0  0  0  0  0  0  0
   -2.4126    0.8665    1.7362 H   0  0  0  0  0  0  0  0  0  0  0  0
   -3.2284    1.8907    0.4272 H   0  0  0  0  0  0  0  0  0  0  0  0
   -0.0229   -2.5061    0.3095 H   0  0  0  0  0  0  0  0  0  0  0  0
   -1.5900   -2.3934   -0.5280 H   0  0  0  0  0  0  0  0  0  0  0  0
   -0.0613   -2.0221   -1.3955 H   0  0  0  0  0  0  0  0  0  0  0  0
  1  2  1  0
  2  3  1  0
  3  4  1  0
  4  5  1  0
  5  6  1  0
  6  7  1  0
  6  8  1  0
  8  9  1  0
  8  3  1  0
  8  4  1  0
  1 10  1  0
  1 11  1  0
  1 12  1  0
  2 13  1  0
  2 14  1  0
  3 15  1  0
  4 16  1  0
  6 17  1  0
  7 18  1  0
  7 19  1  0
  7 20  1  0
  9 21  1  0
  9 22  1  0
  9 23  1  0
M  END
