
     RDKit          3D

 20 21  0  0  0  0  0  0  0  0999 V2000
    2.4922   -0.6192    0.1102 C   0  0  0  0  0  0  0  0  0  0  0  0
    1.5878    0.5578   -0.1837 C   0  0  0  0  0  0  0  0  0  0  0  0
    0.1579    0.1348   -0.2635 C   0  0  0  0  0  0  0  0  0  0  0  0
   -0.4001   -0.4989    0.9926 C   0  0  0  0  0  0  0  0  0  0  0  0
   -1.7912   -0.8668    0.5277 C   0  0  0  0  0  0  0  0  0  0  0  0
   -2.1808    0.5380    0.0180 C   0  0  0  0  0  0  0  0  0  0  0  0
   -0.8156    1.1803    0.1884 C   0  0  0  0  0  0  0  0  0  0  0  0
   -0.5101    0.8033    1.5094 O   0  0  0  0  0  0  0  0  0  0  0  0
    3.1806   -0.7893   -0.7427 H   0  0  0  0  0  0  0  0  0  0  0  0
    1.8645   -1.5211    0.2278 H   0  0  0  0  0  0  0  0  0  0  0  0
    3.0908   -0.4987    1.0146 H   0  0  0  0  0  0  0  0  0  0  0  0
    1.8475    1.0529   -1.1422 H   0  0  0  0  0  0  0  0  0  0  0  0
    1.6681    1.2819    0.6736 H   0  0  0  0  0  0  0  0  0  0  0  0
   -0.1359   -0.4459   -1.1547 H   0  0  0  0  0  0  0  0  0  0  0  0
    0.1821   -1.2093    1.5198 H   0  0  0  0  0  0  0  0  0  0  0  0
   -2.4489   -1.2018    1.3202 H   0  0  0  0  0  0  0  0  0  0  0  0
   -1.6794   -1.5693   -0.3191 H   0  0  0  0  0  0  0  0  0  0  0  0
   -2.9453    0.9897    0.6801 H   0  0  0  0  0  0  0  0  0  0  0  0
   -2.4782    0.4853   -1.0390 H   0  0  0  0  0  0  0  0  0  0  0  0
   -0.6860    2.1962   -0.0899 H   0  0  0  0  0  0  0  0  0  0  0  0
  1  2  1  0
  2  3  1  0
  3  4  1  0
  4  5  1  0
  5  6  1  0
  6  7  1  0
  7  8  1  0
  7  3  1  0
  8  4  1  0
  1  9  1  0
  1 10  1  0
  1 11  1  0
  2 12  1  0
  2 13  1  0
  3 14  1  0
  4 15  1  0
  5 16  1  0
  5 17  1  0
  6 18  1  0
  6 19  1  0
  7 20  1  0
M  END
