
     RDKit          3D

 25 25  0  0  0  0  0  0  0  0999 V2000
   -1.9832    1.6087    0.4175 C   0  0  0  0  0  0  0  0  0  0  0  0
   -1.8534    0.4108   -0.4640 C   0  0  0  0  0  0  0  0  0  0  0  0
   -0.5354   -0.2909   -0.3174 C   0  0  0  0  0  0  0  0  0  0  0  0
   -0.5335   -1.4892   -1.2678 C   0  0  0  0  0  0  0  0  0  0  0  0
   -0.4400   -0.8817    1.0850 C   0  0  0  0  0  0  0  0  0  0  0  0
    1.0859   -0.8387    1.2445 C   0  0  0  0  0  0  0  0  0  0  0  0
    1.3474    0.5124    0.6104 C   0  0  0  0  0  0  0  0  0  0  0  0
    2.8137    0.7036    0.2960 C   0  0  0  0  0  0  0  0  0  0  0  0
    0.5542    0.5044   -0.5014 O   0  0  0  0  0  0  0  0  0  0  0  0
   -0.9945    2.1031    0.5093 H   0  0  0  0  0  0  0  0  0  0  0  0
   -2.2896    1.3025    1.4464 H   0  0  0  0  0  0  0  0  0  0  0  0
   -2.7449    2.3253    0.0302 H   0  0  0  0  0  0  0  0  0  0  0  0
   -2.6829   -0.2824   -0.2185 H   0  0  0  0  0  0  0  0  0  0  0  0
   -2.0015    0.6774   -1.5427 H   0  0  0  0  0  0  0  0  0  0  0  0
    0.5328   -1.8092   -1.4536 H   0  0  0  0  0  0  0  0  0  0  0  0
   -1.0379   -1.2281   -2.2378 H   0  0  0  0  0  0  0  0  0  0  0  0
   -1.0226   -2.3568   -0.7870 H   0  0  0  0  0  0  0  0  0  0  0  0
   -0.8237   -1.9007    1.1400 H   0  0  0  0  0  0  0  0  0  0  0  0
   -0.9171   -0.1723    1.7646 H   0  0  0  0  0  0  0  0  0  0  0  0
    1.3855   -0.8826    2.3029 H   0  0  0  0  0  0  0  0  0  0  0  0
    1.5352   -1.6020    0.6072 H   0  0  0  0  0  0  0  0  0  0  0  0
    1.0843    1.2722    1.3711 H   0  0  0  0  0  0  0  0  0  0  0  0
    3.1755    0.0140   -0.4874 H   0  0  0  0  0  0  0  0  0  0  0  0
    2.9401    1.7653   -0.0002 H   0  0  0  0  0  0  0  0  0  0  0  0
    3.4056    0.5348    1.2050 H   0  0  0  0  0  0  0  0  0  0  0  0
  1  2  1  0
  2  3  1  0
  3  4  1  0
  3  5  1  0
  5  6  1  0
  6  7  1  0
  7  8  1  0
  7  9  1  0
  9  3  1  0
  1 10  1  0
  1 11  1  0
  1 12  1  0
  2 13  1  0
  2 14  1  0
  4 15  1  0
  4 16  1  0
  4 17  1  0
  5 18  1  0
  5 19  1  0
  6 20  1  0
  6 21  1  0
  7 22  1  0
  8 23  1  0
  8 24  1  0
  8 25  1  0
M  END
