
     RDKit          3D

 20 22  0  0  0  0  0  0  0  0999 V2000
    2.4613    0.2430    0.5099 C   0  0  0  0  0  0  0  0  0  0  0  0
    1.3652    0.5389   -0.5210 C   0  0  0  0  0  0  0  0  0  0  0  0
    0.1046   -0.0744   -0.0043 C   0  0  0  0  0  0  0  0  0  0  0  0
   -0.0306   -1.5143    0.2601 C   0  0  0  0  0  0  0  0  0  0  0  0
   -0.8026   -0.8763   -0.8415 C   0  0  0  0  0  0  0  0  0  0  0  0
   -1.9234    0.0815   -0.5287 C   0  0  0  0  0  0  0  0  0  0  0  0
   -2.3074    0.3544    0.8666 C   0  0  0  0  0  0  0  0  0  0  0  0
   -0.9972    0.8684    0.4052 C   0  0  0  0  0  0  0  0  0  0  0  0
    3.3315    0.8698    0.2867 H   0  0  0  0  0  0  0  0  0  0  0  0
    2.0281    0.5040    1.5118 H   0  0  0  0  0  0  0  0  0  0  0  0
    2.6697   -0.8352    0.4951 H   0  0  0  0  0  0  0  0  0  0  0  0
    1.7109    0.0922   -1.4765 H   0  0  0  0  0  0  0  0  0  0  0  0
    1.2393    1.6173   -0.6564 H   0  0  0  0  0  0  0  0  0  0  0  0
    0.8035   -2.1591   -0.0737 H   0  0  0  0  0  0  0  0  0  0  0  0
   -0.5152   -1.8572    1.1907 H   0  0  0  0  0  0  0  0  0  0  0  0
   -0.6078   -1.1113   -1.8945 H   0  0  0  0  0  0  0  0  0  0  0  0
   -2.3206    0.6723   -1.3540 H   0  0  0  0  0  0  0  0  0  0  0  0
   -3.0899    1.1041    1.0280 H   0  0  0  0  0  0  0  0  0  0  0  0
   -2.2658   -0.4518    1.6238 H   0  0  0  0  0  0  0  0  0  0  0  0
   -0.8537    1.9338    0.2437 H   0  0  0  0  0  0  0  0  0  0  0  0
  1  2  1  0
  2  3  1  0
  3  4  1  0
  4  5  1  0
  5  6  1  0
  6  7  1  0
  7  8  1  0
  5  3  1  0
  8  6  1  0
  8  3  1  0
  1  9  1  0
  1 10  1  0
  1 11  1  0
  2 12  1  0
  2 13  1  0
  4 14  1  0
  4 15  1  0
  5 16  1  0
  6 17  1  0
  7 18  1  0
  7 19  1  0
  8 20  1  0
M  END
