
     RDKit          3D

 23 23  0  0  0  0  0  0  0  0999 V2000
   -3.4110   -0.3684    0.3075 C   0  0  0  0  0  0  0  0  0  0  0  0
   -2.1715    0.5237    0.4507 C   0  0  0  0  0  0  0  0  0  0  0  0
   -0.9632   -0.3768    0.4779 C   0  0  0  0  0  0  0  0  0  0  0  0
   -0.8229   -1.1505   -0.6777 O   0  0  0  0  0  0  0  0  0  0  0  0
    0.1350   -0.1606   -0.4974 C   0  0  0  0  0  0  0  0  0  0  0  0
    0.0561    1.1055   -1.3034 C   0  0  0  0  0  0  0  0  0  0  0  0
    1.5137   -0.6693   -0.2357 C   0  0  0  0  0  0  0  0  0  0  0  0
    2.4076    0.3851   -0.0675 O   0  0  0  0  0  0  0  0  0  0  0  0
    3.7073   -0.0998    0.1793 C   0  0  0  0  0  0  0  0  0  0  0  0
   -3.3809   -1.2001    1.0283 H   0  0  0  0  0  0  0  0  0  0  0  0
   -4.2875    0.3060    0.4457 H   0  0  0  0  0  0  0  0  0  0  0  0
   -3.4813   -0.7656   -0.7197 H   0  0  0  0  0  0  0  0  0  0  0  0
   -2.2588    1.1639    1.3393 H   0  0  0  0  0  0  0  0  0  0  0  0
   -2.1575    1.1851   -0.4446 H   0  0  0  0  0  0  0  0  0  0  0  0
   -0.6621   -0.8000    1.4550 H   0  0  0  0  0  0  0  0  0  0  0  0
    1.0459    1.3823   -1.7066 H   0  0  0  0  0  0  0  0  0  0  0  0
   -0.6768    0.9113   -2.1312 H   0  0  0  0  0  0  0  0  0  0  0  0
   -0.2983    1.9797   -0.7144 H   0  0  0  0  0  0  0  0  0  0  0  0
    1.5905   -1.3553    0.6203 H   0  0  0  0  0  0  0  0  0  0  0  0
    1.8991   -1.2516   -1.1231 H   0  0  0  0  0  0  0  0  0  0  0  0
    4.4157    0.7382    0.3127 H   0  0  0  0  0  0  0  0  0  0  0  0
    3.7162   -0.7912    1.0526 H   0  0  0  0  0  0  0  0  0  0  0  0
    4.0849   -0.6913   -0.6935 H   0  0  0  0  0  0  0  0  0  0  0  0
  1  2  1  0
  2  3  1  0
  3  4  1  0
  4  5  1  0
  5  6  1  0
  5  7  1  0
  7  8  1  0
  8  9  1  0
  5  3  1  0
  1 10  1  0
  1 11  1  0
  1 12  1  0
  2 13  1  0
  2 14  1  0
  3 15  1  0
  6 16  1  0
  6 17  1  0
  6 18  1  0
  7 19  1  0
  7 20  1  0
  9 21  1  0
  9 22  1  0
  9 23  1  0
M  END
