
     RDKit          3D

 23 24  0  0  0  0  0  0  0  0999 V2000
    3.2490   -0.0684    0.3105 C   0  0  0  0  0  0  0  0  0  0  0  0
    2.0971    0.8755    0.4305 C   0  0  0  0  0  0  0  0  0  0  0  0
    0.8062    0.2539   -0.0245 C   0  0  0  0  0  0  0  0  0  0  0  0
    0.6147   -0.9730   -0.4903 C   0  0  0  0  0  0  0  0  0  0  0  0
   -0.8159   -1.2028   -0.8334 C   0  0  0  0  0  0  0  0  0  0  0  0
   -1.4912   -0.0829   -0.1216 C   0  0  0  0  0  0  0  0  0  0  0  0
   -2.8953    0.2973   -0.3670 C   0  0  0  0  0  0  0  0  0  0  0  0
   -2.5016   -0.3623    0.8958 C   0  0  0  0  0  0  0  0  0  0  0  0
   -0.4713    1.0121    0.0076 C   0  0  0  0  0  0  0  0  0  0  0  0
    3.2123   -0.6629   -0.6247 H   0  0  0  0  0  0  0  0  0  0  0  0
    4.1836    0.5597    0.2528 H   0  0  0  0  0  0  0  0  0  0  0  0
    3.3228   -0.7212    1.2119 H   0  0  0  0  0  0  0  0  0  0  0  0
    1.9411    1.1724    1.4907 H   0  0  0  0  0  0  0  0  0  0  0  0
    2.3044    1.7981   -0.1347 H   0  0  0  0  0  0  0  0  0  0  0  0
    1.4395   -1.6835   -0.5885 H   0  0  0  0  0  0  0  0  0  0  0  0
   -0.9704   -1.1964   -1.9381 H   0  0  0  0  0  0  0  0  0  0  0  0
   -1.1278   -2.1774   -0.4038 H   0  0  0  0  0  0  0  0  0  0  0  0
   -3.4370   -0.2347   -1.1650 H   0  0  0  0  0  0  0  0  0  0  0  0
   -3.1123    1.3879   -0.3434 H   0  0  0  0  0  0  0  0  0  0  0  0
   -2.7816   -1.4447    1.0512 H   0  0  0  0  0  0  0  0  0  0  0  0
   -2.4751    0.1938    1.8379 H   0  0  0  0  0  0  0  0  0  0  0  0
   -0.5853    1.5826    0.9695 H   0  0  0  0  0  0  0  0  0  0  0  0
   -0.5058    1.6769   -0.8787 H   0  0  0  0  0  0  0  0  0  0  0  0
  1  2  1  0
  2  3  1  0
  3  4  2  0
  4  5  1  0
  5  6  1  0
  6  7  1  0
  7  8  1  0
  6  9  1  0
  9  3  1  0
  8  6  1  0
  1 10  1  0
  1 11  1  0
  1 12  1  0
  2 13  1  0
  2 14  1  0
  4 15  1  0
  5 16  1  0
  5 17  1  0
  7 18  1  0
  7 19  1  0
  8 20  1  0
  8 21  1  0
  9 22  1  0
  9 23  1  0
M  END
