
     RDKit          3D

 21 22  0  0  0  0  0  0  0  0999 V2000
   -2.8927    0.7220   -0.1020 C   0  0  0  0  0  0  0  0  0  0  0  0
   -1.9739   -0.4999   -0.1044 C   0  0  0  0  0  0  0  0  0  0  0  0
   -0.6855   -0.0512    0.5565 C   0  0  0  0  0  0  0  0  0  0  0  0
   -0.1591    1.0123   -0.2144 O   0  0  0  0  0  0  0  0  0  0  0  0
    0.8193    0.1835   -0.6960 C   0  0  0  0  0  0  0  0  0  0  0  0
    2.1900    0.6767   -0.2550 C   0  0  0  0  0  0  0  0  0  0  0  0
    2.6410   -0.4954    0.6171 C   0  0  0  0  0  0  0  0  0  0  0  0
    1.4738   -0.8420    1.2943 O   0  0  0  0  0  0  0  0  0  0  0  0
    0.5079   -0.9044    0.2958 C   0  0  0  0  0  0  0  0  0  0  0  0
   -2.2588    1.6487   -0.1743 H   0  0  0  0  0  0  0  0  0  0  0  0
   -3.4080    0.7758    0.8667 H   0  0  0  0  0  0  0  0  0  0  0  0
   -3.5409    0.7282   -0.9799 H   0  0  0  0  0  0  0  0  0  0  0  0
   -1.8005   -0.7778   -1.1711 H   0  0  0  0  0  0  0  0  0  0  0  0
   -2.4344   -1.3376    0.4475 H   0  0  0  0  0  0  0  0  0  0  0  0
   -0.8670    0.2969    1.5692 H   0  0  0  0  0  0  0  0  0  0  0  0
    0.7474   -0.1443   -1.7386 H   0  0  0  0  0  0  0  0  0  0  0  0
    2.1231    1.5543    0.3989 H   0  0  0  0  0  0  0  0  0  0  0  0
    2.8295    0.8278   -1.1243 H   0  0  0  0  0  0  0  0  0  0  0  0
    3.4347   -0.1635    1.2949 H   0  0  0  0  0  0  0  0  0  0  0  0
    2.9381   -1.3009   -0.0678 H   0  0  0  0  0  0  0  0  0  0  0  0
    0.3160   -1.9093   -0.1265 H   0  0  0  0  0  0  0  0  0  0  0  0
  1  2  1  0
  2  3  1  0
  3  4  1  0
  4  5  1  0
  5  6  1  0
  6  7  1  0
  7  8  1  0
  8  9  1  0
  9  3  1  0
  9  5  1  0
  1 10  1  0
  1 11  1  0
  1 12  1  0
  2 13  1  0
  2 14  1  0
  3 15  1  0
  5 16  1  0
  6 17  1  0
  6 18  1  0
  7 19  1  0
  7 20  1  0
  9 21  1  0
M  END
