
     RDKit          3D

 21 22  0  0  0  0  0  0  0  0999 V2000
   -2.6303    0.3177    0.2722 C   0  0  0  0  0  0  0  0  0  0  0  0
   -1.5434   -0.6991    0.4083 C   0  0  0  0  0  0  0  0  0  0  0  0
   -0.2299   -0.2287   -0.2254 C   0  0  0  0  0  0  0  0  0  0  0  0
    0.3186    1.0209    0.3633 C   0  0  0  0  0  0  0  0  0  0  0  0
    1.7569    1.2681    0.1307 C   0  0  0  0  0  0  0  0  0  0  0  0
    2.4605    0.3488   -0.5468 O   0  0  0  0  0  0  0  0  0  0  0  0
    2.0791   -0.9443   -0.5227 C   0  0  0  0  0  0  0  0  0  0  0  0
    0.6158   -1.1845   -0.7912 C   0  0  0  0  0  0  0  0  0  0  0  0
   -0.0993   -0.3512   -1.6114 O   0  0  0  0  0  0  0  0  0  0  0  0
   -3.1610    0.4729    1.2561 H   0  0  0  0  0  0  0  0  0  0  0  0
   -2.2649    1.2960   -0.1037 H   0  0  0  0  0  0  0  0  0  0  0  0
   -3.3695   -0.0406   -0.4743 H   0  0  0  0  0  0  0  0  0  0  0  0
   -1.3436   -0.9239    1.4872 H   0  0  0  0  0  0  0  0  0  0  0  0
   -1.8383   -1.6860   -0.0356 H   0  0  0  0  0  0  0  0  0  0  0  0
    0.0718    1.0041    1.4661 H   0  0  0  0  0  0  0  0  0  0  0  0
   -0.3094    1.8745   -0.0289 H   0  0  0  0  0  0  0  0  0  0  0  0
    2.2574    1.4419    1.1285 H   0  0  0  0  0  0  0  0  0  0  0  0
    1.8805    2.2608   -0.3969 H   0  0  0  0  0  0  0  0  0  0  0  0
    2.6337   -1.4701   -1.3573 H   0  0  0  0  0  0  0  0  0  0  0  0
    2.3672   -1.5151    0.3956 H   0  0  0  0  0  0  0  0  0  0  0  0
    0.3482   -2.2619   -0.8138 H   0  0  0  0  0  0  0  0  0  0  0  0
  1  2  1  0
  2  3  1  0
  3  4  1  0
  4  5  1  0
  5  6  1  0
  6  7  1  0
  7  8  1  0
  8  9  1  0
  8  3  1  0
  9  3  1  0
  1 10  1  0
  1 11  1  0
  1 12  1  0
  2 13  1  0
  2 14  1  0
  4 15  1  0
  4 16  1  0
  5 17  1  0
  5 18  1  0
  7 19  1  0
  7 20  1  0
  8 21  1  0
M  END
