
     RDKit          3D

 21 21  0  0  0  0  0  0  0  0999 V2000
    1.7924   -1.4482    0.0838 C   0  0  0  0  0  0  0  0  0  0  0  0
    1.3783   -0.0715   -0.3222 C   0  0  0  0  0  0  0  0  0  0  0  0
    0.3085    0.5199    0.5556 C   0  0  0  0  0  0  0  0  0  0  0  0
   -0.9801   -0.2107    0.6300 C   0  0  0  0  0  0  0  0  0  0  0  0
   -1.1733   -1.3510   -0.3381 C   0  0  0  0  0  0  0  0  0  0  0  0
   -1.7309    0.9838    0.1379 C   0  0  0  0  0  0  0  0  0  0  0  0
   -2.9249    1.2075    0.0829 O   0  0  0  0  0  0  0  0  0  0  0  0
   -0.4355    1.6139   -0.1814 C   0  0  0  0  0  0  0  0  0  0  0  0
   -0.3022    2.8635    0.4368 O   0  0  0  0  0  0  0  0  0  0  0  0
    1.5818   -2.2317   -0.6534 H   0  0  0  0  0  0  0  0  0  0  0  0
    2.8960   -1.5180    0.2998 H   0  0  0  0  0  0  0  0  0  0  0  0
    1.3090   -1.6518    1.0843 H   0  0  0  0  0  0  0  0  0  0  0  0
    1.0409   -0.0085   -1.3837 H   0  0  0  0  0  0  0  0  0  0  0  0
    2.2722    0.5971   -0.2430 H   0  0  0  0  0  0  0  0  0  0  0  0
    0.7331    0.8932    1.4973 H   0  0  0  0  0  0  0  0  0  0  0  0
   -1.2875   -0.4376    1.6525 H   0  0  0  0  0  0  0  0  0  0  0  0
   -0.7290   -2.2939   -0.0084 H   0  0  0  0  0  0  0  0  0  0  0  0
   -2.2865   -1.5387   -0.3866 H   0  0  0  0  0  0  0  0  0  0  0  0
   -0.8872   -1.0751   -1.3709 H   0  0  0  0  0  0  0  0  0  0  0  0
   -0.2478    1.6252   -1.2745 H   0  0  0  0  0  0  0  0  0  0  0  0
   -0.3273    3.5326   -0.2987 H   0  0  0  0  0  0  0  0  0  0  0  0
  1  2  1  0
  2  3  1  0
  3  4  1  0
  4  5  1  0
  4  6  1  0
  6  7  2  0
  6  8  1  0
  8  9  1  0
  8  3  1  0
  1 10  1  0
  1 11  1  0
  1 12  1  0
  2 13  1  0
  2 14  1  0
  3 15  1  0
  4 16  1  0
  5 17  1  0
  5 18  1  0
  5 19  1  0
  8 20  1  0
  9 21  1  0
M  END
