
     RDKit          3D

 23 24  0  0  0  0  0  0  0  0999 V2000
    2.8670   -0.3080    0.6565 C   0  0  0  0  0  0  0  0  0  0  0  0
    2.2279    0.1435   -0.6407 C   0  0  0  0  0  0  0  0  0  0  0  0
    0.7565   -0.0348   -0.6672 C   0  0  0  0  0  0  0  0  0  0  0  0
   -0.0800    0.6617    0.3408 C   0  0  0  0  0  0  0  0  0  0  0  0
   -1.5459    0.4393    0.4366 C   0  0  0  0  0  0  0  0  0  0  0  0
   -2.3825    1.2812   -0.4840 C   0  0  0  0  0  0  0  0  0  0  0  0
   -1.4457   -1.0149    0.0961 C   0  0  0  0  0  0  0  0  0  0  0  0
   -1.9718   -1.9044    1.0012 O   0  0  0  0  0  0  0  0  0  0  0  0
    0.0690   -0.8922    0.3047 C   0  0  0  0  0  0  0  0  0  0  0  0
    2.3869    0.1733    1.5375 H   0  0  0  0  0  0  0  0  0  0  0  0
    3.9139    0.1085    0.6406 H   0  0  0  0  0  0  0  0  0  0  0  0
    2.9633   -1.3950    0.7386 H   0  0  0  0  0  0  0  0  0  0  0  0
    2.7088   -0.4839   -1.4464 H   0  0  0  0  0  0  0  0  0  0  0  0
    2.5008    1.2103   -0.7713 H   0  0  0  0  0  0  0  0  0  0  0  0
    0.3183   -0.0456   -1.7061 H   0  0  0  0  0  0  0  0  0  0  0  0
    0.4479    1.1961    1.1244 H   0  0  0  0  0  0  0  0  0  0  0  0
   -1.8885    0.6109    1.4983 H   0  0  0  0  0  0  0  0  0  0  0  0
   -3.4337    0.9794   -0.4716 H   0  0  0  0  0  0  0  0  0  0  0  0
   -2.3177    2.3330   -0.1057 H   0  0  0  0  0  0  0  0  0  0  0  0
   -1.9644    1.2278   -1.4949 H   0  0  0  0  0  0  0  0  0  0  0  0
   -1.7042   -1.2455   -0.9767 H   0  0  0  0  0  0  0  0  0  0  0  0
   -2.9371   -1.7527    1.2024 H   0  0  0  0  0  0  0  0  0  0  0  0
    0.5112   -1.2880    1.2143 H   0  0  0  0  0  0  0  0  0  0  0  0
  1  2  1  0
  2  3  1  0
  3  4  1  0
  4  5  1  0
  5  6  1  0
  5  7  1  0
  7  8  1  0
  7  9  1  0
  9  3  1  0
  9  4  1  0
  1 10  1  0
  1 11  1  0
  1 12  1  0
  2 13  1  0
  2 14  1  0
  3 15  1  0
  4 16  1  0
  5 17  1  0
  6 18  1  0
  6 19  1  0
  6 20  1  0
  7 21  1  0
  8 22  1  0
  9 23  1  0
M  END
