
     RDKit          3D

 21 22  0  0  0  0  0  0  0  0999 V2000
    2.1394    0.8187    0.0887 C   0  0  0  0  0  0  0  0  0  0  0  0
    1.3057   -0.2904   -0.5096 C   0  0  0  0  0  0  0  0  0  0  0  0
    0.1595   -0.6894    0.3462 C   0  0  0  0  0  0  0  0  0  0  0  0
   -0.7197   -1.7863   -0.1763 C   0  0  0  0  0  0  0  0  0  0  0  0
   -1.9513   -1.0661    0.1812 C   0  0  0  0  0  0  0  0  0  0  0  0
   -3.1167   -1.2960    0.3167 O   0  0  0  0  0  0  0  0  0  0  0  0
   -1.1251    0.1491    0.3195 C   0  0  0  0  0  0  0  0  0  0  0  0
   -1.2466    1.2500   -0.6857 C   0  0  0  0  0  0  0  0  0  0  0  0
   -0.2142    0.1779    1.4635 C   0  0  0  0  0  0  0  0  0  0  0  0
    3.0877    0.8858   -0.4853 H   0  0  0  0  0  0  0  0  0  0  0  0
    1.6392    1.8062    0.0181 H   0  0  0  0  0  0  0  0  0  0  0  0
    2.4162    0.5611    1.1307 H   0  0  0  0  0  0  0  0  0  0  0  0
    1.9862   -1.1776   -0.6008 H   0  0  0  0  0  0  0  0  0  0  0  0
    1.0459   -0.0075   -1.5428 H   0  0  0  0  0  0  0  0  0  0  0  0
   -0.5818   -2.7859    0.2548 H   0  0  0  0  0  0  0  0  0  0  0  0
   -0.6370   -1.8558   -1.2890 H   0  0  0  0  0  0  0  0  0  0  0  0
   -0.7145    1.0194   -1.6308 H   0  0  0  0  0  0  0  0  0  0  0  0
   -0.9756    2.2407   -0.2773 H   0  0  0  0  0  0  0  0  0  0  0  0
   -2.3380    1.2983   -0.9782 H   0  0  0  0  0  0  0  0  0  0  0  0
    0.3667    1.0794    1.6384 H   0  0  0  0  0  0  0  0  0  0  0  0
   -0.5262   -0.3316    2.4180 H   0  0  0  0  0  0  0  0  0  0  0  0
  1  2  1  0
  2  3  1  0
  3  4  1  0
  4  5  1  0
  5  6  2  0
  5  7  1  0
  7  8  1  0
  7  9  1  0
  7  3  1  0
  9  3  1  0
  1 10  1  0
  1 11  1  0
  1 12  1  0
  2 13  1  0
  2 14  1  0
  4 15  1  0
  4 16  1  0
  8 17  1  0
  8 18  1  0
  8 19  1  0
  9 20  1  0
  9 21  1  0
M  END
