
     RDKit          3D

 21 22  0  0  0  0  0  0  0  0999 V2000
    2.6788   -0.3564   -0.0355 C   0  0  0  0  0  0  0  0  0  0  0  0
    1.2901   -0.8594    0.2228 C   0  0  0  0  0  0  0  0  0  0  0  0
    0.3323    0.3050    0.3169 C   0  0  0  0  0  0  0  0  0  0  0  0
    0.3022    1.0554   -0.8465 O   0  0  0  0  0  0  0  0  0  0  0  0
   -0.7828    1.9092   -0.6414 C   0  0  0  0  0  0  0  0  0  0  0  0
   -1.8676    1.0408   -0.0788 C   0  0  0  0  0  0  0  0  0  0  0  0
   -1.8885    0.7274    1.2726 O   0  0  0  0  0  0  0  0  0  0  0  0
   -1.0828   -0.1066    0.5279 C   0  0  0  0  0  0  0  0  0  0  0  0
   -1.5426   -1.4899    0.1543 C   0  0  0  0  0  0  0  0  0  0  0  0
    3.1547    0.0133    0.9066 H   0  0  0  0  0  0  0  0  0  0  0  0
    2.6301    0.5106   -0.7496 H   0  0  0  0  0  0  0  0  0  0  0  0
    3.3303   -1.1225   -0.5395 H   0  0  0  0  0  0  0  0  0  0  0  0
    0.9781   -1.4888   -0.6382 H   0  0  0  0  0  0  0  0  0  0  0  0
    1.2557   -1.4916    1.1258 H   0  0  0  0  0  0  0  0  0  0  0  0
    0.6662    0.9770    1.1545 H   0  0  0  0  0  0  0  0  0  0  0  0
   -1.1071    2.2649   -1.6355 H   0  0  0  0  0  0  0  0  0  0  0  0
   -0.5248    2.7745   -0.0079 H   0  0  0  0  0  0  0  0  0  0  0  0
   -2.7909    0.8487   -0.6195 H   0  0  0  0  0  0  0  0  0  0  0  0
   -1.2566   -1.7204   -0.9130 H   0  0  0  0  0  0  0  0  0  0  0  0
   -1.1318   -2.2473    0.8436 H   0  0  0  0  0  0  0  0  0  0  0  0
   -2.6433   -1.5439    0.1803 H   0  0  0  0  0  0  0  0  0  0  0  0
  1  2  1  0
  2  3  1  0
  3  4  1  0
  4  5  1  0
  5  6  1  0
  6  7  1  0
  7  8  1  0
  8  9  1  0
  8  3  1  0
  8  6  1  0
  1 10  1  0
  1 11  1  0
  1 12  1  0
  2 13  1  0
  2 14  1  0
  3 15  1  0
  5 16  1  0
  5 17  1  0
  6 18  1  0
  9 19  1  0
  9 20  1  0
  9 21  1  0
M  END
