
     RDKit          3D

 21 21  0  0  0  0  0  0  0  0999 V2000
   -1.9684    0.8307    0.7768 C   0  0  0  0  0  0  0  0  0  0  0  0
   -1.3504    0.6444   -0.5598 C   0  0  0  0  0  0  0  0  0  0  0  0
   -0.2602   -0.3594   -0.6357 C   0  0  0  0  0  0  0  0  0  0  0  0
    0.3197   -0.5384   -1.8757 O   0  0  0  0  0  0  0  0  0  0  0  0
   -0.4237   -1.6557    0.0794 C   0  0  0  0  0  0  0  0  0  0  0  0
    0.9520   -1.5586    0.4146 O   0  0  0  0  0  0  0  0  0  0  0  0
    0.7259   -0.1889    0.5039 C   0  0  0  0  0  0  0  0  0  0  0  0
    1.8940    0.6902    0.1791 C   0  0  0  0  0  0  0  0  0  0  0  0
    2.9896    0.5122    0.9708 O   0  0  0  0  0  0  0  0  0  0  0  0
   -2.9119    1.4332    0.6235 H   0  0  0  0  0  0  0  0  0  0  0  0
   -1.3601    1.4296    1.4828 H   0  0  0  0  0  0  0  0  0  0  0  0
   -2.3168   -0.1236    1.2230 H   0  0  0  0  0  0  0  0  0  0  0  0
   -0.9669    1.6091   -0.9468 H   0  0  0  0  0  0  0  0  0  0  0  0
   -2.1700    0.3443   -1.2712 H   0  0  0  0  0  0  0  0  0  0  0  0
    0.9235   -1.3042   -1.8747 H   0  0  0  0  0  0  0  0  0  0  0  0
   -0.9942   -1.6617    1.0156 H   0  0  0  0  0  0  0  0  0  0  0  0
   -0.6703   -2.5416   -0.5352 H   0  0  0  0  0  0  0  0  0  0  0  0
    0.1877    0.0403    1.4416 H   0  0  0  0  0  0  0  0  0  0  0  0
    2.1198    0.5466   -0.9170 H   0  0  0  0  0  0  0  0  0  0  0  0
    1.5509    1.7419    0.2640 H   0  0  0  0  0  0  0  0  0  0  0  0
    3.7297    0.1098    0.4538 H   0  0  0  0  0  0  0  0  0  0  0  0
  1  2  1  0
  2  3  1  0
  3  4  1  0
  3  5  1  0
  5  6  1  0
  6  7  1  0
  7  8  1  0
  8  9  1  0
  7  3  1  0
  1 10  1  0
  1 11  1  0
  1 12  1  0
  2 13  1  0
  2 14  1  0
  4 15  1  0
  5 16  1  0
  5 17  1  0
  7 18  1  0
  8 19  1  0
  8 20  1  0
  9 21  1  0
M  END
