
     RDKit          3D

 23 24  0  0  0  0  0  0  0  0999 V2000
    3.0160    0.2512   -0.5157 C   0  0  0  0  0  0  0  0  0  0  0  0
    1.9668   -0.8054   -0.2384 C   0  0  0  0  0  0  0  0  0  0  0  0
    0.8337   -0.2117    0.5251 C   0  0  0  0  0  0  0  0  0  0  0  0
   -0.1636   -1.1645    0.8026 O   0  0  0  0  0  0  0  0  0  0  0  0
   -0.7140   -0.8654   -0.4300 C   0  0  0  0  0  0  0  0  0  0  0  0
   -2.2055   -0.7036   -0.4705 C   0  0  0  0  0  0  0  0  0  0  0  0
   -2.5136    0.4957    0.3828 C   0  0  0  0  0  0  0  0  0  0  0  0
   -1.1988    1.2299    0.5799 C   0  0  0  0  0  0  0  0  0  0  0  0
   -0.1948    0.5369   -0.2819 C   0  0  0  0  0  0  0  0  0  0  0  0
    3.9334   -0.2988   -0.8449 H   0  0  0  0  0  0  0  0  0  0  0  0
    3.1911    0.9163    0.3378 H   0  0  0  0  0  0  0  0  0  0  0  0
    2.6662    0.8168   -1.4130 H   0  0  0  0  0  0  0  0  0  0  0  0
    2.4066   -1.6707    0.3196 H   0  0  0  0  0  0  0  0  0  0  0  0
    1.6754   -1.2217   -1.2312 H   0  0  0  0  0  0  0  0  0  0  0  0
    1.1742    0.3807    1.3701 H   0  0  0  0  0  0  0  0  0  0  0  0
   -0.3516   -1.4466   -1.2805 H   0  0  0  0  0  0  0  0  0  0  0  0
   -2.7658   -1.6076   -0.1901 H   0  0  0  0  0  0  0  0  0  0  0  0
   -2.4808   -0.4789   -1.5260 H   0  0  0  0  0  0  0  0  0  0  0  0
   -3.2355    1.1961   -0.1121 H   0  0  0  0  0  0  0  0  0  0  0  0
   -2.9516    0.1453    1.3262 H   0  0  0  0  0  0  0  0  0  0  0  0
   -0.9127    1.1368    1.6590 H   0  0  0  0  0  0  0  0  0  0  0  0
   -1.3213    2.3207    0.3142 H   0  0  0  0  0  0  0  0  0  0  0  0
    0.1461    1.0485   -1.1759 H   0  0  0  0  0  0  0  0  0  0  0  0
  1  2  1  0
  2  3  1  0
  3  4  1  0
  4  5  1  0
  5  6  1  0
  6  7  1  0
  7  8  1  0
  8  9  1  0
  9  3  1  0
  9  5  1  0
  1 10  1  0
  1 11  1  0
  1 12  1  0
  2 13  1  0
  2 14  1  0
  3 15  1  0
  5 16  1  0
  6 17  1  0
  6 18  1  0
  7 19  1  0
  7 20  1  0
  8 21  1  0
  8 22  1  0
  9 23  1  0
M  END
