
     RDKit          3D

 21 23  0  0  0  0  0  0  0  0999 V2000
    2.4357    0.2435   -0.8609 C   0  0  0  0  0  0  0  0  0  0  0  0
    1.7446   -0.5529    0.1926 C   0  0  0  0  0  0  0  0  0  0  0  0
    0.2964   -0.2930    0.3115 C   0  0  0  0  0  0  0  0  0  0  0  0
   -0.4354   -1.0754    1.3611 C   0  0  0  0  0  0  0  0  0  0  0  0
   -1.7341   -1.0027    1.0964 C   0  0  0  0  0  0  0  0  0  0  0  0
   -1.9845   -0.1855   -0.1266 C   0  0  0  0  0  0  0  0  0  0  0  0
   -1.7473    1.2757    0.0624 C   0  0  0  0  0  0  0  0  0  0  0  0
   -0.2683    1.0281   -0.0605 C   0  0  0  0  0  0  0  0  0  0  0  0
   -0.6403   -0.2802   -0.7881 C   0  0  0  0  0  0  0  0  0  0  0  0
    3.4439   -0.1911   -1.0289 H   0  0  0  0  0  0  0  0  0  0  0  0
    2.5489    1.2946   -0.4771 H   0  0  0  0  0  0  0  0  0  0  0  0
    1.8559    0.3318   -1.8083 H   0  0  0  0  0  0  0  0  0  0  0  0
    2.2322   -0.3116    1.1736 H   0  0  0  0  0  0  0  0  0  0  0  0
    1.8885   -1.6566    0.0290 H   0  0  0  0  0  0  0  0  0  0  0  0
   -0.0266   -1.6165    2.1989 H   0  0  0  0  0  0  0  0  0  0  0  0
   -2.5273   -1.4704    1.6820 H   0  0  0  0  0  0  0  0  0  0  0  0
   -2.8343   -0.4856   -0.7401 H   0  0  0  0  0  0  0  0  0  0  0  0
   -2.1142    1.8540   -0.8232 H   0  0  0  0  0  0  0  0  0  0  0  0
   -2.0484    1.6806    1.0342 H   0  0  0  0  0  0  0  0  0  0  0  0
    0.3916    1.7141   -0.5914 H   0  0  0  0  0  0  0  0  0  0  0  0
   -0.4769   -0.3009   -1.8366 H   0  0  0  0  0  0  0  0  0  0  0  0
  1  2  1  0
  2  3  1  0
  3  4  1  0
  4  5  2  0
  5  6  1  0
  6  7  1  0
  7  8  1  0
  8  9  1  0
  8  3  1  0
  9  3  1  0
  9  6  1  0
  1 10  1  0
  1 11  1  0
  1 12  1  0
  2 13  1  0
  2 14  1  0
  4 15  1  0
  5 16  1  0
  6 17  1  0
  7 18  1  0
  7 19  1  0
  8 20  1  0
  9 21  1  0
M  END
