
     RDKit          3D

 23 24  0  0  0  0  0  0  0  0999 V2000
    2.5187   -0.5603    0.0041 C   0  0  0  0  0  0  0  0  0  0  0  0
    1.1267   -0.7146    0.5330 C   0  0  0  0  0  0  0  0  0  0  0  0
    0.2136    0.3865    0.0652 C   0  0  0  0  0  0  0  0  0  0  0  0
    0.6956    1.7324    0.5043 C   0  0  0  0  0  0  0  0  0  0  0  0
   -0.3048    0.2733   -1.3320 C   0  0  0  0  0  0  0  0  0  0  0  0
   -1.6448   -0.1994   -0.8890 C   0  0  0  0  0  0  0  0  0  0  0  0
   -1.8374   -1.1202    0.2505 C   0  0  0  0  0  0  0  0  0  0  0  0
   -3.1721   -1.2697    0.6703 O   0  0  0  0  0  0  0  0  0  0  0  0
   -1.2059    0.1647    0.5590 C   0  0  0  0  0  0  0  0  0  0  0  0
    2.5808   -0.9449   -1.0342 H   0  0  0  0  0  0  0  0  0  0  0  0
    3.1878   -1.2386    0.6043 H   0  0  0  0  0  0  0  0  0  0  0  0
    2.9271    0.4497    0.0893 H   0  0  0  0  0  0  0  0  0  0  0  0
    0.7560   -1.7125    0.2001 H   0  0  0  0  0  0  0  0  0  0  0  0
    1.1295   -0.7153    1.6270 H   0  0  0  0  0  0  0  0  0  0  0  0
   -0.0448    2.5241    0.2721 H   0  0  0  0  0  0  0  0  0  0  0  0
    1.6517    2.0449    0.0767 H   0  0  0  0  0  0  0  0  0  0  0  0
    0.8291    1.6867    1.6169 H   0  0  0  0  0  0  0  0  0  0  0  0
    0.2599   -0.3686   -2.0289 H   0  0  0  0  0  0  0  0  0  0  0  0
   -0.3575    1.3048   -1.7893 H   0  0  0  0  0  0  0  0  0  0  0  0
   -2.5199    0.3503   -1.2877 H   0  0  0  0  0  0  0  0  0  0  0  0
   -1.2492   -2.0341    0.3913 H   0  0  0  0  0  0  0  0  0  0  0  0
   -3.7789   -1.0654   -0.0851 H   0  0  0  0  0  0  0  0  0  0  0  0
   -1.7611    1.0262    0.9821 H   0  0  0  0  0  0  0  0  0  0  0  0
  1  2  1  0
  2  3  1  0
  3  4  1  0
  3  5  1  0
  5  6  1  0
  6  7  1  0
  7  8  1  0
  7  9  1  0
  9  3  1  0
  9  6  1  0
  1 10  1  0
  1 11  1  0
  1 12  1  0
  2 13  1  0
  2 14  1  0
  4 15  1  0
  4 16  1  0
  4 17  1  0
  5 18  1  0
  5 19  1  0
  6 20  1  0
  7 21  1  0
  8 22  1  0
  9 23  1  0
M  END
