
     RDKit          3D

 25 26  0  0  0  0  0  0  0  0999 V2000
    2.6659   -0.0196   -0.2996 C   0  0  0  0  0  0  0  0  0  0  0  0
    1.3777   -0.7124    0.1158 C   0  0  0  0  0  0  0  0  0  0  0  0
    0.2104    0.2161    0.0339 C   0  0  0  0  0  0  0  0  0  0  0  0
    0.4245    1.4037    0.9525 C   0  0  0  0  0  0  0  0  0  0  0  0
   -0.3759    0.5389   -1.2842 C   0  0  0  0  0  0  0  0  0  0  0  0
   -0.9541   -0.8471   -1.2982 C   0  0  0  0  0  0  0  0  0  0  0  0
   -1.1446   -0.4169    0.1024 C   0  0  0  0  0  0  0  0  0  0  0  0
   -1.7282   -1.0568    1.1586 C   0  0  0  0  0  0  0  0  0  0  0  0
   -1.6508    0.8682   -0.5465 C   0  0  0  0  0  0  0  0  0  0  0  0
    2.4831    1.0375   -0.5325 H   0  0  0  0  0  0  0  0  0  0  0  0
    3.0598   -0.5642   -1.1865 H   0  0  0  0  0  0  0  0  0  0  0  0
    3.4515   -0.0722    0.4687 H   0  0  0  0  0  0  0  0  0  0  0  0
    1.2564   -1.6898   -0.3815 H   0  0  0  0  0  0  0  0  0  0  0  0
    1.5464   -0.9945    1.2016 H   0  0  0  0  0  0  0  0  0  0  0  0
    0.2173    2.3748    0.4380 H   0  0  0  0  0  0  0  0  0  0  0  0
   -0.1293    1.2894    1.8859 H   0  0  0  0  0  0  0  0  0  0  0  0
    1.5034    1.4551    1.2061 H   0  0  0  0  0  0  0  0  0  0  0  0
    0.0118    1.0413   -2.0574 H   0  0  0  0  0  0  0  0  0  0  0  0
   -0.3340   -1.6827   -1.5684 H   0  0  0  0  0  0  0  0  0  0  0  0
   -1.9470   -0.7981   -1.8481 H   0  0  0  0  0  0  0  0  0  0  0  0
   -1.2252   -0.8579    2.1521 H   0  0  0  0  0  0  0  0  0  0  0  0
   -2.8011   -0.8026    1.3500 H   0  0  0  0  0  0  0  0  0  0  0  0
   -1.7259   -2.1836    1.0929 H   0  0  0  0  0  0  0  0  0  0  0  0
   -1.6806    1.7481    0.0779 H   0  0  0  0  0  0  0  0  0  0  0  0
   -2.5115    0.7252   -1.2337 H   0  0  0  0  0  0  0  0  0  0  0  0
  1  2  1  0
  2  3  1  0
  3  4  1  0
  3  5  1  0
  5  6  1  0
  6  7  1  0
  7  8  1  0
  7  9  1  0
  7  3  1  0
  9  5  1  0
  1 10  1  0
  1 11  1  0
  1 12  1  0
  2 13  1  0
  2 14  1  0
  4 15  1  0
  4 16  1  0
  4 17  1  0
  5 18  1  0
  6 19  1  0
  6 20  1  0
  8 21  1  0
  8 22  1  0
  8 23  1  0
  9 24  1  0
  9 25  1  0
M  END
