
     RDKit          3D

 25 25  0  0  0  0  0  0  0  0999 V2000
    3.2624    0.4790    0.1385 C   0  0  0  0  0  0  0  0  0  0  0  0
    2.3660   -0.2560   -0.8159 C   0  0  0  0  0  0  0  0  0  0  0  0
    0.9283   -0.2267   -0.3627 C   0  0  0  0  0  0  0  0  0  0  0  0
    0.2716   -1.3508   -0.1078 C   0  0  0  0  0  0  0  0  0  0  0  0
   -1.1475   -1.3915    0.3425 C   0  0  0  0  0  0  0  0  0  0  0  0
   -1.7815   -0.0846   -0.1302 C   0  0  0  0  0  0  0  0  0  0  0  0
   -3.2247   -0.0561    0.2752 C   0  0  0  0  0  0  0  0  0  0  0  0
   -0.9734    1.0258    0.5449 C   0  0  0  0  0  0  0  0  0  0  0  0
    0.3197    1.1264   -0.2273 C   0  0  0  0  0  0  0  0  0  0  0  0
    4.2510   -0.0102    0.2819 H   0  0  0  0  0  0  0  0  0  0  0  0
    3.5041    1.4688   -0.3501 H   0  0  0  0  0  0  0  0  0  0  0  0
    2.7117    0.6349    1.0848 H   0  0  0  0  0  0  0  0  0  0  0  0
    2.4323    0.1490   -1.8555 H   0  0  0  0  0  0  0  0  0  0  0  0
    2.7379   -1.3035   -0.8874 H   0  0  0  0  0  0  0  0  0  0  0  0
    0.8517   -2.2760   -0.2522 H   0  0  0  0  0  0  0  0  0  0  0  0
   -1.6771   -2.2066   -0.2000 H   0  0  0  0  0  0  0  0  0  0  0  0
   -1.2394   -1.4943    1.4359 H   0  0  0  0  0  0  0  0  0  0  0  0
   -1.6399   -0.0434   -1.2427 H   0  0  0  0  0  0  0  0  0  0  0  0
   -3.6358   -1.0745    0.1061 H   0  0  0  0  0  0  0  0  0  0  0  0
   -3.2801    0.2760    1.3215 H   0  0  0  0  0  0  0  0  0  0  0  0
   -3.8252    0.6334   -0.3530 H   0  0  0  0  0  0  0  0  0  0  0  0
   -1.5184    1.9663    0.5779 H   0  0  0  0  0  0  0  0  0  0  0  0
   -0.7254    0.7105    1.5861 H   0  0  0  0  0  0  0  0  0  0  0  0
    0.9767    1.8234    0.3242 H   0  0  0  0  0  0  0  0  0  0  0  0
    0.0550    1.5449   -1.2346 H   0  0  0  0  0  0  0  0  0  0  0  0
  1  2  1  0
  2  3  1  0
  3  4  2  0
  4  5  1  0
  5  6  1  0
  6  7  1  0
  6  8  1  0
  8  9  1  0
  9  3  1  0
  1 10  1  0
  1 11  1  0
  1 12  1  0
  2 13  1  0
  2 14  1  0
  4 15  1  0
  5 16  1  0
  5 17  1  0
  6 18  1  0
  7 19  1  0
  7 20  1  0
  7 21  1  0
  8 22  1  0
  8 23  1  0
  9 24  1  0
  9 25  1  0
M  END
