
     RDKit          3D

 19 21  0  0  0  0  0  0  0  0999 V2000
    2.0379    0.3424    0.3790 C   0  0  0  0  0  0  0  0  0  0  0  0
    1.3575   -0.9293   -0.0563 C   0  0  0  0  0  0  0  0  0  0  0  0
   -0.1225   -0.7671   -0.2342 C   0  0  0  0  0  0  0  0  0  0  0  0
   -0.4884    0.2612   -1.2669 C   0  0  0  0  0  0  0  0  0  0  0  0
   -1.8973   -0.0365   -1.7069 O   0  0  0  0  0  0  0  0  0  0  0  0
   -1.4982    1.0520   -0.7780 C   0  0  0  0  0  0  0  0  0  0  0  0
   -1.7239    0.7058    0.6782 C   0  0  0  0  0  0  0  0  0  0  0  0
   -0.6487    0.9016    1.5622 O   0  0  0  0  0  0  0  0  0  0  0  0
   -0.7666   -0.3652    1.0453 C   0  0  0  0  0  0  0  0  0  0  0  0
    3.1323    0.0843    0.4841 H   0  0  0  0  0  0  0  0  0  0  0  0
    1.9076    1.1759   -0.3335 H   0  0  0  0  0  0  0  0  0  0  0  0
    1.6603    0.5762    1.4012 H   0  0  0  0  0  0  0  0  0  0  0  0
    1.8412   -1.3807   -0.9544 H   0  0  0  0  0  0  0  0  0  0  0  0
    1.5089   -1.6689    0.7628 H   0  0  0  0  0  0  0  0  0  0  0  0
   -0.5278   -1.7649   -0.5218 H   0  0  0  0  0  0  0  0  0  0  0  0
    0.1385    0.2881   -2.1531 H   0  0  0  0  0  0  0  0  0  0  0  0
   -1.9662    1.9759   -1.1102 H   0  0  0  0  0  0  0  0  0  0  0  0
   -2.7486    0.7071    1.0868 H   0  0  0  0  0  0  0  0  0  0  0  0
   -1.1962   -1.1579    1.7157 H   0  0  0  0  0  0  0  0  0  0  0  0
  1  2  1  0
  2  3  1  0
  3  4  1  0
  4  5  1  0
  5  6  1  0
  6  7  1  0
  7  8  1  0
  8  9  1  0
  9  3  1  0
  6  4  1  0
  9  7  1  0
  1 10  1  0
  1 11  1  0
  1 12  1  0
  2 13  1  0
  2 14  1  0
  3 15  1  0
  4 16  1  0
  6 17  1  0
  7 18  1  0
  9 19  1  0
M  END
