
     RDKit          3D

 23 24  0  0  0  0  0  0  0  0999 V2000
    2.6985    0.3764   -0.4090 C   0  0  0  0  0  0  0  0  0  0  0  0
    1.5319   -0.2971    0.2203 C   0  0  0  0  0  0  0  0  0  0  0  0
    0.2133    0.0278   -0.3899 C   0  0  0  0  0  0  0  0  0  0  0  0
   -0.8962   -0.7406    0.3641 C   0  0  0  0  0  0  0  0  0  0  0  0
   -1.1293   -2.1305   -0.1675 C   0  0  0  0  0  0  0  0  0  0  0  0
   -1.7219    0.3110   -0.3334 C   0  0  0  0  0  0  0  0  0  0  0  0
   -1.8046    1.7122   -0.0987 C   0  0  0  0  0  0  0  0  0  0  0  0
   -0.5248    1.1966    0.2208 C   0  0  0  0  0  0  0  0  0  0  0  0
   -0.3283    1.1045    1.6275 O   0  0  0  0  0  0  0  0  0  0  0  0
    3.0240    1.3018    0.1482 H   0  0  0  0  0  0  0  0  0  0  0  0
    3.5776   -0.3083   -0.3540 H   0  0  0  0  0  0  0  0  0  0  0  0
    2.5615    0.6038   -1.4967 H   0  0  0  0  0  0  0  0  0  0  0  0
    1.6717   -1.4149    0.1222 H   0  0  0  0  0  0  0  0  0  0  0  0
    1.5719   -0.1073    1.3128 H   0  0  0  0  0  0  0  0  0  0  0  0
    0.1040   -0.1132   -1.4640 H   0  0  0  0  0  0  0  0  0  0  0  0
   -0.8354   -0.7266    1.4438 H   0  0  0  0  0  0  0  0  0  0  0  0
   -0.6177   -2.8340    0.5112 H   0  0  0  0  0  0  0  0  0  0  0  0
   -2.2356   -2.3367   -0.2220 H   0  0  0  0  0  0  0  0  0  0  0  0
   -0.7626   -2.2416   -1.2110 H   0  0  0  0  0  0  0  0  0  0  0  0
   -1.6263    0.0701   -1.4445 H   0  0  0  0  0  0  0  0  0  0  0  0
   -2.5656    2.0345    0.6771 H   0  0  0  0  0  0  0  0  0  0  0  0
   -1.8441    2.4708   -0.9398 H   0  0  0  0  0  0  0  0  0  0  0  0
   -0.0620    2.0412    1.8827 H   0  0  0  0  0  0  0  0  0  0  0  0
  1  2  1  0
  2  3  1  0
  3  4  1  0
  4  5  1  0
  4  6  1  0
  6  7  1  0
  7  8  1  0
  8  9  1  0
  8  3  1  0
  8  6  1  0
  1 10  1  0
  1 11  1  0
  1 12  1  0
  2 13  1  0
  2 14  1  0
  3 15  1  0
  4 16  1  0
  5 17  1  0
  5 18  1  0
  5 19  1  0
  6 20  1  0
  7 21  1  0
  7 22  1  0
  9 23  1  0
M  END
