
     RDKit          3D

 21 22  0  0  0  0  0  0  0  0999 V2000
   -2.4801    0.5973    0.4799 C   0  0  0  0  0  0  0  0  0  0  0  0
   -1.0750    1.0356    0.1552 C   0  0  0  0  0  0  0  0  0  0  0  0
   -0.4545    0.0308   -0.7661 C   0  0  0  0  0  0  0  0  0  0  0  0
   -0.2989   -1.3982   -0.3478 C   0  0  0  0  0  0  0  0  0  0  0  0
   -0.6653   -1.7543    0.9661 O   0  0  0  0  0  0  0  0  0  0  0  0
    0.8417   -0.5415   -0.4864 C   0  0  0  0  0  0  0  0  0  0  0  0
    1.7868   -0.1216    0.5582 C   0  0  0  0  0  0  0  0  0  0  0  0
    2.4688    0.4315   -0.7048 C   0  0  0  0  0  0  0  0  0  0  0  0
    1.8686   -0.6579   -1.3849 O   0  0  0  0  0  0  0  0  0  0  0  0
   -2.5915   -0.5042    0.2988 H   0  0  0  0  0  0  0  0  0  0  0  0
   -2.7916    0.8787    1.4901 H   0  0  0  0  0  0  0  0  0  0  0  0
   -3.2188    1.0699   -0.2286 H   0  0  0  0  0  0  0  0  0  0  0  0
   -1.1402    2.0138   -0.3629 H   0  0  0  0  0  0  0  0  0  0  0  0
   -0.4554    1.1780    1.0609 H   0  0  0  0  0  0  0  0  0  0  0  0
   -0.6987    0.2245   -1.8467 H   0  0  0  0  0  0  0  0  0  0  0  0
   -0.6092   -2.1529   -1.0863 H   0  0  0  0  0  0  0  0  0  0  0  0
    0.0948   -1.7756    1.5738 H   0  0  0  0  0  0  0  0  0  0  0  0
    1.4999    0.6404    1.2823 H   0  0  0  0  0  0  0  0  0  0  0  0
    2.3512   -0.9810    0.9848 H   0  0  0  0  0  0  0  0  0  0  0  0
    3.5557    0.3794   -0.6919 H   0  0  0  0  0  0  0  0  0  0  0  0
    2.0116    1.4073   -0.9436 H   0  0  0  0  0  0  0  0  0  0  0  0
  1  2  1  0
  2  3  1  0
  3  4  1  0
  4  5  1  0
  4  6  1  0
  6  7  1  0
  7  8  1  0
  8  9  1  0
  6  3  1  0
  9  6  1  0
  1 10  1  0
  1 11  1  0
  1 12  1  0
  2 13  1  0
  2 14  1  0
  3 15  1  0
  4 16  1  0
  5 17  1  0
  7 18  1  0
  7 19  1  0
  8 20  1  0
  8 21  1  0
M  END
