
     RDKit          3D

 25 25  0  0  0  0  0  0  0  0999 V2000
    2.0294    0.8316    0.8054 C   0  0  0  0  0  0  0  0  0  0  0  0
    1.6695   -0.1767   -0.2367 C   0  0  0  0  0  0  0  0  0  0  0  0
    0.1689   -0.3575   -0.3988 C   0  0  0  0  0  0  0  0  0  0  0  0
    0.0472   -1.4227   -1.5041 C   0  0  0  0  0  0  0  0  0  0  0  0
   -0.4891    0.8715   -0.9084 C   0  0  0  0  0  0  0  0  0  0  0  0
   -1.4887    1.4780    0.0212 C   0  0  0  0  0  0  0  0  0  0  0  0
   -2.2825    0.6277    0.6895 O   0  0  0  0  0  0  0  0  0  0  0  0
   -1.7959   -0.5319    1.1687 C   0  0  0  0  0  0  0  0  0  0  0  0
   -0.4310   -0.9404    0.8318 C   0  0  0  0  0  0  0  0  0  0  0  0
    1.9242    0.4790    1.8426 H   0  0  0  0  0  0  0  0  0  0  0  0
    3.1208    1.0431    0.6742 H   0  0  0  0  0  0  0  0  0  0  0  0
    1.5231    1.8122    0.6212 H   0  0  0  0  0  0  0  0  0  0  0  0
    2.1174   -1.1353    0.0186 H   0  0  0  0  0  0  0  0  0  0  0  0
    2.0480    0.1775   -1.2094 H   0  0  0  0  0  0  0  0  0  0  0  0
    0.6679   -2.2716   -1.1556 H   0  0  0  0  0  0  0  0  0  0  0  0
   -1.0074   -1.6568   -1.6379 H   0  0  0  0  0  0  0  0  0  0  0  0
    0.5090   -0.9492   -2.4144 H   0  0  0  0  0  0  0  0  0  0  0  0
   -0.9609    0.7542   -1.9161 H   0  0  0  0  0  0  0  0  0  0  0  0
    0.3151    1.6472   -1.0706 H   0  0  0  0  0  0  0  0  0  0  0  0
   -2.1570    2.1434   -0.6033 H   0  0  0  0  0  0  0  0  0  0  0  0
   -0.9981    2.1997    0.7326 H   0  0  0  0  0  0  0  0  0  0  0  0
   -2.5222   -1.3505    0.8792 H   0  0  0  0  0  0  0  0  0  0  0  0
   -1.8906   -0.4963    2.2965 H   0  0  0  0  0  0  0  0  0  0  0  0
   -0.3876   -2.0706    0.7879 H   0  0  0  0  0  0  0  0  0  0  0  0
    0.2707   -0.7055    1.6861 H   0  0  0  0  0  0  0  0  0  0  0  0
  1  2  1  0
  2  3  1  0
  3  4  1  0
  3  5  1  0
  5  6  1  0
  6  7  1  0
  7  8  1  0
  8  9  1  0
  9  3  1  0
  1 10  1  0
  1 11  1  0
  1 12  1  0
  2 13  1  0
  2 14  1  0
  4 15  1  0
  4 16  1  0
  4 17  1  0
  5 18  1  0
  5 19  1  0
  6 20  1  0
  6 21  1  0
  8 22  1  0
  8 23  1  0
  9 24  1  0
  9 25  1  0
M  END
