
     RDKit          3D

 21 21  0  0  0  0  0  0  0  0999 V2000
    2.3503    0.8331    0.1809 C   0  0  0  0  0  0  0  0  0  0  0  0
    1.5397   -0.3283   -0.2855 C   0  0  0  0  0  0  0  0  0  0  0  0
    0.1150   -0.2997    0.2050 C   0  0  0  0  0  0  0  0  0  0  0  0
    0.0174   -0.3118    1.5710 O   0  0  0  0  0  0  0  0  0  0  0  0
   -0.5726   -1.5534   -0.3548 C   0  0  0  0  0  0  0  0  0  0  0  0
   -1.9555   -1.0997   -0.6893 C   0  0  0  0  0  0  0  0  0  0  0  0
   -2.0256    0.2266   -0.7082 C   0  0  0  0  0  0  0  0  0  0  0  0
   -0.6919    0.8050   -0.3873 C   0  0  0  0  0  0  0  0  0  0  0  0
   -0.9089    1.8572    0.5016 O   0  0  0  0  0  0  0  0  0  0  0  0
    3.4403    0.5367    0.2062 H   0  0  0  0  0  0  0  0  0  0  0  0
    2.1206    1.1734    1.2027 H   0  0  0  0  0  0  0  0  0  0  0  0
    2.3288    1.6857   -0.5582 H   0  0  0  0  0  0  0  0  0  0  0  0
    1.9977   -1.2759    0.0797 H   0  0  0  0  0  0  0  0  0  0  0  0
    1.5424   -0.3725   -1.3905 H   0  0  0  0  0  0  0  0  0  0  0  0
   -0.8755   -0.0208    1.8361 H   0  0  0  0  0  0  0  0  0  0  0  0
   -0.5847   -2.3715    0.3916 H   0  0  0  0  0  0  0  0  0  0  0  0
   -0.0835   -1.9027   -1.2814 H   0  0  0  0  0  0  0  0  0  0  0  0
   -2.7745   -1.7838   -0.8859 H   0  0  0  0  0  0  0  0  0  0  0  0
   -2.9560    0.7480   -0.9332 H   0  0  0  0  0  0  0  0  0  0  0  0
   -0.2304    1.1586   -1.3463 H   0  0  0  0  0  0  0  0  0  0  0  0
   -1.7932    2.2960    0.3087 H   0  0  0  0  0  0  0  0  0  0  0  0
  1  2  1  0
  2  3  1  0
  3  4  1  0
  3  5  1  0
  5  6  1  0
  6  7  2  0
  7  8  1  0
  8  9  1  0
  8  3  1  0
  1 10  1  0
  1 11  1  0
  1 12  1  0
  2 13  1  0
  2 14  1  0
  4 15  1  0
  5 16  1  0
  5 17  1  0
  6 18  1  0
  7 19  1  0
  8 20  1  0
  9 21  1  0
M  END
