
     RDKit          3D

 17 17  0  0  0  0  0  0  0  0999 V2000
   -1.6413   -0.9435    0.5460 C   0  0  0  0  0  0  0  0  0  0  0  0
   -1.2326    0.3897   -0.0494 C   0  0  0  0  0  0  0  0  0  0  0  0
    0.2300    0.3920   -0.4433 C   0  0  0  0  0  0  0  0  0  0  0  0
    0.5679    1.7099   -1.0139 C   0  0  0  0  0  0  0  0  0  0  0  0
    0.3044    2.7131   -0.4019 O   0  0  0  0  0  0  0  0  0  0  0  0
    0.6024   -0.6571   -1.2781 O   0  0  0  0  0  0  0  0  0  0  0  0
    1.7086   -0.9078   -0.4728 C   0  0  0  0  0  0  0  0  0  0  0  0
    1.1741   -0.0216    0.5838 C   0  0  0  0  0  0  0  0  0  0  0  0
    1.4602    0.1878    1.7357 O   0  0  0  0  0  0  0  0  0  0  0  0
   -0.7607   -1.5602    0.7823 H   0  0  0  0  0  0  0  0  0  0  0  0
   -2.2787   -1.5366   -0.1513 H   0  0  0  0  0  0  0  0  0  0  0  0
   -2.2354   -0.7503    1.4420 H   0  0  0  0  0  0  0  0  0  0  0  0
   -1.4194    1.2353    0.6168 H   0  0  0  0  0  0  0  0  0  0  0  0
   -1.8670    0.5342   -0.9492 H   0  0  0  0  0  0  0  0  0  0  0  0
    1.0449    1.7692   -1.9675 H   0  0  0  0  0  0  0  0  0  0  0  0
    2.6752   -0.5882   -0.8931 H   0  0  0  0  0  0  0  0  0  0  0  0
    1.6672   -1.9659   -0.1290 H   0  0  0  0  0  0  0  0  0  0  0  0
  1  2  1  0
  2  3  1  0
  3  4  1  0
  4  5  2  0
  3  6  1  0
  6  7  1  0
  7  8  1  0
  8  9  2  0
  8  3  1  0
  1 10  1  0
  1 11  1  0
  1 12  1  0
  2 13  1  0
  2 14  1  0
  4 15  1  0
  7 16  1  0
  7 17  1  0
M  END
