
     RDKit          3D

 25 25  0  0  0  0  0  0  0  0999 V2000
    3.4195    0.0437   -0.0719 C   0  0  0  0  0  0  0  0  0  0  0  0
    2.1384   -0.4124    0.5432 C   0  0  0  0  0  0  0  0  0  0  0  0
    0.9951    0.4593    0.0936 C   0  0  0  0  0  0  0  0  0  0  0  0
    0.8381    0.4146   -1.3980 C   0  0  0  0  0  0  0  0  0  0  0  0
   -0.4012   -0.1813   -1.6617 O   0  0  0  0  0  0  0  0  0  0  0  0
   -1.2094    0.2806   -0.6404 C   0  0  0  0  0  0  0  0  0  0  0  0
   -2.4775   -0.5253   -0.6065 C   0  0  0  0  0  0  0  0  0  0  0  0
   -3.4213   -0.0955    0.4739 C   0  0  0  0  0  0  0  0  0  0  0  0
   -0.3368   -0.0292    0.5840 C   0  0  0  0  0  0  0  0  0  0  0  0
    3.2957    0.8823   -0.7861 H   0  0  0  0  0  0  0  0  0  0  0  0
    3.8906   -0.8194   -0.5804 H   0  0  0  0  0  0  0  0  0  0  0  0
    4.1572    0.4153    0.6973 H   0  0  0  0  0  0  0  0  0  0  0  0
    1.8709   -1.4561    0.2920 H   0  0  0  0  0  0  0  0  0  0  0  0
    2.2322   -0.3708    1.6461 H   0  0  0  0  0  0  0  0  0  0  0  0
    1.1564    1.4662    0.4946 H   0  0  0  0  0  0  0  0  0  0  0  0
    1.6055   -0.2160   -1.8959 H   0  0  0  0  0  0  0  0  0  0  0  0
    0.8102    1.4477   -1.7670 H   0  0  0  0  0  0  0  0  0  0  0  0
   -1.3522    1.3547   -0.7397 H   0  0  0  0  0  0  0  0  0  0  0  0
   -2.1849   -1.5936   -0.5317 H   0  0  0  0  0  0  0  0  0  0  0  0
   -2.9839   -0.3917   -1.5810 H   0  0  0  0  0  0  0  0  0  0  0  0
   -4.1931   -0.9038    0.5815 H   0  0  0  0  0  0  0  0  0  0  0  0
   -2.9376   -0.0070    1.4697 H   0  0  0  0  0  0  0  0  0  0  0  0
   -3.9140    0.8499    0.1655 H   0  0  0  0  0  0  0  0  0  0  0  0
   -0.7117    0.5114    1.4664 H   0  0  0  0  0  0  0  0  0  0  0  0
   -0.2861   -1.1236    0.7231 H   0  0  0  0  0  0  0  0  0  0  0  0
  1  2  1  0
  2  3  1  0
  3  4  1  0
  4  5  1  0
  5  6  1  0
  6  7  1  0
  7  8  1  0
  6  9  1  0
  9  3  1  0
  1 10  1  0
  1 11  1  0
  1 12  1  0
  2 13  1  0
  2 14  1  0
  3 15  1  0
  4 16  1  0
  4 17  1  0
  6 18  1  0
  7 19  1  0
  7 20  1  0
  8 21  1  0
  8 22  1  0
  8 23  1  0
  9 24  1  0
  9 25  1  0
M  END
