
     RDKit          3D

 23 24  0  0  0  0  0  0  0  0999 V2000
    2.6535    0.0944   -0.3137 C   0  0  0  0  0  0  0  0  0  0  0  0
    1.2796    0.3668   -0.8902 C   0  0  0  0  0  0  0  0  0  0  0  0
    0.3259    0.5672    0.2506 C   0  0  0  0  0  0  0  0  0  0  0  0
    0.2969   -0.6704    1.0953 C   0  0  0  0  0  0  0  0  0  0  0  0
   -1.1451   -1.0947    1.2137 C   0  0  0  0  0  0  0  0  0  0  0  0
   -1.9858   -0.0261    0.5853 C   0  0  0  0  0  0  0  0  0  0  0  0
   -2.5395   -0.4854   -0.6125 O   0  0  0  0  0  0  0  0  0  0  0  0
   -1.6219    0.2652   -1.3686 C   0  0  0  0  0  0  0  0  0  0  0  0
   -1.0597    0.9097   -0.1480 C   0  0  0  0  0  0  0  0  0  0  0  0
    3.2222    1.0438   -0.2812 H   0  0  0  0  0  0  0  0  0  0  0  0
    3.2117   -0.6554   -0.9083 H   0  0  0  0  0  0  0  0  0  0  0  0
    2.5462   -0.2682    0.7283 H   0  0  0  0  0  0  0  0  0  0  0  0
    1.0224   -0.5059   -1.5182 H   0  0  0  0  0  0  0  0  0  0  0  0
    1.3151    1.2488   -1.5610 H   0  0  0  0  0  0  0  0  0  0  0  0
    0.7237    1.4011    0.8773 H   0  0  0  0  0  0  0  0  0  0  0  0
    0.9213   -1.4996    0.6464 H   0  0  0  0  0  0  0  0  0  0  0  0
    0.7433   -0.5025    2.1082 H   0  0  0  0  0  0  0  0  0  0  0  0
   -1.2656   -2.0943    0.7020 H   0  0  0  0  0  0  0  0  0  0  0  0
   -1.4788   -1.2427    2.2525 H   0  0  0  0  0  0  0  0  0  0  0  0
   -2.6628    0.5242    1.2461 H   0  0  0  0  0  0  0  0  0  0  0  0
   -0.9517   -0.3243   -1.9986 H   0  0  0  0  0  0  0  0  0  0  0  0
   -2.2266    0.9631   -2.0190 H   0  0  0  0  0  0  0  0  0  0  0  0
   -1.3244    1.9852   -0.0864 H   0  0  0  0  0  0  0  0  0  0  0  0
  1  2  1  0
  2  3  1  0
  3  4  1  0
  4  5  1  0
  5  6  1  0
  6  7  1  0
  7  8  1  0
  8  9  1  0
  9  3  1  0
  9  6  1  0
  1 10  1  0
  1 11  1  0
  1 12  1  0
  2 13  1  0
  2 14  1  0
  3 15  1  0
  4 16  1  0
  4 17  1  0
  5 18  1  0
  5 19  1  0
  6 20  1  0
  8 21  1  0
  8 22  1  0
  9 23  1  0
M  END
