
     RDKit          3D

 23 23  0  0  0  0  0  0  0  0999 V2000
    2.6290   -1.1316   -0.1774 C   0  0  0  0  0  0  0  0  0  0  0  0
    1.8464    0.0432   -0.6914 C   0  0  0  0  0  0  0  0  0  0  0  0
    0.8038    0.4941    0.2954 C   0  0  0  0  0  0  0  0  0  0  0  0
   -0.1220   -0.6509    0.5283 C   0  0  0  0  0  0  0  0  0  0  0  0
   -1.3858   -0.2646    0.5737 C   0  0  0  0  0  0  0  0  0  0  0  0
   -2.5783   -1.1561    0.7898 C   0  0  0  0  0  0  0  0  0  0  0  0
   -1.3998    1.2035    0.3940 C   0  0  0  0  0  0  0  0  0  0  0  0
   -0.1593    1.4717   -0.4161 C   0  0  0  0  0  0  0  0  0  0  0  0
   -0.3963    1.0463   -1.7173 O   0  0  0  0  0  0  0  0  0  0  0  0
    2.0127   -2.0307   -0.2428 H   0  0  0  0  0  0  0  0  0  0  0  0
    3.5390   -1.2702   -0.7952 H   0  0  0  0  0  0  0  0  0  0  0  0
    2.8654   -0.9260    0.8906 H   0  0  0  0  0  0  0  0  0  0  0  0
    2.5499    0.8747   -0.9128 H   0  0  0  0  0  0  0  0  0  0  0  0
    1.3955   -0.2474   -1.6504 H   0  0  0  0  0  0  0  0  0  0  0  0
    1.2077    0.9137    1.2092 H   0  0  0  0  0  0  0  0  0  0  0  0
    0.2088   -1.6938    0.6481 H   0  0  0  0  0  0  0  0  0  0  0  0
   -2.6070   -1.4525    1.8396 H   0  0  0  0  0  0  0  0  0  0  0  0
   -2.5175   -2.0758    0.1745 H   0  0  0  0  0  0  0  0  0  0  0  0
   -3.4728   -0.6035    0.4398 H   0  0  0  0  0  0  0  0  0  0  0  0
   -1.2340    1.7313    1.3738 H   0  0  0  0  0  0  0  0  0  0  0  0
   -2.3225    1.5641   -0.0999 H   0  0  0  0  0  0  0  0  0  0  0  0
    0.1966    2.4994   -0.3541 H   0  0  0  0  0  0  0  0  0  0  0  0
   -1.0596    1.6613   -2.0995 H   0  0  0  0  0  0  0  0  0  0  0  0
  1  2  1  0
  2  3  1  0
  3  4  1  0
  4  5  2  0
  5  6  1  0
  5  7  1  0
  7  8  1  0
  8  9  1  0
  8  3  1  0
  1 10  1  0
  1 11  1  0
  1 12  1  0
  2 13  1  0
  2 14  1  0
  3 15  1  0
  4 16  1  0
  6 17  1  0
  6 18  1  0
  6 19  1  0
  7 20  1  0
  7 21  1  0
  8 22  1  0
  9 23  1  0
M  END
