
     RDKit          3D

 21 22  0  0  0  0  0  0  0  0999 V2000
    2.4017    0.0970   -0.8483 C   0  0  0  0  0  0  0  0  0  0  0  0
    1.5636    0.5104    0.3536 C   0  0  0  0  0  0  0  0  0  0  0  0
    0.2531   -0.1735    0.2166 C   0  0  0  0  0  0  0  0  0  0  0  0
   -0.8953    0.4815    0.1277 C   0  0  0  0  0  0  0  0  0  0  0  0
   -1.0867    1.9680    0.1472 C   0  0  0  0  0  0  0  0  0  0  0  0
   -2.0321   -0.4676   -0.0004 C   0  0  0  0  0  0  0  0  0  0  0  0
   -1.3932   -1.8032    0.1608 C   0  0  0  0  0  0  0  0  0  0  0  0
   -0.6031   -2.2187   -0.8937 O   0  0  0  0  0  0  0  0  0  0  0  0
    0.0819   -1.6286    0.1649 C   0  0  0  0  0  0  0  0  0  0  0  0
    2.0336   -0.8823   -1.2440 H   0  0  0  0  0  0  0  0  0  0  0  0
    2.2276    0.8495   -1.6406 H   0  0  0  0  0  0  0  0  0  0  0  0
    3.4792    0.0279   -0.5889 H   0  0  0  0  0  0  0  0  0  0  0  0
    2.0982    0.1625    1.2672 H   0  0  0  0  0  0  0  0  0  0  0  0
    1.4695    1.6121    0.3788 H   0  0  0  0  0  0  0  0  0  0  0  0
   -2.0490    2.2548   -0.3091 H   0  0  0  0  0  0  0  0  0  0  0  0
   -0.2890    2.3941   -0.4957 H   0  0  0  0  0  0  0  0  0  0  0  0
   -0.9667    2.3035    1.1884 H   0  0  0  0  0  0  0  0  0  0  0  0
   -2.8540   -0.2595    0.6857 H   0  0  0  0  0  0  0  0  0  0  0  0
   -2.4039   -0.3819   -1.0580 H   0  0  0  0  0  0  0  0  0  0  0  0
   -1.7779   -2.5381    0.8934 H   0  0  0  0  0  0  0  0  0  0  0  0
    0.7424   -2.3080    0.7067 H   0  0  0  0  0  0  0  0  0  0  0  0
  1  2  1  0
  2  3  1  0
  3  4  2  0
  4  5  1  0
  4  6  1  0
  6  7  1  0
  7  8  1  0
  8  9  1  0
  9  3  1  0
  9  7  1  0
  1 10  1  0
  1 11  1  0
  1 12  1  0
  2 13  1  0
  2 14  1  0
  5 15  1  0
  5 16  1  0
  5 17  1  0
  6 18  1  0
  6 19  1  0
  7 20  1  0
  9 21  1  0
M  END
