
     RDKit          3D

 18 19  0  0  0  0  0  0  0  0999 V2000
   -2.1999   -0.3160    0.0637 C   0  0  0  0  0  0  0  0  0  0  0  0
   -1.2209    0.0351   -1.0054 C   0  0  0  0  0  0  0  0  0  0  0  0
    0.1687    0.2434   -0.5593 C   0  0  0  0  0  0  0  0  0  0  0  0
    0.8599   -0.8853    0.1043 C   0  0  0  0  0  0  0  0  0  0  0  0
    0.0564   -0.6286    1.2293 O   0  0  0  0  0  0  0  0  0  0  0  0
    0.4225    0.6489    0.8479 C   0  0  0  0  0  0  0  0  0  0  0  0
    1.8153    0.1019    0.6795 C   0  0  0  0  0  0  0  0  0  0  0  0
    2.5780    0.8062   -0.2405 O   0  0  0  0  0  0  0  0  0  0  0  0
   -3.2135   -0.3685   -0.4338 H   0  0  0  0  0  0  0  0  0  0  0  0
   -2.2403    0.4815    0.8078 H   0  0  0  0  0  0  0  0  0  0  0  0
   -2.0516   -1.3275    0.4992 H   0  0  0  0  0  0  0  0  0  0  0  0
   -1.5933    0.9366   -1.5308 H   0  0  0  0  0  0  0  0  0  0  0  0
   -1.2519   -0.7862   -1.7732 H   0  0  0  0  0  0  0  0  0  0  0  0
    0.7443    0.8564   -1.2741 H   0  0  0  0  0  0  0  0  0  0  0  0
    1.0622   -1.8034   -0.2569 H   0  0  0  0  0  0  0  0  0  0  0  0
    0.1769    1.5152    1.3016 H   0  0  0  0  0  0  0  0  0  0  0  0
    2.3270   -0.2369    1.5752 H   0  0  0  0  0  0  0  0  0  0  0  0
    3.5601    0.7467   -0.0345 H   0  0  0  0  0  0  0  0  0  0  0  0
  1  2  1  0
  2  3  1  0
  3  4  1  0
  4  5  1  0
  5  6  1  0
  6  7  1  0
  7  8  1  0
  6  3  1  0
  7  4  1  0
  1  9  1  0
  1 10  1  0
  1 11  1  0
  2 12  1  0
  2 13  1  0
  3 14  1  0
  4 15  1  0
  6 16  1  0
  7 17  1  0
  8 18  1  0
M  END
