
     RDKit          3D

 23 24  0  0  0  0  0  0  0  0999 V2000
    2.6206   -0.6694    0.9212 C   0  0  0  0  0  0  0  0  0  0  0  0
    2.0186   -0.6037   -0.4649 C   0  0  0  0  0  0  0  0  0  0  0  0
    0.5594   -0.2731   -0.4086 C   0  0  0  0  0  0  0  0  0  0  0  0
   -0.4205   -1.0361   -0.8729 C   0  0  0  0  0  0  0  0  0  0  0  0
   -1.7067   -0.2637   -0.5862 C   0  0  0  0  0  0  0  0  0  0  0  0
   -2.2665   -0.4970    0.7405 C   0  0  0  0  0  0  0  0  0  0  0  0
   -1.1325    1.0810   -0.8879 C   0  0  0  0  0  0  0  0  0  0  0  0
   -0.5500    2.1233   -0.1672 C   0  0  0  0  0  0  0  0  0  0  0  0
   -0.0192    0.8853    0.1974 C   0  0  0  0  0  0  0  0  0  0  0  0
    3.7224   -0.7525    0.7903 H   0  0  0  0  0  0  0  0  0  0  0  0
    2.4388    0.2553    1.5038 H   0  0  0  0  0  0  0  0  0  0  0  0
    2.2636   -1.5869    1.4319 H   0  0  0  0  0  0  0  0  0  0  0  0
    2.5255    0.1797   -1.0475 H   0  0  0  0  0  0  0  0  0  0  0  0
    2.1982   -1.5882   -0.9459 H   0  0  0  0  0  0  0  0  0  0  0  0
   -0.3166   -1.9991   -1.3511 H   0  0  0  0  0  0  0  0  0  0  0  0
   -2.4127   -0.5949   -1.3690 H   0  0  0  0  0  0  0  0  0  0  0  0
   -2.5385    0.3997    1.3303 H   0  0  0  0  0  0  0  0  0  0  0  0
   -1.5753   -1.1021    1.3882 H   0  0  0  0  0  0  0  0  0  0  0  0
   -3.1922   -1.1074    0.6717 H   0  0  0  0  0  0  0  0  0  0  0  0
   -0.7765    1.0273   -1.9711 H   0  0  0  0  0  0  0  0  0  0  0  0
   -1.2036    2.7163    0.5318 H   0  0  0  0  0  0  0  0  0  0  0  0
    0.1506    2.8591   -0.6635 H   0  0  0  0  0  0  0  0  0  0  0  0
   -0.3869    0.5472    1.2288 H   0  0  0  0  0  0  0  0  0  0  0  0
  1  2  1  0
  2  3  1  0
  3  4  2  0
  4  5  1  0
  5  6  1  0
  5  7  1  0
  7  8  1  0
  8  9  1  0
  9  3  1  0
  9  7  1  0
  1 10  1  0
  1 11  1  0
  1 12  1  0
  2 13  1  0
  2 14  1  0
  4 15  1  0
  5 16  1  0
  6 17  1  0
  6 18  1  0
  6 19  1  0
  7 20  1  0
  8 21  1  0
  8 22  1  0
  9 23  1  0
M  END
