
     RDKit          3D

 20 20  0  0  0  0  0  0  0  0999 V2000
   -2.2982    0.3595    0.2155 C   0  0  0  0  0  0  0  0  0  0  0  0
   -0.8312    0.3749    0.6177 C   0  0  0  0  0  0  0  0  0  0  0  0
   -0.0316    0.5783   -0.6491 C   0  0  0  0  0  0  0  0  0  0  0  0
   -0.3224   -0.5686   -1.6077 C   0  0  0  0  0  0  0  0  0  0  0  0
    0.7383   -1.3192   -0.8725 C   0  0  0  0  0  0  0  0  0  0  0  0
    0.9234   -2.4944   -0.6338 O   0  0  0  0  0  0  0  0  0  0  0  0
    1.3570    0.0132   -0.6308 C   0  0  0  0  0  0  0  0  0  0  0  0
    2.1466    0.1702    0.6136 C   0  0  0  0  0  0  0  0  0  0  0  0
   -2.6848   -0.6669    0.0735 H   0  0  0  0  0  0  0  0  0  0  0  0
   -2.9387    0.8768    0.9611 H   0  0  0  0  0  0  0  0  0  0  0  0
   -2.4301    0.8824   -0.7638 H   0  0  0  0  0  0  0  0  0  0  0  0
   -0.7044    1.1672    1.3532 H   0  0  0  0  0  0  0  0  0  0  0  0
   -0.5907   -0.5974    1.0945 H   0  0  0  0  0  0  0  0  0  0  0  0
   -0.1495    1.5769   -1.0678 H   0  0  0  0  0  0  0  0  0  0  0  0
   -0.0094   -0.3010   -2.6355 H   0  0  0  0  0  0  0  0  0  0  0  0
   -1.3370   -0.9947   -1.5163 H   0  0  0  0  0  0  0  0  0  0  0  0
    1.9218    0.3237   -1.5191 H   0  0  0  0  0  0  0  0  0  0  0  0
    1.6009    0.1176    1.5460 H   0  0  0  0  0  0  0  0  0  0  0  0
    2.9400   -0.6275    0.6562 H   0  0  0  0  0  0  0  0  0  0  0  0
    2.7002    1.1291    0.5479 H   0  0  0  0  0  0  0  0  0  0  0  0
  1  2  1  0
  2  3  1  0
  3  4  1  0
  4  5  1  0
  5  6  2  0
  5  7  1  0
  7  8  1  0
  7  3  1  0
  1  9  1  0
  1 10  1  0
  1 11  1  0
  2 12  1  0
  2 13  1  0
  3 14  1  0
  4 15  1  0
  4 16  1  0
  7 17  1  0
  8 18  1  0
  8 19  1  0
  8 20  1  0
M  END
