
     RDKit          3D

 27 27  0  0  0  0  0  0  0  0999 V2000
    0.4366    2.4650   -0.0059 C   0  0  0  0  0  0  0  0  0  0  0  0
    0.8357    1.1329   -0.5731 C   0  0  0  0  0  0  0  0  0  0  0  0
    0.1547   -0.0228    0.1488 C   0  0  0  0  0  0  0  0  0  0  0  0
   -1.3300    0.0238    0.0771 C   0  0  0  0  0  0  0  0  0  0  0  0
   -1.8806   -0.0235   -1.3260 C   0  0  0  0  0  0  0  0  0  0  0  0
   -1.9496   -1.0950    0.8706 C   0  0  0  0  0  0  0  0  0  0  0  0
    0.7394   -0.5060    1.4367 C   0  0  0  0  0  0  0  0  0  0  0  0
    0.9367   -1.2791    0.1509 C   0  0  0  0  0  0  0  0  0  0  0  0
    2.3804   -1.2283   -0.3670 C   0  0  0  0  0  0  0  0  0  0  0  0
   -0.1072    3.0706   -0.7626 H   0  0  0  0  0  0  0  0  0  0  0  0
    1.3876    3.0395    0.1923 H   0  0  0  0  0  0  0  0  0  0  0  0
   -0.1360    2.4082    0.9202 H   0  0  0  0  0  0  0  0  0  0  0  0
    1.9239    0.9821   -0.5587 H   0  0  0  0  0  0  0  0  0  0  0  0
    0.5005    1.0800   -1.6296 H   0  0  0  0  0  0  0  0  0  0  0  0
   -1.7244    0.9760    0.5212 H   0  0  0  0  0  0  0  0  0  0  0  0
   -2.9965   -0.0288   -1.2186 H   0  0  0  0  0  0  0  0  0  0  0  0
   -1.6211   -0.9514   -1.8670 H   0  0  0  0  0  0  0  0  0  0  0  0
   -1.6444    0.8943   -1.9101 H   0  0  0  0  0  0  0  0  0  0  0  0
   -1.4307   -2.0588    0.7222 H   0  0  0  0  0  0  0  0  0  0  0  0
   -3.0343   -1.1635    0.6112 H   0  0  0  0  0  0  0  0  0  0  0  0
   -1.8994   -0.8484    1.9516 H   0  0  0  0  0  0  0  0  0  0  0  0
    0.1172   -1.0238    2.1720 H   0  0  0  0  0  0  0  0  0  0  0  0
    1.6168    0.0366    1.8783 H   0  0  0  0  0  0  0  0  0  0  0  0
    0.4620   -2.2768    0.0305 H   0  0  0  0  0  0  0  0  0  0  0  0
    2.4156   -0.8189   -1.4047 H   0  0  0  0  0  0  0  0  0  0  0  0
    2.8369   -2.2328   -0.3065 H   0  0  0  0  0  0  0  0  0  0  0  0
    3.0102   -0.5510    0.2461 H   0  0  0  0  0  0  0  0  0  0  0  0
  1  2  1  0
  2  3  1  0
  3  4  1  0
  4  5  1  0
  4  6  1  0
  3  7  1  0
  7  8  1  0
  8  9  1  0
  8  3  1  0
  1 10  1  0
  1 11  1  0
  1 12  1  0
  2 13  1  0
  2 14  1  0
  4 15  1  0
  5 16  1  0
  5 17  1  0
  5 18  1  0
  6 19  1  0
  6 20  1  0
  6 21  1  0
  7 22  1  0
  7 23  1  0
  8 24  1  0
  9 25  1  0
  9 26  1  0
  9 27  1  0
M  END
