
     RDKit          3D

 25 25  0  0  0  0  0  0  0  0999 V2000
    2.5618   -0.8921   -0.4683 C   0  0  0  0  0  0  0  0  0  0  0  0
    1.5926    0.2295   -0.1862 C   0  0  0  0  0  0  0  0  0  0  0  0
    0.3640   -0.2150    0.5244 C   0  0  0  0  0  0  0  0  0  0  0  0
   -0.4723   -1.2478   -0.2015 C   0  0  0  0  0  0  0  0  0  0  0  0
   -1.4344   -1.9475    0.7215 C   0  0  0  0  0  0  0  0  0  0  0  0
   -1.1823   -0.0586   -0.8657 C   0  0  0  0  0  0  0  0  0  0  0  0
   -0.7700    0.7485    0.3736 C   0  0  0  0  0  0  0  0  0  0  0  0
   -0.4417    2.1566    0.0017 C   0  0  0  0  0  0  0  0  0  0  0  0
   -1.6673    2.8589   -0.0766 O   0  0  0  0  0  0  0  0  0  0  0  0
    3.5219   -0.7649    0.1124 H   0  0  0  0  0  0  0  0  0  0  0  0
    2.1815   -1.8808   -0.1999 H   0  0  0  0  0  0  0  0  0  0  0  0
    2.8675   -0.8649   -1.5311 H   0  0  0  0  0  0  0  0  0  0  0  0
    1.3664    0.7635   -1.1334 H   0  0  0  0  0  0  0  0  0  0  0  0
    2.1165    0.9640    0.4593 H   0  0  0  0  0  0  0  0  0  0  0  0
    0.5748   -0.5729    1.5466 H   0  0  0  0  0  0  0  0  0  0  0  0
    0.0625   -1.8985   -0.8949 H   0  0  0  0  0  0  0  0  0  0  0  0
   -1.8792   -2.8419    0.2414 H   0  0  0  0  0  0  0  0  0  0  0  0
   -0.9637   -2.2956    1.6603 H   0  0  0  0  0  0  0  0  0  0  0  0
   -2.2648   -1.2809    1.0046 H   0  0  0  0  0  0  0  0  0  0  0  0
   -0.6578    0.2310   -1.7824 H   0  0  0  0  0  0  0  0  0  0  0  0
   -2.2657   -0.1424   -0.9066 H   0  0  0  0  0  0  0  0  0  0  0  0
   -1.5510    0.6899    1.1638 H   0  0  0  0  0  0  0  0  0  0  0  0
    0.2130    2.6803    0.7055 H   0  0  0  0  0  0  0  0  0  0  0  0
   -0.0225    2.2460   -1.0410 H   0  0  0  0  0  0  0  0  0  0  0  0
   -1.8497    3.3357    0.7724 H   0  0  0  0  0  0  0  0  0  0  0  0
  1  2  1  0
  2  3  1  0
  3  4  1  0
  4  5  1  0
  4  6  1  0
  6  7  1  0
  7  8  1  0
  8  9  1  0
  7  3  1  0
  1 10  1  0
  1 11  1  0
  1 12  1  0
  2 13  1  0
  2 14  1  0
  3 15  1  0
  4 16  1  0
  5 17  1  0
  5 18  1  0
  5 19  1  0
  6 20  1  0
  6 21  1  0
  7 22  1  0
  8 23  1  0
  8 24  1  0
  9 25  1  0
M  END
