
     RDKit          3D

 18 18  0  0  0  0  0  0  0  0999 V2000
    1.8719   -0.5835    0.6143 C   0  0  0  0  0  0  0  0  0  0  0  0
    1.0473   -0.2102   -0.5635 C   0  0  0  0  0  0  0  0  0  0  0  0
   -0.2294    0.4995   -0.2899 C   0  0  0  0  0  0  0  0  0  0  0  0
   -1.3129   -0.1203    0.5416 C   0  0  0  0  0  0  0  0  0  0  0  0
   -1.8160   -1.3892   -0.0337 C   0  0  0  0  0  0  0  0  0  0  0  0
   -1.5394   -2.4466    0.5595 O   0  0  0  0  0  0  0  0  0  0  0  0
   -0.2920    1.9816   -0.4312 C   0  0  0  0  0  0  0  0  0  0  0  0
   -0.7092    1.1597   -1.5115 O   0  0  0  0  0  0  0  0  0  0  0  0
    1.3617   -1.2951    1.2877 H   0  0  0  0  0  0  0  0  0  0  0  0
    2.8179   -1.0378    0.2023 H   0  0  0  0  0  0  0  0  0  0  0  0
    2.2292    0.2694    1.2138 H   0  0  0  0  0  0  0  0  0  0  0  0
    0.8501   -1.1249   -1.1604 H   0  0  0  0  0  0  0  0  0  0  0  0
    1.6852    0.4371   -1.2304 H   0  0  0  0  0  0  0  0  0  0  0  0
   -2.1719    0.5717    0.5975 H   0  0  0  0  0  0  0  0  0  0  0  0
   -0.9524   -0.2699    1.5902 H   0  0  0  0  0  0  0  0  0  0  0  0
   -2.4010   -1.4537   -0.9269 H   0  0  0  0  0  0  0  0  0  0  0  0
    0.6826    2.4991   -0.5015 H   0  0  0  0  0  0  0  0  0  0  0  0
   -1.1217    2.5131    0.0422 H   0  0  0  0  0  0  0  0  0  0  0  0
  1  2  1  0
  2  3  1  0
  3  4  1  0
  4  5  1  0
  5  6  2  0
  3  7  1  0
  7  8  1  0
  8  3  1  0
  1  9  1  0
  1 10  1  0
  1 11  1  0
  2 12  1  0
  2 13  1  0
  4 14  1  0
  4 15  1  0
  5 16  1  0
  7 17  1  0
  7 18  1  0
M  END
