
     RDKit          3D

 23 23  0  0  0  0  0  0  0  0999 V2000
   -2.6565    0.7414    0.5554 C   0  0  0  0  0  0  0  0  0  0  0  0
   -1.8822   -0.5006    0.2747 C   0  0  0  0  0  0  0  0  0  0  0  0
   -0.4267   -0.2505    0.0024 C   0  0  0  0  0  0  0  0  0  0  0  0
    0.3038   -1.5433   -0.2743 C   0  0  0  0  0  0  0  0  0  0  0  0
    1.7463   -1.3357    0.1614 C   0  0  0  0  0  0  0  0  0  0  0  0
    1.9691   -0.0574    0.6418 O   0  0  0  0  0  0  0  0  0  0  0  0
    2.0941    0.8979   -0.3316 C   0  0  0  0  0  0  0  0  0  0  0  0
    0.7913    1.5243   -0.7443 C   0  0  0  0  0  0  0  0  0  0  0  0
   -0.1917    0.5944   -1.0515 O   0  0  0  0  0  0  0  0  0  0  0  0
   -3.7289    0.5916    0.2401 H   0  0  0  0  0  0  0  0  0  0  0  0
   -2.2359    1.6527    0.0942 H   0  0  0  0  0  0  0  0  0  0  0  0
   -2.7068    0.9491    1.6546 H   0  0  0  0  0  0  0  0  0  0  0  0
   -1.9236   -1.1319    1.2089 H   0  0  0  0  0  0  0  0  0  0  0  0
   -2.3658   -1.1156   -0.5069 H   0  0  0  0  0  0  0  0  0  0  0  0
    0.0016    0.2320    0.9205 H   0  0  0  0  0  0  0  0  0  0  0  0
    0.2673   -1.7935   -1.3750 H   0  0  0  0  0  0  0  0  0  0  0  0
   -0.1754   -2.3927    0.2408 H   0  0  0  0  0  0  0  0  0  0  0  0
    2.4159   -1.5836   -0.6883 H   0  0  0  0  0  0  0  0  0  0  0  0
    1.9252   -2.0397    1.0191 H   0  0  0  0  0  0  0  0  0  0  0  0
    2.7114    1.7341    0.1082 H   0  0  0  0  0  0  0  0  0  0  0  0
    2.6996    0.5493   -1.2070 H   0  0  0  0  0  0  0  0  0  0  0  0
    0.9461    2.1591   -1.6211 H   0  0  0  0  0  0  0  0  0  0  0  0
    0.4218    2.1185    0.1149 H   0  0  0  0  0  0  0  0  0  0  0  0
  1  2  1  0
  2  3  1  0
  3  4  1  0
  4  5  1  0
  5  6  1  0
  6  7  1  0
  7  8  1  0
  8  9  1  0
  9  3  1  0
  1 10  1  0
  1 11  1  0
  1 12  1  0
  2 13  1  0
  2 14  1  0
  3 15  1  0
  4 16  1  0
  4 17  1  0
  5 18  1  0
  5 19  1  0
  7 20  1  0
  7 21  1  0
  8 22  1  0
  8 23  1  0
M  END
