
     RDKit          3D

 23 24  0  0  0  0  0  0  0  0999 V2000
    2.7224   -0.0371    0.7857 C   0  0  0  0  0  0  0  0  0  0  0  0
    1.7801    0.1530   -0.3508 C   0  0  0  0  0  0  0  0  0  0  0  0
    0.4816    0.7996    0.0340 C   0  0  0  0  0  0  0  0  0  0  0  0
   -0.4646    0.9782   -1.1699 C   0  0  0  0  0  0  0  0  0  0  0  0
   -0.0974    0.4732   -2.3873 O   0  0  0  0  0  0  0  0  0  0  0  0
   -0.8060    0.1339   -0.0316 C   0  0  0  0  0  0  0  0  0  0  0  0
   -1.0343   -1.3201   -0.0768 C   0  0  0  0  0  0  0  0  0  0  0  0
   -2.2774   -1.1081    0.7923 C   0  0  0  0  0  0  0  0  0  0  0  0
   -1.9542    0.3814    0.8668 C   0  0  0  0  0  0  0  0  0  0  0  0
    2.5272    0.6198    1.6519 H   0  0  0  0  0  0  0  0  0  0  0  0
    2.7937   -1.1196    1.0968 H   0  0  0  0  0  0  0  0  0  0  0  0
    3.7579    0.2059    0.4039 H   0  0  0  0  0  0  0  0  0  0  0  0
    2.2362    0.8101   -1.1468 H   0  0  0  0  0  0  0  0  0  0  0  0
    1.6171   -0.8433   -0.8420 H   0  0  0  0  0  0  0  0  0  0  0  0
    0.6105    1.7090    0.6636 H   0  0  0  0  0  0  0  0  0  0  0  0
   -0.9906    1.9726   -1.2264 H   0  0  0  0  0  0  0  0  0  0  0  0
    0.5632    1.0833   -2.7929 H   0  0  0  0  0  0  0  0  0  0  0  0
   -0.2566   -1.8772    0.5248 H   0  0  0  0  0  0  0  0  0  0  0  0
   -1.2329   -1.7990   -1.0489 H   0  0  0  0  0  0  0  0  0  0  0  0
   -3.2120   -1.3258    0.2223 H   0  0  0  0  0  0  0  0  0  0  0  0
   -2.2396   -1.6340    1.7533 H   0  0  0  0  0  0  0  0  0  0  0  0
   -1.7270    0.7687    1.8560 H   0  0  0  0  0  0  0  0  0  0  0  0
   -2.7973    0.9757    0.4221 H   0  0  0  0  0  0  0  0  0  0  0  0
  1  2  1  0
  2  3  1  0
  3  4  1  0
  4  5  1  0
  4  6  1  0
  6  7  1  0
  7  8  1  0
  8  9  1  0
  6  3  1  0
  9  6  1  0
  1 10  1  0
  1 11  1  0
  1 12  1  0
  2 13  1  0
  2 14  1  0
  3 15  1  0
  4 16  1  0
  5 17  1  0
  7 18  1  0
  7 19  1  0
  8 20  1  0
  8 21  1  0
  9 22  1  0
  9 23  1  0
M  END
