
     RDKit          3D

 21 22  0  0  0  0  0  0  0  0999 V2000
    2.5381    0.5134    0.3191 C   0  0  0  0  0  0  0  0  0  0  0  0
    1.7915   -0.4681   -0.5578 C   0  0  0  0  0  0  0  0  0  0  0  0
    0.7135   -1.0961    0.2829 C   0  0  0  0  0  0  0  0  0  0  0  0
   -0.3461   -0.2375    0.9049 C   0  0  0  0  0  0  0  0  0  0  0  0
   -0.4371    1.0520    0.4345 O   0  0  0  0  0  0  0  0  0  0  0  0
   -1.6826    1.3899   -0.0615 C   0  0  0  0  0  0  0  0  0  0  0  0
   -2.2778    0.1814   -0.7111 C   0  0  0  0  0  0  0  0  0  0  0  0
   -1.1995   -0.5622   -1.2443 O   0  0  0  0  0  0  0  0  0  0  0  0
   -0.6640   -1.2676   -0.1934 C   0  0  0  0  0  0  0  0  0  0  0  0
    3.5065    0.1120    0.6783 H   0  0  0  0  0  0  0  0  0  0  0  0
    2.7306    1.4780   -0.2191 H   0  0  0  0  0  0  0  0  0  0  0  0
    1.9600    0.7896    1.2280 H   0  0  0  0  0  0  0  0  0  0  0  0
    1.4238   -0.0267   -1.4909 H   0  0  0  0  0  0  0  0  0  0  0  0
    2.5050   -1.2754   -0.8491 H   0  0  0  0  0  0  0  0  0  0  0  0
    1.0954   -1.9094    0.9489 H   0  0  0  0  0  0  0  0  0  0  0  0
   -0.6774   -0.4636    1.9319 H   0  0  0  0  0  0  0  0  0  0  0  0
   -1.5346    2.1563   -0.8786 H   0  0  0  0  0  0  0  0  0  0  0  0
   -2.3587    1.8270    0.6762 H   0  0  0  0  0  0  0  0  0  0  0  0
   -2.7483   -0.4542    0.0953 H   0  0  0  0  0  0  0  0  0  0  0  0
   -3.0570    0.3777   -1.4420 H   0  0  0  0  0  0  0  0  0  0  0  0
   -1.2812   -2.1165    0.1478 H   0  0  0  0  0  0  0  0  0  0  0  0
  1  2  1  0
  2  3  1  0
  3  4  1  0
  4  5  1  0
  5  6  1  0
  6  7  1  0
  7  8  1  0
  8  9  1  0
  9  3  1  0
  9  4  1  0
  1 10  1  0
  1 11  1  0
  1 12  1  0
  2 13  1  0
  2 14  1  0
  3 15  1  0
  4 16  1  0
  6 17  1  0
  6 18  1  0
  7 19  1  0
  7 20  1  0
  9 21  1  0
M  END
