
     RDKit          3D

 21 21  0  0  0  0  0  0  0  0999 V2000
   -1.5388   -1.3867   -0.3864 C   0  0  0  0  0  0  0  0  0  0  0  0
   -1.3498    0.1076   -0.3671 C   0  0  0  0  0  0  0  0  0  0  0  0
    0.0455    0.5246    0.0062 C   0  0  0  0  0  0  0  0  0  0  0  0
    0.1138    2.0174   -0.0073 C   0  0  0  0  0  0  0  0  0  0  0  0
    1.0113   -0.1021   -0.9798 C   0  0  0  0  0  0  0  0  0  0  0  0
    1.4212   -1.2807   -0.3668 O   0  0  0  0  0  0  0  0  0  0  0  0
    1.6107   -0.9605    0.9725 C   0  0  0  0  0  0  0  0  0  0  0  0
    0.5216    0.0018    1.2801 C   0  0  0  0  0  0  0  0  0  0  0  0
    0.1810    0.2272    2.4189 O   0  0  0  0  0  0  0  0  0  0  0  0
   -1.6869   -1.7636    0.6613 H   0  0  0  0  0  0  0  0  0  0  0  0
   -2.5336   -1.5666   -0.8858 H   0  0  0  0  0  0  0  0  0  0  0  0
   -0.7577   -1.9222   -0.9177 H   0  0  0  0  0  0  0  0  0  0  0  0
   -2.1061    0.5242    0.3308 H   0  0  0  0  0  0  0  0  0  0  0  0
   -1.6112    0.4787   -1.3793 H   0  0  0  0  0  0  0  0  0  0  0  0
    0.9659    2.4135    0.5604 H   0  0  0  0  0  0  0  0  0  0  0  0
    0.1202    2.4410   -1.0308 H   0  0  0  0  0  0  0  0  0  0  0  0
   -0.8276    2.3903    0.4923 H   0  0  0  0  0  0  0  0  0  0  0  0
    0.4603   -0.4124   -1.9118 H   0  0  0  0  0  0  0  0  0  0  0  0
    1.8346    0.5664   -1.2510 H   0  0  0  0  0  0  0  0  0  0  0  0
    1.5163   -1.8216    1.6341 H   0  0  0  0  0  0  0  0  0  0  0  0
    2.6090   -0.4762    1.1269 H   0  0  0  0  0  0  0  0  0  0  0  0
  1  2  1  0
  2  3  1  0
  3  4  1  0
  3  5  1  0
  5  6  1  0
  6  7  1  0
  7  8  1  0
  8  9  2  0
  8  3  1  0
  1 10  1  0
  1 11  1  0
  1 12  1  0
  2 13  1  0
  2 14  1  0
  4 15  1  0
  4 16  1  0
  4 17  1  0
  5 18  1  0
  5 19  1  0
  7 20  1  0
  7 21  1  0
M  END
