
     RDKit          3D

 21 22  0  0  0  0  0  0  0  0999 V2000
    2.2623    0.6107   -0.4295 C   0  0  0  0  0  0  0  0  0  0  0  0
    1.5392   -0.1713    0.6032 C   0  0  0  0  0  0  0  0  0  0  0  0
    0.1174   -0.4780    0.3036 C   0  0  0  0  0  0  0  0  0  0  0  0
   -0.4781   -1.1949    1.2922 O   0  0  0  0  0  0  0  0  0  0  0  0
   -0.1171   -0.9638   -1.1428 C   0  0  0  0  0  0  0  0  0  0  0  0
   -1.5413   -0.5701   -0.7918 C   0  0  0  0  0  0  0  0  0  0  0  0
   -2.0875    0.7180   -0.5385 C   0  0  0  0  0  0  0  0  0  0  0  0
   -2.9554    0.9958    0.5527 O   0  0  0  0  0  0  0  0  0  0  0  0
   -0.7071    0.6628   -0.2400 C   0  0  0  0  0  0  0  0  0  0  0  0
    3.3183    0.7486   -0.0544 H   0  0  0  0  0  0  0  0  0  0  0  0
    2.3493    0.0756   -1.3738 H   0  0  0  0  0  0  0  0  0  0  0  0
    1.8521    1.6371   -0.5097 H   0  0  0  0  0  0  0  0  0  0  0  0
    1.5834    0.3370    1.5870 H   0  0  0  0  0  0  0  0  0  0  0  0
    2.0772   -1.1403    0.7431 H   0  0  0  0  0  0  0  0  0  0  0  0
    0.0023   -2.0267    1.4632 H   0  0  0  0  0  0  0  0  0  0  0  0
    0.0222   -2.0234   -1.2991 H   0  0  0  0  0  0  0  0  0  0  0  0
    0.3921   -0.2750   -1.8232 H   0  0  0  0  0  0  0  0  0  0  0  0
   -1.8751   -1.3114   -0.0008 H   0  0  0  0  0  0  0  0  0  0  0  0
   -2.4822    1.2770   -1.4416 H   0  0  0  0  0  0  0  0  0  0  0  0
   -3.2182    1.9446    0.5511 H   0  0  0  0  0  0  0  0  0  0  0  0
   -0.0542    1.1476   -1.0416 H   0  0  0  0  0  0  0  0  0  0  0  0
  1  2  1  0
  2  3  1  0
  3  4  1  0
  3  5  1  0
  5  6  1  0
  6  7  1  0
  7  8  1  0
  7  9  1  0
  9  3  1  0
  9  6  1  0
  1 10  1  0
  1 11  1  0
  1 12  1  0
  2 13  1  0
  2 14  1  0
  4 15  1  0
  5 16  1  0
  5 17  1  0
  6 18  1  0
  7 19  1  0
  8 20  1  0
  9 21  1  0
M  END
