
     RDKit          3D

 25 26  0  0  0  0  0  0  0  0999 V2000
    3.2162   -0.1375   -0.4273 C   0  0  0  0  0  0  0  0  0  0  0  0
    2.2248   -0.4103    0.6591 C   0  0  0  0  0  0  0  0  0  0  0  0
    0.8251   -0.6821    0.1183 C   0  0  0  0  0  0  0  0  0  0  0  0
    0.0846    0.2320   -0.6505 C   0  0  0  0  0  0  0  0  0  0  0  0
   -0.4659    1.5932   -0.4506 C   0  0  0  0  0  0  0  0  0  0  0  0
   -1.9176    1.1952   -0.0949 C   0  0  0  0  0  0  0  0  0  0  0  0
   -1.7464   -0.1727    0.5968 C   0  0  0  0  0  0  0  0  0  0  0  0
   -2.2978   -1.2831   -0.2208 C   0  0  0  0  0  0  0  0  0  0  0  0
   -0.2939   -0.1886    0.8285 C   0  0  0  0  0  0  0  0  0  0  0  0
    2.8667    0.5365   -1.2101 H   0  0  0  0  0  0  0  0  0  0  0  0
    3.5678   -1.0709   -0.9185 H   0  0  0  0  0  0  0  0  0  0  0  0
    4.1151    0.3182    0.0533 H   0  0  0  0  0  0  0  0  0  0  0  0
    2.1485    0.4561    1.3426 H   0  0  0  0  0  0  0  0  0  0  0  0
    2.6112   -1.2586    1.2604 H   0  0  0  0  0  0  0  0  0  0  0  0
    0.7620   -1.7914   -0.1229 H   0  0  0  0  0  0  0  0  0  0  0  0
   -0.5534   -0.2464   -1.4632 H   0  0  0  0  0  0  0  0  0  0  0  0
   -0.4709    2.2366   -1.3244 H   0  0  0  0  0  0  0  0  0  0  0  0
   -0.1104    2.1035    0.4788 H   0  0  0  0  0  0  0  0  0  0  0  0
   -2.3663    1.9318    0.5733 H   0  0  0  0  0  0  0  0  0  0  0  0
   -2.4961    1.0217   -1.0280 H   0  0  0  0  0  0  0  0  0  0  0  0
   -2.3146   -0.1131    1.5647 H   0  0  0  0  0  0  0  0  0  0  0  0
   -1.4578   -1.9099   -0.5752 H   0  0  0  0  0  0  0  0  0  0  0  0
   -2.9749   -0.9650   -1.0399 H   0  0  0  0  0  0  0  0  0  0  0  0
   -2.9189   -1.9718    0.4257 H   0  0  0  0  0  0  0  0  0  0  0  0
   -0.0371    0.5766    1.6247 H   0  0  0  0  0  0  0  0  0  0  0  0
  1  2  1  0
  2  3  1  0
  3  4  1  0
  4  5  1  0
  5  6  1  0
  6  7  1  0
  7  8  1  0
  7  9  1  0
  9  3  1  0
  9  4  1  0
  1 10  1  0
  1 11  1  0
  1 12  1  0
  2 13  1  0
  2 14  1  0
  3 15  1  0
  4 16  1  0
  5 17  1  0
  5 18  1  0
  6 19  1  0
  6 20  1  0
  7 21  1  0
  8 22  1  0
  8 23  1  0
  8 24  1  0
  9 25  1  0
M  END
