
     RDKit          3D

 23 24  0  0  0  0  0  0  0  0999 V2000
    3.0187   -0.3112    0.0473 C   0  0  0  0  0  0  0  0  0  0  0  0
    1.7299   -0.5006    0.8340 C   0  0  0  0  0  0  0  0  0  0  0  0
    0.8074    0.6461    0.5145 C   0  0  0  0  0  0  0  0  0  0  0  0
    0.4518    0.7616   -0.8777 C   0  0  0  0  0  0  0  0  0  0  0  0
   -0.6258    0.2518   -1.5842 O   0  0  0  0  0  0  0  0  0  0  0  0
   -1.3291    1.2716   -0.8813 C   0  0  0  0  0  0  0  0  0  0  0  0
   -0.6123    0.5517    0.2675 C   0  0  0  0  0  0  0  0  0  0  0  0
   -1.1931   -0.8264    0.3885 C   0  0  0  0  0  0  0  0  0  0  0  0
   -2.6731   -0.7523    0.1127 C   0  0  0  0  0  0  0  0  0  0  0  0
    3.2792    0.7730    0.1587 H   0  0  0  0  0  0  0  0  0  0  0  0
    2.8162   -0.4757   -1.0337 H   0  0  0  0  0  0  0  0  0  0  0  0
    3.7998   -0.9626    0.4467 H   0  0  0  0  0  0  0  0  0  0  0  0
    2.0286   -0.5355    1.9039 H   0  0  0  0  0  0  0  0  0  0  0  0
    1.3427   -1.4861    0.5818 H   0  0  0  0  0  0  0  0  0  0  0  0
    1.0673    1.5357    1.1621 H   0  0  0  0  0  0  0  0  0  0  0  0
    0.5830    1.8285   -1.2406 H   0  0  0  0  0  0  0  0  0  0  0  0
   -2.4083    1.1706   -0.8877 H   0  0  0  0  0  0  0  0  0  0  0  0
   -0.9930    2.2959   -1.0769 H   0  0  0  0  0  0  0  0  0  0  0  0
   -0.7498   -1.5521   -0.3408 H   0  0  0  0  0  0  0  0  0  0  0  0
   -1.0646   -1.2840    1.3811 H   0  0  0  0  0  0  0  0  0  0  0  0
   -2.8932   -0.7936   -0.9950 H   0  0  0  0  0  0  0  0  0  0  0  0
   -3.1796    0.0733    0.6295 H   0  0  0  0  0  0  0  0  0  0  0  0
   -3.2026   -1.6798    0.4898 H   0  0  0  0  0  0  0  0  0  0  0  0
  1  2  1  0
  2  3  1  0
  3  4  1  0
  4  5  1  0
  5  6  1  0
  6  7  1  0
  7  8  1  0
  8  9  1  0
  7  3  1  0
  7  4  1  0
  1 10  1  0
  1 11  1  0
  1 12  1  0
  2 13  1  0
  2 14  1  0
  3 15  1  0
  4 16  1  0
  6 17  1  0
  6 18  1  0
  8 19  1  0
  8 20  1  0
  9 21  1  0
  9 22  1  0
  9 23  1  0
M  END
