
     RDKit          3D

 23 24  0  0  0  0  0  0  0  0999 V2000
    2.4949   -0.9833    0.5479 C   0  0  0  0  0  0  0  0  0  0  0  0
    1.5098   -0.6677   -0.5755 C   0  0  0  0  0  0  0  0  0  0  0  0
    0.7886    0.5822   -0.1811 C   0  0  0  0  0  0  0  0  0  0  0  0
   -0.0010    0.5075    1.1254 C   0  0  0  0  0  0  0  0  0  0  0  0
   -0.6610    0.7323   -0.2210 C   0  0  0  0  0  0  0  0  0  0  0  0
   -1.1982    2.1604   -0.3875 C   0  0  0  0  0  0  0  0  0  0  0  0
   -1.6008   -0.3108   -0.7279 C   0  0  0  0  0  0  0  0  0  0  0  0
   -1.7077   -1.6357   -0.1623 C   0  0  0  0  0  0  0  0  0  0  0  0
   -2.5758   -0.6358    0.3692 O   0  0  0  0  0  0  0  0  0  0  0  0
    3.3142   -0.2341    0.5368 H   0  0  0  0  0  0  0  0  0  0  0  0
    1.9094   -0.9030    1.4902 H   0  0  0  0  0  0  0  0  0  0  0  0
    2.9069   -2.0130    0.4146 H   0  0  0  0  0  0  0  0  0  0  0  0
    2.1303   -0.4413   -1.4920 H   0  0  0  0  0  0  0  0  0  0  0  0
    0.8798   -1.5112   -0.8364 H   0  0  0  0  0  0  0  0  0  0  0  0
    1.4098    1.5103   -0.3251 H   0  0  0  0  0  0  0  0  0  0  0  0
   -0.1787   -0.4729    1.5874 H   0  0  0  0  0  0  0  0  0  0  0  0
    0.1387    1.3744    1.8084 H   0  0  0  0  0  0  0  0  0  0  0  0
   -2.0682    2.2284    0.3093 H   0  0  0  0  0  0  0  0  0  0  0  0
   -0.4629    2.9093   -0.0687 H   0  0  0  0  0  0  0  0  0  0  0  0
   -1.5861    2.3253   -1.3968 H   0  0  0  0  0  0  0  0  0  0  0  0
   -2.1520   -0.0869   -1.6555 H   0  0  0  0  0  0  0  0  0  0  0  0
   -2.3042   -2.3881   -0.7343 H   0  0  0  0  0  0  0  0  0  0  0  0
   -0.9857   -2.0464    0.5746 H   0  0  0  0  0  0  0  0  0  0  0  0
  1  2  1  0
  2  3  1  0
  3  4  1  0
  4  5  1  0
  5  6  1  0
  5  7  1  0
  7  8  1  0
  8  9  1  0
  5  3  1  0
  9  7  1  0
  1 10  1  0
  1 11  1  0
  1 12  1  0
  2 13  1  0
  2 14  1  0
  3 15  1  0
  4 16  1  0
  4 17  1  0
  6 18  1  0
  6 19  1  0
  6 20  1  0
  7 21  1  0
  8 22  1  0
  8 23  1  0
M  END
