
     RDKit          3D

 19 20  0  0  0  0  0  0  0  0999 V2000
    2.0873   -0.0942    0.1941 C   0  0  0  0  0  0  0  0  0  0  0  0
    0.7466   -0.2311    0.8740 C   0  0  0  0  0  0  0  0  0  0  0  0
   -0.3907   -0.1602   -0.0866 C   0  0  0  0  0  0  0  0  0  0  0  0
   -0.3578   -1.2364   -1.1410 C   0  0  0  0  0  0  0  0  0  0  0  0
   -0.7783    1.1977   -0.5811 C   0  0  0  0  0  0  0  0  0  0  0  0
   -2.0423    0.6415   -0.7920 O   0  0  0  0  0  0  0  0  0  0  0  0
   -1.7320    0.1763    0.4799 C   0  0  0  0  0  0  0  0  0  0  0  0
   -1.2232    1.5012    0.7482 C   0  0  0  0  0  0  0  0  0  0  0  0
   -1.2117    2.3242    1.6025 O   0  0  0  0  0  0  0  0  0  0  0  0
    2.4195    0.9745    0.2910 H   0  0  0  0  0  0  0  0  0  0  0  0
    1.9823   -0.3623   -0.8586 H   0  0  0  0  0  0  0  0  0  0  0  0
    2.8559   -0.7784    0.6460 H   0  0  0  0  0  0  0  0  0  0  0  0
    0.6009    0.5399    1.6761 H   0  0  0  0  0  0  0  0  0  0  0  0
    0.7254   -1.2626    1.3351 H   0  0  0  0  0  0  0  0  0  0  0  0
   -0.1407   -2.1959   -0.6097 H   0  0  0  0  0  0  0  0  0  0  0  0
   -1.3389   -1.3321   -1.6412 H   0  0  0  0  0  0  0  0  0  0  0  0
    0.3914   -1.0478   -1.9358 H   0  0  0  0  0  0  0  0  0  0  0  0
   -0.2776    1.7605   -1.2518 H   0  0  0  0  0  0  0  0  0  0  0  0
   -2.3161   -0.4148    1.0509 H   0  0  0  0  0  0  0  0  0  0  0  0
  1  2  1  0
  2  3  1  0
  3  4  1  0
  3  5  1  0
  5  6  1  0
  6  7  1  0
  7  8  1  0
  8  9  2  0
  7  3  1  0
  8  5  1  0
  1 10  1  0
  1 11  1  0
  1 12  1  0
  2 13  1  0
  2 14  1  0
  4 15  1  0
  4 16  1  0
  4 17  1  0
  5 18  1  0
  7 19  1  0
M  END
