
     RDKit          3D

 23 24  0  0  0  0  0  0  0  0999 V2000
    2.7615    0.3848   -0.9055 C   0  0  0  0  0  0  0  0  0  0  0  0
    1.7470   -0.3666   -0.0837 C   0  0  0  0  0  0  0  0  0  0  0  0
    0.7223    0.6257    0.4004 C   0  0  0  0  0  0  0  0  0  0  0  0
    0.1030    1.2334   -0.6937 O   0  0  0  0  0  0  0  0  0  0  0  0
   -1.0885    0.6734   -0.3136 C   0  0  0  0  0  0  0  0  0  0  0  0
   -1.9614   -0.0573   -1.2890 C   0  0  0  0  0  0  0  0  0  0  0  0
   -1.6995    0.9857    1.0293 C   0  0  0  0  0  0  0  0  0  0  0  0
   -0.5635    0.0561    0.9095 C   0  0  0  0  0  0  0  0  0  0  0  0
   -0.6748   -1.4070    1.1897 C   0  0  0  0  0  0  0  0  0  0  0  0
    2.7535    1.4837   -0.6897 H   0  0  0  0  0  0  0  0  0  0  0  0
    2.5597    0.2842   -1.9921 H   0  0  0  0  0  0  0  0  0  0  0  0
    3.7979    0.0378   -0.6421 H   0  0  0  0  0  0  0  0  0  0  0  0
    2.2313   -0.9325    0.7319 H   0  0  0  0  0  0  0  0  0  0  0  0
    1.1962   -1.0790   -0.7587 H   0  0  0  0  0  0  0  0  0  0  0  0
    1.1559    1.3589    1.1282 H   0  0  0  0  0  0  0  0  0  0  0  0
   -2.9231    0.5331   -1.3520 H   0  0  0  0  0  0  0  0  0  0  0  0
   -1.5448   -0.1192   -2.2931 H   0  0  0  0  0  0  0  0  0  0  0  0
   -2.2821   -1.0517   -0.8735 H   0  0  0  0  0  0  0  0  0  0  0  0
   -1.4417    2.0271    1.3783 H   0  0  0  0  0  0  0  0  0  0  0  0
   -2.7307    0.6649    1.1845 H   0  0  0  0  0  0  0  0  0  0  0  0
   -1.7304   -1.6749    1.3780 H   0  0  0  0  0  0  0  0  0  0  0  0
   -0.2500   -2.0569    0.4047 H   0  0  0  0  0  0  0  0  0  0  0  0
   -0.1379   -1.6037    2.1521 H   0  0  0  0  0  0  0  0  0  0  0  0
  1  2  1  0
  2  3  1  0
  3  4  1  0
  4  5  1  0
  5  6  1  0
  5  7  1  0
  7  8  1  0
  8  9  1  0
  8  3  1  0
  8  5  1  0
  1 10  1  0
  1 11  1  0
  1 12  1  0
  2 13  1  0
  2 14  1  0
  3 15  1  0
  6 16  1  0
  6 17  1  0
  6 18  1  0
  7 19  1  0
  7 20  1  0
  9 21  1  0
  9 22  1  0
  9 23  1  0
M  END
