
     RDKit          3D

 19 20  0  0  0  0  0  0  0  0999 V2000
    1.5247    1.3018   -0.1005 C   0  0  0  0  0  0  0  0  0  0  0  0
    1.5626   -0.1973   -0.0295 C   0  0  0  0  0  0  0  0  0  0  0  0
    0.2601   -0.8511    0.1606 C   0  0  0  0  0  0  0  0  0  0  0  0
   -0.5243   -0.4888    1.4357 C   0  0  0  0  0  0  0  0  0  0  0  0
   -1.0480   -0.2407    0.0779 C   0  0  0  0  0  0  0  0  0  0  0  0
   -1.3496    1.0789   -0.4462 C   0  0  0  0  0  0  0  0  0  0  0  0
   -1.5471    1.2353   -1.6349 O   0  0  0  0  0  0  0  0  0  0  0  0
   -1.4460   -1.4895   -0.6945 C   0  0  0  0  0  0  0  0  0  0  0  0
   -0.1265   -1.9751   -0.5432 O   0  0  0  0  0  0  0  0  0  0  0  0
    1.1034    1.6825   -1.0537 H   0  0  0  0  0  0  0  0  0  0  0  0
    2.5911    1.6614   -0.0892 H   0  0  0  0  0  0  0  0  0  0  0  0
    1.0366    1.7749    0.7644 H   0  0  0  0  0  0  0  0  0  0  0  0
    2.0409   -0.5705   -0.9521 H   0  0  0  0  0  0  0  0  0  0  0  0
    2.2496   -0.4712    0.8136 H   0  0  0  0  0  0  0  0  0  0  0  0
   -0.0701    0.2843    2.0544 H   0  0  0  0  0  0  0  0  0  0  0  0
   -0.9540   -1.3321    1.9929 H   0  0  0  0  0  0  0  0  0  0  0  0
   -1.4062    1.9411    0.1900 H   0  0  0  0  0  0  0  0  0  0  0  0
   -2.1977   -2.1255   -0.2040 H   0  0  0  0  0  0  0  0  0  0  0  0
   -1.6996   -1.2187   -1.7416 H   0  0  0  0  0  0  0  0  0  0  0  0
  1  2  1  0
  2  3  1  0
  3  4  1  0
  4  5  1  0
  5  6  1  0
  6  7  2  0
  5  8  1  0
  8  9  1  0
  5  3  1  0
  9  3  1  0
  1 10  1  0
  1 11  1  0
  1 12  1  0
  2 13  1  0
  2 14  1  0
  4 15  1  0
  4 16  1  0
  6 17  1  0
  8 18  1  0
  8 19  1  0
M  END
