
     RDKit          3D

 21 23  0  0  0  0  0  0  0  0999 V2000
    2.4554   -0.1875    0.0330 C   0  0  0  0  0  0  0  0  0  0  0  0
    1.2371   -0.4739    0.8914 C   0  0  0  0  0  0  0  0  0  0  0  0
    0.0901    0.1750    0.5173 C   0  0  0  0  0  0  0  0  0  0  0  0
   -0.1866    1.6301    0.4160 C   0  0  0  0  0  0  0  0  0  0  0  0
   -1.4942    1.0004    0.0059 C   0  0  0  0  0  0  0  0  0  0  0  0
   -1.2719    0.0443    1.1344 C   0  0  0  0  0  0  0  0  0  0  0  0
   -1.8180   -1.2265    0.6201 C   0  0  0  0  0  0  0  0  0  0  0  0
   -1.4207   -1.2307   -0.6767 C   0  0  0  0  0  0  0  0  0  0  0  0
   -0.6626    0.0319   -0.7806 C   0  0  0  0  0  0  0  0  0  0  0  0
    3.3741   -0.0427    0.6309 H   0  0  0  0  0  0  0  0  0  0  0  0
    2.6830   -1.0351   -0.6637 H   0  0  0  0  0  0  0  0  0  0  0  0
    2.2822    0.6896   -0.6175 H   0  0  0  0  0  0  0  0  0  0  0  0
    1.5524   -0.2637    1.9398 H   0  0  0  0  0  0  0  0  0  0  0  0
    1.1303   -1.6006    0.8691 H   0  0  0  0  0  0  0  0  0  0  0  0
   -0.2242    2.1649    1.3738 H   0  0  0  0  0  0  0  0  0  0  0  0
    0.2742    2.1594   -0.4311 H   0  0  0  0  0  0  0  0  0  0  0  0
   -2.3353    1.4647   -0.2681 H   0  0  0  0  0  0  0  0  0  0  0  0
   -1.4374    0.3387    2.1376 H   0  0  0  0  0  0  0  0  0  0  0  0
   -2.3960   -1.9773    1.1448 H   0  0  0  0  0  0  0  0  0  0  0  0
   -1.6222   -1.9841   -1.4288 H   0  0  0  0  0  0  0  0  0  0  0  0
   -0.2096    0.3234   -1.6928 H   0  0  0  0  0  0  0  0  0  0  0  0
  1  2  1  0
  2  3  1  0
  3  4  1  0
  4  5  1  0
  5  6  1  0
  6  7  1  0
  7  8  2  0
  8  9  1  0
  6  3  1  0
  9  3  1  0
  9  5  1  0
  1 10  1  0
  1 11  1  0
  1 12  1  0
  2 13  1  0
  2 14  1  0
  4 15  1  0
  4 16  1  0
  5 17  1  0
  6 18  1  0
  7 19  1  0
  8 20  1  0
  9 21  1  0
M  END
