
     RDKit          3D

 19 20  0  0  0  0  0  0  0  0999 V2000
    2.4637    0.3216    0.3264 C   0  0  0  0  0  0  0  0  0  0  0  0
    1.3514   -0.4714   -0.2879 C   0  0  0  0  0  0  0  0  0  0  0  0
    0.0670    0.3052   -0.3982 C   0  0  0  0  0  0  0  0  0  0  0  0
   -0.9764   -0.5848   -1.0261 C   0  0  0  0  0  0  0  0  0  0  0  0
   -2.2114   -0.5216   -0.1797 C   0  0  0  0  0  0  0  0  0  0  0  0
   -2.1593   -0.9790    1.1384 O   0  0  0  0  0  0  0  0  0  0  0  0
   -1.9020    0.3566    0.9846 C   0  0  0  0  0  0  0  0  0  0  0  0
   -0.4770    0.7408    0.8886 C   0  0  0  0  0  0  0  0  0  0  0  0
    0.1030    1.3297    1.7784 O   0  0  0  0  0  0  0  0  0  0  0  0
    2.3152    1.4264    0.2032 H   0  0  0  0  0  0  0  0  0  0  0  0
    2.5106    0.1579    1.4284 H   0  0  0  0  0  0  0  0  0  0  0  0
    3.4382    0.0165   -0.1007 H   0  0  0  0  0  0  0  0  0  0  0  0
    1.6632   -0.7289   -1.3259 H   0  0  0  0  0  0  0  0  0  0  0  0
    1.2242   -1.4373    0.2384 H   0  0  0  0  0  0  0  0  0  0  0  0
    0.2922    1.2072   -1.0250 H   0  0  0  0  0  0  0  0  0  0  0  0
   -0.5994   -1.6125   -1.1886 H   0  0  0  0  0  0  0  0  0  0  0  0
   -1.2287   -0.1722   -2.0225 H   0  0  0  0  0  0  0  0  0  0  0  0
   -3.2082   -0.4736   -0.6442 H   0  0  0  0  0  0  0  0  0  0  0  0
   -2.6664    1.1195    1.2121 H   0  0  0  0  0  0  0  0  0  0  0  0
  1  2  1  0
  2  3  1  0
  3  4  1  0
  4  5  1  0
  5  6  1  0
  6  7  1  0
  7  8  1  0
  8  9  2  0
  8  3  1  0
  7  5  1  0
  1 10  1  0
  1 11  1  0
  1 12  1  0
  2 13  1  0
  2 14  1  0
  3 15  1  0
  4 16  1  0
  4 17  1  0
  5 18  1  0
  7 19  1  0
M  END
