
     RDKit          3D

 22 23  0  0  0  0  0  0  0  0999 V2000
   -2.6075   -0.5161    0.0130 C   0  0  0  0  0  0  0  0  0  0  0  0
   -1.1706   -1.0582    0.0052 C   0  0  0  0  0  0  0  0  0  0  0  0
   -0.2992   -0.0027    0.5913 C   0  0  0  0  0  0  0  0  0  0  0  0
    1.1523   -0.2511    0.7110 C   0  0  0  0  0  0  0  0  0  0  0  0
    1.7319   -1.3973   -0.0741 C   0  0  0  0  0  0  0  0  0  0  0  0
    1.4587    1.0473    0.0260 C   0  0  0  0  0  0  0  0  0  0  0  0
    0.7273    2.2849    0.3150 C   0  0  0  0  0  0  0  0  0  0  0  0
    0.0120    1.1637   -0.3322 C   0  0  0  0  0  0  0  0  0  0  0  0
   -2.8062   -0.1071   -1.0028 H   0  0  0  0  0  0  0  0  0  0  0  0
   -3.3360   -1.3095    0.2550 H   0  0  0  0  0  0  0  0  0  0  0  0
   -2.6939    0.3530    0.7167 H   0  0  0  0  0  0  0  0  0  0  0  0
   -1.1769   -1.9251    0.6920 H   0  0  0  0  0  0  0  0  0  0  0  0
   -0.8922   -1.4136   -0.9833 H   0  0  0  0  0  0  0  0  0  0  0  0
   -0.7601    0.4038    1.5212 H   0  0  0  0  0  0  0  0  0  0  0  0
    1.5065   -0.2441    1.7536 H   0  0  0  0  0  0  0  0  0  0  0  0
    2.7219   -1.0292   -0.4741 H   0  0  0  0  0  0  0  0  0  0  0  0
    1.9149   -2.2797    0.5518 H   0  0  0  0  0  0  0  0  0  0  0  0
    1.1375   -1.6264   -0.9810 H   0  0  0  0  0  0  0  0  0  0  0  0
    2.2419    1.0750   -0.7528 H   0  0  0  0  0  0  0  0  0  0  0  0
    0.9683    3.1639   -0.2761 H   0  0  0  0  0  0  0  0  0  0  0  0
    0.4933    2.5066    1.3843 H   0  0  0  0  0  0  0  0  0  0  0  0
   -0.3238    1.1618   -1.3614 H   0  0  0  0  0  0  0  0  0  0  0  0
  1  2  1  0
  2  3  1  0
  3  4  1  0
  4  5  1  0
  4  6  1  0
  6  7  1  0
  7  8  1  0
  8  3  1  0
  8  6  1  0
  1  9  1  0
  1 10  1  0
  1 11  1  0
  2 12  1  0
  2 13  1  0
  3 14  1  0
  4 15  1  0
  5 16  1  0
  5 17  1  0
  5 18  1  0
  6 19  1  0
  7 20  1  0
  7 21  1  0
  8 22  1  0
M  END
