
     RDKit          3D

 23 24  0  0  0  0  0  0  0  0999 V2000
    2.2735    1.0732    0.5312 C   0  0  0  0  0  0  0  0  0  0  0  0
    1.1643    0.0476    0.7229 C   0  0  0  0  0  0  0  0  0  0  0  0
    0.5080   -0.3297   -0.5620 C   0  0  0  0  0  0  0  0  0  0  0  0
   -0.0869    0.8467   -1.1934 C   0  0  0  0  0  0  0  0  0  0  0  0
   -1.2554    1.2092   -0.6433 C   0  0  0  0  0  0  0  0  0  0  0  0
   -1.9101    0.5207    0.4836 C   0  0  0  0  0  0  0  0  0  0  0  0
   -1.3981   -0.9012    0.6897 C   0  0  0  0  0  0  0  0  0  0  0  0
   -0.7249   -1.2754   -0.5578 C   0  0  0  0  0  0  0  0  0  0  0  0
    0.5652   -1.6899   -0.9414 C   0  0  0  0  0  0  0  0  0  0  0  0
    3.2826    0.6482    0.7127 H   0  0  0  0  0  0  0  0  0  0  0  0
    2.1726    1.9281    1.2390 H   0  0  0  0  0  0  0  0  0  0  0  0
    2.2835    1.4367   -0.5193 H   0  0  0  0  0  0  0  0  0  0  0  0
    0.5138    0.4255    1.5094 H   0  0  0  0  0  0  0  0  0  0  0  0
    1.6607   -0.8561    1.1243 H   0  0  0  0  0  0  0  0  0  0  0  0
    0.3430    1.3724   -2.0014 H   0  0  0  0  0  0  0  0  0  0  0  0
   -1.7984    2.0869   -1.0362 H   0  0  0  0  0  0  0  0  0  0  0  0
   -3.0156    0.5295    0.2769 H   0  0  0  0  0  0  0  0  0  0  0  0
   -1.7894    1.0602    1.4399 H   0  0  0  0  0  0  0  0  0  0  0  0
   -0.8808   -1.0407    1.6326 H   0  0  0  0  0  0  0  0  0  0  0  0
   -2.3254   -1.5396    0.7779 H   0  0  0  0  0  0  0  0  0  0  0  0
   -1.4659   -1.1787   -1.4121 H   0  0  0  0  0  0  0  0  0  0  0  0
    0.7765   -1.9601   -2.0005 H   0  0  0  0  0  0  0  0  0  0  0  0
    1.1072   -2.4136   -0.2729 H   0  0  0  0  0  0  0  0  0  0  0  0
  1  2  1  0
  2  3  1  0
  3  4  1  0
  4  5  2  0
  5  6  1  0
  6  7  1  0
  7  8  1  0
  8  9  1  0
  8  3  1  0
  9  3  1  0
  1 10  1  0
  1 11  1  0
  1 12  1  0
  2 13  1  0
  2 14  1  0
  4 15  1  0
  5 16  1  0
  6 17  1  0
  6 18  1  0
  7 19  1  0
  7 20  1  0
  8 21  1  0
  9 22  1  0
  9 23  1  0
M  END
