
     RDKit          3D

 20 21  0  0  0  0  0  0  0  0999 V2000
    2.2803    0.2738    0.4018 C   0  0  0  0  0  0  0  0  0  0  0  0
    1.2323   -0.7420    0.0926 C   0  0  0  0  0  0  0  0  0  0  0  0
   -0.0673   -0.1403   -0.3662 C   0  0  0  0  0  0  0  0  0  0  0  0
   -1.2173   -1.0351   -0.7144 C   0  0  0  0  0  0  0  0  0  0  0  0
   -1.8792   -0.6054    0.5833 C   0  0  0  0  0  0  0  0  0  0  0  0
   -0.8893    0.4915    0.7961 C   0  0  0  0  0  0  0  0  0  0  0  0
   -0.3431    1.2952   -0.3233 C   0  0  0  0  0  0  0  0  0  0  0  0
   -1.2819    1.7575   -1.2699 O   0  0  0  0  0  0  0  0  0  0  0  0
    3.2902   -0.2252    0.3522 H   0  0  0  0  0  0  0  0  0  0  0  0
    2.2091    1.1067   -0.3215 H   0  0  0  0  0  0  0  0  0  0  0  0
    2.1510    0.6756    1.4491 H   0  0  0  0  0  0  0  0  0  0  0  0
    1.5959   -1.4192   -0.7113 H   0  0  0  0  0  0  0  0  0  0  0  0
    1.0913   -1.3849    1.0087 H   0  0  0  0  0  0  0  0  0  0  0  0
   -0.9448   -2.0983   -0.7697 H   0  0  0  0  0  0  0  0  0  0  0  0
   -1.7610   -0.6462   -1.6127 H   0  0  0  0  0  0  0  0  0  0  0  0
   -1.7705   -1.4455    1.3261 H   0  0  0  0  0  0  0  0  0  0  0  0
   -2.9231   -0.2876    0.4985 H   0  0  0  0  0  0  0  0  0  0  0  0
   -0.4195    0.5538    1.7720 H   0  0  0  0  0  0  0  0  0  0  0  0
    0.4120    2.0390   -0.0588 H   0  0  0  0  0  0  0  0  0  0  0  0
   -0.7647    1.8366   -2.1326 H   0  0  0  0  0  0  0  0  0  0  0  0
  1  2  1  0
  2  3  1  0
  3  4  1  0
  4  5  1  0
  5  6  1  0
  6  7  1  0
  7  8  1  0
  6  3  1  0
  7  3  1  0
  1  9  1  0
  1 10  1  0
  1 11  1  0
  2 12  1  0
  2 13  1  0
  4 14  1  0
  4 15  1  0
  5 16  1  0
  5 17  1  0
  6 18  1  0
  7 19  1  0
  8 20  1  0
M  END
