
     RDKit          3D

 21 22  0  0  0  0  0  0  0  0999 V2000
   -2.7333    0.5076    0.1369 C   0  0  0  0  0  0  0  0  0  0  0  0
   -1.8180   -0.5556   -0.3769 C   0  0  0  0  0  0  0  0  0  0  0  0
   -0.5322   -0.6821    0.3593 C   0  0  0  0  0  0  0  0  0  0  0  0
    0.2191    0.6442    0.2641 C   0  0  0  0  0  0  0  0  0  0  0  0
    1.5111    0.3357    0.2832 C   0  0  0  0  0  0  0  0  0  0  0  0
    2.6741    1.2746    0.2104 C   0  0  0  0  0  0  0  0  0  0  0  0
    1.6116   -1.0919    0.4275 C   0  0  0  0  0  0  0  0  0  0  0  0
    1.4994   -2.1438   -0.3226 O   0  0  0  0  0  0  0  0  0  0  0  0
    0.4353   -1.4344   -0.5258 C   0  0  0  0  0  0  0  0  0  0  0  0
   -2.2435    1.2719    0.7580 H   0  0  0  0  0  0  0  0  0  0  0  0
   -3.1541    1.0412   -0.7492 H   0  0  0  0  0  0  0  0  0  0  0  0
   -3.6316    0.0634    0.6495 H   0  0  0  0  0  0  0  0  0  0  0  0
   -2.3417   -1.5341   -0.3353 H   0  0  0  0  0  0  0  0  0  0  0  0
   -1.5606   -0.3897   -1.4623 H   0  0  0  0  0  0  0  0  0  0  0  0
   -0.5855   -1.0360    1.3843 H   0  0  0  0  0  0  0  0  0  0  0  0
   -0.1840    1.6412    0.1944 H   0  0  0  0  0  0  0  0  0  0  0  0
    3.2585    1.2198    1.1568 H   0  0  0  0  0  0  0  0  0  0  0  0
    2.3136    2.2747   -0.0319 H   0  0  0  0  0  0  0  0  0  0  0  0
    3.3454    0.8652   -0.5939 H   0  0  0  0  0  0  0  0  0  0  0  0
    1.4478   -1.3662    1.5239 H   0  0  0  0  0  0  0  0  0  0  0  0
    0.4689   -0.9058   -1.5325 H   0  0  0  0  0  0  0  0  0  0  0  0
  1  2  1  0
  2  3  1  0
  3  4  1  0
  4  5  2  0
  5  6  1  0
  5  7  1  0
  7  8  1  0
  8  9  1  0
  9  3  1  0
  9  7  1  0
  1 10  1  0
  1 11  1  0
  1 12  1  0
  2 13  1  0
  2 14  1  0
  3 15  1  0
  4 16  1  0
  6 17  1  0
  6 18  1  0
  6 19  1  0
  7 20  1  0
  9 21  1  0
M  END
