
     RDKit          3D

 21 22  0  0  0  0  0  0  0  0999 V2000
   -2.8760    0.3565    0.0969 C   0  0  0  0  0  0  0  0  0  0  0  0
   -1.7947    0.5266   -0.9499 C   0  0  0  0  0  0  0  0  0  0  0  0
   -0.4871   -0.0285   -0.4914 C   0  0  0  0  0  0  0  0  0  0  0  0
    0.1870   -0.9911   -1.0811 C   0  0  0  0  0  0  0  0  0  0  0  0
    1.4362   -1.3135   -0.3893 C   0  0  0  0  0  0  0  0  0  0  0  0
    1.5292   -0.2486    0.6634 C   0  0  0  0  0  0  0  0  0  0  0  0
    2.7655    0.5167    0.8967 C   0  0  0  0  0  0  0  0  0  0  0  0
    2.3255   -0.4736    1.7433 O   0  0  0  0  0  0  0  0  0  0  0  0
    0.2309    0.4614    0.7305 C   0  0  0  0  0  0  0  0  0  0  0  0
   -3.4742   -0.5577   -0.0562 H   0  0  0  0  0  0  0  0  0  0  0  0
   -3.5225    1.2523    0.0508 H   0  0  0  0  0  0  0  0  0  0  0  0
   -2.4579    0.3088    1.1208 H   0  0  0  0  0  0  0  0  0  0  0  0
   -1.6622    1.6085   -1.1740 H   0  0  0  0  0  0  0  0  0  0  0  0
   -2.1246   -0.0048   -1.8465 H   0  0  0  0  0  0  0  0  0  0  0  0
   -0.1567   -1.4989   -1.9997 H   0  0  0  0  0  0  0  0  0  0  0  0
    2.3383   -1.2921   -1.0319 H   0  0  0  0  0  0  0  0  0  0  0  0
    1.3544   -2.3291    0.0563 H   0  0  0  0  0  0  0  0  0  0  0  0
    3.5935    0.3169    0.1772 H   0  0  0  0  0  0  0  0  0  0  0  0
    2.7235    1.5368    1.3029 H   0  0  0  0  0  0  0  0  0  0  0  0
   -0.3551    0.2986    1.6448 H   0  0  0  0  0  0  0  0  0  0  0  0
    0.4270    1.5547    0.5365 H   0  0  0  0  0  0  0  0  0  0  0  0
  1  2  1  0
  2  3  1  0
  3  4  2  0
  4  5  1  0
  5  6  1  0
  6  7  1  0
  7  8  1  0
  6  9  1  0
  9  3  1  0
  8  6  1  0
  1 10  1  0
  1 11  1  0
  1 12  1  0
  2 13  1  0
  2 14  1  0
  4 15  1  0
  5 16  1  0
  5 17  1  0
  7 18  1  0
  7 19  1  0
  9 20  1  0
  9 21  1  0
M  END
