
     RDKit          3D

 23 24  0  0  0  0  0  0  0  0999 V2000
   -2.5220    1.1983   -0.0942 C   0  0  0  0  0  0  0  0  0  0  0  0
   -1.6992    0.1201    0.5616 C   0  0  0  0  0  0  0  0  0  0  0  0
   -0.7293   -0.5395   -0.3640 C   0  0  0  0  0  0  0  0  0  0  0  0
    0.3133    0.3218   -1.0107 C   0  0  0  0  0  0  0  0  0  0  0  0
    1.4403   -0.4520   -0.3921 C   0  0  0  0  0  0  0  0  0  0  0  0
    2.3323    0.3672    0.5250 C   0  0  0  0  0  0  0  0  0  0  0  0
    2.9083    1.4224   -0.2049 O   0  0  0  0  0  0  0  0  0  0  0  0
    0.4235   -1.2614    0.3667 C   0  0  0  0  0  0  0  0  0  0  0  0
   -0.6214   -2.0145   -0.3547 C   0  0  0  0  0  0  0  0  0  0  0  0
   -3.2992    1.5015    0.6578 H   0  0  0  0  0  0  0  0  0  0  0  0
   -3.0726    0.8617   -0.9791 H   0  0  0  0  0  0  0  0  0  0  0  0
   -1.8991    2.0927   -0.2531 H   0  0  0  0  0  0  0  0  0  0  0  0
   -2.4089   -0.6534    0.9678 H   0  0  0  0  0  0  0  0  0  0  0  0
   -1.1375    0.5778    1.3927 H   0  0  0  0  0  0  0  0  0  0  0  0
    0.3004    1.3694   -0.6099 H   0  0  0  0  0  0  0  0  0  0  0  0
    0.3627    0.2948   -2.1103 H   0  0  0  0  0  0  0  0  0  0  0  0
    2.0228   -1.1048   -1.0667 H   0  0  0  0  0  0  0  0  0  0  0  0
    1.7660    0.7673    1.3893 H   0  0  0  0  0  0  0  0  0  0  0  0
    3.1420   -0.3046    0.8908 H   0  0  0  0  0  0  0  0  0  0  0  0
    3.7122    1.7745    0.2622 H   0  0  0  0  0  0  0  0  0  0  0  0
    0.4404   -1.2439    1.4547 H   0  0  0  0  0  0  0  0  0  0  0  0
   -1.3583   -2.5420    0.2780 H   0  0  0  0  0  0  0  0  0  0  0  0
   -0.4168   -2.5536   -1.3067 H   0  0  0  0  0  0  0  0  0  0  0  0
  1  2  1  0
  2  3  1  0
  3  4  1  0
  4  5  1  0
  5  6  1  0
  6  7  1  0
  5  8  1  0
  8  9  1  0
  8  3  1  0
  9  3  1  0
  1 10  1  0
  1 11  1  0
  1 12  1  0
  2 13  1  0
  2 14  1  0
  4 15  1  0
  4 16  1  0
  5 17  1  0
  6 18  1  0
  6 19  1  0
  7 20  1  0
  8 21  1  0
  9 22  1  0
  9 23  1  0
M  END
