
     RDKit          3D

 23 23  0  0  0  0  0  0  0  0999 V2000
    2.2706   -0.3352    0.7516 C   0  0  0  0  0  0  0  0  0  0  0  0
    1.2268   -0.7941   -0.2116 C   0  0  0  0  0  0  0  0  0  0  0  0
    0.1912    0.2583   -0.5012 C   0  0  0  0  0  0  0  0  0  0  0  0
    0.7983    1.5083   -1.1010 C   0  0  0  0  0  0  0  0  0  0  0  0
   -0.5509    0.6737    0.7165 C   0  0  0  0  0  0  0  0  0  0  0  0
   -1.7129    0.1294    1.0398 C   0  0  0  0  0  0  0  0  0  0  0  0
   -2.2999   -0.9237    0.1715 C   0  0  0  0  0  0  0  0  0  0  0  0
   -1.3975   -1.4116   -0.7581 O   0  0  0  0  0  0  0  0  0  0  0  0
   -0.8359   -0.3174   -1.4530 C   0  0  0  0  0  0  0  0  0  0  0  0
    2.9924   -1.1663    0.8967 H   0  0  0  0  0  0  0  0  0  0  0  0
    2.8128    0.5636    0.4550 H   0  0  0  0  0  0  0  0  0  0  0  0
    1.7768   -0.1677    1.7368 H   0  0  0  0  0  0  0  0  0  0  0  0
    1.6677   -1.1449   -1.1656 H   0  0  0  0  0  0  0  0  0  0  0  0
    0.6863   -1.6484    0.2638 H   0  0  0  0  0  0  0  0  0  0  0  0
    1.4425    1.9573   -0.3407 H   0  0  0  0  0  0  0  0  0  0  0  0
    1.3510    1.2953   -2.0353 H   0  0  0  0  0  0  0  0  0  0  0  0
   -0.0707    2.1708   -1.3662 H   0  0  0  0  0  0  0  0  0  0  0  0
   -0.1670    1.4406    1.3877 H   0  0  0  0  0  0  0  0  0  0  0  0
   -2.2647    0.4396    1.9480 H   0  0  0  0  0  0  0  0  0  0  0  0
   -3.2391   -0.5627   -0.3260 H   0  0  0  0  0  0  0  0  0  0  0  0
   -2.6047   -1.7841    0.8319 H   0  0  0  0  0  0  0  0  0  0  0  0
   -1.6539    0.4328   -1.5223 H   0  0  0  0  0  0  0  0  0  0  0  0
   -0.4191   -0.6137   -2.4201 H   0  0  0  0  0  0  0  0  0  0  0  0
  1  2  1  0
  2  3  1  0
  3  4  1  0
  3  5  1  0
  5  6  2  0
  6  7  1  0
  7  8  1  0
  8  9  1  0
  9  3  1  0
  1 10  1  0
  1 11  1  0
  1 12  1  0
  2 13  1  0
  2 14  1  0
  4 15  1  0
  4 16  1  0
  4 17  1  0
  5 18  1  0
  6 19  1  0
  7 20  1  0
  7 21  1  0
  9 22  1  0
  9 23  1  0
M  END
