
     RDKit          3D

 23 23  0  0  0  0  0  0  0  0999 V2000
    2.3266   -0.3444    0.8447 C   0  0  0  0  0  0  0  0  0  0  0  0
    1.7938   -0.3961   -0.5529 C   0  0  0  0  0  0  0  0  0  0  0  0
    0.2913   -0.4511   -0.6136 C   0  0  0  0  0  0  0  0  0  0  0  0
   -0.2370   -1.5674    0.0318 O   0  0  0  0  0  0  0  0  0  0  0  0
   -1.5964   -1.6153   -0.3169 C   0  0  0  0  0  0  0  0  0  0  0  0
   -2.2997   -0.6012    0.5629 C   0  0  0  0  0  0  0  0  0  0  0  0
   -1.5779    0.6915    0.4104 C   0  0  0  0  0  0  0  0  0  0  0  0
   -0.3612    0.7723   -0.1406 C   0  0  0  0  0  0  0  0  0  0  0  0
    0.2397    2.1380   -0.2270 C   0  0  0  0  0  0  0  0  0  0  0  0
    2.0457    0.5838    1.3837 H   0  0  0  0  0  0  0  0  0  0  0  0
    3.4370   -0.4362    0.7774 H   0  0  0  0  0  0  0  0  0  0  0  0
    1.9815   -1.1849    1.4786 H   0  0  0  0  0  0  0  0  0  0  0  0
    2.1284    0.4865   -1.0972 H   0  0  0  0  0  0  0  0  0  0  0  0
    2.2150   -1.2943   -1.0471 H   0  0  0  0  0  0  0  0  0  0  0  0
    0.0244   -0.5719   -1.6989 H   0  0  0  0  0  0  0  0  0  0  0  0
   -1.7379   -1.2663   -1.3660 H   0  0  0  0  0  0  0  0  0  0  0  0
   -2.0203   -2.6206   -0.2486 H   0  0  0  0  0  0  0  0  0  0  0  0
   -2.2575   -0.9277    1.6359 H   0  0  0  0  0  0  0  0  0  0  0  0
   -3.3573   -0.5348    0.2264 H   0  0  0  0  0  0  0  0  0  0  0  0
   -2.0764    1.5872    0.7663 H   0  0  0  0  0  0  0  0  0  0  0  0
   -0.5822    2.8844   -0.4254 H   0  0  0  0  0  0  0  0  0  0  0  0
    0.9197    2.2115   -1.1030 H   0  0  0  0  0  0  0  0  0  0  0  0
    0.7007    2.4571    0.7195 H   0  0  0  0  0  0  0  0  0  0  0  0
  1  2  1  0
  2  3  1  0
  3  4  1  0
  4  5  1  0
  5  6  1  0
  6  7  1  0
  7  8  2  0
  8  9  1  0
  8  3  1  0
  1 10  1  0
  1 11  1  0
  1 12  1  0
  2 13  1  0
  2 14  1  0
  3 15  1  0
  5 16  1  0
  5 17  1  0
  6 18  1  0
  6 19  1  0
  7 20  1  0
  9 21  1  0
  9 22  1  0
  9 23  1  0
M  END
