
     RDKit          3D

 21 21  0  0  0  0  0  0  0  0999 V2000
   -2.7464    0.4146   -0.2995 C   0  0  0  0  0  0  0  0  0  0  0  0
   -1.8158   -0.7070    0.0854 C   0  0  0  0  0  0  0  0  0  0  0  0
   -0.4150   -0.2903    0.2187 C   0  0  0  0  0  0  0  0  0  0  0  0
   -0.0172    0.9632    0.0154 C   0  0  0  0  0  0  0  0  0  0  0  0
    1.4120    1.3542    0.1588 C   0  0  0  0  0  0  0  0  0  0  0  0
    2.2854    0.3405   -0.5506 C   0  0  0  0  0  0  0  0  0  0  0  0
    1.9371   -0.9874    0.0095 C   0  0  0  0  0  0  0  0  0  0  0  0
    2.7692   -1.8646   -0.0055 O   0  0  0  0  0  0  0  0  0  0  0  0
    0.6027   -1.2943    0.5933 C   0  0  0  0  0  0  0  0  0  0  0  0
   -3.8095    0.1049   -0.2454 H   0  0  0  0  0  0  0  0  0  0  0  0
   -2.5429    0.6479   -1.3747 H   0  0  0  0  0  0  0  0  0  0  0  0
   -2.6358    1.3051    0.3099 H   0  0  0  0  0  0  0  0  0  0  0  0
   -2.2106   -1.1266    1.0520 H   0  0  0  0  0  0  0  0  0  0  0  0
   -1.8525   -1.5427   -0.6401 H   0  0  0  0  0  0  0  0  0  0  0  0
   -0.7284    1.7326   -0.2611 H   0  0  0  0  0  0  0  0  0  0  0  0
    1.6000    2.3284   -0.3069 H   0  0  0  0  0  0  0  0  0  0  0  0
    1.6918    1.3141    1.2314 H   0  0  0  0  0  0  0  0  0  0  0  0
    2.1828    0.3637   -1.6309 H   0  0  0  0  0  0  0  0  0  0  0  0
    3.3496    0.5456   -0.3014 H   0  0  0  0  0  0  0  0  0  0  0  0
    0.2463   -2.2868    0.2507 H   0  0  0  0  0  0  0  0  0  0  0  0
    0.6972   -1.3152    1.6909 H   0  0  0  0  0  0  0  0  0  0  0  0
  1  2  1  0
  2  3  1  0
  3  4  2  0
  4  5  1  0
  5  6  1  0
  6  7  1  0
  7  8  2  0
  7  9  1  0
  9  3  1  0
  1 10  1  0
  1 11  1  0
  1 12  1  0
  2 13  1  0
  2 14  1  0
  4 15  1  0
  5 16  1  0
  5 17  1  0
  6 18  1  0
  6 19  1  0
  9 20  1  0
  9 21  1  0
M  END
