
     RDKit          3D

 19 19  0  0  0  0  0  0  0  0999 V2000
   -2.4800    0.8816    0.1655 C   0  0  0  0  0  0  0  0  0  0  0  0
   -1.7072   -0.2759   -0.3512 C   0  0  0  0  0  0  0  0  0  0  0  0
   -0.2083   -0.1014   -0.2676 C   0  0  0  0  0  0  0  0  0  0  0  0
    0.2382    0.0852    1.0266 O   0  0  0  0  0  0  0  0  0  0  0  0
    1.5167    0.6844    0.9248 C   0  0  0  0  0  0  0  0  0  0  0  0
    2.2185   -0.0864   -0.1249 C   0  0  0  0  0  0  0  0  0  0  0  0
    3.1807    0.3018   -0.7362 O   0  0  0  0  0  0  0  0  0  0  0  0
    1.6559   -1.4262   -0.4053 C   0  0  0  0  0  0  0  0  0  0  0  0
    0.3652   -1.2071   -0.8921 O   0  0  0  0  0  0  0  0  0  0  0  0
   -1.8869    1.6295    0.7152 H   0  0  0  0  0  0  0  0  0  0  0  0
   -3.2612    0.5205    0.8895 H   0  0  0  0  0  0  0  0  0  0  0  0
   -3.0375    1.3933   -0.6549 H   0  0  0  0  0  0  0  0  0  0  0  0
   -2.0049   -1.2406    0.1107 H   0  0  0  0  0  0  0  0  0  0  0  0
   -1.9344   -0.4049   -1.4501 H   0  0  0  0  0  0  0  0  0  0  0  0
    0.0937    0.7951   -0.8488 H   0  0  0  0  0  0  0  0  0  0  0  0
    1.4133    1.7332    0.5259 H   0  0  0  0  0  0  0  0  0  0  0  0
    2.0384    0.6734    1.8995 H   0  0  0  0  0  0  0  0  0  0  0  0
    1.5273   -1.9406    0.5794 H   0  0  0  0  0  0  0  0  0  0  0  0
    2.2725   -2.0149   -1.1059 H   0  0  0  0  0  0  0  0  0  0  0  0
  1  2  1  0
  2  3  1  0
  3  4  1  0
  4  5  1  0
  5  6  1  0
  6  7  2  0
  6  8  1  0
  8  9  1  0
  9  3  1  0
  1 10  1  0
  1 11  1  0
  1 12  1  0
  2 13  1  0
  2 14  1  0
  3 15  1  0
  5 16  1  0
  5 17  1  0
  8 18  1  0
  8 19  1  0
M  END
