
     RDKit          3D

 21 21  0  0  0  0  0  0  0  0999 V2000
   -2.0426    1.2880   -0.2460 C   0  0  0  0  0  0  0  0  0  0  0  0
   -1.6477   -0.1488   -0.3658 C   0  0  0  0  0  0  0  0  0  0  0  0
   -0.5234   -0.5434    0.5432 C   0  0  0  0  0  0  0  0  0  0  0  0
   -0.2053   -2.0274    0.3364 C   0  0  0  0  0  0  0  0  0  0  0  0
    1.2283   -1.6688    0.4995 C   0  0  0  0  0  0  0  0  0  0  0  0
    2.2601   -2.2102    0.8614 O   0  0  0  0  0  0  0  0  0  0  0  0
    0.8706   -0.2949    0.0114 C   0  0  0  0  0  0  0  0  0  0  0  0
    1.5894    0.6502    0.7132 O   0  0  0  0  0  0  0  0  0  0  0  0
    2.2767    1.5102   -0.1065 C   0  0  0  0  0  0  0  0  0  0  0  0
   -1.3293    1.9933   -0.6699 H   0  0  0  0  0  0  0  0  0  0  0  0
   -3.0095    1.4088   -0.8115 H   0  0  0  0  0  0  0  0  0  0  0  0
   -2.3003    1.4783    0.8170 H   0  0  0  0  0  0  0  0  0  0  0  0
   -1.3956   -0.4656   -1.3855 H   0  0  0  0  0  0  0  0  0  0  0  0
   -2.5425   -0.7643   -0.0615 H   0  0  0  0  0  0  0  0  0  0  0  0
   -0.6314   -0.2844    1.6074 H   0  0  0  0  0  0  0  0  0  0  0  0
   -0.6290   -2.7028    1.0757 H   0  0  0  0  0  0  0  0  0  0  0  0
   -0.4473   -2.3555   -0.6906 H   0  0  0  0  0  0  0  0  0  0  0  0
    0.9510   -0.2233   -1.0759 H   0  0  0  0  0  0  0  0  0  0  0  0
    3.0187    1.0068   -0.7691 H   0  0  0  0  0  0  0  0  0  0  0  0
    2.8854    2.1851    0.5486 H   0  0  0  0  0  0  0  0  0  0  0  0
    1.6238    2.1689   -0.7218 H   0  0  0  0  0  0  0  0  0  0  0  0
  1  2  1  0
  2  3  1  0
  3  4  1  0
  4  5  1  0
  5  6  2  0
  5  7  1  0
  7  8  1  0
  8  9  1  0
  7  3  1  0
  1 10  1  0
  1 11  1  0
  1 12  1  0
  2 13  1  0
  2 14  1  0
  3 15  1  0
  4 16  1  0
  4 17  1  0
  7 18  1  0
  9 19  1  0
  9 20  1  0
  9 21  1  0
M  END
