
     RDKit          3D

 23 23  0  0  0  0  0  0  0  0999 V2000
    3.2098   -0.0996    0.9743 C   0  0  0  0  0  0  0  0  0  0  0  0
    1.7636   -0.6025    1.0805 C   0  0  0  0  0  0  0  0  0  0  0  0
    1.4786   -1.3063   -0.2450 C   0  0  0  0  0  0  0  0  0  0  0  0
    1.5851   -0.5356   -1.3837 O   0  0  0  0  0  0  0  0  0  0  0  0
    0.3011   -0.9585   -1.0476 C   0  0  0  0  0  0  0  0  0  0  0  0
   -0.6688    0.0375   -0.4480 C   0  0  0  0  0  0  0  0  0  0  0  0
   -1.8286    0.3255   -1.3357 C   0  0  0  0  0  0  0  0  0  0  0  0
   -2.6669    1.2352   -0.7546 O   0  0  0  0  0  0  0  0  0  0  0  0
   -3.2343    0.9077    0.4356 C   0  0  0  0  0  0  0  0  0  0  0  0
    3.8422   -1.0288    0.9577 H   0  0  0  0  0  0  0  0  0  0  0  0
    3.4924    0.5175    1.8324 H   0  0  0  0  0  0  0  0  0  0  0  0
    3.3327    0.4079    0.0010 H   0  0  0  0  0  0  0  0  0  0  0  0
    1.0980    0.2564    1.2489 H   0  0  0  0  0  0  0  0  0  0  0  0
    1.7593   -1.3196    1.9170 H   0  0  0  0  0  0  0  0  0  0  0  0
    1.9181   -2.3364   -0.2763 H   0  0  0  0  0  0  0  0  0  0  0  0
   -0.1872   -1.7266   -1.6689 H   0  0  0  0  0  0  0  0  0  0  0  0
   -0.1069    0.9782   -0.2833 H   0  0  0  0  0  0  0  0  0  0  0  0
   -0.9835   -0.4026    0.5263 H   0  0  0  0  0  0  0  0  0  0  0  0
   -1.4871    0.7773   -2.3062 H   0  0  0  0  0  0  0  0  0  0  0  0
   -2.4326   -0.5758   -1.5865 H   0  0  0  0  0  0  0  0  0  0  0  0
   -2.4813    0.7310    1.2136 H   0  0  0  0  0  0  0  0  0  0  0  0
   -3.8412    1.7963    0.7638 H   0  0  0  0  0  0  0  0  0  0  0  0
   -3.8625   -0.0069    0.3845 H   0  0  0  0  0  0  0  0  0  0  0  0
  1  2  1  0
  2  3  1  0
  3  4  1  0
  4  5  1  0
  5  6  1  0
  6  7  1  0
  7  8  1  0
  8  9  1  0
  5  3  1  0
  1 10  1  0
  1 11  1  0
  1 12  1  0
  2 13  1  0
  2 14  1  0
  3 15  1  0
  5 16  1  0
  6 17  1  0
  6 18  1  0
  7 19  1  0
  7 20  1  0
  9 21  1  0
  9 22  1  0
  9 23  1  0
M  END
