
     RDKit          3D

 17 18  0  0  0  0  0  0  0  0999 V2000
    2.1083   -0.4964   -0.1764 C   0  0  0  0  0  0  0  0  0  0  0  0
    1.1109    0.0402    0.8319 C   0  0  0  0  0  0  0  0  0  0  0  0
   -0.0866    0.5501    0.0919 C   0  0  0  0  0  0  0  0  0  0  0  0
   -0.8299   -0.4323   -0.7454 C   0  0  0  0  0  0  0  0  0  0  0  0
   -2.0762    0.3605   -0.4886 C   0  0  0  0  0  0  0  0  0  0  0  0
   -1.3485    0.2173    0.8042 C   0  0  0  0  0  0  0  0  0  0  0  0
   -1.1228   -1.1074    0.4274 O   0  0  0  0  0  0  0  0  0  0  0  0
    3.0259   -0.7276    0.3619 H   0  0  0  0  0  0  0  0  0  0  0  0
    2.3237    0.3440   -0.8806 H   0  0  0  0  0  0  0  0  0  0  0  0
    1.7185   -1.3189   -0.7723 H   0  0  0  0  0  0  0  0  0  0  0  0
    0.8090   -0.7290    1.5702 H   0  0  0  0  0  0  0  0  0  0  0  0
    1.6022    0.9055    1.3296 H   0  0  0  0  0  0  0  0  0  0  0  0
    0.0015    1.5173   -0.3989 H   0  0  0  0  0  0  0  0  0  0  0  0
   -0.5434   -0.8392   -1.6227 H   0  0  0  0  0  0  0  0  0  0  0  0
   -2.0440    1.3954   -0.8560 H   0  0  0  0  0  0  0  0  0  0  0  0
   -3.0012   -0.2045   -0.6261 H   0  0  0  0  0  0  0  0  0  0  0  0
   -1.6474    0.5251    1.7164 H   0  0  0  0  0  0  0  0  0  0  0  0
  1  2  1  0
  2  3  1  0
  3  4  1  0
  4  5  1  0
  5  6  1  0
  6  7  1  0
  6  3  1  0
  7  4  1  0
  1  8  1  0
  1  9  1  0
  1 10  1  0
  2 11  1  0
  2 12  1  0
  3 13  1  0
  4 14  1  0
  5 15  1  0
  5 16  1  0
  6 17  1  0
M  END
