
     RDKit          3D

 23 24  0  0  0  0  0  0  0  0999 V2000
    2.6601    0.5272    0.1370 C   0  0  0  0  0  0  0  0  0  0  0  0
    1.8256   -0.7271   -0.0229 C   0  0  0  0  0  0  0  0  0  0  0  0
    0.4341   -0.3998    0.4520 C   0  0  0  0  0  0  0  0  0  0  0  0
   -0.5538   -1.5541    0.3642 C   0  0  0  0  0  0  0  0  0  0  0  0
   -1.5198   -0.5958   -0.2054 C   0  0  0  0  0  0  0  0  0  0  0  0
   -2.8669   -0.5190   -0.2527 C   0  0  0  0  0  0  0  0  0  0  0  0
   -2.3057    0.0311    0.8961 O   0  0  0  0  0  0  0  0  0  0  0  0
   -0.4192    0.3014   -0.5993 C   0  0  0  0  0  0  0  0  0  0  0  0
   -0.5633    1.7590   -0.2317 C   0  0  0  0  0  0  0  0  0  0  0  0
    3.7389    0.3052    0.2487 H   0  0  0  0  0  0  0  0  0  0  0  0
    2.3528    1.0140    1.1068 H   0  0  0  0  0  0  0  0  0  0  0  0
    2.4452    1.2668   -0.6505 H   0  0  0  0  0  0  0  0  0  0  0  0
    1.8524   -1.0078   -1.0912 H   0  0  0  0  0  0  0  0  0  0  0  0
    2.2997   -1.5214    0.5503 H   0  0  0  0  0  0  0  0  0  0  0  0
    0.4103    0.1047    1.4181 H   0  0  0  0  0  0  0  0  0  0  0  0
   -0.8132   -2.0148    1.3412 H   0  0  0  0  0  0  0  0  0  0  0  0
   -0.2520   -2.3611   -0.3389 H   0  0  0  0  0  0  0  0  0  0  0  0
   -3.3959    0.2068   -0.9184 H   0  0  0  0  0  0  0  0  0  0  0  0
   -3.5213   -1.3980   -0.0318 H   0  0  0  0  0  0  0  0  0  0  0  0
   -0.0068    0.1651   -1.6184 H   0  0  0  0  0  0  0  0  0  0  0  0
   -0.6150    2.3473   -1.1840 H   0  0  0  0  0  0  0  0  0  0  0  0
    0.3235    2.1199    0.3087 H   0  0  0  0  0  0  0  0  0  0  0  0
   -1.5100    1.9504    0.3222 H   0  0  0  0  0  0  0  0  0  0  0  0
  1  2  1  0
  2  3  1  0
  3  4  1  0
  4  5  1  0
  5  6  1  0
  6  7  1  0
  5  8  1  0
  8  9  1  0
  8  3  1  0
  7  5  1  0
  1 10  1  0
  1 11  1  0
  1 12  1  0
  2 13  1  0
  2 14  1  0
  3 15  1  0
  4 16  1  0
  4 17  1  0
  6 18  1  0
  6 19  1  0
  8 20  1  0
  9 21  1  0
  9 22  1  0
  9 23  1  0
M  END
