
     RDKit          3D

 19 19  0  0  0  0  0  0  0  0999 V2000
   -2.3470    0.0789    0.2575 C   0  0  0  0  0  0  0  0  0  0  0  0
   -1.1827    0.0898   -0.6781 C   0  0  0  0  0  0  0  0  0  0  0  0
    0.0989    0.5439   -0.0281 C   0  0  0  0  0  0  0  0  0  0  0  0
    0.5940   -0.2523    1.1194 C   0  0  0  0  0  0  0  0  0  0  0  0
    1.5508   -0.9965    0.2292 C   0  0  0  0  0  0  0  0  0  0  0  0
    1.2983    0.0456   -0.8418 C   0  0  0  0  0  0  0  0  0  0  0  0
    2.3051    0.9876   -0.9714 O   0  0  0  0  0  0  0  0  0  0  0  0
   -3.2655    0.3530   -0.3115 H   0  0  0  0  0  0  0  0  0  0  0  0
   -2.2715    0.7626    1.1050 H   0  0  0  0  0  0  0  0  0  0  0  0
   -2.5232   -0.9587    0.6392 H   0  0  0  0  0  0  0  0  0  0  0  0
   -1.4051    0.8450   -1.4862 H   0  0  0  0  0  0  0  0  0  0  0  0
   -1.1061   -0.9037   -1.1554 H   0  0  0  0  0  0  0  0  0  0  0  0
    0.0821    1.6430    0.1191 H   0  0  0  0  0  0  0  0  0  0  0  0
   -0.1258   -0.8541    1.6863 H   0  0  0  0  0  0  0  0  0  0  0  0
    1.1775    0.3782    1.8416 H   0  0  0  0  0  0  0  0  0  0  0  0
    2.6295   -0.9439    0.5422 H   0  0  0  0  0  0  0  0  0  0  0  0
    1.2508   -2.0297   -0.0411 H   0  0  0  0  0  0  0  0  0  0  0  0
    1.0250   -0.4080   -1.8040 H   0  0  0  0  0  0  0  0  0  0  0  0
    2.2148    1.6193   -0.2220 H   0  0  0  0  0  0  0  0  0  0  0  0
  1  2  1  0
  2  3  1  0
  3  4  1  0
  4  5  1  0
  5  6  1  0
  6  7  1  0
  6  3  1  0
  1  8  1  0
  1  9  1  0
  1 10  1  0
  2 11  1  0
  2 12  1  0
  3 13  1  0
  4 14  1  0
  4 15  1  0
  5 16  1  0
  5 17  1  0
  6 18  1  0
  7 19  1  0
M  END
