
     RDKit          3D

 21 21  0  0  0  0  0  0  0  0999 V2000
    2.4554   -0.2967    0.2024 C   0  0  0  0  0  0  0  0  0  0  0  0
    1.5574   -0.1439   -1.0000 C   0  0  0  0  0  0  0  0  0  0  0  0
    0.1048   -0.0654   -0.6425 C   0  0  0  0  0  0  0  0  0  0  0  0
   -0.2342    1.1209    0.2757 C   0  0  0  0  0  0  0  0  0  0  0  0
   -1.3436    1.9355   -0.2205 C   0  0  0  0  0  0  0  0  0  0  0  0
   -1.2951    3.1469   -0.1194 O   0  0  0  0  0  0  0  0  0  0  0  0
   -0.4005   -0.2805    0.7145 C   0  0  0  0  0  0  0  0  0  0  0  0
   -1.8081   -0.8777    0.8196 C   0  0  0  0  0  0  0  0  0  0  0  0
   -1.7440   -2.1215    0.1711 O   0  0  0  0  0  0  0  0  0  0  0  0
    3.4978   -0.3329   -0.1748 H   0  0  0  0  0  0  0  0  0  0  0  0
    2.2305   -1.2847    0.6503 H   0  0  0  0  0  0  0  0  0  0  0  0
    2.3784    0.5450    0.8883 H   0  0  0  0  0  0  0  0  0  0  0  0
    1.8350    0.8146   -1.4969 H   0  0  0  0  0  0  0  0  0  0  0  0
    1.7593   -0.9412   -1.7321 H   0  0  0  0  0  0  0  0  0  0  0  0
   -0.5738   -0.2815   -1.4927 H   0  0  0  0  0  0  0  0  0  0  0  0
    0.6090    1.6750    0.7276 H   0  0  0  0  0  0  0  0  0  0  0  0
   -2.2262    1.5136   -0.6835 H   0  0  0  0  0  0  0  0  0  0  0  0
    0.2502   -0.6371    1.5393 H   0  0  0  0  0  0  0  0  0  0  0  0
   -2.1260   -1.0099    1.8531 H   0  0  0  0  0  0  0  0  0  0  0  0
   -2.5515   -0.2707    0.2803 H   0  0  0  0  0  0  0  0  0  0  0  0
   -2.3749   -2.2077   -0.5598 H   0  0  0  0  0  0  0  0  0  0  0  0
  1  2  1  0
  2  3  1  0
  3  4  1  0
  4  5  1  0
  5  6  2  0
  4  7  1  0
  7  8  1  0
  8  9  1  0
  7  3  1  0
  1 10  1  0
  1 11  1  0
  1 12  1  0
  2 13  1  0
  2 14  1  0
  3 15  1  0
  4 16  1  0
  5 17  1  0
  7 18  1  0
  8 19  1  0
  8 20  1  0
  9 21  1  0
M  END
