
     RDKit          3D

 25 26  0  0  0  0  0  0  0  0999 V2000
    2.6041   -1.0902    0.1301 C   0  0  0  0  0  0  0  0  0  0  0  0
    1.9861    0.2725    0.0009 C   0  0  0  0  0  0  0  0  0  0  0  0
    0.5011    0.2656    0.3614 C   0  0  0  0  0  0  0  0  0  0  0  0
    0.0319    1.7102    0.1794 C   0  0  0  0  0  0  0  0  0  0  0  0
   -1.4150    1.6501   -0.1751 C   0  0  0  0  0  0  0  0  0  0  0  0
   -1.6831    0.2539   -0.5964 C   0  0  0  0  0  0  0  0  0  0  0  0
   -2.0028   -0.6841    0.5786 C   0  0  0  0  0  0  0  0  0  0  0  0
   -1.0785   -1.6701   -0.1513 C   0  0  0  0  0  0  0  0  0  0  0  0
   -0.3248   -0.4621   -0.6403 C   0  0  0  0  0  0  0  0  0  0  0  0
    3.3694   -1.1945   -0.6825 H   0  0  0  0  0  0  0  0  0  0  0  0
    3.1930   -1.1682    1.0805 H   0  0  0  0  0  0  0  0  0  0  0  0
    1.8726   -1.9077    0.1201 H   0  0  0  0  0  0  0  0  0  0  0  0
    2.5035    0.9679    0.6927 H   0  0  0  0  0  0  0  0  0  0  0  0
    2.1110    0.6951   -1.0222 H   0  0  0  0  0  0  0  0  0  0  0  0
    0.4159   -0.0804    1.3897 H   0  0  0  0  0  0  0  0  0  0  0  0
    0.6074    2.1850   -0.6225 H   0  0  0  0  0  0  0  0  0  0  0  0
    0.1483    2.2869    1.1088 H   0  0  0  0  0  0  0  0  0  0  0  0
   -1.7042    2.3343   -0.9881 H   0  0  0  0  0  0  0  0  0  0  0  0
   -2.0398    1.8754    0.7149 H   0  0  0  0  0  0  0  0  0  0  0  0
   -2.3157    0.0885   -1.4652 H   0  0  0  0  0  0  0  0  0  0  0  0
   -1.6065   -0.3120    1.5298 H   0  0  0  0  0  0  0  0  0  0  0  0
   -3.0468   -0.9869    0.6342 H   0  0  0  0  0  0  0  0  0  0  0  0
   -1.6706   -2.0935   -1.0062 H   0  0  0  0  0  0  0  0  0  0  0  0
   -0.5549   -2.3728    0.4804 H   0  0  0  0  0  0  0  0  0  0  0  0
    0.0984   -0.5630   -1.6516 H   0  0  0  0  0  0  0  0  0  0  0  0
  1  2  1  0
  2  3  1  0
  3  4  1  0
  4  5  1  0
  5  6  1  0
  6  7  1  0
  7  8  1  0
  8  9  1  0
  9  3  1  0
  9  6  1  0
  1 10  1  0
  1 11  1  0
  1 12  1  0
  2 13  1  0
  2 14  1  0
  3 15  1  0
  4 16  1  0
  4 17  1  0
  5 18  1  0
  5 19  1  0
  6 20  1  0
  7 21  1  0
  7 22  1  0
  8 23  1  0
  8 24  1  0
  9 25  1  0
M  END
