
     RDKit          3D

 23 23  0  0  0  0  0  0  0  0999 V2000
   -2.5201   -0.9237    0.5195 C   0  0  0  0  0  0  0  0  0  0  0  0
   -1.0295   -1.1871    0.3279 C   0  0  0  0  0  0  0  0  0  0  0  0
   -0.5269   -0.1879   -0.6813 C   0  0  0  0  0  0  0  0  0  0  0  0
   -0.7157    1.2518   -0.2454 C   0  0  0  0  0  0  0  0  0  0  0  0
   -0.4810    1.4299    1.1205 O   0  0  0  0  0  0  0  0  0  0  0  0
    0.5623    1.5325   -1.0077 C   0  0  0  0  0  0  0  0  0  0  0  0
    0.9481    0.0954   -0.6457 C   0  0  0  0  0  0  0  0  0  0  0  0
    1.4984    0.0145    0.6297 O   0  0  0  0  0  0  0  0  0  0  0  0
    2.6999   -0.6903    0.5874 C   0  0  0  0  0  0  0  0  0  0  0  0
   -2.7989   -0.9247    1.5997 H   0  0  0  0  0  0  0  0  0  0  0  0
   -3.1237   -1.6735   -0.0630 H   0  0  0  0  0  0  0  0  0  0  0  0
   -2.8034    0.0653    0.0989 H   0  0  0  0  0  0  0  0  0  0  0  0
   -0.9187   -2.2206    0.0028 H   0  0  0  0  0  0  0  0  0  0  0  0
   -0.5368   -1.0032    1.3027 H   0  0  0  0  0  0  0  0  0  0  0  0
   -0.8835   -0.3617   -1.7057 H   0  0  0  0  0  0  0  0  0  0  0  0
   -1.6211    1.7424   -0.6315 H   0  0  0  0  0  0  0  0  0  0  0  0
    0.0700    2.2709    1.2013 H   0  0  0  0  0  0  0  0  0  0  0  0
    1.2215    2.2970   -0.5600 H   0  0  0  0  0  0  0  0  0  0  0  0
    0.3898    1.5870   -2.0877 H   0  0  0  0  0  0  0  0  0  0  0  0
    1.5555   -0.4017   -1.4210 H   0  0  0  0  0  0  0  0  0  0  0  0
    3.1791   -0.7864    1.5610 H   0  0  0  0  0  0  0  0  0  0  0  0
    2.4418   -1.7215    0.2143 H   0  0  0  0  0  0  0  0  0  0  0  0
    3.3928   -0.2043   -0.1164 H   0  0  0  0  0  0  0  0  0  0  0  0
  1  2  1  0
  2  3  1  0
  3  4  1  0
  4  5  1  0
  4  6  1  0
  6  7  1  0
  7  8  1  0
  8  9  1  0
  7  3  1  0
  1 10  1  0
  1 11  1  0
  1 12  1  0
  2 13  1  0
  2 14  1  0
  3 15  1  0
  4 16  1  0
  5 17  1  0
  6 18  1  0
  6 19  1  0
  7 20  1  0
  9 21  1  0
  9 22  1  0
  9 23  1  0
M  END
