
     RDKit          3D

 21 22  0  0  0  0  0  0  0  0999 V2000
    2.3874    1.2732    0.1487 C   0  0  0  0  0  0  0  0  0  0  0  0
    1.9828   -0.0532   -0.5089 C   0  0  0  0  0  0  0  0  0  0  0  0
    0.6080   -0.3392   -0.1841 C   0  0  0  0  0  0  0  0  0  0  0  0
   -0.4607    0.6151   -0.5880 C   0  0  0  0  0  0  0  0  0  0  0  0
   -1.5408    0.0176   -0.0241 C   0  0  0  0  0  0  0  0  0  0  0  0
   -2.9321    0.4964   -0.0639 C   0  0  0  0  0  0  0  0  0  0  0  0
   -0.9041   -1.1789    0.5939 C   0  0  0  0  0  0  0  0  0  0  0  0
   -0.0142   -1.6565   -0.5537 C   0  0  0  0  0  0  0  0  0  0  0  0
    0.2555   -0.6341    1.1331 O   0  0  0  0  0  0  0  0  0  0  0  0
    1.9374    1.3598    1.1563 H   0  0  0  0  0  0  0  0  0  0  0  0
    2.0740    2.0913   -0.5372 H   0  0  0  0  0  0  0  0  0  0  0  0
    3.4976    1.3141    0.1781 H   0  0  0  0  0  0  0  0  0  0  0  0
    2.6999   -0.7971   -0.1080 H   0  0  0  0  0  0  0  0  0  0  0  0
    2.1962    0.0408   -1.5804 H   0  0  0  0  0  0  0  0  0  0  0  0
   -0.4461    1.5305   -1.1604 H   0  0  0  0  0  0  0  0  0  0  0  0
   -3.5099    0.2484    0.8401 H   0  0  0  0  0  0  0  0  0  0  0  0
   -2.9460    1.6245   -0.1233 H   0  0  0  0  0  0  0  0  0  0  0  0
   -3.4573    0.1733   -1.0090 H   0  0  0  0  0  0  0  0  0  0  0  0
   -1.4784   -1.8829    1.1271 H   0  0  0  0  0  0  0  0  0  0  0  0
   -0.5079   -1.7158   -1.5296 H   0  0  0  0  0  0  0  0  0  0  0  0
    0.5587   -2.5274   -0.2154 H   0  0  0  0  0  0  0  0  0  0  0  0
  1  2  1  0
  2  3  1  0
  3  4  1  0
  4  5  2  0
  5  6  1  0
  5  7  1  0
  7  8  1  0
  7  9  1  0
  8  3  1  0
  9  3  1  0
  1 10  1  0
  1 11  1  0
  1 12  1  0
  2 13  1  0
  2 14  1  0
  4 15  1  0
  6 16  1  0
  6 17  1  0
  6 18  1  0
  7 19  1  0
  8 20  1  0
  8 21  1  0
M  END
