
     RDKit          3D

 21 22  0  0  0  0  0  0  0  0999 V2000
    2.6148   -0.7089    0.5973 C   0  0  0  0  0  0  0  0  0  0  0  0
    1.6239    0.4501    0.7153 C   0  0  0  0  0  0  0  0  0  0  0  0
    0.3390    0.1541   -0.0095 C   0  0  0  0  0  0  0  0  0  0  0  0
    0.4803   -0.0767   -1.3582 O   0  0  0  0  0  0  0  0  0  0  0  0
   -0.2572    1.0420   -0.9791 C   0  0  0  0  0  0  0  0  0  0  0  0
   -1.7468    0.8209   -1.0142 C   0  0  0  0  0  0  0  0  0  0  0  0
   -2.0582    0.0804    0.2436 C   0  0  0  0  0  0  0  0  0  0  0  0
   -0.7670   -0.4609    0.7826 C   0  0  0  0  0  0  0  0  0  0  0  0
   -0.7119   -1.8435    0.8106 O   0  0  0  0  0  0  0  0  0  0  0  0
    3.1539   -0.8565    1.5603 H   0  0  0  0  0  0  0  0  0  0  0  0
    3.4187   -0.4629   -0.1469 H   0  0  0  0  0  0  0  0  0  0  0  0
    2.0813   -1.6312    0.3506 H   0  0  0  0  0  0  0  0  0  0  0  0
    1.3748    0.5512    1.7983 H   0  0  0  0  0  0  0  0  0  0  0  0
    2.0658    1.3642    0.3130 H   0  0  0  0  0  0  0  0  0  0  0  0
    0.1607    2.0476   -1.1089 H   0  0  0  0  0  0  0  0  0  0  0  0
   -1.9720    0.1453   -1.8913 H   0  0  0  0  0  0  0  0  0  0  0  0
   -2.3304    1.7283   -1.1809 H   0  0  0  0  0  0  0  0  0  0  0  0
   -2.7786   -0.7525    0.0709 H   0  0  0  0  0  0  0  0  0  0  0  0
   -2.5483    0.7418    0.9998 H   0  0  0  0  0  0  0  0  0  0  0  0
   -0.6419   -0.1187    1.8439 H   0  0  0  0  0  0  0  0  0  0  0  0
   -1.5009   -2.2141    0.3605 H   0  0  0  0  0  0  0  0  0  0  0  0
  1  2  1  0
  2  3  1  0
  3  4  1  0
  4  5  1  0
  5  6  1  0
  6  7  1  0
  7  8  1  0
  8  9  1  0
  5  3  1  0
  8  3  1  0
  1 10  1  0
  1 11  1  0
  1 12  1  0
  2 13  1  0
  2 14  1  0
  5 15  1  0
  6 16  1  0
  6 17  1  0
  7 18  1  0
  7 19  1  0
  8 20  1  0
  9 21  1  0
M  END
