
     RDKit          3D

 19 22  0  0  0  0  0  0  0  0999 V2000
    2.2624    0.5379   -1.0289 C   0  0  0  0  0  0  0  0  0  0  0  0
    1.4876   -0.2558   -0.0269 C   0  0  0  0  0  0  0  0  0  0  0  0
    0.0520   -0.1974   -0.1089 C   0  0  0  0  0  0  0  0  0  0  0  0
   -0.7450   -1.0002    0.9047 C   0  0  0  0  0  0  0  0  0  0  0  0
   -1.6992   -0.1074    1.3999 O   0  0  0  0  0  0  0  0  0  0  0  0
   -2.0632    0.6975    0.3430 C   0  0  0  0  0  0  0  0  0  0  0  0
   -1.8595   -0.0223   -0.8964 C   0  0  0  0  0  0  0  0  0  0  0  0
   -0.8156    0.9425   -0.3997 C   0  0  0  0  0  0  0  0  0  0  0  0
   -0.9270   -1.1432   -0.5431 C   0  0  0  0  0  0  0  0  0  0  0  0
    3.3457    0.4858   -0.7226 H   0  0  0  0  0  0  0  0  0  0  0  0
    1.9678    1.5992   -1.0013 H   0  0  0  0  0  0  0  0  0  0  0  0
    2.1208    0.0719   -2.0239 H   0  0  0  0  0  0  0  0  0  0  0  0
    1.8356    0.0796    0.9943 H   0  0  0  0  0  0  0  0  0  0  0  0
    1.8517   -1.3158   -0.0982 H   0  0  0  0  0  0  0  0  0  0  0  0
   -0.2488   -1.6964    1.5598 H   0  0  0  0  0  0  0  0  0  0  0  0
   -2.8279    1.4443    0.5204 H   0  0  0  0  0  0  0  0  0  0  0  0
   -2.3588    0.0778   -1.8323 H   0  0  0  0  0  0  0  0  0  0  0  0
   -0.5549    1.8419   -0.9237 H   0  0  0  0  0  0  0  0  0  0  0  0
   -0.8237   -2.0397   -1.1212 H   0  0  0  0  0  0  0  0  0  0  0  0
  1  2  1  0
  2  3  1  0
  3  4  1  0
  4  5  1  0
  5  6  1  0
  6  7  1  0
  7  8  1  0
  7  9  1  0
  8  3  1  0
  9  3  1  0
  9  4  1  0
  8  6  1  0
  1 10  1  0
  1 11  1  0
  1 12  1  0
  2 13  1  0
  2 14  1  0
  4 15  1  0
  6 16  1  0
  7 17  1  0
  8 18  1  0
  9 19  1  0
M  END
