
     RDKit          3D

 21 23  0  0  0  0  0  0  0  0999 V2000
    2.4439    0.3426   -0.5146 C   0  0  0  0  0  0  0  0  0  0  0  0
    1.2437   -0.5276   -0.1158 C   0  0  0  0  0  0  0  0  0  0  0  0
    0.0144    0.2907    0.0464 C   0  0  0  0  0  0  0  0  0  0  0  0
    0.0897    1.3861    1.1082 C   0  0  0  0  0  0  0  0  0  0  0  0
   -0.6638    0.2084    1.4632 C   0  0  0  0  0  0  0  0  0  0  0  0
   -2.0182   -0.0032    1.1244 O   0  0  0  0  0  0  0  0  0  0  0  0
   -1.8576   -0.9036    0.1033 C   0  0  0  0  0  0  0  0  0  0  0  0
   -1.9682   -0.8716   -1.2909 C   0  0  0  0  0  0  0  0  0  0  0  0
   -1.1669    0.1870   -0.8161 C   0  0  0  0  0  0  0  0  0  0  0  0
    3.2177   -0.2626   -1.0320 H   0  0  0  0  0  0  0  0  0  0  0  0
    2.8942    0.8212    0.4027 H   0  0  0  0  0  0  0  0  0  0  0  0
    2.0823    1.1685   -1.1336 H   0  0  0  0  0  0  0  0  0  0  0  0
    1.1072   -1.3678   -0.8022 H   0  0  0  0  0  0  0  0  0  0  0  0
    1.5396   -0.9760    0.8712 H   0  0  0  0  0  0  0  0  0  0  0  0
   -0.4823    2.3154    0.8408 H   0  0  0  0  0  0  0  0  0  0  0  0
    1.0253    1.5791    1.6225 H   0  0  0  0  0  0  0  0  0  0  0  0
   -0.1956   -0.5343    2.1562 H   0  0  0  0  0  0  0  0  0  0  0  0
   -1.1649   -1.7200    0.4861 H   0  0  0  0  0  0  0  0  0  0  0  0
   -2.9804   -0.6768   -1.7410 H   0  0  0  0  0  0  0  0  0  0  0  0
   -1.4601   -1.6478   -1.9327 H   0  0  0  0  0  0  0  0  0  0  0  0
   -1.7000    1.1921   -0.8461 H   0  0  0  0  0  0  0  0  0  0  0  0
  1  2  1  0
  2  3  1  0
  3  4  1  0
  4  5  1  0
  5  6  1  0
  6  7  1  0
  7  8  1  0
  8  9  1  0
  5  3  1  0
  9  7  1  0
  9  3  1  0
  1 10  1  0
  1 11  1  0
  1 12  1  0
  2 13  1  0
  2 14  1  0
  4 15  1  0
  4 16  1  0
  5 17  1  0
  7 18  1  0
  8 19  1  0
  8 20  1  0
  9 21  1  0
M  END
