
     RDKit          3D

 16 16  0  0  0  0  0  0  0  0999 V2000
   -1.8579    0.9236   -0.6702 C   0  0  0  0  0  0  0  0  0  0  0  0
   -0.9536    0.2520    0.3169 C   0  0  0  0  0  0  0  0  0  0  0  0
    0.1310   -0.5685   -0.3696 C   0  0  0  0  0  0  0  0  0  0  0  0
    0.9969   -1.2108    0.6793 C   0  0  0  0  0  0  0  0  0  0  0  0
    2.2996   -0.9517    0.1869 O   0  0  0  0  0  0  0  0  0  0  0  0
    2.2389    0.3111   -0.3838 C   0  0  0  0  0  0  0  0  0  0  0  0
    3.1080    1.2478   -0.3616 O   0  0  0  0  0  0  0  0  0  0  0  0
    0.9998    0.3606   -1.0093 O   0  0  0  0  0  0  0  0  0  0  0  0
   -2.9315    0.7681   -0.3983 H   0  0  0  0  0  0  0  0  0  0  0  0
   -1.6880    2.0241   -0.6854 H   0  0  0  0  0  0  0  0  0  0  0  0
   -1.7169    0.4919   -1.6756 H   0  0  0  0  0  0  0  0  0  0  0  0
   -1.5452   -0.4162    0.9764 H   0  0  0  0  0  0  0  0  0  0  0  0
   -0.4938    1.0102    0.9834 H   0  0  0  0  0  0  0  0  0  0  0  0
   -0.3103   -1.2902   -1.0569 H   0  0  0  0  0  0  0  0  0  0  0  0
    0.9265   -0.6625    1.6638 H   0  0  0  0  0  0  0  0  0  0  0  0
    0.7966   -2.2896    0.7998 H   0  0  0  0  0  0  0  0  0  0  0  0
  1  2  1  0
  2  3  1  0
  3  4  1  0
  4  5  1  0
  5  6  1  0
  6  7  2  0
  6  8  1  0
  8  3  1  0
  1  9  1  0
  1 10  1  0
  1 11  1  0
  2 12  1  0
  2 13  1  0
  3 14  1  0
  4 15  1  0
  4 16  1  0
M  END
