
     RDKit          3D

 25 25  0  0  0  0  0  0  0  0999 V2000
    2.0089    1.1193    1.0201 C   0  0  0  0  0  0  0  0  0  0  0  0
    1.7338   -0.2943    0.5988 C   0  0  0  0  0  0  0  0  0  0  0  0
    0.5319   -0.3990   -0.3168 C   0  0  0  0  0  0  0  0  0  0  0  0
   -0.7721    0.0922    0.2776 C   0  0  0  0  0  0  0  0  0  0  0  0
   -1.1394   -0.6959    1.5275 C   0  0  0  0  0  0  0  0  0  0  0  0
   -1.8081   -0.0644   -0.6396 O   0  0  0  0  0  0  0  0  0  0  0  0
   -2.4094    1.1873   -0.9054 C   0  0  0  0  0  0  0  0  0  0  0  0
    0.4729   -1.7243   -1.0761 C   0  0  0  0  0  0  0  0  0  0  0  0
    0.6666   -0.4070   -1.7778 C   0  0  0  0  0  0  0  0  0  0  0  0
    2.0826    1.1331    2.1274 H   0  0  0  0  0  0  0  0  0  0  0  0
    1.2373    1.8377    0.6647 H   0  0  0  0  0  0  0  0  0  0  0  0
    3.0097    1.4861    0.6587 H   0  0  0  0  0  0  0  0  0  0  0  0
    1.5469   -0.9590    1.4730 H   0  0  0  0  0  0  0  0  0  0  0  0
    2.6558   -0.6816    0.1194 H   0  0  0  0  0  0  0  0  0  0  0  0
   -0.7010    1.1537    0.5493 H   0  0  0  0  0  0  0  0  0  0  0  0
   -0.3059   -0.6181    2.2547 H   0  0  0  0  0  0  0  0  0  0  0  0
   -1.3815   -1.7386    1.2884 H   0  0  0  0  0  0  0  0  0  0  0  0
   -2.0247   -0.1498    1.9650 H   0  0  0  0  0  0  0  0  0  0  0  0
   -3.2234    1.0475   -1.6293 H   0  0  0  0  0  0  0  0  0  0  0  0
   -1.6522    1.8981   -1.3256 H   0  0  0  0  0  0  0  0  0  0  0  0
   -2.7929    1.6508    0.0197 H   0  0  0  0  0  0  0  0  0  0  0  0
   -0.5016   -2.2401   -1.1334 H   0  0  0  0  0  0  0  0  0  0  0  0
    1.3739   -2.3654   -1.0810 H   0  0  0  0  0  0  0  0  0  0  0  0
   -0.2248   -0.0835   -2.3593 H   0  0  0  0  0  0  0  0  0  0  0  0
    1.6165   -0.1846   -2.2999 H   0  0  0  0  0  0  0  0  0  0  0  0
  1  2  1  0
  2  3  1  0
  3  4  1  0
  4  5  1  0
  4  6  1  0
  6  7  1  0
  3  8  1  0
  8  9  1  0
  9  3  1  0
  1 10  1  0
  1 11  1  0
  1 12  1  0
  2 13  1  0
  2 14  1  0
  4 15  1  0
  5 16  1  0
  5 17  1  0
  5 18  1  0
  7 19  1  0
  7 20  1  0
  7 21  1  0
  8 22  1  0
  8 23  1  0
  9 24  1  0
  9 25  1  0
M  END
