
     RDKit          3D

 21 21  0  0  0  0  0  0  0  0999 V2000
    2.6641    0.3022   -0.1039 C   0  0  0  0  0  0  0  0  0  0  0  0
    1.8251   -0.4381    0.9247 C   0  0  0  0  0  0  0  0  0  0  0  0
    0.4027   -0.2099    0.5293 C   0  0  0  0  0  0  0  0  0  0  0  0
   -0.5614    0.3640    1.2166 C   0  0  0  0  0  0  0  0  0  0  0  0
   -1.7926    0.3526    0.4011 C   0  0  0  0  0  0  0  0  0  0  0  0
   -2.5448   -0.7657    0.7499 O   0  0  0  0  0  0  0  0  0  0  0  0
   -1.3508    0.1657   -1.0288 C   0  0  0  0  0  0  0  0  0  0  0  0
   -2.2351   -0.6226   -1.7481 O   0  0  0  0  0  0  0  0  0  0  0  0
   -0.0862   -0.6454   -0.8038 C   0  0  0  0  0  0  0  0  0  0  0  0
    2.2279    1.3035   -0.2700 H   0  0  0  0  0  0  0  0  0  0  0  0
    3.7048    0.4299    0.2202 H   0  0  0  0  0  0  0  0  0  0  0  0
    2.6256   -0.2710   -1.0583 H   0  0  0  0  0  0  0  0  0  0  0  0
    1.9843   -1.5364    0.8800 H   0  0  0  0  0  0  0  0  0  0  0  0
    2.0259   -0.0921    1.9525 H   0  0  0  0  0  0  0  0  0  0  0  0
   -0.4452    0.7824    2.2413 H   0  0  0  0  0  0  0  0  0  0  0  0
   -2.3854    1.2952    0.5174 H   0  0  0  0  0  0  0  0  0  0  0  0
   -2.7245   -0.7919    1.7226 H   0  0  0  0  0  0  0  0  0  0  0  0
   -1.0825    1.1062   -1.5194 H   0  0  0  0  0  0  0  0  0  0  0  0
   -2.6211   -0.0876   -2.4956 H   0  0  0  0  0  0  0  0  0  0  0  0
    0.6606   -0.5010   -1.6015 H   0  0  0  0  0  0  0  0  0  0  0  0
   -0.2914   -1.7328   -0.7262 H   0  0  0  0  0  0  0  0  0  0  0  0
  1  2  1  0
  2  3  1  0
  3  4  2  0
  4  5  1  0
  5  6  1  0
  5  7  1  0
  7  8  1  0
  7  9  1  0
  9  3  1  0
  1 10  1  0
  1 11  1  0
  1 12  1  0
  2 13  1  0
  2 14  1  0
  4 15  1  0
  5 16  1  0
  6 17  1  0
  7 18  1  0
  8 19  1  0
  9 20  1  0
  9 21  1  0
M  END
