
     RDKit          3D

 19 19  0  0  0  0  0  0  0  0999 V2000
   -1.9834   -0.2722   -0.9745 C   0  0  0  0  0  0  0  0  0  0  0  0
   -0.9958   -0.5929    0.1296 C   0  0  0  0  0  0  0  0  0  0  0  0
    0.0578    0.4934    0.2710 C   0  0  0  0  0  0  0  0  0  0  0  0
   -0.5117    1.7975    0.5884 C   0  0  0  0  0  0  0  0  0  0  0  0
   -0.3394    2.7464   -0.1413 O   0  0  0  0  0  0  0  0  0  0  0  0
    1.0125    0.0304    1.2973 C   0  0  0  0  0  0  0  0  0  0  0  0
    2.0040   -0.5882    0.6949 C   0  0  0  0  0  0  0  0  0  0  0  0
    1.7171   -0.5441   -0.7605 C   0  0  0  0  0  0  0  0  0  0  0  0
    0.7866    0.4798   -0.9161 O   0  0  0  0  0  0  0  0  0  0  0  0
   -1.4100   -0.3070   -1.9245 H   0  0  0  0  0  0  0  0  0  0  0  0
   -2.7753   -1.0443   -0.9241 H   0  0  0  0  0  0  0  0  0  0  0  0
   -2.3721    0.7480   -0.8073 H   0  0  0  0  0  0  0  0  0  0  0  0
   -0.4364   -1.5070   -0.2225 H   0  0  0  0  0  0  0  0  0  0  0  0
   -1.5013   -0.7704    1.0950 H   0  0  0  0  0  0  0  0  0  0  0  0
   -1.0934    1.9211    1.4826 H   0  0  0  0  0  0  0  0  0  0  0  0
    0.9029    0.1811    2.3587 H   0  0  0  0  0  0  0  0  0  0  0  0
    2.8954   -1.0597    1.1720 H   0  0  0  0  0  0  0  0  0  0  0  0
    1.3714   -1.5119   -1.1676 H   0  0  0  0  0  0  0  0  0  0  0  0
    2.6711   -0.2001   -1.2510 H   0  0  0  0  0  0  0  0  0  0  0  0
  1  2  1  0
  2  3  1  0
  3  4  1  0
  4  5  2  0
  3  6  1  0
  6  7  2  0
  7  8  1  0
  8  9  1  0
  9  3  1  0
  1 10  1  0
  1 11  1  0
  1 12  1  0
  2 13  1  0
  2 14  1  0
  4 15  1  0
  6 16  1  0
  7 17  1  0
  8 18  1  0
  8 19  1  0
M  END
