
     RDKit          3D

 21 22  0  0  0  0  0  0  0  0999 V2000
    2.4315    0.0745    0.2824 C   0  0  0  0  0  0  0  0  0  0  0  0
    1.0101    0.1753    0.8445 C   0  0  0  0  0  0  0  0  0  0  0  0
    0.0718    0.1076   -0.3130 C   0  0  0  0  0  0  0  0  0  0  0  0
    0.1168   -1.1032   -1.1416 C   0  0  0  0  0  0  0  0  0  0  0  0
   -1.0613   -0.9486   -0.2895 C   0  0  0  0  0  0  0  0  0  0  0  0
   -1.2239   -1.4944    0.9437 O   0  0  0  0  0  0  0  0  0  0  0  0
   -2.0375    0.1122   -0.8003 C   0  0  0  0  0  0  0  0  0  0  0  0
   -1.0261    1.1076   -0.3256 C   0  0  0  0  0  0  0  0  0  0  0  0
   -0.8549    2.2324   -1.1090 O   0  0  0  0  0  0  0  0  0  0  0  0
    2.4342    0.3994   -0.7971 H   0  0  0  0  0  0  0  0  0  0  0  0
    3.1347    0.7208    0.8023 H   0  0  0  0  0  0  0  0  0  0  0  0
    2.8141   -0.9653    0.3402 H   0  0  0  0  0  0  0  0  0  0  0  0
    0.9470    1.0909    1.4421 H   0  0  0  0  0  0  0  0  0  0  0  0
    0.8945   -0.7298    1.5056 H   0  0  0  0  0  0  0  0  0  0  0  0
   -0.0836   -1.0586   -2.2512 H   0  0  0  0  0  0  0  0  0  0  0  0
    0.8372   -1.8764   -0.8818 H   0  0  0  0  0  0  0  0  0  0  0  0
   -1.8709   -2.2342    0.9755 H   0  0  0  0  0  0  0  0  0  0  0  0
   -2.1131    0.1073   -1.9179 H   0  0  0  0  0  0  0  0  0  0  0  0
   -3.0137    0.1044   -0.2917 H   0  0  0  0  0  0  0  0  0  0  0  0
   -1.2885    1.4163    0.7289 H   0  0  0  0  0  0  0  0  0  0  0  0
   -0.1185    2.7618   -0.6838 H   0  0  0  0  0  0  0  0  0  0  0  0
  1  2  1  0
  2  3  1  0
  3  4  1  0
  4  5  1  0
  5  6  1  0
  5  7  1  0
  7  8  1  0
  8  9  1  0
  5  3  1  0
  8  3  1  0
  1 10  1  0
  1 11  1  0
  1 12  1  0
  2 13  1  0
  2 14  1  0
  4 15  1  0
  4 16  1  0
  6 17  1  0
  7 18  1  0
  7 19  1  0
  8 20  1  0
  9 21  1  0
M  END
