
     RDKit          3D

 21 21  0  0  0  0  0  0  0  0999 V2000
   -2.6743    0.2348   -0.4129 C   0  0  0  0  0  0  0  0  0  0  0  0
   -1.3640    0.0771   -1.1871 C   0  0  0  0  0  0  0  0  0  0  0  0
   -0.2774   -0.2288   -0.1878 C   0  0  0  0  0  0  0  0  0  0  0  0
   -0.4740   -1.3760    0.5443 O   0  0  0  0  0  0  0  0  0  0  0  0
    0.3441    0.9922    0.4484 C   0  0  0  0  0  0  0  0  0  0  0  0
    0.4715    0.9288    1.8258 O   0  0  0  0  0  0  0  0  0  0  0  0
    1.1362    0.1399   -0.4554 C   0  0  0  0  0  0  0  0  0  0  0  0
    2.2290   -0.7186    0.1517 C   0  0  0  0  0  0  0  0  0  0  0  0
    3.4544   -0.1694   -0.2437 O   0  0  0  0  0  0  0  0  0  0  0  0
   -3.5332    0.3167   -1.1102 H   0  0  0  0  0  0  0  0  0  0  0  0
   -2.5834    1.0677    0.2906 H   0  0  0  0  0  0  0  0  0  0  0  0
   -2.7739   -0.7151    0.1851 H   0  0  0  0  0  0  0  0  0  0  0  0
   -1.1988    1.0475   -1.7026 H   0  0  0  0  0  0  0  0  0  0  0  0
   -1.5284   -0.7279   -1.9165 H   0  0  0  0  0  0  0  0  0  0  0  0
   -0.4773   -2.1412   -0.0878 H   0  0  0  0  0  0  0  0  0  0  0  0
    0.0618    1.9934    0.0721 H   0  0  0  0  0  0  0  0  0  0  0  0
   -0.4400    1.1305    2.2082 H   0  0  0  0  0  0  0  0  0  0  0  0
    1.3683    0.4971   -1.4745 H   0  0  0  0  0  0  0  0  0  0  0  0
    2.1798   -1.7607   -0.2225 H   0  0  0  0  0  0  0  0  0  0  0  0
    2.1230   -0.6980    1.2737 H   0  0  0  0  0  0  0  0  0  0  0  0
    3.9566    0.1101    0.5398 H   0  0  0  0  0  0  0  0  0  0  0  0
  1  2  1  0
  2  3  1  0
  3  4  1  0
  3  5  1  0
  5  6  1  0
  5  7  1  0
  7  8  1  0
  8  9  1  0
  7  3  1  0
  1 10  1  0
  1 11  1  0
  1 12  1  0
  2 13  1  0
  2 14  1  0
  4 15  1  0
  5 16  1  0
  6 17  1  0
  7 18  1  0
  8 19  1  0
  8 20  1  0
  9 21  1  0
M  END
