
     RDKit          3D

 23 24  0  0  0  0  0  0  0  0999 V2000
   -2.7349    0.8101    1.0579 C   0  0  0  0  0  0  0  0  0  0  0  0
   -2.0761   -0.0016   -0.0039 C   0  0  0  0  0  0  0  0  0  0  0  0
   -0.8431   -0.7174    0.4376 C   0  0  0  0  0  0  0  0  0  0  0  0
   -0.1999   -1.5372   -0.6818 C   0  0  0  0  0  0  0  0  0  0  0  0
    0.4835   -0.3310   -0.0397 C   0  0  0  0  0  0  0  0  0  0  0  0
    0.7395    0.8615   -0.8639 C   0  0  0  0  0  0  0  0  0  0  0  0
    2.0009    1.2593   -0.7553 C   0  0  0  0  0  0  0  0  0  0  0  0
    2.7614    0.3729    0.1674 C   0  0  0  0  0  0  0  0  0  0  0  0
    1.7497   -0.6417    0.6554 C   0  0  0  0  0  0  0  0  0  0  0  0
   -3.4542    0.2218    1.6748 H   0  0  0  0  0  0  0  0  0  0  0  0
   -3.3763    1.5834    0.5433 H   0  0  0  0  0  0  0  0  0  0  0  0
   -2.0605    1.3619    1.7165 H   0  0  0  0  0  0  0  0  0  0  0  0
   -2.8113   -0.7821   -0.3560 H   0  0  0  0  0  0  0  0  0  0  0  0
   -1.9010    0.6537   -0.8883 H   0  0  0  0  0  0  0  0  0  0  0  0
   -0.9473   -1.2463    1.4084 H   0  0  0  0  0  0  0  0  0  0  0  0
    0.1596   -2.5507   -0.4163 H   0  0  0  0  0  0  0  0  0  0  0  0
   -0.5045   -1.3515   -1.7177 H   0  0  0  0  0  0  0  0  0  0  0  0
   -0.0121    1.3484   -1.4797 H   0  0  0  0  0  0  0  0  0  0  0  0
    2.4315    2.1076   -1.2606 H   0  0  0  0  0  0  0  0  0  0  0  0
    3.5977   -0.0898   -0.3926 H   0  0  0  0  0  0  0  0  0  0  0  0
    3.1467    0.9901    0.9913 H   0  0  0  0  0  0  0  0  0  0  0  0
    1.7001   -0.6694    1.7521 H   0  0  0  0  0  0  0  0  0  0  0  0
    2.1504   -1.6521    0.3479 H   0  0  0  0  0  0  0  0  0  0  0  0
  1  2  1  0
  2  3  1  0
  3  4  1  0
  4  5  1  0
  5  6  1  0
  6  7  2  0
  7  8  1  0
  8  9  1  0
  5  3  1  0
  9  5  1  0
  1 10  1  0
  1 11  1  0
  1 12  1  0
  2 13  1  0
  2 14  1  0
  3 15  1  0
  4 16  1  0
  4 17  1  0
  6 18  1  0
  7 19  1  0
  8 20  1  0
  8 21  1  0
  9 22  1  0
  9 23  1  0
M  END
