
     RDKit          3D

 19 19  0  0  0  0  0  0  0  0999 V2000
   -2.4453   -0.3507   -0.0791 C   0  0  0  0  0  0  0  0  0  0  0  0
   -1.3782    0.6730    0.3059 C   0  0  0  0  0  0  0  0  0  0  0  0
   -0.0843    0.1834   -0.3603 C   0  0  0  0  0  0  0  0  0  0  0  0
    1.0382    1.1055   -0.0567 C   0  0  0  0  0  0  0  0  0  0  0  0
    2.3159    0.4527   -0.4421 C   0  0  0  0  0  0  0  0  0  0  0  0
    3.2624    1.1009   -0.9570 O   0  0  0  0  0  0  0  0  0  0  0  0
    2.4064   -0.9113   -0.2025 O   0  0  0  0  0  0  0  0  0  0  0  0
    1.2947   -1.5055    0.4440 C   0  0  0  0  0  0  0  0  0  0  0  0
    0.0873   -1.1240   -0.0591 O   0  0  0  0  0  0  0  0  0  0  0  0
   -2.4163   -0.4104   -1.1943 H   0  0  0  0  0  0  0  0  0  0  0  0
   -3.4355   -0.0638    0.2828 H   0  0  0  0  0  0  0  0  0  0  0  0
   -2.1349   -1.3251    0.3106 H   0  0  0  0  0  0  0  0  0  0  0  0
   -1.6105    1.6643   -0.1366 H   0  0  0  0  0  0  0  0  0  0  0  0
   -1.2819    0.6952    1.3938 H   0  0  0  0  0  0  0  0  0  0  0  0
   -0.2976    0.2655   -1.4663 H   0  0  0  0  0  0  0  0  0  0  0  0
    1.0640    1.4335    1.0158 H   0  0  0  0  0  0  0  0  0  0  0  0
    0.8922    2.0344   -0.6723 H   0  0  0  0  0  0  0  0  0  0  0  0
    1.3239   -1.3134    1.5517 H   0  0  0  0  0  0  0  0  0  0  0  0
    1.3997   -2.6041    0.3217 H   0  0  0  0  0  0  0  0  0  0  0  0
  1  2  1  0
  2  3  1  0
  3  4  1  0
  4  5  1  0
  5  6  2  0
  5  7  1  0
  7  8  1  0
  8  9  1  0
  9  3  1  0
  1 10  1  0
  1 11  1  0
  1 12  1  0
  2 13  1  0
  2 14  1  0
  3 15  1  0
  4 16  1  0
  4 17  1  0
  8 18  1  0
  8 19  1  0
M  END
