
     RDKit          3D

 23 23  0  0  0  0  0  0  0  0999 V2000
    3.0097    0.4381    0.4152 C   0  0  0  0  0  0  0  0  0  0  0  0
    2.0635   -0.5001   -0.3058 C   0  0  0  0  0  0  0  0  0  0  0  0
    0.7356    0.1999   -0.3915 C   0  0  0  0  0  0  0  0  0  0  0  0
    0.2693    0.4807    0.9911 C   0  0  0  0  0  0  0  0  0  0  0  0
   -0.9509    0.0357    1.1959 C   0  0  0  0  0  0  0  0  0  0  0  0
   -1.4996   -0.6202   -0.0302 C   0  0  0  0  0  0  0  0  0  0  0  0
   -2.6455    0.2256   -0.5186 C   0  0  0  0  0  0  0  0  0  0  0  0
   -3.2395   -0.2887   -1.6626 O   0  0  0  0  0  0  0  0  0  0  0  0
   -0.3431   -0.6583   -0.9788 C   0  0  0  0  0  0  0  0  0  0  0  0
    2.7446    1.4731    0.0520 H   0  0  0  0  0  0  0  0  0  0  0  0
    2.8379    0.4525    1.5094 H   0  0  0  0  0  0  0  0  0  0  0  0
    4.0553    0.1823    0.1533 H   0  0  0  0  0  0  0  0  0  0  0  0
    2.0309   -1.4333    0.2640 H   0  0  0  0  0  0  0  0  0  0  0  0
    2.5028   -0.6453   -1.3308 H   0  0  0  0  0  0  0  0  0  0  0  0
    0.8554    1.1179   -0.9852 H   0  0  0  0  0  0  0  0  0  0  0  0
    0.8865    1.0003    1.7393 H   0  0  0  0  0  0  0  0  0  0  0  0
   -1.4734    0.1427    2.1445 H   0  0  0  0  0  0  0  0  0  0  0  0
   -1.9005   -1.6148    0.2212 H   0  0  0  0  0  0  0  0  0  0  0  0
   -3.4026    0.2590    0.2906 H   0  0  0  0  0  0  0  0  0  0  0  0
   -2.2517    1.2535   -0.6716 H   0  0  0  0  0  0  0  0  0  0  0  0
   -3.6672    0.4881   -2.1251 H   0  0  0  0  0  0  0  0  0  0  0  0
    0.0186   -1.7042   -1.0283 H   0  0  0  0  0  0  0  0  0  0  0  0
   -0.6362   -0.2845   -1.9859 H   0  0  0  0  0  0  0  0  0  0  0  0
  1  2  1  0
  2  3  1  0
  3  4  1  0
  4  5  2  0
  5  6  1  0
  6  7  1  0
  7  8  1  0
  6  9  1  0
  9  3  1  0
  1 10  1  0
  1 11  1  0
  1 12  1  0
  2 13  1  0
  2 14  1  0
  3 15  1  0
  4 16  1  0
  5 17  1  0
  6 18  1  0
  7 19  1  0
  7 20  1  0
  8 21  1  0
  9 22  1  0
  9 23  1  0
M  END
