
     RDKit          3D

 20 20  0  0  0  0  0  0  0  0999 V2000
    2.0562    0.0954    0.2966 C   0  0  0  0  0  0  0  0  0  0  0  0
    1.0176   -0.5617   -0.5532 C   0  0  0  0  0  0  0  0  0  0  0  0
   -0.3771   -0.1226   -0.1937 C   0  0  0  0  0  0  0  0  0  0  0  0
   -0.6009    1.3460   -0.3445 C   0  0  0  0  0  0  0  0  0  0  0  0
    0.2587    2.0745    0.4687 O   0  0  0  0  0  0  0  0  0  0  0  0
   -1.4571   -0.9739   -0.8276 C   0  0  0  0  0  0  0  0  0  0  0  0
   -2.2195   -0.7377    0.3382 O   0  0  0  0  0  0  0  0  0  0  0  0
   -0.9804   -0.7578    1.0200 C   0  0  0  0  0  0  0  0  0  0  0  0
    2.3864    1.0729   -0.1543 H   0  0  0  0  0  0  0  0  0  0  0  0
    2.9608   -0.5665    0.4303 H   0  0  0  0  0  0  0  0  0  0  0  0
    1.5874    0.3255    1.2800 H   0  0  0  0  0  0  0  0  0  0  0  0
    1.1877   -0.2505   -1.6227 H   0  0  0  0  0  0  0  0  0  0  0  0
    1.1455   -1.6510   -0.5371 H   0  0  0  0  0  0  0  0  0  0  0  0
   -1.6509    1.5702   -0.0181 H   0  0  0  0  0  0  0  0  0  0  0  0
   -0.5120    1.6091   -1.4156 H   0  0  0  0  0  0  0  0  0  0  0  0
   -0.1465    2.1461    1.3638 H   0  0  0  0  0  0  0  0  0  0  0  0
   -1.1507   -2.0483   -0.8405 H   0  0  0  0  0  0  0  0  0  0  0  0
   -1.8933   -0.5985   -1.7532 H   0  0  0  0  0  0  0  0  0  0  0  0
   -0.9768   -0.1667    1.9455 H   0  0  0  0  0  0  0  0  0  0  0  0
   -0.6350   -1.8044    1.1173 H   0  0  0  0  0  0  0  0  0  0  0  0
  1  2  1  0
  2  3  1  0
  3  4  1  0
  4  5  1  0
  3  6  1  0
  6  7  1  0
  7  8  1  0
  8  3  1  0
  1  9  1  0
  1 10  1  0
  1 11  1  0
  2 12  1  0
  2 13  1  0
  4 14  1  0
  4 15  1  0
  5 16  1  0
  6 17  1  0
  6 18  1  0
  8 19  1  0
  8 20  1  0
M  END
