
     RDKit          3D

 23 23  0  0  0  0  0  0  0  0999 V2000
   -2.5942    0.3685    0.1588 C   0  0  0  0  0  0  0  0  0  0  0  0
   -2.0383   -0.9265   -0.3274 C   0  0  0  0  0  0  0  0  0  0  0  0
   -0.5411   -0.9461   -0.4269 C   0  0  0  0  0  0  0  0  0  0  0  0
   -0.0058    0.1005   -1.3743 C   0  0  0  0  0  0  0  0  0  0  0  0
    1.3757   -0.0904   -1.4318 O   0  0  0  0  0  0  0  0  0  0  0  0
    1.8851    0.1739   -0.1629 C   0  0  0  0  0  0  0  0  0  0  0  0
    2.8495    1.3345   -0.3133 C   0  0  0  0  0  0  0  0  0  0  0  0
    0.9055    0.4367    0.7759 O   0  0  0  0  0  0  0  0  0  0  0  0
    0.1338   -0.7268    0.9060 C   0  0  0  0  0  0  0  0  0  0  0  0
   -3.6994    0.3595   -0.0523 H   0  0  0  0  0  0  0  0  0  0  0  0
   -2.5089    0.4818    1.2630 H   0  0  0  0  0  0  0  0  0  0  0  0
   -2.1987    1.2620   -0.3544 H   0  0  0  0  0  0  0  0  0  0  0  0
   -2.3230   -1.7134    0.4102 H   0  0  0  0  0  0  0  0  0  0  0  0
   -2.4837   -1.2186   -1.2863 H   0  0  0  0  0  0  0  0  0  0  0  0
   -0.2563   -1.9348   -0.8583 H   0  0  0  0  0  0  0  0  0  0  0  0
   -0.1439    1.1371   -0.9564 H   0  0  0  0  0  0  0  0  0  0  0  0
   -0.4179    0.0109   -2.3883 H   0  0  0  0  0  0  0  0  0  0  0  0
    2.4820   -0.6958    0.2259 H   0  0  0  0  0  0  0  0  0  0  0  0
    3.0839    1.8323    0.6254 H   0  0  0  0  0  0  0  0  0  0  0  0
    2.4416    2.0559   -1.0774 H   0  0  0  0  0  0  0  0  0  0  0  0
    3.7822    0.9281   -0.7561 H   0  0  0  0  0  0  0  0  0  0  0  0
   -0.5718   -0.6648    1.7444 H   0  0  0  0  0  0  0  0  0  0  0  0
    0.8437   -1.5643    1.0973 H   0  0  0  0  0  0  0  0  0  0  0  0
  1  2  1  0
  2  3  1  0
  3  4  1  0
  4  5  1  0
  5  6  1  0
  6  7  1  0
  6  8  1  0
  8  9  1  0
  9  3  1  0
  1 10  1  0
  1 11  1  0
  1 12  1  0
  2 13  1  0
  2 14  1  0
  3 15  1  0
  4 16  1  0
  4 17  1  0
  6 18  1  0
  7 19  1  0
  7 20  1  0
  7 21  1  0
  9 22  1  0
  9 23  1  0
M  END
