
     RDKit          3D

 25 25  0  0  0  0  0  0  0  0999 V2000
    2.3587    0.2314   -0.1678 C   0  0  0  0  0  0  0  0  0  0  0  0
    1.4199   -0.1004    0.9405 C   0  0  0  0  0  0  0  0  0  0  0  0
   -0.0240   -0.1475    0.5624 C   0  0  0  0  0  0  0  0  0  0  0  0
   -0.5301    1.1401    0.0270 C   0  0  0  0  0  0  0  0  0  0  0  0
   -0.2747    2.4707    0.6259 C   0  0  0  0  0  0  0  0  0  0  0  0
   -1.2444    0.9265   -1.0658 C   0  0  0  0  0  0  0  0  0  0  0  0
   -1.2957   -0.5276   -1.3832 C   0  0  0  0  0  0  0  0  0  0  0  0
   -0.3943   -1.2155   -0.4032 C   0  0  0  0  0  0  0  0  0  0  0  0
   -1.1762   -2.3253    0.2666 C   0  0  0  0  0  0  0  0  0  0  0  0
    3.3924    0.0271    0.2022 H   0  0  0  0  0  0  0  0  0  0  0  0
    2.2340   -0.3646   -1.0806 H   0  0  0  0  0  0  0  0  0  0  0  0
    2.3272    1.3005   -0.4174 H   0  0  0  0  0  0  0  0  0  0  0  0
    1.6862   -1.0788    1.3911 H   0  0  0  0  0  0  0  0  0  0  0  0
    1.5362    0.6712    1.7305 H   0  0  0  0  0  0  0  0  0  0  0  0
   -0.5907   -0.3309    1.5053 H   0  0  0  0  0  0  0  0  0  0  0  0
   -0.1480    2.4065    1.7446 H   0  0  0  0  0  0  0  0  0  0  0  0
   -1.1349    3.1718    0.4836 H   0  0  0  0  0  0  0  0  0  0  0  0
    0.5999    2.9729    0.1558 H   0  0  0  0  0  0  0  0  0  0  0  0
   -1.7469    1.6616   -1.6877 H   0  0  0  0  0  0  0  0  0  0  0  0
   -0.9616   -0.6571   -2.4439 H   0  0  0  0  0  0  0  0  0  0  0  0
   -2.3468   -0.9039   -1.3569 H   0  0  0  0  0  0  0  0  0  0  0  0
    0.4382   -1.6634   -0.9560 H   0  0  0  0  0  0  0  0  0  0  0  0
   -0.5373   -2.6896    1.1065 H   0  0  0  0  0  0  0  0  0  0  0  0
   -2.1224   -1.8705    0.6560 H   0  0  0  0  0  0  0  0  0  0  0  0
   -1.4648   -3.1053   -0.4355 H   0  0  0  0  0  0  0  0  0  0  0  0
  1  2  1  0
  2  3  1  0
  3  4  1  0
  4  5  1  0
  4  6  2  0
  6  7  1  0
  7  8  1  0
  8  9  1  0
  8  3  1  0
  1 10  1  0
  1 11  1  0
  1 12  1  0
  2 13  1  0
  2 14  1  0
  3 15  1  0
  5 16  1  0
  5 17  1  0
  5 18  1  0
  6 19  1  0
  7 20  1  0
  7 21  1  0
  8 22  1  0
  9 23  1  0
  9 24  1  0
  9 25  1  0
M  END
