
     RDKit          3D

 23 24  0  0  0  0  0  0  0  0999 V2000
    2.8955   -0.0994    0.6160 C   0  0  0  0  0  0  0  0  0  0  0  0
    1.5282   -0.6851    0.4343 C   0  0  0  0  0  0  0  0  0  0  0  0
    0.8293   -0.1888   -0.7980 C   0  0  0  0  0  0  0  0  0  0  0  0
   -0.5222   -0.6798   -1.1036 C   0  0  0  0  0  0  0  0  0  0  0  0
   -1.4676   -1.1747   -0.0655 C   0  0  0  0  0  0  0  0  0  0  0  0
   -2.2279    0.0850    0.3149 C   0  0  0  0  0  0  0  0  0  0  0  0
   -1.0634    1.0617    0.4885 C   0  0  0  0  0  0  0  0  0  0  0  0
   -1.5458    2.3667    0.5120 O   0  0  0  0  0  0  0  0  0  0  0  0
   -0.2602    0.8002   -0.7376 C   0  0  0  0  0  0  0  0  0  0  0  0
    2.9062    1.0029    0.6114 H   0  0  0  0  0  0  0  0  0  0  0  0
    3.5598   -0.4494   -0.2139 H   0  0  0  0  0  0  0  0  0  0  0  0
    3.3143   -0.5263    1.5555 H   0  0  0  0  0  0  0  0  0  0  0  0
    0.9643   -0.5667    1.3594 H   0  0  0  0  0  0  0  0  0  0  0  0
    1.6738   -1.7955    0.2906 H   0  0  0  0  0  0  0  0  0  0  0  0
    1.5092   -0.0823   -1.6782 H   0  0  0  0  0  0  0  0  0  0  0  0
   -0.8019   -0.9056   -2.1409 H   0  0  0  0  0  0  0  0  0  0  0  0
   -1.0091   -1.5603    0.8449 H   0  0  0  0  0  0  0  0  0  0  0  0
   -2.1851   -1.9350   -0.4360 H   0  0  0  0  0  0  0  0  0  0  0  0
   -2.7797   -0.0309    1.2543 H   0  0  0  0  0  0  0  0  0  0  0  0
   -2.8584    0.3558   -0.5552 H   0  0  0  0  0  0  0  0  0  0  0  0
   -0.5714    0.7748    1.4351 H   0  0  0  0  0  0  0  0  0  0  0  0
   -1.4793    2.7059   -0.4206 H   0  0  0  0  0  0  0  0  0  0  0  0
   -0.4084    1.5269   -1.5676 H   0  0  0  0  0  0  0  0  0  0  0  0
  1  2  1  0
  2  3  1  0
  3  4  1  0
  4  5  1  0
  5  6  1  0
  6  7  1  0
  7  8  1  0
  7  9  1  0
  9  3  1  0
  9  4  1  0
  1 10  1  0
  1 11  1  0
  1 12  1  0
  2 13  1  0
  2 14  1  0
  3 15  1  0
  4 16  1  0
  5 17  1  0
  5 18  1  0
  6 19  1  0
  6 20  1  0
  7 21  1  0
  8 22  1  0
  9 23  1  0
M  END
