
     RDKit          3D

 22 22  0  0  0  0  0  0  0  0999 V2000
    2.3293    0.1405    0.2227 C   0  0  0  0  0  0  0  0  0  0  0  0
    1.1702   -0.4871   -0.4540 C   0  0  0  0  0  0  0  0  0  0  0  0
   -0.1723   -0.0029    0.0330 C   0  0  0  0  0  0  0  0  0  0  0  0
   -0.3725    1.4713   -0.1528 C   0  0  0  0  0  0  0  0  0  0  0  0
   -0.2714    1.7451   -1.5132 O   0  0  0  0  0  0  0  0  0  0  0  0
   -1.2774   -0.7549   -0.7142 C   0  0  0  0  0  0  0  0  0  0  0  0
   -1.9948   -0.9394    0.6054 C   0  0  0  0  0  0  0  0  0  0  0  0
   -0.6817   -0.6051    1.2952 C   0  0  0  0  0  0  0  0  0  0  0  0
    2.0840    0.9866    0.8890 H   0  0  0  0  0  0  0  0  0  0  0  0
    3.0444    0.5173   -0.5642 H   0  0  0  0  0  0  0  0  0  0  0  0
    2.9282   -0.5745    0.8265 H   0  0  0  0  0  0  0  0  0  0  0  0
    1.2058   -0.3451   -1.5536 H   0  0  0  0  0  0  0  0  0  0  0  0
    1.2365   -1.5942   -0.2968 H   0  0  0  0  0  0  0  0  0  0  0  0
    0.3692    2.0866    0.3733 H   0  0  0  0  0  0  0  0  0  0  0  0
   -1.4098    1.7092    0.1722 H   0  0  0  0  0  0  0  0  0  0  0  0
    0.6504    1.9082   -1.8142 H   0  0  0  0  0  0  0  0  0  0  0  0
   -0.9314   -1.6759   -1.1924 H   0  0  0  0  0  0  0  0  0  0  0  0
   -1.8277   -0.1328   -1.4502 H   0  0  0  0  0  0  0  0  0  0  0  0
   -2.3410   -1.9672    0.7050 H   0  0  0  0  0  0  0  0  0  0  0  0
   -2.7840   -0.1887    0.8122 H   0  0  0  0  0  0  0  0  0  0  0  0
   -0.8031    0.1813    2.0850 H   0  0  0  0  0  0  0  0  0  0  0  0
   -0.1508   -1.4785    1.6863 H   0  0  0  0  0  0  0  0  0  0  0  0
  1  2  1  0
  2  3  1  0
  3  4  1  0
  4  5  1  0
  3  6  1  0
  6  7  1  0
  7  8  1  0
  8  3  1  0
  1  9  1  0
  1 10  1  0
  1 11  1  0
  2 12  1  0
  2 13  1  0
  4 14  1  0
  4 15  1  0
  5 16  1  0
  6 17  1  0
  6 18  1  0
  7 19  1  0
  7 20  1  0
  8 21  1  0
  8 22  1  0
M  END
