
     RDKit          3D

 17 17  0  0  0  0  0  0  0  0999 V2000
    2.2914    0.2532    0.3227 C   0  0  0  0  0  0  0  0  0  0  0  0
    1.1098    0.3271   -0.5845 C   0  0  0  0  0  0  0  0  0  0  0  0
   -0.0993   -0.3881   -0.0493 C   0  0  0  0  0  0  0  0  0  0  0  0
   -1.2367   -0.2588   -1.0305 C   0  0  0  0  0  0  0  0  0  0  0  0
   -2.3338   -0.5329   -0.1869 O   0  0  0  0  0  0  0  0  0  0  0  0
   -2.0077   -0.0175    1.0460 C   0  0  0  0  0  0  0  0  0  0  0  0
   -0.6540    0.2633    1.0568 O   0  0  0  0  0  0  0  0  0  0  0  0
    2.8113    1.2487    0.4311 H   0  0  0  0  0  0  0  0  0  0  0  0
    2.0589   -0.1108    1.3448 H   0  0  0  0  0  0  0  0  0  0  0  0
    3.0796   -0.4563   -0.0604 H   0  0  0  0  0  0  0  0  0  0  0  0
    1.3744   -0.1698   -1.5497 H   0  0  0  0  0  0  0  0  0  0  0  0
    0.8492    1.3813   -0.7504 H   0  0  0  0  0  0  0  0  0  0  0  0
    0.0730   -1.4552    0.1423 H   0  0  0  0  0  0  0  0  0  0  0  0
   -1.3309    0.7598   -1.4466 H   0  0  0  0  0  0  0  0  0  0  0  0
   -1.1346   -1.0396   -1.7867 H   0  0  0  0  0  0  0  0  0  0  0  0
   -2.2136   -0.7001    1.8938 H   0  0  0  0  0  0  0  0  0  0  0  0
   -2.6371    0.8956    1.2075 H   0  0  0  0  0  0  0  0  0  0  0  0
  1  2  1  0
  2  3  1  0
  3  4  1  0
  4  5  1  0
  5  6  1  0
  6  7  1  0
  7  3  1  0
  1  8  1  0
  1  9  1  0
  1 10  1  0
  2 11  1  0
  2 12  1  0
  3 13  1  0
  4 14  1  0
  4 15  1  0
  6 16  1  0
  6 17  1  0
M  END
