
     RDKit          3D

 23 23  0  0  0  0  0  0  0  0999 V2000
    2.6504   -0.5402    0.0841 C   0  0  0  0  0  0  0  0  0  0  0  0
    1.6307    0.5738   -0.0159 C   0  0  0  0  0  0  0  0  0  0  0  0
    0.2442    0.0400   -0.0793 C   0  0  0  0  0  0  0  0  0  0  0  0
    0.0284   -1.2553   -0.0463 C   0  0  0  0  0  0  0  0  0  0  0  0
   -1.3567   -1.7941   -0.1094 C   0  0  0  0  0  0  0  0  0  0  0  0
   -2.1900   -0.7220   -0.8255 C   0  0  0  0  0  0  0  0  0  0  0  0
   -2.1157    0.4162   -0.0245 O   0  0  0  0  0  0  0  0  0  0  0  0
   -0.8669    1.0071   -0.1795 C   0  0  0  0  0  0  0  0  0  0  0  0
   -0.6618    2.0379    0.9219 C   0  0  0  0  0  0  0  0  0  0  0  0
    2.4239   -1.0998    1.0081 H   0  0  0  0  0  0  0  0  0  0  0  0
    2.6854   -1.1734   -0.8091 H   0  0  0  0  0  0  0  0  0  0  0  0
    3.6520   -0.0250    0.1532 H   0  0  0  0  0  0  0  0  0  0  0  0
    1.7768    1.2123    0.8958 H   0  0  0  0  0  0  0  0  0  0  0  0
    1.8744    1.2200   -0.8913 H   0  0  0  0  0  0  0  0  0  0  0  0
    0.8470   -1.9435    0.0267 H   0  0  0  0  0  0  0  0  0  0  0  0
   -1.7358   -1.8973    0.9356 H   0  0  0  0  0  0  0  0  0  0  0  0
   -1.4243   -2.7619   -0.6319 H   0  0  0  0  0  0  0  0  0  0  0  0
   -3.2211   -1.0582   -0.9796 H   0  0  0  0  0  0  0  0  0  0  0  0
   -1.6580   -0.5438   -1.8010 H   0  0  0  0  0  0  0  0  0  0  0  0
   -0.8414    1.4640   -1.1816 H   0  0  0  0  0  0  0  0  0  0  0  0
   -0.2584    1.5466    1.8353 H   0  0  0  0  0  0  0  0  0  0  0  0
   -1.5899    2.5447    1.1966 H   0  0  0  0  0  0  0  0  0  0  0  0
    0.1068    2.7520    0.5174 H   0  0  0  0  0  0  0  0  0  0  0  0
  1  2  1  0
  2  3  1  0
  3  4  2  0
  4  5  1  0
  5  6  1  0
  6  7  1  0
  7  8  1  0
  8  9  1  0
  8  3  1  0
  1 10  1  0
  1 11  1  0
  1 12  1  0
  2 13  1  0
  2 14  1  0
  4 15  1  0
  5 16  1  0
  5 17  1  0
  6 18  1  0
  6 19  1  0
  8 20  1  0
  9 21  1  0
  9 22  1  0
  9 23  1  0
M  END
