
     RDKit          3D

 25 25  0  0  0  0  0  0  0  0999 V2000
    2.6461   -1.0516   -0.3510 C   0  0  0  0  0  0  0  0  0  0  0  0
    1.7876   -0.4167    0.6947 C   0  0  0  0  0  0  0  0  0  0  0  0
    0.3895   -0.2085    0.2641 C   0  0  0  0  0  0  0  0  0  0  0  0
   -0.1727    0.9780    0.2124 C   0  0  0  0  0  0  0  0  0  0  0  0
    0.6864    2.1441    0.6197 C   0  0  0  0  0  0  0  0  0  0  0  0
   -1.5547    1.2650   -0.2044 C   0  0  0  0  0  0  0  0  0  0  0  0
   -2.4210    0.0703   -0.3674 C   0  0  0  0  0  0  0  0  0  0  0  0
   -1.8730   -1.1958    0.2029 C   0  0  0  0  0  0  0  0  0  0  0  0
   -0.4102   -1.4004   -0.1266 C   0  0  0  0  0  0  0  0  0  0  0  0
    3.4092   -1.6947    0.1652 H   0  0  0  0  0  0  0  0  0  0  0  0
    3.2189   -0.2647   -0.8710 H   0  0  0  0  0  0  0  0  0  0  0  0
    2.0999   -1.7253   -1.0357 H   0  0  0  0  0  0  0  0  0  0  0  0
    1.7567   -1.1043    1.5807 H   0  0  0  0  0  0  0  0  0  0  0  0
    2.2807    0.5067    1.0386 H   0  0  0  0  0  0  0  0  0  0  0  0
    1.5318    2.1787   -0.0818 H   0  0  0  0  0  0  0  0  0  0  0  0
    0.1429    3.1012    0.5588 H   0  0  0  0  0  0  0  0  0  0  0  0
    0.9863    2.0020    1.6734 H   0  0  0  0  0  0  0  0  0  0  0  0
   -1.4875    1.8692   -1.1506 H   0  0  0  0  0  0  0  0  0  0  0  0
   -2.0605    1.9642    0.5243 H   0  0  0  0  0  0  0  0  0  0  0  0
   -3.4337    0.2255    0.1069 H   0  0  0  0  0  0  0  0  0  0  0  0
   -2.6508   -0.0353   -1.4685 H   0  0  0  0  0  0  0  0  0  0  0  0
   -2.4201   -2.0524   -0.2457 H   0  0  0  0  0  0  0  0  0  0  0  0
   -2.0428   -1.2390    1.2888 H   0  0  0  0  0  0  0  0  0  0  0  0
   -0.0853   -2.3095    0.4047 H   0  0  0  0  0  0  0  0  0  0  0  0
   -0.3235   -1.6067   -1.2174 H   0  0  0  0  0  0  0  0  0  0  0  0
  1  2  1  0
  2  3  1  0
  3  4  2  0
  4  5  1  0
  4  6  1  0
  6  7  1  0
  7  8  1  0
  8  9  1  0
  9  3  1  0
  1 10  1  0
  1 11  1  0
  1 12  1  0
  2 13  1  0
  2 14  1  0
  5 15  1  0
  5 16  1  0
  5 17  1  0
  6 18  1  0
  6 19  1  0
  7 20  1  0
  7 21  1  0
  8 22  1  0
  8 23  1  0
  9 24  1  0
  9 25  1  0
M  END
