
     RDKit          3D

 23 24  0  0  0  0  0  0  0  0999 V2000
    2.7263   -0.5313   -0.0999 C   0  0  0  0  0  0  0  0  0  0  0  0
    1.6727    0.5226   -0.2196 C   0  0  0  0  0  0  0  0  0  0  0  0
    0.4159    0.2155    0.5419 C   0  0  0  0  0  0  0  0  0  0  0  0
   -0.5566    1.3320    0.3482 C   0  0  0  0  0  0  0  0  0  0  0  0
   -1.9877    0.9040    0.3200 C   0  0  0  0  0  0  0  0  0  0  0  0
   -2.0852   -0.5902    0.1450 C   0  0  0  0  0  0  0  0  0  0  0  0
   -1.1758   -0.9633   -1.0036 C   0  0  0  0  0  0  0  0  0  0  0  0
   -0.2163   -1.0818    0.1542 C   0  0  0  0  0  0  0  0  0  0  0  0
   -1.2938   -1.2929    1.0455 O   0  0  0  0  0  0  0  0  0  0  0  0
    2.5968   -1.2256   -0.9714 H   0  0  0  0  0  0  0  0  0  0  0  0
    3.7172   -0.0326   -0.2000 H   0  0  0  0  0  0  0  0  0  0  0  0
    2.6959   -1.0912    0.8494 H   0  0  0  0  0  0  0  0  0  0  0  0
    1.4050    0.7065   -1.2719 H   0  0  0  0  0  0  0  0  0  0  0  0
    2.0914    1.4678    0.2350 H   0  0  0  0  0  0  0  0  0  0  0  0
    0.6617    0.1384    1.6421 H   0  0  0  0  0  0  0  0  0  0  0  0
   -0.4399    2.0548    1.1955 H   0  0  0  0  0  0  0  0  0  0  0  0
   -0.2693    1.9270   -0.5644 H   0  0  0  0  0  0  0  0  0  0  0  0
   -2.4526    1.3604   -0.5975 H   0  0  0  0  0  0  0  0  0  0  0  0
   -2.5440    1.2114    1.2207 H   0  0  0  0  0  0  0  0  0  0  0  0
   -3.0994   -0.9990    0.1171 H   0  0  0  0  0  0  0  0  0  0  0  0
   -1.3979   -1.9234   -1.4694 H   0  0  0  0  0  0  0  0  0  0  0  0
   -0.8709   -0.1339   -1.6611 H   0  0  0  0  0  0  0  0  0  0  0  0
    0.4063   -1.9753    0.1437 H   0  0  0  0  0  0  0  0  0  0  0  0
  1  2  1  0
  2  3  1  0
  3  4  1  0
  4  5  1  0
  5  6  1  0
  6  7  1  0
  7  8  1  0
  8  9  1  0
  8  3  1  0
  9  6  1  0
  1 10  1  0
  1 11  1  0
  1 12  1  0
  2 13  1  0
  2 14  1  0
  3 15  1  0
  4 16  1  0
  4 17  1  0
  5 18  1  0
  5 19  1  0
  6 20  1  0
  7 21  1  0
  7 22  1  0
  8 23  1  0
M  END
