
     RDKit          3D

 23 24  0  0  0  0  0  0  0  0999 V2000
    2.6752    1.2591    0.0260 C   0  0  0  0  0  0  0  0  0  0  0  0
    2.0520   -0.0325    0.5192 C   0  0  0  0  0  0  0  0  0  0  0  0
    0.7729   -0.3656   -0.1787 C   0  0  0  0  0  0  0  0  0  0  0  0
   -0.3210    0.6670   -0.0327 C   0  0  0  0  0  0  0  0  0  0  0  0
   -1.5290   -0.2357    0.2530 C   0  0  0  0  0  0  0  0  0  0  0  0
   -2.7439    0.5331   -0.1511 C   0  0  0  0  0  0  0  0  0  0  0  0
   -1.2949   -1.4768   -0.5719 C   0  0  0  0  0  0  0  0  0  0  0  0
    0.2257   -1.6135   -0.4605 C   0  0  0  0  0  0  0  0  0  0  0  0
    0.9265   -0.8352   -1.4818 O   0  0  0  0  0  0  0  0  0  0  0  0
    2.4928    2.1073    0.7176 H   0  0  0  0  0  0  0  0  0  0  0  0
    3.7922    1.1394   -0.0519 H   0  0  0  0  0  0  0  0  0  0  0  0
    2.3092    1.5610   -0.9671 H   0  0  0  0  0  0  0  0  0  0  0  0
    2.7848   -0.8528    0.3247 H   0  0  0  0  0  0  0  0  0  0  0  0
    1.9016    0.1011    1.6177 H   0  0  0  0  0  0  0  0  0  0  0  0
   -0.4877    1.1795   -0.9813 H   0  0  0  0  0  0  0  0  0  0  0  0
   -0.1473    1.3682    0.7888 H   0  0  0  0  0  0  0  0  0  0  0  0
   -1.5575   -0.5134    1.3149 H   0  0  0  0  0  0  0  0  0  0  0  0
   -3.6185   -0.1084   -0.3694 H   0  0  0  0  0  0  0  0  0  0  0  0
   -2.5423    1.2800   -0.9560 H   0  0  0  0  0  0  0  0  0  0  0  0
   -3.0537    1.1499    0.7431 H   0  0  0  0  0  0  0  0  0  0  0  0
   -1.5423   -1.3437   -1.6328 H   0  0  0  0  0  0  0  0  0  0  0  0
   -1.7608   -2.3746   -0.1327 H   0  0  0  0  0  0  0  0  0  0  0  0
    0.6657   -2.5934   -0.2794 H   0  0  0  0  0  0  0  0  0  0  0  0
  1  2  1  0
  2  3  1  0
  3  4  1  0
  4  5  1  0
  5  6  1  0
  5  7  1  0
  7  8  1  0
  8  9  1  0
  8  3  1  0
  9  3  1  0
  1 10  1  0
  1 11  1  0
  1 12  1  0
  2 13  1  0
  2 14  1  0
  4 15  1  0
  4 16  1  0
  5 17  1  0
  6 18  1  0
  6 19  1  0
  6 20  1  0
  7 21  1  0
  7 22  1  0
  8 23  1  0
M  END
