
     RDKit          3D

 23 23  0  0  0  0  0  0  0  0999 V2000
   -2.4593    1.0056   -0.6625 C   0  0  0  0  0  0  0  0  0  0  0  0
   -1.8597   -0.3858   -0.6724 C   0  0  0  0  0  0  0  0  0  0  0  0
   -0.5995   -0.3340    0.1494 C   0  0  0  0  0  0  0  0  0  0  0  0
   -0.8155    0.0440    1.4500 O   0  0  0  0  0  0  0  0  0  0  0  0
    0.1595   -1.6678    0.0660 C   0  0  0  0  0  0  0  0  0  0  0  0
    1.4962   -1.2302    0.5396 C   0  0  0  0  0  0  0  0  0  0  0  0
    1.6809    0.0500    0.2528 C   0  0  0  0  0  0  0  0  0  0  0  0
    2.8633    0.9156    0.5337 C   0  0  0  0  0  0  0  0  0  0  0  0
    0.4508    0.5746   -0.4523 C   0  0  0  0  0  0  0  0  0  0  0  0
   -1.6576    1.7563   -0.8031 H   0  0  0  0  0  0  0  0  0  0  0  0
   -2.9202    1.1903    0.3432 H   0  0  0  0  0  0  0  0  0  0  0  0
   -3.2367    1.1210   -1.4539 H   0  0  0  0  0  0  0  0  0  0  0  0
   -1.6604   -0.6723   -1.7016 H   0  0  0  0  0  0  0  0  0  0  0  0
   -2.5700   -1.0427   -0.1449 H   0  0  0  0  0  0  0  0  0  0  0  0
   -1.4637   -0.5072    1.9358 H   0  0  0  0  0  0  0  0  0  0  0  0
    0.2471   -1.9197   -1.0071 H   0  0  0  0  0  0  0  0  0  0  0  0
   -0.3026   -2.4429    0.6706 H   0  0  0  0  0  0  0  0  0  0  0  0
    2.2017   -1.8656    1.0399 H   0  0  0  0  0  0  0  0  0  0  0  0
    3.1224    1.4055   -0.4438 H   0  0  0  0  0  0  0  0  0  0  0  0
    3.7498    0.3266    0.8138 H   0  0  0  0  0  0  0  0  0  0  0  0
    2.6650    1.6741    1.3048 H   0  0  0  0  0  0  0  0  0  0  0  0
    0.6136    0.3686   -1.5353 H   0  0  0  0  0  0  0  0  0  0  0  0
    0.2948    1.6358   -0.2228 H   0  0  0  0  0  0  0  0  0  0  0  0
  1  2  1  0
  2  3  1  0
  3  4  1  0
  3  5  1  0
  5  6  1  0
  6  7  2  0
  7  8  1  0
  7  9  1  0
  9  3  1  0
  1 10  1  0
  1 11  1  0
  1 12  1  0
  2 13  1  0
  2 14  1  0
  4 15  1  0
  5 16  1  0
  5 17  1  0
  6 18  1  0
  8 19  1  0
  8 20  1  0
  8 21  1  0
  9 22  1  0
  9 23  1  0
M  END
