
     RDKit          3D

 23 23  0  0  0  0  0  0  0  0999 V2000
   -2.8895   -0.2410   -0.1324 C   0  0  0  0  0  0  0  0  0  0  0  0
   -1.8101    0.2637    0.7863 C   0  0  0  0  0  0  0  0  0  0  0  0
   -0.5136    0.2651    0.0319 C   0  0  0  0  0  0  0  0  0  0  0  0
    0.6481    0.7595    0.8708 C   0  0  0  0  0  0  0  0  0  0  0  0
    1.7929    0.2554    0.0214 C   0  0  0  0  0  0  0  0  0  0  0  0
    3.1275    0.8996   -0.0930 C   0  0  0  0  0  0  0  0  0  0  0  0
    1.3935   -0.8508   -0.5940 C   0  0  0  0  0  0  0  0  0  0  0  0
   -0.0111   -1.1656   -0.2154 C   0  0  0  0  0  0  0  0  0  0  0  0
   -0.7178   -1.7772   -1.2356 O   0  0  0  0  0  0  0  0  0  0  0  0
   -2.9490   -1.3391   -0.1695 H   0  0  0  0  0  0  0  0  0  0  0  0
   -3.8835    0.1132    0.2596 H   0  0  0  0  0  0  0  0  0  0  0  0
   -2.7462    0.1536   -1.1527 H   0  0  0  0  0  0  0  0  0  0  0  0
   -2.0445    1.3043    1.0532 H   0  0  0  0  0  0  0  0  0  0  0  0
   -1.7024   -0.3384    1.6968 H   0  0  0  0  0  0  0  0  0  0  0  0
   -0.5555    0.8164   -0.9111 H   0  0  0  0  0  0  0  0  0  0  0  0
    0.6791    0.1937    1.8082 H   0  0  0  0  0  0  0  0  0  0  0  0
    0.6719    1.8454    0.9785 H   0  0  0  0  0  0  0  0  0  0  0  0
    3.4270    0.9018   -1.1805 H   0  0  0  0  0  0  0  0  0  0  0  0
    3.1111    1.9495    0.2305 H   0  0  0  0  0  0  0  0  0  0  0  0
    3.9205    0.3331    0.4562 H   0  0  0  0  0  0  0  0  0  0  0  0
    1.9770   -1.4520   -1.2716 H   0  0  0  0  0  0  0  0  0  0  0  0
   -0.0245   -1.7266    0.7247 H   0  0  0  0  0  0  0  0  0  0  0  0
   -0.9010   -1.1634   -1.9625 H   0  0  0  0  0  0  0  0  0  0  0  0
  1  2  1  0
  2  3  1  0
  3  4  1  0
  4  5  1  0
  5  6  1  0
  5  7  2  0
  7  8  1  0
  8  9  1  0
  8  3  1  0
  1 10  1  0
  1 11  1  0
  1 12  1  0
  2 13  1  0
  2 14  1  0
  3 15  1  0
  4 16  1  0
  4 17  1  0
  6 18  1  0
  6 19  1  0
  6 20  1  0
  7 21  1  0
  8 22  1  0
  9 23  1  0
M  END
