
     RDKit          3D

 23 23  0  0  0  0  0  0  0  0999 V2000
    2.1271   -0.7601    0.7321 C   0  0  0  0  0  0  0  0  0  0  0  0
    1.4424    0.4630    0.2329 C   0  0  0  0  0  0  0  0  0  0  0  0
   -0.0270    0.2540    0.0554 C   0  0  0  0  0  0  0  0  0  0  0  0
   -0.7019    1.5105   -0.4527 C   0  0  0  0  0  0  0  0  0  0  0  0
   -0.2175    1.9361   -1.6681 O   0  0  0  0  0  0  0  0  0  0  0  0
   -0.3659   -0.8589   -0.8993 C   0  0  0  0  0  0  0  0  0  0  0  0
   -1.7168   -1.2945   -0.3793 C   0  0  0  0  0  0  0  0  0  0  0  0
   -1.9863   -0.5742    0.7545 O   0  0  0  0  0  0  0  0  0  0  0  0
   -0.7401   -0.1796    1.2954 C   0  0  0  0  0  0  0  0  0  0  0  0
    2.8918   -1.1485    0.0060 H   0  0  0  0  0  0  0  0  0  0  0  0
    2.6723   -0.5369    1.6958 H   0  0  0  0  0  0  0  0  0  0  0  0
    1.4462   -1.5862    0.9336 H   0  0  0  0  0  0  0  0  0  0  0  0
    1.5892    1.3409    0.8802 H   0  0  0  0  0  0  0  0  0  0  0  0
    1.8677    0.7234   -0.7571 H   0  0  0  0  0  0  0  0  0  0  0  0
   -0.5160    2.3488    0.2815 H   0  0  0  0  0  0  0  0  0  0  0  0
   -1.7926    1.3945   -0.5007 H   0  0  0  0  0  0  0  0  0  0  0  0
   -0.4864    2.8982   -1.7694 H   0  0  0  0  0  0  0  0  0  0  0  0
    0.3510   -1.7023   -0.8624 H   0  0  0  0  0  0  0  0  0  0  0  0
   -0.4102   -0.4427   -1.9154 H   0  0  0  0  0  0  0  0  0  0  0  0
   -2.4561   -1.0447   -1.1792 H   0  0  0  0  0  0  0  0  0  0  0  0
   -1.7630   -2.3837   -0.2421 H   0  0  0  0  0  0  0  0  0  0  0  0
   -0.3165   -1.0412    1.8038 H   0  0  0  0  0  0  0  0  0  0  0  0
   -0.8915    0.6842    1.9546 H   0  0  0  0  0  0  0  0  0  0  0  0
  1  2  1  0
  2  3  1  0
  3  4  1  0
  4  5  1  0
  3  6  1  0
  6  7  1  0
  7  8  1  0
  8  9  1  0
  9  3  1  0
  1 10  1  0
  1 11  1  0
  1 12  1  0
  2 13  1  0
  2 14  1  0
  4 15  1  0
  4 16  1  0
  5 17  1  0
  6 18  1  0
  6 19  1  0
  7 20  1  0
  7 21  1  0
  9 22  1  0
  9 23  1  0
M  END
