
     RDKit          3D

 23 23  0  0  0  0  0  0  0  0999 V2000
   -1.9290   -1.3942    0.0049 C   0  0  0  0  0  0  0  0  0  0  0  0
   -1.3299   -0.1440   -0.5223 C   0  0  0  0  0  0  0  0  0  0  0  0
   -0.0978    0.3186    0.1601 C   0  0  0  0  0  0  0  0  0  0  0  0
    0.4853    1.5812   -0.3918 C   0  0  0  0  0  0  0  0  0  0  0  0
   -0.4788    2.5888   -0.2632 O   0  0  0  0  0  0  0  0  0  0  0  0
   -0.0507    0.2888    1.6462 C   0  0  0  0  0  0  0  0  0  0  0  0
    1.3421    0.0501    1.5208 O   0  0  0  0  0  0  0  0  0  0  0  0
    0.9848   -0.7154    0.3854 C   0  0  0  0  0  0  0  0  0  0  0  0
    2.0507   -0.7759   -0.6703 C   0  0  0  0  0  0  0  0  0  0  0  0
   -1.4636   -1.8270    0.8876 H   0  0  0  0  0  0  0  0  0  0  0  0
   -3.0418   -1.2910    0.1621 H   0  0  0  0  0  0  0  0  0  0  0  0
   -1.8545   -2.1756   -0.8097 H   0  0  0  0  0  0  0  0  0  0  0  0
   -2.0952    0.6704   -0.4194 H   0  0  0  0  0  0  0  0  0  0  0  0
   -1.1237   -0.2020   -1.6164 H   0  0  0  0  0  0  0  0  0  0  0  0
    0.6658    1.4348   -1.4705 H   0  0  0  0  0  0  0  0  0  0  0  0
    1.4154    1.8823    0.1165 H   0  0  0  0  0  0  0  0  0  0  0  0
   -0.4222    3.1870   -1.0580 H   0  0  0  0  0  0  0  0  0  0  0  0
   -0.1692    1.2575    2.1696 H   0  0  0  0  0  0  0  0  0  0  0  0
   -0.4861   -0.5764    2.1645 H   0  0  0  0  0  0  0  0  0  0  0  0
    0.5622   -1.6799    0.7162 H   0  0  0  0  0  0  0  0  0  0  0  0
    1.6637   -0.7135   -1.6950 H   0  0  0  0  0  0  0  0  0  0  0  0
    2.5626   -1.7615   -0.5635 H   0  0  0  0  0  0  0  0  0  0  0  0
    2.8099   -0.0031   -0.4535 H   0  0  0  0  0  0  0  0  0  0  0  0
  1  2  1  0
  2  3  1  0
  3  4  1  0
  4  5  1  0
  3  6  1  0
  6  7  1  0
  7  8  1  0
  8  9  1  0
  8  3  1  0
  1 10  1  0
  1 11  1  0
  1 12  1  0
  2 13  1  0
  2 14  1  0
  4 15  1  0
  4 16  1  0
  5 17  1  0
  6 18  1  0
  6 19  1  0
  8 20  1  0
  9 21  1  0
  9 22  1  0
  9 23  1  0
M  END
