
     RDKit          3D

 23 24  0  0  0  0  0  0  0  0999 V2000
   -2.0634    1.2287    0.6831 C   0  0  0  0  0  0  0  0  0  0  0  0
   -1.6934   -0.1331    0.1894 C   0  0  0  0  0  0  0  0  0  0  0  0
   -0.5723   -0.1248   -0.8178 C   0  0  0  0  0  0  0  0  0  0  0  0
   -0.2893   -1.5733   -1.2438 C   0  0  0  0  0  0  0  0  0  0  0  0
    0.7992   -1.5834   -0.1777 C   0  0  0  0  0  0  0  0  0  0  0  0
    0.8018   -0.0944   -0.2716 C   0  0  0  0  0  0  0  0  0  0  0  0
    1.1249    0.7124    0.8947 C   0  0  0  0  0  0  0  0  0  0  0  0
    2.3780    0.9677    0.0664 C   0  0  0  0  0  0  0  0  0  0  0  0
    1.7939    0.4276   -1.0683 O   0  0  0  0  0  0  0  0  0  0  0  0
   -3.1828    1.3327    0.7658 H   0  0  0  0  0  0  0  0  0  0  0  0
   -1.6324    2.0541    0.0786 H   0  0  0  0  0  0  0  0  0  0  0  0
   -1.6893    1.3280    1.7376 H   0  0  0  0  0  0  0  0  0  0  0  0
   -2.6145   -0.5829   -0.2778 H   0  0  0  0  0  0  0  0  0  0  0  0
   -1.4077   -0.8071    1.0191 H   0  0  0  0  0  0  0  0  0  0  0  0
   -0.7099    0.5721   -1.6673 H   0  0  0  0  0  0  0  0  0  0  0  0
    0.1161   -1.6240   -2.2694 H   0  0  0  0  0  0  0  0  0  0  0  0
   -1.1029   -2.2740   -1.0590 H   0  0  0  0  0  0  0  0  0  0  0  0
    0.4859   -2.0123    0.7956 H   0  0  0  0  0  0  0  0  0  0  0  0
    1.6973   -2.1005   -0.5577 H   0  0  0  0  0  0  0  0  0  0  0  0
    0.5602    1.6622    0.9717 H   0  0  0  0  0  0  0  0  0  0  0  0
    1.3437    0.2169    1.8622 H   0  0  0  0  0  0  0  0  0  0  0  0
    3.2378    0.3822    0.4395 H   0  0  0  0  0  0  0  0  0  0  0  0
    2.6190    2.0252   -0.0932 H   0  0  0  0  0  0  0  0  0  0  0  0
  1  2  1  0
  2  3  1  0
  3  4  1  0
  4  5  1  0
  5  6  1  0
  6  7  1  0
  7  8  1  0
  8  9  1  0
  6  3  1  0
  9  6  1  0
  1 10  1  0
  1 11  1  0
  1 12  1  0
  2 13  1  0
  2 14  1  0
  3 15  1  0
  4 16  1  0
  4 17  1  0
  5 18  1  0
  5 19  1  0
  7 20  1  0
  7 21  1  0
  8 22  1  0
  8 23  1  0
M  END
