
     RDKit          3D

 25 26  0  0  0  0  0  0  0  0999 V2000
    2.6652   -0.6299    0.4649 C   0  0  0  0  0  0  0  0  0  0  0  0
    1.2157   -1.0828    0.2266 C   0  0  0  0  0  0  0  0  0  0  0  0
    0.3729   -0.0189    0.0411 C   0  0  0  0  0  0  0  0  0  0  0  0
    0.1151    1.0928    1.0355 C   0  0  0  0  0  0  0  0  0  0  0  0
   -0.6956    1.4753   -0.1854 C   0  0  0  0  0  0  0  0  0  0  0  0
    0.5430    1.1051   -0.9408 C   0  0  0  0  0  0  0  0  0  0  0  0
   -1.0721    0.0247   -0.2536 C   0  0  0  0  0  0  0  0  0  0  0  0
   -1.5740   -0.4932   -1.5395 C   0  0  0  0  0  0  0  0  0  0  0  0
   -1.9704   -0.4217    0.8943 C   0  0  0  0  0  0  0  0  0  0  0  0
    2.7680    0.4121    0.1101 H   0  0  0  0  0  0  0  0  0  0  0  0
    2.8945   -0.6125    1.5595 H   0  0  0  0  0  0  0  0  0  0  0  0
    3.3862   -1.3143   -0.0080 H   0  0  0  0  0  0  0  0  0  0  0  0
    1.2681   -1.7687   -0.6327 H   0  0  0  0  0  0  0  0  0  0  0  0
    0.9687   -1.6976    1.1146 H   0  0  0  0  0  0  0  0  0  0  0  0
    0.9485    1.8127    1.1633 H   0  0  0  0  0  0  0  0  0  0  0  0
   -0.4361    0.8378    1.9291 H   0  0  0  0  0  0  0  0  0  0  0  0
   -1.2786    2.2781   -0.2894 H   0  0  0  0  0  0  0  0  0  0  0  0
    0.4501    0.8775   -1.9944 H   0  0  0  0  0  0  0  0  0  0  0  0
    1.4139    1.7296   -0.6521 H   0  0  0  0  0  0  0  0  0  0  0  0
   -2.4231    0.1615   -1.8964 H   0  0  0  0  0  0  0  0  0  0  0  0
   -0.8470   -0.6653   -2.3251 H   0  0  0  0  0  0  0  0  0  0  0  0
   -2.0742   -1.4858   -1.3434 H   0  0  0  0  0  0  0  0  0  0  0  0
   -1.3829   -1.0374    1.5997 H   0  0  0  0  0  0  0  0  0  0  0  0
   -2.8151   -1.0444    0.5329 H   0  0  0  0  0  0  0  0  0  0  0  0
   -2.4411    0.4653    1.3892 H   0  0  0  0  0  0  0  0  0  0  0  0
  1  2  1  0
  2  3  1  0
  3  4  1  0
  4  5  1  0
  5  6  1  0
  5  7  1  0
  7  8  1  0
  7  9  1  0
  6  3  1  0
  7  3  1  0
  1 10  1  0
  1 11  1  0
  1 12  1  0
  2 13  1  0
  2 14  1  0
  4 15  1  0
  4 16  1  0
  5 17  1  0
  6 18  1  0
  6 19  1  0
  8 20  1  0
  8 21  1  0
  8 22  1  0
  9 23  1  0
  9 24  1  0
  9 25  1  0
M  END
