
     RDKit          3D

 23 23  0  0  0  0  0  0  0  0999 V2000
    2.7671    0.2952    0.5230 C   0  0  0  0  0  0  0  0  0  0  0  0
    1.9422    0.2688   -0.7168 C   0  0  0  0  0  0  0  0  0  0  0  0
    0.5055   -0.0651   -0.5077 C   0  0  0  0  0  0  0  0  0  0  0  0
    0.2310   -1.3576    0.0886 C   0  0  0  0  0  0  0  0  0  0  0  0
   -0.9099   -1.2842    0.7546 C   0  0  0  0  0  0  0  0  0  0  0  0
   -1.5009    0.0844    0.6584 C   0  0  0  0  0  0  0  0  0  0  0  0
   -2.5457    0.1829   -0.4194 C   0  0  0  0  0  0  0  0  0  0  0  0
   -1.9804    0.4198    1.9171 O   0  0  0  0  0  0  0  0  0  0  0  0
   -0.2545    0.9204    0.3025 C   0  0  0  0  0  0  0  0  0  0  0  0
    2.9451   -0.7356    0.9185 H   0  0  0  0  0  0  0  0  0  0  0  0
    2.3656    0.9651    1.3109 H   0  0  0  0  0  0  0  0  0  0  0  0
    3.7685    0.7043    0.2595 H   0  0  0  0  0  0  0  0  0  0  0  0
    2.3797   -0.4729   -1.4083 H   0  0  0  0  0  0  0  0  0  0  0  0
    1.9897    1.2691   -1.1956 H   0  0  0  0  0  0  0  0  0  0  0  0
    0.0345   -0.0615   -1.5369 H   0  0  0  0  0  0  0  0  0  0  0  0
    0.8275   -2.2979    0.0407 H   0  0  0  0  0  0  0  0  0  0  0  0
   -1.4069   -2.0879    1.3219 H   0  0  0  0  0  0  0  0  0  0  0  0
   -3.4343    0.6756    0.0371 H   0  0  0  0  0  0  0  0  0  0  0  0
   -2.8326   -0.8148   -0.8231 H   0  0  0  0  0  0  0  0  0  0  0  0
   -2.1339    0.7774   -1.2486 H   0  0  0  0  0  0  0  0  0  0  0  0
   -2.3554   -0.4090    2.3252 H   0  0  0  0  0  0  0  0  0  0  0  0
    0.2408    1.2663    1.2139 H   0  0  0  0  0  0  0  0  0  0  0  0
   -0.6424    1.7570   -0.3320 H   0  0  0  0  0  0  0  0  0  0  0  0
  1  2  1  0
  2  3  1  0
  3  4  1  0
  4  5  2  0
  5  6  1  0
  6  7  1  0
  6  8  1  0
  6  9  1  0
  9  3  1  0
  1 10  1  0
  1 11  1  0
  1 12  1  0
  2 13  1  0
  2 14  1  0
  3 15  1  0
  4 16  1  0
  5 17  1  0
  7 18  1  0
  7 19  1  0
  7 20  1  0
  8 21  1  0
  9 22  1  0
  9 23  1  0
M  END
