
     RDKit          3D

 23 25  0  0  0  0  0  0  0  0999 V2000
   -2.7391   -0.6789    0.0967 C   0  0  0  0  0  0  0  0  0  0  0  0
   -1.2617   -0.8856    0.3738 C   0  0  0  0  0  0  0  0  0  0  0  0
   -0.5035    0.3341   -0.1053 C   0  0  0  0  0  0  0  0  0  0  0  0
   -0.8761    1.6189    0.5269 C   0  0  0  0  0  0  0  0  0  0  0  0
    0.4444    1.0430    0.7703 C   0  0  0  0  0  0  0  0  0  0  0  0
    1.4369    1.1679   -0.3677 C   0  0  0  0  0  0  0  0  0  0  0  0
    1.9319   -0.1251   -0.9159 C   0  0  0  0  0  0  0  0  0  0  0  0
    2.3618   -1.1287    0.1215 C   0  0  0  0  0  0  0  0  0  0  0  0
    0.5253    0.2112   -1.1567 C   0  0  0  0  0  0  0  0  0  0  0  0
   -3.2285   -0.3410    1.0435 H   0  0  0  0  0  0  0  0  0  0  0  0
   -3.2518   -1.6141   -0.1980 H   0  0  0  0  0  0  0  0  0  0  0  0
   -2.9093    0.0388   -0.7398 H   0  0  0  0  0  0  0  0  0  0  0  0
   -0.9623   -1.7858   -0.2184 H   0  0  0  0  0  0  0  0  0  0  0  0
   -1.1319   -1.0714    1.4426 H   0  0  0  0  0  0  0  0  0  0  0  0
   -1.6019    1.6023    1.3338 H   0  0  0  0  0  0  0  0  0  0  0  0
   -0.9076    2.4908   -0.1752 H   0  0  0  0  0  0  0  0  0  0  0  0
    0.7313    0.5130    1.6936 H   0  0  0  0  0  0  0  0  0  0  0  0
    1.6083    2.1232   -0.8564 H   0  0  0  0  0  0  0  0  0  0  0  0
    2.6180   -0.0371   -1.7715 H   0  0  0  0  0  0  0  0  0  0  0  0
    3.0658   -0.5779    0.8115 H   0  0  0  0  0  0  0  0  0  0  0  0
    1.5114   -1.4274    0.7625 H   0  0  0  0  0  0  0  0  0  0  0  0
    2.9145   -1.9774   -0.3023 H   0  0  0  0  0  0  0  0  0  0  0  0
    0.2241    0.5072   -2.1696 H   0  0  0  0  0  0  0  0  0  0  0  0
  1  2  1  0
  2  3  1  0
  3  4  1  0
  4  5  1  0
  5  6  1  0
  6  7  1  0
  7  8  1  0
  7  9  1  0
  5  3  1  0
  9  6  1  0
  9  3  1  0
  1 10  1  0
  1 11  1  0
  1 12  1  0
  2 13  1  0
  2 14  1  0
  4 15  1  0
  4 16  1  0
  5 17  1  0
  6 18  1  0
  7 19  1  0
  8 20  1  0
  8 21  1  0
  8 22  1  0
  9 23  1  0
M  END
