
     RDKit          3D

 21 21  0  0  0  0  0  0  0  0999 V2000
    2.7701    0.4661   -0.1296 C   0  0  0  0  0  0  0  0  0  0  0  0
    1.6677    0.3940    0.8923 C   0  0  0  0  0  0  0  0  0  0  0  0
    0.6025   -0.5361    0.3305 C   0  0  0  0  0  0  0  0  0  0  0  0
    0.1295    0.0786   -0.9717 C   0  0  0  0  0  0  0  0  0  0  0  0
   -1.3229   -0.2291   -0.9368 C   0  0  0  0  0  0  0  0  0  0  0  0
   -2.0599   -0.0639   -1.8854 O   0  0  0  0  0  0  0  0  0  0  0  0
   -1.6240   -0.7430    0.4251 C   0  0  0  0  0  0  0  0  0  0  0  0
   -2.8113    0.0426    0.9436 C   0  0  0  0  0  0  0  0  0  0  0  0
   -0.4756   -0.4907    1.1869 O   0  0  0  0  0  0  0  0  0  0  0  0
    3.7625    0.4352    0.3788 H   0  0  0  0  0  0  0  0  0  0  0  0
    2.7188   -0.3534   -0.8477 H   0  0  0  0  0  0  0  0  0  0  0  0
    2.6536    1.4195   -0.6816 H   0  0  0  0  0  0  0  0  0  0  0  0
    1.1692    1.3726    1.0539 H   0  0  0  0  0  0  0  0  0  0  0  0
    2.0430   -0.0241    1.8585 H   0  0  0  0  0  0  0  0  0  0  0  0
    1.0144   -1.5557    0.1931 H   0  0  0  0  0  0  0  0  0  0  0  0
    0.6053   -0.3577   -1.8507 H   0  0  0  0  0  0  0  0  0  0  0  0
    0.2942    1.1860   -0.9510 H   0  0  0  0  0  0  0  0  0  0  0  0
   -1.8175   -1.8350    0.4188 H   0  0  0  0  0  0  0  0  0  0  0  0
   -3.7423   -0.5288    0.7675 H   0  0  0  0  0  0  0  0  0  0  0  0
   -2.8600    1.0365    0.4224 H   0  0  0  0  0  0  0  0  0  0  0  0
   -2.7174    0.2864    2.0217 H   0  0  0  0  0  0  0  0  0  0  0  0
  1  2  1  0
  2  3  1  0
  3  4  1  0
  4  5  1  0
  5  6  2  0
  5  7  1  0
  7  8  1  0
  7  9  1  0
  9  3  1  0
  1 10  1  0
  1 11  1  0
  1 12  1  0
  2 13  1  0
  2 14  1  0
  3 15  1  0
  4 16  1  0
  4 17  1  0
  7 18  1  0
  8 19  1  0
  8 20  1  0
  8 21  1  0
M  END
