
     RDKit          3D

 23 24  0  0  0  0  0  0  0  0999 V2000
   -1.2228    2.1016   -0.6036 C   0  0  0  0  0  0  0  0  0  0  0  0
   -0.8446    1.3033    0.6301 C   0  0  0  0  0  0  0  0  0  0  0  0
   -0.1192    0.0746    0.1595 C   0  0  0  0  0  0  0  0  0  0  0  0
   -0.8541   -0.7586   -0.6810 O   0  0  0  0  0  0  0  0  0  0  0  0
   -1.9998   -1.2386   -0.0934 C   0  0  0  0  0  0  0  0  0  0  0  0
    0.9725   -0.4451    1.0028 C   0  0  0  0  0  0  0  0  0  0  0  0
    1.9486   -1.4664    0.5342 C   0  0  0  0  0  0  0  0  0  0  0  0
    1.9630   -0.8914   -0.8741 C   0  0  0  0  0  0  0  0  0  0  0  0
    1.2814    0.3191   -0.3175 C   0  0  0  0  0  0  0  0  0  0  0  0
   -2.1277    1.6553   -1.0585 H   0  0  0  0  0  0  0  0  0  0  0  0
   -0.4135    1.9920   -1.3823 H   0  0  0  0  0  0  0  0  0  0  0  0
   -1.3862    3.1683   -0.3782 H   0  0  0  0  0  0  0  0  0  0  0  0
   -1.7697    1.0724    1.1932 H   0  0  0  0  0  0  0  0  0  0  0  0
   -0.2301    1.9414    1.2946 H   0  0  0  0  0  0  0  0  0  0  0  0
   -1.8026   -1.8335    0.8218 H   0  0  0  0  0  0  0  0  0  0  0  0
   -2.5124   -1.8846   -0.8620 H   0  0  0  0  0  0  0  0  0  0  0  0
   -2.6768   -0.3791    0.0882 H   0  0  0  0  0  0  0  0  0  0  0  0
    1.1778    0.0853    1.9349 H   0  0  0  0  0  0  0  0  0  0  0  0
    1.6681   -2.5169    0.6162 H   0  0  0  0  0  0  0  0  0  0  0  0
    2.9838   -1.3329    0.9610 H   0  0  0  0  0  0  0  0  0  0  0  0
    2.9449   -0.7501   -1.3216 H   0  0  0  0  0  0  0  0  0  0  0  0
    1.2271   -1.4778   -1.4914 H   0  0  0  0  0  0  0  0  0  0  0  0
    1.7922    1.2618   -0.1730 H   0  0  0  0  0  0  0  0  0  0  0  0
  1  2  1  0
  2  3  1  0
  3  4  1  0
  4  5  1  0
  3  6  1  0
  6  7  1  0
  7  8  1  0
  8  9  1  0
  9  3  1  0
  9  6  1  0
  1 10  1  0
  1 11  1  0
  1 12  1  0
  2 13  1  0
  2 14  1  0
  5 15  1  0
  5 16  1  0
  5 17  1  0
  6 18  1  0
  7 19  1  0
  7 20  1  0
  8 21  1  0
  8 22  1  0
  9 23  1  0
M  END
