
     RDKit          3D

 21 22  0  0  0  0  0  0  0  0999 V2000
    2.5342    0.4248    0.6119 C   0  0  0  0  0  0  0  0  0  0  0  0
    1.5193    0.3500   -0.4732 C   0  0  0  0  0  0  0  0  0  0  0  0
    0.4002   -0.6220   -0.1827 C   0  0  0  0  0  0  0  0  0  0  0  0
   -0.5520   -0.5767   -1.3940 C   0  0  0  0  0  0  0  0  0  0  0  0
   -1.6392    0.2614   -0.7162 C   0  0  0  0  0  0  0  0  0  0  0  0
   -0.9678    1.1482    0.1033 O   0  0  0  0  0  0  0  0  0  0  0  0
   -0.5271    0.0063    0.8125 C   0  0  0  0  0  0  0  0  0  0  0  0
   -1.9003   -0.5674    0.5236 C   0  0  0  0  0  0  0  0  0  0  0  0
   -2.8708    0.0038    1.3321 O   0  0  0  0  0  0  0  0  0  0  0  0
    3.0102    1.4489    0.5784 H   0  0  0  0  0  0  0  0  0  0  0  0
    3.3733   -0.2764    0.4026 H   0  0  0  0  0  0  0  0  0  0  0  0
    2.1361    0.3182    1.6333 H   0  0  0  0  0  0  0  0  0  0  0  0
    1.1179    1.3654   -0.6452 H   0  0  0  0  0  0  0  0  0  0  0  0
    1.9974    0.0238   -1.4150 H   0  0  0  0  0  0  0  0  0  0  0  0
    0.7386   -1.6218    0.0480 H   0  0  0  0  0  0  0  0  0  0  0  0
   -0.9965   -1.5567   -1.5874 H   0  0  0  0  0  0  0  0  0  0  0  0
   -0.1033   -0.0749   -2.2449 H   0  0  0  0  0  0  0  0  0  0  0  0
   -2.4594    0.5831   -1.3058 H   0  0  0  0  0  0  0  0  0  0  0  0
   -0.2266    0.1393    1.8247 H   0  0  0  0  0  0  0  0  0  0  0  0
   -1.9642   -1.6421    0.3928 H   0  0  0  0  0  0  0  0  0  0  0  0
   -2.6199    0.8649    1.7013 H   0  0  0  0  0  0  0  0  0  0  0  0
  1  2  1  0
  2  3  1  0
  3  4  1  0
  4  5  1  0
  5  6  1  0
  6  7  1  0
  7  8  1  0
  8  9  1  0
  7  3  1  0
  8  5  1  0
  1 10  1  0
  1 11  1  0
  1 12  1  0
  2 13  1  0
  2 14  1  0
  3 15  1  0
  4 16  1  0
  4 17  1  0
  5 18  1  0
  7 19  1  0
  8 20  1  0
  9 21  1  0
M  END
