
     RDKit          3D

 25 26  0  0  0  0  0  0  0  0999 V2000
    2.2078    1.2611    0.6621 C   0  0  0  0  0  0  0  0  0  0  0  0
    1.5689    0.4571   -0.4496 C   0  0  0  0  0  0  0  0  0  0  0  0
    0.6028   -0.5261    0.1030 C   0  0  0  0  0  0  0  0  0  0  0  0
   -0.0835   -1.3705   -0.9140 C   0  0  0  0  0  0  0  0  0  0  0  0
   -1.2470   -0.4967   -1.3958 C   0  0  0  0  0  0  0  0  0  0  0  0
   -1.6913   -0.6244    0.0488 C   0  0  0  0  0  0  0  0  0  0  0  0
   -1.1510   -2.0586   -0.0519 C   0  0  0  0  0  0  0  0  0  0  0  0
   -0.5920    0.0798    0.8006 C   0  0  0  0  0  0  0  0  0  0  0  0
   -0.7543    1.5341    0.6630 C   0  0  0  0  0  0  0  0  0  0  0  0
    1.6145    1.2154    1.5906 H   0  0  0  0  0  0  0  0  0  0  0  0
    3.2253    0.9033    0.9229 H   0  0  0  0  0  0  0  0  0  0  0  0
    2.3278    2.3198    0.3509 H   0  0  0  0  0  0  0  0  0  0  0  0
    2.4119   -0.1545   -0.8924 H   0  0  0  0  0  0  0  0  0  0  0  0
    1.2003    1.0760   -1.2650 H   0  0  0  0  0  0  0  0  0  0  0  0
    1.1344   -1.1974    0.8096 H   0  0  0  0  0  0  0  0  0  0  0  0
    0.4395   -1.9490   -1.6198 H   0  0  0  0  0  0  0  0  0  0  0  0
   -0.8581    0.4792   -1.6952 H   0  0  0  0  0  0  0  0  0  0  0  0
   -1.9245   -1.0131   -2.0842 H   0  0  0  0  0  0  0  0  0  0  0  0
   -2.7011   -0.4865    0.3039 H   0  0  0  0  0  0  0  0  0  0  0  0
   -1.8426   -2.6464   -0.6703 H   0  0  0  0  0  0  0  0  0  0  0  0
   -0.7934   -2.4820    0.8800 H   0  0  0  0  0  0  0  0  0  0  0  0
   -0.6154   -0.2291    1.8547 H   0  0  0  0  0  0  0  0  0  0  0  0
   -1.7967    1.8413    0.3479 H   0  0  0  0  0  0  0  0  0  0  0  0
   -0.0346    2.0576    0.0211 H   0  0  0  0  0  0  0  0  0  0  0  0
   -0.6479    2.0096    1.6790 H   0  0  0  0  0  0  0  0  0  0  0  0
  1  2  1  0
  2  3  1  0
  3  4  1  0
  4  5  1  0
  5  6  1  0
  6  7  1  0
  6  8  1  0
  8  9  1  0
  8  3  1  0
  7  4  1  0
  1 10  1  0
  1 11  1  0
  1 12  1  0
  2 13  1  0
  2 14  1  0
  3 15  1  0
  4 16  1  0
  5 17  1  0
  5 18  1  0
  6 19  1  0
  7 20  1  0
  7 21  1  0
  8 22  1  0
  9 23  1  0
  9 24  1  0
  9 25  1  0
M  END
