
     RDKit          3D

 23 23  0  0  0  0  0  0  0  0999 V2000
   -2.2251    1.6930    0.0530 C   0  0  0  0  0  0  0  0  0  0  0  0
   -2.0155    0.2116    0.0568 C   0  0  0  0  0  0  0  0  0  0  0  0
   -0.6964   -0.2003   -0.5474 C   0  0  0  0  0  0  0  0  0  0  0  0
   -0.5514   -1.7094   -0.5106 C   0  0  0  0  0  0  0  0  0  0  0  0
    0.5764   -1.6082    0.4903 C   0  0  0  0  0  0  0  0  0  0  0  0
    0.4919   -0.0913    0.3452 C   0  0  0  0  0  0  0  0  0  0  0  0
    1.6843    0.4133   -0.3855 C   0  0  0  0  0  0  0  0  0  0  0  0
    2.9972    0.6039    0.3121 C   0  0  0  0  0  0  0  0  0  0  0  0
    1.6198    0.6869   -1.5842 O   0  0  0  0  0  0  0  0  0  0  0  0
   -1.8775    2.1058    1.0214 H   0  0  0  0  0  0  0  0  0  0  0  0
   -3.3122    1.8846   -0.0685 H   0  0  0  0  0  0  0  0  0  0  0  0
   -1.6809    2.2051   -0.7905 H   0  0  0  0  0  0  0  0  0  0  0  0
   -2.1138   -0.1344    1.1140 H   0  0  0  0  0  0  0  0  0  0  0  0
   -2.8183   -0.2647   -0.5407 H   0  0  0  0  0  0  0  0  0  0  0  0
   -0.5823    0.2464   -1.5509 H   0  0  0  0  0  0  0  0  0  0  0  0
   -1.4081   -2.2457   -0.0683 H   0  0  0  0  0  0  0  0  0  0  0  0
   -0.2009   -2.0957   -1.4892 H   0  0  0  0  0  0  0  0  0  0  0  0
    0.3300   -1.9561    1.5088 H   0  0  0  0  0  0  0  0  0  0  0  0
    1.5352   -2.0414    0.1715 H   0  0  0  0  0  0  0  0  0  0  0  0
    0.3467    0.4402    1.3079 H   0  0  0  0  0  0  0  0  0  0  0  0
    3.5193   -0.3756    0.2839 H   0  0  0  0  0  0  0  0  0  0  0  0
    2.7851    0.8147    1.3842 H   0  0  0  0  0  0  0  0  0  0  0  0
    3.5964    1.4173   -0.1653 H   0  0  0  0  0  0  0  0  0  0  0  0
  1  2  1  0
  2  3  1  0
  3  4  1  0
  4  5  1  0
  5  6  1  0
  6  7  1  0
  7  8  1  0
  7  9  2  0
  6  3  1  0
  1 10  1  0
  1 11  1  0
  1 12  1  0
  2 13  1  0
  2 14  1  0
  3 15  1  0
  4 16  1  0
  4 17  1  0
  5 18  1  0
  5 19  1  0
  6 20  1  0
  8 21  1  0
  8 22  1  0
  8 23  1  0
M  END
