
     RDKit          3D

 23 24  0  0  0  0  0  0  0  0999 V2000
    2.1807    0.1894    0.6248 C   0  0  0  0  0  0  0  0  0  0  0  0
    1.7371   -0.7141   -0.4799 C   0  0  0  0  0  0  0  0  0  0  0  0
    0.2384   -0.7664   -0.6375 C   0  0  0  0  0  0  0  0  0  0  0  0
   -0.3376   -1.2703    0.6537 C   0  0  0  0  0  0  0  0  0  0  0  0
   -0.4255   -0.2622    1.5925 O   0  0  0  0  0  0  0  0  0  0  0  0
   -1.2903    0.7535    1.2437 C   0  0  0  0  0  0  0  0  0  0  0  0
   -1.1247    1.2839   -0.1288 C   0  0  0  0  0  0  0  0  0  0  0  0
   -1.8744    0.4929   -1.2018 C   0  0  0  0  0  0  0  0  0  0  0  0
   -0.3648    0.5069   -1.0848 C   0  0  0  0  0  0  0  0  0  0  0  0
    1.9108   -0.2154    1.6333 H   0  0  0  0  0  0  0  0  0  0  0  0
    1.8479    1.2280    0.5092 H   0  0  0  0  0  0  0  0  0  0  0  0
    3.2936    0.2089    0.6110 H   0  0  0  0  0  0  0  0  0  0  0  0
    2.2112   -0.3313   -1.4250 H   0  0  0  0  0  0  0  0  0  0  0  0
    2.1760   -1.7182   -0.3160 H   0  0  0  0  0  0  0  0  0  0  0  0
    0.0256   -1.5527   -1.4128 H   0  0  0  0  0  0  0  0  0  0  0  0
   -1.2864   -1.8252    0.5183 H   0  0  0  0  0  0  0  0  0  0  0  0
    0.3898   -2.0194    1.0581 H   0  0  0  0  0  0  0  0  0  0  0  0
   -2.3473    0.3893    1.3501 H   0  0  0  0  0  0  0  0  0  0  0  0
   -1.1434    1.5774    1.9737 H   0  0  0  0  0  0  0  0  0  0  0  0
   -1.2259    2.3700   -0.2585 H   0  0  0  0  0  0  0  0  0  0  0  0
   -2.3419    1.0358   -2.0351 H   0  0  0  0  0  0  0  0  0  0  0  0
   -2.4255   -0.4151   -0.8954 H   0  0  0  0  0  0  0  0  0  0  0  0
    0.1764    1.0544   -1.8927 H   0  0  0  0  0  0  0  0  0  0  0  0
  1  2  1  0
  2  3  1  0
  3  4  1  0
  4  5  1  0
  5  6  1  0
  6  7  1  0
  7  8  1  0
  8  9  1  0
  9  3  1  0
  9  7  1  0
  1 10  1  0
  1 11  1  0
  1 12  1  0
  2 13  1  0
  2 14  1  0
  3 15  1  0
  4 16  1  0
  4 17  1  0
  6 18  1  0
  6 19  1  0
  7 20  1  0
  8 21  1  0
  8 22  1  0
  9 23  1  0
M  END
