
     RDKit          3D

 20 21  0  0  0  0  0  0  0  0999 V2000
    2.7185    0.0357   -0.0718 C   0  0  0  0  0  0  0  0  0  0  0  0
    1.3863   -0.5206    0.3701 C   0  0  0  0  0  0  0  0  0  0  0  0
    0.3387    0.5578    0.0993 C   0  0  0  0  0  0  0  0  0  0  0  0
    0.3520    0.8310   -1.2909 O   0  0  0  0  0  0  0  0  0  0  0  0
   -0.8233    0.0687   -1.4935 C   0  0  0  0  0  0  0  0  0  0  0  0
   -1.0466    0.1028   -0.0437 C   0  0  0  0  0  0  0  0  0  0  0  0
   -1.7740   -0.8145    0.7757 C   0  0  0  0  0  0  0  0  0  0  0  0
   -2.2150    0.6268    0.6405 C   0  0  0  0  0  0  0  0  0  0  0  0
    2.6560    1.1311   -0.2999 H   0  0  0  0  0  0  0  0  0  0  0  0
    3.4605   -0.0470    0.7544 H   0  0  0  0  0  0  0  0  0  0  0  0
    3.0906   -0.4426   -1.0065 H   0  0  0  0  0  0  0  0  0  0  0  0
    1.1725   -1.4067   -0.2621 H   0  0  0  0  0  0  0  0  0  0  0  0
    1.4076   -0.8379    1.4132 H   0  0  0  0  0  0  0  0  0  0  0  0
    0.4603    1.4612    0.7284 H   0  0  0  0  0  0  0  0  0  0  0  0
   -0.5637   -0.8960   -1.9617 H   0  0  0  0  0  0  0  0  0  0  0  0
   -1.5969    0.6256   -2.0641 H   0  0  0  0  0  0  0  0  0  0  0  0
   -2.4605   -1.6153    0.3799 H   0  0  0  0  0  0  0  0  0  0  0  0
   -1.4191   -1.0573    1.8108 H   0  0  0  0  0  0  0  0  0  0  0  0
   -2.0298    1.3315    1.4864 H   0  0  0  0  0  0  0  0  0  0  0  0
   -3.1141    0.8659    0.0355 H   0  0  0  0  0  0  0  0  0  0  0  0
  1  2  1  0
  2  3  1  0
  3  4  1  0
  4  5  1  0
  5  6  1  0
  6  7  1  0
  7  8  1  0
  6  3  1  0
  8  6  1  0
  1  9  1  0
  1 10  1  0
  1 11  1  0
  2 12  1  0
  2 13  1  0
  3 14  1  0
  5 15  1  0
  5 16  1  0
  7 17  1  0
  7 18  1  0
  8 19  1  0
  8 20  1  0
M  END
