
     RDKit          3D

 18 19  0  0  0  0  0  0  0  0999 V2000
   -1.3895   -1.5133    0.1468 C   0  0  0  0  0  0  0  0  0  0  0  0
   -1.3318   -0.1972   -0.5427 C   0  0  0  0  0  0  0  0  0  0  0  0
   -0.1057    0.5994   -0.2586 C   0  0  0  0  0  0  0  0  0  0  0  0
    1.2548    0.0901   -0.5839 C   0  0  0  0  0  0  0  0  0  0  0  0
    2.1639   -0.4889    0.4078 C   0  0  0  0  0  0  0  0  0  0  0  0
    2.3058    0.9344   -0.0214 O   0  0  0  0  0  0  0  0  0  0  0  0
   -0.2649    1.8266    0.5950 C   0  0  0  0  0  0  0  0  0  0  0  0
   -0.2943    1.9714   -0.8015 O   0  0  0  0  0  0  0  0  0  0  0  0
   -0.6940   -2.2726   -0.3065 H   0  0  0  0  0  0  0  0  0  0  0  0
   -1.2759   -1.4539    1.2392 H   0  0  0  0  0  0  0  0  0  0  0  0
   -2.4128   -1.9415   -0.0317 H   0  0  0  0  0  0  0  0  0  0  0  0
   -2.2237    0.3915   -0.2374 H   0  0  0  0  0  0  0  0  0  0  0  0
   -1.4720   -0.3871   -1.6399 H   0  0  0  0  0  0  0  0  0  0  0  0
    1.4341   -0.1975   -1.6416 H   0  0  0  0  0  0  0  0  0  0  0  0
    2.9933   -1.1129    0.0735 H   0  0  0  0  0  0  0  0  0  0  0  0
    1.9508   -0.5062    1.4878 H   0  0  0  0  0  0  0  0  0  0  0  0
    0.6244    2.2823    1.0664 H   0  0  0  0  0  0  0  0  0  0  0  0
   -1.2625    1.9754    1.0487 H   0  0  0  0  0  0  0  0  0  0  0  0
  1  2  1  0
  2  3  1  0
  3  4  1  0
  4  5  1  0
  5  6  1  0
  3  7  1  0
  7  8  1  0
  8  3  1  0
  6  4  1  0
  1  9  1  0
  1 10  1  0
  1 11  1  0
  2 12  1  0
  2 13  1  0
  4 14  1  0
  5 15  1  0
  5 16  1  0
  7 17  1  0
  7 18  1  0
M  END
