
     RDKit          3D

 23 24  0  0  0  0  0  0  0  0999 V2000
   -2.4539   -0.6668   -0.4557 C   0  0  0  0  0  0  0  0  0  0  0  0
   -1.9898   -0.0791    0.8310 C   0  0  0  0  0  0  0  0  0  0  0  0
   -0.5314    0.2815    0.8570 C   0  0  0  0  0  0  0  0  0  0  0  0
    0.3616   -0.8488    0.6311 C   0  0  0  0  0  0  0  0  0  0  0  0
    1.3033   -0.5327   -0.2222 C   0  0  0  0  0  0  0  0  0  0  0  0
    2.3938   -1.4284   -0.6953 C   0  0  0  0  0  0  0  0  0  0  0  0
    1.1401    0.8688   -0.6711 C   0  0  0  0  0  0  0  0  0  0  0  0
    1.2089    2.0121    0.2498 C   0  0  0  0  0  0  0  0  0  0  0  0
   -0.1373    1.3669   -0.0538 C   0  0  0  0  0  0  0  0  0  0  0  0
   -1.7912   -1.5124   -0.7256 H   0  0  0  0  0  0  0  0  0  0  0  0
   -2.5966    0.0545   -1.2685 H   0  0  0  0  0  0  0  0  0  0  0  0
   -3.4599   -1.1310   -0.2657 H   0  0  0  0  0  0  0  0  0  0  0  0
   -2.6381    0.7692    1.1256 H   0  0  0  0  0  0  0  0  0  0  0  0
   -2.1363   -0.8626    1.6263 H   0  0  0  0  0  0  0  0  0  0  0  0
   -0.3351    0.6391    1.9144 H   0  0  0  0  0  0  0  0  0  0  0  0
    0.2295   -1.8243    1.1306 H   0  0  0  0  0  0  0  0  0  0  0  0
    1.9501   -2.0509   -1.5139 H   0  0  0  0  0  0  0  0  0  0  0  0
    2.8118   -2.0560    0.1102 H   0  0  0  0  0  0  0  0  0  0  0  0
    3.2149   -0.8519   -1.1913 H   0  0  0  0  0  0  0  0  0  0  0  0
    1.3231    1.0742   -1.7598 H   0  0  0  0  0  0  0  0  0  0  0  0
    1.5511    1.9186    1.2973 H   0  0  0  0  0  0  0  0  0  0  0  0
    1.4010    3.0038   -0.1974 H   0  0  0  0  0  0  0  0  0  0  0  0
   -0.8199    1.8562   -0.7533 H   0  0  0  0  0  0  0  0  0  0  0  0
  1  2  1  0
  2  3  1  0
  3  4  1  0
  4  5  2  0
  5  6  1  0
  5  7  1  0
  7  8  1  0
  8  9  1  0
  9  3  1  0
  9  7  1  0
  1 10  1  0
  1 11  1  0
  1 12  1  0
  2 13  1  0
  2 14  1  0
  3 15  1  0
  4 16  1  0
  6 17  1  0
  6 18  1  0
  6 19  1  0
  7 20  1  0
  8 21  1  0
  8 22  1  0
  9 23  1  0
M  END
