
     RDKit          3D

 23 24  0  0  0  0  0  0  0  0999 V2000
    2.8253    0.4377    0.5138 C   0  0  0  0  0  0  0  0  0  0  0  0
    1.6511   -0.4986    0.4081 C   0  0  0  0  0  0  0  0  0  0  0  0
    0.4026    0.2027    0.0642 C   0  0  0  0  0  0  0  0  0  0  0  0
    0.2494    1.5001   -0.1433 C   0  0  0  0  0  0  0  0  0  0  0  0
   -1.1570    1.8445   -0.4700 C   0  0  0  0  0  0  0  0  0  0  0  0
   -1.9525    0.6287   -0.0906 C   0  0  0  0  0  0  0  0  0  0  0  0
   -0.9106   -0.4564   -0.1066 C   0  0  0  0  0  0  0  0  0  0  0  0
   -1.0754   -1.7157   -0.8261 C   0  0  0  0  0  0  0  0  0  0  0  0
   -1.2555   -1.6869    0.6768 C   0  0  0  0  0  0  0  0  0  0  0  0
    2.7584    1.1884   -0.2894 H   0  0  0  0  0  0  0  0  0  0  0  0
    3.7677   -0.1394    0.3316 H   0  0  0  0  0  0  0  0  0  0  0  0
    2.8126    0.9005    1.5299 H   0  0  0  0  0  0  0  0  0  0  0  0
    1.5452   -1.0471    1.3725 H   0  0  0  0  0  0  0  0  0  0  0  0
    1.9295   -1.2755   -0.3461 H   0  0  0  0  0  0  0  0  0  0  0  0
    1.0378    2.2686   -0.0913 H   0  0  0  0  0  0  0  0  0  0  0  0
   -1.4602    2.7548    0.0849 H   0  0  0  0  0  0  0  0  0  0  0  0
   -1.1886    2.0111   -1.5774 H   0  0  0  0  0  0  0  0  0  0  0  0
   -2.7938    0.4342   -0.7846 H   0  0  0  0  0  0  0  0  0  0  0  0
   -2.3070    0.7471    0.9538 H   0  0  0  0  0  0  0  0  0  0  0  0
   -1.9497   -1.9809   -1.4188 H   0  0  0  0  0  0  0  0  0  0  0  0
   -0.1267   -2.1854   -1.2184 H   0  0  0  0  0  0  0  0  0  0  0  0
   -2.3067   -1.8045    1.0598 H   0  0  0  0  0  0  0  0  0  0  0  0
   -0.4960   -2.1281    1.3323 H   0  0  0  0  0  0  0  0  0  0  0  0
  1  2  1  0
  2  3  1  0
  3  4  2  0
  4  5  1  0
  5  6  1  0
  6  7  1  0
  7  8  1  0
  8  9  1  0
  7  3  1  0
  9  7  1  0
  1 10  1  0
  1 11  1  0
  1 12  1  0
  2 13  1  0
  2 14  1  0
  4 15  1  0
  5 16  1  0
  5 17  1  0
  6 18  1  0
  6 19  1  0
  8 20  1  0
  8 21  1  0
  9 22  1  0
  9 23  1  0
M  END
