
     RDKit          3D

 21 22  0  0  0  0  0  0  0  0999 V2000
    1.9235    0.9876    0.7592 C   0  0  0  0  0  0  0  0  0  0  0  0
    1.4072   -0.0444   -0.1845 C   0  0  0  0  0  0  0  0  0  0  0  0
    0.0871   -0.6264    0.1452 C   0  0  0  0  0  0  0  0  0  0  0  0
    0.0245   -1.2739    1.3770 O   0  0  0  0  0  0  0  0  0  0  0  0
   -0.3596   -1.5578   -0.9915 C   0  0  0  0  0  0  0  0  0  0  0  0
   -1.5982   -0.6530   -1.0842 C   0  0  0  0  0  0  0  0  0  0  0  0
   -2.3252   -0.7107    0.1168 O   0  0  0  0  0  0  0  0  0  0  0  0
   -1.1419    0.1637   -0.1155 C   0  0  0  0  0  0  0  0  0  0  0  0
   -1.3960    1.5248    0.3443 C   0  0  0  0  0  0  0  0  0  0  0  0
    3.0319    1.0773    0.5744 H   0  0  0  0  0  0  0  0  0  0  0  0
    1.8155    0.6744    1.8043 H   0  0  0  0  0  0  0  0  0  0  0  0
    1.5304    2.0067    0.5572 H   0  0  0  0  0  0  0  0  0  0  0  0
    2.1579   -0.8910   -0.1759 H   0  0  0  0  0  0  0  0  0  0  0  0
    1.4570    0.3547   -1.2194 H   0  0  0  0  0  0  0  0  0  0  0  0
    0.4140   -2.1796    1.2317 H   0  0  0  0  0  0  0  0  0  0  0  0
    0.2695   -1.5392   -1.8769 H   0  0  0  0  0  0  0  0  0  0  0  0
   -0.7035   -2.5542   -0.6355 H   0  0  0  0  0  0  0  0  0  0  0  0
   -2.1493   -0.5902   -2.0118 H   0  0  0  0  0  0  0  0  0  0  0  0
   -0.7784    1.8438    1.2361 H   0  0  0  0  0  0  0  0  0  0  0  0
   -1.2219    2.2444   -0.5095 H   0  0  0  0  0  0  0  0  0  0  0  0
   -2.4443    1.7431    0.6584 H   0  0  0  0  0  0  0  0  0  0  0  0
  1  2  1  0
  2  3  1  0
  3  4  1  0
  3  5  1  0
  5  6  1  0
  6  7  1  0
  7  8  1  0
  8  9  1  0
  8  3  1  0
  8  6  1  0
  1 10  1  0
  1 11  1  0
  1 12  1  0
  2 13  1  0
  2 14  1  0
  4 15  1  0
  5 16  1  0
  5 17  1  0
  6 18  1  0
  9 19  1  0
  9 20  1  0
  9 21  1  0
M  END
