
     RDKit          3D

 23 24  0  0  0  0  0  0  0  0999 V2000
    2.5061   -1.0127    0.2162 C   0  0  0  0  0  0  0  0  0  0  0  0
    1.8662    0.3198   -0.0326 C   0  0  0  0  0  0  0  0  0  0  0  0
    0.4275    0.2262   -0.4436 C   0  0  0  0  0  0  0  0  0  0  0  0
   -0.1004    1.6242   -0.6632 C   0  0  0  0  0  0  0  0  0  0  0  0
   -0.9386    1.8958    0.4054 O   0  0  0  0  0  0  0  0  0  0  0  0
   -1.5522    0.6959    0.7241 C   0  0  0  0  0  0  0  0  0  0  0  0
   -2.3034    0.0090   -0.3606 C   0  0  0  0  0  0  0  0  0  0  0  0
   -1.5444   -1.2537   -0.0383 C   0  0  0  0  0  0  0  0  0  0  0  0
   -0.4739   -0.3527    0.5890 C   0  0  0  0  0  0  0  0  0  0  0  0
    1.8294   -1.8279   -0.1412 H   0  0  0  0  0  0  0  0  0  0  0  0
    3.4553   -1.0996   -0.3328 H   0  0  0  0  0  0  0  0  0  0  0  0
    2.7375   -1.1891    1.2867 H   0  0  0  0  0  0  0  0  0  0  0  0
    1.9581    0.9624    0.8572 H   0  0  0  0  0  0  0  0  0  0  0  0
    2.4123    0.8293   -0.8569 H   0  0  0  0  0  0  0  0  0  0  0  0
    0.3162   -0.3301   -1.3992 H   0  0  0  0  0  0  0  0  0  0  0  0
   -0.6213    1.7238   -1.6401 H   0  0  0  0  0  0  0  0  0  0  0  0
    0.7477    2.3649   -0.7062 H   0  0  0  0  0  0  0  0  0  0  0  0
   -2.0525    0.6622    1.6897 H   0  0  0  0  0  0  0  0  0  0  0  0
   -3.3907   -0.1356   -0.1976 H   0  0  0  0  0  0  0  0  0  0  0  0
   -2.1103    0.3180   -1.3975 H   0  0  0  0  0  0  0  0  0  0  0  0
   -2.0205   -1.9252    0.6814 H   0  0  0  0  0  0  0  0  0  0  0  0
   -1.1106   -1.7769   -0.9129 H   0  0  0  0  0  0  0  0  0  0  0  0
   -0.0374   -0.7281    1.5062 H   0  0  0  0  0  0  0  0  0  0  0  0
  1  2  1  0
  2  3  1  0
  3  4  1  0
  4  5  1  0
  5  6  1  0
  6  7  1  0
  7  8  1  0
  8  9  1  0
  9  3  1  0
  9  6  1  0
  1 10  1  0
  1 11  1  0
  1 12  1  0
  2 13  1  0
  2 14  1  0
  3 15  1  0
  4 16  1  0
  4 17  1  0
  6 18  1  0
  7 19  1  0
  7 20  1  0
  8 21  1  0
  8 22  1  0
  9 23  1  0
M  END
