
     RDKit          3D

 19 19  0  0  0  0  0  0  0  0999 V2000
   -2.2011    0.5459   -0.1942 C   0  0  0  0  0  0  0  0  0  0  0  0
   -1.1891   -0.4979   -0.5251 C   0  0  0  0  0  0  0  0  0  0  0  0
    0.0736   -0.2283    0.2304 C   0  0  0  0  0  0  0  0  0  0  0  0
   -0.1499   -0.2468    1.5877 O   0  0  0  0  0  0  0  0  0  0  0  0
    1.1845   -1.1905   -0.1140 C   0  0  0  0  0  0  0  0  0  0  0  0
    2.3760   -0.5298    0.0068 O   0  0  0  0  0  0  0  0  0  0  0  0
    2.1562    0.8164    0.0751 C   0  0  0  0  0  0  0  0  0  0  0  0
    0.7062    1.0605   -0.1738 C   0  0  0  0  0  0  0  0  0  0  0  0
    0.2369    2.0778   -0.5991 O   0  0  0  0  0  0  0  0  0  0  0  0
   -3.0830    0.1218    0.3583 H   0  0  0  0  0  0  0  0  0  0  0  0
   -2.6412    0.9970   -1.1198 H   0  0  0  0  0  0  0  0  0  0  0  0
   -1.7740    1.3231    0.4765 H   0  0  0  0  0  0  0  0  0  0  0  0
   -1.5793   -1.4786   -0.1898 H   0  0  0  0  0  0  0  0  0  0  0  0
   -1.0060   -0.5806   -1.6084 H   0  0  0  0  0  0  0  0  0  0  0  0
   -0.4231   -1.1318    1.8747 H   0  0  0  0  0  0  0  0  0  0  0  0
    1.0843   -2.0845    0.5120 H   0  0  0  0  0  0  0  0  0  0  0  0
    1.0879   -1.5263   -1.1837 H   0  0  0  0  0  0  0  0  0  0  0  0
    2.3285    1.1251    1.1489 H   0  0  0  0  0  0  0  0  0  0  0  0
    2.8127    1.4275   -0.5627 H   0  0  0  0  0  0  0  0  0  0  0  0
  1  2  1  0
  2  3  1  0
  3  4  1  0
  3  5  1  0
  5  6  1  0
  6  7  1  0
  7  8  1  0
  8  9  2  0
  8  3  1  0
  1 10  1  0
  1 11  1  0
  1 12  1  0
  2 13  1  0
  2 14  1  0
  4 15  1  0
  5 16  1  0
  5 17  1  0
  7 18  1  0
  7 19  1  0
M  END
