
     RDKit          3D

 21 23  0  0  0  0  0  0  0  0999 V2000
    2.3052    0.6968   -0.6135 C   0  0  0  0  0  0  0  0  0  0  0  0
    1.4310    0.5114    0.5651 C   0  0  0  0  0  0  0  0  0  0  0  0
    0.1038   -0.0824    0.3158 C   0  0  0  0  0  0  0  0  0  0  0  0
    0.0715   -1.4337   -0.2796 C   0  0  0  0  0  0  0  0  0  0  0  0
   -1.0744   -1.6038   -0.9305 C   0  0  0  0  0  0  0  0  0  0  0  0
   -1.9115   -0.3543   -0.8177 C   0  0  0  0  0  0  0  0  0  0  0  0
   -1.9376    0.3371    0.4850 C   0  0  0  0  0  0  0  0  0  0  0  0
   -0.8618    0.0188    1.4787 C   0  0  0  0  0  0  0  0  0  0  0  0
   -0.8908    0.6628   -0.4985 C   0  0  0  0  0  0  0  0  0  0  0  0
    3.2739    1.1207   -0.2804 H   0  0  0  0  0  0  0  0  0  0  0  0
    1.8691    1.4103   -1.3333 H   0  0  0  0  0  0  0  0  0  0  0  0
    2.5432   -0.2865   -1.0834 H   0  0  0  0  0  0  0  0  0  0  0  0
    1.9722   -0.1701    1.2849 H   0  0  0  0  0  0  0  0  0  0  0  0
    1.3481    1.4756    1.1033 H   0  0  0  0  0  0  0  0  0  0  0  0
    0.8362   -2.1936   -0.2195 H   0  0  0  0  0  0  0  0  0  0  0  0
   -1.3658   -2.4958   -1.4596 H   0  0  0  0  0  0  0  0  0  0  0  0
   -2.6261   -0.1653   -1.6119 H   0  0  0  0  0  0  0  0  0  0  0  0
   -2.7628    1.0109    0.7461 H   0  0  0  0  0  0  0  0  0  0  0  0
   -1.0092   -0.9383    1.9925 H   0  0  0  0  0  0  0  0  0  0  0  0
   -0.5757    0.8774    2.1422 H   0  0  0  0  0  0  0  0  0  0  0  0
   -0.7386    1.6020   -0.9855 H   0  0  0  0  0  0  0  0  0  0  0  0
  1  2  1  0
  2  3  1  0
  3  4  1  0
  4  5  2  0
  5  6  1  0
  6  7  1  0
  7  8  1  0
  7  9  1  0
  8  3  1  0
  9  3  1  0
  9  6  1  0
  1 10  1  0
  1 11  1  0
  1 12  1  0
  2 13  1  0
  2 14  1  0
  4 15  1  0
  5 16  1  0
  6 17  1  0
  7 18  1  0
  8 19  1  0
  8 20  1  0
  9 21  1  0
M  END
