
     RDKit          3D

 23 24  0  0  0  0  0  0  0  0999 V2000
   -2.1249    1.0988    0.0050 C   0  0  0  0  0  0  0  0  0  0  0  0
   -1.6577   -0.3124    0.0184 C   0  0  0  0  0  0  0  0  0  0  0  0
   -0.1852   -0.4969   -0.1181 C   0  0  0  0  0  0  0  0  0  0  0  0
    0.1218   -2.0031   -0.0851 C   0  0  0  0  0  0  0  0  0  0  0  0
    0.4454    0.0762   -1.3707 C   0  0  0  0  0  0  0  0  0  0  0  0
    1.5996    0.5256   -0.4811 C   0  0  0  0  0  0  0  0  0  0  0  0
    2.7805   -0.1622   -0.4904 O   0  0  0  0  0  0  0  0  0  0  0  0
    1.2693    1.5859    0.4815 C   0  0  0  0  0  0  0  0  0  0  0  0
    0.7057    0.2718    0.7788 C   0  0  0  0  0  0  0  0  0  0  0  0
   -2.2169    1.4850   -1.0535 H   0  0  0  0  0  0  0  0  0  0  0  0
   -3.1912    1.0981    0.3803 H   0  0  0  0  0  0  0  0  0  0  0  0
   -1.5814    1.7842    0.6602 H   0  0  0  0  0  0  0  0  0  0  0  0
   -2.1275   -0.8254   -0.8727 H   0  0  0  0  0  0  0  0  0  0  0  0
   -2.0051   -0.8504    0.8987 H   0  0  0  0  0  0  0  0  0  0  0  0
   -0.2268   -2.4569    0.8659 H   0  0  0  0  0  0  0  0  0  0  0  0
   -0.4926   -2.4675   -0.8932 H   0  0  0  0  0  0  0  0  0  0  0  0
    1.1813   -2.2008   -0.3093 H   0  0  0  0  0  0  0  0  0  0  0  0
   -0.0943    0.9560   -1.7687 H   0  0  0  0  0  0  0  0  0  0  0  0
    0.8175   -0.6472   -2.0997 H   0  0  0  0  0  0  0  0  0  0  0  0
    3.0627   -0.5144    0.3845 H   0  0  0  0  0  0  0  0  0  0  0  0
    2.0850    1.9477    1.1188 H   0  0  0  0  0  0  0  0  0  0  0  0
    0.6527    2.4286    0.0659 H   0  0  0  0  0  0  0  0  0  0  0  0
    1.1821   -0.3207    1.5896 H   0  0  0  0  0  0  0  0  0  0  0  0
  1  2  1  0
  2  3  1  0
  3  4  1  0
  3  5  1  0
  5  6  1  0
  6  7  1  0
  6  8  1  0
  8  9  1  0
  9  3  1  0
  9  6  1  0
  1 10  1  0
  1 11  1  0
  1 12  1  0
  2 13  1  0
  2 14  1  0
  4 15  1  0
  4 16  1  0
  4 17  1  0
  5 18  1  0
  5 19  1  0
  7 20  1  0
  8 21  1  0
  8 22  1  0
  9 23  1  0
M  END
