
     RDKit          3D

 19 20  0  0  0  0  0  0  0  0999 V2000
   -2.2333    0.6462    0.1682 C   0  0  0  0  0  0  0  0  0  0  0  0
   -1.6690   -0.4687   -0.6806 C   0  0  0  0  0  0  0  0  0  0  0  0
   -0.2384   -0.7078   -0.4486 C   0  0  0  0  0  0  0  0  0  0  0  0
    0.3904   -1.8076   -0.0259 C   0  0  0  0  0  0  0  0  0  0  0  0
    1.8295   -1.4298    0.0162 C   0  0  0  0  0  0  0  0  0  0  0  0
    2.0656   -0.4251    1.0901 C   0  0  0  0  0  0  0  0  0  0  0  0
    1.4289    0.6781    0.6612 C   0  0  0  0  0  0  0  0  0  0  0  0
    0.8496    0.2903   -0.6529 C   0  0  0  0  0  0  0  0  0  0  0  0
    1.8750   -0.5752   -1.1171 O   0  0  0  0  0  0  0  0  0  0  0  0
   -2.0415    1.6527   -0.2576 H   0  0  0  0  0  0  0  0  0  0  0  0
   -3.3356    0.5403    0.2751 H   0  0  0  0  0  0  0  0  0  0  0  0
   -1.8412    0.6049    1.2266 H   0  0  0  0  0  0  0  0  0  0  0  0
   -1.8210   -0.1413   -1.7503 H   0  0  0  0  0  0  0  0  0  0  0  0
   -2.2967   -1.3649   -0.5608 H   0  0  0  0  0  0  0  0  0  0  0  0
   -0.1074   -2.7375    0.2150 H   0  0  0  0  0  0  0  0  0  0  0  0
    2.5254   -2.2398   -0.0239 H   0  0  0  0  0  0  0  0  0  0  0  0
    2.6276   -0.5684    2.0058 H   0  0  0  0  0  0  0  0  0  0  0  0
    1.3685    1.6257    1.1803 H   0  0  0  0  0  0  0  0  0  0  0  0
    0.6236    1.0939   -1.3208 H   0  0  0  0  0  0  0  0  0  0  0  0
  1  2  1  0
  2  3  1  0
  3  4  2  0
  4  5  1  0
  5  6  1  0
  6  7  2  0
  7  8  1  0
  8  9  1  0
  8  3  1  0
  9  5  1  0
  1 10  1  0
  1 11  1  0
  1 12  1  0
  2 13  1  0
  2 14  1  0
  4 15  1  0
  5 16  1  0
  6 17  1  0
  7 18  1  0
  8 19  1  0
M  END
