
     RDKit          3D

 21 22  0  0  0  0  0  0  0  0999 V2000
    2.8806    0.7632    0.4533 C   0  0  0  0  0  0  0  0  0  0  0  0
    1.9046   -0.3672    0.6544 C   0  0  0  0  0  0  0  0  0  0  0  0
    0.4765    0.0589    0.3487 C   0  0  0  0  0  0  0  0  0  0  0  0
   -0.5258   -1.0380    0.5369 C   0  0  0  0  0  0  0  0  0  0  0  0
   -1.8260   -0.6599    1.1201 C   0  0  0  0  0  0  0  0  0  0  0  0
   -2.5905    0.1562    0.4439 C   0  0  0  0  0  0  0  0  0  0  0  0
   -2.1966    0.6945   -0.8534 C   0  0  0  0  0  0  0  0  0  0  0  0
   -1.1995    0.0749   -1.5055 O   0  0  0  0  0  0  0  0  0  0  0  0
   -0.2475   -0.5834   -0.7996 C   0  0  0  0  0  0  0  0  0  0  0  0
    3.1363    0.9245   -0.6129 H   0  0  0  0  0  0  0  0  0  0  0  0
    2.5375    1.6908    0.9311 H   0  0  0  0  0  0  0  0  0  0  0  0
    3.8298    0.4580    0.9686 H   0  0  0  0  0  0  0  0  0  0  0  0
    1.9163   -0.5984    1.7602 H   0  0  0  0  0  0  0  0  0  0  0  0
    2.1580   -1.2267    0.0354 H   0  0  0  0  0  0  0  0  0  0  0  0
    0.2446    1.0907    0.6589 H   0  0  0  0  0  0  0  0  0  0  0  0
   -0.1859   -2.0617    0.8241 H   0  0  0  0  0  0  0  0  0  0  0  0
   -2.1184   -1.0661    2.0942 H   0  0  0  0  0  0  0  0  0  0  0  0
   -3.5480    0.4371    0.8692 H   0  0  0  0  0  0  0  0  0  0  0  0
   -3.1147    0.6731   -1.5118 H   0  0  0  0  0  0  0  0  0  0  0  0
   -1.9593    1.7941   -0.7704 H   0  0  0  0  0  0  0  0  0  0  0  0
    0.4279   -1.2146   -1.4316 H   0  0  0  0  0  0  0  0  0  0  0  0
  1  2  1  0
  2  3  1  0
  3  4  1  0
  4  5  1  0
  5  6  2  0
  6  7  1  0
  7  8  1  0
  8  9  1  0
  9  3  1  0
  9  4  1  0
  1 10  1  0
  1 11  1  0
  1 12  1  0
  2 13  1  0
  2 14  1  0
  3 15  1  0
  4 16  1  0
  5 17  1  0
  6 18  1  0
  7 19  1  0
  7 20  1  0
  9 21  1  0
M  END
