
     RDKit          3D

 25 25  0  0  0  0  0  0  0  0999 V2000
    2.2750   -1.3094    0.2342 C   0  0  0  0  0  0  0  0  0  0  0  0
    1.5868    0.0398    0.2364 C   0  0  0  0  0  0  0  0  0  0  0  0
    0.1333   -0.0990    0.5873 C   0  0  0  0  0  0  0  0  0  0  0  0
   -0.6919    1.1175    0.6366 C   0  0  0  0  0  0  0  0  0  0  0  0
    0.0086    2.4469    0.6790 C   0  0  0  0  0  0  0  0  0  0  0  0
   -1.2721    0.7821   -0.7020 C   0  0  0  0  0  0  0  0  0  0  0  0
   -0.6968   -0.6244   -0.5670 C   0  0  0  0  0  0  0  0  0  0  0  0
   -1.7587   -1.6073   -0.2001 C   0  0  0  0  0  0  0  0  0  0  0  0
    0.0851   -0.9778   -1.6774 O   0  0  0  0  0  0  0  0  0  0  0  0
    2.8159   -1.4746    1.2016 H   0  0  0  0  0  0  0  0  0  0  0  0
    3.0805   -1.2400   -0.5436 H   0  0  0  0  0  0  0  0  0  0  0  0
    1.5926   -2.1487    0.0745 H   0  0  0  0  0  0  0  0  0  0  0  0
    1.6559    0.5321   -0.7749 H   0  0  0  0  0  0  0  0  0  0  0  0
    2.1489    0.6791    0.9332 H   0  0  0  0  0  0  0  0  0  0  0  0
    0.0284   -0.7883    1.4592 H   0  0  0  0  0  0  0  0  0  0  0  0
   -1.4480    1.0695    1.4489 H   0  0  0  0  0  0  0  0  0  0  0  0
   -0.7535    3.2290    0.4736 H   0  0  0  0  0  0  0  0  0  0  0  0
    0.7824    2.5518   -0.1050 H   0  0  0  0  0  0  0  0  0  0  0  0
    0.4028    2.6282    1.7059 H   0  0  0  0  0  0  0  0  0  0  0  0
   -2.3809    0.8117   -0.6919 H   0  0  0  0  0  0  0  0  0  0  0  0
   -0.8699    1.3008   -1.5748 H   0  0  0  0  0  0  0  0  0  0  0  0
   -1.6174   -2.0828    0.7824 H   0  0  0  0  0  0  0  0  0  0  0  0
   -1.8047   -2.4248   -0.9779 H   0  0  0  0  0  0  0  0  0  0  0  0
   -2.7737   -1.1354   -0.2442 H   0  0  0  0  0  0  0  0  0  0  0  0
   -0.5287   -1.2763   -2.3940 H   0  0  0  0  0  0  0  0  0  0  0  0
  1  2  1  0
  2  3  1  0
  3  4  1  0
  4  5  1  0
  4  6  1  0
  6  7  1  0
  7  8  1  0
  7  9  1  0
  7  3  1  0
  1 10  1  0
  1 11  1  0
  1 12  1  0
  2 13  1  0
  2 14  1  0
  3 15  1  0
  4 16  1  0
  5 17  1  0
  5 18  1  0
  5 19  1  0
  6 20  1  0
  6 21  1  0
  8 22  1  0
  8 23  1  0
  8 24  1  0
  9 25  1  0
M  END
