
     RDKit          3D

 25 25  0  0  0  0  0  0  0  0999 V2000
    2.6836    0.7557   -0.0190 C   0  0  0  0  0  0  0  0  0  0  0  0
    1.8098   -0.3837   -0.4948 C   0  0  0  0  0  0  0  0  0  0  0  0
    0.4724   -0.2351    0.1917 C   0  0  0  0  0  0  0  0  0  0  0  0
    0.6581   -0.2968    1.5723 O   0  0  0  0  0  0  0  0  0  0  0  0
   -0.1016    1.1004   -0.2044 C   0  0  0  0  0  0  0  0  0  0  0  0
   -1.4737    0.9146   -0.8063 C   0  0  0  0  0  0  0  0  0  0  0  0
   -2.3327    0.2131    0.2333 C   0  0  0  0  0  0  0  0  0  0  0  0
   -1.7561   -1.1049    0.6334 C   0  0  0  0  0  0  0  0  0  0  0  0
   -0.4703   -1.3796   -0.1563 C   0  0  0  0  0  0  0  0  0  0  0  0
    3.6842    0.3976    0.3262 H   0  0  0  0  0  0  0  0  0  0  0  0
    2.2389    1.2899    0.8492 H   0  0  0  0  0  0  0  0  0  0  0  0
    2.8458    1.5271   -0.7994 H   0  0  0  0  0  0  0  0  0  0  0  0
    1.7081   -0.2673   -1.5932 H   0  0  0  0  0  0  0  0  0  0  0  0
    2.2685   -1.3723   -0.3203 H   0  0  0  0  0  0  0  0  0  0  0  0
    1.1563   -1.1594    1.7408 H   0  0  0  0  0  0  0  0  0  0  0  0
   -0.2383    1.7436    0.7006 H   0  0  0  0  0  0  0  0  0  0  0  0
    0.5445    1.6303   -0.9496 H   0  0  0  0  0  0  0  0  0  0  0  0
   -1.4767    0.3479   -1.7372 H   0  0  0  0  0  0  0  0  0  0  0  0
   -1.8922    1.9476   -0.9448 H   0  0  0  0  0  0  0  0  0  0  0  0
   -3.3839    0.1054   -0.1576 H   0  0  0  0  0  0  0  0  0  0  0  0
   -2.4196    0.9275    1.0813 H   0  0  0  0  0  0  0  0  0  0  0  0
   -2.4468   -1.9457    0.6129 H   0  0  0  0  0  0  0  0  0  0  0  0
   -1.4059   -0.9946    1.7013 H   0  0  0  0  0  0  0  0  0  0  0  0
   -0.6581   -1.4585   -1.2267 H   0  0  0  0  0  0  0  0  0  0  0  0
   -0.0144   -2.3027    0.2319 H   0  0  0  0  0  0  0  0  0  0  0  0
  1  2  1  0
  2  3  1  0
  3  4  1  0
  3  5  1  0
  5  6  1  0
  6  7  1  0
  7  8  1  0
  8  9  1  0
  9  3  1  0
  1 10  1  0
  1 11  1  0
  1 12  1  0
  2 13  1  0
  2 14  1  0
  4 15  1  0
  5 16  1  0
  5 17  1  0
  6 18  1  0
  6 19  1  0
  7 20  1  0
  7 21  1  0
  8 22  1  0
  8 23  1  0
  9 24  1  0
  9 25  1  0
M  END
