
     RDKit          3D

 22 23  0  0  0  0  0  0  0  0999 V2000
   -2.5484    0.6514    0.6849 C   0  0  0  0  0  0  0  0  0  0  0  0
   -1.5984    0.6666   -0.5197 C   0  0  0  0  0  0  0  0  0  0  0  0
   -0.5168   -0.3204   -0.2357 C   0  0  0  0  0  0  0  0  0  0  0  0
    0.3105   -0.0837    0.9737 C   0  0  0  0  0  0  0  0  0  0  0  0
    1.5467   -0.4634    0.2145 C   0  0  0  0  0  0  0  0  0  0  0  0
    2.7117    0.4534    0.3018 C   0  0  0  0  0  0  0  0  0  0  0  0
    0.7227   -0.3945   -1.0497 C   0  0  0  0  0  0  0  0  0  0  0  0
   -0.3067   -1.4493   -1.1604 C   0  0  0  0  0  0  0  0  0  0  0  0
   -1.9528    0.9527    1.5782 H   0  0  0  0  0  0  0  0  0  0  0  0
   -3.4191    1.2950    0.5170 H   0  0  0  0  0  0  0  0  0  0  0  0
   -2.8399   -0.4098    0.8416 H   0  0  0  0  0  0  0  0  0  0  0  0
   -2.2127    0.2849   -1.3781 H   0  0  0  0  0  0  0  0  0  0  0  0
   -1.2462    1.6772   -0.7445 H   0  0  0  0  0  0  0  0  0  0  0  0
    0.3641    0.9951    1.2911 H   0  0  0  0  0  0  0  0  0  0  0  0
    0.0233   -0.7443    1.8131 H   0  0  0  0  0  0  0  0  0  0  0  0
    1.8255   -1.5112    0.4400 H   0  0  0  0  0  0  0  0  0  0  0  0
    2.6072    1.4011   -0.2400 H   0  0  0  0  0  0  0  0  0  0  0  0
    3.6123   -0.1141   -0.0742 H   0  0  0  0  0  0  0  0  0  0  0  0
    2.9426    0.6260    1.3912 H   0  0  0  0  0  0  0  0  0  0  0  0
    0.8877    0.3806   -1.7881 H   0  0  0  0  0  0  0  0  0  0  0  0
   -0.0038   -2.4535   -0.7748 H   0  0  0  0  0  0  0  0  0  0  0  0
   -0.9097   -1.4398   -2.0818 H   0  0  0  0  0  0  0  0  0  0  0  0
  1  2  1  0
  2  3  1  0
  3  4  1  0
  4  5  1  0
  5  6  1  0
  5  7  1  0
  7  8  1  0
  7  3  1  0
  8  3  1  0
  1  9  1  0
  1 10  1  0
  1 11  1  0
  2 12  1  0
  2 13  1  0
  4 14  1  0
  4 15  1  0
  5 16  1  0
  6 17  1  0
  6 18  1  0
  6 19  1  0
  7 20  1  0
  8 21  1  0
  8 22  1  0
M  END
