
     RDKit          3D

 25 26  0  0  0  0  0  0  0  0999 V2000
    2.6617   -0.4789   -0.1613 C   0  0  0  0  0  0  0  0  0  0  0  0
    1.3078   -0.8398    0.4226 C   0  0  0  0  0  0  0  0  0  0  0  0
    0.2581    0.1820    0.0560 C   0  0  0  0  0  0  0  0  0  0  0  0
    0.6592    1.5389    0.5838 C   0  0  0  0  0  0  0  0  0  0  0  0
   -0.0533    0.1215   -1.4048 C   0  0  0  0  0  0  0  0  0  0  0  0
   -1.3857   -0.5210   -1.1481 C   0  0  0  0  0  0  0  0  0  0  0  0
   -1.5676   -1.5492   -0.1065 C   0  0  0  0  0  0  0  0  0  0  0  0
   -1.1456   -0.2299    0.3453 C   0  0  0  0  0  0  0  0  0  0  0  0
   -2.1267    0.7795    0.9015 C   0  0  0  0  0  0  0  0  0  0  0  0
    3.1737    0.2062    0.5421 H   0  0  0  0  0  0  0  0  0  0  0  0
    2.5209   -0.0552   -1.1647 H   0  0  0  0  0  0  0  0  0  0  0  0
    3.2600   -1.4034   -0.1992 H   0  0  0  0  0  0  0  0  0  0  0  0
    1.4561   -0.8804    1.5294 H   0  0  0  0  0  0  0  0  0  0  0  0
    1.0757   -1.8693    0.1092 H   0  0  0  0  0  0  0  0  0  0  0  0
   -0.1798    2.2088    0.7517 H   0  0  0  0  0  0  0  0  0  0  0  0
    1.3719    1.9811   -0.1368 H   0  0  0  0  0  0  0  0  0  0  0  0
    1.1829    1.3796    1.5447 H   0  0  0  0  0  0  0  0  0  0  0  0
   -0.1959    1.1567   -1.8085 H   0  0  0  0  0  0  0  0  0  0  0  0
    0.6392   -0.4999   -2.0236 H   0  0  0  0  0  0  0  0  0  0  0  0
   -2.2558   -0.0933   -1.6375 H   0  0  0  0  0  0  0  0  0  0  0  0
   -0.8422   -2.3799   -0.0914 H   0  0  0  0  0  0  0  0  0  0  0  0
   -2.6258   -1.8165    0.1082 H   0  0  0  0  0  0  0  0  0  0  0  0
   -3.1557    0.3688    0.8164 H   0  0  0  0  0  0  0  0  0  0  0  0
   -2.0901    1.6645    0.2267 H   0  0  0  0  0  0  0  0  0  0  0  0
   -1.9428    1.0291    1.9447 H   0  0  0  0  0  0  0  0  0  0  0  0
  1  2  1  0
  2  3  1  0
  3  4  1  0
  3  5  1  0
  5  6  1  0
  6  7  1  0
  7  8  1  0
  8  9  1  0
  8  3  1  0
  8  6  1  0
  1 10  1  0
  1 11  1  0
  1 12  1  0
  2 13  1  0
  2 14  1  0
  4 15  1  0
  4 16  1  0
  4 17  1  0
  5 18  1  0
  5 19  1  0
  6 20  1  0
  7 21  1  0
  7 22  1  0
  9 23  1  0
  9 24  1  0
  9 25  1  0
M  END
