
     RDKit          3D

 23 24  0  0  0  0  0  0  0  0999 V2000
   -2.5354    1.1736   -0.0974 C   0  0  0  0  0  0  0  0  0  0  0  0
   -1.6370   -0.0176    0.0559 C   0  0  0  0  0  0  0  0  0  0  0  0
   -0.4016    0.2667    0.8604 C   0  0  0  0  0  0  0  0  0  0  0  0
    0.5134   -0.9309    1.0213 C   0  0  0  0  0  0  0  0  0  0  0  0
    0.2055   -2.1815    0.2197 C   0  0  0  0  0  0  0  0  0  0  0  0
    0.9380    0.2927    0.3277 C   0  0  0  0  0  0  0  0  0  0  0  0
    1.3339    0.3577   -1.0850 C   0  0  0  0  0  0  0  0  0  0  0  0
    2.4673    1.1779   -0.5019 C   0  0  0  0  0  0  0  0  0  0  0  0
    1.9235    1.1273    0.7755 O   0  0  0  0  0  0  0  0  0  0  0  0
   -1.9876    2.1304   -0.1609 H   0  0  0  0  0  0  0  0  0  0  0  0
   -3.1529    1.0845   -1.0340 H   0  0  0  0  0  0  0  0  0  0  0  0
   -3.2296    1.2545    0.7647 H   0  0  0  0  0  0  0  0  0  0  0  0
   -1.4298   -0.4532   -0.9323 H   0  0  0  0  0  0  0  0  0  0  0  0
   -2.2066   -0.8115    0.6238 H   0  0  0  0  0  0  0  0  0  0  0  0
   -0.6057    0.9020    1.7650 H   0  0  0  0  0  0  0  0  0  0  0  0
    0.7803   -1.1568    2.0738 H   0  0  0  0  0  0  0  0  0  0  0  0
    1.1299   -2.8186    0.2715 H   0  0  0  0  0  0  0  0  0  0  0  0
   -0.6586   -2.7367    0.6477 H   0  0  0  0  0  0  0  0  0  0  0  0
    0.0502   -1.9655   -0.8517 H   0  0  0  0  0  0  0  0  0  0  0  0
    1.7578   -0.5550   -1.5521 H   0  0  0  0  0  0  0  0  0  0  0  0
    0.7130    0.9927   -1.7629 H   0  0  0  0  0  0  0  0  0  0  0  0
    3.4574    0.6766   -0.5027 H   0  0  0  0  0  0  0  0  0  0  0  0
    2.5746    2.1907   -0.9260 H   0  0  0  0  0  0  0  0  0  0  0  0
  1  2  1  0
  2  3  1  0
  3  4  1  0
  4  5  1  0
  4  6  1  0
  6  7  1  0
  7  8  1  0
  8  9  1  0
  6  3  1  0
  9  6  1  0
  1 10  1  0
  1 11  1  0
  1 12  1  0
  2 13  1  0
  2 14  1  0
  3 15  1  0
  4 16  1  0
  5 17  1  0
  5 18  1  0
  5 19  1  0
  7 20  1  0
  7 21  1  0
  8 22  1  0
  8 23  1  0
M  END
