
     RDKit          3D

 19 19  0  0  0  0  0  0  0  0999 V2000
   -2.3463    0.1656    0.1245 C   0  0  0  0  0  0  0  0  0  0  0  0
   -1.2619   -0.8087   -0.3526 C   0  0  0  0  0  0  0  0  0  0  0  0
    0.0213   -0.3151    0.2423 C   0  0  0  0  0  0  0  0  0  0  0  0
    0.3681    1.0881   -0.1951 C   0  0  0  0  0  0  0  0  0  0  0  0
    1.7599    1.1942    0.3194 C   0  0  0  0  0  0  0  0  0  0  0  0
    2.3129    2.2521    0.7064 O   0  0  0  0  0  0  0  0  0  0  0  0
    2.3152   -0.1550    0.2747 C   0  0  0  0  0  0  0  0  0  0  0  0
    3.5007   -0.4365    0.5862 O   0  0  0  0  0  0  0  0  0  0  0  0
    1.2358   -1.0761   -0.1934 C   0  0  0  0  0  0  0  0  0  0  0  0
   -2.1589    1.1879   -0.2726 H   0  0  0  0  0  0  0  0  0  0  0  0
   -2.3752    0.2462    1.2134 H   0  0  0  0  0  0  0  0  0  0  0  0
   -3.3292   -0.1538   -0.3170 H   0  0  0  0  0  0  0  0  0  0  0  0
   -1.5518   -1.8110    0.0145 H   0  0  0  0  0  0  0  0  0  0  0  0
   -1.2628   -0.8298   -1.4437 H   0  0  0  0  0  0  0  0  0  0  0  0
    0.0014   -0.3224    1.3501 H   0  0  0  0  0  0  0  0  0  0  0  0
    0.4299    1.1830   -1.2982 H   0  0  0  0  0  0  0  0  0  0  0  0
   -0.2980    1.8528    0.2461 H   0  0  0  0  0  0  0  0  0  0  0  0
    1.3248   -1.1866   -1.2746 H   0  0  0  0  0  0  0  0  0  0  0  0
    1.3139   -2.0748    0.2696 H   0  0  0  0  0  0  0  0  0  0  0  0
  1  2  1  0
  2  3  1  0
  3  4  1  0
  4  5  1  0
  5  6  2  0
  5  7  1  0
  7  8  2  0
  7  9  1  0
  9  3  1  0
  1 10  1  0
  1 11  1  0
  1 12  1  0
  2 13  1  0
  2 14  1  0
  3 15  1  0
  4 16  1  0
  4 17  1  0
  9 18  1  0
  9 19  1  0
M  END
