
     RDKit          3D

 23 24  0  0  0  0  0  0  0  0999 V2000
    2.2233   -1.0493   -0.1703 C   0  0  0  0  0  0  0  0  0  0  0  0
    1.4556   -0.3091    0.8457 C   0  0  0  0  0  0  0  0  0  0  0  0
    0.3168    0.5034    0.3771 C   0  0  0  0  0  0  0  0  0  0  0  0
    0.6870    1.5934   -0.6058 C   0  0  0  0  0  0  0  0  0  0  0  0
   -0.4826    1.1749   -1.4933 C   0  0  0  0  0  0  0  0  0  0  0  0
   -0.6573   -0.0138   -0.5847 C   0  0  0  0  0  0  0  0  0  0  0  0
   -1.6945    0.2498    0.4580 C   0  0  0  0  0  0  0  0  0  0  0  0
   -2.2695   -1.0412    0.9796 C   0  0  0  0  0  0  0  0  0  0  0  0
   -0.6834    0.7942    1.2679 O   0  0  0  0  0  0  0  0  0  0  0  0
    2.9726   -0.3672   -0.6558 H   0  0  0  0  0  0  0  0  0  0  0  0
    1.6328   -1.5109   -0.9790 H   0  0  0  0  0  0  0  0  0  0  0  0
    2.8165   -1.8572    0.3068 H   0  0  0  0  0  0  0  0  0  0  0  0
    2.1490    0.3439    1.4190 H   0  0  0  0  0  0  0  0  0  0  0  0
    1.0622   -1.0427    1.6102 H   0  0  0  0  0  0  0  0  0  0  0  0
    0.6156    2.6058   -0.1905 H   0  0  0  0  0  0  0  0  0  0  0  0
    1.6261    1.3311   -1.1126 H   0  0  0  0  0  0  0  0  0  0  0  0
   -0.2047    0.8474   -2.5050 H   0  0  0  0  0  0  0  0  0  0  0  0
   -1.3294    1.9018   -1.4412 H   0  0  0  0  0  0  0  0  0  0  0  0
   -0.5814   -0.9952   -1.0095 H   0  0  0  0  0  0  0  0  0  0  0  0
   -2.4605    1.0187    0.1795 H   0  0  0  0  0  0  0  0  0  0  0  0
   -2.1944   -1.1045    2.0906 H   0  0  0  0  0  0  0  0  0  0  0  0
   -1.7018   -1.9358    0.6002 H   0  0  0  0  0  0  0  0  0  0  0  0
   -3.2980   -1.1375    0.6131 H   0  0  0  0  0  0  0  0  0  0  0  0
  1  2  1  0
  2  3  1  0
  3  4  1  0
  4  5  1  0
  5  6  1  0
  6  7  1  0
  7  8  1  0
  7  9  1  0
  6  3  1  0
  9  3  1  0
  1 10  1  0
  1 11  1  0
  1 12  1  0
  2 13  1  0
  2 14  1  0
  4 15  1  0
  4 16  1  0
  5 17  1  0
  5 18  1  0
  6 19  1  0
  7 20  1  0
  8 21  1  0
  8 22  1  0
  8 23  1  0
M  END
