
     RDKit          3D

 25 25  0  0  0  0  0  0  0  0999 V2000
   -2.6264    0.7199   -0.1123 C   0  0  0  0  0  0  0  0  0  0  0  0
   -1.6422    0.0074    0.7744 C   0  0  0  0  0  0  0  0  0  0  0  0
   -0.3565   -0.3449    0.0608 C   0  0  0  0  0  0  0  0  0  0  0  0
   -0.6068   -1.2549   -1.1255 C   0  0  0  0  0  0  0  0  0  0  0  0
    0.5166   -0.9868    1.0573 C   0  0  0  0  0  0  0  0  0  0  0  0
    1.7747   -0.6781    1.2234 C   0  0  0  0  0  0  0  0  0  0  0  0
    2.4846    0.3442    0.4444 C   0  0  0  0  0  0  0  0  0  0  0  0
    1.7286    0.6742   -0.7952 C   0  0  0  0  0  0  0  0  0  0  0  0
    0.2728    0.9289   -0.4322 C   0  0  0  0  0  0  0  0  0  0  0  0
   -2.8078    0.1227   -1.0232 H   0  0  0  0  0  0  0  0  0  0  0  0
   -2.2096    1.7252   -0.3267 H   0  0  0  0  0  0  0  0  0  0  0  0
   -3.5478    0.8731    0.4877 H   0  0  0  0  0  0  0  0  0  0  0  0
   -1.3809    0.6819    1.6149 H   0  0  0  0  0  0  0  0  0  0  0  0
   -2.0995   -0.8992    1.2198 H   0  0  0  0  0  0  0  0  0  0  0  0
    0.3661   -1.6766   -1.4181 H   0  0  0  0  0  0  0  0  0  0  0  0
   -1.0299   -0.6939   -1.9595 H   0  0  0  0  0  0  0  0  0  0  0  0
   -1.3285   -2.0588   -0.8646 H   0  0  0  0  0  0  0  0  0  0  0  0
    0.0706   -1.7865    1.7091 H   0  0  0  0  0  0  0  0  0  0  0  0
    2.3916   -1.2026    2.0011 H   0  0  0  0  0  0  0  0  0  0  0  0
    2.6013    1.2302    1.1199 H   0  0  0  0  0  0  0  0  0  0  0  0
    3.5047   -0.0838    0.2015 H   0  0  0  0  0  0  0  0  0  0  0  0
    1.7775   -0.2045   -1.4718 H   0  0  0  0  0  0  0  0  0  0  0  0
    2.1359    1.5295   -1.3586 H   0  0  0  0  0  0  0  0  0  0  0  0
    0.2470    1.7348    0.3358 H   0  0  0  0  0  0  0  0  0  0  0  0
   -0.2361    1.2988   -1.3625 H   0  0  0  0  0  0  0  0  0  0  0  0
  1  2  1  0
  2  3  1  0
  3  4  1  0
  3  5  1  0
  5  6  2  0
  6  7  1  0
  7  8  1  0
  8  9  1  0
  9  3  1  0
  1 10  1  0
  1 11  1  0
  1 12  1  0
  2 13  1  0
  2 14  1  0
  4 15  1  0
  4 16  1  0
  4 17  1  0
  5 18  1  0
  6 19  1  0
  7 20  1  0
  7 21  1  0
  8 22  1  0
  8 23  1  0
  9 24  1  0
  9 25  1  0
M  END
