
     RDKit          3D

 23 24  0  0  0  0  0  0  0  0999 V2000
    2.6935    0.0664    0.2211 C   0  0  0  0  0  0  0  0  0  0  0  0
    1.5611   -0.8188   -0.3090 C   0  0  0  0  0  0  0  0  0  0  0  0
    0.2784   -0.1744    0.0853 C   0  0  0  0  0  0  0  0  0  0  0  0
   -0.9888   -0.8400   -0.3116 C   0  0  0  0  0  0  0  0  0  0  0  0
   -1.6157   -1.5746    0.8295 C   0  0  0  0  0  0  0  0  0  0  0  0
   -1.5908    0.4477   -0.7181 C   0  0  0  0  0  0  0  0  0  0  0  0
   -1.3119    1.7432   -0.1150 C   0  0  0  0  0  0  0  0  0  0  0  0
   -1.2094    1.9051    1.2854 O   0  0  0  0  0  0  0  0  0  0  0  0
   -0.1414    1.0354   -0.6991 C   0  0  0  0  0  0  0  0  0  0  0  0
    3.5010   -0.5262    0.6668 H   0  0  0  0  0  0  0  0  0  0  0  0
    3.0499    0.7235   -0.6146 H   0  0  0  0  0  0  0  0  0  0  0  0
    2.3156    0.7450    1.0130 H   0  0  0  0  0  0  0  0  0  0  0  0
    1.6643   -1.0454   -1.3670 H   0  0  0  0  0  0  0  0  0  0  0  0
    1.6309   -1.7851    0.2571 H   0  0  0  0  0  0  0  0  0  0  0  0
    0.2800    0.0657    1.1705 H   0  0  0  0  0  0  0  0  0  0  0  0
   -0.7986   -1.5252   -1.1886 H   0  0  0  0  0  0  0  0  0  0  0  0
   -1.3010   -1.1847    1.8143 H   0  0  0  0  0  0  0  0  0  0  0  0
   -1.2944   -2.6526    0.7535 H   0  0  0  0  0  0  0  0  0  0  0  0
   -2.7233   -1.5972    0.7937 H   0  0  0  0  0  0  0  0  0  0  0  0
   -2.0927    0.4471   -1.7105 H   0  0  0  0  0  0  0  0  0  0  0  0
   -1.6713    2.6387   -0.6142 H   0  0  0  0  0  0  0  0  0  0  0  0
   -0.5208    2.6293    1.3997 H   0  0  0  0  0  0  0  0  0  0  0  0
    0.2853    1.2772   -1.6662 H   0  0  0  0  0  0  0  0  0  0  0  0
  1  2  1  0
  2  3  1  0
  3  4  1  0
  4  5  1  0
  4  6  1  0
  6  7  1  0
  7  8  1  0
  7  9  1  0
  9  3  1  0
  9  6  1  0
  1 10  1  0
  1 11  1  0
  1 12  1  0
  2 13  1  0
  2 14  1  0
  3 15  1  0
  4 16  1  0
  5 17  1  0
  5 18  1  0
  5 19  1  0
  6 20  1  0
  7 21  1  0
  8 22  1  0
  9 23  1  0
M  END
