
     RDKit          3D

 20 20  0  0  0  0  0  0  0  0999 V2000
    2.9673    0.4538    0.1094 C   0  0  0  0  0  0  0  0  0  0  0  0
    1.9473   -0.2539   -0.7175 C   0  0  0  0  0  0  0  0  0  0  0  0
    0.5268    0.2090   -0.4070 C   0  0  0  0  0  0  0  0  0  0  0  0
    0.1742   -0.0259    0.9883 O   0  0  0  0  0  0  0  0  0  0  0  0
   -0.4371   -0.7949   -0.0802 C   0  0  0  0  0  0  0  0  0  0  0  0
   -1.9354   -0.6109   -0.1823 C   0  0  0  0  0  0  0  0  0  0  0  0
   -2.3540    0.8128   -0.3225 C   0  0  0  0  0  0  0  0  0  0  0  0
   -2.4703   -1.3680   -1.2199 O   0  0  0  0  0  0  0  0  0  0  0  0
    3.7845   -0.2932    0.3306 H   0  0  0  0  0  0  0  0  0  0  0  0
    3.4146    1.2717   -0.4574 H   0  0  0  0  0  0  0  0  0  0  0  0
    2.5501    0.7819    1.0970 H   0  0  0  0  0  0  0  0  0  0  0  0
    2.0196   -1.3549   -0.6134 H   0  0  0  0  0  0  0  0  0  0  0  0
    2.1244   -0.0149   -1.7853 H   0  0  0  0  0  0  0  0  0  0  0  0
    0.3298    1.2296   -0.7269 H   0  0  0  0  0  0  0  0  0  0  0  0
   -0.1327   -1.8643   -0.1149 H   0  0  0  0  0  0  0  0  0  0  0  0
   -2.3863   -1.0200    0.7616 H   0  0  0  0  0  0  0  0  0  0  0  0
   -2.6929    1.0430   -1.3665 H   0  0  0  0  0  0  0  0  0  0  0  0
   -3.2588    1.0113    0.3175 H   0  0  0  0  0  0  0  0  0  0  0  0
   -1.5580    1.5325   -0.0164 H   0  0  0  0  0  0  0  0  0  0  0  0
   -2.6130   -0.7448   -1.9928 H   0  0  0  0  0  0  0  0  0  0  0  0
  1  2  1  0
  2  3  1  0
  3  4  1  0
  4  5  1  0
  5  6  1  0
  6  7  1  0
  6  8  1  0
  5  3  1  0
  1  9  1  0
  1 10  1  0
  1 11  1  0
  2 12  1  0
  2 13  1  0
  3 14  1  0
  5 15  1  0
  6 16  1  0
  7 17  1  0
  7 18  1  0
  7 19  1  0
  8 20  1  0
M  END
