
     RDKit          3D

 19 19  0  0  0  0  0  0  0  0999 V2000
    2.8518    0.2808   -0.1587 C   0  0  0  0  0  0  0  0  0  0  0  0
    1.7299   -0.5780   -0.7194 C   0  0  0  0  0  0  0  0  0  0  0  0
    0.5773   -0.4822    0.2438 C   0  0  0  0  0  0  0  0  0  0  0  0
   -0.5557   -1.2149   -0.1106 O   0  0  0  0  0  0  0  0  0  0  0  0
   -1.3085   -0.2168    0.4835 C   0  0  0  0  0  0  0  0  0  0  0  0
   -2.6610    0.0340   -0.1030 C   0  0  0  0  0  0  0  0  0  0  0  0
   -2.6260    0.4069   -1.4355 O   0  0  0  0  0  0  0  0  0  0  0  0
   -0.2470    0.7458    0.1156 C   0  0  0  0  0  0  0  0  0  0  0  0
   -0.2231    1.9194   -0.1340 O   0  0  0  0  0  0  0  0  0  0  0  0
    2.4932    0.9316    0.6755 H   0  0  0  0  0  0  0  0  0  0  0  0
    3.6903   -0.3410    0.2398 H   0  0  0  0  0  0  0  0  0  0  0  0
    3.2908    0.9511   -0.9238 H   0  0  0  0  0  0  0  0  0  0  0  0
    1.4351   -0.2092   -1.7173 H   0  0  0  0  0  0  0  0  0  0  0  0
    2.0828   -1.6272   -0.7747 H   0  0  0  0  0  0  0  0  0  0  0  0
    0.8334   -0.6679    1.2854 H   0  0  0  0  0  0  0  0  0  0  0  0
   -1.3829   -0.2742    1.5986 H   0  0  0  0  0  0  0  0  0  0  0  0
   -3.1213    0.8718    0.4590 H   0  0  0  0  0  0  0  0  0  0  0  0
   -3.2870   -0.8565    0.0928 H   0  0  0  0  0  0  0  0  0  0  0  0
   -3.5723    0.3265   -1.7747 H   0  0  0  0  0  0  0  0  0  0  0  0
  1  2  1  0
  2  3  1  0
  3  4  1  0
  4  5  1  0
  5  6  1  0
  6  7  1  0
  5  8  1  0
  8  9  2  0
  8  3  1  0
  1 10  1  0
  1 11  1  0
  1 12  1  0
  2 13  1  0
  2 14  1  0
  3 15  1  0
  5 16  1  0
  6 17  1  0
  6 18  1  0
  7 19  1  0
M  END
