
     RDKit          3D

 21 21  0  0  0  0  0  0  0  0999 V2000
    2.8073    0.3245   -0.1295 C   0  0  0  0  0  0  0  0  0  0  0  0
    1.6592   -0.6017   -0.4908 C   0  0  0  0  0  0  0  0  0  0  0  0
    0.4135    0.2249   -0.4507 C   0  0  0  0  0  0  0  0  0  0  0  0
   -0.8737   -0.5219   -0.7870 C   0  0  0  0  0  0  0  0  0  0  0  0
   -1.5236    0.4327    0.2284 C   0  0  0  0  0  0  0  0  0  0  0  0
   -2.6784   -0.1306    0.9705 C   0  0  0  0  0  0  0  0  0  0  0  0
   -0.1755    0.3600    0.9571 C   0  0  0  0  0  0  0  0  0  0  0  0
    2.6832    0.7566    0.8833 H   0  0  0  0  0  0  0  0  0  0  0  0
    2.7576    1.1847   -0.8345 H   0  0  0  0  0  0  0  0  0  0  0  0
    3.7836   -0.1941   -0.2146 H   0  0  0  0  0  0  0  0  0  0  0  0
    1.8687   -1.0177   -1.4793 H   0  0  0  0  0  0  0  0  0  0  0  0
    1.5922   -1.4214    0.2748 H   0  0  0  0  0  0  0  0  0  0  0  0
    0.4616    1.1551   -1.0196 H   0  0  0  0  0  0  0  0  0  0  0  0
   -0.8195   -1.5528   -0.4053 H   0  0  0  0  0  0  0  0  0  0  0  0
   -1.2290   -0.3868   -1.8203 H   0  0  0  0  0  0  0  0  0  0  0  0
   -1.6962    1.4103   -0.2823 H   0  0  0  0  0  0  0  0  0  0  0  0
   -2.6357    0.1712    2.0512 H   0  0  0  0  0  0  0  0  0  0  0  0
   -2.7889   -1.2215    0.9218 H   0  0  0  0  0  0  0  0  0  0  0  0
   -3.6086    0.3788    0.5842 H   0  0  0  0  0  0  0  0  0  0  0  0
   -0.1067   -0.6035    1.4721 H   0  0  0  0  0  0  0  0  0  0  0  0
    0.1090    1.2530    1.5006 H   0  0  0  0  0  0  0  0  0  0  0  0
  1  2  1  0
  2  3  1  0
  3  4  1  0
  4  5  1  0
  5  6  1  0
  5  7  1  0
  7  3  1  0
  1  8  1  0
  1  9  1  0
  1 10  1  0
  2 11  1  0
  2 12  1  0
  3 13  1  0
  4 14  1  0
  4 15  1  0
  5 16  1  0
  6 17  1  0
  6 18  1  0
  6 19  1  0
  7 20  1  0
  7 21  1  0
M  END
