
     RDKit          3D

 21 22  0  0  0  0  0  0  0  0999 V2000
    1.9312   -0.8148    0.3357 C   0  0  0  0  0  0  0  0  0  0  0  0
    1.3862    0.0798   -0.7198 C   0  0  0  0  0  0  0  0  0  0  0  0
   -0.0095    0.5565   -0.4812 C   0  0  0  0  0  0  0  0  0  0  0  0
   -0.4400    1.3830   -1.5095 O   0  0  0  0  0  0  0  0  0  0  0  0
   -0.0957    1.3227    0.8363 C   0  0  0  0  0  0  0  0  0  0  0  0
   -1.3756    0.5739    1.1150 C   0  0  0  0  0  0  0  0  0  0  0  0
   -1.0045   -0.3932    0.0342 C   0  0  0  0  0  0  0  0  0  0  0  0
   -1.8574   -1.2753   -0.5479 C   0  0  0  0  0  0  0  0  0  0  0  0
   -0.7262   -1.7101    0.3153 O   0  0  0  0  0  0  0  0  0  0  0  0
    1.8559   -1.8663   -0.0381 H   0  0  0  0  0  0  0  0  0  0  0  0
    3.0105   -0.5672    0.5456 H   0  0  0  0  0  0  0  0  0  0  0  0
    1.4119   -0.7732    1.2961 H   0  0  0  0  0  0  0  0  0  0  0  0
    1.4879   -0.3815   -1.7248 H   0  0  0  0  0  0  0  0  0  0  0  0
    2.0406    0.9958   -0.7566 H   0  0  0  0  0  0  0  0  0  0  0  0
    0.2213    1.5058   -2.2271 H   0  0  0  0  0  0  0  0  0  0  0  0
    0.7116    1.1264    1.5454 H   0  0  0  0  0  0  0  0  0  0  0  0
   -0.2937    2.4032    0.7305 H   0  0  0  0  0  0  0  0  0  0  0  0
   -1.4222    0.0552    2.0920 H   0  0  0  0  0  0  0  0  0  0  0  0
   -2.3086    1.1155    0.8300 H   0  0  0  0  0  0  0  0  0  0  0  0
   -2.8435   -1.5652   -0.1292 H   0  0  0  0  0  0  0  0  0  0  0  0
   -1.6800   -1.7711   -1.5419 H   0  0  0  0  0  0  0  0  0  0  0  0
  1  2  1  0
  2  3  1  0
  3  4  1  0
  3  5  1  0
  5  6  1  0
  6  7  1  0
  7  8  1  0
  8  9  1  0
  7  3  1  0
  9  7  1  0
  1 10  1  0
  1 11  1  0
  1 12  1  0
  2 13  1  0
  2 14  1  0
  4 15  1  0
  5 16  1  0
  5 17  1  0
  6 18  1  0
  6 19  1  0
  8 20  1  0
  8 21  1  0
M  END
