
     RDKit          3D

 24 24  0  0  0  0  0  0  0  0999 V2000
   -2.3446   -0.5475   -0.9048 C   0  0  0  0  0  0  0  0  0  0  0  0
   -1.3830   -0.7614    0.2202 C   0  0  0  0  0  0  0  0  0  0  0  0
   -0.3601    0.3455    0.3488 C   0  0  0  0  0  0  0  0  0  0  0  0
   -0.9584    1.6856    0.5953 C   0  0  0  0  0  0  0  0  0  0  0  0
    0.7278   -0.0920    1.3053 C   0  0  0  0  0  0  0  0  0  0  0  0
    1.7347    0.2060    0.2484 C   0  0  0  0  0  0  0  0  0  0  0  0
    2.5886   -0.9796   -0.1469 C   0  0  0  0  0  0  0  0  0  0  0  0
    0.6442    0.4056   -0.7802 C   0  0  0  0  0  0  0  0  0  0  0  0
   -2.4130   -1.4843   -1.5323 H   0  0  0  0  0  0  0  0  0  0  0  0
   -3.3973   -0.3769   -0.5601 H   0  0  0  0  0  0  0  0  0  0  0  0
   -2.0673    0.3211   -1.5411 H   0  0  0  0  0  0  0  0  0  0  0  0
   -0.9158   -1.7567    0.2032 H   0  0  0  0  0  0  0  0  0  0  0  0
   -1.9856   -0.7285    1.1715 H   0  0  0  0  0  0  0  0  0  0  0  0
   -1.2105    2.1630   -0.3720 H   0  0  0  0  0  0  0  0  0  0  0  0
   -0.1545    2.3337    1.0493 H   0  0  0  0  0  0  0  0  0  0  0  0
   -1.8114    1.6491    1.3026 H   0  0  0  0  0  0  0  0  0  0  0  0
    0.7257   -1.1749    1.5457 H   0  0  0  0  0  0  0  0  0  0  0  0
    0.7376    0.5077    2.2162 H   0  0  0  0  0  0  0  0  0  0  0  0
    2.3092    1.1240    0.5120 H   0  0  0  0  0  0  0  0  0  0  0  0
    3.3461   -0.6278   -0.8593 H   0  0  0  0  0  0  0  0  0  0  0  0
    1.9090   -1.7206   -0.6460 H   0  0  0  0  0  0  0  0  0  0  0  0
    3.0069   -1.5137    0.7314 H   0  0  0  0  0  0  0  0  0  0  0  0
    0.7675    1.4271   -1.2331 H   0  0  0  0  0  0  0  0  0  0  0  0
    0.5042   -0.4048   -1.5000 H   0  0  0  0  0  0  0  0  0  0  0  0
  1  2  1  0
  2  3  1  0
  3  4  1  0
  3  5  1  0
  5  6  1  0
  6  7  1  0
  6  8  1  0
  8  3  1  0
  1  9  1  0
  1 10  1  0
  1 11  1  0
  2 12  1  0
  2 13  1  0
  4 14  1  0
  4 15  1  0
  4 16  1  0
  5 17  1  0
  5 18  1  0
  6 19  1  0
  7 20  1  0
  7 21  1  0
  7 22  1  0
  8 23  1  0
  8 24  1  0
M  END
