
     RDKit          3D

 21 22  0  0  0  0  0  0  0  0999 V2000
    2.9594   -0.3516   -0.3080 C   0  0  0  0  0  0  0  0  0  0  0  0
    1.8177    0.6077   -0.2250 C   0  0  0  0  0  0  0  0  0  0  0  0
    0.5309    0.0337   -0.8245 C   0  0  0  0  0  0  0  0  0  0  0  0
    0.0308   -1.2038   -0.1866 C   0  0  0  0  0  0  0  0  0  0  0  0
   -0.6759    0.1383   -0.0017 C   0  0  0  0  0  0  0  0  0  0  0  0
   -0.5599    0.7605    1.2393 O   0  0  0  0  0  0  0  0  0  0  0  0
   -2.0613    0.1661   -0.5739 C   0  0  0  0  0  0  0  0  0  0  0  0
   -3.1160    0.8547    0.1160 C   0  0  0  0  0  0  0  0  0  0  0  0
   -2.9692   -0.5475    0.3965 O   0  0  0  0  0  0  0  0  0  0  0  0
    3.0265   -0.9199    0.6511 H   0  0  0  0  0  0  0  0  0  0  0  0
    2.7506   -1.0827   -1.1231 H   0  0  0  0  0  0  0  0  0  0  0  0
    3.9118    0.1570   -0.5378 H   0  0  0  0  0  0  0  0  0  0  0  0
    1.6640    0.8770    0.8448 H   0  0  0  0  0  0  0  0  0  0  0  0
    2.1164    1.5380   -0.7711 H   0  0  0  0  0  0  0  0  0  0  0  0
    0.5170    0.1119   -1.9232 H   0  0  0  0  0  0  0  0  0  0  0  0
    0.4710   -1.6383    0.7102 H   0  0  0  0  0  0  0  0  0  0  0  0
   -0.4304   -1.9507   -0.8702 H   0  0  0  0  0  0  0  0  0  0  0  0
   -0.8511    0.1649    1.9499 H   0  0  0  0  0  0  0  0  0  0  0  0
   -2.2300   -0.3176   -1.5435 H   0  0  0  0  0  0  0  0  0  0  0  0
   -2.8514    1.4495    1.0223 H   0  0  0  0  0  0  0  0  0  0  0  0
   -4.0512    1.1529   -0.3615 H   0  0  0  0  0  0  0  0  0  0  0  0
  1  2  1  0
  2  3  1  0
  3  4  1  0
  4  5  1  0
  5  6  1  0
  5  7  1  0
  7  8  1  0
  8  9  1  0
  5  3  1  0
  9  7  1  0
  1 10  1  0
  1 11  1  0
  1 12  1  0
  2 13  1  0
  2 14  1  0
  3 15  1  0
  4 16  1  0
  4 17  1  0
  6 18  1  0
  7 19  1  0
  8 20  1  0
  8 21  1  0
M  END
