
     RDKit          3D

 21 21  0  0  0  0  0  0  0  0999 V2000
    2.2864    0.6276   -0.2891 C   0  0  0  0  0  0  0  0  0  0  0  0
    1.1890   -0.2939   -0.7726 C   0  0  0  0  0  0  0  0  0  0  0  0
   -0.0217   -0.2487    0.1317 C   0  0  0  0  0  0  0  0  0  0  0  0
    0.3775   -0.6648    1.4831 C   0  0  0  0  0  0  0  0  0  0  0  0
    0.4637   -1.8243    1.8595 O   0  0  0  0  0  0  0  0  0  0  0  0
   -1.0919   -1.1263   -0.4730 C   0  0  0  0  0  0  0  0  0  0  0  0
   -2.3692   -0.3850   -0.2173 C   0  0  0  0  0  0  0  0  0  0  0  0
   -2.1043    0.8613    0.1536 C   0  0  0  0  0  0  0  0  0  0  0  0
   -0.6415    1.1113    0.1936 C   0  0  0  0  0  0  0  0  0  0  0  0
    1.9148    1.5980    0.0582 H   0  0  0  0  0  0  0  0  0  0  0  0
    3.0140    0.7246   -1.1282 H   0  0  0  0  0  0  0  0  0  0  0  0
    2.8390    0.0662    0.5122 H   0  0  0  0  0  0  0  0  0  0  0  0
    1.6106   -1.3192   -0.7743 H   0  0  0  0  0  0  0  0  0  0  0  0
    0.9275   -0.0623   -1.8318 H   0  0  0  0  0  0  0  0  0  0  0  0
    0.6163    0.0993    2.2110 H   0  0  0  0  0  0  0  0  0  0  0  0
   -0.9702   -1.1752   -1.5731 H   0  0  0  0  0  0  0  0  0  0  0  0
   -1.1090   -2.1391   -0.0757 H   0  0  0  0  0  0  0  0  0  0  0  0
   -3.3367   -0.8816   -0.3441 H   0  0  0  0  0  0  0  0  0  0  0  0
   -2.8605    1.6021    0.3965 H   0  0  0  0  0  0  0  0  0  0  0  0
   -0.3982    1.6633    1.1260 H   0  0  0  0  0  0  0  0  0  0  0  0
   -0.3354    1.7667   -0.6460 H   0  0  0  0  0  0  0  0  0  0  0  0
  1  2  1  0
  2  3  1  0
  3  4  1  0
  4  5  2  0
  3  6  1  0
  6  7  1  0
  7  8  2  0
  8  9  1  0
  9  3  1  0
  1 10  1  0
  1 11  1  0
  1 12  1  0
  2 13  1  0
  2 14  1  0
  4 15  1  0
  6 16  1  0
  6 17  1  0
  7 18  1  0
  8 19  1  0
  9 20  1  0
  9 21  1  0
M  END
