
     RDKit          3D

 23 24  0  0  0  0  0  0  0  0999 V2000
   -2.3356    0.7721   -0.4065 C   0  0  0  0  0  0  0  0  0  0  0  0
   -0.9999    1.1680    0.1587 C   0  0  0  0  0  0  0  0  0  0  0  0
   -0.0148    0.0160    0.1499 C   0  0  0  0  0  0  0  0  0  0  0  0
   -0.4395   -1.1772    0.9420 C   0  0  0  0  0  0  0  0  0  0  0  0
   -1.6209   -1.7462    0.5190 O   0  0  0  0  0  0  0  0  0  0  0  0
    0.5807   -0.2558   -1.2006 C   0  0  0  0  0  0  0  0  0  0  0  0
    1.9217    0.2407   -0.7182 C   0  0  0  0  0  0  0  0  0  0  0  0
    2.5296   -0.3892    0.4754 C   0  0  0  0  0  0  0  0  0  0  0  0
    1.3419    0.4953    0.6223 C   0  0  0  0  0  0  0  0  0  0  0  0
   -2.1989    0.1929   -1.3417 H   0  0  0  0  0  0  0  0  0  0  0  0
   -2.9276    0.1865    0.3307 H   0  0  0  0  0  0  0  0  0  0  0  0
   -2.9249    1.6594   -0.6612 H   0  0  0  0  0  0  0  0  0  0  0  0
   -0.5839    2.0044   -0.4362 H   0  0  0  0  0  0  0  0  0  0  0  0
   -1.1419    1.4619    1.2137 H   0  0  0  0  0  0  0  0  0  0  0  0
   -0.6134   -0.8231    1.9971 H   0  0  0  0  0  0  0  0  0  0  0  0
    0.4064   -1.8843    1.0046 H   0  0  0  0  0  0  0  0  0  0  0  0
   -1.6196   -2.0522   -0.4065 H   0  0  0  0  0  0  0  0  0  0  0  0
    0.2325    0.3588   -2.0363 H   0  0  0  0  0  0  0  0  0  0  0  0
    0.6660   -1.3443   -1.4706 H   0  0  0  0  0  0  0  0  0  0  0  0
    2.4103    1.0968   -1.2090 H   0  0  0  0  0  0  0  0  0  0  0  0
    3.4784    0.0314    0.8165 H   0  0  0  0  0  0  0  0  0  0  0  0
    2.4234   -1.4918    0.5415 H   0  0  0  0  0  0  0  0  0  0  0  0
    1.4300    1.4800    1.1154 H   0  0  0  0  0  0  0  0  0  0  0  0
  1  2  1  0
  2  3  1  0
  3  4  1  0
  4  5  1  0
  3  6  1  0
  6  7  1  0
  7  8  1  0
  8  9  1  0
  9  3  1  0
  9  7  1  0
  1 10  1  0
  1 11  1  0
  1 12  1  0
  2 13  1  0
  2 14  1  0
  4 15  1  0
  4 16  1  0
  5 17  1  0
  6 18  1  0
  6 19  1  0
  7 20  1  0
  8 21  1  0
  8 22  1  0
  9 23  1  0
M  END
