
     RDKit          3D

 19 19  0  0  0  0  0  0  0  0999 V2000
    2.3980    0.2215    0.2113 C   0  0  0  0  0  0  0  0  0  0  0  0
    1.1481    0.2027   -0.6178 C   0  0  0  0  0  0  0  0  0  0  0  0
    0.0914   -0.7219   -0.0112 C   0  0  0  0  0  0  0  0  0  0  0  0
   -1.1541   -0.7302   -0.8525 C   0  0  0  0  0  0  0  0  0  0  0  0
   -2.1205    0.2316   -0.2238 C   0  0  0  0  0  0  0  0  0  0  0  0
   -1.4037    0.8357    0.9159 C   0  0  0  0  0  0  0  0  0  0  0  0
   -1.6634    1.9517    1.4946 O   0  0  0  0  0  0  0  0  0  0  0  0
   -0.3387   -0.0938    1.2523 C   0  0  0  0  0  0  0  0  0  0  0  0
    0.1327   -0.3261    2.3897 O   0  0  0  0  0  0  0  0  0  0  0  0
    2.6746   -0.8409    0.4613 H   0  0  0  0  0  0  0  0  0  0  0  0
    2.3078    0.8438    1.1201 H   0  0  0  0  0  0  0  0  0  0  0  0
    3.2303    0.6332   -0.3829 H   0  0  0  0  0  0  0  0  0  0  0  0
    0.7809    1.2322   -0.7032 H   0  0  0  0  0  0  0  0  0  0  0  0
    1.4122   -0.1220   -1.6582 H   0  0  0  0  0  0  0  0  0  0  0  0
    0.4644   -1.7434    0.0975 H   0  0  0  0  0  0  0  0  0  0  0  0
   -0.9065   -0.4710   -1.9098 H   0  0  0  0  0  0  0  0  0  0  0  0
   -1.5890   -1.7679   -0.8332 H   0  0  0  0  0  0  0  0  0  0  0  0
   -2.9927   -0.3236    0.2048 H   0  0  0  0  0  0  0  0  0  0  0  0
   -2.4717    0.9885   -0.9548 H   0  0  0  0  0  0  0  0  0  0  0  0
  1  2  1  0
  2  3  1  0
  3  4  1  0
  4  5  1  0
  5  6  1  0
  6  7  2  0
  6  8  1  0
  8  9  2  0
  8  3  1  0
  1 10  1  0
  1 11  1  0
  1 12  1  0
  2 13  1  0
  2 14  1  0
  3 15  1  0
  4 16  1  0
  4 17  1  0
  5 18  1  0
  5 19  1  0
M  END
