
     RDKit          3D

 21 22  0  0  0  0  0  0  0  0999 V2000
    2.7632    0.3068   -0.4779 C   0  0  0  0  0  0  0  0  0  0  0  0
    1.7705   -0.6356    0.1544 C   0  0  0  0  0  0  0  0  0  0  0  0
    0.4072   -0.1242   -0.1744 C   0  0  0  0  0  0  0  0  0  0  0  0
   -0.4335    0.2192    0.8008 C   0  0  0  0  0  0  0  0  0  0  0  0
   -1.7062    0.6913    0.2821 C   0  0  0  0  0  0  0  0  0  0  0  0
   -2.9596    0.0931    0.0661 C   0  0  0  0  0  0  0  0  0  0  0  0
   -1.9720   -0.4024   -0.8200 C   0  0  0  0  0  0  0  0  0  0  0  0
   -1.3055    0.0862   -1.8814 O   0  0  0  0  0  0  0  0  0  0  0  0
    0.0686   -0.0282   -1.6209 C   0  0  0  0  0  0  0  0  0  0  0  0
    3.8201   -0.0359   -0.3064 H   0  0  0  0  0  0  0  0  0  0  0  0
    2.6445    1.2892    0.0454 H   0  0  0  0  0  0  0  0  0  0  0  0
    2.5560    0.4260   -1.5601 H   0  0  0  0  0  0  0  0  0  0  0  0
    1.9234   -0.6050    1.2541 H   0  0  0  0  0  0  0  0  0  0  0  0
    1.8910   -1.6841   -0.1742 H   0  0  0  0  0  0  0  0  0  0  0  0
   -0.1003    0.1167    1.8159 H   0  0  0  0  0  0  0  0  0  0  0  0
   -1.5801    1.7497   -0.1110 H   0  0  0  0  0  0  0  0  0  0  0  0
   -3.4285   -0.6110    0.8075 H   0  0  0  0  0  0  0  0  0  0  0  0
   -3.7870    0.7250   -0.3713 H   0  0  0  0  0  0  0  0  0  0  0  0
   -1.6026   -1.4480   -0.5903 H   0  0  0  0  0  0  0  0  0  0  0  0
    0.4119   -0.9572   -2.1405 H   0  0  0  0  0  0  0  0  0  0  0  0
    0.6189    0.8284   -2.0571 H   0  0  0  0  0  0  0  0  0  0  0  0
  1  2  1  0
  2  3  1  0
  3  4  2  0
  4  5  1  0
  5  6  1  0
  6  7  1  0
  7  8  1  0
  8  9  1  0
  9  3  1  0
  7  5  1  0
  1 10  1  0
  1 11  1  0
  1 12  1  0
  2 13  1  0
  2 14  1  0
  4 15  1  0
  5 16  1  0
  6 17  1  0
  6 18  1  0
  7 19  1  0
  9 20  1  0
  9 21  1  0
M  END
