
     RDKit          3D

 20 21  0  0  0  0  0  0  0  0999 V2000
    2.6940   -0.0831   -0.2360 C   0  0  0  0  0  0  0  0  0  0  0  0
    1.5745   -0.0684    0.7460 C   0  0  0  0  0  0  0  0  0  0  0  0
    0.3204   -0.7453    0.2655 C   0  0  0  0  0  0  0  0  0  0  0  0
   -0.3001   -0.1651   -0.9819 C   0  0  0  0  0  0  0  0  0  0  0  0
   -1.3276    0.5048   -0.0695 C   0  0  0  0  0  0  0  0  0  0  0  0
   -2.7625    0.5370   -0.4780 C   0  0  0  0  0  0  0  0  0  0  0  0
   -0.8890    1.2338    1.0064 O   0  0  0  0  0  0  0  0  0  0  0  0
   -0.8685   -0.1631    1.0337 C   0  0  0  0  0  0  0  0  0  0  0  0
    2.6491    0.7366   -0.9879 H   0  0  0  0  0  0  0  0  0  0  0  0
    3.6444    0.1049    0.3365 H   0  0  0  0  0  0  0  0  0  0  0  0
    2.8190   -1.0847   -0.6987 H   0  0  0  0  0  0  0  0  0  0  0  0
    1.9097   -0.6125    1.6546 H   0  0  0  0  0  0  0  0  0  0  0  0
    1.3987    0.9787    1.0670 H   0  0  0  0  0  0  0  0  0  0  0  0
    0.3437   -1.8373    0.2334 H   0  0  0  0  0  0  0  0  0  0  0  0
   -0.8130   -0.9103   -1.6384 H   0  0  0  0  0  0  0  0  0  0  0  0
    0.3384    0.5223   -1.5413 H   0  0  0  0  0  0  0  0  0  0  0  0
   -3.1282    1.5902   -0.2981 H   0  0  0  0  0  0  0  0  0  0  0  0
   -2.9414    0.2619   -1.5158 H   0  0  0  0  0  0  0  0  0  0  0  0
   -3.3417   -0.0810    0.2600 H   0  0  0  0  0  0  0  0  0  0  0  0
   -1.3198   -0.7193    1.8425 H   0  0  0  0  0  0  0  0  0  0  0  0
  1  2  1  0
  2  3  1  0
  3  4  1  0
  4  5  1  0
  5  6  1  0
  5  7  1  0
  7  8  1  0
  8  3  1  0
  8  5  1  0
  1  9  1  0
  1 10  1  0
  1 11  1  0
  2 12  1  0
  2 13  1  0
  3 14  1  0
  4 15  1  0
  4 16  1  0
  6 17  1  0
  6 18  1  0
  6 19  1  0
  8 20  1  0
M  END
