
     RDKit          3D

 21 22  0  0  0  0  0  0  0  0999 V2000
   -2.3301    0.6960    0.4892 C   0  0  0  0  0  0  0  0  0  0  0  0
   -1.9588   -0.4269   -0.4102 C   0  0  0  0  0  0  0  0  0  0  0  0
   -0.5341   -0.7287   -0.5286 C   0  0  0  0  0  0  0  0  0  0  0  0
    0.1341   -1.1138    0.8099 C   0  0  0  0  0  0  0  0  0  0  0  0
    0.6349   -0.0818   -0.1280 C   0  0  0  0  0  0  0  0  0  0  0  0
    0.9100    1.1584    0.3372 O   0  0  0  0  0  0  0  0  0  0  0  0
    2.3071    1.2048    0.5682 C   0  0  0  0  0  0  0  0  0  0  0  0
    1.2485   -0.6061   -1.4109 C   0  0  0  0  0  0  0  0  0  0  0  0
    0.0485   -1.2821   -1.6397 O   0  0  0  0  0  0  0  0  0  0  0  0
   -2.2492    1.6851   -0.0290 H   0  0  0  0  0  0  0  0  0  0  0  0
   -1.7921    0.6853    1.4584 H   0  0  0  0  0  0  0  0  0  0  0  0
   -3.4247    0.5921    0.7239 H   0  0  0  0  0  0  0  0  0  0  0  0
   -2.3832   -0.1999   -1.4268 H   0  0  0  0  0  0  0  0  0  0  0  0
   -2.5051   -1.3588   -0.0821 H   0  0  0  0  0  0  0  0  0  0  0  0
   -0.3253   -0.7296    1.7369 H   0  0  0  0  0  0  0  0  0  0  0  0
    0.5638   -2.1153    0.8674 H   0  0  0  0  0  0  0  0  0  0  0  0
    2.6049    0.4300    1.3207 H   0  0  0  0  0  0  0  0  0  0  0  0
    2.5950    2.1805    1.0346 H   0  0  0  0  0  0  0  0  0  0  0  0
    2.8823    1.0786   -0.3501 H   0  0  0  0  0  0  0  0  0  0  0  0
    2.1148   -1.2351   -1.1629 H   0  0  0  0  0  0  0  0  0  0  0  0
    1.4587    0.1672   -2.1779 H   0  0  0  0  0  0  0  0  0  0  0  0
  1  2  1  0
  2  3  1  0
  3  4  1  0
  4  5  1  0
  5  6  1  0
  6  7  1  0
  5  8  1  0
  8  9  1  0
  5  3  1  0
  9  3  1  0
  1 10  1  0
  1 11  1  0
  1 12  1  0
  2 13  1  0
  2 14  1  0
  4 15  1  0
  4 16  1  0
  7 17  1  0
  7 18  1  0
  7 19  1  0
  8 20  1  0
  8 21  1  0
M  END
