
     RDKit          3D

 21 21  0  0  0  0  0  0  0  0999 V2000
    1.8880   -0.8652   -0.8322 C   0  0  0  0  0  0  0  0  0  0  0  0
    1.5920    0.1005    0.3124 C   0  0  0  0  0  0  0  0  0  0  0  0
    0.2241   -0.2364    0.8626 C   0  0  0  0  0  0  0  0  0  0  0  0
   -0.0352    0.6438    1.9017 O   0  0  0  0  0  0  0  0  0  0  0  0
   -0.3794    1.8480    1.2411 C   0  0  0  0  0  0  0  0  0  0  0  0
   -1.2119    1.3092    0.1215 C   0  0  0  0  0  0  0  0  0  0  0  0
   -0.8543    0.0599   -0.1084 C   0  0  0  0  0  0  0  0  0  0  0  0
   -1.4421   -0.8450   -1.1483 C   0  0  0  0  0  0  0  0  0  0  0  0
   -2.0050   -1.9882   -0.5326 O   0  0  0  0  0  0  0  0  0  0  0  0
    1.3451   -1.8100   -0.6446 H   0  0  0  0  0  0  0  0  0  0  0  0
    2.9730   -1.0683   -0.8517 H   0  0  0  0  0  0  0  0  0  0  0  0
    1.5452   -0.4070   -1.8029 H   0  0  0  0  0  0  0  0  0  0  0  0
    2.3821   -0.0635    1.0705 H   0  0  0  0  0  0  0  0  0  0  0  0
    1.6499    1.1171   -0.0892 H   0  0  0  0  0  0  0  0  0  0  0  0
    0.1527   -1.2954    1.1708 H   0  0  0  0  0  0  0  0  0  0  0  0
   -1.0715    2.4065    1.9050 H   0  0  0  0  0  0  0  0  0  0  0  0
    0.4835    2.4282    0.9288 H   0  0  0  0  0  0  0  0  0  0  0  0
   -1.9865    1.8700   -0.4105 H   0  0  0  0  0  0  0  0  0  0  0  0
   -2.2855   -0.3170   -1.6109 H   0  0  0  0  0  0  0  0  0  0  0  0
   -0.7118   -1.2161   -1.8635 H   0  0  0  0  0  0  0  0  0  0  0  0
   -2.2524   -1.6711    0.3803 H   0  0  0  0  0  0  0  0  0  0  0  0
  1  2  1  0
  2  3  1  0
  3  4  1  0
  4  5  1  0
  5  6  1  0
  6  7  2  0
  7  8  1  0
  8  9  1  0
  7  3  1  0
  1 10  1  0
  1 11  1  0
  1 12  1  0
  2 13  1  0
  2 14  1  0
  3 15  1  0
  5 16  1  0
  5 17  1  0
  6 18  1  0
  8 19  1  0
  8 20  1  0
  9 21  1  0
M  END
