
     RDKit          3D

 23 24  0  0  0  0  0  0  0  0999 V2000
   -3.0759   -1.0305    0.2127 C   0  0  0  0  0  0  0  0  0  0  0  0
   -2.3115   -0.2118   -0.7757 C   0  0  0  0  0  0  0  0  0  0  0  0
   -1.1876    0.5760   -0.1465 C   0  0  0  0  0  0  0  0  0  0  0  0
   -0.1379   -0.2299    0.5493 C   0  0  0  0  0  0  0  0  0  0  0  0
    0.7452    0.6689   -0.2207 C   0  0  0  0  0  0  0  0  0  0  0  0
    1.7420    1.5701    0.3358 C   0  0  0  0  0  0  0  0  0  0  0  0
    2.1369    0.3922   -0.5639 C   0  0  0  0  0  0  0  0  0  0  0  0
    2.9463   -0.6685    0.1456 C   0  0  0  0  0  0  0  0  0  0  0  0
   -0.2378    0.9981   -1.0912 O   0  0  0  0  0  0  0  0  0  0  0  0
   -3.8913   -0.4534    0.6860 H   0  0  0  0  0  0  0  0  0  0  0  0
   -2.4495   -1.4253    1.0404 H   0  0  0  0  0  0  0  0  0  0  0  0
   -3.5330   -1.8897   -0.3536 H   0  0  0  0  0  0  0  0  0  0  0  0
   -3.0151    0.5090   -1.2370 H   0  0  0  0  0  0  0  0  0  0  0  0
   -1.8985   -0.8221   -1.6269 H   0  0  0  0  0  0  0  0  0  0  0  0
   -1.5667    1.4335    0.4254 H   0  0  0  0  0  0  0  0  0  0  0  0
   -0.1913   -0.0864    1.6434 H   0  0  0  0  0  0  0  0  0  0  0  0
   -0.0431   -1.2816    0.2340 H   0  0  0  0  0  0  0  0  0  0  0  0
    1.9856    1.5002    1.4116 H   0  0  0  0  0  0  0  0  0  0  0  0
    1.9449    2.5700   -0.0891 H   0  0  0  0  0  0  0  0  0  0  0  0
    2.5044    0.6300   -1.5835 H   0  0  0  0  0  0  0  0  0  0  0  0
    4.0080   -0.3376    0.1391 H   0  0  0  0  0  0  0  0  0  0  0  0
    2.6240   -0.7653    1.1987 H   0  0  0  0  0  0  0  0  0  0  0  0
    2.9019   -1.6460   -0.3338 H   0  0  0  0  0  0  0  0  0  0  0  0
  1  2  1  0
  2  3  1  0
  3  4  1  0
  4  5  1  0
  5  6  1  0
  6  7  1  0
  7  8  1  0
  5  9  1  0
  9  3  1  0
  7  5  1  0
  1 10  1  0
  1 11  1  0
  1 12  1  0
  2 13  1  0
  2 14  1  0
  3 15  1  0
  4 16  1  0
  4 17  1  0
  6 18  1  0
  6 19  1  0
  7 20  1  0
  8 21  1  0
  8 22  1  0
  8 23  1  0
M  END
