
     RDKit          3D

 19 19  0  0  0  0  0  0  0  0999 V2000
    2.2383   -0.5554    0.0149 C   0  0  0  0  0  0  0  0  0  0  0  0
    1.3416    0.6765    0.1532 C   0  0  0  0  0  0  0  0  0  0  0  0
    0.0032    0.2962   -0.4439 C   0  0  0  0  0  0  0  0  0  0  0  0
   -0.9808    1.4291   -0.3720 C   0  0  0  0  0  0  0  0  0  0  0  0
   -1.7509    0.6519    0.6186 C   0  0  0  0  0  0  0  0  0  0  0  0
   -2.7299    0.8793    1.2847 O   0  0  0  0  0  0  0  0  0  0  0  0
   -0.8605   -0.5310    0.4893 C   0  0  0  0  0  0  0  0  0  0  0  0
   -1.5793   -1.6238   -0.2126 C   0  0  0  0  0  0  0  0  0  0  0  0
   -1.9603   -2.6406    0.3498 O   0  0  0  0  0  0  0  0  0  0  0  0
    1.6169   -1.4589    0.1311 H   0  0  0  0  0  0  0  0  0  0  0  0
    2.6837   -0.5444   -1.0003 H   0  0  0  0  0  0  0  0  0  0  0  0
    3.0884   -0.5060    0.7266 H   0  0  0  0  0  0  0  0  0  0  0  0
    1.2812    0.8917    1.2215 H   0  0  0  0  0  0  0  0  0  0  0  0
    1.8026    1.5186   -0.3782 H   0  0  0  0  0  0  0  0  0  0  0  0
    0.0754   -0.1857   -1.4389 H   0  0  0  0  0  0  0  0  0  0  0  0
   -1.5200    1.6262   -1.3410 H   0  0  0  0  0  0  0  0  0  0  0  0
   -0.5615    2.3922    0.0124 H   0  0  0  0  0  0  0  0  0  0  0  0
   -0.4093   -0.7913    1.4516 H   0  0  0  0  0  0  0  0  0  0  0  0
   -1.7788   -1.5245   -1.2668 H   0  0  0  0  0  0  0  0  0  0  0  0
  1  2  1  0
  2  3  1  0
  3  4  1  0
  4  5  1  0
  5  6  2  0
  5  7  1  0
  7  8  1  0
  8  9  2  0
  7  3  1  0
  1 10  1  0
  1 11  1  0
  1 12  1  0
  2 13  1  0
  2 14  1  0
  3 15  1  0
  4 16  1  0
  4 17  1  0
  7 18  1  0
  8 19  1  0
M  END
