
     RDKit          3D

 16 16  0  0  0  0  0  0  0  0999 V2000
    1.7966   -0.1999   -0.3251 C   0  0  0  0  0  0  0  0  0  0  0  0
    0.5818   -0.8625    0.2514 C   0  0  0  0  0  0  0  0  0  0  0  0
   -0.4820    0.2027    0.3700 C   0  0  0  0  0  0  0  0  0  0  0  0
   -0.1260    1.2513    1.1784 O   0  0  0  0  0  0  0  0  0  0  0  0
   -0.9927    0.7212   -0.9588 C   0  0  0  0  0  0  0  0  0  0  0  0
   -2.2441    0.8554   -0.2900 O   0  0  0  0  0  0  0  0  0  0  0  0
   -1.8695   -0.2779    0.4588 C   0  0  0  0  0  0  0  0  0  0  0  0
   -2.5677   -1.1983    0.9187 O   0  0  0  0  0  0  0  0  0  0  0  0
    2.2467    0.5000    0.4215 H   0  0  0  0  0  0  0  0  0  0  0  0
    2.5949   -0.8996   -0.6230 H   0  0  0  0  0  0  0  0  0  0  0  0
    1.4860    0.3894   -1.2036 H   0  0  0  0  0  0  0  0  0  0  0  0
    0.7424   -1.4033    1.1818 H   0  0  0  0  0  0  0  0  0  0  0  0
    0.2277   -1.6072   -0.5017 H   0  0  0  0  0  0  0  0  0  0  0  0
    0.1014    1.0062    2.0982 H   0  0  0  0  0  0  0  0  0  0  0  0
   -0.9738   -0.1262   -1.6951 H   0  0  0  0  0  0  0  0  0  0  0  0
   -0.5216    1.6486   -1.2816 H   0  0  0  0  0  0  0  0  0  0  0  0
  1  2  1  0
  2  3  1  0
  3  4  1  0
  3  5  1  0
  5  6  1  0
  6  7  1  0
  7  8  2  0
  7  3  1  0
  1  9  1  0
  1 10  1  0
  1 11  1  0
  2 12  1  0
  2 13  1  0
  4 14  1  0
  5 15  1  0
  5 16  1  0
M  END
