
     RDKit          3D

 17 17  0  0  0  0  0  0  0  0999 V2000
   -1.8799    0.0371    0.6781 C   0  0  0  0  0  0  0  0  0  0  0  0
   -1.3178   -0.2355   -0.6615 C   0  0  0  0  0  0  0  0  0  0  0  0
    0.1606   -0.1163   -0.7761 C   0  0  0  0  0  0  0  0  0  0  0  0
    0.8415   -1.0798    0.1524 C   0  0  0  0  0  0  0  0  0  0  0  0
    0.4586   -2.1910    0.5467 O   0  0  0  0  0  0  0  0  0  0  0  0
    2.1001   -0.4519    0.5332 C   0  0  0  0  0  0  0  0  0  0  0  0
    2.0375    0.8393    0.2499 C   0  0  0  0  0  0  0  0  0  0  0  0
    0.7230    1.1578   -0.3427 C   0  0  0  0  0  0  0  0  0  0  0  0
    0.2474    2.3351   -0.4214 O   0  0  0  0  0  0  0  0  0  0  0  0
   -1.2716   -0.3550    1.5231 H   0  0  0  0  0  0  0  0  0  0  0  0
   -2.1139    1.0975    0.8758 H   0  0  0  0  0  0  0  0  0  0  0  0
   -2.8664   -0.5058    0.7637 H   0  0  0  0  0  0  0  0  0  0  0  0
   -1.7720    0.4833   -1.3900 H   0  0  0  0  0  0  0  0  0  0  0  0
   -1.6543   -1.2394   -0.9915 H   0  0  0  0  0  0  0  0  0  0  0  0
    0.5015   -0.3558   -1.8019 H   0  0  0  0  0  0  0  0  0  0  0  0
    2.9597   -0.9517    0.9789 H   0  0  0  0  0  0  0  0  0  0  0  0
    2.8460    1.5320    0.4366 H   0  0  0  0  0  0  0  0  0  0  0  0
  1  2  1  0
  2  3  1  0
  3  4  1  0
  4  5  2  0
  4  6  1  0
  6  7  2  0
  7  8  1  0
  8  9  2  0
  8  3  1  0
  1 10  1  0
  1 11  1  0
  1 12  1  0
  2 13  1  0
  2 14  1  0
  3 15  1  0
  6 16  1  0
  7 17  1  0
M  END
