
     RDKit          3D

 23 24  0  0  0  0  0  0  0  0999 V2000
    2.2764   -0.6354    0.5306 C   0  0  0  0  0  0  0  0  0  0  0  0
    1.6299    0.3389   -0.4271 C   0  0  0  0  0  0  0  0  0  0  0  0
    0.1818    0.2638   -0.3042 C   0  0  0  0  0  0  0  0  0  0  0  0
   -0.4373   -1.0837   -0.6012 C   0  0  0  0  0  0  0  0  0  0  0  0
   -1.8716   -0.8405   -0.1042 C   0  0  0  0  0  0  0  0  0  0  0  0
   -1.8152    0.4261    0.6873 C   0  0  0  0  0  0  0  0  0  0  0  0
   -0.3398    0.4382    1.1331 C   0  0  0  0  0  0  0  0  0  0  0  0
   -1.7954    1.4934   -0.2224 O   0  0  0  0  0  0  0  0  0  0  0  0
   -0.6054    1.3862   -0.9422 C   0  0  0  0  0  0  0  0  0  0  0  0
    3.3836   -0.4138    0.4787 H   0  0  0  0  0  0  0  0  0  0  0  0
    2.0866   -1.6656    0.1416 H   0  0  0  0  0  0  0  0  0  0  0  0
    1.9176   -0.4939    1.5563 H   0  0  0  0  0  0  0  0  0  0  0  0
    1.9173   -0.0040   -1.4508 H   0  0  0  0  0  0  0  0  0  0  0  0
    1.9875    1.3556   -0.3204 H   0  0  0  0  0  0  0  0  0  0  0  0
   -0.4028   -1.3756   -1.6415 H   0  0  0  0  0  0  0  0  0  0  0  0
    0.0514   -1.8069    0.1012 H   0  0  0  0  0  0  0  0  0  0  0  0
   -2.2233   -1.6972    0.4991 H   0  0  0  0  0  0  0  0  0  0  0  0
   -2.4721   -0.7000   -1.0365 H   0  0  0  0  0  0  0  0  0  0  0  0
   -2.5055    0.5387    1.4891 H   0  0  0  0  0  0  0  0  0  0  0  0
   -0.1117   -0.4324    1.7529 H   0  0  0  0  0  0  0  0  0  0  0  0
   -0.0458    1.4050    1.5389 H   0  0  0  0  0  0  0  0  0  0  0  0
   -0.7867    1.1931   -2.0185 H   0  0  0  0  0  0  0  0  0  0  0  0
   -0.0193    2.3102   -0.8397 H   0  0  0  0  0  0  0  0  0  0  0  0
  1  2  1  0
  2  3  1  0
  3  4  1  0
  4  5  1  0
  5  6  1  0
  6  7  1  0
  6  8  1  0
  8  9  1  0
  7  3  1  0
  9  3  1  0
  1 10  1  0
  1 11  1  0
  1 12  1  0
  2 13  1  0
  2 14  1  0
  4 15  1  0
  4 16  1  0
  5 17  1  0
  5 18  1  0
  6 19  1  0
  7 20  1  0
  7 21  1  0
  9 22  1  0
  9 23  1  0
M  END
