
     RDKit          3D

 21 21  0  0  0  0  0  0  0  0999 V2000
    2.5162    0.9748    0.4391 C   0  0  0  0  0  0  0  0  0  0  0  0
    1.7088   -0.2515    0.6984 C   0  0  0  0  0  0  0  0  0  0  0  0
    0.6365   -0.4337   -0.3462 C   0  0  0  0  0  0  0  0  0  0  0  0
   -0.1906   -1.6856   -0.0849 C   0  0  0  0  0  0  0  0  0  0  0  0
   -1.2355   -1.2156    0.7365 O   0  0  0  0  0  0  0  0  0  0  0  0
   -1.6865   -0.1305   -0.0088 C   0  0  0  0  0  0  0  0  0  0  0  0
   -2.6992    0.7030    0.7376 C   0  0  0  0  0  0  0  0  0  0  0  0
   -0.4220    0.6100   -0.2670 C   0  0  0  0  0  0  0  0  0  0  0  0
   -0.2520    1.8011   -0.3916 O   0  0  0  0  0  0  0  0  0  0  0  0
    3.4666    0.9412    1.0343 H   0  0  0  0  0  0  0  0  0  0  0  0
    2.7388    1.0883   -0.6380 H   0  0  0  0  0  0  0  0  0  0  0  0
    1.9737    1.8849    0.7569 H   0  0  0  0  0  0  0  0  0  0  0  0
    1.2379   -0.2442    1.6921 H   0  0  0  0  0  0  0  0  0  0  0  0
    2.3743   -1.1301    0.6375 H   0  0  0  0  0  0  0  0  0  0  0  0
    1.0633   -0.5355   -1.3640 H   0  0  0  0  0  0  0  0  0  0  0  0
    0.4091   -2.4544    0.4297 H   0  0  0  0  0  0  0  0  0  0  0  0
   -0.6748   -2.0458   -1.0129 H   0  0  0  0  0  0  0  0  0  0  0  0
   -2.1212   -0.5318   -0.9490 H   0  0  0  0  0  0  0  0  0  0  0  0
   -3.4902    0.0288    1.1163 H   0  0  0  0  0  0  0  0  0  0  0  0
   -3.1728    1.3757   -0.0307 H   0  0  0  0  0  0  0  0  0  0  0  0
   -2.1805    1.2509    1.5276 H   0  0  0  0  0  0  0  0  0  0  0  0
  1  2  1  0
  2  3  1  0
  3  4  1  0
  4  5  1  0
  5  6  1  0
  6  7  1  0
  6  8  1  0
  8  9  2  0
  8  3  1  0
  1 10  1  0
  1 11  1  0
  1 12  1  0
  2 13  1  0
  2 14  1  0
  3 15  1  0
  4 16  1  0
  4 17  1  0
  6 18  1  0
  7 19  1  0
  7 20  1  0
  7 21  1  0
M  END
