
     RDKit          3D

 25 26  0  0  0  0  0  0  0  0999 V2000
    2.6527    1.3995   -0.2462 C   0  0  0  0  0  0  0  0  0  0  0  0
    2.0186    0.1574    0.2738 C   0  0  0  0  0  0  0  0  0  0  0  0
    1.1040   -0.5174   -0.7252 C   0  0  0  0  0  0  0  0  0  0  0  0
    0.4700   -1.7842   -0.1664 C   0  0  0  0  0  0  0  0  0  0  0  0
   -0.2852   -0.4885   -0.5368 C   0  0  0  0  0  0  0  0  0  0  0  0
   -1.4376   -0.7028   -1.4003 C   0  0  0  0  0  0  0  0  0  0  0  0
   -2.2274   -0.8770   -0.0887 C   0  0  0  0  0  0  0  0  0  0  0  0
   -1.1451    0.0366    0.5193 C   0  0  0  0  0  0  0  0  0  0  0  0
   -1.6084    1.4740    0.3063 C   0  0  0  0  0  0  0  0  0  0  0  0
    2.7720    1.4141   -1.3494 H   0  0  0  0  0  0  0  0  0  0  0  0
    2.1207    2.2835    0.1445 H   0  0  0  0  0  0  0  0  0  0  0  0
    3.6968    1.4556    0.1751 H   0  0  0  0  0  0  0  0  0  0  0  0
    1.5151    0.3762    1.2325 H   0  0  0  0  0  0  0  0  0  0  0  0
    2.8178   -0.5988    0.5151 H   0  0  0  0  0  0  0  0  0  0  0  0
    1.5396   -0.5548   -1.7456 H   0  0  0  0  0  0  0  0  0  0  0  0
    0.5811   -2.0304    0.8871 H   0  0  0  0  0  0  0  0  0  0  0  0
    0.3680   -2.6319   -0.8847 H   0  0  0  0  0  0  0  0  0  0  0  0
   -1.4747   -1.5780   -2.0542 H   0  0  0  0  0  0  0  0  0  0  0  0
   -1.8461    0.2173   -1.9125 H   0  0  0  0  0  0  0  0  0  0  0  0
   -3.2259   -0.4436   -0.1075 H   0  0  0  0  0  0  0  0  0  0  0  0
   -2.1689   -1.9203    0.3097 H   0  0  0  0  0  0  0  0  0  0  0  0
   -0.9088   -0.2106    1.5655 H   0  0  0  0  0  0  0  0  0  0  0  0
   -1.2477    1.8922   -0.6406 H   0  0  0  0  0  0  0  0  0  0  0  0
   -2.7353    1.5243    0.2492 H   0  0  0  0  0  0  0  0  0  0  0  0
   -1.3453    2.1078    1.1908 H   0  0  0  0  0  0  0  0  0  0  0  0
  1  2  1  0
  2  3  1  0
  3  4  1  0
  4  5  1  0
  5  6  1  0
  6  7  1  0
  7  8  1  0
  8  9  1  0
  5  3  1  0
  8  5  1  0
  1 10  1  0
  1 11  1  0
  1 12  1  0
  2 13  1  0
  2 14  1  0
  3 15  1  0
  4 16  1  0
  4 17  1  0
  6 18  1  0
  6 19  1  0
  7 20  1  0
  7 21  1  0
  8 22  1  0
  9 23  1  0
  9 24  1  0
  9 25  1  0
M  END
