
     RDKit          3D

 21 21  0  0  0  0  0  0  0  0999 V2000
    2.2436   -0.4332    0.2744 C   0  0  0  0  0  0  0  0  0  0  0  0
    0.9763   -0.5676   -0.5210 C   0  0  0  0  0  0  0  0  0  0  0  0
   -0.2401   -0.0655    0.1963 C   0  0  0  0  0  0  0  0  0  0  0  0
   -0.2332    1.2640    0.5623 O   0  0  0  0  0  0  0  0  0  0  0  0
   -0.1111    2.1320   -0.5078 C   0  0  0  0  0  0  0  0  0  0  0  0
   -1.4942   -0.5215   -0.5344 C   0  0  0  0  0  0  0  0  0  0  0  0
   -2.1082   -0.8350    0.7705 C   0  0  0  0  0  0  0  0  0  0  0  0
   -3.2646   -0.9519    1.1582 O   0  0  0  0  0  0  0  0  0  0  0  0
   -0.7269   -0.9313    1.3394 C   0  0  0  0  0  0  0  0  0  0  0  0
    2.5050    0.6587    0.3341 H   0  0  0  0  0  0  0  0  0  0  0  0
    3.0525   -0.9153   -0.3169 H   0  0  0  0  0  0  0  0  0  0  0  0
    2.2154   -0.9137    1.2578 H   0  0  0  0  0  0  0  0  0  0  0  0
    0.7911   -1.6298   -0.7885 H   0  0  0  0  0  0  0  0  0  0  0  0
    1.0826   -0.0060   -1.4536 H   0  0  0  0  0  0  0  0  0  0  0  0
   -0.1190    3.1676   -0.0747 H   0  0  0  0  0  0  0  0  0  0  0  0
   -1.0132    2.1113   -1.1826 H   0  0  0  0  0  0  0  0  0  0  0  0
    0.7976    2.0123   -1.0938 H   0  0  0  0  0  0  0  0  0  0  0  0
   -1.9876    0.2322   -1.1450 H   0  0  0  0  0  0  0  0  0  0  0  0
   -1.3279   -1.4429   -1.1191 H   0  0  0  0  0  0  0  0  0  0  0  0
   -0.3111   -1.9434    1.3895 H   0  0  0  0  0  0  0  0  0  0  0  0
   -0.7269   -0.4210    2.3395 H   0  0  0  0  0  0  0  0  0  0  0  0
  1  2  1  0
  2  3  1  0
  3  4  1  0
  4  5  1  0
  3  6  1  0
  6  7  1  0
  7  8  2  0
  7  9  1  0
  9  3  1  0
  1 10  1  0
  1 11  1  0
  1 12  1  0
  2 13  1  0
  2 14  1  0
  5 15  1  0
  5 16  1  0
  5 17  1  0
  6 18  1  0
  6 19  1  0
  9 20  1  0
  9 21  1  0
M  END
