
     RDKit          3D

 19 20  0  0  0  0  0  0  0  0999 V2000
    2.4247   -0.2330   -0.2151 C   0  0  0  0  0  0  0  0  0  0  0  0
    1.2075    0.5217   -0.7614 C   0  0  0  0  0  0  0  0  0  0  0  0
    0.0054   -0.0395   -0.0869 C   0  0  0  0  0  0  0  0  0  0  0  0
    0.0250    0.1071    1.4410 C   0  0  0  0  0  0  0  0  0  0  0  0
   -0.9857    0.8035    0.6130 C   0  0  0  0  0  0  0  0  0  0  0  0
   -2.2757    0.1418    0.2879 C   0  0  0  0  0  0  0  0  0  0  0  0
   -3.3277    0.4064    0.8329 O   0  0  0  0  0  0  0  0  0  0  0  0
   -1.9671   -0.8401   -0.7829 C   0  0  0  0  0  0  0  0  0  0  0  0
   -0.6167   -1.1449   -0.6136 O   0  0  0  0  0  0  0  0  0  0  0  0
    3.3670    0.2537   -0.4777 H   0  0  0  0  0  0  0  0  0  0  0  0
    2.3410   -1.2778   -0.6046 H   0  0  0  0  0  0  0  0  0  0  0  0
    2.2837   -0.2867    0.8807 H   0  0  0  0  0  0  0  0  0  0  0  0
    1.1969    0.2965   -1.8561 H   0  0  0  0  0  0  0  0  0  0  0  0
    1.3329    1.6097   -0.6556 H   0  0  0  0  0  0  0  0  0  0  0  0
   -0.2544   -0.8030    2.0124 H   0  0  0  0  0  0  0  0  0  0  0  0
    0.8179    0.6915    1.9089 H   0  0  0  0  0  0  0  0  0  0  0  0
   -0.9259    1.9083    0.5975 H   0  0  0  0  0  0  0  0  0  0  0  0
   -2.0411   -0.3687   -1.8031 H   0  0  0  0  0  0  0  0  0  0  0  0
   -2.6074   -1.7465   -0.7172 H   0  0  0  0  0  0  0  0  0  0  0  0
  1  2  1  0
  2  3  1  0
  3  4  1  0
  4  5  1  0
  5  6  1  0
  6  7  2  0
  6  8  1  0
  8  9  1  0
  5  3  1  0
  9  3  1  0
  1 10  1  0
  1 11  1  0
  1 12  1  0
  2 13  1  0
  2 14  1  0
  4 15  1  0
  4 16  1  0
  5 17  1  0
  8 18  1  0
  8 19  1  0
M  END
