
     RDKit          3D

 21 22  0  0  0  0  0  0  0  0999 V2000
   -2.2959    0.1092   -0.4017 C   0  0  0  0  0  0  0  0  0  0  0  0
   -1.6452    0.2248    0.9394 C   0  0  0  0  0  0  0  0  0  0  0  0
   -0.1435    0.1939    0.7870 C   0  0  0  0  0  0  0  0  0  0  0  0
    0.3171    1.3191   -0.0636 C   0  0  0  0  0  0  0  0  0  0  0  0
    1.4739    1.2182   -0.6959 C   0  0  0  0  0  0  0  0  0  0  0  0
    2.3360    0.0350   -0.5977 C   0  0  0  0  0  0  0  0  0  0  0  0
    2.0553   -0.9825   -1.5159 O   0  0  0  0  0  0  0  0  0  0  0  0
    1.7208   -1.1818   -0.1613 C   0  0  0  0  0  0  0  0  0  0  0  0
    0.2735   -1.1470    0.2239 C   0  0  0  0  0  0  0  0  0  0  0  0
   -1.7996    0.7364   -1.1765 H   0  0  0  0  0  0  0  0  0  0  0  0
   -2.3712   -0.9602   -0.7460 H   0  0  0  0  0  0  0  0  0  0  0  0
   -3.3732    0.4199   -0.2655 H   0  0  0  0  0  0  0  0  0  0  0  0
   -1.9323    1.2103    1.3827 H   0  0  0  0  0  0  0  0  0  0  0  0
   -1.9408   -0.6288    1.5643 H   0  0  0  0  0  0  0  0  0  0  0  0
    0.3512    0.2757    1.7873 H   0  0  0  0  0  0  0  0  0  0  0  0
   -0.2865    2.1973   -0.1578 H   0  0  0  0  0  0  0  0  0  0  0  0
    1.7959    2.0467   -1.3120 H   0  0  0  0  0  0  0  0  0  0  0  0
    3.3984    0.2267   -0.3314 H   0  0  0  0  0  0  0  0  0  0  0  0
    2.3690   -1.9591    0.3161 H   0  0  0  0  0  0  0  0  0  0  0  0
    0.0928   -1.9039    1.0333 H   0  0  0  0  0  0  0  0  0  0  0  0
   -0.3957   -1.4499   -0.6087 H   0  0  0  0  0  0  0  0  0  0  0  0
  1  2  1  0
  2  3  1  0
  3  4  1  0
  4  5  2  0
  5  6  1  0
  6  7  1  0
  7  8  1  0
  8  9  1  0
  9  3  1  0
  8  6  1  0
  1 10  1  0
  1 11  1  0
  1 12  1  0
  2 13  1  0
  2 14  1  0
  3 15  1  0
  4 16  1  0
  5 17  1  0
  6 18  1  0
  8 19  1  0
  9 20  1  0
  9 21  1  0
M  END
