
     RDKit          3D

 20 21  0  0  0  0  0  0  0  0999 V2000
    2.2616   -0.0754    0.4115 C   0  0  0  0  0  0  0  0  0  0  0  0
    1.2252   -0.3251   -0.6800 C   0  0  0  0  0  0  0  0  0  0  0  0
   -0.1025   -0.1548   -0.1742 C   0  0  0  0  0  0  0  0  0  0  0  0
   -0.6618   -0.9555    0.9362 C   0  0  0  0  0  0  0  0  0  0  0  0
   -1.9317   -0.3331    1.0841 O   0  0  0  0  0  0  0  0  0  0  0  0
   -1.9399    0.5830    0.0595 C   0  0  0  0  0  0  0  0  0  0  0  0
   -0.5658    1.2538    0.2286 C   0  0  0  0  0  0  0  0  0  0  0  0
   -1.2820   -0.1157   -1.1441 C   0  0  0  0  0  0  0  0  0  0  0  0
    1.7977    0.4379    1.2822 H   0  0  0  0  0  0  0  0  0  0  0  0
    2.6249   -1.0600    0.8228 H   0  0  0  0  0  0  0  0  0  0  0  0
    3.1544    0.4349    0.0244 H   0  0  0  0  0  0  0  0  0  0  0  0
    1.3725   -1.3596   -1.0534 H   0  0  0  0  0  0  0  0  0  0  0  0
    1.4876    0.3589   -1.5125 H   0  0  0  0  0  0  0  0  0  0  0  0
   -0.9062   -1.9973    0.5993 H   0  0  0  0  0  0  0  0  0  0  0  0
   -0.0935   -0.9502    1.8651 H   0  0  0  0  0  0  0  0  0  0  0  0
   -2.7718    1.2091   -0.1303 H   0  0  0  0  0  0  0  0  0  0  0  0
   -0.3348    1.5320    1.2606 H   0  0  0  0  0  0  0  0  0  0  0  0
   -0.4165    2.0087   -0.5553 H   0  0  0  0  0  0  0  0  0  0  0  0
   -1.1926    0.6035   -1.9609 H   0  0  0  0  0  0  0  0  0  0  0  0
   -1.7251   -1.0950   -1.3636 H   0  0  0  0  0  0  0  0  0  0  0  0
  1  2  1  0
  2  3  1  0
  3  4  1  0
  4  5  1  0
  5  6  1  0
  6  7  1  0
  6  8  1  0
  7  3  1  0
  8  3  1  0
  1  9  1  0
  1 10  1  0
  1 11  1  0
  2 12  1  0
  2 13  1  0
  4 14  1  0
  4 15  1  0
  6 16  1  0
  7 17  1  0
  7 18  1  0
  8 19  1  0
  8 20  1  0
M  END
