
     RDKit          3D

 21 21  0  0  0  0  0  0  0  0999 V2000
    2.7697   -0.1279    0.2352 C   0  0  0  0  0  0  0  0  0  0  0  0
    1.4775    0.5452    0.5996 C   0  0  0  0  0  0  0  0  0  0  0  0
    0.3204    0.1398   -0.2582 C   0  0  0  0  0  0  0  0  0  0  0  0
   -0.0066   -1.3154   -0.2277 C   0  0  0  0  0  0  0  0  0  0  0  0
    0.6112   -2.3637   -0.3235 O   0  0  0  0  0  0  0  0  0  0  0  0
   -1.4409   -0.9238   -0.0260 C   0  0  0  0  0  0  0  0  0  0  0  0
   -2.0222   -1.7109    0.9758 O   0  0  0  0  0  0  0  0  0  0  0  0
   -0.9812    0.4395    0.4280 C   0  0  0  0  0  0  0  0  0  0  0  0
   -1.8302    1.5092   -0.2340 C   0  0  0  0  0  0  0  0  0  0  0  0
    3.4609    0.0122    1.1097 H   0  0  0  0  0  0  0  0  0  0  0  0
    3.1927    0.3002   -0.6912 H   0  0  0  0  0  0  0  0  0  0  0  0
    2.6118   -1.1896    0.0747 H   0  0  0  0  0  0  0  0  0  0  0  0
    1.5441    1.6469    0.5915 H   0  0  0  0  0  0  0  0  0  0  0  0
    1.2364    0.2605    1.6524 H   0  0  0  0  0  0  0  0  0  0  0  0
    0.3447    0.4899   -1.3047 H   0  0  0  0  0  0  0  0  0  0  0  0
   -2.0489   -0.9282   -0.9591 H   0  0  0  0  0  0  0  0  0  0  0  0
   -2.3179   -2.5466    0.5098 H   0  0  0  0  0  0  0  0  0  0  0  0
   -0.8969    0.5797    1.5121 H   0  0  0  0  0  0  0  0  0  0  0  0
   -1.9105    1.2392   -1.3130 H   0  0  0  0  0  0  0  0  0  0  0  0
   -1.2968    2.4668   -0.0946 H   0  0  0  0  0  0  0  0  0  0  0  0
   -2.8174    1.4771    0.2756 H   0  0  0  0  0  0  0  0  0  0  0  0
  1  2  1  0
  2  3  1  0
  3  4  1  0
  4  5  2  0
  4  6  1  0
  6  7  1  0
  6  8  1  0
  8  9  1  0
  8  3  1  0
  1 10  1  0
  1 11  1  0
  1 12  1  0
  2 13  1  0
  2 14  1  0
  3 15  1  0
  6 16  1  0
  7 17  1  0
  8 18  1  0
  9 19  1  0
  9 20  1  0
  9 21  1  0
M  END
