
     RDKit          3D

 21 22  0  0  0  0  0  0  0  0999 V2000
   -2.6395    0.0815   -0.4078 C   0  0  0  0  0  0  0  0  0  0  0  0
   -1.6974   -0.5666    0.5509 C   0  0  0  0  0  0  0  0  0  0  0  0
   -0.2655   -0.4075    0.2610 C   0  0  0  0  0  0  0  0  0  0  0  0
    0.2864   -0.9138   -1.0166 C   0  0  0  0  0  0  0  0  0  0  0  0
    0.3564    0.5293   -0.6403 C   0  0  0  0  0  0  0  0  0  0  0  0
    1.3139    0.9084    0.4643 C   0  0  0  0  0  0  0  0  0  0  0  0
    2.7384    0.4700    0.2687 C   0  0  0  0  0  0  0  0  0  0  0  0
    0.6230   -0.0459    1.3827 C   0  0  0  0  0  0  0  0  0  0  0  0
    0.7605   -0.3633    2.5492 O   0  0  0  0  0  0  0  0  0  0  0  0
   -3.5800    0.3025    0.1552 H   0  0  0  0  0  0  0  0  0  0  0  0
   -2.9541   -0.6649   -1.1947 H   0  0  0  0  0  0  0  0  0  0  0  0
   -2.2759    0.9877   -0.8864 H   0  0  0  0  0  0  0  0  0  0  0  0
   -1.9433   -1.6600    0.5696 H   0  0  0  0  0  0  0  0  0  0  0  0
   -1.9162   -0.2162    1.5976 H   0  0  0  0  0  0  0  0  0  0  0  0
    1.1662   -1.5680   -0.9821 H   0  0  0  0  0  0  0  0  0  0  0  0
   -0.4611   -1.1728   -1.7871 H   0  0  0  0  0  0  0  0  0  0  0  0
   -0.1203    1.3046   -1.2296 H   0  0  0  0  0  0  0  0  0  0  0  0
    1.2321    1.9628    0.7170 H   0  0  0  0  0  0  0  0  0  0  0  0
    2.8484   -0.4435   -0.3241 H   0  0  0  0  0  0  0  0  0  0  0  0
    3.1284    0.2135    1.2980 H   0  0  0  0  0  0  0  0  0  0  0  0
    3.3995    1.2624   -0.1194 H   0  0  0  0  0  0  0  0  0  0  0  0
  1  2  1  0
  2  3  1  0
  3  4  1  0
  4  5  1  0
  5  6  1  0
  6  7  1  0
  6  8  1  0
  8  9  2  0
  5  3  1  0
  8  3  1  0
  1 10  1  0
  1 11  1  0
  1 12  1  0
  2 13  1  0
  2 14  1  0
  4 15  1  0
  4 16  1  0
  5 17  1  0
  6 18  1  0
  7 19  1  0
  7 20  1  0
  7 21  1  0
M  END
