
     RDKit          3D

 25 25  0  0  0  0  0  0  0  0999 V2000
   -3.6194    0.4281    0.5275 C   0  0  0  0  0  0  0  0  0  0  0  0
   -2.2712    0.1211    1.1475 C   0  0  0  0  0  0  0  0  0  0  0  0
   -1.3630   -0.5992    0.1616 C   0  0  0  0  0  0  0  0  0  0  0  0
   -1.0847    0.1791   -1.0805 C   0  0  0  0  0  0  0  0  0  0  0  0
    0.0158   -0.0969   -0.0197 C   0  0  0  0  0  0  0  0  0  0  0  0
    1.1176   -0.9527   -0.5296 C   0  0  0  0  0  0  0  0  0  0  0  0
    2.4305   -0.2128   -0.6263 C   0  0  0  0  0  0  0  0  0  0  0  0
    2.9020    0.3100    0.6988 C   0  0  0  0  0  0  0  0  0  0  0  0
    4.1189    0.9613    0.4617 O   0  0  0  0  0  0  0  0  0  0  0  0
   -4.0021   -0.4163   -0.0606 H   0  0  0  0  0  0  0  0  0  0  0  0
   -4.3516    0.6126    1.3453 H   0  0  0  0  0  0  0  0  0  0  0  0
   -3.5963    1.3558   -0.0799 H   0  0  0  0  0  0  0  0  0  0  0  0
   -2.4745   -0.5414    2.0224 H   0  0  0  0  0  0  0  0  0  0  0  0
   -1.8442    1.0877    1.4702 H   0  0  0  0  0  0  0  0  0  0  0  0
   -1.5081   -1.6970    0.0797 H   0  0  0  0  0  0  0  0  0  0  0  0
   -1.0603   -0.3978   -2.0033 H   0  0  0  0  0  0  0  0  0  0  0  0
   -1.3814    1.2257   -1.1864 H   0  0  0  0  0  0  0  0  0  0  0  0
    0.2890    0.7478    0.6255 H   0  0  0  0  0  0  0  0  0  0  0  0
    0.9205   -1.3347   -1.5762 H   0  0  0  0  0  0  0  0  0  0  0  0
    1.2805   -1.8773    0.0888 H   0  0  0  0  0  0  0  0  0  0  0  0
    2.2639    0.6730   -1.3076 H   0  0  0  0  0  0  0  0  0  0  0  0
    3.1721   -0.9116   -1.0780 H   0  0  0  0  0  0  0  0  0  0  0  0
    3.0777   -0.5435    1.3755 H   0  0  0  0  0  0  0  0  0  0  0  0
    2.2119    1.0622    1.1230 H   0  0  0  0  0  0  0  0  0  0  0  0
    4.7565    0.8169    1.2037 H   0  0  0  0  0  0  0  0  0  0  0  0
  1  2  1  0
  2  3  1  0
  3  4  1  0
  4  5  1  0
  5  6  1  0
  6  7  1  0
  7  8  1  0
  8  9  1  0
  5  3  1  0
  1 10  1  0
  1 11  1  0
  1 12  1  0
  2 13  1  0
  2 14  1  0
  3 15  1  0
  4 16  1  0
  4 17  1  0
  5 18  1  0
  6 19  1  0
  6 20  1  0
  7 21  1  0
  7 22  1  0
  8 23  1  0
  8 24  1  0
  9 25  1  0
M  END
