
     RDKit          3D

 21 21  0  0  0  0  0  0  0  0999 V2000
    1.6983    1.5616    0.2065 C   0  0  0  0  0  0  0  0  0  0  0  0
    0.3414    1.3592   -0.4331 C   0  0  0  0  0  0  0  0  0  0  0  0
   -0.0704   -0.0902   -0.3621 C   0  0  0  0  0  0  0  0  0  0  0  0
   -1.2901   -0.3081   -0.9390 O   0  0  0  0  0  0  0  0  0  0  0  0
   -2.3456    0.4155   -0.4507 C   0  0  0  0  0  0  0  0  0  0  0  0
   -0.1225   -0.5991    1.0143 C   0  0  0  0  0  0  0  0  0  0  0  0
    0.3424   -1.8370    1.0152 C   0  0  0  0  0  0  0  0  0  0  0  0
    0.7140   -2.1645   -0.3873 C   0  0  0  0  0  0  0  0  0  0  0  0
    0.8492   -0.9199   -1.0017 O   0  0  0  0  0  0  0  0  0  0  0  0
    2.0795    2.5439   -0.2016 H   0  0  0  0  0  0  0  0  0  0  0  0
    1.6359    1.6819    1.2866 H   0  0  0  0  0  0  0  0  0  0  0  0
    2.4378    0.7978   -0.1043 H   0  0  0  0  0  0  0  0  0  0  0  0
   -0.3732    1.9457    0.1595 H   0  0  0  0  0  0  0  0  0  0  0  0
    0.3749    1.6581   -1.4836 H   0  0  0  0  0  0  0  0  0  0  0  0
   -2.1650    1.4951   -0.5880 H   0  0  0  0  0  0  0  0  0  0  0  0
   -3.3050    0.1926   -0.9634 H   0  0  0  0  0  0  0  0  0  0  0  0
   -2.5012    0.2739    0.6440 H   0  0  0  0  0  0  0  0  0  0  0  0
   -0.4732   -0.0967    1.9309 H   0  0  0  0  0  0  0  0  0  0  0  0
    0.4390   -2.5091    1.8957 H   0  0  0  0  0  0  0  0  0  0  0  0
   -0.0117   -2.8014   -0.8924 H   0  0  0  0  0  0  0  0  0  0  0  0
    1.7452   -2.5991   -0.3454 H   0  0  0  0  0  0  0  0  0  0  0  0
  1  2  1  0
  2  3  1  0
  3  4  1  0
  4  5  1  0
  3  6  1  0
  6  7  2  0
  7  8  1  0
  8  9  1  0
  9  3  1  0
  1 10  1  0
  1 11  1  0
  1 12  1  0
  2 13  1  0
  2 14  1  0
  5 15  1  0
  5 16  1  0
  5 17  1  0
  6 18  1  0
  7 19  1  0
  8 20  1  0
  8 21  1  0
M  END
