
     RDKit          3D

 19 21  0  0  0  0  0  0  0  0999 V2000
    2.7838   -0.3414    0.0681 C   0  0  0  0  0  0  0  0  0  0  0  0
    1.5372    0.2597   -0.5518 C   0  0  0  0  0  0  0  0  0  0  0  0
    0.5180    0.5244    0.5688 C   0  0  0  0  0  0  0  0  0  0  0  0
    0.0950   -0.5668    1.3054 O   0  0  0  0  0  0  0  0  0  0  0  0
   -0.7630    0.0912    0.4591 C   0  0  0  0  0  0  0  0  0  0  0  0
   -1.4371   -0.5945   -0.6764 C   0  0  0  0  0  0  0  0  0  0  0  0
   -2.6604    0.2551   -0.3823 C   0  0  0  0  0  0  0  0  0  0  0  0
   -3.2410    0.0243    0.8315 O   0  0  0  0  0  0  0  0  0  0  0  0
   -2.0487    0.6812    0.9615 C   0  0  0  0  0  0  0  0  0  0  0  0
    2.4633   -1.1917    0.6818 H   0  0  0  0  0  0  0  0  0  0  0  0
    3.2518    0.4432    0.6919 H   0  0  0  0  0  0  0  0  0  0  0  0
    3.4487   -0.6579   -0.7396 H   0  0  0  0  0  0  0  0  0  0  0  0
    1.7997    1.1944   -1.0500 H   0  0  0  0  0  0  0  0  0  0  0  0
    1.0618   -0.4377   -1.2639 H   0  0  0  0  0  0  0  0  0  0  0  0
    0.8055    1.4645    1.1278 H   0  0  0  0  0  0  0  0  0  0  0  0
   -1.7133   -1.6665   -0.5223 H   0  0  0  0  0  0  0  0  0  0  0  0
   -0.9437   -0.3877   -1.6325 H   0  0  0  0  0  0  0  0  0  0  0  0
   -2.9670    1.0412   -1.0631 H   0  0  0  0  0  0  0  0  0  0  0  0
   -1.9906    1.7599    1.1862 H   0  0  0  0  0  0  0  0  0  0  0  0
  1  2  1  0
  2  3  1  0
  3  4  1  0
  4  5  1  0
  5  6  1  0
  6  7  1  0
  7  8  1  0
  8  9  1  0
  5  3  1  0
  9  7  1  0
  9  5  1  0
  1 10  1  0
  1 11  1  0
  1 12  1  0
  2 13  1  0
  2 14  1  0
  3 15  1  0
  6 16  1  0
  6 17  1  0
  7 18  1  0
  9 19  1  0
M  END
