
     RDKit          3D

 21 22  0  0  0  0  0  0  0  0999 V2000
    2.1835    0.6466    0.5916 C   0  0  0  0  0  0  0  0  0  0  0  0
    1.9708    0.1920   -0.8314 C   0  0  0  0  0  0  0  0  0  0  0  0
    0.6341   -0.4832   -1.0387 C   0  0  0  0  0  0  0  0  0  0  0  0
   -0.5335    0.2906   -0.7546 C   0  0  0  0  0  0  0  0  0  0  0  0
   -1.2825    0.4164    0.5754 C   0  0  0  0  0  0  0  0  0  0  0  0
   -2.3005    1.3277    0.5270 O   0  0  0  0  0  0  0  0  0  0  0  0
   -1.6876   -1.0096    0.1320 C   0  0  0  0  0  0  0  0  0  0  0  0
   -2.1560   -1.7249    1.1987 O   0  0  0  0  0  0  0  0  0  0  0  0
   -0.1654   -1.0734   -0.0294 C   0  0  0  0  0  0  0  0  0  0  0  0
    2.0945   -0.1954    1.2748 H   0  0  0  0  0  0  0  0  0  0  0  0
    3.2119    1.0915    0.6140 H   0  0  0  0  0  0  0  0  0  0  0  0
    1.4493    1.4445    0.8574 H   0  0  0  0  0  0  0  0  0  0  0  0
    2.0423    1.1343   -1.4540 H   0  0  0  0  0  0  0  0  0  0  0  0
    2.8128   -0.4319   -1.1982 H   0  0  0  0  0  0  0  0  0  0  0  0
    0.6762   -1.0779   -2.0152 H   0  0  0  0  0  0  0  0  0  0  0  0
   -1.3551    0.1840   -1.5344 H   0  0  0  0  0  0  0  0  0  0  0  0
   -0.6166    0.4297    1.4330 H   0  0  0  0  0  0  0  0  0  0  0  0
   -2.1234    1.9295   -0.2471 H   0  0  0  0  0  0  0  0  0  0  0  0
   -2.2692   -0.9955   -0.7817 H   0  0  0  0  0  0  0  0  0  0  0  0
   -2.8373   -1.1540    1.6734 H   0  0  0  0  0  0  0  0  0  0  0  0
    0.2517   -0.9412    1.0074 H   0  0  0  0  0  0  0  0  0  0  0  0
  1  2  1  0
  2  3  1  0
  3  4  1  0
  4  5  1  0
  5  6  1  0
  5  7  1  0
  7  8  1  0
  7  9  1  0
  9  3  1  0
  9  4  1  0
  1 10  1  0
  1 11  1  0
  1 12  1  0
  2 13  1  0
  2 14  1  0
  3 15  1  0
  4 16  1  0
  5 17  1  0
  6 18  1  0
  7 19  1  0
  8 20  1  0
  9 21  1  0
M  END
