
     RDKit          3D

 23 23  0  0  0  0  0  0  0  0999 V2000
   -2.3409   -0.6284    0.4024 C   0  0  0  0  0  0  0  0  0  0  0  0
   -1.2864   -0.5943   -0.6484 C   0  0  0  0  0  0  0  0  0  0  0  0
   -0.1276    0.3412   -0.2830 C   0  0  0  0  0  0  0  0  0  0  0  0
   -0.7982    1.7164   -0.1324 C   0  0  0  0  0  0  0  0  0  0  0  0
    0.4693   -0.0173    1.0075 C   0  0  0  0  0  0  0  0  0  0  0  0
    1.8760   -0.4593    0.9705 C   0  0  0  0  0  0  0  0  0  0  0  0
    2.4963   -0.5461   -0.1728 C   0  0  0  0  0  0  0  0  0  0  0  0
    1.8317   -0.2151   -1.4267 C   0  0  0  0  0  0  0  0  0  0  0  0
    0.6743    0.4525   -1.3652 O   0  0  0  0  0  0  0  0  0  0  0  0
   -3.3433   -0.5769   -0.1158 H   0  0  0  0  0  0  0  0  0  0  0  0
   -2.3738   -1.6239    0.9349 H   0  0  0  0  0  0  0  0  0  0  0  0
   -2.3298    0.2097    1.1067 H   0  0  0  0  0  0  0  0  0  0  0  0
   -1.7072   -0.2878   -1.6406 H   0  0  0  0  0  0  0  0  0  0  0  0
   -0.8156   -1.6096   -0.7479 H   0  0  0  0  0  0  0  0  0  0  0  0
   -1.5206    1.8992   -0.9445 H   0  0  0  0  0  0  0  0  0  0  0  0
    0.0275    2.4707   -0.2871 H   0  0  0  0  0  0  0  0  0  0  0  0
   -1.1802    1.8797    0.8756 H   0  0  0  0  0  0  0  0  0  0  0  0
    0.4095    0.8104    1.7737 H   0  0  0  0  0  0  0  0  0  0  0  0
   -0.1078   -0.8634    1.4707 H   0  0  0  0  0  0  0  0  0  0  0  0
    2.3487   -0.6998    1.9152 H   0  0  0  0  0  0  0  0  0  0  0  0
    3.5458   -0.8738   -0.2206 H   0  0  0  0  0  0  0  0  0  0  0  0
    1.6824   -1.1604   -2.0223 H   0  0  0  0  0  0  0  0  0  0  0  0
    2.5700    0.3763   -2.0433 H   0  0  0  0  0  0  0  0  0  0  0  0
  1  2  1  0
  2  3  1  0
  3  4  1  0
  3  5  1  0
  5  6  1  0
  6  7  2  0
  7  8  1  0
  8  9  1  0
  9  3  1  0
  1 10  1  0
  1 11  1  0
  1 12  1  0
  2 13  1  0
  2 14  1  0
  4 15  1  0
  4 16  1  0
  4 17  1  0
  5 18  1  0
  5 19  1  0
  6 20  1  0
  7 21  1  0
  8 22  1  0
  8 23  1  0
M  END
