
     RDKit          3D

 20 20  0  0  0  0  0  0  0  0999 V2000
    2.5391    0.7392    0.2233 C   0  0  0  0  0  0  0  0  0  0  0  0
    1.6387   -0.3890   -0.1527 C   0  0  0  0  0  0  0  0  0  0  0  0
    0.1787   -0.0772    0.0950 C   0  0  0  0  0  0  0  0  0  0  0  0
   -0.7054   -1.2424   -0.2972 C   0  0  0  0  0  0  0  0  0  0  0  0
   -2.1101   -0.8664    0.1346 C   0  0  0  0  0  0  0  0  0  0  0  0
   -2.4371    0.3214   -0.4782 O   0  0  0  0  0  0  0  0  0  0  0  0
   -1.5289    1.3328   -0.2141 C   0  0  0  0  0  0  0  0  0  0  0  0
   -0.2428    1.0174   -0.6618 O   0  0  0  0  0  0  0  0  0  0  0  0
    3.0468    1.1692   -0.6608 H   0  0  0  0  0  0  0  0  0  0  0  0
    2.0351    1.5299    0.8146 H   0  0  0  0  0  0  0  0  0  0  0  0
    3.3393    0.3295    0.8808 H   0  0  0  0  0  0  0  0  0  0  0  0
    1.8502   -1.3335    0.4181 H   0  0  0  0  0  0  0  0  0  0  0  0
    1.7296   -0.6260   -1.2348 H   0  0  0  0  0  0  0  0  0  0  0  0
   -0.0114    0.1965    1.1589 H   0  0  0  0  0  0  0  0  0  0  0  0
   -0.3723   -2.1916    0.1677 H   0  0  0  0  0  0  0  0  0  0  0  0
   -0.7047   -1.3097   -1.4145 H   0  0  0  0  0  0  0  0  0  0  0  0
   -2.0708   -0.7707    1.2575 H   0  0  0  0  0  0  0  0  0  0  0  0
   -2.8459   -1.6264   -0.1908 H   0  0  0  0  0  0  0  0  0  0  0  0
   -1.4363    1.5502    0.8812 H   0  0  0  0  0  0  0  0  0  0  0  0
   -1.8917    2.2466   -0.7268 H   0  0  0  0  0  0  0  0  0  0  0  0
  1  2  1  0
  2  3  1  0
  3  4  1  0
  4  5  1  0
  5  6  1  0
  6  7  1  0
  7  8  1  0
  8  3  1  0
  1  9  1  0
  1 10  1  0
  1 11  1  0
  2 12  1  0
  2 13  1  0
  3 14  1  0
  4 15  1  0
  4 16  1  0
  5 17  1  0
  5 18  1  0
  7 19  1  0
  7 20  1  0
M  END
