
     RDKit          3D

 23 24  0  0  0  0  0  0  0  0999 V2000
    2.9346    0.6765   -0.5670 C   0  0  0  0  0  0  0  0  0  0  0  0
    2.1276   -0.3653    0.1670 C   0  0  0  0  0  0  0  0  0  0  0  0
    0.8343    0.1808    0.7111 C   0  0  0  0  0  0  0  0  0  0  0  0
   -0.1097    0.7404   -0.3363 C   0  0  0  0  0  0  0  0  0  0  0  0
   -1.1987   -0.0918    0.2583 C   0  0  0  0  0  0  0  0  0  0  0  0
   -2.1907   -0.7013   -0.6469 C   0  0  0  0  0  0  0  0  0  0  0  0
   -3.0688    0.3328    0.0416 C   0  0  0  0  0  0  0  0  0  0  0  0
   -2.1109    0.5133    1.0621 O   0  0  0  0  0  0  0  0  0  0  0  0
   -0.1669   -0.9697    0.8823 C   0  0  0  0  0  0  0  0  0  0  0  0
    3.5832    0.1360   -1.3069 H   0  0  0  0  0  0  0  0  0  0  0  0
    3.6218    1.1867    0.1625 H   0  0  0  0  0  0  0  0  0  0  0  0
    2.3256    1.3828   -1.1444 H   0  0  0  0  0  0  0  0  0  0  0  0
    1.8881   -1.2424   -0.4740 H   0  0  0  0  0  0  0  0  0  0  0  0
    2.7322   -0.6923    1.0368 H   0  0  0  0  0  0  0  0  0  0  0  0
    0.8841    0.7557    1.6354 H   0  0  0  0  0  0  0  0  0  0  0  0
    0.1617    0.5245   -1.3756 H   0  0  0  0  0  0  0  0  0  0  0  0
   -0.2473    1.8255   -0.1592 H   0  0  0  0  0  0  0  0  0  0  0  0
   -2.0831   -0.5849   -1.7224 H   0  0  0  0  0  0  0  0  0  0  0  0
   -2.5039   -1.7193   -0.2925 H   0  0  0  0  0  0  0  0  0  0  0  0
   -3.1332    1.2731   -0.5334 H   0  0  0  0  0  0  0  0  0  0  0  0
   -3.9973   -0.0522    0.4771 H   0  0  0  0  0  0  0  0  0  0  0  0
   -0.3356   -1.2736    1.9225 H   0  0  0  0  0  0  0  0  0  0  0  0
    0.0529   -1.8353    0.2019 H   0  0  0  0  0  0  0  0  0  0  0  0
  1  2  1  0
  2  3  1  0
  3  4  1  0
  4  5  1  0
  5  6  1  0
  6  7  1  0
  7  8  1  0
  5  9  1  0
  9  3  1  0
  8  5  1  0
  1 10  1  0
  1 11  1  0
  1 12  1  0
  2 13  1  0
  2 14  1  0
  3 15  1  0
  4 16  1  0
  4 17  1  0
  6 18  1  0
  6 19  1  0
  7 20  1  0
  7 21  1  0
  9 22  1  0
  9 23  1  0
M  END
