
     RDKit          3D

 20 21  0  0  0  0  0  0  0  0999 V2000
   -2.4641   -0.0250   -0.0089 C   0  0  0  0  0  0  0  0  0  0  0  0
   -1.3297    0.6890   -0.6853 C   0  0  0  0  0  0  0  0  0  0  0  0
   -0.0435    0.4553    0.0609 C   0  0  0  0  0  0  0  0  0  0  0  0
    0.2355   -1.0209    0.0824 C   0  0  0  0  0  0  0  0  0  0  0  0
    1.7176   -1.1939   -0.1270 C   0  0  0  0  0  0  0  0  0  0  0  0
    2.2812   -0.9769   -1.3667 O   0  0  0  0  0  0  0  0  0  0  0  0
    2.2759    0.0900   -0.4672 C   0  0  0  0  0  0  0  0  0  0  0  0
    1.1292    1.0476   -0.6865 C   0  0  0  0  0  0  0  0  0  0  0  0
   -3.2917    0.7315    0.1099 H   0  0  0  0  0  0  0  0  0  0  0  0
   -2.1908   -0.4211    0.9989 H   0  0  0  0  0  0  0  0  0  0  0  0
   -2.8237   -0.8923   -0.6016 H   0  0  0  0  0  0  0  0  0  0  0  0
   -1.4918    1.7653   -0.8013 H   0  0  0  0  0  0  0  0  0  0  0  0
   -1.1760    0.2512   -1.7146 H   0  0  0  0  0  0  0  0  0  0  0  0
   -0.0750    0.8905    1.0803 H   0  0  0  0  0  0  0  0  0  0  0  0
   -0.3698   -1.6008   -0.6314 H   0  0  0  0  0  0  0  0  0  0  0  0
    0.0076   -1.3872    1.1101 H   0  0  0  0  0  0  0  0  0  0  0  0
    2.2080   -1.9867    0.4595 H   0  0  0  0  0  0  0  0  0  0  0  0
    3.1964    0.4217    0.0145 H   0  0  0  0  0  0  0  0  0  0  0  0
    1.3607    2.0812   -0.3878 H   0  0  0  0  0  0  0  0  0  0  0  0
    0.8438    1.0816   -1.7610 H   0  0  0  0  0  0  0  0  0  0  0  0
  1  2  1  0
  2  3  1  0
  3  4  1  0
  4  5  1  0
  5  6  1  0
  6  7  1  0
  7  8  1  0
  8  3  1  0
  7  5  1  0
  1  9  1  0
  1 10  1  0
  1 11  1  0
  2 12  1  0
  2 13  1  0
  3 14  1  0
  4 15  1  0
  4 16  1  0
  5 17  1  0
  7 18  1  0
  8 19  1  0
  8 20  1  0
M  END
