
     RDKit          3D

 22 22  0  0  0  0  0  0  0  0999 V2000
    2.0694    0.4740   -0.8257 C   0  0  0  0  0  0  0  0  0  0  0  0
    1.1956   -0.5876   -0.2440 C   0  0  0  0  0  0  0  0  0  0  0  0
    0.1774   -0.0922    0.7275 C   0  0  0  0  0  0  0  0  0  0  0  0
    0.7091    0.5492    1.8353 O   0  0  0  0  0  0  0  0  0  0  0  0
   -0.7109   -1.2764    1.1464 C   0  0  0  0  0  0  0  0  0  0  0  0
   -1.5976   -0.8894   -0.0450 C   0  0  0  0  0  0  0  0  0  0  0  0
   -1.0743    0.5060    0.1531 C   0  0  0  0  0  0  0  0  0  0  0  0
   -0.9352    1.3639   -1.0432 C   0  0  0  0  0  0  0  0  0  0  0  0
    1.6652    0.9239   -1.7396 H   0  0  0  0  0  0  0  0  0  0  0  0
    2.3794    1.2393   -0.0602 H   0  0  0  0  0  0  0  0  0  0  0  0
    3.0319   -0.0282   -1.1363 H   0  0  0  0  0  0  0  0  0  0  0  0
    1.8709   -1.2925    0.3246 H   0  0  0  0  0  0  0  0  0  0  0  0
    0.7428   -1.1688   -1.0467 H   0  0  0  0  0  0  0  0  0  0  0  0
    0.3445    0.2116    2.6836 H   0  0  0  0  0  0  0  0  0  0  0  0
   -1.2239   -1.1242    2.1042 H   0  0  0  0  0  0  0  0  0  0  0  0
   -0.2435   -2.2635    0.9840 H   0  0  0  0  0  0  0  0  0  0  0  0
   -2.6497   -1.0672    0.1888 H   0  0  0  0  0  0  0  0  0  0  0  0
   -1.3081   -1.3875   -0.9837 H   0  0  0  0  0  0  0  0  0  0  0  0
   -1.6445    1.0296    0.9583 H   0  0  0  0  0  0  0  0  0  0  0  0
   -0.7205    0.8062   -1.9712 H   0  0  0  0  0  0  0  0  0  0  0  0
   -0.1794    2.1555   -0.8234 H   0  0  0  0  0  0  0  0  0  0  0  0
   -1.8987    1.9182   -1.1869 H   0  0  0  0  0  0  0  0  0  0  0  0
  1  2  1  0
  2  3  1  0
  3  4  1  0
  3  5  1  0
  5  6  1  0
  6  7  1  0
  7  8  1  0
  7  3  1  0
  1  9  1  0
  1 10  1  0
  1 11  1  0
  2 12  1  0
  2 13  1  0
  4 14  1  0
  5 15  1  0
  5 16  1  0
  6 17  1  0
  6 18  1  0
  7 19  1  0
  8 20  1  0
  8 21  1  0
  8 22  1  0
M  END
