
     RDKit          3D

 18 18  0  0  0  0  0  0  0  0999 V2000
    2.2426    0.2027   -0.7700 C   0  0  0  0  0  0  0  0  0  0  0  0
    1.4294   -0.3141    0.3686 C   0  0  0  0  0  0  0  0  0  0  0  0
    0.0578    0.3049    0.4670 C   0  0  0  0  0  0  0  0  0  0  0  0
   -0.6686   -0.2726    1.6256 C   0  0  0  0  0  0  0  0  0  0  0  0
   -0.8292    0.1394    2.7971 O   0  0  0  0  0  0  0  0  0  0  0  0
   -1.0076   -1.3404    0.8123 O   0  0  0  0  0  0  0  0  0  0  0  0
   -1.0196   -0.4418   -0.2837 C   0  0  0  0  0  0  0  0  0  0  0  0
   -2.3157    0.2848   -0.3462 C   0  0  0  0  0  0  0  0  0  0  0  0
    2.2170   -0.4998   -1.6529 H   0  0  0  0  0  0  0  0  0  0  0  0
    1.9692    1.2143   -1.0919 H   0  0  0  0  0  0  0  0  0  0  0  0
    3.3341    0.2517   -0.4919 H   0  0  0  0  0  0  0  0  0  0  0  0
    1.9544   -0.1215    1.3509 H   0  0  0  0  0  0  0  0  0  0  0  0
    1.2988   -1.4168    0.3069 H   0  0  0  0  0  0  0  0  0  0  0  0
    0.0223    1.4041    0.3835 H   0  0  0  0  0  0  0  0  0  0  0  0
   -0.7043   -0.8878   -1.2506 H   0  0  0  0  0  0  0  0  0  0  0  0
   -2.1867    1.2956    0.0860 H   0  0  0  0  0  0  0  0  0  0  0  0
   -2.6572    0.4410   -1.4091 H   0  0  0  0  0  0  0  0  0  0  0  0
   -3.1368   -0.2437    0.2044 H   0  0  0  0  0  0  0  0  0  0  0  0
  1  2  1  0
  2  3  1  0
  3  4  1  0
  4  5  2  0
  4  6  1  0
  6  7  1  0
  7  8  1  0
  7  3  1  0
  1  9  1  0
  1 10  1  0
  1 11  1  0
  2 12  1  0
  2 13  1  0
  3 14  1  0
  7 15  1  0
  8 16  1  0
  8 17  1  0
  8 18  1  0
M  END
