
     RDKit          3D

 23 24  0  0  0  0  0  0  0  0999 V2000
    2.2154    0.8361    0.3580 C   0  0  0  0  0  0  0  0  0  0  0  0
    1.9110    0.4044   -1.0332 C   0  0  0  0  0  0  0  0  0  0  0  0
    0.5028   -0.1225   -1.2215 C   0  0  0  0  0  0  0  0  0  0  0  0
   -0.6150    0.6989   -0.9515 C   0  0  0  0  0  0  0  0  0  0  0  0
   -1.9428    0.4721   -0.8176 O   0  0  0  0  0  0  0  0  0  0  0  0
   -2.0896    0.5008    0.5966 C   0  0  0  0  0  0  0  0  0  0  0  0
   -0.7268    0.0178    1.1390 C   0  0  0  0  0  0  0  0  0  0  0  0
   -0.2136   -0.5890   -0.1137 C   0  0  0  0  0  0  0  0  0  0  0  0
   -1.0835   -1.8339   -0.4156 C   0  0  0  0  0  0  0  0  0  0  0  0
    1.9573    0.0086    1.0694 H   0  0  0  0  0  0  0  0  0  0  0  0
    3.3414    0.9153    0.4298 H   0  0  0  0  0  0  0  0  0  0  0  0
    1.8313    1.8106    0.6506 H   0  0  0  0  0  0  0  0  0  0  0  0
    2.0951    1.2309   -1.7470 H   0  0  0  0  0  0  0  0  0  0  0  0
    2.6688   -0.3854   -1.3004 H   0  0  0  0  0  0  0  0  0  0  0  0
    0.4454   -0.6547   -2.2204 H   0  0  0  0  0  0  0  0  0  0  0  0
   -0.3509    1.6914   -0.4773 H   0  0  0  0  0  0  0  0  0  0  0  0
   -2.8905   -0.2137    0.8915 H   0  0  0  0  0  0  0  0  0  0  0  0
   -2.3165    1.5177    0.9262 H   0  0  0  0  0  0  0  0  0  0  0  0
   -0.2227    0.9094    1.4974 H   0  0  0  0  0  0  0  0  0  0  0  0
   -0.8608   -0.7497    1.9106 H   0  0  0  0  0  0  0  0  0  0  0  0
   -1.3450   -2.3803    0.4807 H   0  0  0  0  0  0  0  0  0  0  0  0
   -1.9097   -1.5737   -1.0864 H   0  0  0  0  0  0  0  0  0  0  0  0
   -0.4011   -2.5110   -1.0094 H   0  0  0  0  0  0  0  0  0  0  0  0
  1  2  1  0
  2  3  1  0
  3  4  1  0
  4  5  1  0
  5  6  1  0
  6  7  1  0
  7  8  1  0
  8  9  1  0
  8  3  1  0
  8  4  1  0
  1 10  1  0
  1 11  1  0
  1 12  1  0
  2 13  1  0
  2 14  1  0
  3 15  1  0
  4 16  1  0
  6 17  1  0
  6 18  1  0
  7 19  1  0
  7 20  1  0
  9 21  1  0
  9 22  1  0
  9 23  1  0
M  END
