
     RDKit          3D

 25 25  0  0  0  0  0  0  0  0999 V2000
    2.3573    1.3801   -0.4003 C   0  0  0  0  0  0  0  0  0  0  0  0
    1.0715    0.7684   -0.8484 C   0  0  0  0  0  0  0  0  0  0  0  0
    0.5913   -0.3699   -0.0248 C   0  0  0  0  0  0  0  0  0  0  0  0
    1.4935   -1.5392    0.0601 C   0  0  0  0  0  0  0  0  0  0  0  0
    0.1889    0.0858    1.3680 C   0  0  0  0  0  0  0  0  0  0  0  0
   -1.2540    0.4154    1.2427 C   0  0  0  0  0  0  0  0  0  0  0  0
   -1.7906   -0.0886    0.1553 C   0  0  0  0  0  0  0  0  0  0  0  0
   -3.2306    0.0687   -0.2558 C   0  0  0  0  0  0  0  0  0  0  0  0
   -0.7427   -0.8270   -0.5753 C   0  0  0  0  0  0  0  0  0  0  0  0
    2.4957    2.3211   -1.0105 H   0  0  0  0  0  0  0  0  0  0  0  0
    3.2398    0.7291   -0.5669 H   0  0  0  0  0  0  0  0  0  0  0  0
    2.3105    1.7181    0.6448 H   0  0  0  0  0  0  0  0  0  0  0  0
    1.1343    0.4888   -1.9204 H   0  0  0  0  0  0  0  0  0  0  0  0
    0.2902    1.5702   -0.8003 H   0  0  0  0  0  0  0  0  0  0  0  0
    2.5621   -1.3150    0.1453 H   0  0  0  0  0  0  0  0  0  0  0  0
    1.2685   -2.2685   -0.7715 H   0  0  0  0  0  0  0  0  0  0  0  0
    1.2232   -2.1125    0.9946 H   0  0  0  0  0  0  0  0  0  0  0  0
    0.7587    0.9450    1.7167 H   0  0  0  0  0  0  0  0  0  0  0  0
    0.2723   -0.7581    2.0870 H   0  0  0  0  0  0  0  0  0  0  0  0
   -1.7546    1.0198    2.0131 H   0  0  0  0  0  0  0  0  0  0  0  0
   -3.9162   -0.3827    0.4654 H   0  0  0  0  0  0  0  0  0  0  0  0
   -3.5055    1.1321   -0.3851 H   0  0  0  0  0  0  0  0  0  0  0  0
   -3.3774   -0.4240   -1.2338 H   0  0  0  0  0  0  0  0  0  0  0  0
   -0.8720   -1.9329   -0.4350 H   0  0  0  0  0  0  0  0  0  0  0  0
   -0.8141   -0.6241   -1.6645 H   0  0  0  0  0  0  0  0  0  0  0  0
  1  2  1  0
  2  3  1  0
  3  4  1  0
  3  5  1  0
  5  6  1  0
  6  7  2  0
  7  8  1  0
  7  9  1  0
  9  3  1  0
  1 10  1  0
  1 11  1  0
  1 12  1  0
  2 13  1  0
  2 14  1  0
  4 15  1  0
  4 16  1  0
  4 17  1  0
  5 18  1  0
  5 19  1  0
  6 20  1  0
  8 21  1  0
  8 22  1  0
  8 23  1  0
  9 24  1  0
  9 25  1  0
M  END
