
     RDKit          3D

 22 22  0  0  0  0  0  0  0  0999 V2000
    2.7031   -0.6572   -0.0133 C   0  0  0  0  0  0  0  0  0  0  0  0
    1.7468    0.4501   -0.4754 C   0  0  0  0  0  0  0  0  0  0  0  0
    0.5496    0.3848    0.4318 C   0  0  0  0  0  0  0  0  0  0  0  0
   -0.1950   -0.9345    0.4055 C   0  0  0  0  0  0  0  0  0  0  0  0
   -1.4556   -0.0955    0.6438 C   0  0  0  0  0  0  0  0  0  0  0  0
   -2.6867   -0.6087   -0.0178 C   0  0  0  0  0  0  0  0  0  0  0  0
   -0.7209    0.9969   -0.1402 C   0  0  0  0  0  0  0  0  0  0  0  0
   -0.9869    2.2803    0.2771 O   0  0  0  0  0  0  0  0  0  0  0  0
    3.6423   -0.5602   -0.5788 H   0  0  0  0  0  0  0  0  0  0  0  0
    2.9650   -0.5135    1.0666 H   0  0  0  0  0  0  0  0  0  0  0  0
    2.2819   -1.6481   -0.2122 H   0  0  0  0  0  0  0  0  0  0  0  0
    1.4875    0.2070   -1.5209 H   0  0  0  0  0  0  0  0  0  0  0  0
    2.3024    1.3830   -0.3986 H   0  0  0  0  0  0  0  0  0  0  0  0
    0.7867    0.6573    1.4616 H   0  0  0  0  0  0  0  0  0  0  0  0
   -0.2166   -1.3387   -0.6357 H   0  0  0  0  0  0  0  0  0  0  0  0
    0.0415   -1.6441    1.1940 H   0  0  0  0  0  0  0  0  0  0  0  0
   -1.5381    0.1096    1.7276 H   0  0  0  0  0  0  0  0  0  0  0  0
   -3.3121    0.2205   -0.4566 H   0  0  0  0  0  0  0  0  0  0  0  0
   -2.4183   -1.2663   -0.8535 H   0  0  0  0  0  0  0  0  0  0  0  0
   -3.3404   -1.1004    0.7262 H   0  0  0  0  0  0  0  0  0  0  0  0
   -0.7785    0.7976   -1.2191 H   0  0  0  0  0  0  0  0  0  0  0  0
   -0.8577    2.8802   -0.5133 H   0  0  0  0  0  0  0  0  0  0  0  0
  1  2  1  0
  2  3  1  0
  3  4  1  0
  4  5  1  0
  5  6  1  0
  5  7  1  0
  7  8  1  0
  7  3  1  0
  1  9  1  0
  1 10  1  0
  1 11  1  0
  2 12  1  0
  2 13  1  0
  3 14  1  0
  4 15  1  0
  4 16  1  0
  5 17  1  0
  6 18  1  0
  6 19  1  0
  6 20  1  0
  7 21  1  0
  8 22  1  0
M  END
