
     RDKit          3D

 23 24  0  0  0  0  0  0  0  0999 V2000
    2.5667   -0.3680    0.1154 C   0  0  0  0  0  0  0  0  0  0  0  0
    1.5349    0.5900   -0.3999 C   0  0  0  0  0  0  0  0  0  0  0  0
    0.2021   -0.0574   -0.6690 C   0  0  0  0  0  0  0  0  0  0  0  0
   -0.7278    1.0234   -1.1791 C   0  0  0  0  0  0  0  0  0  0  0  0
   -1.4809    1.5041    0.0422 C   0  0  0  0  0  0  0  0  0  0  0  0
   -1.4107    0.4329    1.0729 C   0  0  0  0  0  0  0  0  0  0  0  0
   -0.2428    0.1016    1.7113 O   0  0  0  0  0  0  0  0  0  0  0  0
   -0.4486   -0.6076    0.5575 C   0  0  0  0  0  0  0  0  0  0  0  0
   -1.0003   -2.0028    0.5785 C   0  0  0  0  0  0  0  0  0  0  0  0
    3.0229   -0.9615   -0.7043 H   0  0  0  0  0  0  0  0  0  0  0  0
    3.3963    0.2311    0.5622 H   0  0  0  0  0  0  0  0  0  0  0  0
    2.0881   -1.0091    0.8931 H   0  0  0  0  0  0  0  0  0  0  0  0
    1.9086    0.9577   -1.3970 H   0  0  0  0  0  0  0  0  0  0  0  0
    1.3793    1.4563    0.2506 H   0  0  0  0  0  0  0  0  0  0  0  0
    0.3468   -0.8751   -1.3848 H   0  0  0  0  0  0  0  0  0  0  0  0
   -1.3839    0.5803   -1.9467 H   0  0  0  0  0  0  0  0  0  0  0  0
   -0.1902    1.8763   -1.6131 H   0  0  0  0  0  0  0  0  0  0  0  0
   -1.1488    2.4954    0.3906 H   0  0  0  0  0  0  0  0  0  0  0  0
   -2.5428    1.6166   -0.2653 H   0  0  0  0  0  0  0  0  0  0  0  0
   -2.3375    0.1196    1.5920 H   0  0  0  0  0  0  0  0  0  0  0  0
   -0.7901   -2.4652    1.5674 H   0  0  0  0  0  0  0  0  0  0  0  0
   -2.1156   -1.9933    0.4647 H   0  0  0  0  0  0  0  0  0  0  0  0
   -0.6258   -2.6453   -0.2392 H   0  0  0  0  0  0  0  0  0  0  0  0
  1  2  1  0
  2  3  1  0
  3  4  1  0
  4  5  1  0
  5  6  1  0
  6  7  1  0
  7  8  1  0
  8  9  1  0
  8  3  1  0
  8  6  1  0
  1 10  1  0
  1 11  1  0
  1 12  1  0
  2 13  1  0
  2 14  1  0
  3 15  1  0
  4 16  1  0
  4 17  1  0
  5 18  1  0
  5 19  1  0
  6 20  1  0
  9 21  1  0
  9 22  1  0
  9 23  1  0
M  END
