
     RDKit          3D

 21 23  0  0  0  0  0  0  0  0999 V2000
    2.4970    0.7808    0.1241 C   0  0  0  0  0  0  0  0  0  0  0  0
    2.0611   -0.6420    0.0467 C   0  0  0  0  0  0  0  0  0  0  0  0
    0.6088   -0.8652   -0.0751 C   0  0  0  0  0  0  0  0  0  0  0  0
   -0.2572   -0.3219    1.0720 C   0  0  0  0  0  0  0  0  0  0  0  0
   -1.2649   -0.0094    0.0281 C   0  0  0  0  0  0  0  0  0  0  0  0
   -2.6716   -0.3213    0.0836 C   0  0  0  0  0  0  0  0  0  0  0  0
   -2.1181    1.1355   -0.0332 C   0  0  0  0  0  0  0  0  0  0  0  0
   -0.3119   -0.4754   -1.0203 C   0  0  0  0  0  0  0  0  0  0  0  0
    0.0656   -1.8194   -0.9074 O   0  0  0  0  0  0  0  0  0  0  0  0
    2.0294    1.2960    0.9815 H   0  0  0  0  0  0  0  0  0  0  0  0
    2.2730    1.2934   -0.8485 H   0  0  0  0  0  0  0  0  0  0  0  0
    3.6116    0.7877    0.2039 H   0  0  0  0  0  0  0  0  0  0  0  0
    2.4095   -1.1437    0.9972 H   0  0  0  0  0  0  0  0  0  0  0  0
    2.6167   -1.1357   -0.7628 H   0  0  0  0  0  0  0  0  0  0  0  0
    0.2460    0.5032    1.5748 H   0  0  0  0  0  0  0  0  0  0  0  0
   -0.5042   -1.1938    1.7446 H   0  0  0  0  0  0  0  0  0  0  0  0
   -3.2817   -0.6816   -0.7506 H   0  0  0  0  0  0  0  0  0  0  0  0
   -3.1046   -0.5770    1.0921 H   0  0  0  0  0  0  0  0  0  0  0  0
   -2.3246    1.6133   -1.0175 H   0  0  0  0  0  0  0  0  0  0  0  0
   -2.3372    1.7929    0.8188 H   0  0  0  0  0  0  0  0  0  0  0  0
   -0.2429   -0.0163   -2.0037 H   0  0  0  0  0  0  0  0  0  0  0  0
  1  2  1  0
  2  3  1  0
  3  4  1  0
  4  5  1  0
  5  6  1  0
  6  7  1  0
  5  8  1  0
  8  9  1  0
  8  3  1  0
  9  3  1  0
  7  5  1  0
  1 10  1  0
  1 11  1  0
  1 12  1  0
  2 13  1  0
  2 14  1  0
  4 15  1  0
  4 16  1  0
  6 17  1  0
  6 18  1  0
  7 19  1  0
  7 20  1  0
  8 21  1  0
M  END
