
     RDKit          3D

 21 22  0  0  0  0  0  0  0  0999 V2000
    2.6310    0.1579   -0.4963 C   0  0  0  0  0  0  0  0  0  0  0  0
    1.6387    0.1487    0.6397 C   0  0  0  0  0  0  0  0  0  0  0  0
    0.3028   -0.4051    0.2377 C   0  0  0  0  0  0  0  0  0  0  0  0
   -0.5792   -0.3576    1.4462 C   0  0  0  0  0  0  0  0  0  0  0  0
   -1.8567   -0.0642    1.2222 C   0  0  0  0  0  0  0  0  0  0  0  0
   -2.1784    0.5167   -0.1116 C   0  0  0  0  0  0  0  0  0  0  0  0
   -1.6532   -0.3911   -1.2063 C   0  0  0  0  0  0  0  0  0  0  0  0
   -0.3800    0.3472   -0.8475 C   0  0  0  0  0  0  0  0  0  0  0  0
   -1.1493    1.4126   -0.4132 O   0  0  0  0  0  0  0  0  0  0  0  0
    3.5286    0.7094   -0.1343 H   0  0  0  0  0  0  0  0  0  0  0  0
    2.9090   -0.8520   -0.7890 H   0  0  0  0  0  0  0  0  0  0  0  0
    2.2662    0.6934   -1.3807 H   0  0  0  0  0  0  0  0  0  0  0  0
    2.0545   -0.5443    1.4135 H   0  0  0  0  0  0  0  0  0  0  0  0
    1.5405    1.1267    1.1250 H   0  0  0  0  0  0  0  0  0  0  0  0
    0.3822   -1.4747   -0.0397 H   0  0  0  0  0  0  0  0  0  0  0  0
   -0.1825   -0.5536    2.4388 H   0  0  0  0  0  0  0  0  0  0  0  0
   -2.5703   -0.2578    1.9980 H   0  0  0  0  0  0  0  0  0  0  0  0
   -3.1928    0.8913   -0.2425 H   0  0  0  0  0  0  0  0  0  0  0  0
   -2.0613   -0.1877   -2.1964 H   0  0  0  0  0  0  0  0  0  0  0  0
   -1.6484   -1.4515   -0.8926 H   0  0  0  0  0  0  0  0  0  0  0  0
    0.1985    0.5356   -1.7711 H   0  0  0  0  0  0  0  0  0  0  0  0
  1  2  1  0
  2  3  1  0
  3  4  1  0
  4  5  2  0
  5  6  1  0
  6  7  1  0
  7  8  1  0
  8  9  1  0
  8  3  1  0
  9  6  1  0
  1 10  1  0
  1 11  1  0
  1 12  1  0
  2 13  1  0
  2 14  1  0
  3 15  1  0
  4 16  1  0
  5 17  1  0
  6 18  1  0
  7 19  1  0
  7 20  1  0
  8 21  1  0
M  END
