
     RDKit          3D

 23 24  0  0  0  0  0  0  0  0999 V2000
    2.8209   -0.1913   -0.2868 C   0  0  0  0  0  0  0  0  0  0  0  0
    1.3262   -0.4514   -0.6176 C   0  0  0  0  0  0  0  0  0  0  0  0
    0.5953    0.5899    0.1052 C   0  0  0  0  0  0  0  0  0  0  0  0
    0.8673    0.4562    1.5042 C   0  0  0  0  0  0  0  0  0  0  0  0
   -0.5032    0.4406    1.1441 C   0  0  0  0  0  0  0  0  0  0  0  0
   -1.2482    0.1975   -0.1119 C   0  0  0  0  0  0  0  0  0  0  0  0
   -2.6469    0.8562   -0.2045 C   0  0  0  0  0  0  0  0  0  0  0  0
   -1.3495   -1.1646   -0.6520 C   0  0  0  0  0  0  0  0  0  0  0  0
   -0.3839    1.1385   -0.6349 O   0  0  0  0  0  0  0  0  0  0  0  0
    3.4593   -0.7786   -0.9540 H   0  0  0  0  0  0  0  0  0  0  0  0
    3.0243    0.9019   -0.3969 H   0  0  0  0  0  0  0  0  0  0  0  0
    3.0019   -0.5444    0.7448 H   0  0  0  0  0  0  0  0  0  0  0  0
    1.3332   -0.3264   -1.7425 H   0  0  0  0  0  0  0  0  0  0  0  0
    1.1901   -1.4941   -0.3089 H   0  0  0  0  0  0  0  0  0  0  0  0
    1.4708    1.3086    1.9461 H   0  0  0  0  0  0  0  0  0  0  0  0
    1.2101   -0.4892    2.0269 H   0  0  0  0  0  0  0  0  0  0  0  0
   -0.9468    1.3935    1.5851 H   0  0  0  0  0  0  0  0  0  0  0  0
   -2.8351    1.1458   -1.2546 H   0  0  0  0  0  0  0  0  0  0  0  0
   -2.6794    1.7215    0.4678 H   0  0  0  0  0  0  0  0  0  0  0  0
   -3.3775    0.0756    0.0709 H   0  0  0  0  0  0  0  0  0  0  0  0
   -0.8109   -1.3557   -1.6158 H   0  0  0  0  0  0  0  0  0  0  0  0
   -1.1065   -1.9626    0.1149 H   0  0  0  0  0  0  0  0  0  0  0  0
   -2.4116   -1.4675   -0.9296 H   0  0  0  0  0  0  0  0  0  0  0  0
  1  2  1  0
  2  3  1  0
  3  4  1  0
  4  5  1  0
  5  6  1  0
  6  7  1  0
  6  8  1  0
  6  9  1  0
  5  3  1  0
  9  3  1  0
  1 10  1  0
  1 11  1  0
  1 12  1  0
  2 13  1  0
  2 14  1  0
  4 15  1  0
  4 16  1  0
  5 17  1  0
  7 18  1  0
  7 19  1  0
  7 20  1  0
  8 21  1  0
  8 22  1  0
  8 23  1  0
M  END
