
     RDKit          3D

 19 20  0  0  0  0  0  0  0  0999 V2000
   -2.0894   -0.6990    0.5768 C   0  0  0  0  0  0  0  0  0  0  0  0
   -1.4582    0.5574    0.0759 C   0  0  0  0  0  0  0  0  0  0  0  0
    0.0121    0.5016   -0.0826 C   0  0  0  0  0  0  0  0  0  0  0  0
    0.5272    1.6957   -0.5484 O   0  0  0  0  0  0  0  0  0  0  0  0
    0.6179   -0.7258   -0.6651 C   0  0  0  0  0  0  0  0  0  0  0  0
    0.2442   -1.3871    0.4970 O   0  0  0  0  0  0  0  0  0  0  0  0
    0.7537   -0.1777    1.0035 C   0  0  0  0  0  0  0  0  0  0  0  0
    1.8894   -0.3819    0.0523 C   0  0  0  0  0  0  0  0  0  0  0  0
    2.5418    0.7599   -0.3546 O   0  0  0  0  0  0  0  0  0  0  0  0
   -3.1935   -0.4945    0.6691 H   0  0  0  0  0  0  0  0  0  0  0  0
   -1.7596   -0.9348    1.6121 H   0  0  0  0  0  0  0  0  0  0  0  0
   -2.0050   -1.5462   -0.1187 H   0  0  0  0  0  0  0  0  0  0  0  0
   -1.9699    0.8448   -0.8805 H   0  0  0  0  0  0  0  0  0  0  0  0
   -1.6987    1.3652    0.8236 H   0  0  0  0  0  0  0  0  0  0  0  0
    0.2600    2.4011    0.1223 H   0  0  0  0  0  0  0  0  0  0  0  0
    0.5335   -1.0743   -1.6078 H   0  0  0  0  0  0  0  0  0  0  0  0
    0.8084    0.0570    1.9786 H   0  0  0  0  0  0  0  0  0  0  0  0
    2.5195   -1.2713    0.2565 H   0  0  0  0  0  0  0  0  0  0  0  0
    3.4666    0.5098   -0.6423 H   0  0  0  0  0  0  0  0  0  0  0  0
  1  2  1  0
  2  3  1  0
  3  4  1  0
  3  5  1  0
  5  6  1  0
  6  7  1  0
  7  8  1  0
  8  9  1  0
  7  3  1  0
  8  5  1  0
  1 10  1  0
  1 11  1  0
  1 12  1  0
  2 13  1  0
  2 14  1  0
  4 15  1  0
  5 16  1  0
  7 17  1  0
  8 18  1  0
  9 19  1  0
M  END
