
     RDKit          3D

 23 24  0  0  0  0  0  0  0  0999 V2000
    2.2848   -0.4980    0.3588 C   0  0  0  0  0  0  0  0  0  0  0  0
    1.6136    0.5157   -0.5189 C   0  0  0  0  0  0  0  0  0  0  0  0
    0.1246    0.3286   -0.6196 C   0  0  0  0  0  0  0  0  0  0  0  0
   -0.3439   -0.9749   -1.1712 C   0  0  0  0  0  0  0  0  0  0  0  0
   -1.3069   -1.5784   -0.1724 C   0  0  0  0  0  0  0  0  0  0  0  0
   -1.9479   -0.3671    0.4296 C   0  0  0  0  0  0  0  0  0  0  0  0
   -0.7829    0.6051    0.5074 C   0  0  0  0  0  0  0  0  0  0  0  0
   -0.6897    1.5472   -0.6396 C   0  0  0  0  0  0  0  0  0  0  0  0
   -0.0533    2.7510   -0.3710 O   0  0  0  0  0  0  0  0  0  0  0  0
    1.8845   -1.5177    0.2577 H   0  0  0  0  0  0  0  0  0  0  0  0
    2.3184   -0.1585    1.4332 H   0  0  0  0  0  0  0  0  0  0  0  0
    3.3551   -0.5405    0.0470 H   0  0  0  0  0  0  0  0  0  0  0  0
    2.0204    0.3518   -1.5601 H   0  0  0  0  0  0  0  0  0  0  0  0
    1.8921    1.5214   -0.2035 H   0  0  0  0  0  0  0  0  0  0  0  0
    0.5128   -1.6872   -1.2456 H   0  0  0  0  0  0  0  0  0  0  0  0
   -0.8816   -0.8950   -2.1304 H   0  0  0  0  0  0  0  0  0  0  0  0
   -2.0314   -2.2223   -0.7049 H   0  0  0  0  0  0  0  0  0  0  0  0
   -0.7468   -2.1569    0.5852 H   0  0  0  0  0  0  0  0  0  0  0  0
   -2.7155    0.0013   -0.2948 H   0  0  0  0  0  0  0  0  0  0  0  0
   -2.3996   -0.5644    1.4222 H   0  0  0  0  0  0  0  0  0  0  0  0
   -0.4308    0.8718    1.5175 H   0  0  0  0  0  0  0  0  0  0  0  0
   -1.5634    1.6740   -1.3330 H   0  0  0  0  0  0  0  0  0  0  0  0
   -0.1128    2.9932    0.6045 H   0  0  0  0  0  0  0  0  0  0  0  0
  1  2  1  0
  2  3  1  0
  3  4  1  0
  4  5  1  0
  5  6  1  0
  6  7  1  0
  7  8  1  0
  8  9  1  0
  7  3  1  0
  8  3  1  0
  1 10  1  0
  1 11  1  0
  1 12  1  0
  2 13  1  0
  2 14  1  0
  4 15  1  0
  4 16  1  0
  5 17  1  0
  5 18  1  0
  6 19  1  0
  6 20  1  0
  7 21  1  0
  8 22  1  0
  9 23  1  0
M  END
