
     RDKit          3D

 21 22  0  0  0  0  0  0  0  0999 V2000
    2.5571   -0.3933    0.2880 C   0  0  0  0  0  0  0  0  0  0  0  0
    1.5208   -0.1696   -0.7920 C   0  0  0  0  0  0  0  0  0  0  0  0
    0.2019   -0.0711   -0.1656 C   0  0  0  0  0  0  0  0  0  0  0  0
    0.0347    1.0287    0.8205 C   0  0  0  0  0  0  0  0  0  0  0  0
   -1.2767    1.2060    0.9500 C   0  0  0  0  0  0  0  0  0  0  0  0
   -1.9706    0.2795   -0.0177 C   0  0  0  0  0  0  0  0  0  0  0  0
   -1.6989   -1.1069    0.4419 C   0  0  0  0  0  0  0  0  0  0  0  0
   -0.2988   -1.2200    0.3878 O   0  0  0  0  0  0  0  0  0  0  0  0
   -0.9167    0.3475   -1.1449 C   0  0  0  0  0  0  0  0  0  0  0  0
    3.0837   -1.3464    0.2082 H   0  0  0  0  0  0  0  0  0  0  0  0
    2.0999   -0.3665    1.3086 H   0  0  0  0  0  0  0  0  0  0  0  0
    3.2679    0.4809    0.2448 H   0  0  0  0  0  0  0  0  0  0  0  0
    1.8054    0.6327   -1.4720 H   0  0  0  0  0  0  0  0  0  0  0  0
    1.5285   -1.1167   -1.4062 H   0  0  0  0  0  0  0  0  0  0  0  0
    0.8105    1.5730    1.3282 H   0  0  0  0  0  0  0  0  0  0  0  0
   -1.7489    1.9006    1.6372 H   0  0  0  0  0  0  0  0  0  0  0  0
   -2.9450    0.5577   -0.3048 H   0  0  0  0  0  0  0  0  0  0  0  0
   -2.0790   -1.8077   -0.3501 H   0  0  0  0  0  0  0  0  0  0  0  0
   -2.0992   -1.3505    1.4369 H   0  0  0  0  0  0  0  0  0  0  0  0
   -1.1053   -0.4186   -1.8947 H   0  0  0  0  0  0  0  0  0  0  0  0
   -0.7714    1.3607   -1.5043 H   0  0  0  0  0  0  0  0  0  0  0  0
  1  2  1  0
  2  3  1  0
  3  4  1  0
  4  5  2  0
  5  6  1  0
  6  7  1  0
  7  8  1  0
  6  9  1  0
  8  3  1  0
  9  3  1  0
  1 10  1  0
  1 11  1  0
  1 12  1  0
  2 13  1  0
  2 14  1  0
  4 15  1  0
  5 16  1  0
  6 17  1  0
  7 18  1  0
  7 19  1  0
  9 20  1  0
  9 21  1  0
M  END
