
     RDKit          3D

 25 25  0  0  0  0  0  0  0  0999 V2000
    2.9274   -0.0729   -0.4909 C   0  0  0  0  0  0  0  0  0  0  0  0
    1.5989   -0.7964   -0.5519 C   0  0  0  0  0  0  0  0  0  0  0  0
    0.4806    0.0597   -0.0715 C   0  0  0  0  0  0  0  0  0  0  0  0
    0.6353    1.3063    0.3577 C   0  0  0  0  0  0  0  0  0  0  0  0
   -0.6715    1.8926    0.7691 C   0  0  0  0  0  0  0  0  0  0  0  0
   -1.6434    1.0552   -0.0266 C   0  0  0  0  0  0  0  0  0  0  0  0
   -0.9698   -0.3021    0.0150 C   0  0  0  0  0  0  0  0  0  0  0  0
   -1.4474   -1.1001   -1.1437 C   0  0  0  0  0  0  0  0  0  0  0  0
   -1.1782   -0.9981    1.3334 C   0  0  0  0  0  0  0  0  0  0  0  0
    3.2242    0.0949    0.5663 H   0  0  0  0  0  0  0  0  0  0  0  0
    2.8523    0.9551   -0.9526 H   0  0  0  0  0  0  0  0  0  0  0  0
    3.7150   -0.6544   -0.9694 H   0  0  0  0  0  0  0  0  0  0  0  0
    1.4493   -1.0924   -1.6122 H   0  0  0  0  0  0  0  0  0  0  0  0
    1.7012   -1.6913    0.1060 H   0  0  0  0  0  0  0  0  0  0  0  0
    1.5914    1.8174    0.3982 H   0  0  0  0  0  0  0  0  0  0  0  0
   -0.8848    1.7093    1.8504 H   0  0  0  0  0  0  0  0  0  0  0  0
   -0.7389    2.9704    0.5320 H   0  0  0  0  0  0  0  0  0  0  0  0
   -1.6447    1.3724   -1.0893 H   0  0  0  0  0  0  0  0  0  0  0  0
   -2.6564    1.0301    0.4145 H   0  0  0  0  0  0  0  0  0  0  0  0
   -2.3652   -0.6769   -1.6209 H   0  0  0  0  0  0  0  0  0  0  0  0
   -0.6873   -1.1624   -1.9469 H   0  0  0  0  0  0  0  0  0  0  0  0
   -1.7372   -2.1356   -0.8334 H   0  0  0  0  0  0  0  0  0  0  0  0
   -2.2391   -1.2332    1.5399 H   0  0  0  0  0  0  0  0  0  0  0  0
   -0.6070   -1.9492    1.2870 H   0  0  0  0  0  0  0  0  0  0  0  0
   -0.7048   -0.3985    2.1398 H   0  0  0  0  0  0  0  0  0  0  0  0
  1  2  1  0
  2  3  1  0
  3  4  2  0
  4  5  1  0
  5  6  1  0
  6  7  1  0
  7  8  1  0
  7  9  1  0
  7  3  1  0
  1 10  1  0
  1 11  1  0
  1 12  1  0
  2 13  1  0
  2 14  1  0
  4 15  1  0
  5 16  1  0
  5 17  1  0
  6 18  1  0
  6 19  1  0
  8 20  1  0
  8 21  1  0
  8 22  1  0
  9 23  1  0
  9 24  1  0
  9 25  1  0
M  END
