
     RDKit          3D

 23 23  0  0  0  0  0  0  0  0999 V2000
    1.6721   -1.1535   -0.5955 C   0  0  0  0  0  0  0  0  0  0  0  0
    1.4521    0.2809   -0.2483 C   0  0  0  0  0  0  0  0  0  0  0  0
    0.0996    0.5799    0.2976 C   0  0  0  0  0  0  0  0  0  0  0  0
   -0.0387    2.0557    0.6241 C   0  0  0  0  0  0  0  0  0  0  0  0
   -0.2516   -0.1691    1.5279 C   0  0  0  0  0  0  0  0  0  0  0  0
   -1.1028   -1.1498    1.3182 C   0  0  0  0  0  0  0  0  0  0  0  0
   -1.4372   -1.1828   -0.1177 C   0  0  0  0  0  0  0  0  0  0  0  0
   -1.0309    0.1563   -0.6267 C   0  0  0  0  0  0  0  0  0  0  0  0
   -0.5306    0.1286   -1.9222 O   0  0  0  0  0  0  0  0  0  0  0  0
    2.7739   -1.3050   -0.7013 H   0  0  0  0  0  0  0  0  0  0  0  0
    1.2449   -1.4278   -1.5786 H   0  0  0  0  0  0  0  0  0  0  0  0
    1.3602   -1.8330    0.2197 H   0  0  0  0  0  0  0  0  0  0  0  0
    1.5466    0.8647   -1.2010 H   0  0  0  0  0  0  0  0  0  0  0  0
    2.2390    0.6578    0.4119 H   0  0  0  0  0  0  0  0  0  0  0  0
   -1.1047    2.3372    0.7224 H   0  0  0  0  0  0  0  0  0  0  0  0
    0.3885    2.6132   -0.2388 H   0  0  0  0  0  0  0  0  0  0  0  0
    0.4667    2.2982    1.5631 H   0  0  0  0  0  0  0  0  0  0  0  0
    0.1603    0.0749    2.5110 H   0  0  0  0  0  0  0  0  0  0  0  0
   -1.5202   -1.8540    2.0734 H   0  0  0  0  0  0  0  0  0  0  0  0
   -0.8729   -2.0179   -0.6275 H   0  0  0  0  0  0  0  0  0  0  0  0
   -2.5186   -1.3993   -0.2477 H   0  0  0  0  0  0  0  0  0  0  0  0
   -1.8748    0.8795   -0.5914 H   0  0  0  0  0  0  0  0  0  0  0  0
   -1.1210    0.5654   -2.5726 H   0  0  0  0  0  0  0  0  0  0  0  0
  1  2  1  0
  2  3  1  0
  3  4  1  0
  3  5  1  0
  5  6  2  0
  6  7  1  0
  7  8  1  0
  8  9  1  0
  8  3  1  0
  1 10  1  0
  1 11  1  0
  1 12  1  0
  2 13  1  0
  2 14  1  0
  4 15  1  0
  4 16  1  0
  4 17  1  0
  5 18  1  0
  6 19  1  0
  7 20  1  0
  7 21  1  0
  8 22  1  0
  9 23  1  0
M  END
