
     RDKit          3D

 23 23  0  0  0  0  0  0  0  0999 V2000
    2.2405    0.8258   -0.6977 C   0  0  0  0  0  0  0  0  0  0  0  0
    1.5378   -0.4846   -0.5542 C   0  0  0  0  0  0  0  0  0  0  0  0
    0.3469   -0.4386    0.3731 C   0  0  0  0  0  0  0  0  0  0  0  0
   -0.3093   -1.8305    0.4631 C   0  0  0  0  0  0  0  0  0  0  0  0
   -1.7162   -1.5440    0.8340 C   0  0  0  0  0  0  0  0  0  0  0  0
   -2.5467   -2.3728    1.1123 O   0  0  0  0  0  0  0  0  0  0  0  0
   -1.9012   -0.0748    0.7974 C   0  0  0  0  0  0  0  0  0  0  0  0
   -0.8259    0.3295   -0.1994 C   0  0  0  0  0  0  0  0  0  0  0  0
   -0.6255    1.8147   -0.2399 C   0  0  0  0  0  0  0  0  0  0  0  0
    3.3528    0.7337   -0.5510 H   0  0  0  0  0  0  0  0  0  0  0  0
    2.0739    1.2191   -1.7235 H   0  0  0  0  0  0  0  0  0  0  0  0
    1.9370    1.6007    0.0310 H   0  0  0  0  0  0  0  0  0  0  0  0
    2.2355   -1.2521   -0.2274 H   0  0  0  0  0  0  0  0  0  0  0  0
    1.1378   -0.8239   -1.5495 H   0  0  0  0  0  0  0  0  0  0  0  0
    0.6171   -0.1095    1.3954 H   0  0  0  0  0  0  0  0  0  0  0  0
    0.2150   -2.4820    1.1622 H   0  0  0  0  0  0  0  0  0  0  0  0
   -0.2642   -2.2156   -0.5976 H   0  0  0  0  0  0  0  0  0  0  0  0
   -1.5855    0.3280    1.7750 H   0  0  0  0  0  0  0  0  0  0  0  0
   -2.9032    0.2412    0.4775 H   0  0  0  0  0  0  0  0  0  0  0  0
   -1.0080   -0.0522   -1.2085 H   0  0  0  0  0  0  0  0  0  0  0  0
   -0.2638    2.2608    0.6816 H   0  0  0  0  0  0  0  0  0  0  0  0
   -1.6595    2.2508   -0.3908 H   0  0  0  0  0  0  0  0  0  0  0  0
   -0.0855    2.0765   -1.1631 H   0  0  0  0  0  0  0  0  0  0  0  0
  1  2  1  0
  2  3  1  0
  3  4  1  0
  4  5  1  0
  5  6  2  0
  5  7  1  0
  7  8  1  0
  8  9  1  0
  8  3  1  0
  1 10  1  0
  1 11  1  0
  1 12  1  0
  2 13  1  0
  2 14  1  0
  3 15  1  0
  4 16  1  0
  4 17  1  0
  7 18  1  0
  7 19  1  0
  8 20  1  0
  9 21  1  0
  9 22  1  0
  9 23  1  0
M  END
