
     RDKit          3D

 23 23  0  0  0  0  0  0  0  0999 V2000
    2.7423    0.1369    0.4534 C   0  0  0  0  0  0  0  0  0  0  0  0
    1.3054   -0.2576    0.7585 C   0  0  0  0  0  0  0  0  0  0  0  0
    0.5788   -0.3611   -0.5593 C   0  0  0  0  0  0  0  0  0  0  0  0
    0.6339    0.8608   -1.1785 O   0  0  0  0  0  0  0  0  0  0  0  0
   -0.5528    1.5187   -0.9985 C   0  0  0  0  0  0  0  0  0  0  0  0
   -1.4529    0.6890   -0.1492 C   0  0  0  0  0  0  0  0  0  0  0  0
   -2.7614    0.6554   -0.5472 O   0  0  0  0  0  0  0  0  0  0  0  0
   -0.8715   -0.7087   -0.4101 C   0  0  0  0  0  0  0  0  0  0  0  0
   -1.1910   -1.5723    0.7509 C   0  0  0  0  0  0  0  0  0  0  0  0
    3.3001   -0.6730   -0.0515 H   0  0  0  0  0  0  0  0  0  0  0  0
    2.7951    1.0818   -0.1275 H   0  0  0  0  0  0  0  0  0  0  0  0
    3.3055    0.3483    1.4077 H   0  0  0  0  0  0  0  0  0  0  0  0
    1.3332   -1.1921    1.3273 H   0  0  0  0  0  0  0  0  0  0  0  0
    0.8749    0.6025    1.3365 H   0  0  0  0  0  0  0  0  0  0  0  0
    1.1375   -1.1024   -1.1803 H   0  0  0  0  0  0  0  0  0  0  0  0
   -0.4303    2.5639   -0.6543 H   0  0  0  0  0  0  0  0  0  0  0  0
   -1.0397    1.6020   -2.0120 H   0  0  0  0  0  0  0  0  0  0  0  0
   -1.3234    0.9318    0.9389 H   0  0  0  0  0  0  0  0  0  0  0  0
   -3.1160    1.4925   -0.8993 H   0  0  0  0  0  0  0  0  0  0  0  0
   -1.2724   -1.0906   -1.3535 H   0  0  0  0  0  0  0  0  0  0  0  0
   -2.1559   -2.1114    0.5185 H   0  0  0  0  0  0  0  0  0  0  0  0
   -1.3861   -1.0346    1.6985 H   0  0  0  0  0  0  0  0  0  0  0  0
   -0.4535   -2.3799    0.9312 H   0  0  0  0  0  0  0  0  0  0  0  0
  1  2  1  0
  2  3  1  0
  3  4  1  0
  4  5  1  0
  5  6  1  0
  6  7  1  0
  6  8  1  0
  8  9  1  0
  8  3  1  0
  1 10  1  0
  1 11  1  0
  1 12  1  0
  2 13  1  0
  2 14  1  0
  3 15  1  0
  5 16  1  0
  5 17  1  0
  6 18  1  0
  7 19  1  0
  8 20  1  0
  9 21  1  0
  9 22  1  0
  9 23  1  0
M  END
