
     RDKit          3D

 20 21  0  0  0  0  0  0  0  0999 V2000
    2.4648    0.9949   -0.3331 C   0  0  0  0  0  0  0  0  0  0  0  0
    1.4427    0.1708    0.3994 C   0  0  0  0  0  0  0  0  0  0  0  0
    0.5567   -0.5415   -0.5999 C   0  0  0  0  0  0  0  0  0  0  0  0
   -0.5370   -1.4229   -0.1262 C   0  0  0  0  0  0  0  0  0  0  0  0
   -1.3335   -0.8980    1.0386 C   0  0  0  0  0  0  0  0  0  0  0  0
   -1.8583    0.1734    0.1057 C   0  0  0  0  0  0  0  0  0  0  0  0
   -1.8572    1.4597    0.6700 O   0  0  0  0  0  0  0  0  0  0  0  0
   -0.7991   -0.0883   -0.9017 C   0  0  0  0  0  0  0  0  0  0  0  0
    2.1065    2.0352   -0.3673 H   0  0  0  0  0  0  0  0  0  0  0  0
    2.5578    0.5900   -1.3571 H   0  0  0  0  0  0  0  0  0  0  0  0
    3.4409    0.9334    0.2159 H   0  0  0  0  0  0  0  0  0  0  0  0
    1.9546   -0.6247    1.0164 H   0  0  0  0  0  0  0  0  0  0  0  0
    0.9025    0.8108    1.0942 H   0  0  0  0  0  0  0  0  0  0  0  0
    1.1311   -0.9506   -1.4618 H   0  0  0  0  0  0  0  0  0  0  0  0
   -0.8296   -2.3418   -0.6273 H   0  0  0  0  0  0  0  0  0  0  0  0
   -2.0898   -1.5874    1.4471 H   0  0  0  0  0  0  0  0  0  0  0  0
   -0.7488   -0.4173    1.8436 H   0  0  0  0  0  0  0  0  0  0  0  0
   -2.8940   -0.1137   -0.2102 H   0  0  0  0  0  0  0  0  0  0  0  0
   -2.4107    2.0462    0.0988 H   0  0  0  0  0  0  0  0  0  0  0  0
   -1.1999   -0.2281   -1.9452 H   0  0  0  0  0  0  0  0  0  0  0  0
  1  2  1  0
  2  3  1  0
  3  4  1  0
  4  5  1  0
  5  6  1  0
  6  7  1  0
  6  8  1  0
  8  3  1  0
  8  4  1  0
  1  9  1  0
  1 10  1  0
  1 11  1  0
  2 12  1  0
  2 13  1  0
  3 14  1  0
  4 15  1  0
  5 16  1  0
  5 17  1  0
  6 18  1  0
  7 19  1  0
  8 20  1  0
M  END
