
     RDKit          3D

 23 24  0  0  0  0  0  0  0  0999 V2000
    2.8930    0.0698   -0.1241 C   0  0  0  0  0  0  0  0  0  0  0  0
    1.8947    0.0034    1.0365 C   0  0  0  0  0  0  0  0  0  0  0  0
    0.5204    0.2087    0.5058 C   0  0  0  0  0  0  0  0  0  0  0  0
   -0.2682    1.2311    0.9111 C   0  0  0  0  0  0  0  0  0  0  0  0
   -1.6040    0.9753    0.2841 C   0  0  0  0  0  0  0  0  0  0  0  0
   -2.1247   -0.2965    0.8654 C   0  0  0  0  0  0  0  0  0  0  0  0
   -1.2830   -1.4066    0.2278 C   0  0  0  0  0  0  0  0  0  0  0  0
   -0.2015   -0.5901   -0.4845 C   0  0  0  0  0  0  0  0  0  0  0  0
   -1.1226    0.4845   -1.0946 C   0  0  0  0  0  0  0  0  0  0  0  0
    3.8768    0.3565    0.2965 H   0  0  0  0  0  0  0  0  0  0  0  0
    2.9528   -0.9443   -0.5438 H   0  0  0  0  0  0  0  0  0  0  0  0
    2.4952    0.8162   -0.8444 H   0  0  0  0  0  0  0  0  0  0  0  0
    1.9949   -0.9662    1.5830 H   0  0  0  0  0  0  0  0  0  0  0  0
    2.1966    0.7930    1.7368 H   0  0  0  0  0  0  0  0  0  0  0  0
    0.0172    2.0582    1.5555 H   0  0  0  0  0  0  0  0  0  0  0  0
   -2.2609    1.8124    0.2425 H   0  0  0  0  0  0  0  0  0  0  0  0
   -3.2053   -0.4585    0.6954 H   0  0  0  0  0  0  0  0  0  0  0  0
   -1.8692   -0.3167    1.9490 H   0  0  0  0  0  0  0  0  0  0  0  0
   -0.8506   -2.0791    0.9742 H   0  0  0  0  0  0  0  0  0  0  0  0
   -1.9498   -1.9071   -0.4942 H   0  0  0  0  0  0  0  0  0  0  0  0
    0.3648   -1.1329   -1.2054 H   0  0  0  0  0  0  0  0  0  0  0  0
   -1.9280    0.0328   -1.6714 H   0  0  0  0  0  0  0  0  0  0  0  0
   -0.5387    1.2561   -1.6124 H   0  0  0  0  0  0  0  0  0  0  0  0
  1  2  1  0
  2  3  1  0
  3  4  2  0
  4  5  1  0
  5  6  1  0
  6  7  1  0
  7  8  1  0
  8  9  1  0
  8  3  1  0
  9  5  1  0
  1 10  1  0
  1 11  1  0
  1 12  1  0
  2 13  1  0
  2 14  1  0
  4 15  1  0
  5 16  1  0
  6 17  1  0
  6 18  1  0
  7 19  1  0
  7 20  1  0
  8 21  1  0
  9 22  1  0
  9 23  1  0
M  END
