
     RDKit          3D

 20 21  0  0  0  0  0  0  0  0999 V2000
   -2.4159    0.4566   -0.0712 C   0  0  0  0  0  0  0  0  0  0  0  0
   -1.1144    0.7884   -0.7497 C   0  0  0  0  0  0  0  0  0  0  0  0
    0.0097   -0.1224   -0.2829 C   0  0  0  0  0  0  0  0  0  0  0  0
   -0.2521   -1.5872   -0.5597 C   0  0  0  0  0  0  0  0  0  0  0  0
    0.3269    0.0349    1.0711 O   0  0  0  0  0  0  0  0  0  0  0  0
    1.6743   -0.1491    0.6835 C   0  0  0  0  0  0  0  0  0  0  0  0
    2.3118    1.0409    0.1080 C   0  0  0  0  0  0  0  0  0  0  0  0
    1.3753    0.2746   -0.7060 C   0  0  0  0  0  0  0  0  0  0  0  0
   -3.1635    1.1961   -0.4215 H   0  0  0  0  0  0  0  0  0  0  0  0
   -2.3182    0.4294    1.0363 H   0  0  0  0  0  0  0  0  0  0  0  0
   -2.7899   -0.5377   -0.3867 H   0  0  0  0  0  0  0  0  0  0  0  0
   -1.2531    0.5556   -1.8413 H   0  0  0  0  0  0  0  0  0  0  0  0
   -0.8246    1.8190   -0.5629 H   0  0  0  0  0  0  0  0  0  0  0  0
    0.5449   -2.1795   -0.0679 H   0  0  0  0  0  0  0  0  0  0  0  0
   -1.2095   -1.8925   -0.0891 H   0  0  0  0  0  0  0  0  0  0  0  0
   -0.2533   -1.7664   -1.6651 H   0  0  0  0  0  0  0  0  0  0  0  0
    2.1827   -1.0751    0.9304 H   0  0  0  0  0  0  0  0  0  0  0  0
    1.9921    2.0408    0.4925 H   0  0  0  0  0  0  0  0  0  0  0  0
    3.4025    0.9383   -0.1361 H   0  0  0  0  0  0  0  0  0  0  0  0
    1.7743   -0.2647   -1.5815 H   0  0  0  0  0  0  0  0  0  0  0  0
  1  2  1  0
  2  3  1  0
  3  4  1  0
  3  5  1  0
  5  6  1  0
  6  7  1  0
  7  8  1  0
  8  3  1  0
  8  6  1  0
  1  9  1  0
  1 10  1  0
  1 11  1  0
  2 12  1  0
  2 13  1  0
  4 14  1  0
  4 15  1  0
  4 16  1  0
  6 17  1  0
  7 18  1  0
  7 19  1  0
  8 20  1  0
M  END
