
     RDKit          3D

 16 17  0  0  0  0  0  0  0  0999 V2000
   -2.0191    0.4706   -0.2678 C   0  0  0  0  0  0  0  0  0  0  0  0
   -1.1603   -0.2874    0.7233 C   0  0  0  0  0  0  0  0  0  0  0  0
    0.2182   -0.4756    0.1435 C   0  0  0  0  0  0  0  0  0  0  0  0
    0.2803   -1.1912   -1.0628 O   0  0  0  0  0  0  0  0  0  0  0  0
    0.8096    0.0788   -0.9482 C   0  0  0  0  0  0  0  0  0  0  0  0
    2.1665    0.0919   -0.2283 C   0  0  0  0  0  0  0  0  0  0  0  0
    1.4175   -0.3574    0.9739 C   0  0  0  0  0  0  0  0  0  0  0  0
    1.6960   -0.5414    2.1354 O   0  0  0  0  0  0  0  0  0  0  0  0
   -2.8846    0.9634    0.2596 H   0  0  0  0  0  0  0  0  0  0  0  0
   -2.4046   -0.1937   -1.0826 H   0  0  0  0  0  0  0  0  0  0  0  0
   -1.3693    1.2327   -0.7686 H   0  0  0  0  0  0  0  0  0  0  0  0
   -1.1647    0.2442    1.6738 H   0  0  0  0  0  0  0  0  0  0  0  0
   -1.6324   -1.3005    0.8864 H   0  0  0  0  0  0  0  0  0  0  0  0
    0.5749    0.8698   -1.6547 H   0  0  0  0  0  0  0  0  0  0  0  0
    2.6267    1.0918   -0.1632 H   0  0  0  0  0  0  0  0  0  0  0  0
    2.8453   -0.6962   -0.6197 H   0  0  0  0  0  0  0  0  0  0  0  0
  1  2  1  0
  2  3  1  0
  3  4  1  0
  4  5  1  0
  5  6  1  0
  6  7  1  0
  7  8  2  0
  5  3  1  0
  7  3  1  0
  1  9  1  0
  1 10  1  0
  1 11  1  0
  2 12  1  0
  2 13  1  0
  5 14  1  0
  6 15  1  0
  6 16  1  0
M  END
