
     RDKit          3D

 23 25  0  0  0  0  0  0  0  0999 V2000
   -3.0691    0.5287    0.2513 C   0  0  0  0  0  0  0  0  0  0  0  0
   -1.7048    0.8406   -0.3571 C   0  0  0  0  0  0  0  0  0  0  0  0
   -0.6573    0.0083    0.2893 C   0  0  0  0  0  0  0  0  0  0  0  0
   -0.6484   -1.4550    0.2800 C   0  0  0  0  0  0  0  0  0  0  0  0
    0.3462   -0.7477   -0.6154 C   0  0  0  0  0  0  0  0  0  0  0  0
    1.4338   -0.0597    0.1060 C   0  0  0  0  0  0  0  0  0  0  0  0
    2.6983    0.3727   -0.4030 C   0  0  0  0  0  0  0  0  0  0  0  0
    2.6068   -0.7650    0.6056 C   0  0  0  0  0  0  0  0  0  0  0  0
    0.4946    0.7244    0.9547 C   0  0  0  0  0  0  0  0  0  0  0  0
   -3.1888    1.1095    1.1972 H   0  0  0  0  0  0  0  0  0  0  0  0
   -3.0816   -0.5724    0.4362 H   0  0  0  0  0  0  0  0  0  0  0  0
   -3.8644    0.7473   -0.4887 H   0  0  0  0  0  0  0  0  0  0  0  0
   -1.7487    0.6264   -1.4568 H   0  0  0  0  0  0  0  0  0  0  0  0
   -1.4687    1.9103   -0.2148 H   0  0  0  0  0  0  0  0  0  0  0  0
   -0.1749   -2.0041    1.1269 H   0  0  0  0  0  0  0  0  0  0  0  0
   -1.4402   -2.0239   -0.2116 H   0  0  0  0  0  0  0  0  0  0  0  0
    0.1731   -0.6580   -1.6855 H   0  0  0  0  0  0  0  0  0  0  0  0
    3.0785    0.1643   -1.4121 H   0  0  0  0  0  0  0  0  0  0  0  0
    3.1559    1.3057    0.0338 H   0  0  0  0  0  0  0  0  0  0  0  0
    2.8727   -1.7555    0.1578 H   0  0  0  0  0  0  0  0  0  0  0  0
    2.9759   -0.5832    1.6412 H   0  0  0  0  0  0  0  0  0  0  0  0
    0.5741    1.8095    0.7238 H   0  0  0  0  0  0  0  0  0  0  0  0
    0.6369    0.4770    2.0278 H   0  0  0  0  0  0  0  0  0  0  0  0
  1  2  1  0
  2  3  1  0
  3  4  1  0
  4  5  1  0
  5  6  1  0
  6  7  1  0
  7  8  1  0
  6  9  1  0
  5  3  1  0
  8  6  1  0
  9  3  1  0
  1 10  1  0
  1 11  1  0
  1 12  1  0
  2 13  1  0
  2 14  1  0
  4 15  1  0
  4 16  1  0
  5 17  1  0
  7 18  1  0
  7 19  1  0
  8 20  1  0
  8 21  1  0
  9 22  1  0
  9 23  1  0
M  END
