
     RDKit          3D

 23 24  0  0  0  0  0  0  0  0999 V2000
    2.9877   -0.3277   -0.3331 C   0  0  0  0  0  0  0  0  0  0  0  0
    2.0201    0.8402   -0.1602 C   0  0  0  0  0  0  0  0  0  0  0  0
    0.7971    0.2589    0.5145 C   0  0  0  0  0  0  0  0  0  0  0  0
    0.1648   -0.8329   -0.3257 C   0  0  0  0  0  0  0  0  0  0  0  0
   -1.1522   -0.2044   -0.0550 C   0  0  0  0  0  0  0  0  0  0  0  0
   -0.4802    1.0732    0.2863 C   0  0  0  0  0  0  0  0  0  0  0  0
   -2.2454   -0.8058    0.6712 C   0  0  0  0  0  0  0  0  0  0  0  0
   -2.3519   -0.3663   -0.8268 C   0  0  0  0  0  0  0  0  0  0  0  0
   -3.1793    0.7588   -1.0150 O   0  0  0  0  0  0  0  0  0  0  0  0
    3.9142   -0.0379   -0.8310 H   0  0  0  0  0  0  0  0  0  0  0  0
    2.4322   -1.1111   -0.9013 H   0  0  0  0  0  0  0  0  0  0  0  0
    3.1474   -0.7265    0.7050 H   0  0  0  0  0  0  0  0  0  0  0  0
    1.7692    1.2273   -1.1581 H   0  0  0  0  0  0  0  0  0  0  0  0
    2.4786    1.6527    0.4216 H   0  0  0  0  0  0  0  0  0  0  0  0
    0.9121    0.0105    1.5684 H   0  0  0  0  0  0  0  0  0  0  0  0
    0.4443   -0.7926   -1.4033 H   0  0  0  0  0  0  0  0  0  0  0  0
    0.3138   -1.8070    0.1642 H   0  0  0  0  0  0  0  0  0  0  0  0
   -0.3782    1.7456   -0.5878 H   0  0  0  0  0  0  0  0  0  0  0  0
   -0.8806    1.5310    1.1894 H   0  0  0  0  0  0  0  0  0  0  0  0
   -2.2137   -1.9099    0.8375 H   0  0  0  0  0  0  0  0  0  0  0  0
   -2.8774   -0.2598    1.3841 H   0  0  0  0  0  0  0  0  0  0  0  0
   -2.4929   -1.2116   -1.5329 H   0  0  0  0  0  0  0  0  0  0  0  0
   -3.1299    1.2954   -0.1862 H   0  0  0  0  0  0  0  0  0  0  0  0
  1  2  1  0
  2  3  1  0
  3  4  1  0
  4  5  1  0
  5  6  1  0
  5  7  1  0
  7  8  1  0
  8  9  1  0
  6  3  1  0
  8  5  1  0
  1 10  1  0
  1 11  1  0
  1 12  1  0
  2 13  1  0
  2 14  1  0
  3 15  1  0
  4 16  1  0
  4 17  1  0
  6 18  1  0
  6 19  1  0
  7 20  1  0
  7 21  1  0
  8 22  1  0
  9 23  1  0
M  END
