
     RDKit          3D

 21 21  0  0  0  0  0  0  0  0999 V2000
    2.2181   -0.8176   -0.1933 C   0  0  0  0  0  0  0  0  0  0  0  0
    1.4411    0.4620   -0.1117 C   0  0  0  0  0  0  0  0  0  0  0  0
   -0.0712    0.2324   -0.0809 C   0  0  0  0  0  0  0  0  0  0  0  0
   -0.8648    1.4861    0.0003 C   0  0  0  0  0  0  0  0  0  0  0  0
   -0.6109    2.2542    1.1188 O   0  0  0  0  0  0  0  0  0  0  0  0
   -0.6030   -0.7310   -1.1539 C   0  0  0  0  0  0  0  0  0  0  0  0
   -0.6200   -1.0751    0.3056 C   0  0  0  0  0  0  0  0  0  0  0  0
   -1.9064   -1.1212    1.0458 C   0  0  0  0  0  0  0  0  0  0  0  0
   -2.1918   -2.0042    1.8460 O   0  0  0  0  0  0  0  0  0  0  0  0
    1.6891   -1.6613   -0.6356 H   0  0  0  0  0  0  0  0  0  0  0  0
    2.5645   -1.1462    0.8171 H   0  0  0  0  0  0  0  0  0  0  0  0
    3.1121   -0.6289   -0.8589 H   0  0  0  0  0  0  0  0  0  0  0  0
    1.6950    1.1426   -0.9554 H   0  0  0  0  0  0  0  0  0  0  0  0
    1.7594    0.9818    0.8149 H   0  0  0  0  0  0  0  0  0  0  0  0
   -0.6290    2.1191   -0.8999 H   0  0  0  0  0  0  0  0  0  0  0  0
   -1.9534    1.2942   -0.0618 H   0  0  0  0  0  0  0  0  0  0  0  0
   -0.9662    3.1579    1.0066 H   0  0  0  0  0  0  0  0  0  0  0  0
    0.1323   -1.1430   -1.8418 H   0  0  0  0  0  0  0  0  0  0  0  0
   -1.5853   -0.5293   -1.6144 H   0  0  0  0  0  0  0  0  0  0  0  0
    0.0501   -1.9159    0.5496 H   0  0  0  0  0  0  0  0  0  0  0  0
   -2.6599   -0.3566    0.9027 H   0  0  0  0  0  0  0  0  0  0  0  0
  1  2  1  0
  2  3  1  0
  3  4  1  0
  4  5  1  0
  3  6  1  0
  6  7  1  0
  7  8  1  0
  8  9  2  0
  7  3  1  0
  1 10  1  0
  1 11  1  0
  1 12  1  0
  2 13  1  0
  2 14  1  0
  4 15  1  0
  4 16  1  0
  5 17  1  0
  6 18  1  0
  6 19  1  0
  7 20  1  0
  8 21  1  0
M  END
