
     RDKit          3D

 19 19  0  0  0  0  0  0  0  0999 V2000
   -2.0751   -0.3633   -1.1446 C   0  0  0  0  0  0  0  0  0  0  0  0
   -1.3787   -0.5506    0.1867 C   0  0  0  0  0  0  0  0  0  0  0  0
   -0.3411    0.5213    0.4058 C   0  0  0  0  0  0  0  0  0  0  0  0
   -0.8517    1.8195    0.4116 O   0  0  0  0  0  0  0  0  0  0  0  0
    0.6987    0.2054    1.4622 C   0  0  0  0  0  0  0  0  0  0  0  0
    1.0683    0.3151    0.0115 C   0  0  0  0  0  0  0  0  0  0  0  0
    1.4916   -0.8229   -0.6738 O   0  0  0  0  0  0  0  0  0  0  0  0
    2.5265   -0.7779   -1.5968 C   0  0  0  0  0  0  0  0  0  0  0  0
    3.0646    0.3458   -1.7839 O   0  0  0  0  0  0  0  0  0  0  0  0
   -1.9463   -1.2386   -1.8087 H   0  0  0  0  0  0  0  0  0  0  0  0
   -1.6191    0.5167   -1.6532 H   0  0  0  0  0  0  0  0  0  0  0  0
   -3.1556   -0.1209   -1.0204 H   0  0  0  0  0  0  0  0  0  0  0  0
   -1.0006   -1.5652    0.2453 H   0  0  0  0  0  0  0  0  0  0  0  0
   -2.1635   -0.4474    0.9851 H   0  0  0  0  0  0  0  0  0  0  0  0
   -0.4681    2.3729   -0.3083 H   0  0  0  0  0  0  0  0  0  0  0  0
    0.6655   -0.7890    1.9584 H   0  0  0  0  0  0  0  0  0  0  0  0
    1.0041    1.0151    2.1638 H   0  0  0  0  0  0  0  0  0  0  0  0
    1.6240    1.2423   -0.2437 H   0  0  0  0  0  0  0  0  0  0  0  0
    2.8565   -1.6781   -2.1346 H   0  0  0  0  0  0  0  0  0  0  0  0
  1  2  1  0
  2  3  1  0
  3  4  1  0
  3  5  1  0
  5  6  1  0
  6  7  1  0
  7  8  1  0
  8  9  2  0
  6  3  1  0
  1 10  1  0
  1 11  1  0
  1 12  1  0
  2 13  1  0
  2 14  1  0
  4 15  1  0
  5 16  1  0
  5 17  1  0
  6 18  1  0
  8 19  1  0
M  END
