
     RDKit          3D

 23 23  0  0  0  0  0  0  0  0999 V2000
    2.5650   -0.5372    0.1319 C   0  0  0  0  0  0  0  0  0  0  0  0
    1.6058    0.1808   -0.7933 C   0  0  0  0  0  0  0  0  0  0  0  0
    0.2348    0.1954   -0.1027 C   0  0  0  0  0  0  0  0  0  0  0  0
    0.2261    0.8900    1.2151 C   0  0  0  0  0  0  0  0  0  0  0  0
   -0.6991   -0.8495   -0.4888 C   0  0  0  0  0  0  0  0  0  0  0  0
   -1.7199   -1.4322    0.4545 C   0  0  0  0  0  0  0  0  0  0  0  0
   -0.9120    0.5504   -1.0158 C   0  0  0  0  0  0  0  0  0  0  0  0
   -2.0508    1.3211   -0.4906 C   0  0  0  0  0  0  0  0  0  0  0  0
   -2.6540    2.0931   -1.1911 O   0  0  0  0  0  0  0  0  0  0  0  0
    2.1222   -1.4819    0.5138 H   0  0  0  0  0  0  0  0  0  0  0  0
    3.4555   -0.8044   -0.5060 H   0  0  0  0  0  0  0  0  0  0  0  0
    2.9485    0.1250    0.9215 H   0  0  0  0  0  0  0  0  0  0  0  0
    1.5480   -0.3034   -1.7781 H   0  0  0  0  0  0  0  0  0  0  0  0
    1.9605    1.2358   -0.8516 H   0  0  0  0  0  0  0  0  0  0  0  0
   -0.2505    1.9001    1.0702 H   0  0  0  0  0  0  0  0  0  0  0  0
    1.2551    1.0365    1.6010 H   0  0  0  0  0  0  0  0  0  0  0  0
   -0.3391    0.3611    2.0070 H   0  0  0  0  0  0  0  0  0  0  0  0
   -0.3758   -1.5715   -1.2730 H   0  0  0  0  0  0  0  0  0  0  0  0
   -1.8573   -0.8505    1.3766 H   0  0  0  0  0  0  0  0  0  0  0  0
   -1.3262   -2.4342    0.7693 H   0  0  0  0  0  0  0  0  0  0  0  0
   -2.7148   -1.5651   -0.0146 H   0  0  0  0  0  0  0  0  0  0  0  0
   -0.6798    0.7533   -2.0913 H   0  0  0  0  0  0  0  0  0  0  0  0
   -2.3426    1.1871    0.5359 H   0  0  0  0  0  0  0  0  0  0  0  0
  1  2  1  0
  2  3  1  0
  3  4  1  0
  3  5  1  0
  5  6  1  0
  5  7  1  0
  7  8  1  0
  8  9  2  0
  7  3  1  0
  1 10  1  0
  1 11  1  0
  1 12  1  0
  2 13  1  0
  2 14  1  0
  4 15  1  0
  4 16  1  0
  4 17  1  0
  5 18  1  0
  6 19  1  0
  6 20  1  0
  6 21  1  0
  7 22  1  0
  8 23  1  0
M  END
