
     RDKit          3D

 21 21  0  0  0  0  0  0  0  0999 V2000
    2.9917    1.0185    0.0138 C   0  0  0  0  0  0  0  0  0  0  0  0
    2.0439   -0.0789    0.4068 C   0  0  0  0  0  0  0  0  0  0  0  0
    0.8111   -0.1135   -0.4423 C   0  0  0  0  0  0  0  0  0  0  0  0
   -0.0940   -1.2566    0.0260 C   0  0  0  0  0  0  0  0  0  0  0  0
   -1.1125   -0.2459   -0.4557 C   0  0  0  0  0  0  0  0  0  0  0  0
   -2.3923   -0.3168    0.3401 C   0  0  0  0  0  0  0  0  0  0  0  0
   -3.3835    0.6721   -0.1343 C   0  0  0  0  0  0  0  0  0  0  0  0
   -3.0729    1.4030   -1.0731 O   0  0  0  0  0  0  0  0  0  0  0  0
   -0.2181    0.7543   -0.0302 O   0  0  0  0  0  0  0  0  0  0  0  0
    4.0236    0.6394   -0.0491 H   0  0  0  0  0  0  0  0  0  0  0  0
    2.9768    1.8157    0.7948 H   0  0  0  0  0  0  0  0  0  0  0  0
    2.7432    1.4699   -0.9657 H   0  0  0  0  0  0  0  0  0  0  0  0
    2.5777   -1.0547    0.3815 H   0  0  0  0  0  0  0  0  0  0  0  0
    1.7191    0.0497    1.4694 H   0  0  0  0  0  0  0  0  0  0  0  0
    0.9571   -0.1815   -1.5204 H   0  0  0  0  0  0  0  0  0  0  0  0
   -0.0702   -1.3570    1.1264 H   0  0  0  0  0  0  0  0  0  0  0  0
   -0.0160   -2.1722   -0.5578 H   0  0  0  0  0  0  0  0  0  0  0  0
   -1.2199   -0.2131   -1.5382 H   0  0  0  0  0  0  0  0  0  0  0  0
   -2.7766   -1.3635    0.2164 H   0  0  0  0  0  0  0  0  0  0  0  0
   -2.1467   -0.2139    1.4172 H   0  0  0  0  0  0  0  0  0  0  0  0
   -4.3417    0.7452    0.3298 H   0  0  0  0  0  0  0  0  0  0  0  0
  1  2  1  0
  2  3  1  0
  3  4  1  0
  4  5  1  0
  5  6  1  0
  6  7  1  0
  7  8  2  0
  5  9  1  0
  9  3  1  0
  1 10  1  0
  1 11  1  0
  1 12  1  0
  2 13  1  0
  2 14  1  0
  3 15  1  0
  4 16  1  0
  4 17  1  0
  5 18  1  0
  6 19  1  0
  6 20  1  0
  7 21  1  0
M  END
