
     RDKit          3D

 19 22  0  0  0  0  0  0  0  0999 V2000
   -2.5020   -0.4621   -0.0055 C   0  0  0  0  0  0  0  0  0  0  0  0
   -1.4113    0.6201    0.0627 C   0  0  0  0  0  0  0  0  0  0  0  0
   -0.1357   -0.0113    0.0048 C   0  0  0  0  0  0  0  0  0  0  0  0
    0.8222   -0.6790    0.2217 C   0  0  0  0  0  0  0  0  0  0  0  0
    1.0624    0.9538    0.5444 C   0  0  0  0  0  0  0  0  0  0  0  0
    1.1629    0.6897   -0.5951 C   0  0  0  0  0  0  0  0  0  0  0  0
    2.0017    0.2812    0.7702 C   0  0  0  0  0  0  0  0  0  0  0  0
    3.0572   -0.5462    0.5571 O   0  0  0  0  0  0  0  0  0  0  0  0
    0.6627   -0.4079    1.3539 C   0  0  0  0  0  0  0  0  0  0  0  0
   -3.4422    0.0408   -0.3125 H   0  0  0  0  0  0  0  0  0  0  0  0
   -2.1810   -1.1575   -0.8184 H   0  0  0  0  0  0  0  0  0  0  0  0
   -2.6270   -0.9697    0.9580 H   0  0  0  0  0  0  0  0  0  0  0  0
   -1.5653    1.2152   -0.8665 H   0  0  0  0  0  0  0  0  0  0  0  0
   -1.6497    1.3197    0.8888 H   0  0  0  0  0  0  0  0  0  0  0  0
    1.5376   -1.2030   -0.3921 H   0  0  0  0  0  0  0  0  0  0  0  0
    0.3496    1.4725    1.1741 H   0  0  0  0  0  0  0  0  0  0  0  0
    1.5869    0.1921   -1.4795 H   0  0  0  0  0  0  0  0  0  0  0  0
    2.9938   -1.4378    1.0253 H   0  0  0  0  0  0  0  0  0  0  0  0
    0.2772    0.0892    2.2454 H   0  0  0  0  0  0  0  0  0  0  0  0
  1  2  1  0
  2  3  1  0
  3  4  1  0
  4  5  1  0
  5  6  1  0
  6  7  1  0
  7  8  1  0
  7  9  1  0
  6  3  1  0
  9  3  1  0
  9  4  1  0
  7  5  1  0
  1 10  1  0
  1 11  1  0
  1 12  1  0
  2 13  1  0
  2 14  1  0
  4 15  1  0
  5 16  1  0
  6 17  1  0
  8 18  1  0
  9 19  1  0
M  END
