
     RDKit          3D

 27 27  0  0  0  0  0  0  0  0999 V2000
    2.8986   -0.6654   -0.5652 C   0  0  0  0  0  0  0  0  0  0  0  0
    1.6418    0.1800   -0.7773 C   0  0  0  0  0  0  0  0  0  0  0  0
    0.6772    0.0337    0.3482 C   0  0  0  0  0  0  0  0  0  0  0  0
   -0.5817    0.8198    0.2341 C   0  0  0  0  0  0  0  0  0  0  0  0
   -0.9691    1.4647   -1.0727 C   0  0  0  0  0  0  0  0  0  0  0  0
   -0.9348    1.6336    1.4481 C   0  0  0  0  0  0  0  0  0  0  0  0
   -0.6163   -0.6534    0.2427 C   0  0  0  0  0  0  0  0  0  0  0  0
   -1.2339   -1.2731    1.4809 C   0  0  0  0  0  0  0  0  0  0  0  0
   -0.9829   -1.4311   -1.0005 C   0  0  0  0  0  0  0  0  0  0  0  0
    3.4277   -0.7711   -1.5336 H   0  0  0  0  0  0  0  0  0  0  0  0
    3.5789   -0.1126    0.1113 H   0  0  0  0  0  0  0  0  0  0  0  0
    2.5710   -1.6368   -0.1456 H   0  0  0  0  0  0  0  0  0  0  0  0
    1.9881    1.2437   -0.7855 H   0  0  0  0  0  0  0  0  0  0  0  0
    1.2667   -0.0498   -1.7661 H   0  0  0  0  0  0  0  0  0  0  0  0
    1.1729   -0.0288    1.3484 H   0  0  0  0  0  0  0  0  0  0  0  0
   -2.0530    1.1937   -1.2386 H   0  0  0  0  0  0  0  0  0  0  0  0
   -0.4224    1.0802   -1.9401 H   0  0  0  0  0  0  0  0  0  0  0  0
   -0.9425    2.5602   -1.0380 H   0  0  0  0  0  0  0  0  0  0  0  0
   -0.4496    1.2646    2.3792 H   0  0  0  0  0  0  0  0  0  0  0  0
   -2.0136    1.8197    1.5574 H   0  0  0  0  0  0  0  0  0  0  0  0
   -0.4690    2.6519    1.2868 H   0  0  0  0  0  0  0  0  0  0  0  0
   -1.2776   -0.5997    2.3337 H   0  0  0  0  0  0  0  0  0  0  0  0
   -0.7371   -2.2049    1.7801 H   0  0  0  0  0  0  0  0  0  0  0  0
   -2.2979   -1.5392    1.2293 H   0  0  0  0  0  0  0  0  0  0  0  0
   -2.0797   -1.3794   -1.2103 H   0  0  0  0  0  0  0  0  0  0  0  0
   -0.6912   -2.4916   -0.8063 H   0  0  0  0  0  0  0  0  0  0  0  0
   -0.4707   -1.1088   -1.9006 H   0  0  0  0  0  0  0  0  0  0  0  0
  1  2  1  0
  2  3  1  0
  3  4  1  0
  4  5  1  0
  4  6  1  0
  4  7  1  0
  7  8  1  0
  7  9  1  0
  7  3  1  0
  1 10  1  0
  1 11  1  0
  1 12  1  0
  2 13  1  0
  2 14  1  0
  3 15  1  0
  5 16  1  0
  5 17  1  0
  5 18  1  0
  6 19  1  0
  6 20  1  0
  6 21  1  0
  8 22  1  0
  8 23  1  0
  8 24  1  0
  9 25  1  0
  9 26  1  0
  9 27  1  0
M  END
