
     RDKit          3D

 23 24  0  0  0  0  0  0  0  0999 V2000
    2.7115    0.1160    0.0087 C   0  0  0  0  0  0  0  0  0  0  0  0
    1.4308   -0.5019   -0.5532 C   0  0  0  0  0  0  0  0  0  0  0  0
    0.3504   -0.3790    0.4710 C   0  0  0  0  0  0  0  0  0  0  0  0
    0.0727    1.0643    0.8307 C   0  0  0  0  0  0  0  0  0  0  0  0
    0.5968    2.0045   -0.0472 O   0  0  0  0  0  0  0  0  0  0  0  0
   -1.3859    0.8287    0.5126 C   0  0  0  0  0  0  0  0  0  0  0  0
   -2.0872   -0.3422    1.1245 C   0  0  0  0  0  0  0  0  0  0  0  0
   -1.0557   -0.5226    0.0330 C   0  0  0  0  0  0  0  0  0  0  0  0
   -1.4842   -1.0868   -1.2543 C   0  0  0  0  0  0  0  0  0  0  0  0
    2.6610   -0.0612    1.1185 H   0  0  0  0  0  0  0  0  0  0  0  0
    2.7696    1.1696   -0.2604 H   0  0  0  0  0  0  0  0  0  0  0  0
    3.5862   -0.3950   -0.4398 H   0  0  0  0  0  0  0  0  0  0  0  0
    1.6747   -1.5166   -0.8540 H   0  0  0  0  0  0  0  0  0  0  0  0
    1.2009    0.0751   -1.4721 H   0  0  0  0  0  0  0  0  0  0  0  0
    0.5503   -0.9990    1.3694 H   0  0  0  0  0  0  0  0  0  0  0  0
    0.2965    1.3423    1.8703 H   0  0  0  0  0  0  0  0  0  0  0  0
   -0.1285    2.6050   -0.3955 H   0  0  0  0  0  0  0  0  0  0  0  0
   -1.9255    1.5216   -0.1492 H   0  0  0  0  0  0  0  0  0  0  0  0
   -3.1571   -0.4252    0.8417 H   0  0  0  0  0  0  0  0  0  0  0  0
   -1.8059   -0.7058    2.1271 H   0  0  0  0  0  0  0  0  0  0  0  0
   -0.6544   -1.4871   -1.8626 H   0  0  0  0  0  0  0  0  0  0  0  0
   -2.1933   -1.9406   -1.1081 H   0  0  0  0  0  0  0  0  0  0  0  0
   -2.0237   -0.3639   -1.9111 H   0  0  0  0  0  0  0  0  0  0  0  0
  1  2  1  0
  2  3  1  0
  3  4  1  0
  4  5  1  0
  4  6  1  0
  6  7  1  0
  7  8  1  0
  8  9  1  0
  8  3  1  0
  8  6  1  0
  1 10  1  0
  1 11  1  0
  1 12  1  0
  2 13  1  0
  2 14  1  0
  3 15  1  0
  4 16  1  0
  5 17  1  0
  6 18  1  0
  7 19  1  0
  7 20  1  0
  9 21  1  0
  9 22  1  0
  9 23  1  0
M  END
