
     RDKit          3D

 21 21  0  0  0  0  0  0  0  0999 V2000
   -2.7619    0.7411    0.1824 C   0  0  0  0  0  0  0  0  0  0  0  0
   -2.0399   -0.5823    0.0723 C   0  0  0  0  0  0  0  0  0  0  0  0
   -0.5694   -0.3808   -0.1204 C   0  0  0  0  0  0  0  0  0  0  0  0
    0.0782   -0.8245   -1.1809 C   0  0  0  0  0  0  0  0  0  0  0  0
    1.5010   -0.4507   -1.0422 C   0  0  0  0  0  0  0  0  0  0  0  0
    1.6966   -0.3062    0.4377 C   0  0  0  0  0  0  0  0  0  0  0  0
    2.8161    0.6289    0.6921 C   0  0  0  0  0  0  0  0  0  0  0  0
    3.7609    0.6588   -0.0776 O   0  0  0  0  0  0  0  0  0  0  0  0
    0.3513    0.3215    0.8366 C   0  0  0  0  0  0  0  0  0  0  0  0
   -2.4936    1.3182   -0.7415 H   0  0  0  0  0  0  0  0  0  0  0  0
   -2.4639    1.2936    1.0901 H   0  0  0  0  0  0  0  0  0  0  0  0
   -3.8473    0.5379    0.1182 H   0  0  0  0  0  0  0  0  0  0  0  0
   -2.4958   -1.1245   -0.7773 H   0  0  0  0  0  0  0  0  0  0  0  0
   -2.2214   -1.1810    0.9886 H   0  0  0  0  0  0  0  0  0  0  0  0
   -0.3924   -1.3812   -2.0199 H   0  0  0  0  0  0  0  0  0  0  0  0
    1.6879    0.5288   -1.5311 H   0  0  0  0  0  0  0  0  0  0  0  0
    2.1142   -1.2578   -1.4869 H   0  0  0  0  0  0  0  0  0  0  0  0
    1.8818   -1.2471    0.9679 H   0  0  0  0  0  0  0  0  0  0  0  0
    2.8579    1.3114    1.5412 H   0  0  0  0  0  0  0  0  0  0  0  0
    0.3882    1.3968    0.6766 H   0  0  0  0  0  0  0  0  0  0  0  0
    0.1513   -0.0007    1.8659 H   0  0  0  0  0  0  0  0  0  0  0  0
  1  2  1  0
  2  3  1  0
  3  4  2  0
  4  5  1  0
  5  6  1  0
  6  7  1  0
  7  8  2  0
  6  9  1  0
  9  3  1  0
  1 10  1  0
  1 11  1  0
  1 12  1  0
  2 13  1  0
  2 14  1  0
  4 15  1  0
  5 16  1  0
  5 17  1  0
  6 18  1  0
  7 19  1  0
  9 20  1  0
  9 21  1  0
M  END
