
     RDKit          3D

 22 22  0  0  0  0  0  0  0  0999 V2000
   -2.0196   -1.1594    0.0613 C   0  0  0  0  0  0  0  0  0  0  0  0
   -1.5992    0.2613    0.0880 C   0  0  0  0  0  0  0  0  0  0  0  0
   -0.1275    0.4932    0.1031 C   0  0  0  0  0  0  0  0  0  0  0  0
    0.1652    1.9912    0.1301 C   0  0  0  0  0  0  0  0  0  0  0  0
    0.6624   -0.2295    1.1456 C   0  0  0  0  0  0  0  0  0  0  0  0
    1.7095   -0.5280    0.0830 C   0  0  0  0  0  0  0  0  0  0  0  0
    2.1608   -1.8351    0.0586 O   0  0  0  0  0  0  0  0  0  0  0  0
    0.6781   -0.1727   -0.9650 C   0  0  0  0  0  0  0  0  0  0  0  0
   -2.3753   -1.4582   -0.9505 H   0  0  0  0  0  0  0  0  0  0  0  0
   -1.2722   -1.8891    0.3850 H   0  0  0  0  0  0  0  0  0  0  0  0
   -2.9103   -1.3095    0.7356 H   0  0  0  0  0  0  0  0  0  0  0  0
   -2.0182    0.7694   -0.8100 H   0  0  0  0  0  0  0  0  0  0  0  0
   -2.0372    0.7864    0.9627 H   0  0  0  0  0  0  0  0  0  0  0  0
    0.5747    2.3096    1.1159 H   0  0  0  0  0  0  0  0  0  0  0  0
   -0.7488    2.5915   -0.0339 H   0  0  0  0  0  0  0  0  0  0  0  0
    0.8698    2.2815   -0.6850 H   0  0  0  0  0  0  0  0  0  0  0  0
    0.2590   -1.1732    1.5291 H   0  0  0  0  0  0  0  0  0  0  0  0
    0.9969    0.4387    1.9561 H   0  0  0  0  0  0  0  0  0  0  0  0
    2.5491    0.1716    0.1868 H   0  0  0  0  0  0  0  0  0  0  0  0
    3.1057   -1.8774   -0.2460 H   0  0  0  0  0  0  0  0  0  0  0  0
    0.2189   -1.0084   -1.4983 H   0  0  0  0  0  0  0  0  0  0  0  0
    1.1583    0.5463   -1.6924 H   0  0  0  0  0  0  0  0  0  0  0  0
  1  2  1  0
  2  3  1  0
  3  4  1  0
  3  5  1  0
  5  6  1  0
  6  7  1  0
  6  8  1  0
  8  3  1  0
  1  9  1  0
  1 10  1  0
  1 11  1  0
  2 12  1  0
  2 13  1  0
  4 14  1  0
  4 15  1  0
  4 16  1  0
  5 17  1  0
  5 18  1  0
  6 19  1  0
  7 20  1  0
  8 21  1  0
  8 22  1  0
M  END
