
     RDKit          3D

 21 22  0  0  0  0  0  0  0  0999 V2000
    2.9849    0.2001    0.4182 C   0  0  0  0  0  0  0  0  0  0  0  0
    2.0345    0.6092   -0.6789 C   0  0  0  0  0  0  0  0  0  0  0  0
    0.7979   -0.2392   -0.6159 C   0  0  0  0  0  0  0  0  0  0  0  0
    0.0865   -0.0966    0.6891 C   0  0  0  0  0  0  0  0  0  0  0  0
   -1.2107   -0.2120    0.4904 C   0  0  0  0  0  0  0  0  0  0  0  0
   -2.6830   -0.3129    0.4696 C   0  0  0  0  0  0  0  0  0  0  0  0
   -2.5892    0.3164   -0.9417 C   0  0  0  0  0  0  0  0  0  0  0  0
   -1.3017   -0.4693   -1.0099 C   0  0  0  0  0  0  0  0  0  0  0  0
   -0.1868    0.1995   -1.5117 O   0  0  0  0  0  0  0  0  0  0  0  0
    3.8086   -0.3866   -0.0343 H   0  0  0  0  0  0  0  0  0  0  0  0
    2.4485   -0.4722    1.1054 H   0  0  0  0  0  0  0  0  0  0  0  0
    3.4139    1.0831    0.9352 H   0  0  0  0  0  0  0  0  0  0  0  0
    1.7198    1.6651   -0.4286 H   0  0  0  0  0  0  0  0  0  0  0  0
    2.5507    0.5708   -1.6367 H   0  0  0  0  0  0  0  0  0  0  0  0
    1.0169   -1.3166   -0.7461 H   0  0  0  0  0  0  0  0  0  0  0  0
    0.5742    0.0792    1.6710 H   0  0  0  0  0  0  0  0  0  0  0  0
   -3.2438    0.2810    1.1854 H   0  0  0  0  0  0  0  0  0  0  0  0
   -2.9903   -1.3701    0.3262 H   0  0  0  0  0  0  0  0  0  0  0  0
   -3.3929   -0.0127   -1.6123 H   0  0  0  0  0  0  0  0  0  0  0  0
   -2.4267    1.4026   -0.8779 H   0  0  0  0  0  0  0  0  0  0  0  0
   -1.4114   -1.5189   -1.2751 H   0  0  0  0  0  0  0  0  0  0  0  0
  1  2  1  0
  2  3  1  0
  3  4  1  0
  4  5  2  0
  5  6  1  0
  6  7  1  0
  7  8  1  0
  8  9  1  0
  9  3  1  0
  8  5  1  0
  1 10  1  0
  1 11  1  0
  1 12  1  0
  2 13  1  0
  2 14  1  0
  3 15  1  0
  4 16  1  0
  6 17  1  0
  6 18  1  0
  7 19  1  0
  7 20  1  0
  8 21  1  0
M  END
