
     RDKit          3D

 19 20  0  0  0  0  0  0  0  0999 V2000
    2.6048    0.0635   -0.0971 C   0  0  0  0  0  0  0  0  0  0  0  0
    1.2905    0.8134    0.0374 C   0  0  0  0  0  0  0  0  0  0  0  0
    0.1989   -0.2177    0.1618 C   0  0  0  0  0  0  0  0  0  0  0  0
    0.1718   -1.0835   -1.0362 C   0  0  0  0  0  0  0  0  0  0  0  0
    0.8193   -2.0651   -1.4423 O   0  0  0  0  0  0  0  0  0  0  0  0
   -0.8869   -0.3635   -1.5580 O   0  0  0  0  0  0  0  0  0  0  0  0
   -1.1308    0.1155   -0.3122 C   0  0  0  0  0  0  0  0  0  0  0  0
   -2.1777    0.8875    0.2423 C   0  0  0  0  0  0  0  0  0  0  0  0
   -2.2968   -0.5923    0.4257 C   0  0  0  0  0  0  0  0  0  0  0  0
    2.7827   -0.6205    0.7656 H   0  0  0  0  0  0  0  0  0  0  0  0
    3.4229    0.8051   -0.2247 H   0  0  0  0  0  0  0  0  0  0  0  0
    2.5714   -0.5138   -1.0594 H   0  0  0  0  0  0  0  0  0  0  0  0
    1.3276    1.5221    0.8747 H   0  0  0  0  0  0  0  0  0  0  0  0
    1.1356    1.3534   -0.9159 H   0  0  0  0  0  0  0  0  0  0  0  0
    0.2241   -0.7329    1.1365 H   0  0  0  0  0  0  0  0  0  0  0  0
   -2.0096    1.4592    1.1705 H   0  0  0  0  0  0  0  0  0  0  0  0
   -2.9390    1.3559   -0.4161 H   0  0  0  0  0  0  0  0  0  0  0  0
   -2.0880   -1.0392    1.3981 H   0  0  0  0  0  0  0  0  0  0  0  0
   -3.0209   -1.1471   -0.2141 H   0  0  0  0  0  0  0  0  0  0  0  0
  1  2  1  0
  2  3  1  0
  3  4  1  0
  4  5  2  0
  4  6  1  0
  6  7  1  0
  7  8  1  0
  8  9  1  0
  7  3  1  0
  9  7  1  0
  1 10  1  0
  1 11  1  0
  1 12  1  0
  2 13  1  0
  2 14  1  0
  3 15  1  0
  8 16  1  0
  8 17  1  0
  9 18  1  0
  9 19  1  0
M  END
