
     RDKit          3D

 21 22  0  0  0  0  0  0  0  0999 V2000
    2.6435    0.1639    0.0121 C   0  0  0  0  0  0  0  0  0  0  0  0
    1.3128    0.6230    0.5106 C   0  0  0  0  0  0  0  0  0  0  0  0
    0.2290   -0.3390    0.5755 C   0  0  0  0  0  0  0  0  0  0  0  0
   -0.2485   -1.0351   -0.6429 C   0  0  0  0  0  0  0  0  0  0  0  0
   -1.6450   -0.4742   -0.7450 C   0  0  0  0  0  0  0  0  0  0  0  0
   -1.4979    0.9772   -0.3304 C   0  0  0  0  0  0  0  0  0  0  0  0
   -1.0726    0.3475    0.9740 C   0  0  0  0  0  0  0  0  0  0  0  0
   -2.1331   -0.6716    0.6503 C   0  0  0  0  0  0  0  0  0  0  0  0
   -2.9782   -1.3511    1.1457 O   0  0  0  0  0  0  0  0  0  0  0  0
    2.6479   -0.2745   -0.9827 H   0  0  0  0  0  0  0  0  0  0  0  0
    3.1441   -0.5705    0.7004 H   0  0  0  0  0  0  0  0  0  0  0  0
    3.3277    1.0397   -0.0173 H   0  0  0  0  0  0  0  0  0  0  0  0
    1.4975    0.9785    1.5725 H   0  0  0  0  0  0  0  0  0  0  0  0
    1.0587    1.5548   -0.0286 H   0  0  0  0  0  0  0  0  0  0  0  0
    0.3750   -1.1112    1.3957 H   0  0  0  0  0  0  0  0  0  0  0  0
   -0.3623   -2.1252   -0.4678 H   0  0  0  0  0  0  0  0  0  0  0  0
    0.3497   -0.9133   -1.5451 H   0  0  0  0  0  0  0  0  0  0  0  0
   -2.2690   -0.7260   -1.5596 H   0  0  0  0  0  0  0  0  0  0  0  0
   -2.4866    1.4644   -0.1860 H   0  0  0  0  0  0  0  0  0  0  0  0
   -0.7624    1.5644   -0.8561 H   0  0  0  0  0  0  0  0  0  0  0  0
   -1.1304    0.8784    1.8739 H   0  0  0  0  0  0  0  0  0  0  0  0
  1  2  1  0
  2  3  1  0
  3  4  1  0
  4  5  1  0
  5  6  1  0
  6  7  1  0
  7  8  1  0
  8  9  2  0
  7  3  1  0
  8  5  1  0
  1 10  1  0
  1 11  1  0
  1 12  1  0
  2 13  1  0
  2 14  1  0
  3 15  1  0
  4 16  1  0
  4 17  1  0
  5 18  1  0
  6 19  1  0
  6 20  1  0
  7 21  1  0
M  END
