
     RDKit          3D

 23 24  0  0  0  0  0  0  0  0999 V2000
    2.7182   -0.6889   -0.3864 C   0  0  0  0  0  0  0  0  0  0  0  0
    1.8906    0.5800   -0.1439 C   0  0  0  0  0  0  0  0  0  0  0  0
    0.6733    0.1678    0.6135 C   0  0  0  0  0  0  0  0  0  0  0  0
   -0.1716   -0.8574   -0.1677 C   0  0  0  0  0  0  0  0  0  0  0  0
   -1.4950   -0.1055   -0.0376 C   0  0  0  0  0  0  0  0  0  0  0  0
   -2.7144   -0.7721   -0.4451 C   0  0  0  0  0  0  0  0  0  0  0  0
   -1.1425    1.2393   -0.5717 C   0  0  0  0  0  0  0  0  0  0  0  0
   -0.3752    1.2333    0.7346 C   0  0  0  0  0  0  0  0  0  0  0  0
   -1.4517    0.4790    1.2505 O   0  0  0  0  0  0  0  0  0  0  0  0
    2.5155   -1.4163    0.4497 H   0  0  0  0  0  0  0  0  0  0  0  0
    3.8072   -0.4620   -0.3853 H   0  0  0  0  0  0  0  0  0  0  0  0
    2.3751   -1.1498   -1.3324 H   0  0  0  0  0  0  0  0  0  0  0  0
    1.6777    1.1170   -1.0716 H   0  0  0  0  0  0  0  0  0  0  0  0
    2.5047    1.2050    0.5374 H   0  0  0  0  0  0  0  0  0  0  0  0
    0.9551   -0.3078    1.5656 H   0  0  0  0  0  0  0  0  0  0  0  0
   -0.1939   -1.8226    0.3426 H   0  0  0  0  0  0  0  0  0  0  0  0
    0.1626   -0.9078   -1.2229 H   0  0  0  0  0  0  0  0  0  0  0  0
   -2.5040   -1.5470   -1.2100 H   0  0  0  0  0  0  0  0  0  0  0  0
   -3.4867   -0.0454   -0.7551 H   0  0  0  0  0  0  0  0  0  0  0  0
   -3.1519   -1.3411    0.4281 H   0  0  0  0  0  0  0  0  0  0  0  0
   -0.4898    1.2659   -1.4578 H   0  0  0  0  0  0  0  0  0  0  0  0
   -1.9543    1.9761   -0.5337 H   0  0  0  0  0  0  0  0  0  0  0  0
   -0.1489    2.1603    1.2041 H   0  0  0  0  0  0  0  0  0  0  0  0
  1  2  1  0
  2  3  1  0
  3  4  1  0
  4  5  1  0
  5  6  1  0
  5  7  1  0
  7  8  1  0
  8  9  1  0
  8  3  1  0
  9  5  1  0
  1 10  1  0
  1 11  1  0
  1 12  1  0
  2 13  1  0
  2 14  1  0
  3 15  1  0
  4 16  1  0
  4 17  1  0
  6 18  1  0
  6 19  1  0
  6 20  1  0
  7 21  1  0
  7 22  1  0
  8 23  1  0
M  END
