
     RDKit          3D

 25 25  0  0  0  0  0  0  0  0999 V2000
   -2.8142   -0.4570    0.8249 C   0  0  0  0  0  0  0  0  0  0  0  0
   -1.3426   -0.1419    1.0420 C   0  0  0  0  0  0  0  0  0  0  0  0
   -0.8006    0.5950   -0.1505 C   0  0  0  0  0  0  0  0  0  0  0  0
   -1.5042    1.9142   -0.4299 C   0  0  0  0  0  0  0  0  0  0  0  0
   -0.5223   -0.3132   -1.3453 C   0  0  0  0  0  0  0  0  0  0  0  0
    0.5674    0.4129   -0.6445 C   0  0  0  0  0  0  0  0  0  0  0  0
    1.6186   -0.3300    0.1275 C   0  0  0  0  0  0  0  0  0  0  0  0
    2.7773   -0.3204   -0.6041 O   0  0  0  0  0  0  0  0  0  0  0  0
    3.8294   -0.9846    0.0170 C   0  0  0  0  0  0  0  0  0  0  0  0
   -3.1230   -0.2627   -0.2314 H   0  0  0  0  0  0  0  0  0  0  0  0
   -3.0293   -1.5445    0.9926 H   0  0  0  0  0  0  0  0  0  0  0  0
   -3.4681    0.1208    1.5093 H   0  0  0  0  0  0  0  0  0  0  0  0
   -0.8238   -1.1062    1.1928 H   0  0  0  0  0  0  0  0  0  0  0  0
   -1.2058    0.4686    1.9581 H   0  0  0  0  0  0  0  0  0  0  0  0
   -1.4136    2.5340    0.4894 H   0  0  0  0  0  0  0  0  0  0  0  0
   -2.5602    1.7470   -0.7215 H   0  0  0  0  0  0  0  0  0  0  0  0
   -1.0295    2.4632   -1.2595 H   0  0  0  0  0  0  0  0  0  0  0  0
   -0.8795    0.0591   -2.3424 H   0  0  0  0  0  0  0  0  0  0  0  0
   -0.6689   -1.4005   -1.2359 H   0  0  0  0  0  0  0  0  0  0  0  0
    0.9866    1.2872   -1.2235 H   0  0  0  0  0  0  0  0  0  0  0  0
    1.2959   -1.3276    0.4683 H   0  0  0  0  0  0  0  0  0  0  0  0
    1.8054    0.2679    1.0667 H   0  0  0  0  0  0  0  0  0  0  0  0
    3.4716   -2.0483    0.1522 H   0  0  0  0  0  0  0  0  0  0  0  0
    4.1169   -0.5661    0.9816 H   0  0  0  0  0  0  0  0  0  0  0  0
    4.7167   -1.0668   -0.6336 H   0  0  0  0  0  0  0  0  0  0  0  0
  1  2  1  0
  2  3  1  0
  3  4  1  0
  3  5  1  0
  5  6  1  0
  6  7  1  0
  7  8  1  0
  8  9  1  0
  6  3  1  0
  1 10  1  0
  1 11  1  0
  1 12  1  0
  2 13  1  0
  2 14  1  0
  4 15  1  0
  4 16  1  0
  4 17  1  0
  5 18  1  0
  5 19  1  0
  6 20  1  0
  7 21  1  0
  7 22  1  0
  9 23  1  0
  9 24  1  0
  9 25  1  0
M  END
