
     RDKit          3D

 21 22  0  0  0  0  0  0  0  0999 V2000
    1.8813   -0.8374   -0.6414 C   0  0  0  0  0  0  0  0  0  0  0  0
    1.1307   -0.2441    0.5078 C   0  0  0  0  0  0  0  0  0  0  0  0
   -0.1517    0.4413    0.0964 C   0  0  0  0  0  0  0  0  0  0  0  0
   -1.1454   -0.4340   -0.5795 C   0  0  0  0  0  0  0  0  0  0  0  0
   -1.7303   -1.6149    0.0384 C   0  0  0  0  0  0  0  0  0  0  0  0
   -0.6354   -1.7425   -0.9505 O   0  0  0  0  0  0  0  0  0  0  0  0
    0.0140    1.8148   -0.4885 C   0  0  0  0  0  0  0  0  0  0  0  0
    0.2290    2.2907    0.8129 O   0  0  0  0  0  0  0  0  0  0  0  0
   -0.6672    1.2847    1.2441 C   0  0  0  0  0  0  0  0  0  0  0  0
    2.9776   -0.7752   -0.3773 H   0  0  0  0  0  0  0  0  0  0  0  0
    1.6904   -1.9194   -0.7955 H   0  0  0  0  0  0  0  0  0  0  0  0
    1.7777   -0.2440   -1.5788 H   0  0  0  0  0  0  0  0  0  0  0  0
    1.7627    0.4060    1.1098 H   0  0  0  0  0  0  0  0  0  0  0  0
    0.8225   -1.0940    1.1815 H   0  0  0  0  0  0  0  0  0  0  0  0
   -1.6582    0.0124   -1.4415 H   0  0  0  0  0  0  0  0  0  0  0  0
   -1.3843   -1.9758    1.0260 H   0  0  0  0  0  0  0  0  0  0  0  0
   -2.6943   -1.9829   -0.3791 H   0  0  0  0  0  0  0  0  0  0  0  0
    0.8809    1.9109   -1.1625 H   0  0  0  0  0  0  0  0  0  0  0  0
   -0.9473    2.1490   -0.9430 H   0  0  0  0  0  0  0  0  0  0  0  0
   -1.7027    1.6546    1.0703 H   0  0  0  0  0  0  0  0  0  0  0  0
   -0.4500    0.8997    2.2502 H   0  0  0  0  0  0  0  0  0  0  0  0
  1  2  1  0
  2  3  1  0
  3  4  1  0
  4  5  1  0
  5  6  1  0
  3  7  1  0
  7  8  1  0
  8  9  1  0
  9  3  1  0
  6  4  1  0
  1 10  1  0
  1 11  1  0
  1 12  1  0
  2 13  1  0
  2 14  1  0
  4 15  1  0
  5 16  1  0
  5 17  1  0
  7 18  1  0
  7 19  1  0
  9 20  1  0
  9 21  1  0
M  END
