
     RDKit          3D

 25 25  0  0  0  0  0  0  0  0999 V2000
    2.6251    0.2298    0.4680 C   0  0  0  0  0  0  0  0  0  0  0  0
    1.2316    0.8326    0.6015 C   0  0  0  0  0  0  0  0  0  0  0  0
    0.2390   -0.2781    0.6698 C   0  0  0  0  0  0  0  0  0  0  0  0
    0.1361   -1.2204   -0.4480 C   0  0  0  0  0  0  0  0  0  0  0  0
    0.8150   -0.9877   -1.7725 C   0  0  0  0  0  0  0  0  0  0  0  0
   -1.0092   -0.2936   -0.1168 C   0  0  0  0  0  0  0  0  0  0  0  0
   -1.3007    0.8886   -0.9897 C   0  0  0  0  0  0  0  0  0  0  0  0
   -2.1396   -0.9541    0.3527 O   0  0  0  0  0  0  0  0  0  0  0  0
   -2.5919   -0.4608    1.5651 C   0  0  0  0  0  0  0  0  0  0  0  0
    3.3763    0.8592    1.0174 H   0  0  0  0  0  0  0  0  0  0  0  0
    2.9527    0.2408   -0.5913 H   0  0  0  0  0  0  0  0  0  0  0  0
    2.5918   -0.7928    0.9018 H   0  0  0  0  0  0  0  0  0  0  0  0
    1.0614    1.5112   -0.2436 H   0  0  0  0  0  0  0  0  0  0  0  0
    1.2469    1.4563    1.5202 H   0  0  0  0  0  0  0  0  0  0  0  0
    0.1535   -0.7296    1.7024 H   0  0  0  0  0  0  0  0  0  0  0  0
    0.0324   -2.3141   -0.2097 H   0  0  0  0  0  0  0  0  0  0  0  0
    0.1719   -1.4456   -2.5619 H   0  0  0  0  0  0  0  0  0  0  0  0
    1.0191    0.0560   -2.0004 H   0  0  0  0  0  0  0  0  0  0  0  0
    1.7492   -1.6097   -1.7609 H   0  0  0  0  0  0  0  0  0  0  0  0
   -0.9331    1.8380   -0.5182 H   0  0  0  0  0  0  0  0  0  0  0  0
   -2.4090    1.0419   -1.1346 H   0  0  0  0  0  0  0  0  0  0  0  0
   -0.8676    0.8306   -1.9971 H   0  0  0  0  0  0  0  0  0  0  0  0
   -2.8410    0.6072    1.4207 H   0  0  0  0  0  0  0  0  0  0  0  0
   -1.7893   -0.6055    2.3121 H   0  0  0  0  0  0  0  0  0  0  0  0
   -3.5206   -1.0067    1.8130 H   0  0  0  0  0  0  0  0  0  0  0  0
  1  2  1  0
  2  3  1  0
  3  4  1  0
  4  5  1  0
  4  6  1  0
  6  7  1  0
  6  8  1  0
  8  9  1  0
  6  3  1  0
  1 10  1  0
  1 11  1  0
  1 12  1  0
  2 13  1  0
  2 14  1  0
  3 15  1  0
  4 16  1  0
  5 17  1  0
  5 18  1  0
  5 19  1  0
  7 20  1  0
  7 21  1  0
  7 22  1  0
  9 23  1  0
  9 24  1  0
  9 25  1  0
M  END
