
     RDKit          3D

 25 25  0  0  0  0  0  0  0  0999 V2000
    2.9748    0.1296    0.3505 C   0  0  0  0  0  0  0  0  0  0  0  0
    1.6561    0.8859    0.2099 C   0  0  0  0  0  0  0  0  0  0  0  0
    0.7779    0.2904   -0.8271 C   0  0  0  0  0  0  0  0  0  0  0  0
   -0.5661    0.9552   -1.0670 C   0  0  0  0  0  0  0  0  0  0  0  0
   -0.4380   -0.4751   -0.6311 C   0  0  0  0  0  0  0  0  0  0  0  0
   -0.7703   -1.4404   -1.8041 C   0  0  0  0  0  0  0  0  0  0  0  0
   -1.1003   -0.8884    0.6225 C   0  0  0  0  0  0  0  0  0  0  0  0
   -1.5916    0.1731    1.5475 C   0  0  0  0  0  0  0  0  0  0  0  0
   -2.5595    1.0098    0.9608 O   0  0  0  0  0  0  0  0  0  0  0  0
    2.9376   -0.6095    1.1763 H   0  0  0  0  0  0  0  0  0  0  0  0
    3.8108    0.8255    0.5699 H   0  0  0  0  0  0  0  0  0  0  0  0
    3.1680   -0.4479   -0.5872 H   0  0  0  0  0  0  0  0  0  0  0  0
    1.2306    0.9549    1.2093 H   0  0  0  0  0  0  0  0  0  0  0  0
    1.9610    1.9293   -0.1034 H   0  0  0  0  0  0  0  0  0  0  0  0
    1.3549    0.0924   -1.8012 H   0  0  0  0  0  0  0  0  0  0  0  0
   -0.8368    1.2121   -2.1141 H   0  0  0  0  0  0  0  0  0  0  0  0
   -0.8741    1.7507   -0.3632 H   0  0  0  0  0  0  0  0  0  0  0  0
    0.0864   -1.5300   -2.4897 H   0  0  0  0  0  0  0  0  0  0  0  0
   -1.6476   -1.0531   -2.3629 H   0  0  0  0  0  0  0  0  0  0  0  0
   -1.0232   -2.4452   -1.4135 H   0  0  0  0  0  0  0  0  0  0  0  0
   -2.0169   -1.5245    0.3911 H   0  0  0  0  0  0  0  0  0  0  0  0
   -0.4787   -1.5943    1.2369 H   0  0  0  0  0  0  0  0  0  0  0  0
   -2.2047   -0.3955    2.3300 H   0  0  0  0  0  0  0  0  0  0  0  0
   -0.8510    0.7246    2.1077 H   0  0  0  0  0  0  0  0  0  0  0  0
   -2.9994    1.4703    1.7213 H   0  0  0  0  0  0  0  0  0  0  0  0
  1  2  1  0
  2  3  1  0
  3  4  1  0
  4  5  1  0
  5  6  1  0
  5  7  1  0
  7  8  1  0
  8  9  1  0
  5  3  1  0
  1 10  1  0
  1 11  1  0
  1 12  1  0
  2 13  1  0
  2 14  1  0
  3 15  1  0
  4 16  1  0
  4 17  1  0
  6 18  1  0
  6 19  1  0
  6 20  1  0
  7 21  1  0
  7 22  1  0
  8 23  1  0
  8 24  1  0
  9 25  1  0
M  END
