
     RDKit          3D

 27 27  0  0  0  0  0  0  0  0999 V2000
    3.0107   -0.9671    0.0796 C   0  0  0  0  0  0  0  0  0  0  0  0
    1.7621   -0.8003    0.8773 C   0  0  0  0  0  0  0  0  0  0  0  0
    0.9038    0.3584    0.4297 C   0  0  0  0  0  0  0  0  0  0  0  0
    0.3435    0.4673   -0.9063 C   0  0  0  0  0  0  0  0  0  0  0  0
    0.2360    1.8476   -1.5680 C   0  0  0  0  0  0  0  0  0  0  0  0
   -0.5584    0.1688    0.2609 C   0  0  0  0  0  0  0  0  0  0  0  0
   -1.4774    1.2424    0.7885 C   0  0  0  0  0  0  0  0  0  0  0  0
   -1.1739   -1.2042    0.2297 C   0  0  0  0  0  0  0  0  0  0  0  0
   -2.6678   -1.0375    0.0456 C   0  0  0  0  0  0  0  0  0  0  0  0
    3.9301   -0.6101    0.6217 H   0  0  0  0  0  0  0  0  0  0  0  0
    3.1849   -2.0696   -0.0514 H   0  0  0  0  0  0  0  0  0  0  0  0
    3.0127   -0.4500   -0.8864 H   0  0  0  0  0  0  0  0  0  0  0  0
    1.1032   -1.7054    0.8158 H   0  0  0  0  0  0  0  0  0  0  0  0
    2.0506   -0.7183    1.9457 H   0  0  0  0  0  0  0  0  0  0  0  0
    1.2022    1.3181    0.9239 H   0  0  0  0  0  0  0  0  0  0  0  0
    0.4885   -0.3247   -1.6917 H   0  0  0  0  0  0  0  0  0  0  0  0
    1.0780    1.9387   -2.2824 H   0  0  0  0  0  0  0  0  0  0  0  0
   -0.7177    1.8460   -2.1300 H   0  0  0  0  0  0  0  0  0  0  0  0
    0.3271    2.6599   -0.8376 H   0  0  0  0  0  0  0  0  0  0  0  0
   -0.8943    1.7769    1.5945 H   0  0  0  0  0  0  0  0  0  0  0  0
   -2.3616    0.8286    1.2925 H   0  0  0  0  0  0  0  0  0  0  0  0
   -1.7589    1.9881    0.0480 H   0  0  0  0  0  0  0  0  0  0  0  0
   -0.9713   -1.7863    1.1512 H   0  0  0  0  0  0  0  0  0  0  0  0
   -0.8223   -1.8111   -0.6465 H   0  0  0  0  0  0  0  0  0  0  0  0
   -2.9248   -0.0712   -0.4499 H   0  0  0  0  0  0  0  0  0  0  0  0
   -3.2253   -1.0592    0.9968 H   0  0  0  0  0  0  0  0  0  0  0  0
   -3.0799   -1.8259   -0.6511 H   0  0  0  0  0  0  0  0  0  0  0  0
  1  2  1  0
  2  3  1  0
  3  4  1  0
  4  5  1  0
  4  6  1  0
  6  7  1  0
  6  8  1  0
  8  9  1  0
  6  3  1  0
  1 10  1  0
  1 11  1  0
  1 12  1  0
  2 13  1  0
  2 14  1  0
  3 15  1  0
  4 16  1  0
  5 17  1  0
  5 18  1  0
  5 19  1  0
  7 20  1  0
  7 21  1  0
  7 22  1  0
  8 23  1  0
  8 24  1  0
  9 25  1  0
  9 26  1  0
  9 27  1  0
M  END
