
     RDKit          3D

 23 23  0  0  0  0  0  0  0  0999 V2000
    2.5351    1.2928    0.6153 C   0  0  0  0  0  0  0  0  0  0  0  0
    1.0868    1.1942    0.1864 C   0  0  0  0  0  0  0  0  0  0  0  0
    0.6053   -0.2330    0.3283 C   0  0  0  0  0  0  0  0  0  0  0  0
    1.3250   -1.1216   -0.4378 O   0  0  0  0  0  0  0  0  0  0  0  0
    0.4409   -2.1668   -0.7069 C   0  0  0  0  0  0  0  0  0  0  0  0
   -0.7705   -1.3608   -1.2002 C   0  0  0  0  0  0  0  0  0  0  0  0
   -0.8417   -0.3486   -0.0522 C   0  0  0  0  0  0  0  0  0  0  0  0
   -1.4273    0.8296   -0.4216 O   0  0  0  0  0  0  0  0  0  0  0  0
   -2.5905    1.0051    0.3445 C   0  0  0  0  0  0  0  0  0  0  0  0
    2.7444    2.3743    0.7645 H   0  0  0  0  0  0  0  0  0  0  0  0
    2.7315    0.7809    1.5629 H   0  0  0  0  0  0  0  0  0  0  0  0
    3.1966    0.9609   -0.2171 H   0  0  0  0  0  0  0  0  0  0  0  0
    0.4385    1.8274    0.8150 H   0  0  0  0  0  0  0  0  0  0  0  0
    1.0409    1.5454   -0.8622 H   0  0  0  0  0  0  0  0  0  0  0  0
    0.7459   -0.5228    1.3937 H   0  0  0  0  0  0  0  0  0  0  0  0
    0.8000   -2.8561   -1.4713 H   0  0  0  0  0  0  0  0  0  0  0  0
    0.1524   -2.6258    0.2384 H   0  0  0  0  0  0  0  0  0  0  0  0
   -1.6684   -1.9687   -1.2804 H   0  0  0  0  0  0  0  0  0  0  0  0
   -0.4357   -0.8811   -2.1335 H   0  0  0  0  0  0  0  0  0  0  0  0
   -1.4217   -0.8685    0.7506 H   0  0  0  0  0  0  0  0  0  0  0  0
   -3.3174    0.1777    0.1882 H   0  0  0  0  0  0  0  0  0  0  0  0
   -2.3508    0.9673    1.4481 H   0  0  0  0  0  0  0  0  0  0  0  0
   -3.0194    1.9983    0.1473 H   0  0  0  0  0  0  0  0  0  0  0  0
  1  2  1  0
  2  3  1  0
  3  4  1  0
  4  5  1  0
  5  6  1  0
  6  7  1  0
  7  8  1  0
  8  9  1  0
  7  3  1  0
  1 10  1  0
  1 11  1  0
  1 12  1  0
  2 13  1  0
  2 14  1  0
  3 15  1  0
  5 16  1  0
  5 17  1  0
  6 18  1  0
  6 19  1  0
  7 20  1  0
  9 21  1  0
  9 22  1  0
  9 23  1  0
M  END
