
     RDKit          3D

 23 23  0  0  0  0  0  0  0  0999 V2000
   -0.6822    1.6519    1.1016 C   0  0  0  0  0  0  0  0  0  0  0  0
   -1.3029    0.5700    0.3357 C   0  0  0  0  0  0  0  0  0  0  0  0
   -0.5122   -0.6282   -0.0478 C   0  0  0  0  0  0  0  0  0  0  0  0
    0.6661   -0.5596   -0.9237 C   0  0  0  0  0  0  0  0  0  0  0  0
    1.8838    0.1701   -0.6700 C   0  0  0  0  0  0  0  0  0  0  0  0
    1.9494    1.6109   -0.5503 C   0  0  0  0  0  0  0  0  0  0  0  0
    2.3754    2.2318    0.4048 O   0  0  0  0  0  0  0  0  0  0  0  0
   -1.4798   -1.8230   -0.3865 C   0  0  0  0  0  0  0  0  0  0  0  0
   -0.6173   -1.8429    0.8366 C   0  0  0  0  0  0  0  0  0  0  0  0
   -0.4442    2.5679    0.5369 H   0  0  0  0  0  0  0  0  0  0  0  0
    0.1992    1.3232    1.6740 H   0  0  0  0  0  0  0  0  0  0  0  0
   -1.4210    1.9625    1.9230 H   0  0  0  0  0  0  0  0  0  0  0  0
   -2.2154    0.2156    0.9016 H   0  0  0  0  0  0  0  0  0  0  0  0
   -1.7870    1.0393   -0.5909 H   0  0  0  0  0  0  0  0  0  0  0  0
    0.9817   -1.6519   -1.1550 H   0  0  0  0  0  0  0  0  0  0  0  0
    0.2761   -0.2893   -1.9823 H   0  0  0  0  0  0  0  0  0  0  0  0
    2.4186   -0.2568    0.2630 H   0  0  0  0  0  0  0  0  0  0  0  0
    2.6463   -0.1742   -1.4678 H   0  0  0  0  0  0  0  0  0  0  0  0
    1.5913    2.2427   -1.3798 H   0  0  0  0  0  0  0  0  0  0  0  0
   -1.1951   -2.4417   -1.2581 H   0  0  0  0  0  0  0  0  0  0  0  0
   -2.5389   -1.7009   -0.1925 H   0  0  0  0  0  0  0  0  0  0  0  0
   -1.0032   -1.6422    1.8337 H   0  0  0  0  0  0  0  0  0  0  0  0
    0.2112   -2.5754    0.7935 H   0  0  0  0  0  0  0  0  0  0  0  0
  1  2  1  0
  2  3  1  0
  3  4  1  0
  4  5  1  0
  5  6  1  0
  6  7  2  0
  3  8  1  0
  8  9  1  0
  9  3  1  0
  1 10  1  0
  1 11  1  0
  1 12  1  0
  2 13  1  0
  2 14  1  0
  4 15  1  0
  4 16  1  0
  5 17  1  0
  5 18  1  0
  6 19  1  0
  8 20  1  0
  8 21  1  0
  9 22  1  0
  9 23  1  0
M  END
