
     RDKit          3D

 21 21  0  0  0  0  0  0  0  0999 V2000
    2.1556   -0.8910   -0.1137 C   0  0  0  0  0  0  0  0  0  0  0  0
    0.8724   -0.6056   -0.8453 C   0  0  0  0  0  0  0  0  0  0  0  0
   -0.0678    0.2617   -0.0478 C   0  0  0  0  0  0  0  0  0  0  0  0
    0.6296    1.5704    0.2337 C   0  0  0  0  0  0  0  0  0  0  0  0
   -0.2044    2.4816    0.8859 O   0  0  0  0  0  0  0  0  0  0  0  0
   -1.1765    0.5151   -0.8625 O   0  0  0  0  0  0  0  0  0  0  0  0
   -2.2379   -0.1889   -0.3556 C   0  0  0  0  0  0  0  0  0  0  0  0
   -1.5843   -1.1302    0.6222 C   0  0  0  0  0  0  0  0  0  0  0  0
   -0.5174   -0.3653    1.0859 O   0  0  0  0  0  0  0  0  0  0  0  0
    2.7065   -1.6519   -0.7311 H   0  0  0  0  0  0  0  0  0  0  0  0
    1.8687   -1.3681    0.8596 H   0  0  0  0  0  0  0  0  0  0  0  0
    2.7608   -0.0031    0.0909 H   0  0  0  0  0  0  0  0  0  0  0  0
    0.3939   -1.5902   -1.0522 H   0  0  0  0  0  0  0  0  0  0  0  0
    1.0305   -0.1269   -1.8231 H   0  0  0  0  0  0  0  0  0  0  0  0
    0.8921    2.0188   -0.7487 H   0  0  0  0  0  0  0  0  0  0  0  0
    1.5074    1.4016    0.8770 H   0  0  0  0  0  0  0  0  0  0  0  0
    0.2413    3.3745    0.7688 H   0  0  0  0  0  0  0  0  0  0  0  0
   -2.9490    0.4487    0.2242 H   0  0  0  0  0  0  0  0  0  0  0  0
   -2.7880   -0.7877   -1.1223 H   0  0  0  0  0  0  0  0  0  0  0  0
   -2.2760   -1.3084    1.4667 H   0  0  0  0  0  0  0  0  0  0  0  0
   -1.2573   -2.0552    0.1198 H   0  0  0  0  0  0  0  0  0  0  0  0
  1  2  1  0
  2  3  1  0
  3  4  1  0
  4  5  1  0
  3  6  1  0
  6  7  1  0
  7  8  1  0
  8  9  1  0
  9  3  1  0
  1 10  1  0
  1 11  1  0
  1 12  1  0
  2 13  1  0
  2 14  1  0
  4 15  1  0
  4 16  1  0
  5 17  1  0
  7 18  1  0
  7 19  1  0
  8 20  1  0
  8 21  1  0
M  END
