
     RDKit          3D

 21 22  0  0  0  0  0  0  0  0999 V2000
    2.5568   -0.3167    0.2797 C   0  0  0  0  0  0  0  0  0  0  0  0
    1.5846   -0.0551   -0.8691 C   0  0  0  0  0  0  0  0  0  0  0  0
    0.2728    0.3995   -0.3352 C   0  0  0  0  0  0  0  0  0  0  0  0
   -0.3231    1.5542   -0.5929 C   0  0  0  0  0  0  0  0  0  0  0  0
   -1.6198    1.6322    0.1308 C   0  0  0  0  0  0  0  0  0  0  0  0
   -2.5953    0.6488   -0.2089 O   0  0  0  0  0  0  0  0  0  0  0  0
   -1.7403    0.5078    0.9209 C   0  0  0  0  0  0  0  0  0  0  0  0
   -0.5580   -0.4103    0.5820 C   0  0  0  0  0  0  0  0  0  0  0  0
   -1.1637   -1.6224   -0.1216 C   0  0  0  0  0  0  0  0  0  0  0  0
    2.5332    0.6183    0.9007 H   0  0  0  0  0  0  0  0  0  0  0  0
    3.5506   -0.4310   -0.1666 H   0  0  0  0  0  0  0  0  0  0  0  0
    2.2401   -1.1988    0.8839 H   0  0  0  0  0  0  0  0  0  0  0  0
    2.0558    0.7368   -1.4866 H   0  0  0  0  0  0  0  0  0  0  0  0
    1.4748   -0.9376   -1.5174 H   0  0  0  0  0  0  0  0  0  0  0  0
    0.0562    2.3420   -1.2322 H   0  0  0  0  0  0  0  0  0  0  0  0
   -2.0733    2.6076    0.3113 H   0  0  0  0  0  0  0  0  0  0  0  0
   -2.2056    0.3234    1.8902 H   0  0  0  0  0  0  0  0  0  0  0  0
   -0.0360   -0.7374    1.4812 H   0  0  0  0  0  0  0  0  0  0  0  0
   -1.9253   -2.0242    0.5947 H   0  0  0  0  0  0  0  0  0  0  0  0
   -0.4013   -2.3654   -0.3886 H   0  0  0  0  0  0  0  0  0  0  0  0
   -1.6832   -1.2717   -1.0562 H   0  0  0  0  0  0  0  0  0  0  0  0
  1  2  1  0
  2  3  1  0
  3  4  2  0
  4  5  1  0
  5  6  1  0
  6  7  1  0
  7  8  1  0
  8  9  1  0
  8  3  1  0
  7  5  1  0
  1 10  1  0
  1 11  1  0
  1 12  1  0
  2 13  1  0
  2 14  1  0
  4 15  1  0
  5 16  1  0
  7 17  1  0
  8 18  1  0
  9 19  1  0
  9 20  1  0
  9 21  1  0
M  END
