
     RDKit          3D

 23 24  0  0  0  0  0  0  0  0999 V2000
    2.3447   -0.3344    0.6683 C   0  0  0  0  0  0  0  0  0  0  0  0
    1.4388   -0.2296   -0.5101 C   0  0  0  0  0  0  0  0  0  0  0  0
    0.0483    0.2524   -0.1740 C   0  0  0  0  0  0  0  0  0  0  0  0
    0.1448    1.6056    0.4404 C   0  0  0  0  0  0  0  0  0  0  0  0
   -0.6894   -0.7511    0.7153 C   0  0  0  0  0  0  0  0  0  0  0  0
   -1.9995   -1.0457   -0.0466 C   0  0  0  0  0  0  0  0  0  0  0  0
   -2.1389    0.2975   -0.6898 C   0  0  0  0  0  0  0  0  0  0  0  0
   -1.8232    0.7833   -1.8538 O   0  0  0  0  0  0  0  0  0  0  0  0
   -0.7618    0.1735   -1.4155 C   0  0  0  0  0  0  0  0  0  0  0  0
    3.3935   -0.4225    0.2547 H   0  0  0  0  0  0  0  0  0  0  0  0
    2.2070   -1.2804    1.2559 H   0  0  0  0  0  0  0  0  0  0  0  0
    2.3589    0.5545    1.3118 H   0  0  0  0  0  0  0  0  0  0  0  0
    1.9151    0.4326   -1.2592 H   0  0  0  0  0  0  0  0  0  0  0  0
    1.4117   -1.2464   -0.9955 H   0  0  0  0  0  0  0  0  0  0  0  0
    0.0293    1.6029    1.5473 H   0  0  0  0  0  0  0  0  0  0  0  0
   -0.5590    2.3087   -0.0475 H   0  0  0  0  0  0  0  0  0  0  0  0
    1.1551    2.0228    0.2475 H   0  0  0  0  0  0  0  0  0  0  0  0
   -0.9763   -0.2236    1.6457 H   0  0  0  0  0  0  0  0  0  0  0  0
   -0.1178   -1.6570    0.8940 H   0  0  0  0  0  0  0  0  0  0  0  0
   -2.8186   -1.2791    0.6350 H   0  0  0  0  0  0  0  0  0  0  0  0
   -1.8067   -1.8400   -0.8027 H   0  0  0  0  0  0  0  0  0  0  0  0
   -2.1796    1.0900    0.1218 H   0  0  0  0  0  0  0  0  0  0  0  0
   -0.5763   -0.8137   -1.9431 H   0  0  0  0  0  0  0  0  0  0  0  0
  1  2  1  0
  2  3  1  0
  3  4  1  0
  3  5  1  0
  5  6  1  0
  6  7  1  0
  7  8  1  0
  8  9  1  0
  9  3  1  0
  9  7  1  0
  1 10  1  0
  1 11  1  0
  1 12  1  0
  2 13  1  0
  2 14  1  0
  4 15  1  0
  4 16  1  0
  4 17  1  0
  5 18  1  0
  5 19  1  0
  6 20  1  0
  6 21  1  0
  7 22  1  0
  9 23  1  0
M  END
