
     RDKit          3D

 23 24  0  0  0  0  0  0  0  0999 V2000
   -0.8122    2.1554   -1.0496 C   0  0  0  0  0  0  0  0  0  0  0  0
    0.1709    1.0317   -1.2070 C   0  0  0  0  0  0  0  0  0  0  0  0
    0.0175    0.0597   -0.0706 C   0  0  0  0  0  0  0  0  0  0  0  0
   -1.3603   -0.5209   -0.0331 C   0  0  0  0  0  0  0  0  0  0  0  0
   -1.5661   -1.5019    1.0884 C   0  0  0  0  0  0  0  0  0  0  0  0
    0.4744    0.6246    1.1101 O   0  0  0  0  0  0  0  0  0  0  0  0
    1.6186   -0.1209    1.2448 C   0  0  0  0  0  0  0  0  0  0  0  0
    2.4842   -0.4618    0.0993 C   0  0  0  0  0  0  0  0  0  0  0  0
    1.0951   -0.9759    0.0505 C   0  0  0  0  0  0  0  0  0  0  0  0
   -1.7534    1.9535   -1.5941 H   0  0  0  0  0  0  0  0  0  0  0  0
   -1.0736    2.2698    0.0384 H   0  0  0  0  0  0  0  0  0  0  0  0
   -0.3961    3.1318   -1.4179 H   0  0  0  0  0  0  0  0  0  0  0  0
    1.1736    1.4604   -1.2878 H   0  0  0  0  0  0  0  0  0  0  0  0
   -0.0594    0.5266   -2.1836 H   0  0  0  0  0  0  0  0  0  0  0  0
   -2.1429    0.2595    0.0247 H   0  0  0  0  0  0  0  0  0  0  0  0
   -1.5248   -1.0536   -0.9975 H   0  0  0  0  0  0  0  0  0  0  0  0
   -1.2326   -2.5240    0.7518 H   0  0  0  0  0  0  0  0  0  0  0  0
   -1.1128   -1.2022    2.0387 H   0  0  0  0  0  0  0  0  0  0  0  0
   -2.6745   -1.6110    1.2282 H   0  0  0  0  0  0  0  0  0  0  0  0
    1.7604   -0.6272    2.1951 H   0  0  0  0  0  0  0  0  0  0  0  0
    2.7344    0.2815   -0.6929 H   0  0  0  0  0  0  0  0  0  0  0  0
    3.3290   -1.1394    0.3215 H   0  0  0  0  0  0  0  0  0  0  0  0
    0.8505   -2.0157    0.3428 H   0  0  0  0  0  0  0  0  0  0  0  0
  1  2  1  0
  2  3  1  0
  3  4  1  0
  4  5  1  0
  3  6  1  0
  6  7  1  0
  7  8  1  0
  8  9  1  0
  9  3  1  0
  9  7  1  0
  1 10  1  0
  1 11  1  0
  1 12  1  0
  2 13  1  0
  2 14  1  0
  4 15  1  0
  4 16  1  0
  5 17  1  0
  5 18  1  0
  5 19  1  0
  7 20  1  0
  8 21  1  0
  8 22  1  0
  9 23  1  0
M  END
