
     RDKit          3D

 23 23  0  0  0  0  0  0  0  0999 V2000
    3.0434   -0.0410   -0.0925 C   0  0  0  0  0  0  0  0  0  0  0  0
    1.9485   -0.6262    0.7547 C   0  0  0  0  0  0  0  0  0  0  0  0
    0.6865    0.1667    0.5323 C   0  0  0  0  0  0  0  0  0  0  0  0
    0.7816    1.5185    0.8592 O   0  0  0  0  0  0  0  0  0  0  0  0
   -0.5781   -0.5054    1.0793 C   0  0  0  0  0  0  0  0  0  0  0  0
   -1.2922    0.1055   -0.1353 C   0  0  0  0  0  0  0  0  0  0  0  0
   -2.3060   -0.6534   -0.6539 O   0  0  0  0  0  0  0  0  0  0  0  0
   -3.4987    0.0459   -0.8107 C   0  0  0  0  0  0  0  0  0  0  0  0
    0.0608   -0.0427   -0.8459 C   0  0  0  0  0  0  0  0  0  0  0  0
    3.9942   -0.1070    0.4767 H   0  0  0  0  0  0  0  0  0  0  0  0
    2.8832    1.0323   -0.3109 H   0  0  0  0  0  0  0  0  0  0  0  0
    3.2059   -0.6370   -1.0272 H   0  0  0  0  0  0  0  0  0  0  0  0
    1.7675   -1.6652    0.4679 H   0  0  0  0  0  0  0  0  0  0  0  0
    2.2266   -0.4985    1.8207 H   0  0  0  0  0  0  0  0  0  0  0  0
    0.8335    2.0548    0.0095 H   0  0  0  0  0  0  0  0  0  0  0  0
   -0.8605   -0.0777    2.0393 H   0  0  0  0  0  0  0  0  0  0  0  0
   -0.4548   -1.5878    1.0141 H   0  0  0  0  0  0  0  0  0  0  0  0
   -1.5246    1.1639    0.0966 H   0  0  0  0  0  0  0  0  0  0  0  0
   -4.2427   -0.6602   -1.2338 H   0  0  0  0  0  0  0  0  0  0  0  0
   -3.3068    0.9073   -1.4715 H   0  0  0  0  0  0  0  0  0  0  0  0
   -3.7835    0.4215    0.1911 H   0  0  0  0  0  0  0  0  0  0  0  0
    0.2408    0.7629   -1.5599 H   0  0  0  0  0  0  0  0  0  0  0  0
    0.1753   -1.0773   -1.1998 H   0  0  0  0  0  0  0  0  0  0  0  0
  1  2  1  0
  2  3  1  0
  3  4  1  0
  3  5  1  0
  5  6  1  0
  6  7  1  0
  7  8  1  0
  6  9  1  0
  9  3  1  0
  1 10  1  0
  1 11  1  0
  1 12  1  0
  2 13  1  0
  2 14  1  0
  4 15  1  0
  5 16  1  0
  5 17  1  0
  6 18  1  0
  8 19  1  0
  8 20  1  0
  8 21  1  0
  9 22  1  0
  9 23  1  0
M  END
