
     RDKit          3D

 23 23  0  0  0  0  0  0  0  0999 V2000
   -2.8713    0.1664    0.5809 C   0  0  0  0  0  0  0  0  0  0  0  0
   -1.8736   -0.0383   -0.5225 C   0  0  0  0  0  0  0  0  0  0  0  0
   -0.4848   -0.3210   -0.0520 C   0  0  0  0  0  0  0  0  0  0  0  0
    0.3519   -0.4931   -1.3133 C   0  0  0  0  0  0  0  0  0  0  0  0
    1.7481   -0.8253   -1.0424 C   0  0  0  0  0  0  0  0  0  0  0  0
    2.6051   -0.4216   -0.1138 C   0  0  0  0  0  0  0  0  0  0  0  0
    2.3655    0.5460    0.9823 C   0  0  0  0  0  0  0  0  0  0  0  0
    1.1584    0.2301    1.5779 O   0  0  0  0  0  0  0  0  0  0  0  0
    0.0680    0.7206    0.8649 C   0  0  0  0  0  0  0  0  0  0  0  0
   -2.7004    1.0498    1.1928 H   0  0  0  0  0  0  0  0  0  0  0  0
   -2.9368   -0.7776    1.1702 H   0  0  0  0  0  0  0  0  0  0  0  0
   -3.8676    0.2853    0.1008 H   0  0  0  0  0  0  0  0  0  0  0  0
   -1.9065    0.8001   -1.2607 H   0  0  0  0  0  0  0  0  0  0  0  0
   -2.2115   -0.9379   -1.0969 H   0  0  0  0  0  0  0  0  0  0  0  0
   -0.4875   -1.2867    0.4776 H   0  0  0  0  0  0  0  0  0  0  0  0
   -0.1203   -1.3265   -1.8726 H   0  0  0  0  0  0  0  0  0  0  0  0
    0.2508    0.4108   -1.9754 H   0  0  0  0  0  0  0  0  0  0  0  0
    2.1846   -1.5423   -1.7281 H   0  0  0  0  0  0  0  0  0  0  0  0
    3.5846   -0.8744   -0.1995 H   0  0  0  0  0  0  0  0  0  0  0  0
    2.3642    1.5691    0.5459 H   0  0  0  0  0  0  0  0  0  0  0  0
    3.1846    0.4422    1.7138 H   0  0  0  0  0  0  0  0  0  0  0  0
   -0.7090    0.9494    1.6236 H   0  0  0  0  0  0  0  0  0  0  0  0
    0.3035    1.6752    0.3464 H   0  0  0  0  0  0  0  0  0  0  0  0
  1  2  1  0
  2  3  1  0
  3  4  1  0
  4  5  1  0
  5  6  2  0
  6  7  1  0
  7  8  1  0
  8  9  1  0
  9  3  1  0
  1 10  1  0
  1 11  1  0
  1 12  1  0
  2 13  1  0
  2 14  1  0
  3 15  1  0
  4 16  1  0
  4 17  1  0
  5 18  1  0
  6 19  1  0
  7 20  1  0
  7 21  1  0
  9 22  1  0
  9 23  1  0
M  END
