
     RDKit          3D

 21 21  0  0  0  0  0  0  0  0999 V2000
    2.8735    0.2631   -0.2636 C   0  0  0  0  0  0  0  0  0  0  0  0
    1.7209    0.3817    0.7121 C   0  0  0  0  0  0  0  0  0  0  0  0
    0.6130   -0.6255    0.3750 C   0  0  0  0  0  0  0  0  0  0  0  0
    0.1761   -0.3603   -0.8751 O   0  0  0  0  0  0  0  0  0  0  0  0
   -0.9725    0.3504   -1.0122 C   0  0  0  0  0  0  0  0  0  0  0  0
   -2.0077   -0.3100   -0.0955 C   0  0  0  0  0  0  0  0  0  0  0  0
   -3.2657    0.1961   -0.2679 O   0  0  0  0  0  0  0  0  0  0  0  0
   -1.4515   -0.0740    1.3021 C   0  0  0  0  0  0  0  0  0  0  0  0
   -0.2478   -0.6719    1.3976 O   0  0  0  0  0  0  0  0  0  0  0  0
    3.6983   -0.3629    0.1860 H   0  0  0  0  0  0  0  0  0  0  0  0
    2.5220   -0.3393   -1.1444 H   0  0  0  0  0  0  0  0  0  0  0  0
    3.2834    1.2330   -0.5562 H   0  0  0  0  0  0  0  0  0  0  0  0
    2.1197    0.2166    1.7188 H   0  0  0  0  0  0  0  0  0  0  0  0
    1.3233    1.4210    0.6854 H   0  0  0  0  0  0  0  0  0  0  0  0
    1.1527   -1.6200    0.3338 H   0  0  0  0  0  0  0  0  0  0  0  0
   -0.7883    1.3912   -0.6555 H   0  0  0  0  0  0  0  0  0  0  0  0
   -1.2923    0.3241   -2.0711 H   0  0  0  0  0  0  0  0  0  0  0  0
   -1.9331   -1.4128   -0.2899 H   0  0  0  0  0  0  0  0  0  0  0  0
   -3.9165   -0.5615   -0.1134 H   0  0  0  0  0  0  0  0  0  0  0  0
   -1.4452    1.0415    1.4502 H   0  0  0  0  0  0  0  0  0  0  0  0
   -2.1623   -0.4805    2.0521 H   0  0  0  0  0  0  0  0  0  0  0  0
  1  2  1  0
  2  3  1  0
  3  4  1  0
  4  5  1  0
  5  6  1  0
  6  7  1  0
  6  8  1  0
  8  9  1  0
  9  3  1  0
  1 10  1  0
  1 11  1  0
  1 12  1  0
  2 13  1  0
  2 14  1  0
  3 15  1  0
  5 16  1  0
  5 17  1  0
  6 18  1  0
  7 19  1  0
  8 20  1  0
  8 21  1  0
M  END
