
     RDKit          3D

 21 23  0  0  0  0  0  0  0  0999 V2000
   -2.2590   -0.7158    0.2240 C   0  0  0  0  0  0  0  0  0  0  0  0
   -1.3269   -0.1591   -0.8538 C   0  0  0  0  0  0  0  0  0  0  0  0
   -0.0978    0.3567   -0.0890 C   0  0  0  0  0  0  0  0  0  0  0  0
   -0.5481    1.4480    0.9013 C   0  0  0  0  0  0  0  0  0  0  0  0
    1.1540    0.4373   -0.7908 C   0  0  0  0  0  0  0  0  0  0  0  0
    2.1639   -0.6595   -1.0320 C   0  0  0  0  0  0  0  0  0  0  0  0
    3.2913   -0.8691   -0.3530 O   0  0  0  0  0  0  0  0  0  0  0  0
    2.3871   -0.3513    0.4808 C   0  0  0  0  0  0  0  0  0  0  0  0
    0.8934   -0.5465    0.4237 C   0  0  0  0  0  0  0  0  0  0  0  0
   -1.6477   -1.0755    1.1026 H   0  0  0  0  0  0  0  0  0  0  0  0
   -2.9447    0.0727    0.6105 H   0  0  0  0  0  0  0  0  0  0  0  0
   -2.8365   -1.5792   -0.1341 H   0  0  0  0  0  0  0  0  0  0  0  0
   -1.0644   -0.8985   -1.6085 H   0  0  0  0  0  0  0  0  0  0  0  0
   -1.8432    0.7006   -1.3505 H   0  0  0  0  0  0  0  0  0  0  0  0
    0.3338    1.7943    1.4793 H   0  0  0  0  0  0  0  0  0  0  0  0
   -1.0381    2.2703    0.3427 H   0  0  0  0  0  0  0  0  0  0  0  0
   -1.2868    0.9206    1.5656 H   0  0  0  0  0  0  0  0  0  0  0  0
    1.7332    1.3716   -0.5112 H   0  0  0  0  0  0  0  0  0  0  0  0
    1.6222   -1.6194   -1.2612 H   0  0  0  0  0  0  0  0  0  0  0  0
    2.6168    0.7219    0.7352 H   0  0  0  0  0  0  0  0  0  0  0  0
    0.6977   -1.6202    0.1186 H   0  0  0  0  0  0  0  0  0  0  0  0
  1  2  1  0
  2  3  1  0
  3  4  1  0
  3  5  1  0
  5  6  1  0
  6  7  1  0
  7  8  1  0
  8  9  1  0
  9  3  1  0
  9  5  1  0
  8  6  1  0
  1 10  1  0
  1 11  1  0
  1 12  1  0
  2 13  1  0
  2 14  1  0
  4 15  1  0
  4 16  1  0
  4 17  1  0
  5 18  1  0
  6 19  1  0
  8 20  1  0
  9 21  1  0
M  END
