
     RDKit          3D

 16 16  0  0  0  0  0  0  0  0999 V2000
   -2.1524    0.6531   -0.2061 C   0  0  0  0  0  0  0  0  0  0  0  0
   -1.1992   -0.3267    0.4499 C   0  0  0  0  0  0  0  0  0  0  0  0
    0.0855   -0.2755   -0.3529 C   0  0  0  0  0  0  0  0  0  0  0  0
    1.1184   -1.1727    0.1556 C   0  0  0  0  0  0  0  0  0  0  0  0
    2.1939   -0.4705    0.4380 C   0  0  0  0  0  0  0  0  0  0  0  0
    1.9664    0.9383    0.1431 C   0  0  0  0  0  0  0  0  0  0  0  0
    2.7525    1.9122    0.2800 O   0  0  0  0  0  0  0  0  0  0  0  0
    0.6703    0.9983   -0.3340 O   0  0  0  0  0  0  0  0  0  0  0  0
   -3.0030    0.9165    0.4313 H   0  0  0  0  0  0  0  0  0  0  0  0
   -1.5408    1.5501   -0.4853 H   0  0  0  0  0  0  0  0  0  0  0  0
   -2.4577    0.1830   -1.1716 H   0  0  0  0  0  0  0  0  0  0  0  0
   -0.9307    0.0409    1.4755 H   0  0  0  0  0  0  0  0  0  0  0  0
   -1.6402   -1.3274    0.4490 H   0  0  0  0  0  0  0  0  0  0  0  0
   -0.1188   -0.5296   -1.4353 H   0  0  0  0  0  0  0  0  0  0  0  0
    1.1020   -2.2537    0.3128 H   0  0  0  0  0  0  0  0  0  0  0  0
    3.1541   -0.8363    0.8399 H   0  0  0  0  0  0  0  0  0  0  0  0
  1  2  1  0
  2  3  1  0
  3  4  1  0
  4  5  2  0
  5  6  1  0
  6  7  2  0
  6  8  1  0
  8  3  1  0
  1  9  1  0
  1 10  1  0
  1 11  1  0
  2 12  1  0
  2 13  1  0
  3 14  1  0
  4 15  1  0
  5 16  1  0
M  END
