
     RDKit          3D

 23 23  0  0  0  0  0  0  0  0999 V2000
    1.6609    0.8688   -1.1094 C   0  0  0  0  0  0  0  0  0  0  0  0
    1.0204   -0.4125   -0.7268 C   0  0  0  0  0  0  0  0  0  0  0  0
    0.1277   -0.3990    0.4604 C   0  0  0  0  0  0  0  0  0  0  0  0
   -0.4776   -1.7857    0.7663 C   0  0  0  0  0  0  0  0  0  0  0  0
   -1.2758   -2.2244   -0.4205 C   0  0  0  0  0  0  0  0  0  0  0  0
   -1.8309   -3.2864   -0.3799 O   0  0  0  0  0  0  0  0  0  0  0  0
    0.3705    0.5276    1.5699 C   0  0  0  0  0  0  0  0  0  0  0  0
   -0.8431    0.7066    0.7399 C   0  0  0  0  0  0  0  0  0  0  0  0
   -1.0041    1.8386   -0.2145 C   0  0  0  0  0  0  0  0  0  0  0  0
    2.6181    0.6218   -1.6680 H   0  0  0  0  0  0  0  0  0  0  0  0
    1.0973    1.4733   -1.8546 H   0  0  0  0  0  0  0  0  0  0  0  0
    1.9728    1.5283   -0.3055 H   0  0  0  0  0  0  0  0  0  0  0  0
    1.8528   -1.1565   -0.5340 H   0  0  0  0  0  0  0  0  0  0  0  0
    0.5157   -0.8437   -1.6390 H   0  0  0  0  0  0  0  0  0  0  0  0
   -1.0744   -1.6884    1.6730 H   0  0  0  0  0  0  0  0  0  0  0  0
    0.3476   -2.5389    0.8631 H   0  0  0  0  0  0  0  0  0  0  0  0
   -1.3752   -1.6237   -1.3179 H   0  0  0  0  0  0  0  0  0  0  0  0
    0.2590    0.0658    2.5947 H   0  0  0  0  0  0  0  0  0  0  0  0
    1.1251    1.3079    1.5183 H   0  0  0  0  0  0  0  0  0  0  0  0
   -1.8009    0.4541    1.2894 H   0  0  0  0  0  0  0  0  0  0  0  0
   -1.2118    1.5467   -1.2502 H   0  0  0  0  0  0  0  0  0  0  0  0
   -1.9045    2.4473    0.0978 H   0  0  0  0  0  0  0  0  0  0  0  0
   -0.1696    2.5725   -0.1526 H   0  0  0  0  0  0  0  0  0  0  0  0
  1  2  1  0
  2  3  1  0
  3  4  1  0
  4  5  1  0
  5  6  2  0
  3  7  1  0
  7  8  1  0
  8  9  1  0
  8  3  1  0
  1 10  1  0
  1 11  1  0
  1 12  1  0
  2 13  1  0
  2 14  1  0
  4 15  1  0
  4 16  1  0
  5 17  1  0
  7 18  1  0
  7 19  1  0
  8 20  1  0
  9 21  1  0
  9 22  1  0
  9 23  1  0
M  END
