
     RDKit          3D

 23 24  0  0  0  0  0  0  0  0999 V2000
   -2.6812    0.6003    0.5403 C   0  0  0  0  0  0  0  0  0  0  0  0
   -1.1500    0.6599    0.6544 C   0  0  0  0  0  0  0  0  0  0  0  0
   -0.5994   -0.0395   -0.5287 C   0  0  0  0  0  0  0  0  0  0  0  0
   -1.0786   -1.4846   -0.5409 C   0  0  0  0  0  0  0  0  0  0  0  0
    0.2168   -1.9601   -0.7205 O   0  0  0  0  0  0  0  0  0  0  0  0
    0.6859   -0.6919   -0.5102 C   0  0  0  0  0  0  0  0  0  0  0  0
    1.8214   -0.1843   -1.3590 C   0  0  0  0  0  0  0  0  0  0  0  0
    1.9094   -0.4002    0.1582 C   0  0  0  0  0  0  0  0  0  0  0  0
    2.2286    0.8453    0.9204 C   0  0  0  0  0  0  0  0  0  0  0  0
   -3.0158   -0.4281    0.2897 H   0  0  0  0  0  0  0  0  0  0  0  0
   -2.9915    1.2550   -0.3217 H   0  0  0  0  0  0  0  0  0  0  0  0
   -3.1744    0.8895    1.4691 H   0  0  0  0  0  0  0  0  0  0  0  0
   -0.8827    1.7156    0.7457 H   0  0  0  0  0  0  0  0  0  0  0  0
   -0.9155    0.1051    1.6013 H   0  0  0  0  0  0  0  0  0  0  0  0
   -0.8386    0.5106   -1.4684 H   0  0  0  0  0  0  0  0  0  0  0  0
   -1.4512   -1.8476    0.4514 H   0  0  0  0  0  0  0  0  0  0  0  0
   -1.7833   -1.6804   -1.3614 H   0  0  0  0  0  0  0  0  0  0  0  0
    2.2601   -0.9482   -2.0215 H   0  0  0  0  0  0  0  0  0  0  0  0
    1.7869    0.8534   -1.7364 H   0  0  0  0  0  0  0  0  0  0  0  0
    2.5840   -1.2646    0.4314 H   0  0  0  0  0  0  0  0  0  0  0  0
    1.6372    1.6994    0.5449 H   0  0  0  0  0  0  0  0  0  0  0  0
    2.1333    0.6881    2.0149 H   0  0  0  0  0  0  0  0  0  0  0  0
    3.2986    1.1072    0.7473 H   0  0  0  0  0  0  0  0  0  0  0  0
  1  2  1  0
  2  3  1  0
  3  4  1  0
  4  5  1  0
  5  6  1  0
  6  7  1  0
  7  8  1  0
  8  9  1  0
  6  3  1  0
  8  6  1  0
  1 10  1  0
  1 11  1  0
  1 12  1  0
  2 13  1  0
  2 14  1  0
  3 15  1  0
  4 16  1  0
  4 17  1  0
  7 18  1  0
  7 19  1  0
  8 20  1  0
  9 21  1  0
  9 22  1  0
  9 23  1  0
M  END
