
     RDKit          3D

 21 22  0  0  0  0  0  0  0  0999 V2000
    3.0555    0.1247    0.5943 C   0  0  0  0  0  0  0  0  0  0  0  0
    1.9851   -0.3135   -0.3835 C   0  0  0  0  0  0  0  0  0  0  0  0
    0.6201   -0.3942    0.2637 C   0  0  0  0  0  0  0  0  0  0  0  0
    0.1566    0.7921    0.7967 O   0  0  0  0  0  0  0  0  0  0  0  0
   -0.8170    0.9825   -0.1735 C   0  0  0  0  0  0  0  0  0  0  0  0
   -0.5046   -0.3728   -0.7234 C   0  0  0  0  0  0  0  0  0  0  0  0
   -1.8756   -0.0139   -0.3729 C   0  0  0  0  0  0  0  0  0  0  0  0
   -2.5663   -0.5330    0.8594 C   0  0  0  0  0  0  0  0  0  0  0  0
   -2.7408    0.2293   -1.4473 O   0  0  0  0  0  0  0  0  0  0  0  0
    4.0394   -0.0766    0.0828 H   0  0  0  0  0  0  0  0  0  0  0  0
    3.0049    1.2231    0.7261 H   0  0  0  0  0  0  0  0  0  0  0  0
    2.9600   -0.4400    1.5202 H   0  0  0  0  0  0  0  0  0  0  0  0
    2.2994   -1.2443   -0.8444 H   0  0  0  0  0  0  0  0  0  0  0  0
    1.9821    0.4621   -1.1997 H   0  0  0  0  0  0  0  0  0  0  0  0
    0.5656   -1.2630    0.9494 H   0  0  0  0  0  0  0  0  0  0  0  0
   -0.7974    1.8747   -0.8069 H   0  0  0  0  0  0  0  0  0  0  0  0
   -0.2067   -0.3777   -1.7986 H   0  0  0  0  0  0  0  0  0  0  0  0
   -2.1590   -1.4633    1.2507 H   0  0  0  0  0  0  0  0  0  0  0  0
   -3.6733   -0.6762    0.6930 H   0  0  0  0  0  0  0  0  0  0  0  0
   -2.5012    0.2752    1.6310 H   0  0  0  0  0  0  0  0  0  0  0  0
   -2.8269    1.2047   -1.6169 H   0  0  0  0  0  0  0  0  0  0  0  0
  1  2  1  0
  2  3  1  0
  3  4  1  0
  4  5  1  0
  5  6  1  0
  6  7  1  0
  7  8  1  0
  7  9  1  0
  6  3  1  0
  7  5  1  0
  1 10  1  0
  1 11  1  0
  1 12  1  0
  2 13  1  0
  2 14  1  0
  3 15  1  0
  5 16  1  0
  6 17  1  0
  8 18  1  0
  8 19  1  0
  8 20  1  0
  9 21  1  0
M  END
