
     RDKit          3D

 23 23  0  0  0  0  0  0  0  0999 V2000
    2.2313    0.1490   -0.4406 C   0  0  0  0  0  0  0  0  0  0  0  0
    1.2698   -0.4758    0.4851 C   0  0  0  0  0  0  0  0  0  0  0  0
   -0.1710   -0.3036    0.2694 C   0  0  0  0  0  0  0  0  0  0  0  0
   -0.7162    1.1042    0.2954 C   0  0  0  0  0  0  0  0  0  0  0  0
   -0.1558    2.0257   -0.7240 C   0  0  0  0  0  0  0  0  0  0  0  0
   -0.8704   -1.1510   -0.7386 C   0  0  0  0  0  0  0  0  0  0  0  0
   -1.8125   -1.6515    0.3324 C   0  0  0  0  0  0  0  0  0  0  0  0
   -0.9130   -1.0782    1.3434 C   0  0  0  0  0  0  0  0  0  0  0  0
   -0.7546   -1.1400    2.5520 O   0  0  0  0  0  0  0  0  0  0  0  0
    3.2859   -0.2273   -0.2567 H   0  0  0  0  0  0  0  0  0  0  0  0
    2.3354    1.2463   -0.3347 H   0  0  0  0  0  0  0  0  0  0  0  0
    2.0629   -0.0616   -1.5115 H   0  0  0  0  0  0  0  0  0  0  0  0
    1.4979   -0.0692    1.5190 H   0  0  0  0  0  0  0  0  0  0  0  0
    1.5705   -1.5607    0.5919 H   0  0  0  0  0  0  0  0  0  0  0  0
   -0.4779    1.4867    1.3254 H   0  0  0  0  0  0  0  0  0  0  0  0
   -1.8277    1.1158    0.2453 H   0  0  0  0  0  0  0  0  0  0  0  0
    0.5130    2.7679   -0.2276 H   0  0  0  0  0  0  0  0  0  0  0  0
    0.3115    1.5401   -1.5789 H   0  0  0  0  0  0  0  0  0  0  0  0
   -0.9924    2.6558   -1.1549 H   0  0  0  0  0  0  0  0  0  0  0  0
   -1.4158   -0.5406   -1.4874 H   0  0  0  0  0  0  0  0  0  0  0  0
   -0.2852   -1.9257   -1.2520 H   0  0  0  0  0  0  0  0  0  0  0  0
   -2.8027   -1.1510    0.3611 H   0  0  0  0  0  0  0  0  0  0  0  0
   -1.8830   -2.7556    0.3866 H   0  0  0  0  0  0  0  0  0  0  0  0
  1  2  1  0
  2  3  1  0
  3  4  1  0
  4  5  1  0
  3  6  1  0
  6  7  1  0
  7  8  1  0
  8  9  2  0
  8  3  1  0
  1 10  1  0
  1 11  1  0
  1 12  1  0
  2 13  1  0
  2 14  1  0
  4 15  1  0
  4 16  1  0
  5 17  1  0
  5 18  1  0
  5 19  1  0
  6 20  1  0
  6 21  1  0
  7 22  1  0
  7 23  1  0
M  END
