
     RDKit          3D

 17 17  0  0  0  0  0  0  0  0999 V2000
   -2.2950    0.0360   -0.6536 C   0  0  0  0  0  0  0  0  0  0  0  0
   -1.0661   -0.1744    0.1517 C   0  0  0  0  0  0  0  0  0  0  0  0
    0.1527    0.5304   -0.4047 C   0  0  0  0  0  0  0  0  0  0  0  0
    1.4062    0.3182    0.4133 C   0  0  0  0  0  0  0  0  0  0  0  0
    2.0877   -0.3855   -0.7636 C   0  0  0  0  0  0  0  0  0  0  0  0
    0.8360   -0.1829   -1.5161 C   0  0  0  0  0  0  0  0  0  0  0  0
    0.4888   -0.4890   -2.6399 O   0  0  0  0  0  0  0  0  0  0  0  0
   -2.4742   -0.7945   -1.3874 H   0  0  0  0  0  0  0  0  0  0  0  0
   -3.2138    0.0316   -0.0057 H   0  0  0  0  0  0  0  0  0  0  0  0
   -2.3127    1.0222   -1.1926 H   0  0  0  0  0  0  0  0  0  0  0  0
   -0.8306   -1.2590    0.1717 H   0  0  0  0  0  0  0  0  0  0  0  0
   -1.2272    0.1321    1.2147 H   0  0  0  0  0  0  0  0  0  0  0  0
   -0.0965    1.5976   -0.6145 H   0  0  0  0  0  0  0  0  0  0  0  0
    1.2592   -0.4166    1.2292 H   0  0  0  0  0  0  0  0  0  0  0  0
    1.9305    1.2356    0.7354 H   0  0  0  0  0  0  0  0  0  0  0  0
    2.3934   -1.4174   -0.5667 H   0  0  0  0  0  0  0  0  0  0  0  0
    2.9616    0.2157   -1.1078 H   0  0  0  0  0  0  0  0  0  0  0  0
  1  2  1  0
  2  3  1  0
  3  4  1  0
  4  5  1  0
  5  6  1  0
  6  7  2  0
  6  3  1  0
  1  8  1  0
  1  9  1  0
  1 10  1  0
  2 11  1  0
  2 12  1  0
  3 13  1  0
  4 14  1  0
  4 15  1  0
  5 16  1  0
  5 17  1  0
M  END
