
     RDKit          3D

 23 23  0  0  0  0  0  0  0  0999 V2000
    2.7286    0.1596    0.4187 C   0  0  0  0  0  0  0  0  0  0  0  0
    1.4507   -0.6036    0.2867 C   0  0  0  0  0  0  0  0  0  0  0  0
    0.2650    0.2652    0.0902 C   0  0  0  0  0  0  0  0  0  0  0  0
    0.1740    1.5900    0.0161 C   0  0  0  0  0  0  0  0  0  0  0  0
   -1.2550    1.9697   -0.1893 C   0  0  0  0  0  0  0  0  0  0  0  0
   -1.9709    0.8191    0.1073 O   0  0  0  0  0  0  0  0  0  0  0  0
   -1.1141   -0.2558   -0.0665 C   0  0  0  0  0  0  0  0  0  0  0  0
   -1.2169   -0.8517   -1.4487 C   0  0  0  0  0  0  0  0  0  0  0  0
   -1.3523   -1.2780    1.0233 C   0  0  0  0  0  0  0  0  0  0  0  0
    2.6158    1.1727    0.8376 H   0  0  0  0  0  0  0  0  0  0  0  0
    3.4076   -0.4672    1.0698 H   0  0  0  0  0  0  0  0  0  0  0  0
    3.2717    0.1892   -0.5708 H   0  0  0  0  0  0  0  0  0  0  0  0
    1.2941   -1.3310    1.1295 H   0  0  0  0  0  0  0  0  0  0  0  0
    1.5347   -1.2474   -0.6318 H   0  0  0  0  0  0  0  0  0  0  0  0
    1.0360    2.2310    0.0992 H   0  0  0  0  0  0  0  0  0  0  0  0
   -1.4798    2.2608   -1.2218 H   0  0  0  0  0  0  0  0  0  0  0  0
   -1.5918    2.7536    0.5040 H   0  0  0  0  0  0  0  0  0  0  0  0
   -2.1163   -1.4986   -1.5676 H   0  0  0  0  0  0  0  0  0  0  0  0
   -1.2325    0.0005   -2.1628 H   0  0  0  0  0  0  0  0  0  0  0  0
   -0.2697   -1.4030   -1.6667 H   0  0  0  0  0  0  0  0  0  0  0  0
   -0.6388   -2.1163    0.9357 H   0  0  0  0  0  0  0  0  0  0  0  0
   -1.1376   -0.7779    1.9881 H   0  0  0  0  0  0  0  0  0  0  0  0
   -2.4026   -1.5810    1.0199 H   0  0  0  0  0  0  0  0  0  0  0  0
  1  2  1  0
  2  3  1  0
  3  4  2  0
  4  5  1  0
  5  6  1  0
  6  7  1  0
  7  8  1  0
  7  9  1  0
  7  3  1  0
  1 10  1  0
  1 11  1  0
  1 12  1  0
  2 13  1  0
  2 14  1  0
  4 15  1  0
  5 16  1  0
  5 17  1  0
  8 18  1  0
  8 19  1  0
  8 20  1  0
  9 21  1  0
  9 22  1  0
  9 23  1  0
M  END
