
     RDKit          3D

 23 24  0  0  0  0  0  0  0  0999 V2000
    2.5834   -0.3171    0.0918 C   0  0  0  0  0  0  0  0  0  0  0  0
    1.5726    0.2693   -0.9053 C   0  0  0  0  0  0  0  0  0  0  0  0
    0.2438    0.0567   -0.3670 C   0  0  0  0  0  0  0  0  0  0  0  0
   -0.2583   -1.3138   -0.0905 C   0  0  0  0  0  0  0  0  0  0  0  0
   -1.6716   -0.9724    0.4261 C   0  0  0  0  0  0  0  0  0  0  0  0
   -1.5968    0.5295    0.3217 C   0  0  0  0  0  0  0  0  0  0  0  0
   -2.6165    1.3007    0.6565 O   0  0  0  0  0  0  0  0  0  0  0  0
   -0.9452    0.7061   -1.0573 C   0  0  0  0  0  0  0  0  0  0  0  0
   -0.1934    0.8715    0.8406 C   0  0  0  0  0  0  0  0  0  0  0  0
    2.5056   -1.4243    0.0530 H   0  0  0  0  0  0  0  0  0  0  0  0
    3.5874    0.0654   -0.0625 H   0  0  0  0  0  0  0  0  0  0  0  0
    2.2356   -0.0339    1.1290 H   0  0  0  0  0  0  0  0  0  0  0  0
    1.6923   -0.3390   -1.8307 H   0  0  0  0  0  0  0  0  0  0  0  0
    1.7963    1.3237   -1.1203 H   0  0  0  0  0  0  0  0  0  0  0  0
   -0.2973   -1.9130   -1.0021 H   0  0  0  0  0  0  0  0  0  0  0  0
    0.3007   -1.8436    0.7148 H   0  0  0  0  0  0  0  0  0  0  0  0
   -2.3796   -1.3616   -0.3201 H   0  0  0  0  0  0  0  0  0  0  0  0
   -1.8049   -1.3456    1.4401 H   0  0  0  0  0  0  0  0  0  0  0  0
   -2.6194    1.4787    1.6416 H   0  0  0  0  0  0  0  0  0  0  0  0
   -0.8003    1.7771   -1.2474 H   0  0  0  0  0  0  0  0  0  0  0  0
   -1.3922    0.0939   -1.8385 H   0  0  0  0  0  0  0  0  0  0  0  0
    0.0513    0.4432    1.8165 H   0  0  0  0  0  0  0  0  0  0  0  0
    0.0066    1.9483    0.7102 H   0  0  0  0  0  0  0  0  0  0  0  0
  1  2  1  0
  2  3  1  0
  3  4  1  0
  4  5  1  0
  5  6  1  0
  6  7  1  0
  6  8  1  0
  6  9  1  0
  8  3  1  0
  9  3  1  0
  1 10  1  0
  1 11  1  0
  1 12  1  0
  2 13  1  0
  2 14  1  0
  4 15  1  0
  4 16  1  0
  5 17  1  0
  5 18  1  0
  7 19  1  0
  8 20  1  0
  8 21  1  0
  9 22  1  0
  9 23  1  0
M  END
