
     RDKit          3D

 21 22  0  0  0  0  0  0  0  0999 V2000
    2.3493    0.4901    0.0432 C   0  0  0  0  0  0  0  0  0  0  0  0
    1.4629   -0.7148    0.3887 C   0  0  0  0  0  0  0  0  0  0  0  0
    0.1794   -0.5204   -0.3792 C   0  0  0  0  0  0  0  0  0  0  0  0
   -0.5688    0.7365   -0.0491 C   0  0  0  0  0  0  0  0  0  0  0  0
   -0.4520    1.8425   -1.0037 C   0  0  0  0  0  0  0  0  0  0  0  0
    0.1874    2.8315   -0.6619 O   0  0  0  0  0  0  0  0  0  0  0  0
   -1.8399   -0.0960   -0.1609 C   0  0  0  0  0  0  0  0  0  0  0  0
   -2.0115   -1.0547    0.9413 C   0  0  0  0  0  0  0  0  0  0  0  0
   -0.9625   -1.3858   -0.0249 C   0  0  0  0  0  0  0  0  0  0  0  0
    2.0866    0.8483   -0.9923 H   0  0  0  0  0  0  0  0  0  0  0  0
    2.1448    1.3361    0.7186 H   0  0  0  0  0  0  0  0  0  0  0  0
    3.4091    0.2170    0.0050 H   0  0  0  0  0  0  0  0  0  0  0  0
    2.0015   -1.5958    0.0437 H   0  0  0  0  0  0  0  0  0  0  0  0
    1.3024   -0.6681    1.4833 H   0  0  0  0  0  0  0  0  0  0  0  0
    0.4105   -0.5361   -1.4797 H   0  0  0  0  0  0  0  0  0  0  0  0
   -0.4560    1.0700    1.0234 H   0  0  0  0  0  0  0  0  0  0  0  0
   -0.9274    1.7565   -1.9715 H   0  0  0  0  0  0  0  0  0  0  0  0
   -2.4389   -0.0675   -1.0624 H   0  0  0  0  0  0  0  0  0  0  0  0
   -2.9237   -1.6497    0.9448 H   0  0  0  0  0  0  0  0  0  0  0  0
   -1.7633   -0.6447    1.9634 H   0  0  0  0  0  0  0  0  0  0  0  0
   -1.1898   -2.1949   -0.7520 H   0  0  0  0  0  0  0  0  0  0  0  0
  1  2  1  0
  2  3  1  0
  3  4  1  0
  4  5  1  0
  5  6  2  0
  4  7  1  0
  7  8  1  0
  8  9  1  0
  9  3  1  0
  9  7  1  0
  1 10  1  0
  1 11  1  0
  1 12  1  0
  2 13  1  0
  2 14  1  0
  3 15  1  0
  4 16  1  0
  5 17  1  0
  7 18  1  0
  8 19  1  0
  8 20  1  0
  9 21  1  0
M  END
