
     RDKit          3D

 20 20  0  0  0  0  0  0  0  0999 V2000
    2.5143   -0.7439    0.5678 C   0  0  0  0  0  0  0  0  0  0  0  0
    1.6832    0.4896    0.5328 C   0  0  0  0  0  0  0  0  0  0  0  0
    0.3222    0.2630   -0.0442 C   0  0  0  0  0  0  0  0  0  0  0  0
   -0.1618   -0.8727   -0.4934 C   0  0  0  0  0  0  0  0  0  0  0  0
   -1.5669   -0.6853   -0.9916 C   0  0  0  0  0  0  0  0  0  0  0  0
   -1.9662    0.5931   -0.3219 C   0  0  0  0  0  0  0  0  0  0  0  0
   -2.4208    0.2962    0.9737 O   0  0  0  0  0  0  0  0  0  0  0  0
   -0.6762    1.3615   -0.1749 C   0  0  0  0  0  0  0  0  0  0  0  0
    3.5944   -0.4586    0.4272 H   0  0  0  0  0  0  0  0  0  0  0  0
    2.2934   -1.4678   -0.2442 H   0  0  0  0  0  0  0  0  0  0  0  0
    2.3805   -1.3210    1.5283 H   0  0  0  0  0  0  0  0  0  0  0  0
    1.6147    0.9009    1.5565 H   0  0  0  0  0  0  0  0  0  0  0  0
    2.1866    1.2235   -0.1523 H   0  0  0  0  0  0  0  0  0  0  0  0
    0.3124   -1.8561   -0.5380 H   0  0  0  0  0  0  0  0  0  0  0  0
   -2.1917   -1.5334   -0.6428 H   0  0  0  0  0  0  0  0  0  0  0  0
   -1.6049   -0.6268   -2.0998 H   0  0  0  0  0  0  0  0  0  0  0  0
   -2.6882    1.1876   -0.8984 H   0  0  0  0  0  0  0  0  0  0  0  0
   -2.5372   -0.6878    1.1047 H   0  0  0  0  0  0  0  0  0  0  0  0
   -0.4542    2.0019   -1.0385 H   0  0  0  0  0  0  0  0  0  0  0  0
   -0.6334    1.9361    0.7735 H   0  0  0  0  0  0  0  0  0  0  0  0
  1  2  1  0
  2  3  1  0
  3  4  2  0
  4  5  1  0
  5  6  1  0
  6  7  1  0
  6  8  1  0
  8  3  1  0
  1  9  1  0
  1 10  1  0
  1 11  1  0
  2 12  1  0
  2 13  1  0
  4 14  1  0
  5 15  1  0
  5 16  1  0
  6 17  1  0
  7 18  1  0
  8 19  1  0
  8 20  1  0
M  END
