
     RDKit          3D

 23 25  0  0  0  0  0  0  0  0999 V2000
    2.9944    0.5549    0.0366 C   0  0  0  0  0  0  0  0  0  0  0  0
    1.6066    0.7239   -0.5644 C   0  0  0  0  0  0  0  0  0  0  0  0
    0.8080   -0.5239   -0.3273 C   0  0  0  0  0  0  0  0  0  0  0  0
    0.5406   -0.9971    1.0708 C   0  0  0  0  0  0  0  0  0  0  0  0
   -0.5332   -0.5185    0.2303 C   0  0  0  0  0  0  0  0  0  0  0  0
   -1.6700   -1.3255   -0.2741 C   0  0  0  0  0  0  0  0  0  0  0  0
   -2.5703   -0.1383   -0.0663 C   0  0  0  0  0  0  0  0  0  0  0  0
   -2.2136    1.1892   -0.6381 C   0  0  0  0  0  0  0  0  0  0  0  0
   -1.3560    0.6894    0.4756 C   0  0  0  0  0  0  0  0  0  0  0  0
    3.4115   -0.4455   -0.2778 H   0  0  0  0  0  0  0  0  0  0  0  0
    2.9588    0.5537    1.1424 H   0  0  0  0  0  0  0  0  0  0  0  0
    3.7050    1.3070   -0.3629 H   0  0  0  0  0  0  0  0  0  0  0  0
    1.1428    1.6251   -0.1228 H   0  0  0  0  0  0  0  0  0  0  0  0
    1.7391    0.8450   -1.6597 H   0  0  0  0  0  0  0  0  0  0  0  0
    1.0354   -1.3404   -1.0673 H   0  0  0  0  0  0  0  0  0  0  0  0
    0.8414   -0.3600    1.9348 H   0  0  0  0  0  0  0  0  0  0  0  0
    0.7003   -2.0812    1.2827 H   0  0  0  0  0  0  0  0  0  0  0  0
   -1.5819   -1.7054   -1.2958 H   0  0  0  0  0  0  0  0  0  0  0  0
   -1.9272   -2.1425    0.4255 H   0  0  0  0  0  0  0  0  0  0  0  0
   -3.4347   -0.2236    0.6142 H   0  0  0  0  0  0  0  0  0  0  0  0
   -1.7571    1.2734   -1.6452 H   0  0  0  0  0  0  0  0  0  0  0  0
   -2.9511    1.9900   -0.4253 H   0  0  0  0  0  0  0  0  0  0  0  0
   -1.4889    1.0501    1.5142 H   0  0  0  0  0  0  0  0  0  0  0  0
  1  2  1  0
  2  3  1  0
  3  4  1  0
  4  5  1  0
  5  6  1  0
  6  7  1  0
  7  8  1  0
  8  9  1  0
  5  3  1  0
  9  7  1  0
  9  5  1  0
  1 10  1  0
  1 11  1  0
  1 12  1  0
  2 13  1  0
  2 14  1  0
  3 15  1  0
  4 16  1  0
  4 17  1  0
  6 18  1  0
  6 19  1  0
  7 20  1  0
  8 21  1  0
  8 22  1  0
  9 23  1  0
M  END
