
     RDKit          3D

 18 19  0  0  0  0  0  0  0  0999 V2000
    2.0326    0.0679    0.5636 C   0  0  0  0  0  0  0  0  0  0  0  0
    1.2138   -0.6738   -0.4571 C   0  0  0  0  0  0  0  0  0  0  0  0
   -0.2092   -0.2041   -0.5339 C   0  0  0  0  0  0  0  0  0  0  0  0
   -0.5138    1.2066   -0.8844 C   0  0  0  0  0  0  0  0  0  0  0  0
   -0.8004    0.7002    0.4677 C   0  0  0  0  0  0  0  0  0  0  0  0
   -2.0608   -0.1627    0.5334 C   0  0  0  0  0  0  0  0  0  0  0  0
   -1.3200   -1.1474   -0.3123 C   0  0  0  0  0  0  0  0  0  0  0  0
   -1.5641   -2.2880   -0.6674 O   0  0  0  0  0  0  0  0  0  0  0  0
    3.0652   -0.3572    0.5070 H   0  0  0  0  0  0  0  0  0  0  0  0
    1.6796   -0.1127    1.5981 H   0  0  0  0  0  0  0  0  0  0  0  0
    2.1438    1.1449    0.3369 H   0  0  0  0  0  0  0  0  0  0  0  0
    1.3012   -1.7378   -0.2627 H   0  0  0  0  0  0  0  0  0  0  0  0
    1.6832   -0.4712   -1.4544 H   0  0  0  0  0  0  0  0  0  0  0  0
   -1.3534    1.3281   -1.5978 H   0  0  0  0  0  0  0  0  0  0  0  0
    0.2747    1.9370   -0.9917 H   0  0  0  0  0  0  0  0  0  0  0  0
   -0.3072    1.0189    1.3737 H   0  0  0  0  0  0  0  0  0  0  0  0
   -2.9148    0.2513   -0.0470 H   0  0  0  0  0  0  0  0  0  0  0  0
   -2.3505   -0.5000    1.5222 H   0  0  0  0  0  0  0  0  0  0  0  0
  1  2  1  0
  2  3  1  0
  3  4  1  0
  4  5  1  0
  5  6  1  0
  6  7  1  0
  7  8  2  0
  5  3  1  0
  7  3  1  0
  1  9  1  0
  1 10  1  0
  1 11  1  0
  2 12  1  0
  2 13  1  0
  4 14  1  0
  4 15  1  0
  5 16  1  0
  6 17  1  0
  6 18  1  0
M  END
