
     RDKit          3D

 19 20  0  0  0  0  0  0  0  0999 V2000
    2.3577   -0.3774    0.0083 C   0  0  0  0  0  0  0  0  0  0  0  0
    1.0272   -0.1378    0.6755 C   0  0  0  0  0  0  0  0  0  0  0  0
    0.1813    0.7888   -0.1601 C   0  0  0  0  0  0  0  0  0  0  0  0
   -1.1710    1.1113    0.3896 C   0  0  0  0  0  0  0  0  0  0  0  0
   -1.7922   -0.2102    0.8379 C   0  0  0  0  0  0  0  0  0  0  0  0
   -1.3668   -0.9825   -0.3599 C   0  0  0  0  0  0  0  0  0  0  0  0
   -1.5003   -2.1275   -0.6426 O   0  0  0  0  0  0  0  0  0  0  0  0
   -0.7048    0.0775   -1.1505 C   0  0  0  0  0  0  0  0  0  0  0  0
   -1.6086    1.1420   -0.9569 O   0  0  0  0  0  0  0  0  0  0  0  0
    3.2059   -0.0572    0.6666 H   0  0  0  0  0  0  0  0  0  0  0  0
    2.4628    0.2551   -0.9160 H   0  0  0  0  0  0  0  0  0  0  0  0
    2.5179   -1.4347   -0.2771 H   0  0  0  0  0  0  0  0  0  0  0  0
    0.5008   -1.1347    0.7083 H   0  0  0  0  0  0  0  0  0  0  0  0
    1.1130    0.2031    1.7162 H   0  0  0  0  0  0  0  0  0  0  0  0
    0.6978    1.6517   -0.5571 H   0  0  0  0  0  0  0  0  0  0  0  0
   -1.3327    1.9765    0.9841 H   0  0  0  0  0  0  0  0  0  0  0  0
   -2.8776   -0.0462    0.8824 H   0  0  0  0  0  0  0  0  0  0  0  0
   -1.3532   -0.5801    1.7759 H   0  0  0  0  0  0  0  0  0  0  0  0
   -0.3573   -0.1179   -2.1292 H   0  0  0  0  0  0  0  0  0  0  0  0
  1  2  1  0
  2  3  1  0
  3  4  1  0
  4  5  1  0
  5  6  1  0
  6  7  2  0
  6  8  1  0
  8  9  1  0
  8  3  1  0
  9  4  1  0
  1 10  1  0
  1 11  1  0
  1 12  1  0
  2 13  1  0
  2 14  1  0
  3 15  1  0
  4 16  1  0
  5 17  1  0
  5 18  1  0
  8 19  1  0
M  END
