
     RDKit          3D

 25 26  0  0  0  0  0  0  0  0999 V2000
    1.9857    1.1650   -0.4404 C   0  0  0  0  0  0  0  0  0  0  0  0
    1.2612   -0.0526   -0.9277 C   0  0  0  0  0  0  0  0  0  0  0  0
   -0.0433   -0.3161   -0.2306 C   0  0  0  0  0  0  0  0  0  0  0  0
   -1.0932    0.7146   -0.3058 C   0  0  0  0  0  0  0  0  0  0  0  0
   -0.9730    2.0964    0.1521 C   0  0  0  0  0  0  0  0  0  0  0  0
   -1.7276    1.1582    1.0228 C   0  0  0  0  0  0  0  0  0  0  0  0
   -0.5549   -1.6698   -0.7736 C   0  0  0  0  0  0  0  0  0  0  0  0
    0.2026   -2.3306    0.3381 C   0  0  0  0  0  0  0  0  0  0  0  0
    0.0364   -1.0200    1.1038 C   0  0  0  0  0  0  0  0  0  0  0  0
    3.0752    1.0251   -0.7123 H   0  0  0  0  0  0  0  0  0  0  0  0
    1.9802    1.2884    0.6540 H   0  0  0  0  0  0  0  0  0  0  0  0
    1.6882    2.0894   -0.9912 H   0  0  0  0  0  0  0  0  0  0  0  0
    1.1176    0.0201   -2.0062 H   0  0  0  0  0  0  0  0  0  0  0  0
    1.9168   -0.9255   -0.7288 H   0  0  0  0  0  0  0  0  0  0  0  0
   -1.8603    0.5363   -1.1185 H   0  0  0  0  0  0  0  0  0  0  0  0
   -0.0670    2.5367    0.5817 H   0  0  0  0  0  0  0  0  0  0  0  0
   -1.6180    2.8719   -0.3410 H   0  0  0  0  0  0  0  0  0  0  0  0
   -1.2768    0.8849    1.9731 H   0  0  0  0  0  0  0  0  0  0  0  0
   -2.8372    1.2029    1.0653 H   0  0  0  0  0  0  0  0  0  0  0  0
   -0.2297   -1.8958   -1.7913 H   0  0  0  0  0  0  0  0  0  0  0  0
   -1.6632   -1.7639   -0.7131 H   0  0  0  0  0  0  0  0  0  0  0  0
   -0.4268   -3.1727    0.7522 H   0  0  0  0  0  0  0  0  0  0  0  0
    1.2212   -2.6354    0.1085 H   0  0  0  0  0  0  0  0  0  0  0  0
    0.8642   -0.7473    1.7558 H   0  0  0  0  0  0  0  0  0  0  0  0
   -0.9784   -1.0604    1.5730 H   0  0  0  0  0  0  0  0  0  0  0  0
  1  2  1  0
  2  3  1  0
  3  4  1  0
  4  5  1  0
  5  6  1  0
  3  7  1  0
  7  8  1  0
  8  9  1  0
  9  3  1  0
  6  4  1  0
  1 10  1  0
  1 11  1  0
  1 12  1  0
  2 13  1  0
  2 14  1  0
  4 15  1  0
  5 16  1  0
  5 17  1  0
  6 18  1  0
  6 19  1  0
  7 20  1  0
  7 21  1  0
  8 22  1  0
  8 23  1  0
  9 24  1  0
  9 25  1  0
M  END
