
     RDKit          3D

 25 25  0  0  0  0  0  0  0  0999 V2000
    2.9175   -0.4398   -0.4003 C   0  0  0  0  0  0  0  0  0  0  0  0
    1.5786    0.0351   -0.8796 C   0  0  0  0  0  0  0  0  0  0  0  0
    0.5649    0.1842    0.2118 C   0  0  0  0  0  0  0  0  0  0  0  0
    0.9148    1.0781    1.1931 O   0  0  0  0  0  0  0  0  0  0  0  0
   -0.0510   -1.0576    0.7622 C   0  0  0  0  0  0  0  0  0  0  0  0
   -1.4148   -0.3823    0.6300 C   0  0  0  0  0  0  0  0  0  0  0  0
   -2.4780   -1.2389    0.0121 C   0  0  0  0  0  0  0  0  0  0  0  0
   -0.7844    0.5300   -0.3901 C   0  0  0  0  0  0  0  0  0  0  0  0
   -1.0961    1.9806   -0.2730 C   0  0  0  0  0  0  0  0  0  0  0  0
    3.4258    0.3665    0.1716 H   0  0  0  0  0  0  0  0  0  0  0  0
    3.5249   -0.7537   -1.2702 H   0  0  0  0  0  0  0  0  0  0  0  0
    2.8207   -1.3194    0.2857 H   0  0  0  0  0  0  0  0  0  0  0  0
    1.2264   -0.6332   -1.6900 H   0  0  0  0  0  0  0  0  0  0  0  0
    1.7306    1.0519   -1.3248 H   0  0  0  0  0  0  0  0  0  0  0  0
    1.3734    0.6948    1.9610 H   0  0  0  0  0  0  0  0  0  0  0  0
    0.0726   -1.9803    0.1982 H   0  0  0  0  0  0  0  0  0  0  0  0
    0.1573   -1.2117    1.8364 H   0  0  0  0  0  0  0  0  0  0  0  0
   -1.7270    0.1622    1.5549 H   0  0  0  0  0  0  0  0  0  0  0  0
   -3.3470   -1.3182    0.7037 H   0  0  0  0  0  0  0  0  0  0  0  0
   -2.1138   -2.2790   -0.1737 H   0  0  0  0  0  0  0  0  0  0  0  0
   -2.8639   -0.7788   -0.9346 H   0  0  0  0  0  0  0  0  0  0  0  0
   -0.9333    0.1530   -1.4256 H   0  0  0  0  0  0  0  0  0  0  0  0
   -1.4648    2.3937   -1.2569 H   0  0  0  0  0  0  0  0  0  0  0  0
   -0.1933    2.5826   -0.0283 H   0  0  0  0  0  0  0  0  0  0  0  0
   -1.8401    2.1803    0.5264 H   0  0  0  0  0  0  0  0  0  0  0  0
  1  2  1  0
  2  3  1  0
  3  4  1  0
  3  5  1  0
  5  6  1  0
  6  7  1  0
  6  8  1  0
  8  9  1  0
  8  3  1  0
  1 10  1  0
  1 11  1  0
  1 12  1  0
  2 13  1  0
  2 14  1  0
  4 15  1  0
  5 16  1  0
  5 17  1  0
  6 18  1  0
  7 19  1  0
  7 20  1  0
  7 21  1  0
  8 22  1  0
  9 23  1  0
  9 24  1  0
  9 25  1  0
M  END
