
     RDKit          3D

 20 20  0  0  0  0  0  0  0  0999 V2000
    2.5205   -0.3600    0.3690 C   0  0  0  0  0  0  0  0  0  0  0  0
    1.3234   -0.0753    1.2451 C   0  0  0  0  0  0  0  0  0  0  0  0
    0.2762    0.5462    0.3473 C   0  0  0  0  0  0  0  0  0  0  0  0
   -0.1886   -0.3302   -0.8205 C   0  0  0  0  0  0  0  0  0  0  0  0
    0.1367   -1.6918   -0.7863 O   0  0  0  0  0  0  0  0  0  0  0  0
   -1.1247    0.1460    0.3363 C   0  0  0  0  0  0  0  0  0  0  0  0
   -2.1668    1.1534   -0.0964 C   0  0  0  0  0  0  0  0  0  0  0  0
   -1.5108   -0.8447    1.2270 O   0  0  0  0  0  0  0  0  0  0  0  0
    3.1478   -1.1843    0.7580 H   0  0  0  0  0  0  0  0  0  0  0  0
    3.0979    0.6052    0.3166 H   0  0  0  0  0  0  0  0  0  0  0  0
    2.1482   -0.5446   -0.6538 H   0  0  0  0  0  0  0  0  0  0  0  0
    0.9398   -0.9975    1.7317 H   0  0  0  0  0  0  0  0  0  0  0  0
    1.5973    0.6264    2.0700 H   0  0  0  0  0  0  0  0  0  0  0  0
    0.5050    1.6089    0.0735 H   0  0  0  0  0  0  0  0  0  0  0  0
   -0.3223    0.1652   -1.7926 H   0  0  0  0  0  0  0  0  0  0  0  0
   -0.5427   -2.2153   -0.2916 H   0  0  0  0  0  0  0  0  0  0  0  0
   -3.1148    0.9830    0.4593 H   0  0  0  0  0  0  0  0  0  0  0  0
   -1.8646    2.1977    0.0935 H   0  0  0  0  0  0  0  0  0  0  0  0
   -2.3606    1.0327   -1.1829 H   0  0  0  0  0  0  0  0  0  0  0  0
   -2.4968   -0.8209    1.2760 H   0  0  0  0  0  0  0  0  0  0  0  0
  1  2  1  0
  2  3  1  0
  3  4  1  0
  4  5  1  0
  4  6  1  0
  6  7  1  0
  6  8  1  0
  6  3  1  0
  1  9  1  0
  1 10  1  0
  1 11  1  0
  2 12  1  0
  2 13  1  0
  3 14  1  0
  4 15  1  0
  5 16  1  0
  7 17  1  0
  7 18  1  0
  7 19  1  0
  8 20  1  0
M  END
