
     RDKit          3D

 21 22  0  0  0  0  0  0  0  0999 V2000
   -2.8349   -0.6100    0.2874 C   0  0  0  0  0  0  0  0  0  0  0  0
   -1.8660    0.5215    0.5280 C   0  0  0  0  0  0  0  0  0  0  0  0
   -0.5682    0.3052   -0.2597 C   0  0  0  0  0  0  0  0  0  0  0  0
    0.2709    1.3660    0.0005 O   0  0  0  0  0  0  0  0  0  0  0  0
    1.5964    1.0691   -0.2563 C   0  0  0  0  0  0  0  0  0  0  0  0
    2.0673   -0.0547    0.6802 C   0  0  0  0  0  0  0  0  0  0  0  0
    1.3189   -0.9939   -0.2761 C   0  0  0  0  0  0  0  0  0  0  0  0
    1.6865    0.0269   -1.3624 C   0  0  0  0  0  0  0  0  0  0  0  0
   -0.0136   -0.9260    0.0610 O   0  0  0  0  0  0  0  0  0  0  0  0
   -2.7100   -1.4378    1.0136 H   0  0  0  0  0  0  0  0  0  0  0  0
   -3.8900   -0.2264    0.3926 H   0  0  0  0  0  0  0  0  0  0  0  0
   -2.7067   -1.0695   -0.7222 H   0  0  0  0  0  0  0  0  0  0  0  0
   -2.3387    1.4493    0.1448 H   0  0  0  0  0  0  0  0  0  0  0  0
   -1.6787    0.6621    1.5996 H   0  0  0  0  0  0  0  0  0  0  0  0
   -0.8850    0.2424   -1.3250 H   0  0  0  0  0  0  0  0  0  0  0  0
    2.2716    1.9132   -0.3414 H   0  0  0  0  0  0  0  0  0  0  0  0
    1.6580   -0.0135    1.6868 H   0  0  0  0  0  0  0  0  0  0  0  0
    3.1436   -0.2316    0.5624 H   0  0  0  0  0  0  0  0  0  0  0  0
    1.7613   -1.9788   -0.3982 H   0  0  0  0  0  0  0  0  0  0  0  0
    0.9684    0.1233   -2.1696 H   0  0  0  0  0  0  0  0  0  0  0  0
    2.7489   -0.1370   -1.6298 H   0  0  0  0  0  0  0  0  0  0  0  0
  1  2  1  0
  2  3  1  0
  3  4  1  0
  4  5  1  0
  5  6  1  0
  6  7  1  0
  7  8  1  0
  7  9  1  0
  9  3  1  0
  8  5  1  0
  1 10  1  0
  1 11  1  0
  1 12  1  0
  2 13  1  0
  2 14  1  0
  3 15  1  0
  5 16  1  0
  6 17  1  0
  6 18  1  0
  7 19  1  0
  8 20  1  0
  8 21  1  0
M  END
