
     RDKit          3D

 22 22  0  0  0  0  0  0  0  0999 V2000
    2.9963    0.1400   -0.6244 C   0  0  0  0  0  0  0  0  0  0  0  0
    2.0190    0.1250    0.5687 C   0  0  0  0  0  0  0  0  0  0  0  0
    0.6877    0.4797    0.2359 C   0  0  0  0  0  0  0  0  0  0  0  0
    0.3154   -0.5278   -0.7370 C   0  0  0  0  0  0  0  0  0  0  0  0
   -0.5646    0.4497   -0.4959 C   0  0  0  0  0  0  0  0  0  0  0  0
   -1.8046    0.1580    0.3755 C   0  0  0  0  0  0  0  0  0  0  0  0
   -3.0518    0.1395   -0.4306 C   0  0  0  0  0  0  0  0  0  0  0  0
   -1.5621   -1.0444    1.0526 O   0  0  0  0  0  0  0  0  0  0  0  0
    2.8310   -0.7895   -1.2171 H   0  0  0  0  0  0  0  0  0  0  0  0
    4.0018    0.0260   -0.1673 H   0  0  0  0  0  0  0  0  0  0  0  0
    2.9203    1.0604   -1.1983 H   0  0  0  0  0  0  0  0  0  0  0  0
    2.2258   -0.9043    1.0099 H   0  0  0  0  0  0  0  0  0  0  0  0
    2.4908    0.7818    1.3243 H   0  0  0  0  0  0  0  0  0  0  0  0
    0.5002    1.4689    0.6519 H   0  0  0  0  0  0  0  0  0  0  0  0
    0.1748   -1.5707   -0.3098 H   0  0  0  0  0  0  0  0  0  0  0  0
    0.8597   -0.6491   -1.7213 H   0  0  0  0  0  0  0  0  0  0  0  0
   -0.8564    1.1592   -1.3325 H   0  0  0  0  0  0  0  0  0  0  0  0
   -1.8675    0.9400    1.1660 H   0  0  0  0  0  0  0  0  0  0  0  0
   -2.9215    0.5929   -1.4306 H   0  0  0  0  0  0  0  0  0  0  0  0
   -3.8714    0.6346    0.1492 H   0  0  0  0  0  0  0  0  0  0  0  0
   -3.3858   -0.9302   -0.5496 H   0  0  0  0  0  0  0  0  0  0  0  0
   -2.1368   -1.7396    0.6661 H   0  0  0  0  0  0  0  0  0  0  0  0
  1  2  1  0
  2  3  1  0
  3  4  1  0
  4  5  1  0
  5  6  1  0
  6  7  1  0
  6  8  1  0
  5  3  1  0
  1  9  1  0
  1 10  1  0
  1 11  1  0
  2 12  1  0
  2 13  1  0
  3 14  1  0
  4 15  1  0
  4 16  1  0
  5 17  1  0
  6 18  1  0
  7 19  1  0
  7 20  1  0
  7 21  1  0
  8 22  1  0
M  END
