
     RDKit          3D

 19 19  0  0  0  0  0  0  0  0999 V2000
    2.4437    0.0622   -0.6751 C   0  0  0  0  0  0  0  0  0  0  0  0
    1.2193    0.5138    0.0843 C   0  0  0  0  0  0  0  0  0  0  0  0
    0.1894   -0.5869    0.2215 C   0  0  0  0  0  0  0  0  0  0  0  0
   -1.0061   -0.0545    0.9940 C   0  0  0  0  0  0  0  0  0  0  0  0
   -1.6247    0.3032   -0.3493 C   0  0  0  0  0  0  0  0  0  0  0  0
   -2.9790    0.0056   -0.3444 O   0  0  0  0  0  0  0  0  0  0  0  0
   -0.7310   -0.7461   -0.9707 C   0  0  0  0  0  0  0  0  0  0  0  0
    3.3333    0.5973   -0.2659 H   0  0  0  0  0  0  0  0  0  0  0  0
    2.6617   -1.0204   -0.5332 H   0  0  0  0  0  0  0  0  0  0  0  0
    2.3177    0.3324   -1.7433 H   0  0  0  0  0  0  0  0  0  0  0  0
    1.5442    0.7779    1.1125 H   0  0  0  0  0  0  0  0  0  0  0  0
    0.7884    1.3904   -0.4402 H   0  0  0  0  0  0  0  0  0  0  0  0
    0.5938   -1.5382    0.5496 H   0  0  0  0  0  0  0  0  0  0  0  0
   -0.8002    0.8446    1.6091 H   0  0  0  0  0  0  0  0  0  0  0  0
   -1.5768   -0.8496    1.5113 H   0  0  0  0  0  0  0  0  0  0  0  0
   -1.3727    1.3121   -0.6972 H   0  0  0  0  0  0  0  0  0  0  0  0
   -3.4614    0.8921   -0.2929 H   0  0  0  0  0  0  0  0  0  0  0  0
   -1.2371   -1.7262   -0.9318 H   0  0  0  0  0  0  0  0  0  0  0  0
   -0.3025   -0.5099   -1.9453 H   0  0  0  0  0  0  0  0  0  0  0  0
  1  2  1  0
  2  3  1  0
  3  4  1  0
  4  5  1  0
  5  6  1  0
  5  7  1  0
  7  3  1  0
  1  8  1  0
  1  9  1  0
  1 10  1  0
  2 11  1  0
  2 12  1  0
  3 13  1  0
  4 14  1  0
  4 15  1  0
  5 16  1  0
  6 17  1  0
  7 18  1  0
  7 19  1  0
M  END
