
     RDKit          3D

 25 25  0  0  0  0  0  0  0  0999 V2000
    2.9567    1.0088    0.0748 C   0  0  0  0  0  0  0  0  0  0  0  0
    1.9392   -0.0820    0.1529 C   0  0  0  0  0  0  0  0  0  0  0  0
    0.6549    0.2510   -0.5592 C   0  0  0  0  0  0  0  0  0  0  0  0
   -0.0037    1.3848   -0.0739 O   0  0  0  0  0  0  0  0  0  0  0  0
   -1.2022    0.7717   -0.4919 C   0  0  0  0  0  0  0  0  0  0  0  0
   -2.4069    1.1212    0.3298 C   0  0  0  0  0  0  0  0  0  0  0  0
   -0.5451   -0.5545   -0.1334 C   0  0  0  0  0  0  0  0  0  0  0  0
   -0.6616   -0.8376    1.3383 C   0  0  0  0  0  0  0  0  0  0  0  0
   -0.8671   -1.6903   -1.0469 C   0  0  0  0  0  0  0  0  0  0  0  0
    3.9606    0.5439    0.1908 H   0  0  0  0  0  0  0  0  0  0  0  0
    2.9427    1.4880   -0.9408 H   0  0  0  0  0  0  0  0  0  0  0  0
    2.8587    1.7677    0.8874 H   0  0  0  0  0  0  0  0  0  0  0  0
    2.3641   -0.9774   -0.3678 H   0  0  0  0  0  0  0  0  0  0  0  0
    1.7872   -0.3846    1.2015 H   0  0  0  0  0  0  0  0  0  0  0  0
    0.7452    0.2662   -1.6477 H   0  0  0  0  0  0  0  0  0  0  0  0
   -1.3315    0.8596   -1.5849 H   0  0  0  0  0  0  0  0  0  0  0  0
   -2.1797    1.4917    1.3261 H   0  0  0  0  0  0  0  0  0  0  0  0
   -3.0855    0.2418    0.3371 H   0  0  0  0  0  0  0  0  0  0  0  0
   -2.9704    1.9193   -0.2224 H   0  0  0  0  0  0  0  0  0  0  0  0
   -0.3646   -1.8784    1.5820 H   0  0  0  0  0  0  0  0  0  0  0  0
   -0.0883   -0.1605    1.9689 H   0  0  0  0  0  0  0  0  0  0  0  0
   -1.7434   -0.7057    1.6328 H   0  0  0  0  0  0  0  0  0  0  0  0
   -0.5888   -1.3614   -2.0874 H   0  0  0  0  0  0  0  0  0  0  0  0
   -0.2219   -2.5385   -0.8043 H   0  0  0  0  0  0  0  0  0  0  0  0
   -1.9487   -1.9448   -1.0616 H   0  0  0  0  0  0  0  0  0  0  0  0
  1  2  1  0
  2  3  1  0
  3  4  1  0
  4  5  1  0
  5  6  1  0
  5  7  1  0
  7  8  1  0
  7  9  1  0
  7  3  1  0
  1 10  1  0
  1 11  1  0
  1 12  1  0
  2 13  1  0
  2 14  1  0
  3 15  1  0
  5 16  1  0
  6 17  1  0
  6 18  1  0
  6 19  1  0
  8 20  1  0
  8 21  1  0
  8 22  1  0
  9 23  1  0
  9 24  1  0
  9 25  1  0
M  END
