
     RDKit          3D

 19 19  0  0  0  0  0  0  0  0999 V2000
    2.4001   -0.2660   -0.2827 C   0  0  0  0  0  0  0  0  0  0  0  0
    1.4964    0.4592    0.6701 C   0  0  0  0  0  0  0  0  0  0  0  0
    0.0707    0.4087    0.2082 C   0  0  0  0  0  0  0  0  0  0  0  0
   -0.7235    1.4299   -0.0898 C   0  0  0  0  0  0  0  0  0  0  0  0
   -2.0559    0.9638   -0.5050 C   0  0  0  0  0  0  0  0  0  0  0  0
   -2.0716   -0.4306   -0.0061 C   0  0  0  0  0  0  0  0  0  0  0  0
   -3.0433   -1.0720    0.3143 O   0  0  0  0  0  0  0  0  0  0  0  0
   -0.6609   -0.8723    0.0186 C   0  0  0  0  0  0  0  0  0  0  0  0
   -0.3944   -1.7890    1.0311 O   0  0  0  0  0  0  0  0  0  0  0  0
    1.8847   -0.3515   -1.2714 H   0  0  0  0  0  0  0  0  0  0  0  0
    3.3587    0.2735   -0.4723 H   0  0  0  0  0  0  0  0  0  0  0  0
    2.6080   -1.2842    0.0933 H   0  0  0  0  0  0  0  0  0  0  0  0
    1.5146   -0.0052    1.6945 H   0  0  0  0  0  0  0  0  0  0  0  0
    1.7696    1.5203    0.7635 H   0  0  0  0  0  0  0  0  0  0  0  0
   -0.4058    2.4621   -0.0267 H   0  0  0  0  0  0  0  0  0  0  0  0
   -2.8851    1.5755   -0.1045 H   0  0  0  0  0  0  0  0  0  0  0  0
   -2.1477    0.9332   -1.6296 H   0  0  0  0  0  0  0  0  0  0  0  0
   -0.3308   -1.2649   -0.9826 H   0  0  0  0  0  0  0  0  0  0  0  0
   -0.3838   -2.6904    0.5771 H   0  0  0  0  0  0  0  0  0  0  0  0
  1  2  1  0
  2  3  1  0
  3  4  2  0
  4  5  1  0
  5  6  1  0
  6  7  2  0
  6  8  1  0
  8  9  1  0
  8  3  1  0
  1 10  1  0
  1 11  1  0
  1 12  1  0
  2 13  1  0
  2 14  1  0
  4 15  1  0
  5 16  1  0
  5 17  1  0
  8 18  1  0
  9 19  1  0
M  END
