
     RDKit          3D

 21 22  0  0  0  0  0  0  0  0999 V2000
    2.3983   -0.3214    0.1845 C   0  0  0  0  0  0  0  0  0  0  0  0
    1.0763   -0.4360    0.8621 C   0  0  0  0  0  0  0  0  0  0  0  0
   -0.0907   -0.0505   -0.0094 C   0  0  0  0  0  0  0  0  0  0  0  0
   -0.1564    1.3425   -0.5706 C   0  0  0  0  0  0  0  0  0  0  0  0
   -1.5904    1.7736   -0.3204 C   0  0  0  0  0  0  0  0  0  0  0  0
   -2.3132    0.6230   -0.1346 O   0  0  0  0  0  0  0  0  0  0  0  0
   -1.4722   -0.3513    0.3757 C   0  0  0  0  0  0  0  0  0  0  0  0
   -0.7693   -1.1734   -0.6995 C   0  0  0  0  0  0  0  0  0  0  0  0
   -0.4356   -2.4584   -0.3299 O   0  0  0  0  0  0  0  0  0  0  0  0
    3.1078   -0.9903    0.7484 H   0  0  0  0  0  0  0  0  0  0  0  0
    2.8498    0.6888    0.2395 H   0  0  0  0  0  0  0  0  0  0  0  0
    2.3807   -0.7233   -0.8497 H   0  0  0  0  0  0  0  0  0  0  0  0
    0.9519   -1.4949    1.1731 H   0  0  0  0  0  0  0  0  0  0  0  0
    1.0981    0.1523    1.8050 H   0  0  0  0  0  0  0  0  0  0  0  0
    0.4786    2.0075    0.0490 H   0  0  0  0  0  0  0  0  0  0  0  0
    0.1496    1.4306   -1.6096 H   0  0  0  0  0  0  0  0  0  0  0  0
   -1.9344    2.3581   -1.1840 H   0  0  0  0  0  0  0  0  0  0  0  0
   -1.6800    2.4079    0.5912 H   0  0  0  0  0  0  0  0  0  0  0  0
   -1.6699   -0.8165    1.3518 H   0  0  0  0  0  0  0  0  0  0  0  0
   -1.1333   -1.0849   -1.7410 H   0  0  0  0  0  0  0  0  0  0  0  0
   -1.2456   -2.8835    0.0872 H   0  0  0  0  0  0  0  0  0  0  0  0
  1  2  1  0
  2  3  1  0
  3  4  1  0
  4  5  1  0
  5  6  1  0
  6  7  1  0
  7  8  1  0
  8  9  1  0
  7  3  1  0
  8  3  1  0
  1 10  1  0
  1 11  1  0
  1 12  1  0
  2 13  1  0
  2 14  1  0
  4 15  1  0
  4 16  1  0
  5 17  1  0
  5 18  1  0
  7 19  1  0
  8 20  1  0
  9 21  1  0
M  END
