
     RDKit          3D

 27 27  0  0  0  0  0  0  0  0999 V2000
    2.7691    0.4156    0.3579 C   0  0  0  0  0  0  0  0  0  0  0  0
    1.6635    0.9276   -0.5137 C   0  0  0  0  0  0  0  0  0  0  0  0
    0.3658    0.3738   -0.0136 C   0  0  0  0  0  0  0  0  0  0  0  0
   -0.8664    0.8042   -0.8000 C   0  0  0  0  0  0  0  0  0  0  0  0
   -1.6443    1.9278   -0.2281 C   0  0  0  0  0  0  0  0  0  0  0  0
   -1.3979   -0.5926   -0.4726 C   0  0  0  0  0  0  0  0  0  0  0  0
   -1.9358   -0.6677    0.9397 C   0  0  0  0  0  0  0  0  0  0  0  0
    0.0647   -1.0104   -0.5770 C   0  0  0  0  0  0  0  0  0  0  0  0
    0.4784   -2.1590    0.2658 C   0  0  0  0  0  0  0  0  0  0  0  0
    3.7042    0.1921   -0.1907 H   0  0  0  0  0  0  0  0  0  0  0  0
    3.0111    1.1785    1.1271 H   0  0  0  0  0  0  0  0  0  0  0  0
    2.4478   -0.5152    0.8429 H   0  0  0  0  0  0  0  0  0  0  0  0
    1.6670    2.0389   -0.4697 H   0  0  0  0  0  0  0  0  0  0  0  0
    1.8463    0.5735   -1.5485 H   0  0  0  0  0  0  0  0  0  0  0  0
    0.2001    0.4829    1.0551 H   0  0  0  0  0  0  0  0  0  0  0  0
   -0.6581    0.9328   -1.8726 H   0  0  0  0  0  0  0  0  0  0  0  0
   -2.7288    1.7762   -0.4386 H   0  0  0  0  0  0  0  0  0  0  0  0
   -1.3466    2.8593   -0.7746 H   0  0  0  0  0  0  0  0  0  0  0  0
   -1.5080    2.1129    0.8404 H   0  0  0  0  0  0  0  0  0  0  0  0
   -2.0536   -1.0197   -1.2340 H   0  0  0  0  0  0  0  0  0  0  0  0
   -1.1740   -0.9601    1.6792 H   0  0  0  0  0  0  0  0  0  0  0  0
   -2.3587    0.3009    1.2822 H   0  0  0  0  0  0  0  0  0  0  0  0
   -2.7652   -1.4124    1.0266 H   0  0  0  0  0  0  0  0  0  0  0  0
    0.3836   -1.1036   -1.6244 H   0  0  0  0  0  0  0  0  0  0  0  0
    0.5829   -1.9408    1.3426 H   0  0  0  0  0  0  0  0  0  0  0  0
   -0.2156   -3.0118    0.1062 H   0  0  0  0  0  0  0  0  0  0  0  0
    1.4686   -2.5037   -0.1076 H   0  0  0  0  0  0  0  0  0  0  0  0
  1  2  1  0
  2  3  1  0
  3  4  1  0
  4  5  1  0
  4  6  1  0
  6  7  1  0
  6  8  1  0
  8  9  1  0
  8  3  1  0
  1 10  1  0
  1 11  1  0
  1 12  1  0
  2 13  1  0
  2 14  1  0
  3 15  1  0
  4 16  1  0
  5 17  1  0
  5 18  1  0
  5 19  1  0
  6 20  1  0
  7 21  1  0
  7 22  1  0
  7 23  1  0
  8 24  1  0
  9 25  1  0
  9 26  1  0
  9 27  1  0
M  END
