
     RDKit          3D

 21 22  0  0  0  0  0  0  0  0999 V2000
    2.0570   -0.7714    0.1701 C   0  0  0  0  0  0  0  0  0  0  0  0
    1.3299    0.5509    0.4131 C   0  0  0  0  0  0  0  0  0  0  0  0
    0.0375    0.5140   -0.0739 C   0  0  0  0  0  0  0  0  0  0  0  0
   -0.3616    0.2988   -1.3779 O   0  0  0  0  0  0  0  0  0  0  0  0
   -1.5875    0.4596   -0.7484 C   0  0  0  0  0  0  0  0  0  0  0  0
   -1.0566   -0.3969    0.3447 C   0  0  0  0  0  0  0  0  0  0  0  0
   -0.9045   -1.8524    0.0668 C   0  0  0  0  0  0  0  0  0  0  0  0
   -0.9630    1.6308   -0.0383 C   0  0  0  0  0  0  0  0  0  0  0  0
   -0.6996    2.7334   -0.8083 O   0  0  0  0  0  0  0  0  0  0  0  0
    1.5304   -1.3018   -0.6448 H   0  0  0  0  0  0  0  0  0  0  0  0
    3.0838   -0.5862   -0.1833 H   0  0  0  0  0  0  0  0  0  0  0  0
    2.0279   -1.4161    1.0704 H   0  0  0  0  0  0  0  0  0  0  0  0
    1.9600    1.3580   -0.0054 H   0  0  0  0  0  0  0  0  0  0  0  0
    1.3611    0.7072    1.5249 H   0  0  0  0  0  0  0  0  0  0  0  0
   -2.4995    0.4370   -1.1788 H   0  0  0  0  0  0  0  0  0  0  0  0
   -1.4722   -0.2199    1.3489 H   0  0  0  0  0  0  0  0  0  0  0  0
   -0.7066   -2.1013   -0.9872 H   0  0  0  0  0  0  0  0  0  0  0  0
   -0.1657   -2.3260    0.7254 H   0  0  0  0  0  0  0  0  0  0  0  0
   -1.8886   -2.3411    0.3118 H   0  0  0  0  0  0  0  0  0  0  0  0
   -1.3657    1.7930    0.9673 H   0  0  0  0  0  0  0  0  0  0  0  0
    0.2834    2.8305   -0.8971 H   0  0  0  0  0  0  0  0  0  0  0  0
  1  2  1  0
  2  3  1  0
  3  4  1  0
  4  5  1  0
  5  6  1  0
  6  7  1  0
  5  8  1  0
  8  9  1  0
  6  3  1  0
  8  3  1  0
  1 10  1  0
  1 11  1  0
  1 12  1  0
  2 13  1  0
  2 14  1  0
  5 15  1  0
  6 16  1  0
  7 17  1  0
  7 18  1  0
  7 19  1  0
  8 20  1  0
  9 21  1  0
M  END
