
     RDKit          3D

 25 25  0  0  0  0  0  0  0  0999 V2000
    3.2432   -0.0247    0.1564 C   0  0  0  0  0  0  0  0  0  0  0  0
    2.0685   -0.4413   -0.6989 C   0  0  0  0  0  0  0  0  0  0  0  0
    0.8160   -0.0830    0.0528 C   0  0  0  0  0  0  0  0  0  0  0  0
    0.7317    1.3815    0.3291 C   0  0  0  0  0  0  0  0  0  0  0  0
   -0.3835    1.4468   -0.5334 O   0  0  0  0  0  0  0  0  0  0  0  0
   -0.4271    0.0573   -0.7648 C   0  0  0  0  0  0  0  0  0  0  0  0
   -1.6124   -0.5224   -0.0171 C   0  0  0  0  0  0  0  0  0  0  0  0
   -2.8861   -0.3828   -0.8459 C   0  0  0  0  0  0  0  0  0  0  0  0
   -1.8603    0.2438    1.2700 C   0  0  0  0  0  0  0  0  0  0  0  0
    3.0791   -0.3438    1.2255 H   0  0  0  0  0  0  0  0  0  0  0  0
    3.3202    1.0815    0.1923 H   0  0  0  0  0  0  0  0  0  0  0  0
    4.2068   -0.3925   -0.2380 H   0  0  0  0  0  0  0  0  0  0  0  0
    2.1557    0.1136   -1.6569 H   0  0  0  0  0  0  0  0  0  0  0  0
    2.1679   -1.5179   -0.9111 H   0  0  0  0  0  0  0  0  0  0  0  0
    0.7262   -0.7010    0.9645 H   0  0  0  0  0  0  0  0  0  0  0  0
    1.5254    2.0211   -0.0677 H   0  0  0  0  0  0  0  0  0  0  0  0
    0.4738    1.6535    1.3863 H   0  0  0  0  0  0  0  0  0  0  0  0
   -0.3705   -0.1884   -1.8211 H   0  0  0  0  0  0  0  0  0  0  0  0
   -1.4597   -1.5882    0.2478 H   0  0  0  0  0  0  0  0  0  0  0  0
   -3.7099   -0.7680   -0.2117 H   0  0  0  0  0  0  0  0  0  0  0  0
   -2.8241   -0.9337   -1.7978 H   0  0  0  0  0  0  0  0  0  0  0  0
   -3.0332    0.7107   -0.9868 H   0  0  0  0  0  0  0  0  0  0  0  0
   -2.9002   -0.0299    1.6086 H   0  0  0  0  0  0  0  0  0  0  0  0
   -1.1318   -0.0025    2.0581 H   0  0  0  0  0  0  0  0  0  0  0  0
   -1.9156    1.3430    1.0599 H   0  0  0  0  0  0  0  0  0  0  0  0
  1  2  1  0
  2  3  1  0
  3  4  1  0
  4  5  1  0
  5  6  1  0
  6  7  1  0
  7  8  1  0
  7  9  1  0
  6  3  1  0
  1 10  1  0
  1 11  1  0
  1 12  1  0
  2 13  1  0
  2 14  1  0
  3 15  1  0
  4 16  1  0
  4 17  1  0
  6 18  1  0
  7 19  1  0
  8 20  1  0
  8 21  1  0
  8 22  1  0
  9 23  1  0
  9 24  1  0
  9 25  1  0
M  END
