
     RDKit          3D

 17 18  0  0  0  0  0  0  0  0999 V2000
   -2.1427    0.4577    0.7246 C   0  0  0  0  0  0  0  0  0  0  0  0
   -1.4084   -0.6314   -0.0030 C   0  0  0  0  0  0  0  0  0  0  0  0
    0.0355   -0.2584   -0.2393 C   0  0  0  0  0  0  0  0  0  0  0  0
    0.5440    0.8977    0.1632 C   0  0  0  0  0  0  0  0  0  0  0  0
    1.9614    0.8408   -0.2562 C   0  0  0  0  0  0  0  0  0  0  0  0
    2.6837    1.7576   -0.6612 O   0  0  0  0  0  0  0  0  0  0  0  0
    2.2333   -0.5910   -0.0484 C   0  0  0  0  0  0  0  0  0  0  0  0
    2.1214   -1.6784   -0.7423 O   0  0  0  0  0  0  0  0  0  0  0  0
    1.0551   -0.9722   -0.9595 C   0  0  0  0  0  0  0  0  0  0  0  0
   -3.1035    0.0181    1.0852 H   0  0  0  0  0  0  0  0  0  0  0  0
   -2.3992    1.2845    0.0368 H   0  0  0  0  0  0  0  0  0  0  0  0
   -1.5244    0.8108    1.5989 H   0  0  0  0  0  0  0  0  0  0  0  0
   -1.8762   -0.7545   -1.0008 H   0  0  0  0  0  0  0  0  0  0  0  0
   -1.4824   -1.5594    0.5858 H   0  0  0  0  0  0  0  0  0  0  0  0
    0.0419    1.7412    0.6821 H   0  0  0  0  0  0  0  0  0  0  0  0
    2.1441   -0.8257    1.0589 H   0  0  0  0  0  0  0  0  0  0  0  0
    1.1163   -0.5373   -2.0249 H   0  0  0  0  0  0  0  0  0  0  0  0
  1  2  1  0
  2  3  1  0
  3  4  2  0
  4  5  1  0
  5  6  2  0
  5  7  1  0
  7  8  1  0
  8  9  1  0
  9  3  1  0
  9  7  1  0
  1 10  1  0
  1 11  1  0
  1 12  1  0
  2 13  1  0
  2 14  1  0
  4 15  1  0
  7 16  1  0
  9 17  1  0
M  END
