
     RDKit          3D

 19 20  0  0  0  0  0  0  0  0999 V2000
    1.8928    0.3117   -1.0743 C   0  0  0  0  0  0  0  0  0  0  0  0
    1.4750    0.2958    0.3738 C   0  0  0  0  0  0  0  0  0  0  0  0
    0.1974   -0.4381    0.4956 C   0  0  0  0  0  0  0  0  0  0  0  0
   -0.4452   -0.5972    1.8824 C   0  0  0  0  0  0  0  0  0  0  0  0
   -1.7288   -0.3032    1.2041 C   0  0  0  0  0  0  0  0  0  0  0  0
   -2.8564   -0.1239    1.5619 O   0  0  0  0  0  0  0  0  0  0  0  0
   -1.0193   -0.3282   -0.0809 C   0  0  0  0  0  0  0  0  0  0  0  0
   -1.5392    0.3848   -1.2742 C   0  0  0  0  0  0  0  0  0  0  0  0
   -0.1877   -1.4180   -0.3817 O   0  0  0  0  0  0  0  0  0  0  0  0
    1.0062    0.3848   -1.7279 H   0  0  0  0  0  0  0  0  0  0  0  0
    2.6229    1.1326   -1.2767 H   0  0  0  0  0  0  0  0  0  0  0  0
    2.3640   -0.6797   -1.3245 H   0  0  0  0  0  0  0  0  0  0  0  0
    1.4502    1.3419    0.7316 H   0  0  0  0  0  0  0  0  0  0  0  0
    2.2866   -0.2295    0.9525 H   0  0  0  0  0  0  0  0  0  0  0  0
   -0.0861    0.1464    2.5991 H   0  0  0  0  0  0  0  0  0  0  0  0
   -0.3619   -1.6625    2.2005 H   0  0  0  0  0  0  0  0  0  0  0  0
   -2.6625    0.4688   -1.2831 H   0  0  0  0  0  0  0  0  0  0  0  0
   -1.1222    1.4223   -1.3435 H   0  0  0  0  0  0  0  0  0  0  0  0
   -1.2857   -0.1089   -2.2348 H   0  0  0  0  0  0  0  0  0  0  0  0
  1  2  1  0
  2  3  1  0
  3  4  1  0
  4  5  1  0
  5  6  2  0
  5  7  1  0
  7  8  1  0
  7  9  1  0
  7  3  1  0
  9  3  1  0
  1 10  1  0
  1 11  1  0
  1 12  1  0
  2 13  1  0
  2 14  1  0
  4 15  1  0
  4 16  1  0
  8 17  1  0
  8 18  1  0
  8 19  1  0
M  END
