
     RDKit          3D

 16 17  0  0  0  0  0  0  0  0999 V2000
    2.0564   -0.1326   -0.2739 C   0  0  0  0  0  0  0  0  0  0  0  0
    0.9473   -0.1707    0.7408 C   0  0  0  0  0  0  0  0  0  0  0  0
   -0.3090    0.4865    0.2581 C   0  0  0  0  0  0  0  0  0  0  0  0
   -0.9370   -0.0851   -0.9720 C   0  0  0  0  0  0  0  0  0  0  0  0
   -1.1635   -1.2236   -0.2026 O   0  0  0  0  0  0  0  0  0  0  0  0
   -1.5697   -0.2127    0.6577 C   0  0  0  0  0  0  0  0  0  0  0  0
   -2.2001    0.4015   -0.4863 C   0  0  0  0  0  0  0  0  0  0  0  0
   -3.1896    0.9706   -0.8068 O   0  0  0  0  0  0  0  0  0  0  0  0
    1.9690    0.7461   -0.9651 H   0  0  0  0  0  0  0  0  0  0  0  0
    3.0363    0.0181    0.2519 H   0  0  0  0  0  0  0  0  0  0  0  0
    2.1604   -1.0763   -0.8427 H   0  0  0  0  0  0  0  0  0  0  0  0
    1.2710    0.3455    1.6677 H   0  0  0  0  0  0  0  0  0  0  0  0
    0.7446   -1.2198    1.0140 H   0  0  0  0  0  0  0  0  0  0  0  0
   -0.3395    1.5730    0.2720 H   0  0  0  0  0  0  0  0  0  0  0  0
   -0.5559   -0.0804   -1.9067 H   0  0  0  0  0  0  0  0  0  0  0  0
   -1.9207   -0.3402    1.5940 H   0  0  0  0  0  0  0  0  0  0  0  0
  1  2  1  0
  2  3  1  0
  3  4  1  0
  4  5  1  0
  5  6  1  0
  6  7  1  0
  7  8  2  0
  6  3  1  0
  7  4  1  0
  1  9  1  0
  1 10  1  0
  1 11  1  0
  2 12  1  0
  2 13  1  0
  3 14  1  0
  4 15  1  0
  6 16  1  0
M  END
