
     RDKit          3D

 25 25  0  0  0  0  0  0  0  0999 V2000
    2.6586    1.5487   -0.5312 C   0  0  0  0  0  0  0  0  0  0  0  0
    2.3721    0.2160    0.0821 C   0  0  0  0  0  0  0  0  0  0  0  0
    0.8675   -0.0129    0.2612 C   0  0  0  0  0  0  0  0  0  0  0  0
    0.5725   -1.3769    0.8890 C   0  0  0  0  0  0  0  0  0  0  0  0
    0.2328   -1.0804   -0.5171 C   0  0  0  0  0  0  0  0  0  0  0  0
   -1.1646   -1.0589   -1.0257 C   0  0  0  0  0  0  0  0  0  0  0  0
   -2.2470   -0.9440   -0.0139 C   0  0  0  0  0  0  0  0  0  0  0  0
   -2.1763    0.2265    0.7220 O   0  0  0  0  0  0  0  0  0  0  0  0
   -2.3250    1.3231   -0.1253 C   0  0  0  0  0  0  0  0  0  0  0  0
    2.6595    2.3863    0.1969 H   0  0  0  0  0  0  0  0  0  0  0  0
    3.7142    1.5071   -0.9239 H   0  0  0  0  0  0  0  0  0  0  0  0
    2.0317    1.7757   -1.4154 H   0  0  0  0  0  0  0  0  0  0  0  0
    2.8859    0.1856    1.0711 H   0  0  0  0  0  0  0  0  0  0  0  0
    2.8358   -0.5768   -0.5301 H   0  0  0  0  0  0  0  0  0  0  0  0
    0.3619    0.8689    0.6800 H   0  0  0  0  0  0  0  0  0  0  0  0
   -0.1577   -1.3181    1.7066 H   0  0  0  0  0  0  0  0  0  0  0  0
    1.4155   -2.0595    1.1200 H   0  0  0  0  0  0  0  0  0  0  0  0
    0.9329   -1.5876   -1.2569 H   0  0  0  0  0  0  0  0  0  0  0  0
   -1.3363   -0.2912   -1.8386 H   0  0  0  0  0  0  0  0  0  0  0  0
   -1.3803   -2.0268   -1.5868 H   0  0  0  0  0  0  0  0  0  0  0  0
   -3.2611   -0.9018   -0.5149 H   0  0  0  0  0  0  0  0  0  0  0  0
   -2.3293   -1.8386    0.6427 H   0  0  0  0  0  0  0  0  0  0  0  0
   -3.2978    1.3096   -0.6725 H   0  0  0  0  0  0  0  0  0  0  0  0
   -1.5243    1.4460   -0.8516 H   0  0  0  0  0  0  0  0  0  0  0  0
   -2.3410    2.2800    0.4767 H   0  0  0  0  0  0  0  0  0  0  0  0
  1  2  1  0
  2  3  1  0
  3  4  1  0
  4  5  1  0
  5  6  1  0
  6  7  1  0
  7  8  1  0
  8  9  1  0
  5  3  1  0
  1 10  1  0
  1 11  1  0
  1 12  1  0
  2 13  1  0
  2 14  1  0
  3 15  1  0
  4 16  1  0
  4 17  1  0
  5 18  1  0
  6 19  1  0
  6 20  1  0
  7 21  1  0
  7 22  1  0
  9 23  1  0
  9 24  1  0
  9 25  1  0
M  END
