
     RDKit          3D

 23 23  0  0  0  0  0  0  0  0999 V2000
    2.7528   -0.4334    0.0814 C   0  0  0  0  0  0  0  0  0  0  0  0
    1.7971    0.7107    0.2281 C   0  0  0  0  0  0  0  0  0  0  0  0
    0.3754    0.3160   -0.2072 C   0  0  0  0  0  0  0  0  0  0  0  0
   -0.5314    1.4491   -0.0539 C   0  0  0  0  0  0  0  0  0  0  0  0
   -1.9614    1.2690   -0.0732 C   0  0  0  0  0  0  0  0  0  0  0  0
   -2.7114    0.2021   -0.2273 C   0  0  0  0  0  0  0  0  0  0  0  0
   -2.2433   -1.1673   -0.4321 C   0  0  0  0  0  0  0  0  0  0  0  0
   -1.0670   -1.7101   -0.1509 C   0  0  0  0  0  0  0  0  0  0  0  0
    0.0620   -0.9548    0.4692 C   0  0  0  0  0  0  0  0  0  0  0  0
    2.8176   -1.0779    0.9886 H   0  0  0  0  0  0  0  0  0  0  0  0
    3.7544   -0.0023   -0.1230 H   0  0  0  0  0  0  0  0  0  0  0  0
    2.4877   -1.0380   -0.7953 H   0  0  0  0  0  0  0  0  0  0  0  0
    2.1548    1.5723   -0.3555 H   0  0  0  0  0  0  0  0  0  0  0  0
    1.8023    1.0260    1.2999 H   0  0  0  0  0  0  0  0  0  0  0  0
    0.4890    0.0954   -1.3113 H   0  0  0  0  0  0  0  0  0  0  0  0
   -0.2635    1.9641    0.9213 H   0  0  0  0  0  0  0  0  0  0  0  0
   -0.2801    2.2560   -0.8108 H   0  0  0  0  0  0  0  0  0  0  0  0
   -2.5360    2.1739    0.0636 H   0  0  0  0  0  0  0  0  0  0  0  0
   -3.8076    0.3437   -0.2011 H   0  0  0  0  0  0  0  0  0  0  0  0
   -2.9952   -1.8205   -0.8865 H   0  0  0  0  0  0  0  0  0  0  0  0
   -0.9286   -2.7552   -0.3870 H   0  0  0  0  0  0  0  0  0  0  0  0
   -0.1131   -0.7949    1.5632 H   0  0  0  0  0  0  0  0  0  0  0  0
    0.9454   -1.6237    0.3999 H   0  0  0  0  0  0  0  0  0  0  0  0
  1  2  1  0
  2  3  1  0
  3  4  1  0
  4  5  1  0
  5  6  2  0
  6  7  1  0
  7  8  2  0
  8  9  1  0
  9  3  1  0
  1 10  1  0
  1 11  1  0
  1 12  1  0
  2 13  1  0
  2 14  1  0
  3 15  1  0
  4 16  1  0
  4 17  1  0
  5 18  1  0
  6 19  1  0
  7 20  1  0
  8 21  1  0
  9 22  1  0
  9 23  1  0
M  END
