
     RDKit          3D

 16 16  0  0  0  0  0  0  0  0999 V2000
   -2.0261    0.4541    0.2178 C   0  0  0  0  0  0  0  0  0  0  0  0
   -1.0606   -0.6256    0.6786 C   0  0  0  0  0  0  0  0  0  0  0  0
    0.2780   -0.2638    0.1298 C   0  0  0  0  0  0  0  0  0  0  0  0
    1.3844   -0.0174    0.8373 C   0  0  0  0  0  0  0  0  0  0  0  0
    2.4793    0.2988   -0.0573 C   0  0  0  0  0  0  0  0  0  0  0  0
    3.6552    0.5812    0.2400 O   0  0  0  0  0  0  0  0  0  0  0  0
    1.9648    0.2271   -1.3314 O   0  0  0  0  0  0  0  0  0  0  0  0
    0.6072   -0.1157   -1.3077 C   0  0  0  0  0  0  0  0  0  0  0  0
   -1.8173    0.6146   -0.8588 H   0  0  0  0  0  0  0  0  0  0  0  0
   -3.0795    0.1667    0.3658 H   0  0  0  0  0  0  0  0  0  0  0  0
   -1.7978    1.3576    0.8376 H   0  0  0  0  0  0  0  0  0  0  0  0
   -1.3686   -1.5998    0.2247 H   0  0  0  0  0  0  0  0  0  0  0  0
   -1.0426   -0.6552    1.7682 H   0  0  0  0  0  0  0  0  0  0  0  0
    1.4030   -0.0615    1.9125 H   0  0  0  0  0  0  0  0  0  0  0  0
    0.0024    0.7001   -1.7877 H   0  0  0  0  0  0  0  0  0  0  0  0
    0.4183   -1.0610   -1.8693 H   0  0  0  0  0  0  0  0  0  0  0  0
  1  2  1  0
  2  3  1  0
  3  4  2  0
  4  5  1  0
  5  6  2  0
  5  7  1  0
  7  8  1  0
  8  3  1  0
  1  9  1  0
  1 10  1  0
  1 11  1  0
  2 12  1  0
  2 13  1  0
  4 14  1  0
  8 15  1  0
  8 16  1  0
M  END
