
     RDKit          3D

 21 21  0  0  0  0  0  0  0  0999 V2000
    2.0584   -1.2090    0.0312 C   0  0  0  0  0  0  0  0  0  0  0  0
    1.3788   -0.0537   -0.6619 C   0  0  0  0  0  0  0  0  0  0  0  0
    0.4515    0.6873    0.2727 C   0  0  0  0  0  0  0  0  0  0  0  0
   -0.2582    1.8579   -0.3703 C   0  0  0  0  0  0  0  0  0  0  0  0
   -1.5521    1.3377    0.1350 C   0  0  0  0  0  0  0  0  0  0  0  0
   -2.6789    1.8034    0.1695 O   0  0  0  0  0  0  0  0  0  0  0  0
   -0.8649    0.0799    0.5439 C   0  0  0  0  0  0  0  0  0  0  0  0
   -1.3086   -1.0626   -0.3155 C   0  0  0  0  0  0  0  0  0  0  0  0
   -1.1079   -0.1811    1.8899 O   0  0  0  0  0  0  0  0  0  0  0  0
    1.8021   -2.1958   -0.4489 H   0  0  0  0  0  0  0  0  0  0  0  0
    3.1620   -1.1084   -0.0909 H   0  0  0  0  0  0  0  0  0  0  0  0
    1.7633   -1.3007    1.0921 H   0  0  0  0  0  0  0  0  0  0  0  0
    2.1403    0.6777   -1.0598 H   0  0  0  0  0  0  0  0  0  0  0  0
    0.7828   -0.4450   -1.5102 H   0  0  0  0  0  0  0  0  0  0  0  0
    0.9456    1.0327    1.2074 H   0  0  0  0  0  0  0  0  0  0  0  0
    0.0224    2.8480    0.0407 H   0  0  0  0  0  0  0  0  0  0  0  0
   -0.2395    1.8295   -1.4826 H   0  0  0  0  0  0  0  0  0  0  0  0
   -1.2021   -0.8980   -1.3858 H   0  0  0  0  0  0  0  0  0  0  0  0
   -2.4140   -1.1991   -0.1251 H   0  0  0  0  0  0  0  0  0  0  0  0
   -0.8331   -2.0001    0.0563 H   0  0  0  0  0  0  0  0  0  0  0  0
   -2.0480   -0.5007    2.0126 H   0  0  0  0  0  0  0  0  0  0  0  0
  1  2  1  0
  2  3  1  0
  3  4  1  0
  4  5  1  0
  5  6  2  0
  5  7  1  0
  7  8  1  0
  7  9  1  0
  7  3  1  0
  1 10  1  0
  1 11  1  0
  1 12  1  0
  2 13  1  0
  2 14  1  0
  3 15  1  0
  4 16  1  0
  4 17  1  0
  8 18  1  0
  8 19  1  0
  8 20  1  0
  9 21  1  0
M  END
