
     RDKit          3D

 22 22  0  0  0  0  0  0  0  0999 V2000
   -2.1015    1.1925    0.2564 C   0  0  0  0  0  0  0  0  0  0  0  0
   -1.4952    0.3305   -0.8202 C   0  0  0  0  0  0  0  0  0  0  0  0
   -0.2463   -0.3415   -0.2338 C   0  0  0  0  0  0  0  0  0  0  0  0
    0.7795    0.6184    0.2264 C   0  0  0  0  0  0  0  0  0  0  0  0
    2.0123    0.0352    0.8045 C   0  0  0  0  0  0  0  0  0  0  0  0
    2.8511    1.1122    1.1777 O   0  0  0  0  0  0  0  0  0  0  0  0
    0.2951   -1.5274   -1.0471 C   0  0  0  0  0  0  0  0  0  0  0  0
   -0.3994   -1.7064    0.2689 C   0  0  0  0  0  0  0  0  0  0  0  0
   -1.6569    1.0224    1.2559 H   0  0  0  0  0  0  0  0  0  0  0  0
   -3.1963    0.9808    0.3644 H   0  0  0  0  0  0  0  0  0  0  0  0
   -2.0186    2.2601   -0.0650 H   0  0  0  0  0  0  0  0  0  0  0  0
   -2.2324   -0.4632   -1.0966 H   0  0  0  0  0  0  0  0  0  0  0  0
   -1.2411    0.8865   -1.7365 H   0  0  0  0  0  0  0  0  0  0  0  0
    0.3300    1.3583    0.9375 H   0  0  0  0  0  0  0  0  0  0  0  0
    1.0886    1.2445   -0.6593 H   0  0  0  0  0  0  0  0  0  0  0  0
    1.8810   -0.5708    1.6986 H   0  0  0  0  0  0  0  0  0  0  0  0
    2.6008   -0.4994    0.0082 H   0  0  0  0  0  0  0  0  0  0  0  0
    2.8164    1.7615    0.4314 H   0  0  0  0  0  0  0  0  0  0  0  0
    1.3786   -1.6632   -1.1321 H   0  0  0  0  0  0  0  0  0  0  0  0
   -0.2491   -1.7602   -1.9866 H   0  0  0  0  0  0  0  0  0  0  0  0
   -1.4344   -2.1333    0.2822 H   0  0  0  0  0  0  0  0  0  0  0  0
    0.2377   -2.1376    1.0650 H   0  0  0  0  0  0  0  0  0  0  0  0
  1  2  1  0
  2  3  1  0
  3  4  1  0
  4  5  1  0
  5  6  1  0
  3  7  1  0
  7  8  1  0
  8  3  1  0
  1  9  1  0
  1 10  1  0
  1 11  1  0
  2 12  1  0
  2 13  1  0
  4 14  1  0
  4 15  1  0
  5 16  1  0
  5 17  1  0
  6 18  1  0
  7 19  1  0
  7 20  1  0
  8 21  1  0
  8 22  1  0
M  END
