
     RDKit          3D

 25 26  0  0  0  0  0  0  0  0999 V2000
    2.6671   -0.3888    0.5277 C   0  0  0  0  0  0  0  0  0  0  0  0
    1.3193    0.1215    0.9957 C   0  0  0  0  0  0  0  0  0  0  0  0
    0.3890    0.3227   -0.2078 C   0  0  0  0  0  0  0  0  0  0  0  0
    1.0382    1.3493   -1.1606 C   0  0  0  0  0  0  0  0  0  0  0  0
   -0.2702   -0.8589   -0.6532 C   0  0  0  0  0  0  0  0  0  0  0  0
   -1.6042   -1.4550   -0.2823 C   0  0  0  0  0  0  0  0  0  0  0  0
   -2.0668   -0.1949   -1.0489 C   0  0  0  0  0  0  0  0  0  0  0  0
   -1.0279    0.4335   -0.1370 C   0  0  0  0  0  0  0  0  0  0  0  0
   -1.5218    0.4589    1.2755 C   0  0  0  0  0  0  0  0  0  0  0  0
    2.5448   -1.1086   -0.2816 H   0  0  0  0  0  0  0  0  0  0  0  0
    3.1577   -0.8866    1.3855 H   0  0  0  0  0  0  0  0  0  0  0  0
    3.3116    0.4780    0.2625 H   0  0  0  0  0  0  0  0  0  0  0  0
    1.3881    1.0950    1.5080 H   0  0  0  0  0  0  0  0  0  0  0  0
    0.9364   -0.6585    1.6930 H   0  0  0  0  0  0  0  0  0  0  0  0
    2.1089    1.1395   -1.2469 H   0  0  0  0  0  0  0  0  0  0  0  0
    0.5878    1.1335   -2.1601 H   0  0  0  0  0  0  0  0  0  0  0  0
    0.7941    2.3415   -0.7769 H   0  0  0  0  0  0  0  0  0  0  0  0
   -0.2162   -0.9231   -1.7928 H   0  0  0  0  0  0  0  0  0  0  0  0
   -1.8956   -1.4842    0.7545 H   0  0  0  0  0  0  0  0  0  0  0  0
   -1.8125   -2.3940   -0.7803 H   0  0  0  0  0  0  0  0  0  0  0  0
   -1.7929   -0.2849   -2.1010 H   0  0  0  0  0  0  0  0  0  0  0  0
   -3.0841    0.0655   -0.7813 H   0  0  0  0  0  0  0  0  0  0  0  0
   -2.6200    0.3399    1.3843 H   0  0  0  0  0  0  0  0  0  0  0  0
   -0.9882   -0.1624    1.9905 H   0  0  0  0  0  0  0  0  0  0  0  0
   -1.3424    1.5211    1.6334 H   0  0  0  0  0  0  0  0  0  0  0  0
  1  2  1  0
  2  3  1  0
  3  4  1  0
  3  5  1  0
  5  6  1  0
  6  7  1  0
  7  8  1  0
  8  9  1  0
  8  3  1  0
  8  5  1  0
  1 10  1  0
  1 11  1  0
  1 12  1  0
  2 13  1  0
  2 14  1  0
  4 15  1  0
  4 16  1  0
  4 17  1  0
  5 18  1  0
  6 19  1  0
  6 20  1  0
  7 21  1  0
  7 22  1  0
  9 23  1  0
  9 24  1  0
  9 25  1  0
M  END
