
     RDKit          3D

 22 22  0  0  0  0  0  0  0  0999 V2000
   -2.5942   -0.3095    0.2579 C   0  0  0  0  0  0  0  0  0  0  0  0
   -1.5244   -0.0214   -0.7785 C   0  0  0  0  0  0  0  0  0  0  0  0
   -0.3868    0.6966   -0.0858 C   0  0  0  0  0  0  0  0  0  0  0  0
   -0.7396    1.8848    0.4947 O   0  0  0  0  0  0  0  0  0  0  0  0
    0.4527   -0.2396    0.7560 C   0  0  0  0  0  0  0  0  0  0  0  0
    1.2406   -0.5259   -0.5164 C   0  0  0  0  0  0  0  0  0  0  0  0
    2.7138   -0.6956   -0.2450 C   0  0  0  0  0  0  0  0  0  0  0  0
    0.8391    0.8684   -0.9790 C   0  0  0  0  0  0  0  0  0  0  0  0
   -2.1460   -0.4863    1.2448 H   0  0  0  0  0  0  0  0  0  0  0  0
   -3.1196   -1.2699   -0.0208 H   0  0  0  0  0  0  0  0  0  0  0  0
   -3.3335    0.5057    0.2279 H   0  0  0  0  0  0  0  0  0  0  0  0
   -1.9471    0.6025   -1.5827 H   0  0  0  0  0  0  0  0  0  0  0  0
   -1.2084   -0.9864   -1.1857 H   0  0  0  0  0  0  0  0  0  0  0  0
   -1.4089    1.7186    1.1944 H   0  0  0  0  0  0  0  0  0  0  0  0
   -0.0762   -1.1064    1.1827 H   0  0  0  0  0  0  0  0  0  0  0  0
    1.1080    0.3078    1.4783 H   0  0  0  0  0  0  0  0  0  0  0  0
    0.8196   -1.2939   -1.1706 H   0  0  0  0  0  0  0  0  0  0  0  0
    2.9526   -0.5972    0.8344 H   0  0  0  0  0  0  0  0  0  0  0  0
    2.9881   -1.7307   -0.5338 H   0  0  0  0  0  0  0  0  0  0  0  0
    3.2934    0.0382   -0.8696 H   0  0  0  0  0  0  0  0  0  0  0  0
    1.4932    1.6846   -0.6052 H   0  0  0  0  0  0  0  0  0  0  0  0
    0.5835    0.9554   -2.0369 H   0  0  0  0  0  0  0  0  0  0  0  0
  1  2  1  0
  2  3  1  0
  3  4  1  0
  3  5  1  0
  5  6  1  0
  6  7  1  0
  6  8  1  0
  8  3  1  0
  1  9  1  0
  1 10  1  0
  1 11  1  0
  2 12  1  0
  2 13  1  0
  4 14  1  0
  5 15  1  0
  5 16  1  0
  6 17  1  0
  7 18  1  0
  7 19  1  0
  7 20  1  0
  8 21  1  0
  8 22  1  0
M  END
