
     RDKit          3D

 21 22  0  0  0  0  0  0  0  0999 V2000
    2.5953    0.4159   -0.2003 C   0  0  0  0  0  0  0  0  0  0  0  0
    1.3312    0.7813    0.5817 C   0  0  0  0  0  0  0  0  0  0  0  0
    0.3771   -0.3508    0.6529 C   0  0  0  0  0  0  0  0  0  0  0  0
   -0.1302   -0.8700   -0.6877 C   0  0  0  0  0  0  0  0  0  0  0  0
   -0.9866   -2.0885   -0.6444 C   0  0  0  0  0  0  0  0  0  0  0  0
   -1.6819   -1.5779    0.4363 O   0  0  0  0  0  0  0  0  0  0  0  0
   -1.0490   -0.3265    0.4285 C   0  0  0  0  0  0  0  0  0  0  0  0
   -1.9089    0.7987    0.0282 C   0  0  0  0  0  0  0  0  0  0  0  0
   -1.3615    2.0504    0.0016 O   0  0  0  0  0  0  0  0  0  0  0  0
    2.8051   -0.6489   -0.0407 H   0  0  0  0  0  0  0  0  0  0  0  0
    2.3538    0.6610   -1.2664 H   0  0  0  0  0  0  0  0  0  0  0  0
    3.4313    1.0229    0.1581 H   0  0  0  0  0  0  0  0  0  0  0  0
    1.7086    1.0442    1.6114 H   0  0  0  0  0  0  0  0  0  0  0  0
    0.9026    1.7032    0.1823 H   0  0  0  0  0  0  0  0  0  0  0  0
    0.7493   -1.2147    1.2882 H   0  0  0  0  0  0  0  0  0  0  0  0
    0.0017   -0.2760   -1.5872 H   0  0  0  0  0  0  0  0  0  0  0  0
   -1.5861   -2.2579   -1.5589 H   0  0  0  0  0  0  0  0  0  0  0  0
   -0.3977   -2.9704   -0.3317 H   0  0  0  0  0  0  0  0  0  0  0  0
   -2.7830    0.8471    0.7442 H   0  0  0  0  0  0  0  0  0  0  0  0
   -2.4138    0.6255   -0.9690 H   0  0  0  0  0  0  0  0  0  0  0  0
   -1.9571    2.6313   -0.5583 H   0  0  0  0  0  0  0  0  0  0  0  0
  1  2  1  0
  2  3  1  0
  3  4  1  0
  4  5  1  0
  5  6  1  0
  6  7  1  0
  7  8  1  0
  8  9  1  0
  7  3  1  0
  7  4  1  0
  1 10  1  0
  1 11  1  0
  1 12  1  0
  2 13  1  0
  2 14  1  0
  3 15  1  0
  4 16  1  0
  5 17  1  0
  5 18  1  0
  8 19  1  0
  8 20  1  0
  9 21  1  0
M  END
