
     RDKit          3D

 23 24  0  0  0  0  0  0  0  0999 V2000
    2.7410    0.8495   -0.2746 C   0  0  0  0  0  0  0  0  0  0  0  0
    2.0215   -0.4820   -0.0239 C   0  0  0  0  0  0  0  0  0  0  0  0
    0.6274   -0.1440    0.4095 C   0  0  0  0  0  0  0  0  0  0  0  0
   -0.2817   -1.2871    0.7166 C   0  0  0  0  0  0  0  0  0  0  0  0
   -1.1956   -0.8976   -0.4064 C   0  0  0  0  0  0  0  0  0  0  0  0
   -2.4623   -0.1969   -0.0327 C   0  0  0  0  0  0  0  0  0  0  0  0
   -1.9796    1.1937    0.3130 C   0  0  0  0  0  0  0  0  0  0  0  0
   -0.9073    1.4138   -0.5134 O   0  0  0  0  0  0  0  0  0  0  0  0
   -0.2672    0.2229   -0.7478 C   0  0  0  0  0  0  0  0  0  0  0  0
    2.5999    1.1617   -1.3411 H   0  0  0  0  0  0  0  0  0  0  0  0
    2.3160    1.6401    0.3789 H   0  0  0  0  0  0  0  0  0  0  0  0
    3.8072    0.7683   -0.0512 H   0  0  0  0  0  0  0  0  0  0  0  0
    2.0832   -1.0543   -0.9547 H   0  0  0  0  0  0  0  0  0  0  0  0
    2.5902   -1.0490    0.7434 H   0  0  0  0  0  0  0  0  0  0  0  0
    0.6624    0.6018    1.2356 H   0  0  0  0  0  0  0  0  0  0  0  0
   -0.7777   -1.2340    1.6969 H   0  0  0  0  0  0  0  0  0  0  0  0
    0.2105   -2.2670    0.5852 H   0  0  0  0  0  0  0  0  0  0  0  0
   -1.3462   -1.6780   -1.1657 H   0  0  0  0  0  0  0  0  0  0  0  0
   -3.0289   -0.6700    0.7785 H   0  0  0  0  0  0  0  0  0  0  0  0
   -3.1123   -0.1529   -0.9220 H   0  0  0  0  0  0  0  0  0  0  0  0
   -2.7417    1.9718    0.1144 H   0  0  0  0  0  0  0  0  0  0  0  0
   -1.7395    1.1920    1.3901 H   0  0  0  0  0  0  0  0  0  0  0  0
    0.1808    0.0973   -1.7581 H   0  0  0  0  0  0  0  0  0  0  0  0
  1  2  1  0
  2  3  1  0
  3  4  1  0
  4  5  1  0
  5  6  1  0
  6  7  1  0
  7  8  1  0
  8  9  1  0
  9  3  1  0
  9  5  1  0
  1 10  1  0
  1 11  1  0
  1 12  1  0
  2 13  1  0
  2 14  1  0
  3 15  1  0
  4 16  1  0
  4 17  1  0
  5 18  1  0
  6 19  1  0
  6 20  1  0
  7 21  1  0
  7 22  1  0
  9 23  1  0
M  END
