
     RDKit          3D

 21 21  0  0  0  0  0  0  0  0999 V2000
   -3.0885    0.6090    0.2797 C   0  0  0  0  0  0  0  0  0  0  0  0
   -2.2581   -0.6153    0.1105 C   0  0  0  0  0  0  0  0  0  0  0  0
   -0.8469   -0.4589    0.6186 C   0  0  0  0  0  0  0  0  0  0  0  0
    0.0042   -1.7111    0.4461 C   0  0  0  0  0  0  0  0  0  0  0  0
    0.2727   -0.4187   -0.3508 C   0  0  0  0  0  0  0  0  0  0  0  0
    1.5499    0.2099    0.0146 C   0  0  0  0  0  0  0  0  0  0  0  0
    1.9547    0.3301    1.1937 O   0  0  0  0  0  0  0  0  0  0  0  0
    2.3686    0.7048   -0.9881 O   0  0  0  0  0  0  0  0  0  0  0  0
    3.6025    1.3228   -0.7785 C   0  0  0  0  0  0  0  0  0  0  0  0
   -2.5196    1.3664    0.8576 H   0  0  0  0  0  0  0  0  0  0  0  0
   -3.4050    1.0840   -0.6665 H   0  0  0  0  0  0  0  0  0  0  0  0
   -4.0177    0.3890    0.8439 H   0  0  0  0  0  0  0  0  0  0  0  0
   -2.2597   -0.8974   -0.9826 H   0  0  0  0  0  0  0  0  0  0  0  0
   -2.7545   -1.4661    0.6225 H   0  0  0  0  0  0  0  0  0  0  0  0
   -0.7352    0.1347    1.5394 H   0  0  0  0  0  0  0  0  0  0  0  0
    0.6492   -1.9468    1.3026 H   0  0  0  0  0  0  0  0  0  0  0  0
   -0.4006   -2.5640   -0.1199 H   0  0  0  0  0  0  0  0  0  0  0  0
    0.0468   -0.4543   -1.4298 H   0  0  0  0  0  0  0  0  0  0  0  0
    3.7060    1.6699    0.2775 H   0  0  0  0  0  0  0  0  0  0  0  0
    4.3930    0.5476   -0.9734 H   0  0  0  0  0  0  0  0  0  0  0  0
    3.7384    2.1643   -1.4734 H   0  0  0  0  0  0  0  0  0  0  0  0
  1  2  1  0
  2  3  1  0
  3  4  1  0
  4  5  1  0
  5  6  1  0
  6  7  2  0
  6  8  1  0
  8  9  1  0
  5  3  1  0
  1 10  1  0
  1 11  1  0
  1 12  1  0
  2 13  1  0
  2 14  1  0
  3 15  1  0
  4 16  1  0
  4 17  1  0
  5 18  1  0
  9 19  1  0
  9 20  1  0
  9 21  1  0
M  END
