
     RDKit          3D

 17 18  0  0  0  0  0  0  0  0999 V2000
    1.9309   -0.2236    0.0426 C   0  0  0  0  0  0  0  0  0  0  0  0
    0.6255   -0.8679   -0.3283 C   0  0  0  0  0  0  0  0  0  0  0  0
   -0.5049   -0.3202    0.5354 C   0  0  0  0  0  0  0  0  0  0  0  0
   -1.7665   -0.8891    0.2420 C   0  0  0  0  0  0  0  0  0  0  0  0
   -1.6676    0.4170   -0.2665 C   0  0  0  0  0  0  0  0  0  0  0  0
   -0.7258    1.1306   -1.0094 O   0  0  0  0  0  0  0  0  0  0  0  0
    0.0919    1.7153   -0.0107 C   0  0  0  0  0  0  0  0  0  0  0  0
    0.8213    2.7492   -0.1013 O   0  0  0  0  0  0  0  0  0  0  0  0
   -0.0987    0.8716    1.1121 O   0  0  0  0  0  0  0  0  0  0  0  0
    2.2446    0.4897   -0.7501 H   0  0  0  0  0  0  0  0  0  0  0  0
    2.6930   -1.0039    0.1135 H   0  0  0  0  0  0  0  0  0  0  0  0
    1.8127    0.2893    1.0339 H   0  0  0  0  0  0  0  0  0  0  0  0
    0.4038   -0.7100   -1.4118 H   0  0  0  0  0  0  0  0  0  0  0  0
    0.6909   -1.9753   -0.1495 H   0  0  0  0  0  0  0  0  0  0  0  0
   -1.8594   -1.7231   -0.4962 H   0  0  0  0  0  0  0  0  0  0  0  0
   -2.4284   -1.1236    1.1105 H   0  0  0  0  0  0  0  0  0  0  0  0
   -2.2634    1.1741    0.3339 H   0  0  0  0  0  0  0  0  0  0  0  0
  1  2  1  0
  2  3  1  0
  3  4  1  0
  4  5  1  0
  5  6  1  0
  6  7  1  0
  7  8  2  0
  7  9  1  0
  5  3  1  0
  9  3  1  0
  1 10  1  0
  1 11  1  0
  1 12  1  0
  2 13  1  0
  2 14  1  0
  4 15  1  0
  4 16  1  0
  5 17  1  0
M  END
