
     RDKit          3D

 21 22  0  0  0  0  0  0  0  0999 V2000
    2.9174    0.0445    0.2588 C   0  0  0  0  0  0  0  0  0  0  0  0
    1.5917    0.2911    0.9008 C   0  0  0  0  0  0  0  0  0  0  0  0
    0.4407   -0.3623    0.1488 C   0  0  0  0  0  0  0  0  0  0  0  0
    0.3396    0.1394   -1.2285 C   0  0  0  0  0  0  0  0  0  0  0  0
   -0.9012    0.5361   -1.4832 C   0  0  0  0  0  0  0  0  0  0  0  0
   -1.7941    0.3628   -0.3403 C   0  0  0  0  0  0  0  0  0  0  0  0
   -3.1119   -0.0570   -0.2960 C   0  0  0  0  0  0  0  0  0  0  0  0
   -2.7843    1.3766   -0.0916 O   0  0  0  0  0  0  0  0  0  0  0  0
   -0.8332    0.1241    0.8006 C   0  0  0  0  0  0  0  0  0  0  0  0
    3.1471    0.9045   -0.4169 H   0  0  0  0  0  0  0  0  0  0  0  0
    3.6920    0.0560    1.0774 H   0  0  0  0  0  0  0  0  0  0  0  0
    3.0132   -0.9328   -0.2377 H   0  0  0  0  0  0  0  0  0  0  0  0
    1.3854    1.3769    0.9138 H   0  0  0  0  0  0  0  0  0  0  0  0
    1.5809   -0.1206    1.9243 H   0  0  0  0  0  0  0  0  0  0  0  0
    0.5285   -1.4858    0.1967 H   0  0  0  0  0  0  0  0  0  0  0  0
    1.2023    0.1626   -1.9156 H   0  0  0  0  0  0  0  0  0  0  0  0
   -1.1911    0.9422   -2.4487 H   0  0  0  0  0  0  0  0  0  0  0  0
   -3.7784   -0.1126   -1.1874 H   0  0  0  0  0  0  0  0  0  0  0  0
   -3.5690   -0.4977    0.6003 H   0  0  0  0  0  0  0  0  0  0  0  0
   -1.2108   -0.6585    1.5032 H   0  0  0  0  0  0  0  0  0  0  0  0
   -0.6648    1.0776    1.3213 H   0  0  0  0  0  0  0  0  0  0  0  0
  1  2  1  0
  2  3  1  0
  3  4  1  0
  4  5  2  0
  5  6  1  0
  6  7  1  0
  7  8  1  0
  6  9  1  0
  9  3  1  0
  8  6  1  0
  1 10  1  0
  1 11  1  0
  1 12  1  0
  2 13  1  0
  2 14  1  0
  3 15  1  0
  4 16  1  0
  5 17  1  0
  7 18  1  0
  7 19  1  0
  9 20  1  0
  9 21  1  0
M  END
