
     RDKit          3D

 21 22  0  0  0  0  0  0  0  0999 V2000
    2.4871   -0.5213    0.4748 C   0  0  0  0  0  0  0  0  0  0  0  0
    1.4528   -0.3500   -0.5865 C   0  0  0  0  0  0  0  0  0  0  0  0
    0.0726   -0.3262   -0.1520 C   0  0  0  0  0  0  0  0  0  0  0  0
   -0.3478    0.7712    0.8373 C   0  0  0  0  0  0  0  0  0  0  0  0
   -1.7191    0.4778    0.2078 C   0  0  0  0  0  0  0  0  0  0  0  0
   -1.8842   -0.9592    0.5918 C   0  0  0  0  0  0  0  0  0  0  0  0
   -0.5845   -1.4394    0.2780 O   0  0  0  0  0  0  0  0  0  0  0  0
   -0.9490    0.3360   -1.0927 C   0  0  0  0  0  0  0  0  0  0  0  0
   -0.4353    1.5090   -1.5987 O   0  0  0  0  0  0  0  0  0  0  0  0
    3.4693   -0.1510    0.0760 H   0  0  0  0  0  0  0  0  0  0  0  0
    2.6519   -1.6046    0.6946 H   0  0  0  0  0  0  0  0  0  0  0  0
    2.2593    0.0550    1.4061 H   0  0  0  0  0  0  0  0  0  0  0  0
    1.6767    0.6035   -1.1500 H   0  0  0  0  0  0  0  0  0  0  0  0
    1.5949   -1.1544   -1.3330 H   0  0  0  0  0  0  0  0  0  0  0  0
    0.0339    1.7642    0.6010 H   0  0  0  0  0  0  0  0  0  0  0  0
   -0.3162    0.4592    1.8937 H   0  0  0  0  0  0  0  0  0  0  0  0
   -2.4837    1.1854    0.3026 H   0  0  0  0  0  0  0  0  0  0  0  0
   -2.1308   -1.1261    1.6487 H   0  0  0  0  0  0  0  0  0  0  0  0
   -2.5961   -1.4246   -0.1189 H   0  0  0  0  0  0  0  0  0  0  0  0
   -1.3586   -0.3658   -1.8186 H   0  0  0  0  0  0  0  0  0  0  0  0
   -0.8931    2.2613   -1.1620 H   0  0  0  0  0  0  0  0  0  0  0  0
  1  2  1  0
  2  3  1  0
  3  4  1  0
  4  5  1  0
  5  6  1  0
  6  7  1  0
  5  8  1  0
  8  9  1  0
  7  3  1  0
  8  3  1  0
  1 10  1  0
  1 11  1  0
  1 12  1  0
  2 13  1  0
  2 14  1  0
  4 15  1  0
  4 16  1  0
  5 17  1  0
  6 18  1  0
  6 19  1  0
  8 20  1  0
  9 21  1  0
M  END
