
     RDKit          3D

 19 19  0  0  0  0  0  0  0  0999 V2000
    2.4621   -0.5589   -0.4021 C   0  0  0  0  0  0  0  0  0  0  0  0
    1.3456    0.4333   -0.6090 C   0  0  0  0  0  0  0  0  0  0  0  0
    0.2240    0.1926    0.3720 C   0  0  0  0  0  0  0  0  0  0  0  0
   -0.4074   -1.1427    0.2936 C   0  0  0  0  0  0  0  0  0  0  0  0
   -0.0358   -2.2681    0.0854 O   0  0  0  0  0  0  0  0  0  0  0  0
   -1.7006   -0.4856    0.5845 C   0  0  0  0  0  0  0  0  0  0  0  0
   -2.8088   -1.0226   -0.0193 O   0  0  0  0  0  0  0  0  0  0  0  0
   -1.1233    0.7554   -0.0963 C   0  0  0  0  0  0  0  0  0  0  0  0
   -1.4807    1.9520    0.4606 O   0  0  0  0  0  0  0  0  0  0  0  0
    3.4179   -0.1503   -0.8189 H   0  0  0  0  0  0  0  0  0  0  0  0
    2.2862   -1.5108   -0.9562 H   0  0  0  0  0  0  0  0  0  0  0  0
    2.5684   -0.8541    0.6675 H   0  0  0  0  0  0  0  0  0  0  0  0
    1.7579    1.4391   -0.4340 H   0  0  0  0  0  0  0  0  0  0  0  0
    0.9126    0.3141   -1.6228 H   0  0  0  0  0  0  0  0  0  0  0  0
    0.4909    0.4973    1.3967 H   0  0  0  0  0  0  0  0  0  0  0  0
   -1.8424   -0.2924    1.6693 H   0  0  0  0  0  0  0  0  0  0  0  0
   -3.6099   -0.6693    0.4824 H   0  0  0  0  0  0  0  0  0  0  0  0
   -1.1503    0.7075   -1.2021 H   0  0  0  0  0  0  0  0  0  0  0  0
   -1.3065    2.6638   -0.2146 H   0  0  0  0  0  0  0  0  0  0  0  0
  1  2  1  0
  2  3  1  0
  3  4  1  0
  4  5  2  0
  4  6  1  0
  6  7  1  0
  6  8  1  0
  8  9  1  0
  8  3  1  0
  1 10  1  0
  1 11  1  0
  1 12  1  0
  2 13  1  0
  2 14  1  0
  3 15  1  0
  6 16  1  0
  7 17  1  0
  8 18  1  0
  9 19  1  0
M  END
