
     RDKit          3D

 21 22  0  0  0  0  0  0  0  0999 V2000
    2.4158   -0.4613   -0.4581 C   0  0  0  0  0  0  0  0  0  0  0  0
    1.3694   -0.7473    0.6224 C   0  0  0  0  0  0  0  0  0  0  0  0
    0.3856    0.3879    0.5915 C   0  0  0  0  0  0  0  0  0  0  0  0
   -0.3357    0.5665   -0.7318 C   0  0  0  0  0  0  0  0  0  0  0  0
   -0.8942   -0.7719   -0.9537 C   0  0  0  0  0  0  0  0  0  0  0  0
   -1.3669   -1.1085    0.2723 C   0  0  0  0  0  0  0  0  0  0  0  0
   -1.0015    0.0768    1.0858 C   0  0  0  0  0  0  0  0  0  0  0  0
   -1.4392    1.2005    0.1324 C   0  0  0  0  0  0  0  0  0  0  0  0
   -2.7029    1.0369   -0.3795 O   0  0  0  0  0  0  0  0  0  0  0  0
    2.2667   -1.0964   -1.3448 H   0  0  0  0  0  0  0  0  0  0  0  0
    3.4480   -0.5803   -0.0615 H   0  0  0  0  0  0  0  0  0  0  0  0
    2.3485    0.5990   -0.8083 H   0  0  0  0  0  0  0  0  0  0  0  0
    1.9108   -0.7335    1.5808 H   0  0  0  0  0  0  0  0  0  0  0  0
    0.9239   -1.7276    0.4687 H   0  0  0  0  0  0  0  0  0  0  0  0
    0.7862    1.3313    0.9572 H   0  0  0  0  0  0  0  0  0  0  0  0
    0.0934    1.1401   -1.4956 H   0  0  0  0  0  0  0  0  0  0  0  0
   -0.9291   -1.3591   -1.8610 H   0  0  0  0  0  0  0  0  0  0  0  0
   -1.8795   -2.0070    0.5860 H   0  0  0  0  0  0  0  0  0  0  0  0
   -1.2537    0.1492    2.0996 H   0  0  0  0  0  0  0  0  0  0  0  0
   -1.1550    2.2069    0.4583 H   0  0  0  0  0  0  0  0  0  0  0  0
   -2.9905    1.8977   -0.7608 H   0  0  0  0  0  0  0  0  0  0  0  0
  1  2  1  0
  2  3  1  0
  3  4  1  0
  4  5  1  0
  5  6  2  0
  6  7  1  0
  7  8  1  0
  8  9  1  0
  7  3  1  0
  8  4  1  0
  1 10  1  0
  1 11  1  0
  1 12  1  0
  2 13  1  0
  2 14  1  0
  3 15  1  0
  4 16  1  0
  5 17  1  0
  6 18  1  0
  7 19  1  0
  8 20  1  0
  9 21  1  0
M  END
