
     RDKit          3D

 23 23  0  0  0  0  0  0  0  0999 V2000
    2.4021   -0.8933    0.2634 C   0  0  0  0  0  0  0  0  0  0  0  0
    0.9437   -1.0307    0.6467 C   0  0  0  0  0  0  0  0  0  0  0  0
    0.1591    0.2316    0.2977 C   0  0  0  0  0  0  0  0  0  0  0  0
    0.6092    1.3582    0.9204 O   0  0  0  0  0  0  0  0  0  0  0  0
   -0.0284    2.5296    0.6731 C   0  0  0  0  0  0  0  0  0  0  0  0
   -1.2786    0.0904   -0.0042 C   0  0  0  0  0  0  0  0  0  0  0  0
   -1.9208   -1.2958   -0.0358 C   0  0  0  0  0  0  0  0  0  0  0  0
   -0.3100    0.3454   -1.1021 C   0  0  0  0  0  0  0  0  0  0  0  0
    0.0102   -0.7274   -1.9600 O   0  0  0  0  0  0  0  0  0  0  0  0
    2.4447   -0.0932   -0.5128 H   0  0  0  0  0  0  0  0  0  0  0  0
    2.7405   -1.8595   -0.1628 H   0  0  0  0  0  0  0  0  0  0  0  0
    3.0098   -0.5881    1.1534 H   0  0  0  0  0  0  0  0  0  0  0  0
    0.8427   -1.2633    1.7215 H   0  0  0  0  0  0  0  0  0  0  0  0
    0.4962   -1.8451    0.0505 H   0  0  0  0  0  0  0  0  0  0  0  0
   -0.0058    2.8242   -0.3926 H   0  0  0  0  0  0  0  0  0  0  0  0
   -1.0887    2.5804    0.9857 H   0  0  0  0  0  0  0  0  0  0  0  0
    0.4802    3.3107    1.3159 H   0  0  0  0  0  0  0  0  0  0  0  0
   -1.9668    0.8537    0.3730 H   0  0  0  0  0  0  0  0  0  0  0  0
   -2.9424   -1.1457   -0.4418 H   0  0  0  0  0  0  0  0  0  0  0  0
   -1.9630   -1.6704    1.0071 H   0  0  0  0  0  0  0  0  0  0  0  0
   -1.3857   -1.9733   -0.7250 H   0  0  0  0  0  0  0  0  0  0  0  0
   -0.4305    1.2862   -1.6306 H   0  0  0  0  0  0  0  0  0  0  0  0
   -0.8176   -1.0246   -2.4408 H   0  0  0  0  0  0  0  0  0  0  0  0
  1  2  1  0
  2  3  1  0
  3  4  1  0
  4  5  1  0
  3  6  1  0
  6  7  1  0
  6  8  1  0
  8  9  1  0
  8  3  1  0
  1 10  1  0
  1 11  1  0
  1 12  1  0
  2 13  1  0
  2 14  1  0
  5 15  1  0
  5 16  1  0
  5 17  1  0
  6 18  1  0
  7 19  1  0
  7 20  1  0
  7 21  1  0
  8 22  1  0
  9 23  1  0
M  END
