
     RDKit          3D

 25 25  0  0  0  0  0  0  0  0999 V2000
   -2.7723   -0.3449   -0.4354 C   0  0  0  0  0  0  0  0  0  0  0  0
   -1.5000    0.3513   -0.8121 C   0  0  0  0  0  0  0  0  0  0  0  0
   -0.3622   -0.0050    0.1579 C   0  0  0  0  0  0  0  0  0  0  0  0
   -0.6625    0.3772    1.5596 C   0  0  0  0  0  0  0  0  0  0  0  0
    0.4766   -1.1730   -0.1253 C   0  0  0  0  0  0  0  0  0  0  0  0
    1.0318    0.1709   -0.4420 C   0  0  0  0  0  0  0  0  0  0  0  0
    1.0994    0.4888   -1.9287 C   0  0  0  0  0  0  0  0  0  0  0  0
    2.0092    0.7273    0.2979 O   0  0  0  0  0  0  0  0  0  0  0  0
    2.4705    0.1116    1.4120 C   0  0  0  0  0  0  0  0  0  0  0  0
   -3.3037    0.1026    0.4134 H   0  0  0  0  0  0  0  0  0  0  0  0
   -3.4590   -0.2729   -1.3121 H   0  0  0  0  0  0  0  0  0  0  0  0
   -2.6130   -1.4325   -0.1835 H   0  0  0  0  0  0  0  0  0  0  0  0
   -1.6530    1.4444   -0.6954 H   0  0  0  0  0  0  0  0  0  0  0  0
   -1.2428    0.1254   -1.8483 H   0  0  0  0  0  0  0  0  0  0  0  0
   -1.7601    0.5695    1.6631 H   0  0  0  0  0  0  0  0  0  0  0  0
   -0.0768    1.2538    1.9238 H   0  0  0  0  0  0  0  0  0  0  0  0
   -0.4816   -0.4804    2.2464 H   0  0  0  0  0  0  0  0  0  0  0  0
    0.2952   -1.8571   -0.9493 H   0  0  0  0  0  0  0  0  0  0  0  0
    0.9760   -1.6726    0.7505 H   0  0  0  0  0  0  0  0  0  0  0  0
    0.6281   -0.3062   -2.5365 H   0  0  0  0  0  0  0  0  0  0  0  0
    2.1622    0.5274   -2.2384 H   0  0  0  0  0  0  0  0  0  0  0  0
    0.5980    1.4296   -2.1724 H   0  0  0  0  0  0  0  0  0  0  0  0
    3.2835    0.7888    1.8326 H   0  0  0  0  0  0  0  0  0  0  0  0
    1.8116   -0.0827    2.2402 H   0  0  0  0  0  0  0  0  0  0  0  0
    3.0445   -0.8413    1.1818 H   0  0  0  0  0  0  0  0  0  0  0  0
  1  2  1  0
  2  3  1  0
  3  4  1  0
  3  5  1  0
  5  6  1  0
  6  7  1  0
  6  8  1  0
  8  9  1  0
  6  3  1  0
  1 10  1  0
  1 11  1  0
  1 12  1  0
  2 13  1  0
  2 14  1  0
  4 15  1  0
  4 16  1  0
  4 17  1  0
  5 18  1  0
  5 19  1  0
  7 20  1  0
  7 21  1  0
  7 22  1  0
  9 23  1  0
  9 24  1  0
  9 25  1  0
M  END
