
     RDKit          3D

 23 24  0  0  0  0  0  0  0  0999 V2000
    2.3352    0.5794   -0.1662 C   0  0  0  0  0  0  0  0  0  0  0  0
    1.4199   -0.5231   -0.5218 C   0  0  0  0  0  0  0  0  0  0  0  0
    0.0841   -0.5329    0.0883 C   0  0  0  0  0  0  0  0  0  0  0  0
   -0.7322   -1.7218   -0.3741 C   0  0  0  0  0  0  0  0  0  0  0  0
   -0.0653   -0.1896    1.5261 C   0  0  0  0  0  0  0  0  0  0  0  0
   -1.5244    0.0677    1.2670 C   0  0  0  0  0  0  0  0  0  0  0  0
   -0.7244    0.6960    0.1483 C   0  0  0  0  0  0  0  0  0  0  0  0
   -1.2255    1.4709   -0.8694 C   0  0  0  0  0  0  0  0  0  0  0  0
    0.1220    1.1393    1.1801 O   0  0  0  0  0  0  0  0  0  0  0  0
    3.3738    0.2813   -0.5028 H   0  0  0  0  0  0  0  0  0  0  0  0
    2.1415    1.5315   -0.7429 H   0  0  0  0  0  0  0  0  0  0  0  0
    2.4196    0.8289    0.8854 H   0  0  0  0  0  0  0  0  0  0  0  0
    1.2963   -0.5163   -1.6443 H   0  0  0  0  0  0  0  0  0  0  0  0
    1.9266   -1.4913   -0.3060 H   0  0  0  0  0  0  0  0  0  0  0  0
   -0.1703   -2.3293   -1.1375 H   0  0  0  0  0  0  0  0  0  0  0  0
   -1.6620   -1.3935   -0.8948 H   0  0  0  0  0  0  0  0  0  0  0  0
   -0.9761   -2.4149    0.4552 H   0  0  0  0  0  0  0  0  0  0  0  0
    0.3222   -0.6663    2.3272 H   0  0  0  0  0  0  0  0  0  0  0  0
   -2.0262    0.7629    1.9503 H   0  0  0  0  0  0  0  0  0  0  0  0
   -2.1375   -0.7956    1.0042 H   0  0  0  0  0  0  0  0  0  0  0  0
   -0.8586    1.1965   -1.9021 H   0  0  0  0  0  0  0  0  0  0  0  0
   -2.3502    1.4476   -0.9771 H   0  0  0  0  0  0  0  0  0  0  0  0
   -0.9882    2.5728   -0.7930 H   0  0  0  0  0  0  0  0  0  0  0  0
  1  2  1  0
  2  3  1  0
  3  4  1  0
  3  5  1  0
  5  6  1  0
  6  7  1  0
  7  8  1  0
  7  9  1  0
  7  3  1  0
  9  5  1  0
  1 10  1  0
  1 11  1  0
  1 12  1  0
  2 13  1  0
  2 14  1  0
  4 15  1  0
  4 16  1  0
  4 17  1  0
  5 18  1  0
  6 19  1  0
  6 20  1  0
  8 21  1  0
  8 22  1  0
  8 23  1  0
M  END
