
     RDKit          3D

 19 20  0  0  0  0  0  0  0  0999 V2000
   -2.3975    0.6532    0.0266 C   0  0  0  0  0  0  0  0  0  0  0  0
   -1.1820    0.0973   -0.6735 C   0  0  0  0  0  0  0  0  0  0  0  0
   -0.2593   -0.6018    0.2818 C   0  0  0  0  0  0  0  0  0  0  0  0
    0.3479    0.0969    1.4109 C   0  0  0  0  0  0  0  0  0  0  0  0
    1.1929   -0.3657    0.2985 C   0  0  0  0  0  0  0  0  0  0  0  0
    1.8708    0.5846   -0.6413 C   0  0  0  0  0  0  0  0  0  0  0  0
    1.4208   -1.7865    0.0616 C   0  0  0  0  0  0  0  0  0  0  0  0
    2.3995   -2.5425   -0.0835 O   0  0  0  0  0  0  0  0  0  0  0  0
    0.0513   -1.9786    0.0607 O   0  0  0  0  0  0  0  0  0  0  0  0
   -2.4488    0.3391    1.0964 H   0  0  0  0  0  0  0  0  0  0  0  0
   -2.3508    1.7655    0.0269 H   0  0  0  0  0  0  0  0  0  0  0  0
   -3.3421    0.3670   -0.4493 H   0  0  0  0  0  0  0  0  0  0  0  0
   -1.5515   -0.6831   -1.4012 H   0  0  0  0  0  0  0  0  0  0  0  0
   -0.6627    0.8522   -1.3015 H   0  0  0  0  0  0  0  0  0  0  0  0
    0.5499   -0.4072    2.3920 H   0  0  0  0  0  0  0  0  0  0  0  0
    0.1887    1.1699    1.5072 H   0  0  0  0  0  0  0  0  0  0  0  0
    2.0108    0.0588   -1.6057 H   0  0  0  0  0  0  0  0  0  0  0  0
    2.8602    0.8589   -0.2066 H   0  0  0  0  0  0  0  0  0  0  0  0
    1.3017    1.5219   -0.8001 H   0  0  0  0  0  0  0  0  0  0  0  0
  1  2  1  0
  2  3  1  0
  3  4  1  0
  4  5  1  0
  5  6  1  0
  5  7  1  0
  7  8  2  0
  7  9  1  0
  5  3  1  0
  9  3  1  0
  1 10  1  0
  1 11  1  0
  1 12  1  0
  2 13  1  0
  2 14  1  0
  4 15  1  0
  4 16  1  0
  6 17  1  0
  6 18  1  0
  6 19  1  0
M  END
