
     RDKit          3D

 21 21  0  0  0  0  0  0  0  0999 V2000
   -2.1403    0.7435    0.4739 C   0  0  0  0  0  0  0  0  0  0  0  0
   -1.4442   -0.4248   -0.1176 C   0  0  0  0  0  0  0  0  0  0  0  0
   -0.1334   -0.1223   -0.7641 C   0  0  0  0  0  0  0  0  0  0  0  0
    0.4639   -1.4190   -1.3290 C   0  0  0  0  0  0  0  0  0  0  0  0
    1.6627   -0.9970   -0.7092 O   0  0  0  0  0  0  0  0  0  0  0  0
    1.0800   -0.0380    0.1195 C   0  0  0  0  0  0  0  0  0  0  0  0
    1.8200    1.2748    0.0165 C   0  0  0  0  0  0  0  0  0  0  0  0
    0.9435   -0.5216    1.5014 C   0  0  0  0  0  0  0  0  0  0  0  0
    0.4691    0.1264    2.4176 O   0  0  0  0  0  0  0  0  0  0  0  0
   -2.0406    0.8469    1.5732 H   0  0  0  0  0  0  0  0  0  0  0  0
   -3.2294    0.6781    0.2768 H   0  0  0  0  0  0  0  0  0  0  0  0
   -1.7879    1.6694   -0.0131 H   0  0  0  0  0  0  0  0  0  0  0  0
   -2.1085   -0.8395   -0.9259 H   0  0  0  0  0  0  0  0  0  0  0  0
   -1.3321   -1.2774    0.6027 H   0  0  0  0  0  0  0  0  0  0  0  0
   -0.2384    0.6850   -1.5132 H   0  0  0  0  0  0  0  0  0  0  0  0
    0.0881   -2.3363   -0.8555 H   0  0  0  0  0  0  0  0  0  0  0  0
    0.5516   -1.4285   -2.4325 H   0  0  0  0  0  0  0  0  0  0  0  0
    1.2421    2.0363   -0.5434 H   0  0  0  0  0  0  0  0  0  0  0  0
    2.7818    1.1584   -0.5359 H   0  0  0  0  0  0  0  0  0  0  0  0
    2.0743    1.7041    0.9990 H   0  0  0  0  0  0  0  0  0  0  0  0
    1.2776   -1.5185    1.7585 H   0  0  0  0  0  0  0  0  0  0  0  0
  1  2  1  0
  2  3  1  0
  3  4  1  0
  4  5  1  0
  5  6  1  0
  6  7  1  0
  6  8  1  0
  8  9  2  0
  6  3  1  0
  1 10  1  0
  1 11  1  0
  1 12  1  0
  2 13  1  0
  2 14  1  0
  3 15  1  0
  4 16  1  0
  4 17  1  0
  7 18  1  0
  7 19  1  0
  7 20  1  0
  8 21  1  0
M  END
