
     RDKit          3D

 21 22  0  0  0  0  0  0  0  0999 V2000
    2.5708    0.4046    0.0755 C   0  0  0  0  0  0  0  0  0  0  0  0
    1.5510   -0.5301   -0.5511 C   0  0  0  0  0  0  0  0  0  0  0  0
    0.2789    0.2259   -0.7144 C   0  0  0  0  0  0  0  0  0  0  0  0
   -0.2942    0.7434    0.5686 C   0  0  0  0  0  0  0  0  0  0  0  0
   -1.3917    1.7026    0.4314 C   0  0  0  0  0  0  0  0  0  0  0  0
   -1.5477    2.8711    0.7038 O   0  0  0  0  0  0  0  0  0  0  0  0
   -2.2024    0.6073   -0.1801 C   0  0  0  0  0  0  0  0  0  0  0  0
   -1.0130   -0.2920   -0.2096 C   0  0  0  0  0  0  0  0  0  0  0  0
   -1.1147   -1.7057    0.2306 C   0  0  0  0  0  0  0  0  0  0  0  0
    2.2005    1.4591    0.1019 H   0  0  0  0  0  0  0  0  0  0  0  0
    2.7227    0.1165    1.1457 H   0  0  0  0  0  0  0  0  0  0  0  0
    3.5232    0.4049   -0.4705 H   0  0  0  0  0  0  0  0  0  0  0  0
    1.9761   -0.8544   -1.5289 H   0  0  0  0  0  0  0  0  0  0  0  0
    1.4576   -1.4285    0.0965 H   0  0  0  0  0  0  0  0  0  0  0  0
    0.2761    0.9223   -1.5919 H   0  0  0  0  0  0  0  0  0  0  0  0
    0.1627    0.5064    1.5386 H   0  0  0  0  0  0  0  0  0  0  0  0
   -2.6797    0.8422   -1.1303 H   0  0  0  0  0  0  0  0  0  0  0  0
   -2.9545    0.2725    0.5921 H   0  0  0  0  0  0  0  0  0  0  0  0
   -0.8452   -1.8939    1.2771 H   0  0  0  0  0  0  0  0  0  0  0  0
   -2.1646   -2.0453    0.0952 H   0  0  0  0  0  0  0  0  0  0  0  0
   -0.5119   -2.3289   -0.4802 H   0  0  0  0  0  0  0  0  0  0  0  0
  1  2  1  0
  2  3  1  0
  3  4  1  0
  4  5  1  0
  5  6  2  0
  5  7  1  0
  7  8  1  0
  8  9  1  0
  8  3  1  0
  8  4  1  0
  1 10  1  0
  1 11  1  0
  1 12  1  0
  2 13  1  0
  2 14  1  0
  3 15  1  0
  4 16  1  0
  7 17  1  0
  7 18  1  0
  9 19  1  0
  9 20  1  0
  9 21  1  0
M  END
