
     RDKit          3D

 22 22  0  0  0  0  0  0  0  0999 V2000
   -1.5755   -0.9063    1.1116 C   0  0  0  0  0  0  0  0  0  0  0  0
   -0.7783   -0.9015   -0.1364 C   0  0  0  0  0  0  0  0  0  0  0  0
    0.1721    0.2158   -0.3493 C   0  0  0  0  0  0  0  0  0  0  0  0
   -0.3134    1.4680   -0.4137 O   0  0  0  0  0  0  0  0  0  0  0  0
   -0.9982    2.0113    0.6191 C   0  0  0  0  0  0  0  0  0  0  0  0
    1.5100    0.0407    0.3584 C   0  0  0  0  0  0  0  0  0  0  0  0
    1.9100   -0.8684   -0.7841 C   0  0  0  0  0  0  0  0  0  0  0  0
    0.9648   -0.0577   -1.6444 C   0  0  0  0  0  0  0  0  0  0  0  0
   -2.6696   -0.7229    0.9872 H   0  0  0  0  0  0  0  0  0  0  0  0
   -1.5532   -1.9703    1.5175 H   0  0  0  0  0  0  0  0  0  0  0  0
   -1.1634   -0.2809    1.9443 H   0  0  0  0  0  0  0  0  0  0  0  0
   -0.3254   -1.9072   -0.2900 H   0  0  0  0  0  0  0  0  0  0  0  0
   -1.5300   -0.8316   -0.9884 H   0  0  0  0  0  0  0  0  0  0  0  0
   -1.2346    3.0813    0.2849 H   0  0  0  0  0  0  0  0  0  0  0  0
   -2.0009    1.5017    0.6657 H   0  0  0  0  0  0  0  0  0  0  0  0
   -0.4917    2.0973    1.5753 H   0  0  0  0  0  0  0  0  0  0  0  0
    2.1142    0.9541    0.3447 H   0  0  0  0  0  0  0  0  0  0  0  0
    1.4633   -0.4514    1.3307 H   0  0  0  0  0  0  0  0  0  0  0  0
    1.6651   -1.9371   -0.6633 H   0  0  0  0  0  0  0  0  0  0  0  0
    2.9796   -0.7649   -1.0892 H   0  0  0  0  0  0  0  0  0  0  0  0
    0.4000   -0.6300   -2.3920 H   0  0  0  0  0  0  0  0  0  0  0  0
    1.4550    0.8599   -1.9886 H   0  0  0  0  0  0  0  0  0  0  0  0
  1  2  1  0
  2  3  1  0
  3  4  1  0
  4  5  1  0
  3  6  1  0
  6  7  1  0
  7  8  1  0
  8  3  1  0
  1  9  1  0
  1 10  1  0
  1 11  1  0
  2 12  1  0
  2 13  1  0
  5 14  1  0
  5 15  1  0
  5 16  1  0
  6 17  1  0
  6 18  1  0
  7 19  1  0
  7 20  1  0
  8 21  1  0
  8 22  1  0
M  END
