
     RDKit          3D

 21 21  0  0  0  0  0  0  0  0999 V2000
    2.4130    0.1417   -0.6218 C   0  0  0  0  0  0  0  0  0  0  0  0
    1.2691   -0.8004   -0.3039 C   0  0  0  0  0  0  0  0  0  0  0  0
    0.3174   -0.0724    0.5870 C   0  0  0  0  0  0  0  0  0  0  0  0
    0.9324    0.3227    1.7645 O   0  0  0  0  0  0  0  0  0  0  0  0
   -0.2353    1.1715   -0.0533 C   0  0  0  0  0  0  0  0  0  0  0  0
   -1.4151    0.9456   -0.6024 C   0  0  0  0  0  0  0  0  0  0  0  0
   -1.7650   -0.4735   -0.3832 C   0  0  0  0  0  0  0  0  0  0  0  0
   -3.1249   -0.6529   -0.1416 O   0  0  0  0  0  0  0  0  0  0  0  0
   -0.9689   -0.8471    0.8423 C   0  0  0  0  0  0  0  0  0  0  0  0
    2.8311    0.4858    0.3630 H   0  0  0  0  0  0  0  0  0  0  0  0
    3.1775   -0.3286   -1.2618 H   0  0  0  0  0  0  0  0  0  0  0  0
    1.9675    1.0059   -1.1589 H   0  0  0  0  0  0  0  0  0  0  0  0
    1.6736   -1.6526    0.2378 H   0  0  0  0  0  0  0  0  0  0  0  0
    0.8187   -1.1017   -1.2510 H   0  0  0  0  0  0  0  0  0  0  0  0
    1.1554    1.2858    1.7721 H   0  0  0  0  0  0  0  0  0  0  0  0
    0.2916    2.1149   -0.0473 H   0  0  0  0  0  0  0  0  0  0  0  0
   -2.0358    1.6989   -1.1377 H   0  0  0  0  0  0  0  0  0  0  0  0
   -1.4828   -1.1026   -1.2642 H   0  0  0  0  0  0  0  0  0  0  0  0
   -3.5371    0.2344    0.0150 H   0  0  0  0  0  0  0  0  0  0  0  0
   -1.4895   -0.4452    1.7168 H   0  0  0  0  0  0  0  0  0  0  0  0
   -0.7931   -1.9303    0.9285 H   0  0  0  0  0  0  0  0  0  0  0  0
  1  2  1  0
  2  3  1  0
  3  4  1  0
  3  5  1  0
  5  6  2  0
  6  7  1  0
  7  8  1  0
  7  9  1  0
  9  3  1  0
  1 10  1  0
  1 11  1  0
  1 12  1  0
  2 13  1  0
  2 14  1  0
  4 15  1  0
  5 16  1  0
  6 17  1  0
  7 18  1  0
  8 19  1  0
  9 20  1  0
  9 21  1  0
M  END
