
     RDKit          3D

 21 22  0  0  0  0  0  0  0  0999 V2000
    2.5767    0.7369    0.2130 C   0  0  0  0  0  0  0  0  0  0  0  0
    1.0871    0.4455    0.4723 C   0  0  0  0  0  0  0  0  0  0  0  0
    0.7281   -0.7455   -0.3301 C   0  0  0  0  0  0  0  0  0  0  0  0
    0.9441   -0.4688   -1.7024 O   0  0  0  0  0  0  0  0  0  0  0  0
   -0.4174   -0.0797   -1.7386 C   0  0  0  0  0  0  0  0  0  0  0  0
   -0.6903   -1.0448   -0.6266 C   0  0  0  0  0  0  0  0  0  0  0  0
   -1.7442   -0.7182    0.3615 C   0  0  0  0  0  0  0  0  0  0  0  0
   -2.1271    0.5457    0.8847 C   0  0  0  0  0  0  0  0  0  0  0  0
   -2.8351    0.0102   -0.3389 O   0  0  0  0  0  0  0  0  0  0  0  0
    3.0829   -0.2565    0.0454 H   0  0  0  0  0  0  0  0  0  0  0  0
    2.6107    1.3353   -0.7085 H   0  0  0  0  0  0  0  0  0  0  0  0
    3.0367    1.2137    1.0846 H   0  0  0  0  0  0  0  0  0  0  0  0
    0.9545    0.3119    1.5576 H   0  0  0  0  0  0  0  0  0  0  0  0
    0.5434    1.3695    0.1898 H   0  0  0  0  0  0  0  0  0  0  0  0
    1.3115   -1.6416   -0.0117 H   0  0  0  0  0  0  0  0  0  0  0  0
   -0.4868    0.9892   -1.5145 H   0  0  0  0  0  0  0  0  0  0  0  0
   -0.9445   -0.3959   -2.6688 H   0  0  0  0  0  0  0  0  0  0  0  0
   -0.7898   -2.0771   -1.0716 H   0  0  0  0  0  0  0  0  0  0  0  0
   -2.1489   -1.6279    0.8811 H   0  0  0  0  0  0  0  0  0  0  0  0
   -2.9430    0.5498    1.6715 H   0  0  0  0  0  0  0  0  0  0  0  0
   -1.7487    1.5483    0.6598 H   0  0  0  0  0  0  0  0  0  0  0  0
  1  2  1  0
  2  3  1  0
  3  4  1  0
  4  5  1  0
  5  6  1  0
  6  7  1  0
  7  8  1  0
  8  9  1  0
  6  3  1  0
  9  7  1  0
  1 10  1  0
  1 11  1  0
  1 12  1  0
  2 13  1  0
  2 14  1  0
  3 15  1  0
  5 16  1  0
  5 17  1  0
  6 18  1  0
  7 19  1  0
  8 20  1  0
  8 21  1  0
M  END
