
     RDKit          3D

 23 23  0  0  0  0  0  0  0  0999 V2000
    3.0578   -0.3238    0.2880 C   0  0  0  0  0  0  0  0  0  0  0  0
    1.8480    0.3744   -0.2777 C   0  0  0  0  0  0  0  0  0  0  0  0
    0.6759    0.1769    0.6429 C   0  0  0  0  0  0  0  0  0  0  0  0
    0.3324   -1.2593    0.8242 C   0  0  0  0  0  0  0  0  0  0  0  0
   -1.0103   -1.3869    0.8928 C   0  0  0  0  0  0  0  0  0  0  0  0
   -1.6478   -0.0513    0.7626 C   0  0  0  0  0  0  0  0  0  0  0  0
   -2.8916   -0.0596   -0.0622 C   0  0  0  0  0  0  0  0  0  0  0  0
   -0.5789    0.6935   -0.0501 C   0  0  0  0  0  0  0  0  0  0  0  0
   -0.7146    2.0573    0.0416 O   0  0  0  0  0  0  0  0  0  0  0  0
    3.9072   -0.1809   -0.4193 H   0  0  0  0  0  0  0  0  0  0  0  0
    2.8629   -1.3716    0.5383 H   0  0  0  0  0  0  0  0  0  0  0  0
    3.3116    0.2081    1.2510 H   0  0  0  0  0  0  0  0  0  0  0  0
    1.6314    0.0819   -1.3215 H   0  0  0  0  0  0  0  0  0  0  0  0
    2.0680    1.4630   -0.2951 H   0  0  0  0  0  0  0  0  0  0  0  0
    0.8631    0.7072    1.5810 H   0  0  0  0  0  0  0  0  0  0  0  0
    0.9774   -2.1287    0.8998 H   0  0  0  0  0  0  0  0  0  0  0  0
   -1.5727   -2.3027    1.0222 H   0  0  0  0  0  0  0  0  0  0  0  0
   -1.7627    0.4748    1.7080 H   0  0  0  0  0  0  0  0  0  0  0  0
   -2.7711   -0.6423   -0.9731 H   0  0  0  0  0  0  0  0  0  0  0  0
   -3.7910   -0.3253    0.5296 H   0  0  0  0  0  0  0  0  0  0  0  0
   -3.0713    1.0067   -0.3909 H   0  0  0  0  0  0  0  0  0  0  0  0
   -0.5581    0.3035   -1.0860 H   0  0  0  0  0  0  0  0  0  0  0  0
   -1.1655    2.4851   -0.7037 H   0  0  0  0  0  0  0  0  0  0  0  0
  1  2  1  0
  2  3  1  0
  3  4  1  0
  4  5  2  0
  5  6  1  0
  6  7  1  0
  6  8  1  0
  8  9  1  0
  8  3  1  0
  1 10  1  0
  1 11  1  0
  1 12  1  0
  2 13  1  0
  2 14  1  0
  3 15  1  0
  4 16  1  0
  5 17  1  0
  6 18  1  0
  7 19  1  0
  7 20  1  0
  7 21  1  0
  8 22  1  0
  9 23  1  0
M  END
