
     RDKit          3D

 22 23  0  0  0  0  0  0  0  0999 V2000
    2.3203    0.6013    0.3820 C   0  0  0  0  0  0  0  0  0  0  0  0
    1.4438   -0.2367   -0.4646 C   0  0  0  0  0  0  0  0  0  0  0  0
   -0.0059   -0.0549   -0.3217 C   0  0  0  0  0  0  0  0  0  0  0  0
   -0.8260   -0.9272   -1.2007 C   0  0  0  0  0  0  0  0  0  0  0  0
   -1.4481   -1.5402    0.0374 C   0  0  0  0  0  0  0  0  0  0  0  0
   -0.7609   -0.4529    0.8454 C   0  0  0  0  0  0  0  0  0  0  0  0
   -1.4945    0.8836    0.8247 C   0  0  0  0  0  0  0  0  0  0  0  0
   -0.4203    1.3632   -0.1553 C   0  0  0  0  0  0  0  0  0  0  0  0
    1.9090    0.8515    1.3770 H   0  0  0  0  0  0  0  0  0  0  0  0
    3.3099    0.1214    0.5744 H   0  0  0  0  0  0  0  0  0  0  0  0
    2.5681    1.5824   -0.1026 H   0  0  0  0  0  0  0  0  0  0  0  0
    1.7234   -0.0600   -1.5369 H   0  0  0  0  0  0  0  0  0  0  0  0
    1.7024   -1.3214   -0.2894 H   0  0  0  0  0  0  0  0  0  0  0  0
   -1.5505   -0.4160   -1.8677 H   0  0  0  0  0  0  0  0  0  0  0  0
   -0.2101   -1.6907   -1.7107 H   0  0  0  0  0  0  0  0  0  0  0  0
   -2.5438   -1.4624    0.0252 H   0  0  0  0  0  0  0  0  0  0  0  0
   -1.0300   -2.5296    0.3291 H   0  0  0  0  0  0  0  0  0  0  0  0
   -0.3148   -0.7464    1.7771 H   0  0  0  0  0  0  0  0  0  0  0  0
   -1.4533    1.4353    1.7719 H   0  0  0  0  0  0  0  0  0  0  0  0
   -2.4984    0.8094    0.3781 H   0  0  0  0  0  0  0  0  0  0  0  0
    0.3798    1.9362    0.3806 H   0  0  0  0  0  0  0  0  0  0  0  0
   -0.7997    1.8543   -1.0534 H   0  0  0  0  0  0  0  0  0  0  0  0
  1  2  1  0
  2  3  1  0
  3  4  1  0
  4  5  1  0
  5  6  1  0
  6  7  1  0
  7  8  1  0
  6  3  1  0
  8  3  1  0
  1  9  1  0
  1 10  1  0
  1 11  1  0
  2 12  1  0
  2 13  1  0
  4 14  1  0
  4 15  1  0
  5 16  1  0
  5 17  1  0
  6 18  1  0
  7 19  1  0
  7 20  1  0
  8 21  1  0
  8 22  1  0
M  END
