
     RDKit          3D

 23 24  0  0  0  0  0  0  0  0999 V2000
    2.7065    0.4223   -0.7066 C   0  0  0  0  0  0  0  0  0  0  0  0
    2.1246   -0.1949    0.5248 C   0  0  0  0  0  0  0  0  0  0  0  0
    0.7708   -0.8242    0.2264 C   0  0  0  0  0  0  0  0  0  0  0  0
    0.1986   -1.3993    1.3127 O   0  0  0  0  0  0  0  0  0  0  0  0
   -1.0513   -0.8805    1.5239 C   0  0  0  0  0  0  0  0  0  0  0  0
   -1.3991    0.0451    0.4237 C   0  0  0  0  0  0  0  0  0  0  0  0
   -2.2970    1.2222    0.6984 C   0  0  0  0  0  0  0  0  0  0  0  0
   -1.4135   -0.4437   -0.9851 C   0  0  0  0  0  0  0  0  0  0  0  0
   -0.1609    0.1759   -0.3710 C   0  0  0  0  0  0  0  0  0  0  0  0
    2.0169    0.4057   -1.5799 H   0  0  0  0  0  0  0  0  0  0  0  0
    2.9718    1.4961   -0.5277 H   0  0  0  0  0  0  0  0  0  0  0  0
    3.6132   -0.1390   -1.0138 H   0  0  0  0  0  0  0  0  0  0  0  0
    2.7997   -0.9945    0.9254 H   0  0  0  0  0  0  0  0  0  0  0  0
    1.9543    0.5552    1.3240 H   0  0  0  0  0  0  0  0  0  0  0  0
    0.9743   -1.5987   -0.5675 H   0  0  0  0  0  0  0  0  0  0  0  0
   -1.7990   -1.7080    1.5390 H   0  0  0  0  0  0  0  0  0  0  0  0
   -1.1557   -0.3723    2.5095 H   0  0  0  0  0  0  0  0  0  0  0  0
   -2.7170    1.6656   -0.2168 H   0  0  0  0  0  0  0  0  0  0  0  0
   -1.8292    1.9797    1.3607 H   0  0  0  0  0  0  0  0  0  0  0  0
   -3.1814    0.8230    1.2712 H   0  0  0  0  0  0  0  0  0  0  0  0
   -1.4396   -1.5349   -1.1339 H   0  0  0  0  0  0  0  0  0  0  0  0
   -1.8592    0.1447   -1.7845 H   0  0  0  0  0  0  0  0  0  0  0  0
    0.1721    1.1544   -0.6994 H   0  0  0  0  0  0  0  0  0  0  0  0
  1  2  1  0
  2  3  1  0
  3  4  1  0
  4  5  1  0
  5  6  1  0
  6  7  1  0
  6  8  1  0
  8  9  1  0
  9  3  1  0
  9  6  1  0
  1 10  1  0
  1 11  1  0
  1 12  1  0
  2 13  1  0
  2 14  1  0
  3 15  1  0
  5 16  1  0
  5 17  1  0
  7 18  1  0
  7 19  1  0
  7 20  1  0
  8 21  1  0
  8 22  1  0
  9 23  1  0
M  END
