
     RDKit          3D

 23 23  0  0  0  0  0  0  0  0999 V2000
    2.7492   -0.2449    0.3174 C   0  0  0  0  0  0  0  0  0  0  0  0
    1.6390   -0.0658   -0.6752 C   0  0  0  0  0  0  0  0  0  0  0  0
    0.4117    0.5649   -0.0884 C   0  0  0  0  0  0  0  0  0  0  0  0
   -0.7128    0.7443   -1.1014 C   0  0  0  0  0  0  0  0  0  0  0  0
   -0.8628   -0.1318    0.0674 C   0  0  0  0  0  0  0  0  0  0  0  0
   -0.9798   -1.6303   -0.1841 C   0  0  0  0  0  0  0  0  0  0  0  0
   -0.6192   -2.3493    0.9403 O   0  0  0  0  0  0  0  0  0  0  0  0
   -1.6880    0.2898    1.1161 O   0  0  0  0  0  0  0  0  0  0  0  0
   -2.0416    1.6268    0.9890 C   0  0  0  0  0  0  0  0  0  0  0  0
    3.0846    0.7657    0.6541 H   0  0  0  0  0  0  0  0  0  0  0  0
    2.4597   -0.8018    1.2165 H   0  0  0  0  0  0  0  0  0  0  0  0
    3.6046   -0.7047   -0.2246 H   0  0  0  0  0  0  0  0  0  0  0  0
    1.3778   -0.9741   -1.2157 H   0  0  0  0  0  0  0  0  0  0  0  0
    2.0251    0.6579   -1.4526 H   0  0  0  0  0  0  0  0  0  0  0  0
    0.6300    1.4039    0.6015 H   0  0  0  0  0  0  0  0  0  0  0  0
   -1.0795    1.7686   -1.1659 H   0  0  0  0  0  0  0  0  0  0  0  0
   -0.6296    0.2385   -2.0850 H   0  0  0  0  0  0  0  0  0  0  0  0
   -2.0499   -1.9093   -0.4013 H   0  0  0  0  0  0  0  0  0  0  0  0
   -0.4026   -1.9532   -1.0504 H   0  0  0  0  0  0  0  0  0  0  0  0
   -0.3712   -3.2670    0.7559 H   0  0  0  0  0  0  0  0  0  0  0  0
   -2.6936    1.8570    1.8695 H   0  0  0  0  0  0  0  0  0  0  0  0
   -1.1727    2.3018    1.0174 H   0  0  0  0  0  0  0  0  0  0  0  0
   -2.6783    1.8129    0.0992 H   0  0  0  0  0  0  0  0  0  0  0  0
  1  2  1  0
  2  3  1  0
  3  4  1  0
  4  5  1  0
  5  6  1  0
  6  7  1  0
  5  8  1  0
  8  9  1  0
  5  3  1  0
  1 10  1  0
  1 11  1  0
  1 12  1  0
  2 13  1  0
  2 14  1  0
  3 15  1  0
  4 16  1  0
  4 17  1  0
  6 18  1  0
  6 19  1  0
  7 20  1  0
  9 21  1  0
  9 22  1  0
  9 23  1  0
M  END
