
     RDKit          3D

 19 19  0  0  0  0  0  0  0  0999 V2000
   -2.4588    0.4457    0.1041 C   0  0  0  0  0  0  0  0  0  0  0  0
   -1.2342    0.2393   -0.7935 C   0  0  0  0  0  0  0  0  0  0  0  0
   -0.3275   -0.7092   -0.0157 C   0  0  0  0  0  0  0  0  0  0  0  0
    0.0561   -0.1865    1.2095 O   0  0  0  0  0  0  0  0  0  0  0  0
    1.3952   -0.0288    0.8387 C   0  0  0  0  0  0  0  0  0  0  0  0
    1.7577    1.3900    0.7129 C   0  0  0  0  0  0  0  0  0  0  0  0
    0.9579    2.3068    0.9157 O   0  0  0  0  0  0  0  0  0  0  0  0
    1.0927   -0.7468   -0.4519 C   0  0  0  0  0  0  0  0  0  0  0  0
    1.6048   -2.0494   -0.3926 O   0  0  0  0  0  0  0  0  0  0  0  0
   -3.1337    1.2075   -0.2950 H   0  0  0  0  0  0  0  0  0  0  0  0
   -2.9293   -0.5601    0.1921 H   0  0  0  0  0  0  0  0  0  0  0  0
   -2.0492    0.6788    1.1081 H   0  0  0  0  0  0  0  0  0  0  0  0
   -1.5052   -0.1632   -1.7737 H   0  0  0  0  0  0  0  0  0  0  0  0
   -0.7428    1.2200   -0.9640 H   0  0  0  0  0  0  0  0  0  0  0  0
   -0.8406   -1.6824    0.0994 H   0  0  0  0  0  0  0  0  0  0  0  0
    2.0223   -0.6123    1.5671 H   0  0  0  0  0  0  0  0  0  0  0  0
    2.7570    1.6771    0.4331 H   0  0  0  0  0  0  0  0  0  0  0  0
    1.3690   -0.1796   -1.3464 H   0  0  0  0  0  0  0  0  0  0  0  0
    2.2085   -2.2468   -1.1479 H   0  0  0  0  0  0  0  0  0  0  0  0
  1  2  1  0
  2  3  1  0
  3  4  1  0
  4  5  1  0
  5  6  1  0
  6  7  2  0
  5  8  1  0
  8  9  1  0
  8  3  1  0
  1 10  1  0
  1 11  1  0
  1 12  1  0
  2 13  1  0
  2 14  1  0
  3 15  1  0
  5 16  1  0
  6 17  1  0
  8 18  1  0
  9 19  1  0
M  END
