
     RDKit          3D

 18 19  0  0  0  0  0  0  0  0999 V2000
    2.1594   -0.2017   -0.3839 C   0  0  0  0  0  0  0  0  0  0  0  0
    1.0904   -0.2983    0.6516 C   0  0  0  0  0  0  0  0  0  0  0  0
   -0.1974    0.3710    0.2360 C   0  0  0  0  0  0  0  0  0  0  0  0
   -1.3483    0.3421    1.1921 C   0  0  0  0  0  0  0  0  0  0  0  0
   -2.2587   -0.1416    0.1180 C   0  0  0  0  0  0  0  0  0  0  0  0
   -3.4518   -0.3558    0.0155 O   0  0  0  0  0  0  0  0  0  0  0  0
   -1.0981   -0.2495   -0.7662 C   0  0  0  0  0  0  0  0  0  0  0  0
   -0.3631    1.0066   -1.0733 C   0  0  0  0  0  0  0  0  0  0  0  0
    1.9279   -0.9449   -1.1871 H   0  0  0  0  0  0  0  0  0  0  0  0
    2.2777    0.7898   -0.8322 H   0  0  0  0  0  0  0  0  0  0  0  0
    3.1347   -0.4465    0.1068 H   0  0  0  0  0  0  0  0  0  0  0  0
    1.4405    0.2535    1.5714 H   0  0  0  0  0  0  0  0  0  0  0  0
    0.9454   -1.3661    0.9102 H   0  0  0  0  0  0  0  0  0  0  0  0
   -1.6403    1.3049    1.6399 H   0  0  0  0  0  0  0  0  0  0  0  0
   -1.2721   -0.4304    1.9777 H   0  0  0  0  0  0  0  0  0  0  0  0
   -0.8415   -1.1983   -1.2715 H   0  0  0  0  0  0  0  0  0  0  0  0
   -0.9265    1.9825   -1.0697 H   0  0  0  0  0  0  0  0  0  0  0  0
    0.4218    0.9190   -1.8352 H   0  0  0  0  0  0  0  0  0  0  0  0
  1  2  1  0
  2  3  1  0
  3  4  1  0
  4  5  1  0
  5  6  2  0
  5  7  1  0
  7  8  1  0
  7  3  1  0
  8  3  1  0
  1  9  1  0
  1 10  1  0
  1 11  1  0
  2 12  1  0
  2 13  1  0
  4 14  1  0
  4 15  1  0
  7 16  1  0
  8 17  1  0
  8 18  1  0
M  END
