
     RDKit          3D

 19 20  0  0  0  0  0  0  0  0999 V2000
   -2.0901   -0.4261    0.5542 C   0  0  0  0  0  0  0  0  0  0  0  0
   -0.8209   -1.0092   -0.0735 C   0  0  0  0  0  0  0  0  0  0  0  0
   -0.1860    0.0803   -0.9567 C   0  0  0  0  0  0  0  0  0  0  0  0
    0.1617    1.2821   -0.1396 C   0  0  0  0  0  0  0  0  0  0  0  0
    1.2317    0.6540    0.7790 C   0  0  0  0  0  0  0  0  0  0  0  0
    1.6665   -0.5629   -0.0046 C   0  0  0  0  0  0  0  0  0  0  0  0
    2.1865   -1.5487    0.4810 O   0  0  0  0  0  0  0  0  0  0  0  0
    1.2961   -0.1957   -1.3681 C   0  0  0  0  0  0  0  0  0  0  0  0
    0.2354   -0.3673   -2.1052 O   0  0  0  0  0  0  0  0  0  0  0  0
   -1.8531   -0.2603    1.6462 H   0  0  0  0  0  0  0  0  0  0  0  0
   -2.3678    0.5359    0.0950 H   0  0  0  0  0  0  0  0  0  0  0  0
   -2.9566   -1.1041    0.4314 H   0  0  0  0  0  0  0  0  0  0  0  0
   -1.1441   -1.8691   -0.6678 H   0  0  0  0  0  0  0  0  0  0  0  0
   -0.1224   -1.3583    0.7079 H   0  0  0  0  0  0  0  0  0  0  0  0
   -0.6804    1.6127    0.4915 H   0  0  0  0  0  0  0  0  0  0  0  0
    0.6077    2.1054   -0.7408 H   0  0  0  0  0  0  0  0  0  0  0  0
    2.1140    1.3239    0.8057 H   0  0  0  0  0  0  0  0  0  0  0  0
    0.8269    0.3934    1.7531 H   0  0  0  0  0  0  0  0  0  0  0  0
    1.8947    0.7138   -1.6889 H   0  0  0  0  0  0  0  0  0  0  0  0
  1  2  1  0
  2  3  1  0
  3  4  1  0
  4  5  1  0
  5  6  1  0
  6  7  2  0
  6  8  1  0
  8  9  1  0
  8  3  1  0
  9  3  1  0
  1 10  1  0
  1 11  1  0
  1 12  1  0
  2 13  1  0
  2 14  1  0
  4 15  1  0
  4 16  1  0
  5 17  1  0
  5 18  1  0
  8 19  1  0
M  END
