
     RDKit          3D

 20 20  0  0  0  0  0  0  0  0999 V2000
   -1.8741   -1.2223   -0.5299 C   0  0  0  0  0  0  0  0  0  0  0  0
   -1.2646    0.1249   -0.4475 C   0  0  0  0  0  0  0  0  0  0  0  0
    0.2138    0.1618   -0.2556 C   0  0  0  0  0  0  0  0  0  0  0  0
    0.6603    1.6315   -0.1940 C   0  0  0  0  0  0  0  0  0  0  0  0
   -0.2059    2.3035    0.6716 O   0  0  0  0  0  0  0  0  0  0  0  0
    0.7613   -0.5756    0.9286 C   0  0  0  0  0  0  0  0  0  0  0  0
    1.9052   -0.8458   -0.0345 C   0  0  0  0  0  0  0  0  0  0  0  0
    0.9829   -0.6256   -1.0776 O   0  0  0  0  0  0  0  0  0  0  0  0
   -2.8396   -1.1232   -1.1075 H   0  0  0  0  0  0  0  0  0  0  0  0
   -2.1566   -1.5675    0.4691 H   0  0  0  0  0  0  0  0  0  0  0  0
   -1.2692   -1.9955   -1.0140 H   0  0  0  0  0  0  0  0  0  0  0  0
   -1.7232    0.6566    0.4356 H   0  0  0  0  0  0  0  0  0  0  0  0
   -1.5079    0.7400   -1.3383 H   0  0  0  0  0  0  0  0  0  0  0  0
    0.6144    2.1149   -1.1715 H   0  0  0  0  0  0  0  0  0  0  0  0
    1.6788    1.7029    0.2681 H   0  0  0  0  0  0  0  0  0  0  0  0
   -0.1903    1.8775    1.5607 H   0  0  0  0  0  0  0  0  0  0  0  0
    0.1787   -1.4701    1.1535 H   0  0  0  0  0  0  0  0  0  0  0  0
    1.0830    0.0443    1.7802 H   0  0  0  0  0  0  0  0  0  0  0  0
    2.6655   -0.0505   -0.0729 H   0  0  0  0  0  0  0  0  0  0  0  0
    2.2874   -1.8817   -0.0242 H   0  0  0  0  0  0  0  0  0  0  0  0
  1  2  1  0
  2  3  1  0
  3  4  1  0
  4  5  1  0
  3  6  1  0
  6  7  1  0
  7  8  1  0
  8  3  1  0
  1  9  1  0
  1 10  1  0
  1 11  1  0
  2 12  1  0
  2 13  1  0
  4 14  1  0
  4 15  1  0
  5 16  1  0
  6 17  1  0
  6 18  1  0
  7 19  1  0
  7 20  1  0
M  END
