
     RDKit          3D

 22 22  0  0  0  0  0  0  0  0999 V2000
    2.3206    0.5532   -0.0110 C   0  0  0  0  0  0  0  0  0  0  0  0
    1.0712    0.1589    0.7201 C   0  0  0  0  0  0  0  0  0  0  0  0
   -0.0207   -0.3171   -0.2126 C   0  0  0  0  0  0  0  0  0  0  0  0
    0.3790   -1.5126   -1.0195 C   0  0  0  0  0  0  0  0  0  0  0  0
   -0.5857    0.7744   -1.0221 C   0  0  0  0  0  0  0  0  0  0  0  0
   -1.6284    1.3112   -0.3972 C   0  0  0  0  0  0  0  0  0  0  0  0
   -1.8571    0.6145    0.9075 C   0  0  0  0  0  0  0  0  0  0  0  0
   -1.2051   -0.7279    0.6606 C   0  0  0  0  0  0  0  0  0  0  0  0
    2.2439    0.3321   -1.0821 H   0  0  0  0  0  0  0  0  0  0  0  0
    3.1729    0.0545    0.4947 H   0  0  0  0  0  0  0  0  0  0  0  0
    2.4825    1.6612    0.1233 H   0  0  0  0  0  0  0  0  0  0  0  0
    1.2396   -0.6631    1.4585 H   0  0  0  0  0  0  0  0  0  0  0  0
    0.6489    1.0193    1.2922 H   0  0  0  0  0  0  0  0  0  0  0  0
    1.4147   -1.5099   -1.3683 H   0  0  0  0  0  0  0  0  0  0  0  0
    0.2111   -2.4140   -0.3701 H   0  0  0  0  0  0  0  0  0  0  0  0
   -0.3568   -1.6017   -1.8615 H   0  0  0  0  0  0  0  0  0  0  0  0
   -0.2084    1.0952   -1.9865 H   0  0  0  0  0  0  0  0  0  0  0  0
   -2.2453    2.1310   -0.7476 H   0  0  0  0  0  0  0  0  0  0  0  0
   -1.3716    1.1587    1.7358 H   0  0  0  0  0  0  0  0  0  0  0  0
   -2.9276    0.4485    1.1163 H   0  0  0  0  0  0  0  0  0  0  0  0
   -1.8770   -1.3189    0.0015 H   0  0  0  0  0  0  0  0  0  0  0  0
   -0.9006   -1.2474    1.5683 H   0  0  0  0  0  0  0  0  0  0  0  0
  1  2  1  0
  2  3  1  0
  3  4  1  0
  3  5  1  0
  5  6  2  0
  6  7  1  0
  7  8  1  0
  8  3  1  0
  1  9  1  0
  1 10  1  0
  1 11  1  0
  2 12  1  0
  2 13  1  0
  4 14  1  0
  4 15  1  0
  4 16  1  0
  5 17  1  0
  6 18  1  0
  7 19  1  0
  7 20  1  0
  8 21  1  0
  8 22  1  0
M  END
