
     RDKit          3D

 25 26  0  0  0  0  0  0  0  0999 V2000
    2.6106    0.6774   -0.3780 C   0  0  0  0  0  0  0  0  0  0  0  0
    1.6259   -0.0275    0.5247 C   0  0  0  0  0  0  0  0  0  0  0  0
    0.2106    0.3849    0.2873 C   0  0  0  0  0  0  0  0  0  0  0  0
   -0.2082    1.8100    0.4583 C   0  0  0  0  0  0  0  0  0  0  0  0
   -0.2168    1.1730   -0.8773 C   0  0  0  0  0  0  0  0  0  0  0  0
   -1.2164    0.1091   -1.2296 C   0  0  0  0  0  0  0  0  0  0  0  0
   -0.8838   -0.5874    0.0731 C   0  0  0  0  0  0  0  0  0  0  0  0
   -0.4996   -2.0365   -0.0705 C   0  0  0  0  0  0  0  0  0  0  0  0
   -2.0582   -0.4539    1.0365 C   0  0  0  0  0  0  0  0  0  0  0  0
    3.6117    0.2277   -0.2127 H   0  0  0  0  0  0  0  0  0  0  0  0
    2.3696    0.5309   -1.4510 H   0  0  0  0  0  0  0  0  0  0  0  0
    2.7142    1.7599   -0.1356 H   0  0  0  0  0  0  0  0  0  0  0  0
    1.7773   -1.1190    0.4017 H   0  0  0  0  0  0  0  0  0  0  0  0
    1.8898    0.2112    1.5756 H   0  0  0  0  0  0  0  0  0  0  0  0
   -1.1569    1.9500    1.0362 H   0  0  0  0  0  0  0  0  0  0  0  0
    0.5353    2.5864    0.6263 H   0  0  0  0  0  0  0  0  0  0  0  0
    0.4531    1.5472   -1.6501 H   0  0  0  0  0  0  0  0  0  0  0  0
   -2.2616    0.4315   -1.3457 H   0  0  0  0  0  0  0  0  0  0  0  0
   -0.8711   -0.5483   -2.0778 H   0  0  0  0  0  0  0  0  0  0  0  0
   -1.4491   -2.6149   -0.1435 H   0  0  0  0  0  0  0  0  0  0  0  0
    0.0406   -2.2251   -1.0374 H   0  0  0  0  0  0  0  0  0  0  0  0
    0.0395   -2.3982    0.8069 H   0  0  0  0  0  0  0  0  0  0  0  0
   -2.7458   -1.3195    0.8023 H   0  0  0  0  0  0  0  0  0  0  0  0
   -2.5950    0.5072    0.8884 H   0  0  0  0  0  0  0  0  0  0  0  0
   -1.7155   -0.5764    2.0917 H   0  0  0  0  0  0  0  0  0  0  0  0
  1  2  1  0
  2  3  1  0
  3  4  1  0
  4  5  1  0
  5  6  1  0
  6  7  1  0
  7  8  1  0
  7  9  1  0
  5  3  1  0
  7  3  1  0
  1 10  1  0
  1 11  1  0
  1 12  1  0
  2 13  1  0
  2 14  1  0
  4 15  1  0
  4 16  1  0
  5 17  1  0
  6 18  1  0
  6 19  1  0
  8 20  1  0
  8 21  1  0
  8 22  1  0
  9 23  1  0
  9 24  1  0
  9 25  1  0
M  END
