
     RDKit          3D

 23 24  0  0  0  0  0  0  0  0999 V2000
    2.9542   -0.5076    0.0392 C   0  0  0  0  0  0  0  0  0  0  0  0
    1.4928   -0.8489    0.1839 C   0  0  0  0  0  0  0  0  0  0  0  0
    0.6511    0.4303    0.2762 C   0  0  0  0  0  0  0  0  0  0  0  0
    0.9506    1.2583    1.3323 O   0  0  0  0  0  0  0  0  0  0  0  0
    0.2139    0.9778   -1.0484 C   0  0  0  0  0  0  0  0  0  0  0  0
   -0.7256    0.3094   -0.1723 C   0  0  0  0  0  0  0  0  0  0  0  0
   -1.4448   -0.9448   -0.4469 C   0  0  0  0  0  0  0  0  0  0  0  0
   -2.7272   -0.2297    0.0010 C   0  0  0  0  0  0  0  0  0  0  0  0
   -1.8971    1.0010    0.3934 C   0  0  0  0  0  0  0  0  0  0  0  0
    3.1060    0.5177    0.4485 H   0  0  0  0  0  0  0  0  0  0  0  0
    3.3015   -0.5217   -1.0163 H   0  0  0  0  0  0  0  0  0  0  0  0
    3.5904   -1.2365    0.5875 H   0  0  0  0  0  0  0  0  0  0  0  0
    1.2815   -1.5349    1.0219 H   0  0  0  0  0  0  0  0  0  0  0  0
    1.2022   -1.4161   -0.7442 H   0  0  0  0  0  0  0  0  0  0  0  0
    0.7281    0.8039    2.1996 H   0  0  0  0  0  0  0  0  0  0  0  0
    0.0871    2.0851   -1.1669 H   0  0  0  0  0  0  0  0  0  0  0  0
    0.6000    0.5219   -1.9946 H   0  0  0  0  0  0  0  0  0  0  0  0
   -1.1978   -1.7227    0.3343 H   0  0  0  0  0  0  0  0  0  0  0  0
   -1.4671   -1.3203   -1.4752 H   0  0  0  0  0  0  0  0  0  0  0  0
   -3.2431   -0.6939    0.8421 H   0  0  0  0  0  0  0  0  0  0  0  0
   -3.3590   -0.0448   -0.8833 H   0  0  0  0  0  0  0  0  0  0  0  0
   -1.9021    1.2132    1.4769 H   0  0  0  0  0  0  0  0  0  0  0  0
   -2.1958    1.9034   -0.1890 H   0  0  0  0  0  0  0  0  0  0  0  0
  1  2  1  0
  2  3  1  0
  3  4  1  0
  3  5  1  0
  5  6  1  0
  6  7  1  0
  7  8  1  0
  8  9  1  0
  6  3  1  0
  9  6  1  0
  1 10  1  0
  1 11  1  0
  1 12  1  0
  2 13  1  0
  2 14  1  0
  4 15  1  0
  5 16  1  0
  5 17  1  0
  7 18  1  0
  7 19  1  0
  8 20  1  0
  8 21  1  0
  9 22  1  0
  9 23  1  0
M  END
