
     RDKit          3D

 18 19  0  0  0  0  0  0  0  0999 V2000
    2.3345    0.4603    0.0902 C   0  0  0  0  0  0  0  0  0  0  0  0
    1.3931   -0.5206   -0.5387 C   0  0  0  0  0  0  0  0  0  0  0  0
   -0.0323    0.0228   -0.4962 C   0  0  0  0  0  0  0  0  0  0  0  0
   -1.1221   -0.8312   -1.0862 C   0  0  0  0  0  0  0  0  0  0  0  0
   -2.3481   -0.3427   -0.4574 C   0  0  0  0  0  0  0  0  0  0  0  0
   -2.0643    0.5182    0.4967 C   0  0  0  0  0  0  0  0  0  0  0  0
   -0.5937    0.6941    0.6021 C   0  0  0  0  0  0  0  0  0  0  0  0
   -0.0967    1.4022   -0.5575 O   0  0  0  0  0  0  0  0  0  0  0  0
    2.1199    1.4676   -0.3327 H   0  0  0  0  0  0  0  0  0  0  0  0
    3.3774    0.2022   -0.1972 H   0  0  0  0  0  0  0  0  0  0  0  0
    2.2771    0.4954    1.1893 H   0  0  0  0  0  0  0  0  0  0  0  0
    1.7132   -0.6969   -1.5845 H   0  0  0  0  0  0  0  0  0  0  0  0
    1.3524   -1.4901    0.0244 H   0  0  0  0  0  0  0  0  0  0  0  0
   -0.8728   -1.8906   -0.7800 H   0  0  0  0  0  0  0  0  0  0  0  0
   -1.1400   -0.7941   -2.1944 H   0  0  0  0  0  0  0  0  0  0  0  0
   -3.3592   -0.6828   -0.7777 H   0  0  0  0  0  0  0  0  0  0  0  0
   -2.8045    1.0171    1.1071 H   0  0  0  0  0  0  0  0  0  0  0  0
   -0.1340    0.9690    1.5629 H   0  0  0  0  0  0  0  0  0  0  0  0
  1  2  1  0
  2  3  1  0
  3  4  1  0
  4  5  1  0
  5  6  2  0
  6  7  1  0
  7  8  1  0
  7  3  1  0
  8  3  1  0
  1  9  1  0
  1 10  1  0
  1 11  1  0
  2 12  1  0
  2 13  1  0
  4 14  1  0
  4 15  1  0
  5 16  1  0
  6 17  1  0
  7 18  1  0
M  END
