
     RDKit          3D

 25 25  0  0  0  0  0  0  0  0999 V2000
   -2.1164    1.7766    0.2189 C   0  0  0  0  0  0  0  0  0  0  0  0
   -1.3529    1.1302   -0.9180 C   0  0  0  0  0  0  0  0  0  0  0  0
   -0.6829   -0.0797   -0.3604 C   0  0  0  0  0  0  0  0  0  0  0  0
    0.6221   -0.3455   -0.3213 C   0  0  0  0  0  0  0  0  0  0  0  0
    1.7095    0.5216   -0.8339 C   0  0  0  0  0  0  0  0  0  0  0  0
    2.6808    0.9217    0.2635 C   0  0  0  0  0  0  0  0  0  0  0  0
    0.8587   -1.6626    0.3212 C   0  0  0  0  0  0  0  0  0  0  0  0
   -0.4646   -2.1681    0.7917 C   0  0  0  0  0  0  0  0  0  0  0  0
   -1.4554   -1.1926    0.2526 C   0  0  0  0  0  0  0  0  0  0  0  0
   -1.8717    2.8629    0.2783 H   0  0  0  0  0  0  0  0  0  0  0  0
   -1.8195    1.3544    1.2064 H   0  0  0  0  0  0  0  0  0  0  0  0
   -3.2119    1.6426    0.1284 H   0  0  0  0  0  0  0  0  0  0  0  0
   -2.1110    0.7403   -1.6557 H   0  0  0  0  0  0  0  0  0  0  0  0
   -0.6707    1.8269   -1.4012 H   0  0  0  0  0  0  0  0  0  0  0  0
    2.3262   -0.0523   -1.5833 H   0  0  0  0  0  0  0  0  0  0  0  0
    1.3266    1.3988   -1.3969 H   0  0  0  0  0  0  0  0  0  0  0  0
    3.6409    0.3943    0.2017 H   0  0  0  0  0  0  0  0  0  0  0  0
    2.8971    2.0185    0.1418 H   0  0  0  0  0  0  0  0  0  0  0  0
    2.2443    0.8022    1.2668 H   0  0  0  0  0  0  0  0  0  0  0  0
    1.6045   -1.5827    1.1258 H   0  0  0  0  0  0  0  0  0  0  0  0
    1.2348   -2.3452   -0.4933 H   0  0  0  0  0  0  0  0  0  0  0  0
   -0.5108   -2.2347    1.8981 H   0  0  0  0  0  0  0  0  0  0  0  0
   -0.6654   -3.1856    0.3964 H   0  0  0  0  0  0  0  0  0  0  0  0
   -2.0594   -1.6899   -0.5555 H   0  0  0  0  0  0  0  0  0  0  0  0
   -2.1528   -0.8520    1.0279 H   0  0  0  0  0  0  0  0  0  0  0  0
  1  2  1  0
  2  3  1  0
  3  4  2  0
  4  5  1  0
  5  6  1  0
  4  7  1  0
  7  8  1  0
  8  9  1  0
  9  3  1  0
  1 10  1  0
  1 11  1  0
  1 12  1  0
  2 13  1  0
  2 14  1  0
  5 15  1  0
  5 16  1  0
  6 17  1  0
  6 18  1  0
  6 19  1  0
  7 20  1  0
  7 21  1  0
  8 22  1  0
  8 23  1  0
  9 24  1  0
  9 25  1  0
M  END
