
     RDKit          3D

 27 27  0  0  0  0  0  0  0  0999 V2000
    2.9919    0.2749    0.8182 C   0  0  0  0  0  0  0  0  0  0  0  0
    2.0129   -0.3505   -0.1387 C   0  0  0  0  0  0  0  0  0  0  0  0
    0.7936    0.5065   -0.3724 C   0  0  0  0  0  0  0  0  0  0  0  0
   -0.0779   -0.2543   -1.3438 C   0  0  0  0  0  0  0  0  0  0  0  0
   -1.3906    0.4063   -1.6107 C   0  0  0  0  0  0  0  0  0  0  0  0
   -2.3462    0.3359   -0.4620 C   0  0  0  0  0  0  0  0  0  0  0  0
   -1.9617   -0.6643    0.5900 C   0  0  0  0  0  0  0  0  0  0  0  0
   -0.7806   -0.3075    1.4007 C   0  0  0  0  0  0  0  0  0  0  0  0
    0.0371    0.8307    0.8688 C   0  0  0  0  0  0  0  0  0  0  0  0
    3.8915   -0.3767    0.8320 H   0  0  0  0  0  0  0  0  0  0  0  0
    3.3154    1.2458    0.4115 H   0  0  0  0  0  0  0  0  0  0  0  0
    2.6205    0.3179    1.8528 H   0  0  0  0  0  0  0  0  0  0  0  0
    1.7138   -1.3611    0.1978 H   0  0  0  0  0  0  0  0  0  0  0  0
    2.5308   -0.4460   -1.1189 H   0  0  0  0  0  0  0  0  0  0  0  0
    1.0904    1.4578   -0.8651 H   0  0  0  0  0  0  0  0  0  0  0  0
    0.4863   -0.2630   -2.3187 H   0  0  0  0  0  0  0  0  0  0  0  0
   -0.1999   -1.3213   -1.0637 H   0  0  0  0  0  0  0  0  0  0  0  0
   -1.1686    1.4621   -1.9292 H   0  0  0  0  0  0  0  0  0  0  0  0
   -1.8156   -0.0760   -2.5359 H   0  0  0  0  0  0  0  0  0  0  0  0
   -2.5538    1.3482   -0.0434 H   0  0  0  0  0  0  0  0  0  0  0  0
   -3.3420   -0.0102   -0.8667 H   0  0  0  0  0  0  0  0  0  0  0  0
   -2.8621   -0.7740    1.2629 H   0  0  0  0  0  0  0  0  0  0  0  0
   -1.8446   -1.6406    0.1000 H   0  0  0  0  0  0  0  0  0  0  0  0
   -0.0787   -1.1634    1.5672 H   0  0  0  0  0  0  0  0  0  0  0  0
   -1.0997   -0.0090    2.4426 H   0  0  0  0  0  0  0  0  0  0  0  0
    0.6972    1.1849    1.6793 H   0  0  0  0  0  0  0  0  0  0  0  0
   -0.6592    1.6648    0.6454 H   0  0  0  0  0  0  0  0  0  0  0  0
  1  2  1  0
  2  3  1  0
  3  4  1  0
  4  5  1  0
  5  6  1  0
  6  7  1  0
  7  8  1  0
  8  9  1  0
  9  3  1  0
  1 10  1  0
  1 11  1  0
  1 12  1  0
  2 13  1  0
  2 14  1  0
  3 15  1  0
  4 16  1  0
  4 17  1  0
  5 18  1  0
  5 19  1  0
  6 20  1  0
  6 21  1  0
  7 22  1  0
  7 23  1  0
  8 24  1  0
  8 25  1  0
  9 26  1  0
  9 27  1  0
M  END
