
     RDKit          3D

 25 25  0  0  0  0  0  0  0  0999 V2000
    2.9805    0.2601    0.1234 C   0  0  0  0  0  0  0  0  0  0  0  0
    1.9402   -0.2687   -0.8352 C   0  0  0  0  0  0  0  0  0  0  0  0
    0.6025   -0.2016   -0.1415 C   0  0  0  0  0  0  0  0  0  0  0  0
   -0.5069   -0.7238   -1.0551 C   0  0  0  0  0  0  0  0  0  0  0  0
   -1.7347   -0.1761   -0.3583 C   0  0  0  0  0  0  0  0  0  0  0  0
   -2.3099   -1.3182    0.4666 C   0  0  0  0  0  0  0  0  0  0  0  0
   -1.3092    0.9682    0.4884 C   0  0  0  0  0  0  0  0  0  0  0  0
   -1.3484    0.6753    1.8592 O   0  0  0  0  0  0  0  0  0  0  0  0
    0.1236    1.2095    0.0563 C   0  0  0  0  0  0  0  0  0  0  0  0
    3.8860   -0.3812    0.1120 H   0  0  0  0  0  0  0  0  0  0  0  0
    2.6168    0.2378    1.1826 H   0  0  0  0  0  0  0  0  0  0  0  0
    3.3073    1.2875   -0.1171 H   0  0  0  0  0  0  0  0  0  0  0  0
    1.9392    0.3066   -1.7663 H   0  0  0  0  0  0  0  0  0  0  0  0
    2.1664   -1.3204   -1.1029 H   0  0  0  0  0  0  0  0  0  0  0  0
    0.5887   -0.7155    0.8221 H   0  0  0  0  0  0  0  0  0  0  0  0
   -0.4966   -1.8241   -1.1102 H   0  0  0  0  0  0  0  0  0  0  0  0
   -0.3609   -0.2414   -2.0501 H   0  0  0  0  0  0  0  0  0  0  0  0
   -2.4760    0.1507   -1.1029 H   0  0  0  0  0  0  0  0  0  0  0  0
   -2.6241   -2.0994   -0.2618 H   0  0  0  0  0  0  0  0  0  0  0  0
   -1.4378   -1.7557    1.0164 H   0  0  0  0  0  0  0  0  0  0  0  0
   -3.1238   -1.0126    1.1213 H   0  0  0  0  0  0  0  0  0  0  0  0
   -1.9404    1.8658    0.3503 H   0  0  0  0  0  0  0  0  0  0  0  0
   -1.2275    1.5540    2.3369 H   0  0  0  0  0  0  0  0  0  0  0  0
    0.6624    1.7482    0.8570 H   0  0  0  0  0  0  0  0  0  0  0  0
    0.0826    1.7751   -0.8909 H   0  0  0  0  0  0  0  0  0  0  0  0
  1  2  1  0
  2  3  1  0
  3  4  1  0
  4  5  1  0
  5  6  1  0
  5  7  1  0
  7  8  1  0
  7  9  1  0
  9  3  1  0
  1 10  1  0
  1 11  1  0
  1 12  1  0
  2 13  1  0
  2 14  1  0
  3 15  1  0
  4 16  1  0
  4 17  1  0
  5 18  1  0
  6 19  1  0
  6 20  1  0
  6 21  1  0
  7 22  1  0
  8 23  1  0
  9 24  1  0
  9 25  1  0
M  END
