
     RDKit          3D

 23 23  0  0  0  0  0  0  0  0999 V2000
    2.3395    0.6301    0.3337 C   0  0  0  0  0  0  0  0  0  0  0  0
    1.4295   -0.1636   -0.5636 C   0  0  0  0  0  0  0  0  0  0  0  0
   -0.0380    0.1417   -0.2321 C   0  0  0  0  0  0  0  0  0  0  0  0
   -0.2300    1.4730   -0.4285 O   0  0  0  0  0  0  0  0  0  0  0  0
   -1.4802    1.9538   -0.1866 C   0  0  0  0  0  0  0  0  0  0  0  0
   -0.8718   -0.7625   -1.0863 C   0  0  0  0  0  0  0  0  0  0  0  0
   -0.9796   -2.0218   -0.2692 C   0  0  0  0  0  0  0  0  0  0  0  0
   -0.6546   -1.7954    0.9821 C   0  0  0  0  0  0  0  0  0  0  0  0
   -0.2910   -0.3566    1.1486 C   0  0  0  0  0  0  0  0  0  0  0  0
    2.5513    0.1632    1.2950 H   0  0  0  0  0  0  0  0  0  0  0  0
    3.3037    0.7462   -0.1996 H   0  0  0  0  0  0  0  0  0  0  0  0
    1.8678    1.6353    0.4935 H   0  0  0  0  0  0  0  0  0  0  0  0
    1.5650    0.2419   -1.6084 H   0  0  0  0  0  0  0  0  0  0  0  0
    1.6425   -1.2358   -0.5454 H   0  0  0  0  0  0  0  0  0  0  0  0
   -1.4547    3.0628   -0.3993 H   0  0  0  0  0  0  0  0  0  0  0  0
   -1.8221    1.8755    0.8633 H   0  0  0  0  0  0  0  0  0  0  0  0
   -2.2679    1.5476   -0.8230 H   0  0  0  0  0  0  0  0  0  0  0  0
   -1.8475   -0.3723   -1.3655 H   0  0  0  0  0  0  0  0  0  0  0  0
   -0.3253   -1.0506   -2.0112 H   0  0  0  0  0  0  0  0  0  0  0  0
   -1.2827   -2.9887   -0.6501 H   0  0  0  0  0  0  0  0  0  0  0  0
   -0.6357   -2.5141    1.8165 H   0  0  0  0  0  0  0  0  0  0  0  0
   -1.1501    0.1220    1.6599 H   0  0  0  0  0  0  0  0  0  0  0  0
    0.6320   -0.3316    1.7762 H   0  0  0  0  0  0  0  0  0  0  0  0
  1  2  1  0
  2  3  1  0
  3  4  1  0
  4  5  1  0
  3  6  1  0
  6  7  1  0
  7  8  2  0
  8  9  1  0
  9  3  1  0
  1 10  1  0
  1 11  1  0
  1 12  1  0
  2 13  1  0
  2 14  1  0
  5 15  1  0
  5 16  1  0
  5 17  1  0
  6 18  1  0
  6 19  1  0
  7 20  1  0
  8 21  1  0
  9 22  1  0
  9 23  1  0
M  END
