
     RDKit          3D

 23 24  0  0  0  0  0  0  0  0999 V2000
    2.5552   -0.3561   -0.0844 C   0  0  0  0  0  0  0  0  0  0  0  0
    1.4580    0.4926   -0.6842 C   0  0  0  0  0  0  0  0  0  0  0  0
    0.1509    0.0860   -0.2281 C   0  0  0  0  0  0  0  0  0  0  0  0
   -0.3548   -1.3012   -0.4856 C   0  0  0  0  0  0  0  0  0  0  0  0
   -1.7067   -1.2005    0.2516 C   0  0  0  0  0  0  0  0  0  0  0  0
   -1.6775    0.2439    0.6157 C   0  0  0  0  0  0  0  0  0  0  0  0
   -0.2637    0.3823    1.2018 C   0  0  0  0  0  0  0  0  0  0  0  0
   -1.0573    0.9200   -0.6161 C   0  0  0  0  0  0  0  0  0  0  0  0
   -0.8692    2.2829   -0.4352 O   0  0  0  0  0  0  0  0  0  0  0  0
    2.2216   -0.8667    0.8487 H   0  0  0  0  0  0  0  0  0  0  0  0
    3.4552    0.2525    0.1626 H   0  0  0  0  0  0  0  0  0  0  0  0
    2.9182   -1.1349   -0.8046 H   0  0  0  0  0  0  0  0  0  0  0  0
    1.6340    1.5602   -0.3909 H   0  0  0  0  0  0  0  0  0  0  0  0
    1.5307    0.4298   -1.7782 H   0  0  0  0  0  0  0  0  0  0  0  0
   -0.5971   -1.3758   -1.5639 H   0  0  0  0  0  0  0  0  0  0  0  0
    0.2643   -2.1015   -0.0973 H   0  0  0  0  0  0  0  0  0  0  0  0
   -1.6396   -1.8105    1.1739 H   0  0  0  0  0  0  0  0  0  0  0  0
   -2.5374   -1.4933   -0.4138 H   0  0  0  0  0  0  0  0  0  0  0  0
   -2.4725    0.7255    1.1070 H   0  0  0  0  0  0  0  0  0  0  0  0
   -0.0749   -0.3964    1.9340 H   0  0  0  0  0  0  0  0  0  0  0  0
   -0.0434    1.4202    1.4635 H   0  0  0  0  0  0  0  0  0  0  0  0
   -1.5480    0.6245   -1.5566 H   0  0  0  0  0  0  0  0  0  0  0  0
   -1.3461    2.6164    0.3801 H   0  0  0  0  0  0  0  0  0  0  0  0
  1  2  1  0
  2  3  1  0
  3  4  1  0
  4  5  1  0
  5  6  1  0
  6  7  1  0
  6  8  1  0
  8  9  1  0
  7  3  1  0
  8  3  1  0
  1 10  1  0
  1 11  1  0
  1 12  1  0
  2 13  1  0
  2 14  1  0
  4 15  1  0
  4 16  1  0
  5 17  1  0
  5 18  1  0
  6 19  1  0
  7 20  1  0
  7 21  1  0
  8 22  1  0
  9 23  1  0
M  END
