
     RDKit          3D

 23 25  0  0  0  0  0  0  0  0999 V2000
    2.0428    1.1323   -0.2753 C   0  0  0  0  0  0  0  0  0  0  0  0
    1.7044   -0.1848    0.3104 C   0  0  0  0  0  0  0  0  0  0  0  0
    0.2630   -0.5278    0.3571 C   0  0  0  0  0  0  0  0  0  0  0  0
   -0.0470   -1.8827    0.9625 C   0  0  0  0  0  0  0  0  0  0  0  0
   -0.2253   -1.7363   -0.5086 C   0  0  0  0  0  0  0  0  0  0  0  0
   -1.3975   -0.8937   -0.9362 C   0  0  0  0  0  0  0  0  0  0  0  0
   -0.8364    0.2421   -0.1561 C   0  0  0  0  0  0  0  0  0  0  0  0
   -1.7710    1.0690    0.6301 C   0  0  0  0  0  0  0  0  0  0  0  0
   -0.9692    1.5934   -0.5790 C   0  0  0  0  0  0  0  0  0  0  0  0
    1.8840    1.9777    0.4547 H   0  0  0  0  0  0  0  0  0  0  0  0
    1.5811    1.3349   -1.2504 H   0  0  0  0  0  0  0  0  0  0  0  0
    3.1552    1.1464   -0.4593 H   0  0  0  0  0  0  0  0  0  0  0  0
    2.2278   -0.9750   -0.3041 H   0  0  0  0  0  0  0  0  0  0  0  0
    2.1565   -0.2585    1.3162 H   0  0  0  0  0  0  0  0  0  0  0  0
   -0.9213   -1.9790    1.6085 H   0  0  0  0  0  0  0  0  0  0  0  0
    0.8117   -2.5395    1.2567 H   0  0  0  0  0  0  0  0  0  0  0  0
    0.5220   -2.0622   -1.2318 H   0  0  0  0  0  0  0  0  0  0  0  0
   -2.3268   -1.2772   -0.4379 H   0  0  0  0  0  0  0  0  0  0  0  0
   -1.5548   -0.7602   -2.0039 H   0  0  0  0  0  0  0  0  0  0  0  0
   -2.8581    0.9181    0.4789 H   0  0  0  0  0  0  0  0  0  0  0  0
   -1.4935    1.4193    1.6227 H   0  0  0  0  0  0  0  0  0  0  0  0
   -1.6118    1.7963   -1.4855 H   0  0  0  0  0  0  0  0  0  0  0  0
   -0.3355    2.4473   -0.3287 H   0  0  0  0  0  0  0  0  0  0  0  0
  1  2  1  0
  2  3  1  0
  3  4  1  0
  4  5  1  0
  5  6  1  0
  6  7  1  0
  7  8  1  0
  8  9  1  0
  5  3  1  0
  9  7  1  0
  7  3  1  0
  1 10  1  0
  1 11  1  0
  1 12  1  0
  2 13  1  0
  2 14  1  0
  4 15  1  0
  4 16  1  0
  5 17  1  0
  6 18  1  0
  6 19  1  0
  8 20  1  0
  8 21  1  0
  9 22  1  0
  9 23  1  0
M  END
