
     RDKit          3D

 24 24  0  0  0  0  0  0  0  0999 V2000
    3.0892    0.1757    0.0798 C   0  0  0  0  0  0  0  0  0  0  0  0
    1.9169   -0.7323   -0.0276 C   0  0  0  0  0  0  0  0  0  0  0  0
    0.5997   -0.0724    0.2462 C   0  0  0  0  0  0  0  0  0  0  0  0
    0.2921    1.0653   -0.6942 C   0  0  0  0  0  0  0  0  0  0  0  0
   -1.1964    1.2784   -0.3718 C   0  0  0  0  0  0  0  0  0  0  0  0
   -1.7077   -0.1371   -0.4988 C   0  0  0  0  0  0  0  0  0  0  0  0
   -2.8780   -0.4333    0.3746 C   0  0  0  0  0  0  0  0  0  0  0  0
   -0.5496   -1.0091   -0.0665 C   0  0  0  0  0  0  0  0  0  0  0  0
    3.8686   -0.1974   -0.6481 H   0  0  0  0  0  0  0  0  0  0  0  0
    3.5971    0.1265    1.0751 H   0  0  0  0  0  0  0  0  0  0  0  0
    2.8779    1.2248   -0.2096 H   0  0  0  0  0  0  0  0  0  0  0  0
    2.0316   -1.5555    0.7065 H   0  0  0  0  0  0  0  0  0  0  0  0
    1.8289   -1.2360   -1.0321 H   0  0  0  0  0  0  0  0  0  0  0  0
    0.5474    0.2997    1.2823 H   0  0  0  0  0  0  0  0  0  0  0  0
    0.8038    1.9933   -0.4454 H   0  0  0  0  0  0  0  0  0  0  0  0
    0.3396    0.7544   -1.7364 H   0  0  0  0  0  0  0  0  0  0  0  0
   -1.6592    1.9856   -1.0553 H   0  0  0  0  0  0  0  0  0  0  0  0
   -1.2710    1.6057    0.6868 H   0  0  0  0  0  0  0  0  0  0  0  0
   -1.9921   -0.3233   -1.5611 H   0  0  0  0  0  0  0  0  0  0  0  0
   -2.6872   -0.1359    1.4281 H   0  0  0  0  0  0  0  0  0  0  0  0
   -3.0236   -1.5331    0.3917 H   0  0  0  0  0  0  0  0  0  0  0  0
   -3.7953    0.0940    0.0137 H   0  0  0  0  0  0  0  0  0  0  0  0
   -0.2402   -1.6218   -0.9235 H   0  0  0  0  0  0  0  0  0  0  0  0
   -0.7925   -1.6161    0.8242 H   0  0  0  0  0  0  0  0  0  0  0  0
  1  2  1  0
  2  3  1  0
  3  4  1  0
  4  5  1  0
  5  6  1  0
  6  7  1  0
  6  8  1  0
  8  3  1  0
  1  9  1  0
  1 10  1  0
  1 11  1  0
  2 12  1  0
  2 13  1  0
  3 14  1  0
  4 15  1  0
  4 16  1  0
  5 17  1  0
  5 18  1  0
  6 19  1  0
  7 20  1  0
  7 21  1  0
  7 22  1  0
  8 23  1  0
  8 24  1  0
M  END
