
     RDKit          3D

 25 25  0  0  0  0  0  0  0  0999 V2000
   -2.8530   -0.0541    0.0211 C   0  0  0  0  0  0  0  0  0  0  0  0
   -1.4828   -0.5890    0.3944 C   0  0  0  0  0  0  0  0  0  0  0  0
   -0.4635    0.0872   -0.4839 C   0  0  0  0  0  0  0  0  0  0  0  0
   -0.5349    1.5780   -0.2465 C   0  0  0  0  0  0  0  0  0  0  0  0
    0.9118    1.9951   -0.5109 C   0  0  0  0  0  0  0  0  0  0  0  0
    1.6702    0.9189    0.2089 C   0  0  0  0  0  0  0  0  0  0  0  0
    0.9375   -0.3492   -0.2329 C   0  0  0  0  0  0  0  0  0  0  0  0
    1.0846   -1.3161    0.7227 O   0  0  0  0  0  0  0  0  0  0  0  0
    1.8419   -2.3947    0.2249 C   0  0  0  0  0  0  0  0  0  0  0  0
   -3.4398   -0.8652   -0.4717 H   0  0  0  0  0  0  0  0  0  0  0  0
   -2.7743    0.7717   -0.7050 H   0  0  0  0  0  0  0  0  0  0  0  0
   -3.3972    0.3574    0.9023 H   0  0  0  0  0  0  0  0  0  0  0  0
   -1.4605   -1.6844    0.3247 H   0  0  0  0  0  0  0  0  0  0  0  0
   -1.3145   -0.3067    1.4542 H   0  0  0  0  0  0  0  0  0  0  0  0
   -0.7023   -0.0805   -1.5521 H   0  0  0  0  0  0  0  0  0  0  0  0
   -1.2357    2.0953   -0.9100 H   0  0  0  0  0  0  0  0  0  0  0  0
   -0.7575    1.7652    0.8337 H   0  0  0  0  0  0  0  0  0  0  0  0
    1.0906    2.9750   -0.0639 H   0  0  0  0  0  0  0  0  0  0  0  0
    1.0823    1.9448   -1.6011 H   0  0  0  0  0  0  0  0  0  0  0  0
    1.5495    1.0138    1.2925 H   0  0  0  0  0  0  0  0  0  0  0  0
    2.7270    0.8865   -0.1255 H   0  0  0  0  0  0  0  0  0  0  0  0
    1.4628   -0.6736   -1.1673 H   0  0  0  0  0  0  0  0  0  0  0  0
    2.8426   -2.1027   -0.0904 H   0  0  0  0  0  0  0  0  0  0  0  0
    1.9445   -3.1955    0.9815 H   0  0  0  0  0  0  0  0  0  0  0  0
    1.2707   -2.7770   -0.6468 H   0  0  0  0  0  0  0  0  0  0  0  0
  1  2  1  0
  2  3  1  0
  3  4  1  0
  4  5  1  0
  5  6  1  0
  6  7  1  0
  7  8  1  0
  8  9  1  0
  7  3  1  0
  1 10  1  0
  1 11  1  0
  1 12  1  0
  2 13  1  0
  2 14  1  0
  3 15  1  0
  4 16  1  0
  4 17  1  0
  5 18  1  0
  5 19  1  0
  6 20  1  0
  6 21  1  0
  7 22  1  0
  9 23  1  0
  9 24  1  0
  9 25  1  0
M  END
