
     RDKit          3D

 23 23  0  0  0  0  0  0  0  0999 V2000
    3.0620    0.6294    0.0418 C   0  0  0  0  0  0  0  0  0  0  0  0
    2.2414   -0.4930   -0.5849 C   0  0  0  0  0  0  0  0  0  0  0  0
    0.7907   -0.1727   -0.3170 C   0  0  0  0  0  0  0  0  0  0  0  0
   -0.1221   -1.2010   -0.8826 C   0  0  0  0  0  0  0  0  0  0  0  0
   -1.3553   -1.2429   -0.3938 C   0  0  0  0  0  0  0  0  0  0  0  0
   -1.8282   -0.3107    0.6755 C   0  0  0  0  0  0  0  0  0  0  0  0
   -2.8664    0.5947    0.0130 C   0  0  0  0  0  0  0  0  0  0  0  0
   -0.7051    0.5575    1.1793 C   0  0  0  0  0  0  0  0  0  0  0  0
    0.5174   -0.1008    1.0496 O   0  0  0  0  0  0  0  0  0  0  0  0
    4.0998    0.3483    0.2159 H   0  0  0  0  0  0  0  0  0  0  0  0
    2.9452    1.5026   -0.6559 H   0  0  0  0  0  0  0  0  0  0  0  0
    2.5275    0.9512    0.9828 H   0  0  0  0  0  0  0  0  0  0  0  0
    2.4152   -0.4976   -1.6711 H   0  0  0  0  0  0  0  0  0  0  0  0
    2.5494   -1.4588   -0.1858 H   0  0  0  0  0  0  0  0  0  0  0  0
    0.5087    0.7905   -0.7822 H   0  0  0  0  0  0  0  0  0  0  0  0
    0.2525   -1.8591   -1.6549 H   0  0  0  0  0  0  0  0  0  0  0  0
   -2.0240   -1.9763   -0.7895 H   0  0  0  0  0  0  0  0  0  0  0  0
   -2.2514   -0.8604    1.5342 H   0  0  0  0  0  0  0  0  0  0  0  0
   -3.2187    1.3855    0.7015 H   0  0  0  0  0  0  0  0  0  0  0  0
   -3.6909   -0.0179   -0.3476 H   0  0  0  0  0  0  0  0  0  0  0  0
   -2.3399    1.0612   -0.8650 H   0  0  0  0  0  0  0  0  0  0  0  0
   -0.6283    1.4672    0.5151 H   0  0  0  0  0  0  0  0  0  0  0  0
   -0.8795    0.9033    2.2219 H   0  0  0  0  0  0  0  0  0  0  0  0
  1  2  1  0
  2  3  1  0
  3  4  1  0
  4  5  2  0
  5  6  1  0
  6  7  1  0
  6  8  1  0
  8  9  1  0
  9  3  1  0
  1 10  1  0
  1 11  1  0
  1 12  1  0
  2 13  1  0
  2 14  1  0
  3 15  1  0
  4 16  1  0
  5 17  1  0
  6 18  1  0
  7 19  1  0
  7 20  1  0
  7 21  1  0
  8 22  1  0
  8 23  1  0
M  END
