
     RDKit          3D

 21 22  0  0  0  0  0  0  0  0999 V2000
   -2.5544    0.8646    0.0350 C   0  0  0  0  0  0  0  0  0  0  0  0
   -1.7459   -0.3955    0.2946 C   0  0  0  0  0  0  0  0  0  0  0  0
   -0.3009   -0.0799    0.5775 C   0  0  0  0  0  0  0  0  0  0  0  0
    0.5682   -1.2686    0.8449 C   0  0  0  0  0  0  0  0  0  0  0  0
    1.5582   -1.4503   -0.2524 C   0  0  0  0  0  0  0  0  0  0  0  0
    2.2411   -0.3624   -0.5944 C   0  0  0  0  0  0  0  0  0  0  0  0
    1.9025    0.8840    0.1860 C   0  0  0  0  0  0  0  0  0  0  0  0
    0.3845    1.0812    0.1913 C   0  0  0  0  0  0  0  0  0  0  0  0
   -0.1782    1.0310    1.4535 O   0  0  0  0  0  0  0  0  0  0  0  0
   -2.3875    1.6423    0.7917 H   0  0  0  0  0  0  0  0  0  0  0  0
   -2.3515    1.2876   -0.9451 H   0  0  0  0  0  0  0  0  0  0  0  0
   -3.6366    0.5587    0.1072 H   0  0  0  0  0  0  0  0  0  0  0  0
   -2.1931   -0.9710    1.1331 H   0  0  0  0  0  0  0  0  0  0  0  0
   -1.8621   -1.0332   -0.6202 H   0  0  0  0  0  0  0  0  0  0  0  0
   -0.0062   -2.1972    1.0376 H   0  0  0  0  0  0  0  0  0  0  0  0
    1.1535   -1.0701    1.7822 H   0  0  0  0  0  0  0  0  0  0  0  0
    1.7247   -2.3989   -0.7510 H   0  0  0  0  0  0  0  0  0  0  0  0
    2.9690   -0.3964   -1.3671 H   0  0  0  0  0  0  0  0  0  0  0  0
    2.4262    1.7679   -0.2314 H   0  0  0  0  0  0  0  0  0  0  0  0
    2.2976    0.7363    1.2114 H   0  0  0  0  0  0  0  0  0  0  0  0
   -0.0090    1.7698   -0.5717 H   0  0  0  0  0  0  0  0  0  0  0  0
  1  2  1  0
  2  3  1  0
  3  4  1  0
  4  5  1  0
  5  6  2  0
  6  7  1  0
  7  8  1  0
  8  9  1  0
  8  3  1  0
  9  3  1  0
  1 10  1  0
  1 11  1  0
  1 12  1  0
  2 13  1  0
  2 14  1  0
  4 15  1  0
  4 16  1  0
  5 17  1  0
  6 18  1  0
  7 19  1  0
  7 20  1  0
  8 21  1  0
M  END
