
     RDKit          3D

 18 19  0  0  0  0  0  0  0  0999 V2000
   -2.3199    0.1522    0.1836 C   0  0  0  0  0  0  0  0  0  0  0  0
   -1.2041   -0.0916   -0.7752 C   0  0  0  0  0  0  0  0  0  0  0  0
    0.1197   -0.2253   -0.2136 C   0  0  0  0  0  0  0  0  0  0  0  0
    1.2802   -0.4703   -1.1158 C   0  0  0  0  0  0  0  0  0  0  0  0
    2.2820   -0.5012   -0.2294 C   0  0  0  0  0  0  0  0  0  0  0  0
    1.5232   -0.3154    1.0585 C   0  0  0  0  0  0  0  0  0  0  0  0
    0.6422    0.8607    0.7087 C   0  0  0  0  0  0  0  0  0  0  0  0
    0.3775   -1.1082    0.8145 O   0  0  0  0  0  0  0  0  0  0  0  0
   -2.7563   -0.7748    0.6051 H   0  0  0  0  0  0  0  0  0  0  0  0
   -3.1506    0.6596   -0.3610 H   0  0  0  0  0  0  0  0  0  0  0  0
   -1.9869    0.7698    1.0526 H   0  0  0  0  0  0  0  0  0  0  0  0
   -1.2078    0.7764   -1.4992 H   0  0  0  0  0  0  0  0  0  0  0  0
   -1.4774   -0.9701   -1.3950 H   0  0  0  0  0  0  0  0  0  0  0  0
    1.3387   -0.5940   -2.1895 H   0  0  0  0  0  0  0  0  0  0  0  0
    3.3486   -0.6221   -0.3453 H   0  0  0  0  0  0  0  0  0  0  0  0
    2.0182   -0.3790    1.9781 H   0  0  0  0  0  0  0  0  0  0  0  0
    1.1844    1.6808    0.1924 H   0  0  0  0  0  0  0  0  0  0  0  0
   -0.0116    1.1528    1.5306 H   0  0  0  0  0  0  0  0  0  0  0  0
  1  2  1  0
  2  3  1  0
  3  4  1  0
  4  5  2  0
  5  6  1  0
  6  7  1  0
  6  8  1  0
  7  3  1  0
  8  3  1  0
  1  9  1  0
  1 10  1  0
  1 11  1  0
  2 12  1  0
  2 13  1  0
  4 14  1  0
  5 15  1  0
  6 16  1  0
  7 17  1  0
  7 18  1  0
M  END
