
     RDKit          3D

 21 22  0  0  0  0  0  0  0  0999 V2000
    2.7500    0.2967   -0.1237 C   0  0  0  0  0  0  0  0  0  0  0  0
    1.6878   -0.7597    0.1094 C   0  0  0  0  0  0  0  0  0  0  0  0
    0.3332   -0.1756    0.0682 C   0  0  0  0  0  0  0  0  0  0  0  0
    0.0036    1.0955   -0.1398 C   0  0  0  0  0  0  0  0  0  0  0  0
   -1.4875    1.2380    0.0624 C   0  0  0  0  0  0  0  0  0  0  0  0
   -1.6818    0.1369    1.1221 C   0  0  0  0  0  0  0  0  0  0  0  0
   -0.9315   -0.8965    0.2516 C   0  0  0  0  0  0  0  0  0  0  0  0
   -1.7243   -0.6958   -1.0230 C   0  0  0  0  0  0  0  0  0  0  0  0
   -2.1093    0.6509   -1.0180 O   0  0  0  0  0  0  0  0  0  0  0  0
    2.9152    0.8422    0.8204 H   0  0  0  0  0  0  0  0  0  0  0  0
    2.4680    0.9923   -0.9569 H   0  0  0  0  0  0  0  0  0  0  0  0
    3.6606   -0.2256   -0.4413 H   0  0  0  0  0  0  0  0  0  0  0  0
    1.9175   -1.2277    1.0922 H   0  0  0  0  0  0  0  0  0  0  0  0
    1.7419   -1.5174   -0.7173 H   0  0  0  0  0  0  0  0  0  0  0  0
    0.6861    1.8980   -0.4092 H   0  0  0  0  0  0  0  0  0  0  0  0
   -1.8144    2.1966    0.3589 H   0  0  0  0  0  0  0  0  0  0  0  0
   -1.1376    0.3593    2.0387 H   0  0  0  0  0  0  0  0  0  0  0  0
   -2.7276   -0.1394    1.2301 H   0  0  0  0  0  0  0  0  0  0  0  0
   -0.9098   -1.8735    0.6546 H   0  0  0  0  0  0  0  0  0  0  0  0
   -2.5921   -1.3758   -1.0866 H   0  0  0  0  0  0  0  0  0  0  0  0
   -1.0479   -0.8196   -1.8927 H   0  0  0  0  0  0  0  0  0  0  0  0
  1  2  1  0
  2  3  1  0
  3  4  2  0
  4  5  1  0
  5  6  1  0
  6  7  1  0
  7  8  1  0
  8  9  1  0
  7  3  1  0
  9  5  1  0
  1 10  1  0
  1 11  1  0
  1 12  1  0
  2 13  1  0
  2 14  1  0
  4 15  1  0
  5 16  1  0
  6 17  1  0
  6 18  1  0
  7 19  1  0
  8 20  1  0
  8 21  1  0
M  END
