
     RDKit          3D

 15 15  0  0  0  0  0  0  0  0999 V2000
    1.5466    0.2270    0.3314 C   0  0  0  0  0  0  0  0  0  0  0  0
    0.9009   -0.8588   -0.5209 C   0  0  0  0  0  0  0  0  0  0  0  0
   -0.5127   -0.3973   -0.8040 C   0  0  0  0  0  0  0  0  0  0  0  0
   -1.3324   -0.1939    0.4539 C   0  0  0  0  0  0  0  0  0  0  0  0
   -1.2984    1.2825    0.1995 C   0  0  0  0  0  0  0  0  0  0  0  0
   -1.7174    2.2477    0.8757 O   0  0  0  0  0  0  0  0  0  0  0  0
   -0.6554    0.9989   -0.9921 O   0  0  0  0  0  0  0  0  0  0  0  0
    1.2250    1.2222   -0.0383 H   0  0  0  0  0  0  0  0  0  0  0  0
    1.1735    0.1137    1.3626 H   0  0  0  0  0  0  0  0  0  0  0  0
    2.6498    0.2051    0.2710 H   0  0  0  0  0  0  0  0  0  0  0  0
    1.4333   -1.0156   -1.4657 H   0  0  0  0  0  0  0  0  0  0  0  0
    0.8397   -1.8204    0.0392 H   0  0  0  0  0  0  0  0  0  0  0  0
   -1.0577   -1.0394   -1.5052 H   0  0  0  0  0  0  0  0  0  0  0  0
   -2.3805   -0.5291    0.3965 H   0  0  0  0  0  0  0  0  0  0  0  0
   -0.8143   -0.4427    1.3965 H   0  0  0  0  0  0  0  0  0  0  0  0
  1  2  1  0
  2  3  1  0
  3  4  1  0
  4  5  1  0
  5  6  2  0
  5  7  1  0
  7  3  1  0
  1  8  1  0
  1  9  1  0
  1 10  1  0
  2 11  1  0
  2 12  1  0
  3 13  1  0
  4 14  1  0
  4 15  1  0
M  END
