
     RDKit          3D

 19 19  0  0  0  0  0  0  0  0999 V2000
    1.9754    0.4502    0.5424 C   0  0  0  0  0  0  0  0  0  0  0  0
    1.3793    0.3022   -0.8175 C   0  0  0  0  0  0  0  0  0  0  0  0
    0.0150   -0.3395   -0.7947 C   0  0  0  0  0  0  0  0  0  0  0  0
    0.0405   -1.6165   -0.2431 O   0  0  0  0  0  0  0  0  0  0  0  0
   -1.3440   -1.8770   -0.0967 C   0  0  0  0  0  0  0  0  0  0  0  0
   -1.7478   -0.5717    0.5450 C   0  0  0  0  0  0  0  0  0  0  0  0
   -0.9190    0.3663    0.1197 C   0  0  0  0  0  0  0  0  0  0  0  0
   -0.9109    1.7770    0.4614 C   0  0  0  0  0  0  0  0  0  0  0  0
   -1.7847    2.1968    1.2576 O   0  0  0  0  0  0  0  0  0  0  0  0
    1.2358    0.7729    1.3125 H   0  0  0  0  0  0  0  0  0  0  0  0
    2.3893   -0.5091    0.9047 H   0  0  0  0  0  0  0  0  0  0  0  0
    2.7912    1.2032    0.4743 H   0  0  0  0  0  0  0  0  0  0  0  0
    2.0394   -0.3818   -1.4080 H   0  0  0  0  0  0  0  0  0  0  0  0
    1.3387    1.2621   -1.3291 H   0  0  0  0  0  0  0  0  0  0  0  0
   -0.4162   -0.4455   -1.8065 H   0  0  0  0  0  0  0  0  0  0  0  0
   -1.5105   -2.6653    0.6426 H   0  0  0  0  0  0  0  0  0  0  0  0
   -1.8194   -2.0245   -1.0656 H   0  0  0  0  0  0  0  0  0  0  0  0
   -2.5526   -0.3855    1.2286 H   0  0  0  0  0  0  0  0  0  0  0  0
   -0.1994    2.4858    0.0723 H   0  0  0  0  0  0  0  0  0  0  0  0
  1  2  1  0
  2  3  1  0
  3  4  1  0
  4  5  1  0
  5  6  1  0
  6  7  2  0
  7  8  1  0
  8  9  2  0
  7  3  1  0
  1 10  1  0
  1 11  1  0
  1 12  1  0
  2 13  1  0
  2 14  1  0
  3 15  1  0
  5 16  1  0
  5 17  1  0
  6 18  1  0
  8 19  1  0
M  END
