
     RDKit          3D

 21 22  0  0  0  0  0  0  0  0999 V2000
   -2.4295    0.2770   -0.4819 C   0  0  0  0  0  0  0  0  0  0  0  0
   -1.6376   -0.4807    0.5154 C   0  0  0  0  0  0  0  0  0  0  0  0
   -0.1776   -0.2934    0.4633 C   0  0  0  0  0  0  0  0  0  0  0  0
    0.5681   -1.0011    1.3955 O   0  0  0  0  0  0  0  0  0  0  0  0
    1.0589   -1.7708    0.3482 C   0  0  0  0  0  0  0  0  0  0  0  0
    0.6684   -0.7507   -0.6621 C   0  0  0  0  0  0  0  0  0  0  0  0
    0.5430    0.6919   -0.3353 C   0  0  0  0  0  0  0  0  0  0  0  0
    1.6949    1.3863    0.4055 C   0  0  0  0  0  0  0  0  0  0  0  0
    2.3403    2.3027   -0.3875 O   0  0  0  0  0  0  0  0  0  0  0  0
   -2.8567   -0.4571   -1.2167 H   0  0  0  0  0  0  0  0  0  0  0  0
   -3.3348    0.7783   -0.0282 H   0  0  0  0  0  0  0  0  0  0  0  0
   -1.9058    1.0464   -1.0409 H   0  0  0  0  0  0  0  0  0  0  0  0
   -1.8612   -1.5882    0.4855 H   0  0  0  0  0  0  0  0  0  0  0  0
   -1.9936   -0.1703    1.5409 H   0  0  0  0  0  0  0  0  0  0  0  0
    2.1265   -2.0268    0.3895 H   0  0  0  0  0  0  0  0  0  0  0  0
    0.4313   -2.6939    0.2626 H   0  0  0  0  0  0  0  0  0  0  0  0
    0.1958   -1.1249   -1.5787 H   0  0  0  0  0  0  0  0  0  0  0  0
    0.1131    1.3213   -1.1130 H   0  0  0  0  0  0  0  0  0  0  0  0
    1.2016    1.9690    1.2378 H   0  0  0  0  0  0  0  0  0  0  0  0
    2.3514    0.6487    0.8855 H   0  0  0  0  0  0  0  0  0  0  0  0
    2.9034    1.9365   -1.0854 H   0  0  0  0  0  0  0  0  0  0  0  0
  1  2  1  0
  2  3  1  0
  3  4  1  0
  4  5  1  0
  5  6  1  0
  6  7  1  0
  7  8  1  0
  8  9  1  0
  6  3  1  0
  7  3  1  0
  1 10  1  0
  1 11  1  0
  1 12  1  0
  2 13  1  0
  2 14  1  0
  5 15  1  0
  5 16  1  0
  6 17  1  0
  7 18  1  0
  8 19  1  0
  8 20  1  0
  9 21  1  0
M  END
