
     RDKit          3D

 21 21  0  0  0  0  0  0  0  0999 V2000
    2.2545   -0.3295   -0.3382 C   0  0  0  0  0  0  0  0  0  0  0  0
    0.7749   -0.5532   -0.6789 C   0  0  0  0  0  0  0  0  0  0  0  0
   -0.0155    0.3219    0.2453 C   0  0  0  0  0  0  0  0  0  0  0  0
    0.3356    1.7602    0.0676 C   0  0  0  0  0  0  0  0  0  0  0  0
    0.1163   -0.1357    1.5605 O   0  0  0  0  0  0  0  0  0  0  0  0
   -0.9879   -0.9865    1.3219 C   0  0  0  0  0  0  0  0  0  0  0  0
   -1.4895    0.0141    0.3484 C   0  0  0  0  0  0  0  0  0  0  0  0
   -2.1296   -0.4501   -0.8710 C   0  0  0  0  0  0  0  0  0  0  0  0
   -1.8933    0.0923   -1.9253 O   0  0  0  0  0  0  0  0  0  0  0  0
    2.9162   -0.9793   -0.9060 H   0  0  0  0  0  0  0  0  0  0  0  0
    2.4707    0.7572   -0.4472 H   0  0  0  0  0  0  0  0  0  0  0  0
    2.3974   -0.5428    0.7613 H   0  0  0  0  0  0  0  0  0  0  0  0
    0.6555   -0.2520   -1.7490 H   0  0  0  0  0  0  0  0  0  0  0  0
    0.5979   -1.6256   -0.5606 H   0  0  0  0  0  0  0  0  0  0  0  0
    0.7328    1.9089   -0.9517 H   0  0  0  0  0  0  0  0  0  0  0  0
    1.0814    2.0551    0.8138 H   0  0  0  0  0  0  0  0  0  0  0  0
   -0.6111    2.3495    0.1525 H   0  0  0  0  0  0  0  0  0  0  0  0
   -1.6056   -1.0066    2.2660 H   0  0  0  0  0  0  0  0  0  0  0  0
   -0.7367   -1.9756    0.9420 H   0  0  0  0  0  0  0  0  0  0  0  0
   -2.0474    0.8521    0.8073 H   0  0  0  0  0  0  0  0  0  0  0  0
   -2.8167   -1.2744   -0.8587 H   0  0  0  0  0  0  0  0  0  0  0  0
  1  2  1  0
  2  3  1  0
  3  4  1  0
  3  5  1  0
  5  6  1  0
  6  7  1  0
  7  8  1  0
  8  9  2  0
  7  3  1  0
  1 10  1  0
  1 11  1  0
  1 12  1  0
  2 13  1  0
  2 14  1  0
  4 15  1  0
  4 16  1  0
  4 17  1  0
  6 18  1  0
  6 19  1  0
  7 20  1  0
  8 21  1  0
M  END
