
     RDKit          3D

 21 22  0  0  0  0  0  0  0  0999 V2000
    2.6083    0.1640   -0.4105 C   0  0  0  0  0  0  0  0  0  0  0  0
    1.3516   -0.6992   -0.2407 C   0  0  0  0  0  0  0  0  0  0  0  0
    0.3619    0.1033    0.5596 C   0  0  0  0  0  0  0  0  0  0  0  0
    0.0295    1.3130   -0.1083 O   0  0  0  0  0  0  0  0  0  0  0  0
   -1.2638    1.7441    0.2592 C   0  0  0  0  0  0  0  0  0  0  0  0
   -2.2653    0.9244   -0.3270 O   0  0  0  0  0  0  0  0  0  0  0  0
   -1.6389   -0.2268   -0.6505 C   0  0  0  0  0  0  0  0  0  0  0  0
   -1.6163   -1.5261   -0.1012 C   0  0  0  0  0  0  0  0  0  0  0  0
   -0.9286   -0.5953    0.7017 C   0  0  0  0  0  0  0  0  0  0  0  0
    3.2852    0.0195    0.4683 H   0  0  0  0  0  0  0  0  0  0  0  0
    3.0783   -0.1815   -1.3561 H   0  0  0  0  0  0  0  0  0  0  0  0
    2.2473    1.2059   -0.4890 H   0  0  0  0  0  0  0  0  0  0  0  0
    1.6659   -1.5489    0.3989 H   0  0  0  0  0  0  0  0  0  0  0  0
    0.9749   -1.0075   -1.2311 H   0  0  0  0  0  0  0  0  0  0  0  0
    0.8392    0.4013    1.4932 H   0  0  0  0  0  0  0  0  0  0  0  0
   -1.3400    1.7585    1.3555 H   0  0  0  0  0  0  0  0  0  0  0  0
   -1.3759    2.7708   -0.0969 H   0  0  0  0  0  0  0  0  0  0  0  0
   -0.9622   -0.0502   -1.5411 H   0  0  0  0  0  0  0  0  0  0  0  0
   -2.5656   -1.9851    0.2968 H   0  0  0  0  0  0  0  0  0  0  0  0
   -1.0325   -2.3285   -0.6266 H   0  0  0  0  0  0  0  0  0  0  0  0
   -1.4529   -0.2555    1.6457 H   0  0  0  0  0  0  0  0  0  0  0  0
  1  2  1  0
  2  3  1  0
  3  4  1  0
  4  5  1  0
  5  6  1  0
  6  7  1  0
  7  8  1  0
  8  9  1  0
  9  3  1  0
  9  7  1  0
  1 10  1  0
  1 11  1  0
  1 12  1  0
  2 13  1  0
  2 14  1  0
  3 15  1  0
  5 16  1  0
  5 17  1  0
  7 18  1  0
  8 19  1  0
  8 20  1  0
  9 21  1  0
M  END
