
     RDKit          3D

 21 22  0  0  0  0  0  0  0  0999 V2000
    2.7757    0.4525   -0.2873 C   0  0  0  0  0  0  0  0  0  0  0  0
    1.8269   -0.3489    0.5598 C   0  0  0  0  0  0  0  0  0  0  0  0
    0.4561   -0.3390    0.0276 C   0  0  0  0  0  0  0  0  0  0  0  0
   -0.0325    0.2711   -1.0743 C   0  0  0  0  0  0  0  0  0  0  0  0
   -1.4568   -0.1217   -1.1441 C   0  0  0  0  0  0  0  0  0  0  0  0
   -2.2559    0.6104   -0.0893 C   0  0  0  0  0  0  0  0  0  0  0  0
   -1.6307    0.0150    1.1817 C   0  0  0  0  0  0  0  0  0  0  0  0
   -0.7089   -1.0266    0.6219 C   0  0  0  0  0  0  0  0  0  0  0  0
   -1.4027   -1.4082   -0.5530 O   0  0  0  0  0  0  0  0  0  0  0  0
    2.4714    1.5170   -0.2699 H   0  0  0  0  0  0  0  0  0  0  0  0
    2.8005    0.0354   -1.3125 H   0  0  0  0  0  0  0  0  0  0  0  0
    3.7985    0.3183    0.1624 H   0  0  0  0  0  0  0  0  0  0  0  0
    2.1768   -1.4127    0.6177 H   0  0  0  0  0  0  0  0  0  0  0  0
    1.8229    0.0527    1.5905 H   0  0  0  0  0  0  0  0  0  0  0  0
    0.5532    0.9081   -1.7338 H   0  0  0  0  0  0  0  0  0  0  0  0
   -1.8936   -0.1221   -2.1282 H   0  0  0  0  0  0  0  0  0  0  0  0
   -2.1327    1.6969   -0.1258 H   0  0  0  0  0  0  0  0  0  0  0  0
   -3.3224    0.2841   -0.1783 H   0  0  0  0  0  0  0  0  0  0  0  0
   -0.9833    0.8277    1.6086 H   0  0  0  0  0  0  0  0  0  0  0  0
   -2.3797   -0.3553    1.8773 H   0  0  0  0  0  0  0  0  0  0  0  0
   -0.4829   -1.8546    1.2714 H   0  0  0  0  0  0  0  0  0  0  0  0
  1  2  1  0
  2  3  1  0
  3  4  2  0
  4  5  1  0
  5  6  1  0
  6  7  1  0
  7  8  1  0
  8  9  1  0
  8  3  1  0
  9  5  1  0
  1 10  1  0
  1 11  1  0
  1 12  1  0
  2 13  1  0
  2 14  1  0
  4 15  1  0
  5 16  1  0
  6 17  1  0
  6 18  1  0
  7 19  1  0
  7 20  1  0
  8 21  1  0
M  END
