
     RDKit          3D

 22 23  0  0  0  0  0  0  0  0999 V2000
   -2.6474    0.0814    0.5700 C   0  0  0  0  0  0  0  0  0  0  0  0
   -1.7278    0.3883   -0.6155 C   0  0  0  0  0  0  0  0  0  0  0  0
   -0.4244    0.0991   -0.3407 C   0  0  0  0  0  0  0  0  0  0  0  0
    0.7752    0.2622   -1.2456 C   0  0  0  0  0  0  0  0  0  0  0  0
    1.3439   -0.3169    0.0220 C   0  0  0  0  0  0  0  0  0  0  0  0
    2.6551   -0.6015    0.3037 C   0  0  0  0  0  0  0  0  0  0  0  0
    0.4430    0.6617    0.7374 C   0  0  0  0  0  0  0  0  0  0  0  0
    0.1663   -1.2421    0.0142 C   0  0  0  0  0  0  0  0  0  0  0  0
   -3.5937   -0.3638    0.2647 H   0  0  0  0  0  0  0  0  0  0  0  0
   -2.1354   -0.6736    1.2312 H   0  0  0  0  0  0  0  0  0  0  0  0
   -2.7344    1.0027    1.1503 H   0  0  0  0  0  0  0  0  0  0  0  0
   -2.1522   -0.2108   -1.4611 H   0  0  0  0  0  0  0  0  0  0  0  0
   -1.9075    1.4459   -0.8990 H   0  0  0  0  0  0  0  0  0  0  0  0
    1.0301    1.3256   -1.3379 H   0  0  0  0  0  0  0  0  0  0  0  0
    0.8044   -0.3604   -2.1375 H   0  0  0  0  0  0  0  0  0  0  0  0
    2.7811   -1.4998    0.9586 H   0  0  0  0  0  0  0  0  0  0  0  0
    3.2967   -0.7289   -0.5971 H   0  0  0  0  0  0  0  0  0  0  0  0
    3.1621    0.2256    0.8854 H   0  0  0  0  0  0  0  0  0  0  0  0
    0.1912    0.3947    1.7709 H   0  0  0  0  0  0  0  0  0  0  0  0
    0.6804    1.7143    0.5436 H   0  0  0  0  0  0  0  0  0  0  0  0
   -0.1758   -1.6236    0.9779 H   0  0  0  0  0  0  0  0  0  0  0  0
    0.1689   -1.9957   -0.7952 H   0  0  0  0  0  0  0  0  0  0  0  0
  1  2  1  0
  2  3  1  0
  3  4  1  0
  4  5  1  0
  5  6  1  0
  5  7  1  0
  5  8  1  0
  7  3  1  0
  8  3  1  0
  1  9  1  0
  1 10  1  0
  1 11  1  0
  2 12  1  0
  2 13  1  0
  4 14  1  0
  4 15  1  0
  6 16  1  0
  6 17  1  0
  6 18  1  0
  7 19  1  0
  7 20  1  0
  8 21  1  0
  8 22  1  0
M  END
