
     RDKit          3D

 23 23  0  0  0  0  0  0  0  0999 V2000
   -2.1696   -2.0150    0.4213 C   0  0  0  0  0  0  0  0  0  0  0  0
   -1.5000   -0.7795    0.9616 C   0  0  0  0  0  0  0  0  0  0  0  0
   -0.5434   -0.1808   -0.0482 C   0  0  0  0  0  0  0  0  0  0  0  0
    0.1990    1.0660    0.3631 C   0  0  0  0  0  0  0  0  0  0  0  0
    0.2320    2.1396   -0.6939 C   0  0  0  0  0  0  0  0  0  0  0  0
    0.9348    3.2519   -0.2325 O   0  0  0  0  0  0  0  0  0  0  0  0
    0.9382   -0.1772    0.2718 C   0  0  0  0  0  0  0  0  0  0  0  0
    1.8301   -0.5510   -0.8701 C   0  0  0  0  0  0  0  0  0  0  0  0
    3.1748   -0.5143   -0.4604 O   0  0  0  0  0  0  0  0  0  0  0  0
   -1.8886   -2.9184    1.0001 H   0  0  0  0  0  0  0  0  0  0  0  0
   -3.2783   -1.9419    0.4701 H   0  0  0  0  0  0  0  0  0  0  0  0
   -1.8479   -2.2171   -0.6284 H   0  0  0  0  0  0  0  0  0  0  0  0
   -2.2437   -0.0394    1.3118 H   0  0  0  0  0  0  0  0  0  0  0  0
   -0.8868   -1.0610    1.8509 H   0  0  0  0  0  0  0  0  0  0  0  0
   -0.8545   -0.3199   -1.0931 H   0  0  0  0  0  0  0  0  0  0  0  0
   -0.0174    1.4701    1.3858 H   0  0  0  0  0  0  0  0  0  0  0  0
    0.6472    1.8152   -1.6506 H   0  0  0  0  0  0  0  0  0  0  0  0
   -0.8416    2.4499   -0.8539 H   0  0  0  0  0  0  0  0  0  0  0  0
    0.3251    4.0148   -0.0610 H   0  0  0  0  0  0  0  0  0  0  0  0
    1.1914   -0.6989    1.2244 H   0  0  0  0  0  0  0  0  0  0  0  0
    1.6316   -1.6224   -1.1213 H   0  0  0  0  0  0  0  0  0  0  0  0
    1.6659    0.0331   -1.7769 H   0  0  0  0  0  0  0  0  0  0  0  0
    3.3015   -1.2037    0.2296 H   0  0  0  0  0  0  0  0  0  0  0  0
  1  2  1  0
  2  3  1  0
  3  4  1  0
  4  5  1  0
  5  6  1  0
  4  7  1  0
  7  8  1  0
  8  9  1  0
  7  3  1  0
  1 10  1  0
  1 11  1  0
  1 12  1  0
  2 13  1  0
  2 14  1  0
  3 15  1  0
  4 16  1  0
  5 17  1  0
  5 18  1  0
  6 19  1  0
  7 20  1  0
  8 21  1  0
  8 22  1  0
  9 23  1  0
M  END
