
     RDKit          3D

 23 24  0  0  0  0  0  0  0  0999 V2000
    1.4676   -1.6571    0.7530 C   0  0  0  0  0  0  0  0  0  0  0  0
    1.5774   -0.4175   -0.0745 C   0  0  0  0  0  0  0  0  0  0  0  0
    0.4114    0.4569   -0.1122 C   0  0  0  0  0  0  0  0  0  0  0  0
   -0.2182    1.1199    1.0353 C   0  0  0  0  0  0  0  0  0  0  0  0
   -0.9757    0.1869    0.1305 C   0  0  0  0  0  0  0  0  0  0  0  0
   -1.5836   -1.0129    0.7277 C   0  0  0  0  0  0  0  0  0  0  0  0
   -1.3617    0.6672   -1.2398 C   0  0  0  0  0  0  0  0  0  0  0  0
    0.0842    1.0709   -1.4691 C   0  0  0  0  0  0  0  0  0  0  0  0
    0.2483    2.4473   -1.5327 O   0  0  0  0  0  0  0  0  0  0  0  0
    2.4783   -1.9289    1.1245 H   0  0  0  0  0  0  0  0  0  0  0  0
    0.8471   -1.4858    1.6531 H   0  0  0  0  0  0  0  0  0  0  0  0
    1.1325   -2.5399    0.1630 H   0  0  0  0  0  0  0  0  0  0  0  0
    1.9037   -0.6752   -1.1032 H   0  0  0  0  0  0  0  0  0  0  0  0
    2.4416    0.1728    0.3553 H   0  0  0  0  0  0  0  0  0  0  0  0
   -0.5648    2.1759    0.9511 H   0  0  0  0  0  0  0  0  0  0  0  0
   -0.0542    0.7723    2.0655 H   0  0  0  0  0  0  0  0  0  0  0  0
   -1.1821   -1.9803    0.4233 H   0  0  0  0  0  0  0  0  0  0  0  0
   -1.4861   -0.9594    1.8420 H   0  0  0  0  0  0  0  0  0  0  0  0
   -2.6941   -1.0720    0.5282 H   0  0  0  0  0  0  0  0  0  0  0  0
   -2.0691    1.5127   -1.2818 H   0  0  0  0  0  0  0  0  0  0  0  0
   -1.6727   -0.1513   -1.8977 H   0  0  0  0  0  0  0  0  0  0  0  0
    0.5538    0.5247   -2.3115 H   0  0  0  0  0  0  0  0  0  0  0  0
    0.7164    2.7728   -0.7300 H   0  0  0  0  0  0  0  0  0  0  0  0
  1  2  1  0
  2  3  1  0
  3  4  1  0
  4  5  1  0
  5  6  1  0
  5  7  1  0
  7  8  1  0
  8  9  1  0
  5  3  1  0
  8  3  1  0
  1 10  1  0
  1 11  1  0
  1 12  1  0
  2 13  1  0
  2 14  1  0
  4 15  1  0
  4 16  1  0
  6 17  1  0
  6 18  1  0
  6 19  1  0
  7 20  1  0
  7 21  1  0
  8 22  1  0
  9 23  1  0
M  END
