
     RDKit          3D

 21 23  0  0  0  0  0  0  0  0999 V2000
   -2.6694   -0.8518   -0.2848 C   0  0  0  0  0  0  0  0  0  0  0  0
   -1.9608    0.3910    0.2420 C   0  0  0  0  0  0  0  0  0  0  0  0
   -0.6854   -0.0556    0.9767 C   0  0  0  0  0  0  0  0  0  0  0  0
    0.3923   -0.7988    0.3305 C   0  0  0  0  0  0  0  0  0  0  0  0
    1.8879   -0.4415    0.2866 C   0  0  0  0  0  0  0  0  0  0  0  0
    2.3706   -0.0806   -1.0185 C   0  0  0  0  0  0  0  0  0  0  0  0
    1.3967    0.8383   -0.3937 C   0  0  0  0  0  0  0  0  0  0  0  0
    0.4748    0.6977    0.7481 C   0  0  0  0  0  0  0  0  0  0  0  0
    1.2070    0.8572    1.9774 O   0  0  0  0  0  0  0  0  0  0  0  0
   -2.9802   -1.5326    0.5076 H   0  0  0  0  0  0  0  0  0  0  0  0
   -3.5465   -0.4972   -0.8748 H   0  0  0  0  0  0  0  0  0  0  0  0
   -1.9722   -1.3973   -0.9633 H   0  0  0  0  0  0  0  0  0  0  0  0
   -1.7052    1.0104   -0.6281 H   0  0  0  0  0  0  0  0  0  0  0  0
   -2.6273    0.8725    0.9529 H   0  0  0  0  0  0  0  0  0  0  0  0
   -0.9907   -0.5127    1.9647 H   0  0  0  0  0  0  0  0  0  0  0  0
    0.0328   -1.1076   -0.6593 H   0  0  0  0  0  0  0  0  0  0  0  0
    2.4402   -0.4006    1.2229 H   0  0  0  0  0  0  0  0  0  0  0  0
    1.9483   -0.6699   -1.8897 H   0  0  0  0  0  0  0  0  0  0  0  0
    3.4395    0.0870   -1.1461 H   0  0  0  0  0  0  0  0  0  0  0  0
    1.9415    1.8275   -0.2820 H   0  0  0  0  0  0  0  0  0  0  0  0
    1.6060    1.7645    2.0054 H   0  0  0  0  0  0  0  0  0  0  0  0
  1  2  1  0
  2  3  1  0
  3  4  1  0
  4  5  1  0
  5  6  1  0
  6  7  1  0
  7  8  1  0
  8  9  1  0
  8  3  1  0
  8  4  1  0
  7  5  1  0
  1 10  1  0
  1 11  1  0
  1 12  1  0
  2 13  1  0
  2 14  1  0
  3 15  1  0
  4 16  1  0
  5 17  1  0
  6 18  1  0
  6 19  1  0
  7 20  1  0
  9 21  1  0
M  END
