
     RDKit          3D

 20 21  0  0  0  0  0  0  0  0999 V2000
    2.3146    0.5211   -0.1988 C   0  0  0  0  0  0  0  0  0  0  0  0
    1.2470    0.3370    0.8907 C   0  0  0  0  0  0  0  0  0  0  0  0
   -0.0187    0.0090    0.1592 C   0  0  0  0  0  0  0  0  0  0  0  0
   -0.6045    0.9480   -0.8262 C   0  0  0  0  0  0  0  0  0  0  0  0
   -1.9030    1.1495   -0.3228 O   0  0  0  0  0  0  0  0  0  0  0  0
   -2.3418   -0.1489   -0.0630 C   0  0  0  0  0  0  0  0  0  0  0  0
   -1.1605   -0.6841    0.7595 C   0  0  0  0  0  0  0  0  0  0  0  0
   -0.2143   -1.4969   -0.0355 C   0  0  0  0  0  0  0  0  0  0  0  0
    1.8449    0.8966   -1.1261 H   0  0  0  0  0  0  0  0  0  0  0  0
    2.7341   -0.4850   -0.4428 H   0  0  0  0  0  0  0  0  0  0  0  0
    3.0919    1.2346    0.1185 H   0  0  0  0  0  0  0  0  0  0  0  0
    1.1907    1.2926    1.4278 H   0  0  0  0  0  0  0  0  0  0  0  0
    1.6071   -0.4701    1.5354 H   0  0  0  0  0  0  0  0  0  0  0  0
   -0.6279    0.5782   -1.8674 H   0  0  0  0  0  0  0  0  0  0  0  0
   -0.0919    1.9311   -0.7256 H   0  0  0  0  0  0  0  0  0  0  0  0
   -2.4363   -0.6652   -1.0248 H   0  0  0  0  0  0  0  0  0  0  0  0
   -3.2757   -0.1787    0.5016 H   0  0  0  0  0  0  0  0  0  0  0  0
   -1.3335   -0.8138    1.8236 H   0  0  0  0  0  0  0  0  0  0  0  0
    0.4253   -2.1916    0.5019 H   0  0  0  0  0  0  0  0  0  0  0  0
   -0.4476   -1.7632   -1.0853 H   0  0  0  0  0  0  0  0  0  0  0  0
  1  2  1  0
  2  3  1  0
  3  4  1  0
  4  5  1  0
  5  6  1  0
  6  7  1  0
  7  8  1  0
  7  3  1  0
  8  3  1  0
  1  9  1  0
  1 10  1  0
  1 11  1  0
  2 12  1  0
  2 13  1  0
  4 14  1  0
  4 15  1  0
  6 16  1  0
  6 17  1  0
  7 18  1  0
  8 19  1  0
  8 20  1  0
M  END
