
     RDKit          3D

 23 24  0  0  0  0  0  0  0  0999 V2000
   -2.0633   -1.2842   -0.0101 C   0  0  0  0  0  0  0  0  0  0  0  0
   -0.6738   -1.1070   -0.5906 C   0  0  0  0  0  0  0  0  0  0  0  0
    0.1458   -0.4028    0.4464 C   0  0  0  0  0  0  0  0  0  0  0  0
   -0.3357    0.9392    0.8669 C   0  0  0  0  0  0  0  0  0  0  0  0
   -1.4284    1.5777    0.0949 C   0  0  0  0  0  0  0  0  0  0  0  0
    0.8999    1.5462    0.6231 O   0  0  0  0  0  0  0  0  0  0  0  0
    1.2970    0.3900    0.0356 C   0  0  0  0  0  0  0  0  0  0  0  0
    2.6684   -0.1957    0.3272 C   0  0  0  0  0  0  0  0  0  0  0  0
    2.2042    0.2151   -1.0545 C   0  0  0  0  0  0  0  0  0  0  0  0
   -2.2539   -2.3575    0.2098 H   0  0  0  0  0  0  0  0  0  0  0  0
   -2.1934   -0.7512    0.9547 H   0  0  0  0  0  0  0  0  0  0  0  0
   -2.8520   -0.9271   -0.7042 H   0  0  0  0  0  0  0  0  0  0  0  0
   -0.7127   -0.5754   -1.5619 H   0  0  0  0  0  0  0  0  0  0  0  0
   -0.2524   -2.1032   -0.7948 H   0  0  0  0  0  0  0  0  0  0  0  0
    0.3651   -1.0828    1.2922 H   0  0  0  0  0  0  0  0  0  0  0  0
   -0.5521    0.9698    1.9633 H   0  0  0  0  0  0  0  0  0  0  0  0
   -2.3610    1.6295    0.7023 H   0  0  0  0  0  0  0  0  0  0  0  0
   -1.6456    1.1489   -0.8796 H   0  0  0  0  0  0  0  0  0  0  0  0
   -1.1293    2.6519   -0.0913 H   0  0  0  0  0  0  0  0  0  0  0  0
    3.3505    0.4520    0.8967 H   0  0  0  0  0  0  0  0  0  0  0  0
    2.7165   -1.2882    0.5484 H   0  0  0  0  0  0  0  0  0  0  0  0
    2.1173   -0.5857   -1.7898 H   0  0  0  0  0  0  0  0  0  0  0  0
    2.6887    1.1406   -1.4847 H   0  0  0  0  0  0  0  0  0  0  0  0
  1  2  1  0
  2  3  1  0
  3  4  1  0
  4  5  1  0
  4  6  1  0
  6  7  1  0
  7  8  1  0
  8  9  1  0
  7  3  1  0
  9  7  1  0
  1 10  1  0
  1 11  1  0
  1 12  1  0
  2 13  1  0
  2 14  1  0
  3 15  1  0
  4 16  1  0
  5 17  1  0
  5 18  1  0
  5 19  1  0
  8 20  1  0
  8 21  1  0
  9 22  1  0
  9 23  1  0
M  END
