
     RDKit          3D

 19 20  0  0  0  0  0  0  0  0999 V2000
    2.4217    0.4393   -0.1738 C   0  0  0  0  0  0  0  0  0  0  0  0
    1.1146   -0.0939    0.4200 C   0  0  0  0  0  0  0  0  0  0  0  0
    0.0753   -0.0724   -0.6358 C   0  0  0  0  0  0  0  0  0  0  0  0
    0.1317   -0.7371   -1.8050 O   0  0  0  0  0  0  0  0  0  0  0  0
   -0.5836   -1.4249   -0.8695 C   0  0  0  0  0  0  0  0  0  0  0  0
   -1.6621   -0.9122   -0.0186 C   0  0  0  0  0  0  0  0  0  0  0  0
   -1.3008    0.5027   -0.3568 C   0  0  0  0  0  0  0  0  0  0  0  0
   -1.3948    1.4370    0.7642 C   0  0  0  0  0  0  0  0  0  0  0  0
   -2.5004    1.5573    1.3080 O   0  0  0  0  0  0  0  0  0  0  0  0
    3.2330    0.0552    0.4514 H   0  0  0  0  0  0  0  0  0  0  0  0
    2.3735    1.5515   -0.2105 H   0  0  0  0  0  0  0  0  0  0  0  0
    2.5187   -0.0169   -1.1799 H   0  0  0  0  0  0  0  0  0  0  0  0
    1.3314   -1.1054    0.8064 H   0  0  0  0  0  0  0  0  0  0  0  0
    0.8081    0.5214    1.2850 H   0  0  0  0  0  0  0  0  0  0  0  0
   -0.0634   -2.3375   -0.5083 H   0  0  0  0  0  0  0  0  0  0  0  0
   -2.7003   -1.2156   -0.2349 H   0  0  0  0  0  0  0  0  0  0  0  0
   -1.4482   -1.1019    1.0658 H   0  0  0  0  0  0  0  0  0  0  0  0
   -1.7991    0.9209   -1.2577 H   0  0  0  0  0  0  0  0  0  0  0  0
   -0.5553    2.0326    1.1501 H   0  0  0  0  0  0  0  0  0  0  0  0
  1  2  1  0
  2  3  1  0
  3  4  1  0
  4  5  1  0
  5  6  1  0
  6  7  1  0
  7  8  1  0
  8  9  2  0
  5  3  1  0
  7  3  1  0
  1 10  1  0
  1 11  1  0
  1 12  1  0
  2 13  1  0
  2 14  1  0
  5 15  1  0
  6 16  1  0
  6 17  1  0
  7 18  1  0
  8 19  1  0
M  END
