
     RDKit          3D

 20 21  0  0  0  0  0  0  0  0999 V2000
    2.5318    0.2021    0.0365 C   0  0  0  0  0  0  0  0  0  0  0  0
    1.1701    0.5836   -0.5670 C   0  0  0  0  0  0  0  0  0  0  0  0
    0.2017   -0.4938   -0.2696 C   0  0  0  0  0  0  0  0  0  0  0  0
   -1.1779   -0.2386   -0.8198 C   0  0  0  0  0  0  0  0  0  0  0  0
   -1.5450    1.0622   -0.2246 C   0  0  0  0  0  0  0  0  0  0  0  0
   -1.0801    0.8702    1.0970 O   0  0  0  0  0  0  0  0  0  0  0  0
   -0.5466   -0.3809    1.0677 C   0  0  0  0  0  0  0  0  0  0  0  0
   -1.6246   -1.1814    0.3131 C   0  0  0  0  0  0  0  0  0  0  0  0
    2.6095    0.7009    1.0094 H   0  0  0  0  0  0  0  0  0  0  0  0
    3.3412    0.5533   -0.6228 H   0  0  0  0  0  0  0  0  0  0  0  0
    2.6093   -0.8979    0.1482 H   0  0  0  0  0  0  0  0  0  0  0  0
    0.8473    1.5664   -0.1818 H   0  0  0  0  0  0  0  0  0  0  0  0
    1.3249    0.6416   -1.6637 H   0  0  0  0  0  0  0  0  0  0  0  0
    0.5332   -1.5359   -0.4281 H   0  0  0  0  0  0  0  0  0  0  0  0
   -1.4161   -0.5138   -1.8074 H   0  0  0  0  0  0  0  0  0  0  0  0
   -2.6591    1.1530   -0.1989 H   0  0  0  0  0  0  0  0  0  0  0  0
   -1.0540    1.9395   -0.6318 H   0  0  0  0  0  0  0  0  0  0  0  0
   -0.1071   -0.8401    1.9148 H   0  0  0  0  0  0  0  0  0  0  0  0
   -1.3174   -2.2127    0.1426 H   0  0  0  0  0  0  0  0  0  0  0  0
   -2.6413   -0.9780    0.6398 H   0  0  0  0  0  0  0  0  0  0  0  0
  1  2  1  0
  2  3  1  0
  3  4  1  0
  4  5  1  0
  5  6  1  0
  6  7  1  0
  7  8  1  0
  7  3  1  0
  8  4  1  0
  1  9  1  0
  1 10  1  0
  1 11  1  0
  2 12  1  0
  2 13  1  0
  3 14  1  0
  4 15  1  0
  5 16  1  0
  5 17  1  0
  7 18  1  0
  8 19  1  0
  8 20  1  0
M  END
