
     RDKit          3D

 23 24  0  0  0  0  0  0  0  0999 V2000
   -1.8135    1.4060   -0.6910 C   0  0  0  0  0  0  0  0  0  0  0  0
   -1.4043   -0.0494   -0.9766 C   0  0  0  0  0  0  0  0  0  0  0  0
   -0.5550   -0.5193   -0.0155 C   0  0  0  0  0  0  0  0  0  0  0  0
   -0.8504   -0.6342    1.4725 C   0  0  0  0  0  0  0  0  0  0  0  0
    0.5486   -1.1703    1.3285 C   0  0  0  0  0  0  0  0  0  0  0  0
    0.0332   -1.8988    0.1136 C   0  0  0  0  0  0  0  0  0  0  0  0
    0.7789   -0.0036    0.3976 C   0  0  0  0  0  0  0  0  0  0  0  0
    1.7895   -0.1750   -0.5129 O   0  0  0  0  0  0  0  0  0  0  0  0
    2.5931    0.9585   -0.6328 C   0  0  0  0  0  0  0  0  0  0  0  0
   -1.4494    1.7181    0.3170 H   0  0  0  0  0  0  0  0  0  0  0  0
   -1.3199    2.0816   -1.4136 H   0  0  0  0  0  0  0  0  0  0  0  0
   -2.9086    1.5169   -0.6722 H   0  0  0  0  0  0  0  0  0  0  0  0
   -0.9640   -0.0668   -1.9976 H   0  0  0  0  0  0  0  0  0  0  0  0
   -2.3550   -0.6301   -1.0671 H   0  0  0  0  0  0  0  0  0  0  0  0
   -1.5873   -1.4126    1.7059 H   0  0  0  0  0  0  0  0  0  0  0  0
   -0.8954    0.3034    2.0247 H   0  0  0  0  0  0  0  0  0  0  0  0
    1.1559   -1.5128    2.0392 H   0  0  0  0  0  0  0  0  0  0  0  0
    0.7569   -2.1400   -0.6625 H   0  0  0  0  0  0  0  0  0  0  0  0
   -0.7471   -2.6280    0.3441 H   0  0  0  0  0  0  0  0  0  0  0  0
    0.7424    0.9880    0.8995 H   0  0  0  0  0  0  0  0  0  0  0  0
    3.0730    1.2275    0.3297 H   0  0  0  0  0  0  0  0  0  0  0  0
    1.9808    1.8231   -0.9524 H   0  0  0  0  0  0  0  0  0  0  0  0
    3.3974    0.8180   -1.3782 H   0  0  0  0  0  0  0  0  0  0  0  0
  1  2  1  0
  2  3  1  0
  3  4  1  0
  4  5  1  0
  5  6  1  0
  5  7  1  0
  7  8  1  0
  8  9  1  0
  6  3  1  0
  7  3  1  0
  1 10  1  0
  1 11  1  0
  1 12  1  0
  2 13  1  0
  2 14  1  0
  4 15  1  0
  4 16  1  0
  5 17  1  0
  6 18  1  0
  6 19  1  0
  7 20  1  0
  9 21  1  0
  9 22  1  0
  9 23  1  0
M  END
