
     RDKit          3D

 25 25  0  0  0  0  0  0  0  0999 V2000
    2.3546   -1.2643   -0.3320 C   0  0  0  0  0  0  0  0  0  0  0  0
    1.8798    0.1245   -0.7031 C   0  0  0  0  0  0  0  0  0  0  0  0
    1.2016    0.8232    0.4235 C   0  0  0  0  0  0  0  0  0  0  0  0
    0.7875    2.0951    0.0205 O   0  0  0  0  0  0  0  0  0  0  0  0
   -0.5090    1.9240    0.5601 C   0  0  0  0  0  0  0  0  0  0  0  0
   -0.1497    0.4926    0.8275 C   0  0  0  0  0  0  0  0  0  0  0  0
   -0.9504   -0.5528    0.1606 C   0  0  0  0  0  0  0  0  0  0  0  0
   -2.3101   -0.5952    0.8776 C   0  0  0  0  0  0  0  0  0  0  0  0
   -1.1893   -0.4178   -1.2882 C   0  0  0  0  0  0  0  0  0  0  0  0
    1.9731   -1.9458   -1.1479 H   0  0  0  0  0  0  0  0  0  0  0  0
    1.8981   -1.6262    0.6094 H   0  0  0  0  0  0  0  0  0  0  0  0
    3.4494   -1.3766   -0.3502 H   0  0  0  0  0  0  0  0  0  0  0  0
    2.8290    0.7110   -0.9006 H   0  0  0  0  0  0  0  0  0  0  0  0
    1.3387    0.1557   -1.6612 H   0  0  0  0  0  0  0  0  0  0  0  0
    1.9380    0.9636    1.2691 H   0  0  0  0  0  0  0  0  0  0  0  0
   -0.6877    2.5655    1.4384 H   0  0  0  0  0  0  0  0  0  0  0  0
   -1.2818    2.1071   -0.1984 H   0  0  0  0  0  0  0  0  0  0  0  0
   -0.2139    0.3223    1.9424 H   0  0  0  0  0  0  0  0  0  0  0  0
   -0.4892   -1.5393    0.3620 H   0  0  0  0  0  0  0  0  0  0  0  0
   -3.1208   -0.8613    0.1817 H   0  0  0  0  0  0  0  0  0  0  0  0
   -2.2816   -1.2608    1.7480 H   0  0  0  0  0  0  0  0  0  0  0  0
   -2.5627    0.4294    1.2720 H   0  0  0  0  0  0  0  0  0  0  0  0
   -1.0197    0.5931   -1.7101 H   0  0  0  0  0  0  0  0  0  0  0  0
   -0.6227   -1.2097   -1.8642 H   0  0  0  0  0  0  0  0  0  0  0  0
   -2.2614   -0.6573   -1.5370 H   0  0  0  0  0  0  0  0  0  0  0  0
  1  2  1  0
  2  3  1  0
  3  4  1  0
  4  5  1  0
  5  6  1  0
  6  7  1  0
  7  8  1  0
  7  9  1  0
  6  3  1  0
  1 10  1  0
  1 11  1  0
  1 12  1  0
  2 13  1  0
  2 14  1  0
  3 15  1  0
  5 16  1  0
  5 17  1  0
  6 18  1  0
  7 19  1  0
  8 20  1  0
  8 21  1  0
  8 22  1  0
  9 23  1  0
  9 24  1  0
  9 25  1  0
M  END
