
     RDKit          3D

 20 20  0  0  0  0  0  0  0  0999 V2000
    2.8219    0.0704   -0.2743 C   0  0  0  0  0  0  0  0  0  0  0  0
    1.4423    0.6003   -0.0137 C   0  0  0  0  0  0  0  0  0  0  0  0
    0.3769   -0.4571   -0.0822 C   0  0  0  0  0  0  0  0  0  0  0  0
    0.2412   -1.1226   -1.2729 O   0  0  0  0  0  0  0  0  0  0  0  0
   -1.1470   -1.1983   -1.0171 C   0  0  0  0  0  0  0  0  0  0  0  0
   -0.9947    0.1567   -0.3240 C   0  0  0  0  0  0  0  0  0  0  0  0
   -1.7889    0.2962    0.9468 C   0  0  0  0  0  0  0  0  0  0  0  0
   -3.0230    0.8550    0.6871 O   0  0  0  0  0  0  0  0  0  0  0  0
    2.9146   -0.4934   -1.2094 H   0  0  0  0  0  0  0  0  0  0  0  0
    3.1155   -0.5905    0.5776 H   0  0  0  0  0  0  0  0  0  0  0  0
    3.5194    0.9327   -0.2322 H   0  0  0  0  0  0  0  0  0  0  0  0
    1.2315    1.4103   -0.7207 H   0  0  0  0  0  0  0  0  0  0  0  0
    1.4347    1.0325    1.0045 H   0  0  0  0  0  0  0  0  0  0  0  0
    0.3165   -1.1314    0.7949 H   0  0  0  0  0  0  0  0  0  0  0  0
   -1.7799   -1.1903   -1.9107 H   0  0  0  0  0  0  0  0  0  0  0  0
   -1.4365   -1.9875   -0.3180 H   0  0  0  0  0  0  0  0  0  0  0  0
   -1.0076    1.0064   -1.0135 H   0  0  0  0  0  0  0  0  0  0  0  0
   -1.9063   -0.7083    1.3877 H   0  0  0  0  0  0  0  0  0  0  0  0
   -1.1786    0.9308    1.6405 H   0  0  0  0  0  0  0  0  0  0  0  0
   -3.1520    1.5881    1.3493 H   0  0  0  0  0  0  0  0  0  0  0  0
  1  2  1  0
  2  3  1  0
  3  4  1  0
  4  5  1  0
  5  6  1  0
  6  7  1  0
  7  8  1  0
  6  3  1  0
  1  9  1  0
  1 10  1  0
  1 11  1  0
  2 12  1  0
  2 13  1  0
  3 14  1  0
  5 15  1  0
  5 16  1  0
  6 17  1  0
  7 18  1  0
  7 19  1  0
  8 20  1  0
M  END
