
     RDKit          3D

 21 21  0  0  0  0  0  0  0  0999 V2000
   -2.1276   -0.6301    0.9256 C   0  0  0  0  0  0  0  0  0  0  0  0
   -1.5084   -0.4504   -0.4568 C   0  0  0  0  0  0  0  0  0  0  0  0
   -0.4583    0.5982   -0.3894 C   0  0  0  0  0  0  0  0  0  0  0  0
   -0.9893    1.9654    0.0623 C   0  0  0  0  0  0  0  0  0  0  0  0
    0.3566    0.6342   -1.5827 O   0  0  0  0  0  0  0  0  0  0  0  0
    0.9502    0.3855   -0.3446 C   0  0  0  0  0  0  0  0  0  0  0  0
    1.6216   -0.9273   -0.1704 C   0  0  0  0  0  0  0  0  0  0  0  0
    2.9911   -1.0668    0.3742 C   0  0  0  0  0  0  0  0  0  0  0  0
    1.0111   -1.9273   -0.4922 O   0  0  0  0  0  0  0  0  0  0  0  0
   -1.8613    0.1722    1.6160 H   0  0  0  0  0  0  0  0  0  0  0  0
   -3.2397   -0.6968    0.8708 H   0  0  0  0  0  0  0  0  0  0  0  0
   -1.7038   -1.5763    1.3635 H   0  0  0  0  0  0  0  0  0  0  0  0
   -2.3473   -0.0372   -1.0913 H   0  0  0  0  0  0  0  0  0  0  0  0
   -1.2210   -1.3916   -0.9208 H   0  0  0  0  0  0  0  0  0  0  0  0
   -0.2199    2.7039   -0.2607 H   0  0  0  0  0  0  0  0  0  0  0  0
   -1.9741    2.1708   -0.3587 H   0  0  0  0  0  0  0  0  0  0  0  0
   -0.9635    1.9494    1.1677 H   0  0  0  0  0  0  0  0  0  0  0  0
    1.5960    1.2485   -0.0191 H   0  0  0  0  0  0  0  0  0  0  0  0
    3.7407   -1.3556   -0.3902 H   0  0  0  0  0  0  0  0  0  0  0  0
    3.0294   -1.7192    1.2718 H   0  0  0  0  0  0  0  0  0  0  0  0
    3.3174   -0.0494    0.7333 H   0  0  0  0  0  0  0  0  0  0  0  0
  1  2  1  0
  2  3  1  0
  3  4  1  0
  3  5  1  0
  5  6  1  0
  6  7  1  0
  7  8  1  0
  7  9  2  0
  6  3  1  0
  1 10  1  0
  1 11  1  0
  1 12  1  0
  2 13  1  0
  2 14  1  0
  4 15  1  0
  4 16  1  0
  4 17  1  0
  6 18  1  0
  8 19  1  0
  8 20  1  0
  8 21  1  0
M  END
