
     RDKit          3D

 21 22  0  0  0  0  0  0  0  0999 V2000
    2.1304   -0.4915    0.2029 C   0  0  0  0  0  0  0  0  0  0  0  0
    1.5907    0.9090   -0.0151 C   0  0  0  0  0  0  0  0  0  0  0  0
    0.1046    0.8831   -0.2541 C   0  0  0  0  0  0  0  0  0  0  0  0
   -0.2852    0.0941   -1.4335 C   0  0  0  0  0  0  0  0  0  0  0  0
   -0.9007   -1.0298   -1.1239 C   0  0  0  0  0  0  0  0  0  0  0  0
   -1.0092   -1.1484    0.3475 C   0  0  0  0  0  0  0  0  0  0  0  0
   -2.2950   -0.9783    0.8552 O   0  0  0  0  0  0  0  0  0  0  0  0
   -2.1391    0.3899    0.6745 C   0  0  0  0  0  0  0  0  0  0  0  0
   -0.6625    0.2086    0.8415 C   0  0  0  0  0  0  0  0  0  0  0  0
    3.2365   -0.3656    0.3577 H   0  0  0  0  0  0  0  0  0  0  0  0
    1.9733   -1.0897   -0.7129 H   0  0  0  0  0  0  0  0  0  0  0  0
    1.6500   -0.9073    1.0931 H   0  0  0  0  0  0  0  0  0  0  0  0
    2.1191    1.4120   -0.8499 H   0  0  0  0  0  0  0  0  0  0  0  0
    1.7724    1.5312    0.8851 H   0  0  0  0  0  0  0  0  0  0  0  0
   -0.2497    1.9308   -0.3400 H   0  0  0  0  0  0  0  0  0  0  0  0
   -0.0745    0.4268   -2.4637 H   0  0  0  0  0  0  0  0  0  0  0  0
   -1.2771   -1.7673   -1.8347 H   0  0  0  0  0  0  0  0  0  0  0  0
   -0.4589   -2.0080    0.7760 H   0  0  0  0  0  0  0  0  0  0  0  0
   -2.5538    1.0312    1.4834 H   0  0  0  0  0  0  0  0  0  0  0  0
   -2.4177    0.6970   -0.3424 H   0  0  0  0  0  0  0  0  0  0  0  0
   -0.2537    0.2722    1.8531 H   0  0  0  0  0  0  0  0  0  0  0  0
  1  2  1  0
  2  3  1  0
  3  4  1  0
  4  5  2  0
  5  6  1  0
  6  7  1  0
  7  8  1  0
  8  9  1  0
  9  3  1  0
  9  6  1  0
  1 10  1  0
  1 11  1  0
  1 12  1  0
  2 13  1  0
  2 14  1  0
  3 15  1  0
  4 16  1  0
  5 17  1  0
  6 18  1  0
  8 19  1  0
  8 20  1  0
  9 21  1  0
M  END
