
     RDKit          3D

 23 25  0  0  0  0  0  0  0  0999 V2000
    1.8699    0.6821    1.3801 C   0  0  0  0  0  0  0  0  0  0  0  0
    1.6654    0.0482    0.0569 C   0  0  0  0  0  0  0  0  0  0  0  0
    0.3565   -0.4460   -0.2810 C   0  0  0  0  0  0  0  0  0  0  0  0
   -0.1907   -1.5394    0.6594 C   0  0  0  0  0  0  0  0  0  0  0  0
   -1.5611   -1.0597    0.1435 C   0  0  0  0  0  0  0  0  0  0  0  0
   -1.4589   -0.6561   -1.2726 C   0  0  0  0  0  0  0  0  0  0  0  0
    0.0081   -0.6726   -1.7388 C   0  0  0  0  0  0  0  0  0  0  0  0
   -0.9024    0.2155   -0.0979 C   0  0  0  0  0  0  0  0  0  0  0  0
   -1.3627    1.5476    0.0406 C   0  0  0  0  0  0  0  0  0  0  0  0
    2.9562    0.6547    1.6172 H   0  0  0  0  0  0  0  0  0  0  0  0
    1.6064    1.7770    1.3687 H   0  0  0  0  0  0  0  0  0  0  0  0
    1.3702    0.1536    2.2171 H   0  0  0  0  0  0  0  0  0  0  0  0
    2.4188   -0.7921   -0.0274 H   0  0  0  0  0  0  0  0  0  0  0  0
    2.0049    0.7792   -0.7264 H   0  0  0  0  0  0  0  0  0  0  0  0
   -0.0447   -1.2184    1.6881 H   0  0  0  0  0  0  0  0  0  0  0  0
    0.0761   -2.5519    0.3710 H   0  0  0  0  0  0  0  0  0  0  0  0
   -2.4511   -1.2052    0.7127 H   0  0  0  0  0  0  0  0  0  0  0  0
   -2.2139   -0.1601   -1.8523 H   0  0  0  0  0  0  0  0  0  0  0  0
    0.2279    0.2137   -2.3287 H   0  0  0  0  0  0  0  0  0  0  0  0
    0.3325   -1.6434   -2.1344 H   0  0  0  0  0  0  0  0  0  0  0  0
   -1.7721    1.9503   -0.9339 H   0  0  0  0  0  0  0  0  0  0  0  0
   -2.2578    1.5962    0.7320 H   0  0  0  0  0  0  0  0  0  0  0  0
   -0.6775    2.3269    0.4060 H   0  0  0  0  0  0  0  0  0  0  0  0
  1  2  1  0
  2  3  1  0
  3  4  1  0
  4  5  1  0
  5  6  1  0
  6  7  1  0
  6  8  1  0
  8  9  1  0
  7  3  1  0
  8  3  1  0
  8  5  1  0
  1 10  1  0
  1 11  1  0
  1 12  1  0
  2 13  1  0
  2 14  1  0
  4 15  1  0
  4 16  1  0
  5 17  1  0
  6 18  1  0
  7 19  1  0
  7 20  1  0
  9 21  1  0
  9 22  1  0
  9 23  1  0
M  END
