
     RDKit          3D

 19 21  0  0  0  0  0  0  0  0999 V2000
    2.5902    0.2324   -0.0588 C   0  0  0  0  0  0  0  0  0  0  0  0
    1.3548   -0.2492   -0.8089 C   0  0  0  0  0  0  0  0  0  0  0  0
    0.1786   -0.0285    0.0843 C   0  0  0  0  0  0  0  0  0  0  0  0
    0.1778   -0.6706    1.2984 O   0  0  0  0  0  0  0  0  0  0  0  0
   -0.7153   -1.2363    0.4257 C   0  0  0  0  0  0  0  0  0  0  0  0
   -2.0364   -0.5651    0.1266 C   0  0  0  0  0  0  0  0  0  0  0  0
   -1.9308    0.7682    0.8012 C   0  0  0  0  0  0  0  0  0  0  0  0
   -0.9112    0.9346   -0.2854 C   0  0  0  0  0  0  0  0  0  0  0  0
   -1.7481    0.1121   -1.0735 O   0  0  0  0  0  0  0  0  0  0  0  0
    2.8350    1.2560   -0.3988 H   0  0  0  0  0  0  0  0  0  0  0  0
    2.4366    0.2071    1.0400 H   0  0  0  0  0  0  0  0  0  0  0  0
    3.4419   -0.4784   -0.2541 H   0  0  0  0  0  0  0  0  0  0  0  0
    1.4669   -1.3281   -1.1167 H   0  0  0  0  0  0  0  0  0  0  0  0
    1.2834    0.3151   -1.7611 H   0  0  0  0  0  0  0  0  0  0  0  0
   -0.4678   -2.2081   -0.0007 H   0  0  0  0  0  0  0  0  0  0  0  0
   -2.9351   -1.1295    0.1832 H   0  0  0  0  0  0  0  0  0  0  0  0
   -1.5061    0.7805    1.8133 H   0  0  0  0  0  0  0  0  0  0  0  0
   -2.8412    1.3867    0.6425 H   0  0  0  0  0  0  0  0  0  0  0  0
   -0.6732    1.9011   -0.6572 H   0  0  0  0  0  0  0  0  0  0  0  0
  1  2  1  0
  2  3  1  0
  3  4  1  0
  4  5  1  0
  5  6  1  0
  6  7  1  0
  7  8  1  0
  8  9  1  0
  5  3  1  0
  9  6  1  0
  8  3  1  0
  1 10  1  0
  1 11  1  0
  1 12  1  0
  2 13  1  0
  2 14  1  0
  5 15  1  0
  6 16  1  0
  7 17  1  0
  7 18  1  0
  8 19  1  0
M  END
