
     RDKit          3D

 19 20  0  0  0  0  0  0  0  0999 V2000
    2.2168    0.8758   -0.7302 C   0  0  0  0  0  0  0  0  0  0  0  0
    1.2341   -0.2423   -0.7834 C   0  0  0  0  0  0  0  0  0  0  0  0
    0.0761   -0.0825    0.1638 C   0  0  0  0  0  0  0  0  0  0  0  0
    0.4793   -0.0072    1.4908 O   0  0  0  0  0  0  0  0  0  0  0  0
   -0.7313   -1.3495    0.0386 C   0  0  0  0  0  0  0  0  0  0  0  0
   -1.9256   -1.1001   -0.4265 C   0  0  0  0  0  0  0  0  0  0  0  0
   -2.1425    0.3327   -0.6937 C   0  0  0  0  0  0  0  0  0  0  0  0
   -1.2715    1.0203   -1.5299 O   0  0  0  0  0  0  0  0  0  0  0  0
   -0.8772    0.9968   -0.2172 C   0  0  0  0  0  0  0  0  0  0  0  0
    2.5496    1.0881   -1.7743 H   0  0  0  0  0  0  0  0  0  0  0  0
    3.1457    0.4946   -0.2134 H   0  0  0  0  0  0  0  0  0  0  0  0
    1.8429    1.8048   -0.2855 H   0  0  0  0  0  0  0  0  0  0  0  0
    1.7198   -1.2192   -0.5500 H   0  0  0  0  0  0  0  0  0  0  0  0
    0.7966   -0.3701   -1.8037 H   0  0  0  0  0  0  0  0  0  0  0  0
    0.0938   -0.7194    2.0601 H   0  0  0  0  0  0  0  0  0  0  0  0
   -0.3533   -2.3298    0.3044 H   0  0  0  0  0  0  0  0  0  0  0  0
   -2.6799   -1.8608   -0.5992 H   0  0  0  0  0  0  0  0  0  0  0  0
   -3.1140    0.8051   -0.5390 H   0  0  0  0  0  0  0  0  0  0  0  0
   -1.0594    1.8626    0.4482 H   0  0  0  0  0  0  0  0  0  0  0  0
  1  2  1  0
  2  3  1  0
  3  4  1  0
  3  5  1  0
  5  6  2  0
  6  7  1  0
  7  8  1  0
  8  9  1  0
  9  3  1  0
  9  7  1  0
  1 10  1  0
  1 11  1  0
  1 12  1  0
  2 13  1  0
  2 14  1  0
  4 15  1  0
  5 16  1  0
  6 17  1  0
  7 18  1  0
  9 19  1  0
M  END
