
     RDKit          3D

 20 20  0  0  0  0  0  0  0  0999 V2000
   -2.6674    0.5018   -0.0528 C   0  0  0  0  0  0  0  0  0  0  0  0
   -1.9145   -0.7460   -0.4348 C   0  0  0  0  0  0  0  0  0  0  0  0
   -0.4534   -0.5673   -0.2449 C   0  0  0  0  0  0  0  0  0  0  0  0
    0.2237    0.4902    0.1924 C   0  0  0  0  0  0  0  0  0  0  0  0
    1.6566    0.1268    0.1858 C   0  0  0  0  0  0  0  0  0  0  0  0
    2.5566    1.3007   -0.0911 C   0  0  0  0  0  0  0  0  0  0  0  0
    1.7192   -0.8040   -0.8500 O   0  0  0  0  0  0  0  0  0  0  0  0
    0.5910   -1.5921   -0.5229 C   0  0  0  0  0  0  0  0  0  0  0  0
   -2.8205    0.5030    1.0410 H   0  0  0  0  0  0  0  0  0  0  0  0
   -2.0620    1.3911   -0.3837 H   0  0  0  0  0  0  0  0  0  0  0  0
   -3.6794    0.5291   -0.5144 H   0  0  0  0  0  0  0  0  0  0  0  0
   -2.0833   -0.8797   -1.5439 H   0  0  0  0  0  0  0  0  0  0  0  0
   -2.3099   -1.6465    0.0363 H   0  0  0  0  0  0  0  0  0  0  0  0
   -0.2210    1.4366    0.4930 H   0  0  0  0  0  0  0  0  0  0  0  0
    1.9424   -0.3713    1.1453 H   0  0  0  0  0  0  0  0  0  0  0  0
    2.3586    1.6519   -1.1324 H   0  0  0  0  0  0  0  0  0  0  0  0
    2.3975    2.0920    0.6474 H   0  0  0  0  0  0  0  0  0  0  0  0
    3.6030    0.9384    0.0218 H   0  0  0  0  0  0  0  0  0  0  0  0
    0.8389   -2.0780    0.4390 H   0  0  0  0  0  0  0  0  0  0  0  0
    0.3242   -2.2769   -1.3283 H   0  0  0  0  0  0  0  0  0  0  0  0
  1  2  1  0
  2  3  1  0
  3  4  2  0
  4  5  1  0
  5  6  1  0
  5  7  1  0
  7  8  1  0
  8  3  1  0
  1  9  1  0
  1 10  1  0
  1 11  1  0
  2 12  1  0
  2 13  1  0
  4 14  1  0
  5 15  1  0
  6 16  1  0
  6 17  1  0
  6 18  1  0
  8 19  1  0
  8 20  1  0
M  END
