
     RDKit          3D

 23 23  0  0  0  0  0  0  0  0999 V2000
    2.6576    0.6418    0.8260 C   0  0  0  0  0  0  0  0  0  0  0  0
    1.1725    0.3367    1.0959 C   0  0  0  0  0  0  0  0  0  0  0  0
    0.7378   -0.6233    0.0919 C   0  0  0  0  0  0  0  0  0  0  0  0
    0.8314   -0.2298   -1.2610 O   0  0  0  0  0  0  0  0  0  0  0  0
    0.0573   -1.3981   -1.4817 C   0  0  0  0  0  0  0  0  0  0  0  0
   -0.6483   -1.0094   -0.1628 C   0  0  0  0  0  0  0  0  0  0  0  0
   -1.6950   -0.0084   -0.4916 C   0  0  0  0  0  0  0  0  0  0  0  0
   -1.9412    1.0426    0.5543 C   0  0  0  0  0  0  0  0  0  0  0  0
   -1.5425    0.5464   -1.7599 O   0  0  0  0  0  0  0  0  0  0  0  0
    2.7570    1.6085    0.3028 H   0  0  0  0  0  0  0  0  0  0  0  0
    3.1172   -0.1585    0.2064 H   0  0  0  0  0  0  0  0  0  0  0  0
    3.2352    0.6644    1.7705 H   0  0  0  0  0  0  0  0  0  0  0  0
    1.1562   -0.1428    2.1037 H   0  0  0  0  0  0  0  0  0  0  0  0
    0.6447    1.2838    1.1922 H   0  0  0  0  0  0  0  0  0  0  0  0
    1.3760   -1.5595    0.1590 H   0  0  0  0  0  0  0  0  0  0  0  0
   -0.6011   -1.3605   -2.3423 H   0  0  0  0  0  0  0  0  0  0  0  0
    0.6590   -2.2925   -1.3049 H   0  0  0  0  0  0  0  0  0  0  0  0
   -1.0291   -1.9027    0.3807 H   0  0  0  0  0  0  0  0  0  0  0  0
   -2.6614   -0.5960   -0.5646 H   0  0  0  0  0  0  0  0  0  0  0  0
   -1.6275    0.6323    1.5321 H   0  0  0  0  0  0  0  0  0  0  0  0
   -3.0550    1.2042    0.6671 H   0  0  0  0  0  0  0  0  0  0  0  0
   -1.4435    2.0029    0.3034 H   0  0  0  0  0  0  0  0  0  0  0  0
   -2.1572    1.3179   -1.8170 H   0  0  0  0  0  0  0  0  0  0  0  0
  1  2  1  0
  2  3  1  0
  3  4  1  0
  4  5  1  0
  5  6  1  0
  6  7  1  0
  7  8  1  0
  7  9  1  0
  6  3  1  0
  1 10  1  0
  1 11  1  0
  1 12  1  0
  2 13  1  0
  2 14  1  0
  3 15  1  0
  5 16  1  0
  5 17  1  0
  6 18  1  0
  7 19  1  0
  8 20  1  0
  8 21  1  0
  8 22  1  0
  9 23  1  0
M  END
