
     RDKit          3D

 21 22  0  0  0  0  0  0  0  0999 V2000
   -2.3375    0.6746    0.4200 C   0  0  0  0  0  0  0  0  0  0  0  0
   -1.5565   -0.4983   -0.0804 C   0  0  0  0  0  0  0  0  0  0  0  0
   -0.2217   -0.0639   -0.6337 C   0  0  0  0  0  0  0  0  0  0  0  0
    0.6089   -1.2091   -1.1532 C   0  0  0  0  0  0  0  0  0  0  0  0
    1.1013   -1.0958    0.2587 C   0  0  0  0  0  0  0  0  0  0  0  0
    2.1660   -0.3316    0.6296 C   0  0  0  0  0  0  0  0  0  0  0  0
    0.8362    0.2790    0.3268 C   0  0  0  0  0  0  0  0  0  0  0  0
    1.1343    1.6479    0.3330 C   0  0  0  0  0  0  0  0  0  0  0  0
    1.7153    2.2066   -0.6033 O   0  0  0  0  0  0  0  0  0  0  0  0
   -3.3681    0.2901    0.6771 H   0  0  0  0  0  0  0  0  0  0  0  0
   -1.9237    1.0610    1.3562 H   0  0  0  0  0  0  0  0  0  0  0  0
   -2.4928    1.4580   -0.3566 H   0  0  0  0  0  0  0  0  0  0  0  0
   -1.4833   -1.2379    0.7254 H   0  0  0  0  0  0  0  0  0  0  0  0
   -2.1044   -0.9981   -0.9178 H   0  0  0  0  0  0  0  0  0  0  0  0
   -0.4157    0.6410   -1.4878 H   0  0  0  0  0  0  0  0  0  0  0  0
   -0.0033   -2.0825   -1.4025 H   0  0  0  0  0  0  0  0  0  0  0  0
    1.3362   -0.8621   -1.9019 H   0  0  0  0  0  0  0  0  0  0  0  0
    0.6194   -1.7908    0.9820 H   0  0  0  0  0  0  0  0  0  0  0  0
    2.4638   -0.2090    1.7144 H   0  0  0  0  0  0  0  0  0  0  0  0
    3.0437   -0.2026   -0.0381 H   0  0  0  0  0  0  0  0  0  0  0  0
    0.8819    2.3234    1.1522 H   0  0  0  0  0  0  0  0  0  0  0  0
  1  2  1  0
  2  3  1  0
  3  4  1  0
  4  5  1  0
  5  6  1  0
  6  7  1  0
  7  8  1  0
  8  9  2  0
  7  3  1  0
  7  5  1  0
  1 10  1  0
  1 11  1  0
  1 12  1  0
  2 13  1  0
  2 14  1  0
  3 15  1  0
  4 16  1  0
  4 17  1  0
  5 18  1  0
  6 19  1  0
  6 20  1  0
  8 21  1  0
M  END
