
     RDKit          3D

 17 17  0  0  0  0  0  0  0  0999 V2000
   -2.3075    0.0344   -0.9052 C   0  0  0  0  0  0  0  0  0  0  0  0
   -1.4822   -0.2049    0.3278 C   0  0  0  0  0  0  0  0  0  0  0  0
   -0.0199   -0.0584    0.0635 C   0  0  0  0  0  0  0  0  0  0  0  0
    0.8825   -1.0046    0.2332 C   0  0  0  0  0  0  0  0  0  0  0  0
    2.2297   -0.5270   -0.1203 C   0  0  0  0  0  0  0  0  0  0  0  0
    2.0294    0.8667   -0.5381 C   0  0  0  0  0  0  0  0  0  0  0  0
    2.9593    1.6287   -0.9210 O   0  0  0  0  0  0  0  0  0  0  0  0
    0.6173    1.1626   -0.4233 C   0  0  0  0  0  0  0  0  0  0  0  0
    0.0672    2.2799   -0.7003 O   0  0  0  0  0  0  0  0  0  0  0  0
   -1.7440    0.5222   -1.7236 H   0  0  0  0  0  0  0  0  0  0  0  0
   -2.6917   -0.9223   -1.3195 H   0  0  0  0  0  0  0  0  0  0  0  0
   -3.1845    0.6809   -0.6743 H   0  0  0  0  0  0  0  0  0  0  0  0
   -1.6811   -1.2318    0.6863 H   0  0  0  0  0  0  0  0  0  0  0  0
   -1.8258    0.4759    1.1411 H   0  0  0  0  0  0  0  0  0  0  0  0
    0.6197   -2.0209    0.5986 H   0  0  0  0  0  0  0  0  0  0  0  0
    2.8177   -0.5331    0.8270 H   0  0  0  0  0  0  0  0  0  0  0  0
    2.7138   -1.1483   -0.9046 H   0  0  0  0  0  0  0  0  0  0  0  0
  1  2  1  0
  2  3  1  0
  3  4  2  0
  4  5  1  0
  5  6  1  0
  6  7  2  0
  6  8  1  0
  8  9  2  0
  8  3  1  0
  1 10  1  0
  1 11  1  0
  1 12  1  0
  2 13  1  0
  2 14  1  0
  4 15  1  0
  5 16  1  0
  5 17  1  0
M  END
