
     RDKit          3D

 22 22  0  0  0  0  0  0  0  0999 V2000
   -2.3127    1.2112    0.5692 C   0  0  0  0  0  0  0  0  0  0  0  0
   -1.9075    0.0360   -0.3065 C   0  0  0  0  0  0  0  0  0  0  0  0
   -0.6035   -0.4864    0.1979 C   0  0  0  0  0  0  0  0  0  0  0  0
    0.0968   -1.6291   -0.4098 C   0  0  0  0  0  0  0  0  0  0  0  0
    0.5542   -0.2920   -0.7886 C   0  0  0  0  0  0  0  0  0  0  0  0
    0.2436    0.1203   -2.0823 O   0  0  0  0  0  0  0  0  0  0  0  0
    1.7416    0.3825   -0.1913 C   0  0  0  0  0  0  0  0  0  0  0  0
    2.3432   -0.3614    0.9686 C   0  0  0  0  0  0  0  0  0  0  0  0
   -1.7586    1.1555    1.5492 H   0  0  0  0  0  0  0  0  0  0  0  0
   -2.0431    2.1775    0.1150 H   0  0  0  0  0  0  0  0  0  0  0  0
   -3.3799    1.2134    0.8166 H   0  0  0  0  0  0  0  0  0  0  0  0
   -2.7192   -0.7255   -0.3052 H   0  0  0  0  0  0  0  0  0  0  0  0
   -1.8522    0.3934   -1.3766 H   0  0  0  0  0  0  0  0  0  0  0  0
   -0.4047   -0.3139    1.2746 H   0  0  0  0  0  0  0  0  0  0  0  0
    0.7638   -2.2367    0.2156 H   0  0  0  0  0  0  0  0  0  0  0  0
   -0.4304   -2.2530   -1.1878 H   0  0  0  0  0  0  0  0  0  0  0  0
    0.1922    1.0934   -2.1843 H   0  0  0  0  0  0  0  0  0  0  0  0
    2.5154    0.6315   -0.9410 H   0  0  0  0  0  0  0  0  0  0  0  0
    1.3823    1.3697    0.2248 H   0  0  0  0  0  0  0  0  0  0  0  0
    1.7076   -0.2308    1.8717 H   0  0  0  0  0  0  0  0  0  0  0  0
    2.5611   -1.4121    0.7611 H   0  0  0  0  0  0  0  0  0  0  0  0
    3.3102    0.1563    1.2092 H   0  0  0  0  0  0  0  0  0  0  0  0
  1  2  1  0
  2  3  1  0
  3  4  1  0
  4  5  1  0
  5  6  1  0
  5  7  1  0
  7  8  1  0
  5  3  1  0
  1  9  1  0
  1 10  1  0
  1 11  1  0
  2 12  1  0
  2 13  1  0
  3 14  1  0
  4 15  1  0
  4 16  1  0
  6 17  1  0
  7 18  1  0
  7 19  1  0
  8 20  1  0
  8 21  1  0
  8 22  1  0
M  END
