
     RDKit          3D

 21 22  0  0  0  0  0  0  0  0999 V2000
    1.9813    0.9091   -0.2088 C   0  0  0  0  0  0  0  0  0  0  0  0
    1.5577   -0.4837   -0.5243 C   0  0  0  0  0  0  0  0  0  0  0  0
    0.1096   -0.7389   -0.2959 C   0  0  0  0  0  0  0  0  0  0  0  0
   -0.3642   -0.5258    1.1197 C   0  0  0  0  0  0  0  0  0  0  0  0
   -0.4731   -1.6783    1.8406 O   0  0  0  0  0  0  0  0  0  0  0  0
   -1.6300    0.0429    0.5291 C   0  0  0  0  0  0  0  0  0  0  0  0
   -1.4287    1.3633   -0.1120 C   0  0  0  0  0  0  0  0  0  0  0  0
   -0.8794    0.2147   -0.8313 C   0  0  0  0  0  0  0  0  0  0  0  0
   -1.5839   -0.1988   -1.9652 O   0  0  0  0  0  0  0  0  0  0  0  0
    1.3182    1.6583   -0.6807 H   0  0  0  0  0  0  0  0  0  0  0  0
    3.0348    1.0505   -0.5445 H   0  0  0  0  0  0  0  0  0  0  0  0
    2.0126    1.0720    0.9017 H   0  0  0  0  0  0  0  0  0  0  0  0
    2.1279   -1.1746    0.1612 H   0  0  0  0  0  0  0  0  0  0  0  0
    1.8281   -0.7778   -1.5484 H   0  0  0  0  0  0  0  0  0  0  0  0
   -0.1385   -1.7963   -0.5994 H   0  0  0  0  0  0  0  0  0  0  0  0
    0.1565    0.2587    1.6931 H   0  0  0  0  0  0  0  0  0  0  0  0
    0.3552   -1.7957    2.3701 H   0  0  0  0  0  0  0  0  0  0  0  0
   -2.5400   -0.5391    0.4544 H   0  0  0  0  0  0  0  0  0  0  0  0
   -2.3189    1.8527   -0.5038 H   0  0  0  0  0  0  0  0  0  0  0  0
   -0.7781    2.0668    0.4854 H   0  0  0  0  0  0  0  0  0  0  0  0
   -2.3472   -0.7799   -1.7406 H   0  0  0  0  0  0  0  0  0  0  0  0
  1  2  1  0
  2  3  1  0
  3  4  1  0
  4  5  1  0
  4  6  1  0
  6  7  1  0
  7  8  1  0
  8  9  1  0
  8  3  1  0
  8  6  1  0
  1 10  1  0
  1 11  1  0
  1 12  1  0
  2 13  1  0
  2 14  1  0
  3 15  1  0
  4 16  1  0
  5 17  1  0
  6 18  1  0
  7 19  1  0
  7 20  1  0
  9 21  1  0
M  END
