
     RDKit          3D

 23 24  0  0  0  0  0  0  0  0999 V2000
   -2.8786    0.6182    0.4926 C   0  0  0  0  0  0  0  0  0  0  0  0
   -1.5157    0.3261    1.0474 C   0  0  0  0  0  0  0  0  0  0  0  0
   -0.5002    0.0008   -0.0138 C   0  0  0  0  0  0  0  0  0  0  0  0
   -0.7955   -1.1975   -0.8810 C   0  0  0  0  0  0  0  0  0  0  0  0
    0.2363    1.1039   -0.6845 C   0  0  0  0  0  0  0  0  0  0  0  0
    0.9259    0.3038    0.3795 C   0  0  0  0  0  0  0  0  0  0  0  0
    2.0400   -0.5884   -0.0690 C   0  0  0  0  0  0  0  0  0  0  0  0
    3.4077   -0.2678    0.3283 C   0  0  0  0  0  0  0  0  0  0  0  0
    2.6455   -1.3627    0.9047 O   0  0  0  0  0  0  0  0  0  0  0  0
   -3.3280   -0.2992    0.0670 H   0  0  0  0  0  0  0  0  0  0  0  0
   -2.7651    1.4134   -0.2673 H   0  0  0  0  0  0  0  0  0  0  0  0
   -3.5241    0.9214    1.3416 H   0  0  0  0  0  0  0  0  0  0  0  0
   -1.1401    1.2252    1.5938 H   0  0  0  0  0  0  0  0  0  0  0  0
   -1.5144   -0.5134    1.7722 H   0  0  0  0  0  0  0  0  0  0  0  0
   -0.0249   -1.3697   -1.6340 H   0  0  0  0  0  0  0  0  0  0  0  0
   -0.9401   -2.1151   -0.2614 H   0  0  0  0  0  0  0  0  0  0  0  0
   -1.7368   -0.9487   -1.4530 H   0  0  0  0  0  0  0  0  0  0  0  0
   -0.1412    2.1230   -0.4550 H   0  0  0  0  0  0  0  0  0  0  0  0
    0.6232    1.0069   -1.7072 H   0  0  0  0  0  0  0  0  0  0  0  0
    1.1146    0.7757    1.3806 H   0  0  0  0  0  0  0  0  0  0  0  0
    1.9097   -1.0379   -1.0784 H   0  0  0  0  0  0  0  0  0  0  0  0
    3.6595    0.4517    1.1283 H   0  0  0  0  0  0  0  0  0  0  0  0
    4.2422   -0.5698   -0.3140 H   0  0  0  0  0  0  0  0  0  0  0  0
  1  2  1  0
  2  3  1  0
  3  4  1  0
  3  5  1  0
  5  6  1  0
  6  7  1  0
  7  8  1  0
  8  9  1  0
  6  3  1  0
  9  7  1  0
  1 10  1  0
  1 11  1  0
  1 12  1  0
  2 13  1  0
  2 14  1  0
  4 15  1  0
  4 16  1  0
  4 17  1  0
  5 18  1  0
  5 19  1  0
  6 20  1  0
  7 21  1  0
  8 22  1  0
  8 23  1  0
M  END
