
     RDKit          3D

 21 22  0  0  0  0  0  0  0  0999 V2000
    3.0993   -0.0168    0.1651 C   0  0  0  0  0  0  0  0  0  0  0  0
    1.9325   -0.9703    0.0697 C   0  0  0  0  0  0  0  0  0  0  0  0
    0.6409   -0.2697    0.1366 C   0  0  0  0  0  0  0  0  0  0  0  0
    0.4649    1.0290    0.2639 C   0  0  0  0  0  0  0  0  0  0  0  0
   -0.9833    1.3679    0.2949 C   0  0  0  0  0  0  0  0  0  0  0  0
   -1.6507    0.0231    0.2981 C   0  0  0  0  0  0  0  0  0  0  0  0
   -3.0818   -0.0998   -0.1598 C   0  0  0  0  0  0  0  0  0  0  0  0
   -1.3347   -0.8593    1.3715 O   0  0  0  0  0  0  0  0  0  0  0  0
   -0.6810   -0.9370    0.0699 C   0  0  0  0  0  0  0  0  0  0  0  0
    2.9825    0.5156    1.1531 H   0  0  0  0  0  0  0  0  0  0  0  0
    3.1327    0.7151   -0.6458 H   0  0  0  0  0  0  0  0  0  0  0  0
    4.0204   -0.6226    0.2720 H   0  0  0  0  0  0  0  0  0  0  0  0
    1.9932   -1.6521    0.9505 H   0  0  0  0  0  0  0  0  0  0  0  0
    2.0017   -1.6216   -0.8237 H   0  0  0  0  0  0  0  0  0  0  0  0
    1.2357    1.8144    0.3422 H   0  0  0  0  0  0  0  0  0  0  0  0
   -1.3093    1.9052   -0.6028 H   0  0  0  0  0  0  0  0  0  0  0  0
   -1.2535    1.9789    1.1767 H   0  0  0  0  0  0  0  0  0  0  0  0
   -3.1656   -0.3049   -1.2469 H   0  0  0  0  0  0  0  0  0  0  0  0
   -3.6212   -0.9257    0.3526 H   0  0  0  0  0  0  0  0  0  0  0  0
   -3.6312    0.8300    0.1119 H   0  0  0  0  0  0  0  0  0  0  0  0
   -0.7913   -1.8993   -0.4418 H   0  0  0  0  0  0  0  0  0  0  0  0
  1  2  1  0
  2  3  1  0
  3  4  2  0
  4  5  1  0
  5  6  1  0
  6  7  1  0
  6  8  1  0
  8  9  1  0
  9  3  1  0
  9  6  1  0
  1 10  1  0
  1 11  1  0
  1 12  1  0
  2 13  1  0
  2 14  1  0
  4 15  1  0
  5 16  1  0
  5 17  1  0
  7 18  1  0
  7 19  1  0
  7 20  1  0
  9 21  1  0
M  END
