
     RDKit          3D

 18 18  0  0  0  0  0  0  0  0999 V2000
    2.1299   -0.6432   -0.1217 C   0  0  0  0  0  0  0  0  0  0  0  0
    1.1577    0.4878   -0.0837 C   0  0  0  0  0  0  0  0  0  0  0  0
   -0.0963    0.1874    0.6942 C   0  0  0  0  0  0  0  0  0  0  0  0
   -0.9152   -0.9630    0.1965 C   0  0  0  0  0  0  0  0  0  0  0  0
   -1.8266   -0.0097   -0.5089 C   0  0  0  0  0  0  0  0  0  0  0  0
   -1.2043    1.1372    0.2617 C   0  0  0  0  0  0  0  0  0  0  0  0
    1.8040   -1.5479    0.4235 H   0  0  0  0  0  0  0  0  0  0  0  0
    3.0992   -0.3349    0.3640 H   0  0  0  0  0  0  0  0  0  0  0  0
    2.3795   -0.9622   -1.1754 H   0  0  0  0  0  0  0  0  0  0  0  0
    0.9080    0.8226   -1.1125 H   0  0  0  0  0  0  0  0  0  0  0  0
    1.6181    1.3924    0.4081 H   0  0  0  0  0  0  0  0  0  0  0  0
    0.0569    0.1568    1.7719 H   0  0  0  0  0  0  0  0  0  0  0  0
   -0.3791   -1.6969   -0.4199 H   0  0  0  0  0  0  0  0  0  0  0  0
   -1.4845   -1.4729    1.0274 H   0  0  0  0  0  0  0  0  0  0  0  0
   -1.6612    0.0411   -1.6097 H   0  0  0  0  0  0  0  0  0  0  0  0
   -2.8888   -0.0774   -0.2809 H   0  0  0  0  0  0  0  0  0  0  0  0
   -0.8757    1.9432   -0.4322 H   0  0  0  0  0  0  0  0  0  0  0  0
   -1.8216    1.5396    1.0810 H   0  0  0  0  0  0  0  0  0  0  0  0
  1  2  1  0
  2  3  1  0
  3  4  1  0
  4  5  1  0
  5  6  1  0
  6  3  1  0
  1  7  1  0
  1  8  1  0
  1  9  1  0
  2 10  1  0
  2 11  1  0
  3 12  1  0
  4 13  1  0
  4 14  1  0
  5 15  1  0
  5 16  1  0
  6 17  1  0
  6 18  1  0
M  END
