
     RDKit          3D

 21 22  0  0  0  0  0  0  0  0999 V2000
    2.4441    0.6689    0.4781 C   0  0  0  0  0  0  0  0  0  0  0  0
    1.7626   -0.6788    0.3950 C   0  0  0  0  0  0  0  0  0  0  0  0
    0.3020   -0.5529    0.1817 C   0  0  0  0  0  0  0  0  0  0  0  0
   -0.7349   -0.9683    0.9153 C   0  0  0  0  0  0  0  0  0  0  0  0
   -1.9062   -0.4819    0.1259 C   0  0  0  0  0  0  0  0  0  0  0  0
   -1.4460   -0.8933   -1.2801 C   0  0  0  0  0  0  0  0  0  0  0  0
   -0.3542    0.1081   -0.9741 C   0  0  0  0  0  0  0  0  0  0  0  0
   -1.4393    0.9064   -0.2601 C   0  0  0  0  0  0  0  0  0  0  0  0
   -0.9175    1.5556    0.8290 O   0  0  0  0  0  0  0  0  0  0  0  0
    1.9331    1.3740    1.1530 H   0  0  0  0  0  0  0  0  0  0  0  0
    2.5529    1.1271   -0.5422 H   0  0  0  0  0  0  0  0  0  0  0  0
    3.4685    0.5344    0.8571 H   0  0  0  0  0  0  0  0  0  0  0  0
    2.0163   -1.2333    1.3192 H   0  0  0  0  0  0  0  0  0  0  0  0
    2.2372   -1.2258   -0.4389 H   0  0  0  0  0  0  0  0  0  0  0  0
   -0.7168   -1.5204    1.8493 H   0  0  0  0  0  0  0  0  0  0  0  0
   -2.8854   -0.6679    0.4248 H   0  0  0  0  0  0  0  0  0  0  0  0
   -1.0289   -1.9128   -1.2369 H   0  0  0  0  0  0  0  0  0  0  0  0
   -2.1298   -0.6439   -2.0798 H   0  0  0  0  0  0  0  0  0  0  0  0
    0.2008    0.5508   -1.7401 H   0  0  0  0  0  0  0  0  0  0  0  0
   -2.1105    1.4703   -0.9205 H   0  0  0  0  0  0  0  0  0  0  0  0
   -1.2483    2.4838    0.9442 H   0  0  0  0  0  0  0  0  0  0  0  0
  1  2  1  0
  2  3  1  0
  3  4  2  0
  4  5  1  0
  5  6  1  0
  6  7  1  0
  7  8  1  0
  8  9  1  0
  7  3  1  0
  8  5  1  0
  1 10  1  0
  1 11  1  0
  1 12  1  0
  2 13  1  0
  2 14  1  0
  4 15  1  0
  5 16  1  0
  6 17  1  0
  6 18  1  0
  7 19  1  0
  8 20  1  0
  9 21  1  0
M  END
