
     RDKit          3D

 19 20  0  0  0  0  0  0  0  0999 V2000
    2.3567   -0.2769   -0.5147 C   0  0  0  0  0  0  0  0  0  0  0  0
    1.2203   -0.6081    0.4278 C   0  0  0  0  0  0  0  0  0  0  0  0
    0.2502    0.5070    0.5988 C   0  0  0  0  0  0  0  0  0  0  0  0
   -0.5095    1.0689   -0.5517 C   0  0  0  0  0  0  0  0  0  0  0  0
   -1.6536    1.9334   -0.2194 C   0  0  0  0  0  0  0  0  0  0  0  0
   -2.0391    3.0622   -0.6085 O   0  0  0  0  0  0  0  0  0  0  0  0
   -2.2094    1.0689    0.7105 O   0  0  0  0  0  0  0  0  0  0  0  0
   -1.1853    0.1587    0.3916 C   0  0  0  0  0  0  0  0  0  0  0  0
   -1.5868   -1.2148   -0.0495 C   0  0  0  0  0  0  0  0  0  0  0  0
    2.7934   -1.2438   -0.8461 H   0  0  0  0  0  0  0  0  0  0  0  0
    3.1671    0.2845   -0.0021 H   0  0  0  0  0  0  0  0  0  0  0  0
    2.0479    0.2809   -1.3994 H   0  0  0  0  0  0  0  0  0  0  0  0
    1.6834   -0.8327    1.4119 H   0  0  0  0  0  0  0  0  0  0  0  0
    0.7334   -1.5122    0.0493 H   0  0  0  0  0  0  0  0  0  0  0  0
    0.4232    1.2393    1.4301 H   0  0  0  0  0  0  0  0  0  0  0  0
   -0.2773    0.8035   -1.5913 H   0  0  0  0  0  0  0  0  0  0  0  0
   -1.0454   -1.5523   -0.9590 H   0  0  0  0  0  0  0  0  0  0  0  0
   -2.6748   -1.1824   -0.3096 H   0  0  0  0  0  0  0  0  0  0  0  0
   -1.4943   -1.9841    0.7465 H   0  0  0  0  0  0  0  0  0  0  0  0
  1  2  1  0
  2  3  1  0
  3  4  1  0
  4  5  1  0
  5  6  2  0
  5  7  1  0
  7  8  1  0
  8  9  1  0
  8  3  1  0
  8  4  1  0
  1 10  1  0
  1 11  1  0
  1 12  1  0
  2 13  1  0
  2 14  1  0
  3 15  1  0
  4 16  1  0
  9 17  1  0
  9 18  1  0
  9 19  1  0
M  END
