
     RDKit          3D

 21 22  0  0  0  0  0  0  0  0999 V2000
   -2.7980    0.7805   -0.2703 C   0  0  0  0  0  0  0  0  0  0  0  0
   -1.7831   -0.2314   -0.7192 C   0  0  0  0  0  0  0  0  0  0  0  0
   -0.8998   -0.6195    0.4083 C   0  0  0  0  0  0  0  0  0  0  0  0
   -0.0573    0.4050    1.1173 C   0  0  0  0  0  0  0  0  0  0  0  0
    1.1690   -0.2952    0.5808 C   0  0  0  0  0  0  0  0  0  0  0  0
    1.7871    0.3262   -0.4863 O   0  0  0  0  0  0  0  0  0  0  0  0
    3.1688    0.3511   -0.3792 C   0  0  0  0  0  0  0  0  0  0  0  0
    0.3279   -1.4587    0.0714 C   0  0  0  0  0  0  0  0  0  0  0  0
   -0.7357   -1.9070    0.8228 O   0  0  0  0  0  0  0  0  0  0  0  0
   -3.7803    0.5512   -0.7276 H   0  0  0  0  0  0  0  0  0  0  0  0
   -2.5258    1.8091   -0.5954 H   0  0  0  0  0  0  0  0  0  0  0  0
   -2.9449    0.8019    0.8172 H   0  0  0  0  0  0  0  0  0  0  0  0
   -2.2316   -1.1411   -1.1555 H   0  0  0  0  0  0  0  0  0  0  0  0
   -1.1935    0.2484   -1.5422 H   0  0  0  0  0  0  0  0  0  0  0  0
   -0.1936    0.3201    2.2278 H   0  0  0  0  0  0  0  0  0  0  0  0
   -0.2534    1.4066    0.7412 H   0  0  0  0  0  0  0  0  0  0  0  0
    1.8560   -0.6825    1.3642 H   0  0  0  0  0  0  0  0  0  0  0  0
    3.5473    0.8707    0.4982 H   0  0  0  0  0  0  0  0  0  0  0  0
    3.5842   -0.6874   -0.5008 H   0  0  0  0  0  0  0  0  0  0  0  0
    3.5390    0.9093   -1.2825 H   0  0  0  0  0  0  0  0  0  0  0  0
    0.4176   -1.7571   -0.9903 H   0  0  0  0  0  0  0  0  0  0  0  0
  1  2  1  0
  2  3  1  0
  3  4  1  0
  4  5  1  0
  5  6  1  0
  6  7  1  0
  5  8  1  0
  8  9  1  0
  8  3  1  0
  9  3  1  0
  1 10  1  0
  1 11  1  0
  1 12  1  0
  2 13  1  0
  2 14  1  0
  4 15  1  0
  4 16  1  0
  5 17  1  0
  7 18  1  0
  7 19  1  0
  7 20  1  0
  8 21  1  0
M  END
