
     RDKit          3D

 23 24  0  0  0  0  0  0  0  0999 V2000
    1.9744   -0.7120   -1.0439 C   0  0  0  0  0  0  0  0  0  0  0  0
    1.1122    0.5242   -0.9087 C   0  0  0  0  0  0  0  0  0  0  0  0
    0.1907    0.3686    0.2874 C   0  0  0  0  0  0  0  0  0  0  0  0
   -0.7164   -0.8183    0.1574 C   0  0  0  0  0  0  0  0  0  0  0  0
   -1.6775   -0.9565   -0.9518 C   0  0  0  0  0  0  0  0  0  0  0  0
   -2.1445   -0.7796    0.4710 C   0  0  0  0  0  0  0  0  0  0  0  0
    0.9005    0.5201    1.5945 C   0  0  0  0  0  0  0  0  0  0  0  0
    0.0990    1.6228    1.9622 O   0  0  0  0  0  0  0  0  0  0  0  0
   -0.4173    1.6658    0.6569 C   0  0  0  0  0  0  0  0  0  0  0  0
    1.4659   -1.4096   -1.7366 H   0  0  0  0  0  0  0  0  0  0  0  0
    2.9529   -0.3846   -1.4488 H   0  0  0  0  0  0  0  0  0  0  0  0
    2.0844   -1.1635   -0.0310 H   0  0  0  0  0  0  0  0  0  0  0  0
    0.4543    0.6059   -1.8025 H   0  0  0  0  0  0  0  0  0  0  0  0
    1.7318    1.4431   -0.7787 H   0  0  0  0  0  0  0  0  0  0  0  0
   -0.1942   -1.7840    0.4310 H   0  0  0  0  0  0  0  0  0  0  0  0
   -1.8330   -1.9426   -1.4598 H   0  0  0  0  0  0  0  0  0  0  0  0
   -1.9450   -0.1100   -1.6135 H   0  0  0  0  0  0  0  0  0  0  0  0
   -2.7033    0.1249    0.7433 H   0  0  0  0  0  0  0  0  0  0  0  0
   -2.6375   -1.7089    0.8850 H   0  0  0  0  0  0  0  0  0  0  0  0
    1.9555    0.8972    1.4923 H   0  0  0  0  0  0  0  0  0  0  0  0
    0.8253   -0.3299    2.2967 H   0  0  0  0  0  0  0  0  0  0  0  0
   -1.4985    1.7684    0.6766 H   0  0  0  0  0  0  0  0  0  0  0  0
    0.0203    2.5586    0.1212 H   0  0  0  0  0  0  0  0  0  0  0  0
  1  2  1  0
  2  3  1  0
  3  4  1  0
  4  5  1  0
  5  6  1  0
  3  7  1  0
  7  8  1  0
  8  9  1  0
  9  3  1  0
  6  4  1  0
  1 10  1  0
  1 11  1  0
  1 12  1  0
  2 13  1  0
  2 14  1  0
  4 15  1  0
  5 16  1  0
  5 17  1  0
  6 18  1  0
  6 19  1  0
  7 20  1  0
  7 21  1  0
  9 22  1  0
  9 23  1  0
M  END
