
     RDKit          3D

 21 22  0  0  0  0  0  0  0  0999 V2000
    2.8714   -0.3179   -0.2844 C   0  0  0  0  0  0  0  0  0  0  0  0
    1.4129   -0.6573   -0.3142 C   0  0  0  0  0  0  0  0  0  0  0  0
    0.5251    0.5816   -0.2999 C   0  0  0  0  0  0  0  0  0  0  0  0
    0.7290    1.3701    0.8543 O   0  0  0  0  0  0  0  0  0  0  0  0
   -0.6623    1.6306    0.8210 C   0  0  0  0  0  0  0  0  0  0  0  0
   -0.8437    0.3359    0.1954 C   0  0  0  0  0  0  0  0  0  0  0  0
   -1.2517   -0.9194    0.7710 C   0  0  0  0  0  0  0  0  0  0  0  0
   -1.9556   -0.2621   -0.4377 C   0  0  0  0  0  0  0  0  0  0  0  0
   -3.2488    0.2115   -0.1285 O   0  0  0  0  0  0  0  0  0  0  0  0
    3.0223    0.6713   -0.7543 H   0  0  0  0  0  0  0  0  0  0  0  0
    3.2141   -0.3157    0.7755 H   0  0  0  0  0  0  0  0  0  0  0  0
    3.4299   -1.0793   -0.8871 H   0  0  0  0  0  0  0  0  0  0  0  0
    1.1881   -1.2860    0.5604 H   0  0  0  0  0  0  0  0  0  0  0  0
    1.1734   -1.1890   -1.2652 H   0  0  0  0  0  0  0  0  0  0  0  0
    0.6329    1.1522   -1.2517 H   0  0  0  0  0  0  0  0  0  0  0  0
   -0.7906    2.5082    0.1207 H   0  0  0  0  0  0  0  0  0  0  0  0
   -1.1105    1.8654    1.7862 H   0  0  0  0  0  0  0  0  0  0  0  0
   -1.8154   -0.9840    1.7155 H   0  0  0  0  0  0  0  0  0  0  0  0
   -0.7590   -1.8931    0.5115 H   0  0  0  0  0  0  0  0  0  0  0  0
   -1.9398   -0.8174   -1.3951 H   0  0  0  0  0  0  0  0  0  0  0  0
   -3.8219   -0.6056   -0.0770 H   0  0  0  0  0  0  0  0  0  0  0  0
  1  2  1  0
  2  3  1  0
  3  4  1  0
  4  5  1  0
  5  6  1  0
  6  7  1  0
  7  8  1  0
  8  9  1  0
  6  3  1  0
  8  6  1  0
  1 10  1  0
  1 11  1  0
  1 12  1  0
  2 13  1  0
  2 14  1  0
  3 15  1  0
  5 16  1  0
  5 17  1  0
  7 18  1  0
  7 19  1  0
  8 20  1  0
  9 21  1  0
M  END
