
     RDKit          3D

 23 23  0  0  0  0  0  0  0  0999 V2000
    2.5338    0.1304    0.3298 C   0  0  0  0  0  0  0  0  0  0  0  0
    1.3360    0.4827   -0.4912 C   0  0  0  0  0  0  0  0  0  0  0  0
    0.0964    0.2839    0.3540 C   0  0  0  0  0  0  0  0  0  0  0  0
   -1.1441    0.6066   -0.3688 C   0  0  0  0  0  0  0  0  0  0  0  0
   -1.7427    1.9952   -0.4828 C   0  0  0  0  0  0  0  0  0  0  0  0
   -1.6258   -0.5092   -0.8858 C   0  0  0  0  0  0  0  0  0  0  0  0
   -0.7513   -1.6752   -0.5531 C   0  0  0  0  0  0  0  0  0  0  0  0
   -0.0688   -1.1687    0.7133 C   0  0  0  0  0  0  0  0  0  0  0  0
   -0.9311   -1.2531    1.8044 O   0  0  0  0  0  0  0  0  0  0  0  0
    2.7156   -0.9586    0.2536 H   0  0  0  0  0  0  0  0  0  0  0  0
    3.4742    0.6117   -0.0618 H   0  0  0  0  0  0  0  0  0  0  0  0
    2.3966    0.4626    1.3617 H   0  0  0  0  0  0  0  0  0  0  0  0
    1.2860   -0.2530   -1.3406 H   0  0  0  0  0  0  0  0  0  0  0  0
    1.4162    1.4798   -0.9156 H   0  0  0  0  0  0  0  0  0  0  0  0
    0.1721    0.8400    1.3132 H   0  0  0  0  0  0  0  0  0  0  0  0
   -2.3507    2.0249   -1.4097 H   0  0  0  0  0  0  0  0  0  0  0  0
   -2.4623    2.1705    0.3601 H   0  0  0  0  0  0  0  0  0  0  0  0
   -0.9659    2.7597   -0.4256 H   0  0  0  0  0  0  0  0  0  0  0  0
   -2.5270   -0.5827   -1.4705 H   0  0  0  0  0  0  0  0  0  0  0  0
    0.0016   -1.8715   -1.3253 H   0  0  0  0  0  0  0  0  0  0  0  0
   -1.3632   -2.5532   -0.2799 H   0  0  0  0  0  0  0  0  0  0  0  0
    0.8972   -1.6316    0.8952 H   0  0  0  0  0  0  0  0  0  0  0  0
   -0.3926   -1.3914    2.6252 H   0  0  0  0  0  0  0  0  0  0  0  0
  1  2  1  0
  2  3  1  0
  3  4  1  0
  4  5  1  0
  4  6  2  0
  6  7  1  0
  7  8  1  0
  8  9  1  0
  8  3  1  0
  1 10  1  0
  1 11  1  0
  1 12  1  0
  2 13  1  0
  2 14  1  0
  3 15  1  0
  5 16  1  0
  5 17  1  0
  5 18  1  0
  6 19  1  0
  7 20  1  0
  7 21  1  0
  8 22  1  0
  9 23  1  0
M  END
