
     RDKit          3D

 19 19  0  0  0  0  0  0  0  0999 V2000
   -1.9317    0.2589    0.8027 C   0  0  0  0  0  0  0  0  0  0  0  0
   -1.3672    0.0504   -0.5625 C   0  0  0  0  0  0  0  0  0  0  0  0
    0.1198   -0.1771   -0.5615 C   0  0  0  0  0  0  0  0  0  0  0  0
    0.6414   -0.3695   -1.8201 O   0  0  0  0  0  0  0  0  0  0  0  0
    0.8704    0.9642    0.0921 C   0  0  0  0  0  0  0  0  0  0  0  0
    2.1810    0.2443    0.4318 C   0  0  0  0  0  0  0  0  0  0  0  0
    1.7067   -0.9548    0.9706 O   0  0  0  0  0  0  0  0  0  0  0  0
    0.5209   -1.3145    0.3059 C   0  0  0  0  0  0  0  0  0  0  0  0
   -0.0774   -2.4147    0.4392 O   0  0  0  0  0  0  0  0  0  0  0  0
   -1.6779    1.2402    1.2461 H   0  0  0  0  0  0  0  0  0  0  0  0
   -3.0452    0.2448    0.7105 H   0  0  0  0  0  0  0  0  0  0  0  0
   -1.6549   -0.5906    1.4474 H   0  0  0  0  0  0  0  0  0  0  0  0
   -1.5861    0.8834   -1.2617 H   0  0  0  0  0  0  0  0  0  0  0  0
   -1.8416   -0.8501   -1.0013 H   0  0  0  0  0  0  0  0  0  0  0  0
    0.2299   -1.1602   -2.2555 H   0  0  0  0  0  0  0  0  0  0  0  0
    0.3575    1.2447    1.0284 H   0  0  0  0  0  0  0  0  0  0  0  0
    1.0270    1.8134   -0.5771 H   0  0  0  0  0  0  0  0  0  0  0  0
    2.8139    0.8357    1.0906 H   0  0  0  0  0  0  0  0  0  0  0  0
    2.7134    0.0514   -0.5256 H   0  0  0  0  0  0  0  0  0  0  0  0
  1  2  1  0
  2  3  1  0
  3  4  1  0
  3  5  1  0
  5  6  1  0
  6  7  1  0
  7  8  1  0
  8  9  2  0
  8  3  1  0
  1 10  1  0
  1 11  1  0
  1 12  1  0
  2 13  1  0
  2 14  1  0
  4 15  1  0
  5 16  1  0
  5 17  1  0
  6 18  1  0
  6 19  1  0
M  END
