
     RDKit          3D

 17 17  0  0  0  0  0  0  0  0999 V2000
    1.8227    0.6712    0.0215 C   0  0  0  0  0  0  0  0  0  0  0  0
    0.9690   -0.3968    0.5820 C   0  0  0  0  0  0  0  0  0  0  0  0
   -0.4764   -0.3552    0.0304 C   0  0  0  0  0  0  0  0  0  0  0  0
   -1.2985   -1.4540    0.6271 C   0  0  0  0  0  0  0  0  0  0  0  0
   -2.4575   -1.6134    0.3412 O   0  0  0  0  0  0  0  0  0  0  0  0
   -0.9768    1.0011   -0.1139 C   0  0  0  0  0  0  0  0  0  0  0  0
   -0.8397    0.0866   -1.2099 C   0  0  0  0  0  0  0  0  0  0  0  0
    2.5031    0.2522   -0.7399 H   0  0  0  0  0  0  0  0  0  0  0  0
    2.4181    1.1310    0.8657 H   0  0  0  0  0  0  0  0  0  0  0  0
    1.2824    1.5179   -0.4379 H   0  0  0  0  0  0  0  0  0  0  0  0
    1.4347   -1.3670    0.4083 H   0  0  0  0  0  0  0  0  0  0  0  0
    0.8734   -0.2879    1.6962 H   0  0  0  0  0  0  0  0  0  0  0  0
   -0.8381   -2.1199    1.3321 H   0  0  0  0  0  0  0  0  0  0  0  0
   -1.1556    1.1802    0.9363 H   0  0  0  0  0  0  0  0  0  0  0  0
   -1.5247    1.7729   -0.5853 H   0  0  0  0  0  0  0  0  0  0  0  0
   -0.0441    0.3686   -1.9683 H   0  0  0  0  0  0  0  0  0  0  0  0
   -1.6919   -0.3874   -1.7855 H   0  0  0  0  0  0  0  0  0  0  0  0
  1  2  1  0
  2  3  1  0
  3  4  1  0
  4  5  2  0
  3  6  1  0
  6  7  1  0
  7  3  1  0
  1  8  1  0
  1  9  1  0
  1 10  1  0
  2 11  1  0
  2 12  1  0
  4 13  1  0
  6 14  1  0
  6 15  1  0
  7 16  1  0
  7 17  1  0
M  END
