
     RDKit          3D

 23 23  0  0  0  0  0  0  0  0999 V2000
   -1.2090   -1.6001    1.1516 C   0  0  0  0  0  0  0  0  0  0  0  0
   -0.4918   -0.2219    1.0588 C   0  0  0  0  0  0  0  0  0  0  0  0
   -0.2619   -0.0388   -0.4299 C   0  0  0  0  0  0  0  0  0  0  0  0
    0.6319   -0.9980   -1.0537 C   0  0  0  0  0  0  0  0  0  0  0  0
    1.8309   -1.4226   -0.2308 C   0  0  0  0  0  0  0  0  0  0  0  0
    0.4619   -1.4561   -2.1308 O   0  0  0  0  0  0  0  0  0  0  0  0
   -1.2319    0.7738   -1.1575 C   0  0  0  0  0  0  0  0  0  0  0  0
    0.0541    1.3832   -0.8559 C   0  0  0  0  0  0  0  0  0  0  0  0
    0.3214    2.3415    0.2715 C   0  0  0  0  0  0  0  0  0  0  0  0
   -1.9332   -1.6130    1.9893 H   0  0  0  0  0  0  0  0  0  0  0  0
   -0.4920   -2.3783    1.1637 H   0  0  0  0  0  0  0  0  0  0  0  0
   -1.8568   -1.7058    0.2171 H   0  0  0  0  0  0  0  0  0  0  0  0
   -1.1701    0.4944    1.5093 H   0  0  0  0  0  0  0  0  0  0  0  0
    0.4869   -0.2620    1.5478 H   0  0  0  0  0  0  0  0  0  0  0  0
    2.6775   -1.6168   -0.9580 H   0  0  0  0  0  0  0  0  0  0  0  0
    2.2211   -0.5344    0.3623 H   0  0  0  0  0  0  0  0  0  0  0  0
    1.6311   -2.2217    0.3972 H   0  0  0  0  0  0  0  0  0  0  0  0
   -1.4988    0.5265   -2.2264 H   0  0  0  0  0  0  0  0  0  0  0  0
   -2.1465    1.1809   -0.6258 H   0  0  0  0  0  0  0  0  0  0  0  0
    0.7262    1.5283   -1.7229 H   0  0  0  0  0  0  0  0  0  0  0  0
   -0.3133    3.2579    0.1925 H   0  0  0  0  0  0  0  0  0  0  0  0
    1.3901    2.6518    0.2453 H   0  0  0  0  0  0  0  0  0  0  0  0
    0.1720    1.9313    1.2853 H   0  0  0  0  0  0  0  0  0  0  0  0
  1  2  1  0
  2  3  1  0
  3  4  1  0
  4  5  1  0
  4  6  2  0
  3  7  1  0
  7  8  1  0
  8  9  1  0
  8  3  1  0
  1 10  1  0
  1 11  1  0
  1 12  1  0
  2 13  1  0
  2 14  1  0
  5 15  1  0
  5 16  1  0
  5 17  1  0
  7 18  1  0
  7 19  1  0
  8 20  1  0
  9 21  1  0
  9 22  1  0
  9 23  1  0
M  END
