
     RDKit          3D

 23 24  0  0  0  0  0  0  0  0999 V2000
    1.9379    1.3489    0.4028 C   0  0  0  0  0  0  0  0  0  0  0  0
    1.9264   -0.0986    0.0038 C   0  0  0  0  0  0  0  0  0  0  0  0
    0.9519   -0.4196   -1.0784 C   0  0  0  0  0  0  0  0  0  0  0  0
    1.0128   -1.7801   -1.3801 O   0  0  0  0  0  0  0  0  0  0  0  0
   -0.0414   -2.0170   -0.4987 C   0  0  0  0  0  0  0  0  0  0  0  0
   -0.4743   -0.5983   -0.6933 C   0  0  0  0  0  0  0  0  0  0  0  0
   -0.9689    0.1427    0.4912 C   0  0  0  0  0  0  0  0  0  0  0  0
   -2.3643    0.0258    0.9420 C   0  0  0  0  0  0  0  0  0  0  0  0
   -1.9909    1.2381    0.1810 C   0  0  0  0  0  0  0  0  0  0  0  0
    2.8738    1.8774    0.0742 H   0  0  0  0  0  0  0  0  0  0  0  0
    1.9452    1.3977    1.5110 H   0  0  0  0  0  0  0  0  0  0  0  0
    1.1041    1.9278   -0.0148 H   0  0  0  0  0  0  0  0  0  0  0  0
    2.9571   -0.3489   -0.3582 H   0  0  0  0  0  0  0  0  0  0  0  0
    1.7116   -0.7709    0.8645 H   0  0  0  0  0  0  0  0  0  0  0  0
    1.0525    0.1908   -2.0050 H   0  0  0  0  0  0  0  0  0  0  0  0
    0.2466   -2.3183    0.5182 H   0  0  0  0  0  0  0  0  0  0  0  0
   -0.7317   -2.7571   -0.9702 H   0  0  0  0  0  0  0  0  0  0  0  0
   -1.1474   -0.5119   -1.5565 H   0  0  0  0  0  0  0  0  0  0  0  0
   -0.2078    0.3638    1.2748 H   0  0  0  0  0  0  0  0  0  0  0  0
   -3.1000   -0.6355    0.4303 H   0  0  0  0  0  0  0  0  0  0  0  0
   -2.5912    0.1674    2.0137 H   0  0  0  0  0  0  0  0  0  0  0  0
   -1.7755    2.2062    0.6968 H   0  0  0  0  0  0  0  0  0  0  0  0
   -2.3266    1.3697   -0.8493 H   0  0  0  0  0  0  0  0  0  0  0  0
  1  2  1  0
  2  3  1  0
  3  4  1  0
  4  5  1  0
  5  6  1  0
  6  7  1  0
  7  8  1  0
  8  9  1  0
  6  3  1  0
  9  7  1  0
  1 10  1  0
  1 11  1  0
  1 12  1  0
  2 13  1  0
  2 14  1  0
  3 15  1  0
  5 16  1  0
  5 17  1  0
  6 18  1  0
  7 19  1  0
  8 20  1  0
  8 21  1  0
  9 22  1  0
  9 23  1  0
M  END
