
     RDKit          3D

 25 26  0  0  0  0  0  0  0  0999 V2000
   -2.6366    0.0838   -0.3997 C   0  0  0  0  0  0  0  0  0  0  0  0
   -1.3698    0.8611   -0.5332 C   0  0  0  0  0  0  0  0  0  0  0  0
   -0.2507    0.3060    0.3139 C   0  0  0  0  0  0  0  0  0  0  0  0
   -0.6013    0.3093    1.7806 C   0  0  0  0  0  0  0  0  0  0  0  0
    1.0116    1.0705    0.0918 C   0  0  0  0  0  0  0  0  0  0  0  0
    2.1346    0.1056   -0.0518 C   0  0  0  0  0  0  0  0  0  0  0  0
    2.3250   -0.7624   -1.2093 C   0  0  0  0  0  0  0  0  0  0  0  0
    1.5181   -1.2289   -0.0397 C   0  0  0  0  0  0  0  0  0  0  0  0
    0.0316   -1.0964   -0.1709 C   0  0  0  0  0  0  0  0  0  0  0  0
   -2.7476   -0.4627    0.5473 H   0  0  0  0  0  0  0  0  0  0  0  0
   -3.5030    0.7760   -0.4856 H   0  0  0  0  0  0  0  0  0  0  0  0
   -2.7028   -0.7026   -1.2077 H   0  0  0  0  0  0  0  0  0  0  0  0
   -1.0333    0.7616   -1.5986 H   0  0  0  0  0  0  0  0  0  0  0  0
   -1.5241    1.9377   -0.3636 H   0  0  0  0  0  0  0  0  0  0  0  0
   -0.9491    1.3550    2.0124 H   0  0  0  0  0  0  0  0  0  0  0  0
    0.2886    0.1016    2.3822 H   0  0  0  0  0  0  0  0  0  0  0  0
   -1.3791   -0.4024    2.0588 H   0  0  0  0  0  0  0  0  0  0  0  0
    0.9253    1.7937   -0.7546 H   0  0  0  0  0  0  0  0  0  0  0  0
    1.2151    1.7239    0.9920 H   0  0  0  0  0  0  0  0  0  0  0  0
    3.0366    0.2550    0.6101 H   0  0  0  0  0  0  0  0  0  0  0  0
    3.3110   -1.2127   -1.3781 H   0  0  0  0  0  0  0  0  0  0  0  0
    1.7603   -0.6193   -2.1742 H   0  0  0  0  0  0  0  0  0  0  0  0
    1.9038   -1.9586    0.6776 H   0  0  0  0  0  0  0  0  0  0  0  0
   -0.5496   -1.8580    0.3448 H   0  0  0  0  0  0  0  0  0  0  0  0
   -0.2147   -1.1368   -1.2606 H   0  0  0  0  0  0  0  0  0  0  0  0
  1  2  1  0
  2  3  1  0
  3  4  1  0
  3  5  1  0
  5  6  1  0
  6  7  1  0
  7  8  1  0
  8  9  1  0
  9  3  1  0
  8  6  1  0
  1 10  1  0
  1 11  1  0
  1 12  1  0
  2 13  1  0
  2 14  1  0
  4 15  1  0
  4 16  1  0
  4 17  1  0
  5 18  1  0
  5 19  1  0
  6 20  1  0
  7 21  1  0
  7 22  1  0
  8 23  1  0
  9 24  1  0
  9 25  1  0
M  END
