
     RDKit          3D

 19 20  0  0  0  0  0  0  0  0999 V2000
    2.3081    0.3251    0.2642 C   0  0  0  0  0  0  0  0  0  0  0  0
    0.9553    0.5554    0.9522 C   0  0  0  0  0  0  0  0  0  0  0  0
    0.0212   -0.4618    0.3781 C   0  0  0  0  0  0  0  0  0  0  0  0
   -0.1859   -0.3859   -1.1140 C   0  0  0  0  0  0  0  0  0  0  0  0
   -1.4609   -1.1448   -0.8452 C   0  0  0  0  0  0  0  0  0  0  0  0
   -1.4183   -0.0586    0.2135 C   0  0  0  0  0  0  0  0  0  0  0  0
   -2.2642    0.1436    1.1124 O   0  0  0  0  0  0  0  0  0  0  0  0
   -0.9482    0.8077   -0.8553 C   0  0  0  0  0  0  0  0  0  0  0  0
   -1.1168    1.9101   -1.2738 O   0  0  0  0  0  0  0  0  0  0  0  0
    2.5692   -0.7443    0.4707 H   0  0  0  0  0  0  0  0  0  0  0  0
    2.1834    0.3908   -0.8353 H   0  0  0  0  0  0  0  0  0  0  0  0
    3.0792    0.9901    0.6510 H   0  0  0  0  0  0  0  0  0  0  0  0
    1.1537    0.4047    2.0298 H   0  0  0  0  0  0  0  0  0  0  0  0
    0.6678    1.5867    0.7669 H   0  0  0  0  0  0  0  0  0  0  0  0
    0.1613   -1.4975    0.7093 H   0  0  0  0  0  0  0  0  0  0  0  0
    0.4951   -0.5990   -1.8171 H   0  0  0  0  0  0  0  0  0  0  0  0
   -2.2242   -1.0358   -1.6114 H   0  0  0  0  0  0  0  0  0  0  0  0
   -1.2509   -2.1656   -0.4673 H   0  0  0  0  0  0  0  0  0  0  0  0
   -2.7249    0.9793    1.2944 H   0  0  0  0  0  0  0  0  0  0  0  0
  1  2  1  0
  2  3  1  0
  3  4  1  0
  4  5  1  0
  5  6  1  0
  6  7  1  0
  6  8  1  0
  8  9  2  0
  6  3  1  0
  8  4  1  0
  1 10  1  0
  1 11  1  0
  1 12  1  0
  2 13  1  0
  2 14  1  0
  3 15  1  0
  4 16  1  0
  5 17  1  0
  5 18  1  0
  7 19  1  0
M  END
