
     RDKit          3D

 23 24  0  0  0  0  0  0  0  0999 V2000
    2.5951   -0.0534   -0.1405 C   0  0  0  0  0  0  0  0  0  0  0  0
    1.6936   -0.7153    0.8284 C   0  0  0  0  0  0  0  0  0  0  0  0
    0.2786   -0.3382    0.8160 C   0  0  0  0  0  0  0  0  0  0  0  0
   -0.4283   -0.5962   -0.4985 C   0  0  0  0  0  0  0  0  0  0  0  0
   -1.8920   -0.7632   -0.1688 C   0  0  0  0  0  0  0  0  0  0  0  0
   -2.3601    0.5129    0.4726 C   0  0  0  0  0  0  0  0  0  0  0  0
   -1.4158    1.2186    1.1577 O   0  0  0  0  0  0  0  0  0  0  0  0
   -0.1160    1.0920    0.6672 C   0  0  0  0  0  0  0  0  0  0  0  0
   -0.2458    0.8796   -0.8233 C   0  0  0  0  0  0  0  0  0  0  0  0
    2.5918    1.0418   -0.1157 H   0  0  0  0  0  0  0  0  0  0  0  0
    3.6442   -0.4090    0.0962 H   0  0  0  0  0  0  0  0  0  0  0  0
    2.4514   -0.3978   -1.2057 H   0  0  0  0  0  0  0  0  0  0  0  0
    2.1404   -0.5936    1.8494 H   0  0  0  0  0  0  0  0  0  0  0  0
    1.7615   -1.8259    0.6386 H   0  0  0  0  0  0  0  0  0  0  0  0
   -0.2635   -0.8269    1.6802 H   0  0  0  0  0  0  0  0  0  0  0  0
    0.0225   -1.3057   -1.1769 H   0  0  0  0  0  0  0  0  0  0  0  0
   -2.4345   -1.0152   -1.0846 H   0  0  0  0  0  0  0  0  0  0  0  0
   -1.9400   -1.5890    0.5980 H   0  0  0  0  0  0  0  0  0  0  0  0
   -2.9328    1.1561   -0.2593 H   0  0  0  0  0  0  0  0  0  0  0  0
   -3.1521    0.2102    1.2209 H   0  0  0  0  0  0  0  0  0  0  0  0
    0.5675    1.8631    1.0024 H   0  0  0  0  0  0  0  0  0  0  0  0
   -1.1722    1.3466   -1.2699 H   0  0  0  0  0  0  0  0  0  0  0  0
    0.6064    1.1086   -1.4521 H   0  0  0  0  0  0  0  0  0  0  0  0
  1  2  1  0
  2  3  1  0
  3  4  1  0
  4  5  1  0
  5  6  1  0
  6  7  1  0
  7  8  1  0
  8  9  1  0
  8  3  1  0
  9  4  1  0
  1 10  1  0
  1 11  1  0
  1 12  1  0
  2 13  1  0
  2 14  1  0
  3 15  1  0
  4 16  1  0
  5 17  1  0
  5 18  1  0
  6 19  1  0
  6 20  1  0
  8 21  1  0
  9 22  1  0
  9 23  1  0
M  END
