
     RDKit          3D

 23 24  0  0  0  0  0  0  0  0999 V2000
    2.2921    0.3965    1.1441 C   0  0  0  0  0  0  0  0  0  0  0  0
    1.1860    0.9551    0.3257 C   0  0  0  0  0  0  0  0  0  0  0  0
    0.3102   -0.0288   -0.3475 C   0  0  0  0  0  0  0  0  0  0  0  0
    0.8152   -1.0167   -1.3370 C   0  0  0  0  0  0  0  0  0  0  0  0
   -0.1112   -1.9916   -0.9163 O   0  0  0  0  0  0  0  0  0  0  0  0
   -0.2451   -1.2376    0.2456 C   0  0  0  0  0  0  0  0  0  0  0  0
   -1.1142   -0.0307    0.0975 C   0  0  0  0  0  0  0  0  0  0  0  0
   -2.1340    0.0372   -1.0065 C   0  0  0  0  0  0  0  0  0  0  0  0
   -1.5314    0.5581    1.4044 C   0  0  0  0  0  0  0  0  0  0  0  0
    2.5742   -0.6378    0.9054 H   0  0  0  0  0  0  0  0  0  0  0  0
    2.0663    0.4023    2.2479 H   0  0  0  0  0  0  0  0  0  0  0  0
    3.2479    0.9943    1.0630 H   0  0  0  0  0  0  0  0  0  0  0  0
    0.6048    1.6636    0.9432 H   0  0  0  0  0  0  0  0  0  0  0  0
    1.6580    1.5938   -0.4782 H   0  0  0  0  0  0  0  0  0  0  0  0
    1.8269   -1.4155   -1.1901 H   0  0  0  0  0  0  0  0  0  0  0  0
    0.6656   -0.7783   -2.4137 H   0  0  0  0  0  0  0  0  0  0  0  0
    0.0204   -1.6509    1.2209 H   0  0  0  0  0  0  0  0  0  0  0  0
   -2.1581    1.0456   -1.4858 H   0  0  0  0  0  0  0  0  0  0  0  0
   -1.8131   -0.6700   -1.8003 H   0  0  0  0  0  0  0  0  0  0  0  0
   -3.1662   -0.1979   -0.6629 H   0  0  0  0  0  0  0  0  0  0  0  0
   -2.4729    0.0491    1.7182 H   0  0  0  0  0  0  0  0  0  0  0  0
   -0.7898    0.3300    2.2075 H   0  0  0  0  0  0  0  0  0  0  0  0
   -1.7315    1.6304    1.3894 H   0  0  0  0  0  0  0  0  0  0  0  0
  1  2  1  0
  2  3  1  0
  3  4  1  0
  4  5  1  0
  5  6  1  0
  6  7  1  0
  7  8  1  0
  7  9  1  0
  6  3  1  0
  7  3  1  0
  1 10  1  0
  1 11  1  0
  1 12  1  0
  2 13  1  0
  2 14  1  0
  4 15  1  0
  4 16  1  0
  6 17  1  0
  8 18  1  0
  8 19  1  0
  8 20  1  0
  9 21  1  0
  9 22  1  0
  9 23  1  0
M  END
