
     RDKit          3D

 17 18  0  0  0  0  0  0  0  0999 V2000
    2.0959   -0.1998    0.4180 C   0  0  0  0  0  0  0  0  0  0  0  0
    1.0134   -0.5597   -0.5764 C   0  0  0  0  0  0  0  0  0  0  0  0
   -0.1189    0.4019   -0.4330 C   0  0  0  0  0  0  0  0  0  0  0  0
   -0.7827    0.4461    0.9179 C   0  0  0  0  0  0  0  0  0  0  0  0
   -2.1462    0.3281    0.2958 C   0  0  0  0  0  0  0  0  0  0  0  0
   -2.4350    0.9408   -0.9011 O   0  0  0  0  0  0  0  0  0  0  0  0
   -1.4354   -0.0066   -1.0191 C   0  0  0  0  0  0  0  0  0  0  0  0
    1.6922   -0.2068    1.4293 H   0  0  0  0  0  0  0  0  0  0  0  0
    2.9910   -0.8348    0.2986 H   0  0  0  0  0  0  0  0  0  0  0  0
    2.4338    0.8480    0.2026 H   0  0  0  0  0  0  0  0  0  0  0  0
    0.7327   -1.6171   -0.4451 H   0  0  0  0  0  0  0  0  0  0  0  0
    1.4335   -0.4375   -1.5969 H   0  0  0  0  0  0  0  0  0  0  0  0
    0.1813    1.4030   -0.8414 H   0  0  0  0  0  0  0  0  0  0  0  0
   -0.5994    1.3622    1.5174 H   0  0  0  0  0  0  0  0  0  0  0  0
   -0.5653   -0.5056    1.4866 H   0  0  0  0  0  0  0  0  0  0  0  0
   -2.8838   -0.3758    0.6962 H   0  0  0  0  0  0  0  0  0  0  0  0
   -1.6070   -0.9864   -1.4495 H   0  0  0  0  0  0  0  0  0  0  0  0
  1  2  1  0
  2  3  1  0
  3  4  1  0
  4  5  1  0
  5  6  1  0
  6  7  1  0
  7  3  1  0
  7  5  1  0
  1  8  1  0
  1  9  1  0
  1 10  1  0
  2 11  1  0
  2 12  1  0
  3 13  1  0
  4 14  1  0
  4 15  1  0
  5 16  1  0
  7 17  1  0
M  END
