
     RDKit          3D

 23 23  0  0  0  0  0  0  0  0999 V2000
   -2.4809   -0.3711    0.5619 C   0  0  0  0  0  0  0  0  0  0  0  0
   -1.3354   -1.0391   -0.1355 C   0  0  0  0  0  0  0  0  0  0  0  0
   -0.3608   -0.0640   -0.7398 C   0  0  0  0  0  0  0  0  0  0  0  0
    0.6566   -0.7633   -1.3585 O   0  0  0  0  0  0  0  0  0  0  0  0
    1.4442   -1.4963   -0.5024 C   0  0  0  0  0  0  0  0  0  0  0  0
    1.9852   -0.6890    0.6194 C   0  0  0  0  0  0  0  0  0  0  0  0
    1.3929    0.4298    0.9573 C   0  0  0  0  0  0  0  0  0  0  0  0
    0.1710    0.9299    0.2406 C   0  0  0  0  0  0  0  0  0  0  0  0
    0.6285    2.1795   -0.5174 C   0  0  0  0  0  0  0  0  0  0  0  0
   -2.4400    0.7391    0.4660 H   0  0  0  0  0  0  0  0  0  0  0  0
   -3.4711   -0.7728    0.1977 H   0  0  0  0  0  0  0  0  0  0  0  0
   -2.4300   -0.6295    1.6416 H   0  0  0  0  0  0  0  0  0  0  0  0
   -1.7402   -1.6543   -0.9776 H   0  0  0  0  0  0  0  0  0  0  0  0
   -0.8095   -1.7405    0.5362 H   0  0  0  0  0  0  0  0  0  0  0  0
   -0.9117    0.4799   -1.5449 H   0  0  0  0  0  0  0  0  0  0  0  0
    0.9756   -2.4436   -0.1564 H   0  0  0  0  0  0  0  0  0  0  0  0
    2.3415   -1.8282   -1.1023 H   0  0  0  0  0  0  0  0  0  0  0  0
    2.8777   -1.0483    1.1477 H   0  0  0  0  0  0  0  0  0  0  0  0
    1.7463    1.0570    1.7683 H   0  0  0  0  0  0  0  0  0  0  0  0
   -0.5409    1.2544    1.0047 H   0  0  0  0  0  0  0  0  0  0  0  0
   -0.1442    2.9649   -0.4704 H   0  0  0  0  0  0  0  0  0  0  0  0
    1.5502    2.6064   -0.0650 H   0  0  0  0  0  0  0  0  0  0  0  0
    0.8950    1.8992   -1.5712 H   0  0  0  0  0  0  0  0  0  0  0  0
  1  2  1  0
  2  3  1  0
  3  4  1  0
  4  5  1  0
  5  6  1  0
  6  7  2  0
  7  8  1  0
  8  9  1  0
  8  3  1  0
  1 10  1  0
  1 11  1  0
  1 12  1  0
  2 13  1  0
  2 14  1  0
  3 15  1  0
  5 16  1  0
  5 17  1  0
  6 18  1  0
  7 19  1  0
  8 20  1  0
  9 21  1  0
  9 22  1  0
  9 23  1  0
M  END
