
     RDKit          3D

 21 22  0  0  0  0  0  0  0  0999 V2000
    1.9938   -0.9299    0.7391 C   0  0  0  0  0  0  0  0  0  0  0  0
    1.2832   -0.3796   -0.4540 C   0  0  0  0  0  0  0  0  0  0  0  0
    0.1193    0.4946   -0.1333 C   0  0  0  0  0  0  0  0  0  0  0  0
    0.3700    1.7348    0.6769 C   0  0  0  0  0  0  0  0  0  0  0  0
   -0.6065    1.3582    1.5862 O   0  0  0  0  0  0  0  0  0  0  0  0
   -0.8720    0.1763    0.9046 C   0  0  0  0  0  0  0  0  0  0  0  0
   -1.2516    0.2260   -0.5385 C   0  0  0  0  0  0  0  0  0  0  0  0
   -1.6498   -1.0835   -1.1624 C   0  0  0  0  0  0  0  0  0  0  0  0
   -1.9816    1.3265   -1.0255 O   0  0  0  0  0  0  0  0  0  0  0  0
    3.0386   -1.1431    0.4295 H   0  0  0  0  0  0  0  0  0  0  0  0
    1.5791   -1.9000    1.0909 H   0  0  0  0  0  0  0  0  0  0  0  0
    1.9984   -0.2359    1.6167 H   0  0  0  0  0  0  0  0  0  0  0  0
    2.0269    0.2627   -1.0138 H   0  0  0  0  0  0  0  0  0  0  0  0
    1.0490   -1.2093   -1.1339 H   0  0  0  0  0  0  0  0  0  0  0  0
    1.4067    1.7480    1.0684 H   0  0  0  0  0  0  0  0  0  0  0  0
    0.0750    2.6620    0.1652 H   0  0  0  0  0  0  0  0  0  0  0  0
   -0.8812   -0.7454    1.4822 H   0  0  0  0  0  0  0  0  0  0  0  0
   -1.8402   -1.8337   -0.3731 H   0  0  0  0  0  0  0  0  0  0  0  0
   -2.6129   -0.9893   -1.7368 H   0  0  0  0  0  0  0  0  0  0  0  0
   -0.8830   -1.4104   -1.8941 H   0  0  0  0  0  0  0  0  0  0  0  0
   -2.3613    1.8713   -0.2944 H   0  0  0  0  0  0  0  0  0  0  0  0
  1  2  1  0
  2  3  1  0
  3  4  1  0
  4  5  1  0
  5  6  1  0
  6  7  1  0
  7  8  1  0
  7  9  1  0
  6  3  1  0
  7  3  1  0
  1 10  1  0
  1 11  1  0
  1 12  1  0
  2 13  1  0
  2 14  1  0
  4 15  1  0
  4 16  1  0
  6 17  1  0
  8 18  1  0
  8 19  1  0
  8 20  1  0
  9 21  1  0
M  END
