
     RDKit          3D

 17 18  0  0  0  0  0  0  0  0999 V2000
    2.1377   -0.4325    0.3640 C   0  0  0  0  0  0  0  0  0  0  0  0
    1.1449   -0.3809   -0.7848 C   0  0  0  0  0  0  0  0  0  0  0  0
   -0.1049    0.2472   -0.2799 C   0  0  0  0  0  0  0  0  0  0  0  0
   -0.8878   -0.3384    0.8423 C   0  0  0  0  0  0  0  0  0  0  0  0
   -2.0925    0.4560    0.3126 C   0  0  0  0  0  0  0  0  0  0  0  0
   -1.1809    0.8087   -0.8763 C   0  0  0  0  0  0  0  0  0  0  0  0
   -0.1530    1.6530   -0.4953 O   0  0  0  0  0  0  0  0  0  0  0  0
    3.0565    0.1548    0.1488 H   0  0  0  0  0  0  0  0  0  0  0  0
    1.7093   -0.0060    1.3011 H   0  0  0  0  0  0  0  0  0  0  0  0
    2.3587   -1.4944    0.5803 H   0  0  0  0  0  0  0  0  0  0  0  0
    1.6092    0.1351   -1.6273 H   0  0  0  0  0  0  0  0  0  0  0  0
    0.8959   -1.4139   -1.1470 H   0  0  0  0  0  0  0  0  0  0  0  0
   -0.5658   -0.0317    1.8496 H   0  0  0  0  0  0  0  0  0  0  0  0
   -1.0834   -1.4034    0.7112 H   0  0  0  0  0  0  0  0  0  0  0  0
   -2.9552   -0.1545    0.0451 H   0  0  0  0  0  0  0  0  0  0  0  0
   -2.2755    1.3552    0.9303 H   0  0  0  0  0  0  0  0  0  0  0  0
   -1.6130    0.8458   -1.8748 H   0  0  0  0  0  0  0  0  0  0  0  0
  1  2  1  0
  2  3  1  0
  3  4  1  0
  4  5  1  0
  5  6  1  0
  6  7  1  0
  6  3  1  0
  7  3  1  0
  1  8  1  0
  1  9  1  0
  1 10  1  0
  2 11  1  0
  2 12  1  0
  4 13  1  0
  4 14  1  0
  5 15  1  0
  5 16  1  0
  6 17  1  0
M  END
