
     RDKit          3D

 25 25  0  0  0  0  0  0  0  0999 V2000
   -3.1160   -0.4276    0.3250 C   0  0  0  0  0  0  0  0  0  0  0  0
   -1.9939    0.5323    0.0747 C   0  0  0  0  0  0  0  0  0  0  0  0
   -0.6659   -0.0087    0.5145 C   0  0  0  0  0  0  0  0  0  0  0  0
   -0.2610   -1.2708   -0.1663 C   0  0  0  0  0  0  0  0  0  0  0  0
    1.2500   -1.1826   -0.3999 C   0  0  0  0  0  0  0  0  0  0  0  0
    1.6271    0.0626    0.3038 C   0  0  0  0  0  0  0  0  0  0  0  0
    2.8924    0.7060   -0.1112 C   0  0  0  0  0  0  0  0  0  0  0  0
    0.4193    0.9626    0.0251 C   0  0  0  0  0  0  0  0  0  0  0  0
    0.2061    1.1314   -1.3300 O   0  0  0  0  0  0  0  0  0  0  0  0
   -3.9834    0.0718    0.8291 H   0  0  0  0  0  0  0  0  0  0  0  0
   -3.4546   -0.9466   -0.5897 H   0  0  0  0  0  0  0  0  0  0  0  0
   -2.7781   -1.2357    1.0236 H   0  0  0  0  0  0  0  0  0  0  0  0
   -1.9411    0.8808   -0.9776 H   0  0  0  0  0  0  0  0  0  0  0  0
   -2.1948    1.4409    0.6909 H   0  0  0  0  0  0  0  0  0  0  0  0
   -0.5909   -0.0621    1.6193 H   0  0  0  0  0  0  0  0  0  0  0  0
   -0.5003   -2.1560    0.4729 H   0  0  0  0  0  0  0  0  0  0  0  0
   -0.8089   -1.3969   -1.1196 H   0  0  0  0  0  0  0  0  0  0  0  0
    1.7167   -2.0598    0.0697 H   0  0  0  0  0  0  0  0  0  0  0  0
    1.4775   -1.1841   -1.4851 H   0  0  0  0  0  0  0  0  0  0  0  0
    1.6088   -0.1267    1.3988 H   0  0  0  0  0  0  0  0  0  0  0  0
    3.7073    0.0221   -0.3364 H   0  0  0  0  0  0  0  0  0  0  0  0
    3.2433    1.3340    0.7617 H   0  0  0  0  0  0  0  0  0  0  0  0
    2.7676    1.4606   -0.9413 H   0  0  0  0  0  0  0  0  0  0  0  0
    0.4472    1.8804    0.6060 H   0  0  0  0  0  0  0  0  0  0  0  0
    0.9259    1.5720   -1.8121 H   0  0  0  0  0  0  0  0  0  0  0  0
  1  2  1  0
  2  3  1  0
  3  4  1  0
  4  5  1  0
  5  6  1  0
  6  7  1  0
  6  8  1  0
  8  9  1  0
  8  3  1  0
  1 10  1  0
  1 11  1  0
  1 12  1  0
  2 13  1  0
  2 14  1  0
  3 15  1  0
  4 16  1  0
  4 17  1  0
  5 18  1  0
  5 19  1  0
  6 20  1  0
  7 21  1  0
  7 22  1  0
  7 23  1  0
  8 24  1  0
  9 25  1  0
M  END
