
     RDKit          3D

 25 26  0  0  0  0  0  0  0  0999 V2000
    2.6142    0.9439   -0.1012 C   0  0  0  0  0  0  0  0  0  0  0  0
    2.0422   -0.4118    0.1661 C   0  0  0  0  0  0  0  0  0  0  0  0
    0.6067   -0.4027    0.0577 C   0  0  0  0  0  0  0  0  0  0  0  0
   -0.2361    0.4720    0.9349 C   0  0  0  0  0  0  0  0  0  0  0  0
   -1.6214   -0.0698    0.5388 C   0  0  0  0  0  0  0  0  0  0  0  0
   -2.5696    1.0490    0.2177 C   0  0  0  0  0  0  0  0  0  0  0  0
   -1.2236   -0.8908   -0.6373 C   0  0  0  0  0  0  0  0  0  0  0  0
   -0.0424   -0.1542   -1.2906 C   0  0  0  0  0  0  0  0  0  0  0  0
   -0.1250   -1.7548    0.0005 C   0  0  0  0  0  0  0  0  0  0  0  0
    2.8208    1.4788    0.8637 H   0  0  0  0  0  0  0  0  0  0  0  0
    3.6336    0.7901   -0.5576 H   0  0  0  0  0  0  0  0  0  0  0  0
    1.9441    1.5159   -0.7417 H   0  0  0  0  0  0  0  0  0  0  0  0
    2.4581   -1.2001   -0.5184 H   0  0  0  0  0  0  0  0  0  0  0  0
    2.3669   -0.7193    1.1811 H   0  0  0  0  0  0  0  0  0  0  0  0
   -0.0484    0.3839    1.9986 H   0  0  0  0  0  0  0  0  0  0  0  0
   -0.2030    1.4998    0.5293 H   0  0  0  0  0  0  0  0  0  0  0  0
   -2.0286   -0.6506    1.3700 H   0  0  0  0  0  0  0  0  0  0  0  0
   -3.5461    0.5819   -0.0210 H   0  0  0  0  0  0  0  0  0  0  0  0
   -2.7394    1.6069    1.1782 H   0  0  0  0  0  0  0  0  0  0  0  0
   -2.2360    1.7107   -0.5884 H   0  0  0  0  0  0  0  0  0  0  0  0
   -1.9252   -1.3626   -1.2660 H   0  0  0  0  0  0  0  0  0  0  0  0
    0.3598   -0.7447   -2.1187 H   0  0  0  0  0  0  0  0  0  0  0  0
   -0.2950    0.8973   -1.4951 H   0  0  0  0  0  0  0  0  0  0  0  0
    0.3818   -2.4251   -0.6948 H   0  0  0  0  0  0  0  0  0  0  0  0
   -0.3881   -2.1437    0.9944 H   0  0  0  0  0  0  0  0  0  0  0  0
  1  2  1  0
  2  3  1  0
  3  4  1  0
  4  5  1  0
  5  6  1  0
  5  7  1  0
  7  8  1  0
  7  9  1  0
  8  3  1  0
  9  3  1  0
  1 10  1  0
  1 11  1  0
  1 12  1  0
  2 13  1  0
  2 14  1  0
  4 15  1  0
  4 16  1  0
  5 17  1  0
  6 18  1  0
  6 19  1  0
  6 20  1  0
  7 21  1  0
  8 22  1  0
  8 23  1  0
  9 24  1  0
  9 25  1  0
M  END
