
     RDKit          3D

 18 18  0  0  0  0  0  0  0  0999 V2000
   -1.7079   -1.2652    0.0701 C   0  0  0  0  0  0  0  0  0  0  0  0
   -0.9292   -0.1493   -0.5599 C   0  0  0  0  0  0  0  0  0  0  0  0
    0.2726    0.2709    0.2083 C   0  0  0  0  0  0  0  0  0  0  0  0
    1.3065   -0.6470    0.4745 O   0  0  0  0  0  0  0  0  0  0  0  0
    2.0380   -1.3016   -0.4950 C   0  0  0  0  0  0  0  0  0  0  0  0
    1.7640   -1.0634   -1.6937 O   0  0  0  0  0  0  0  0  0  0  0  0
    0.0760    1.3591    1.2396 C   0  0  0  0  0  0  0  0  0  0  0  0
    0.7025    1.7308   -0.0673 C   0  0  0  0  0  0  0  0  0  0  0  0
   -1.1632   -2.2277    0.0763 H   0  0  0  0  0  0  0  0  0  0  0  0
   -2.6396   -1.3930   -0.5537 H   0  0  0  0  0  0  0  0  0  0  0  0
   -2.0319   -0.9785    1.1085 H   0  0  0  0  0  0  0  0  0  0  0  0
   -1.6159    0.7319   -0.6246 H   0  0  0  0  0  0  0  0  0  0  0  0
   -0.6812   -0.4179   -1.5963 H   0  0  0  0  0  0  0  0  0  0  0  0
    2.8315   -2.0061   -0.2819 H   0  0  0  0  0  0  0  0  0  0  0  0
    0.7497    1.3426    2.1392 H   0  0  0  0  0  0  0  0  0  0  0  0
   -0.9161    1.7752    1.4167 H   0  0  0  0  0  0  0  0  0  0  0  0
    1.7879    1.9426   -0.0390 H   0  0  0  0  0  0  0  0  0  0  0  0
    0.1563    2.2964   -0.8218 H   0  0  0  0  0  0  0  0  0  0  0  0
  1  2  1  0
  2  3  1  0
  3  4  1  0
  4  5  1  0
  5  6  2  0
  3  7  1  0
  7  8  1  0
  8  3  1  0
  1  9  1  0
  1 10  1  0
  1 11  1  0
  2 12  1  0
  2 13  1  0
  5 14  1  0
  7 15  1  0
  7 16  1  0
  8 17  1  0
  8 18  1  0
M  END
