
     RDKit          3D

 23 24  0  0  0  0  0  0  0  0999 V2000
   -2.8240   -0.1991   -0.5836 C   0  0  0  0  0  0  0  0  0  0  0  0
   -1.6648   -1.0730   -0.1307 C   0  0  0  0  0  0  0  0  0  0  0  0
   -0.7890   -0.2249    0.7665 C   0  0  0  0  0  0  0  0  0  0  0  0
    0.4324   -0.7793    1.3784 C   0  0  0  0  0  0  0  0  0  0  0  0
    0.4506    0.2590    0.2458 C   0  0  0  0  0  0  0  0  0  0  0  0
    1.1570   -0.1862   -0.9793 C   0  0  0  0  0  0  0  0  0  0  0  0
    2.5257    0.4669   -0.7351 C   0  0  0  0  0  0  0  0  0  0  0  0
    2.2610    1.6668   -0.1286 O   0  0  0  0  0  0  0  0  0  0  0  0
    1.0789    1.5845    0.5555 C   0  0  0  0  0  0  0  0  0  0  0  0
   -3.1226    0.3888    0.3305 H   0  0  0  0  0  0  0  0  0  0  0  0
   -2.4980    0.5383   -1.3224 H   0  0  0  0  0  0  0  0  0  0  0  0
   -3.7096   -0.7870   -0.8692 H   0  0  0  0  0  0  0  0  0  0  0  0
   -1.1179   -1.3639   -1.0712 H   0  0  0  0  0  0  0  0  0  0  0  0
   -2.0869   -1.9437    0.3831 H   0  0  0  0  0  0  0  0  0  0  0  0
   -1.3865    0.4492    1.4262 H   0  0  0  0  0  0  0  0  0  0  0  0
    0.8213   -1.7800    1.1736 H   0  0  0  0  0  0  0  0  0  0  0  0
    0.7592   -0.3764    2.3730 H   0  0  0  0  0  0  0  0  0  0  0  0
    0.7409    0.2456   -1.9198 H   0  0  0  0  0  0  0  0  0  0  0  0
    1.2473   -1.2842   -1.0739 H   0  0  0  0  0  0  0  0  0  0  0  0
    3.0282   -0.2043    0.0207 H   0  0  0  0  0  0  0  0  0  0  0  0
    3.1122    0.5330   -1.6543 H   0  0  0  0  0  0  0  0  0  0  0  0
    0.4133    2.4059    0.1588 H   0  0  0  0  0  0  0  0  0  0  0  0
    1.1715    1.6639    1.6561 H   0  0  0  0  0  0  0  0  0  0  0  0
  1  2  1  0
  2  3  1  0
  3  4  1  0
  4  5  1  0
  5  6  1  0
  6  7  1  0
  7  8  1  0
  8  9  1  0
  5  3  1  0
  9  5  1  0
  1 10  1  0
  1 11  1  0
  1 12  1  0
  2 13  1  0
  2 14  1  0
  3 15  1  0
  4 16  1  0
  4 17  1  0
  6 18  1  0
  6 19  1  0
  7 20  1  0
  7 21  1  0
  9 22  1  0
  9 23  1  0
M  END
