
     RDKit          3D

 23 24  0  0  0  0  0  0  0  0999 V2000
    2.3707    0.9955   -0.1923 C   0  0  0  0  0  0  0  0  0  0  0  0
    1.8943   -0.4417   -0.1903 C   0  0  0  0  0  0  0  0  0  0  0  0
    0.4318   -0.5480   -0.4870 C   0  0  0  0  0  0  0  0  0  0  0  0
   -0.0878   -1.9788   -0.4944 C   0  0  0  0  0  0  0  0  0  0  0  0
   -0.5516   -0.9429    0.5337 C   0  0  0  0  0  0  0  0  0  0  0  0
   -1.9429   -0.4620    0.3214 C   0  0  0  0  0  0  0  0  0  0  0  0
   -2.0604    0.8940   -0.2824 C   0  0  0  0  0  0  0  0  0  0  0  0
   -0.6684    1.3914   -0.6535 C   0  0  0  0  0  0  0  0  0  0  0  0
   -0.0717    0.3540   -1.3972 O   0  0  0  0  0  0  0  0  0  0  0  0
    1.8442    1.5121   -1.0239 H   0  0  0  0  0  0  0  0  0  0  0  0
    2.2188    1.5040    0.7686 H   0  0  0  0  0  0  0  0  0  0  0  0
    3.4774    0.9514   -0.4117 H   0  0  0  0  0  0  0  0  0  0  0  0
    2.2081   -0.9767    0.7210 H   0  0  0  0  0  0  0  0  0  0  0  0
    2.4350   -0.9484   -1.0403 H   0  0  0  0  0  0  0  0  0  0  0  0
   -0.7431   -2.2021   -1.3497 H   0  0  0  0  0  0  0  0  0  0  0  0
    0.5531   -2.7756   -0.1076 H   0  0  0  0  0  0  0  0  0  0  0  0
   -0.1908   -1.1002    1.5794 H   0  0  0  0  0  0  0  0  0  0  0  0
   -2.4979   -0.4451    1.3053 H   0  0  0  0  0  0  0  0  0  0  0  0
   -2.5269   -1.1918   -0.3101 H   0  0  0  0  0  0  0  0  0  0  0  0
   -2.7245    0.8969   -1.1762 H   0  0  0  0  0  0  0  0  0  0  0  0
   -2.4999    1.6465    0.4331 H   0  0  0  0  0  0  0  0  0  0  0  0
   -0.1397    1.5355    0.3269 H   0  0  0  0  0  0  0  0  0  0  0  0
   -0.7278    2.3319   -1.2322 H   0  0  0  0  0  0  0  0  0  0  0  0
  1  2  1  0
  2  3  1  0
  3  4  1  0
  4  5  1  0
  5  6  1  0
  6  7  1  0
  7  8  1  0
  8  9  1  0
  5  3  1  0
  9  3  1  0
  1 10  1  0
  1 11  1  0
  1 12  1  0
  2 13  1  0
  2 14  1  0
  4 15  1  0
  4 16  1  0
  5 17  1  0
  6 18  1  0
  6 19  1  0
  7 20  1  0
  7 21  1  0
  8 22  1  0
  8 23  1  0
M  END
