
     RDKit          3D

 23 23  0  0  0  0  0  0  0  0999 V2000
    2.2471   -0.6078   -0.5252 C   0  0  0  0  0  0  0  0  0  0  0  0
    1.3327   -0.3658    0.6669 C   0  0  0  0  0  0  0  0  0  0  0  0
    0.3496    0.6947    0.3027 C   0  0  0  0  0  0  0  0  0  0  0  0
   -0.6499    1.0982    1.3198 C   0  0  0  0  0  0  0  0  0  0  0  0
   -0.8485    0.2778    2.4003 O   0  0  0  0  0  0  0  0  0  0  0  0
   -1.7243    1.0266    0.2470 C   0  0  0  0  0  0  0  0  0  0  0  0
   -0.7478    0.2970   -0.6359 C   0  0  0  0  0  0  0  0  0  0  0  0
   -1.0024   -1.1752   -0.7784 C   0  0  0  0  0  0  0  0  0  0  0  0
   -0.6652    0.8795   -1.9137 O   0  0  0  0  0  0  0  0  0  0  0  0
    1.7741   -0.2424   -1.4722 H   0  0  0  0  0  0  0  0  0  0  0  0
    2.4738   -1.6712   -0.6591 H   0  0  0  0  0  0  0  0  0  0  0  0
    3.2252   -0.0808   -0.3895 H   0  0  0  0  0  0  0  0  0  0  0  0
    0.7987   -1.2931    0.9504 H   0  0  0  0  0  0  0  0  0  0  0  0
    1.9767    0.0116    1.4856 H   0  0  0  0  0  0  0  0  0  0  0  0
    0.9012    1.5783   -0.1344 H   0  0  0  0  0  0  0  0  0  0  0  0
   -0.4644    2.1500    1.6860 H   0  0  0  0  0  0  0  0  0  0  0  0
   -0.7899   -0.6737    2.2372 H   0  0  0  0  0  0  0  0  0  0  0  0
   -1.9357    2.0381   -0.1367 H   0  0  0  0  0  0  0  0  0  0  0  0
   -2.6346    0.4956    0.5166 H   0  0  0  0  0  0  0  0  0  0  0  0
   -1.8126   -1.2899   -1.5415 H   0  0  0  0  0  0  0  0  0  0  0  0
   -0.1200   -1.6878   -1.1846 H   0  0  0  0  0  0  0  0  0  0  0  0
   -1.3531   -1.6691    0.1273 H   0  0  0  0  0  0  0  0  0  0  0  0
   -0.3308    0.2096   -2.5686 H   0  0  0  0  0  0  0  0  0  0  0  0
  1  2  1  0
  2  3  1  0
  3  4  1  0
  4  5  1  0
  4  6  1  0
  6  7  1  0
  7  8  1  0
  7  9  1  0
  7  3  1  0
  1 10  1  0
  1 11  1  0
  1 12  1  0
  2 13  1  0
  2 14  1  0
  3 15  1  0
  4 16  1  0
  5 17  1  0
  6 18  1  0
  6 19  1  0
  8 20  1  0
  8 21  1  0
  8 22  1  0
  9 23  1  0
M  END
