
     RDKit          3D

 23 25  0  0  0  0  0  0  0  0999 V2000
    2.8630    0.5378    0.0687 C   0  0  0  0  0  0  0  0  0  0  0  0
    1.4193    0.5611    0.5037 C   0  0  0  0  0  0  0  0  0  0  0  0
    0.4946   -0.1292   -0.4348 C   0  0  0  0  0  0  0  0  0  0  0  0
    0.6004   -1.5505   -0.7894 C   0  0  0  0  0  0  0  0  0  0  0  0
   -0.3803   -1.2087    0.2525 C   0  0  0  0  0  0  0  0  0  0  0  0
   -1.5382   -0.3051    0.0299 C   0  0  0  0  0  0  0  0  0  0  0  0
   -2.1597    0.4187    1.1981 C   0  0  0  0  0  0  0  0  0  0  0  0
   -1.9392   -0.0437   -1.3592 C   0  0  0  0  0  0  0  0  0  0  0  0
   -0.7074    0.6100   -0.8999 C   0  0  0  0  0  0  0  0  0  0  0  0
    3.2947   -0.4751    0.0565 H   0  0  0  0  0  0  0  0  0  0  0  0
    3.0327    1.0837   -0.8808 H   0  0  0  0  0  0  0  0  0  0  0  0
    3.4355    1.1080    0.8461 H   0  0  0  0  0  0  0  0  0  0  0  0
    1.3867    0.1630    1.5419 H   0  0  0  0  0  0  0  0  0  0  0  0
    1.1244    1.6307    0.5820 H   0  0  0  0  0  0  0  0  0  0  0  0
    0.1730   -1.8341   -1.7957 H   0  0  0  0  0  0  0  0  0  0  0  0
    1.4346   -2.1888   -0.4964 H   0  0  0  0  0  0  0  0  0  0  0  0
   -0.1579   -1.4727    1.2816 H   0  0  0  0  0  0  0  0  0  0  0  0
   -1.5989    0.1095    2.1138 H   0  0  0  0  0  0  0  0  0  0  0  0
   -2.0831    1.5248    1.0701 H   0  0  0  0  0  0  0  0  0  0  0  0
   -3.2035    0.0750    1.3392 H   0  0  0  0  0  0  0  0  0  0  0  0
   -1.9432   -0.9219   -2.0362 H   0  0  0  0  0  0  0  0  0  0  0  0
   -2.8193    0.6142   -1.4971 H   0  0  0  0  0  0  0  0  0  0  0  0
   -0.7279    1.6933   -0.6947 H   0  0  0  0  0  0  0  0  0  0  0  0
  1  2  1  0
  2  3  1  0
  3  4  1  0
  4  5  1  0
  5  6  1  0
  6  7  1  0
  6  8  1  0
  8  9  1  0
  5  3  1  0
  9  6  1  0
  9  3  1  0
  1 10  1  0
  1 11  1  0
  1 12  1  0
  2 13  1  0
  2 14  1  0
  4 15  1  0
  4 16  1  0
  5 17  1  0
  7 18  1  0
  7 19  1  0
  7 20  1  0
  8 21  1  0
  8 22  1  0
  9 23  1  0
M  END
