
     RDKit          3D

 23 24  0  0  0  0  0  0  0  0999 V2000
   -2.4618   -1.0454   -0.0778 C   0  0  0  0  0  0  0  0  0  0  0  0
   -1.6558    0.0913   -0.7368 C   0  0  0  0  0  0  0  0  0  0  0  0
   -0.4577    0.2898   -0.0263 C   0  0  0  0  0  0  0  0  0  0  0  0
    0.3917   -0.9197   -0.0042 C   0  0  0  0  0  0  0  0  0  0  0  0
    1.6023   -0.0864   -0.3248 C   0  0  0  0  0  0  0  0  0  0  0  0
    2.8059   -0.5883    0.4046 C   0  0  0  0  0  0  0  0  0  0  0  0
    0.7285    0.8869    0.4272 C   0  0  0  0  0  0  0  0  0  0  0  0
   -0.1053    1.7400   -0.1932 C   0  0  0  0  0  0  0  0  0  0  0  0
   -1.0062    2.5889    0.4766 O   0  0  0  0  0  0  0  0  0  0  0  0
   -2.8743   -1.7342   -0.8145 H   0  0  0  0  0  0  0  0  0  0  0  0
   -3.2310   -0.6116    0.6154 H   0  0  0  0  0  0  0  0  0  0  0  0
   -1.7896   -1.6512    0.5910 H   0  0  0  0  0  0  0  0  0  0  0  0
   -2.4135    0.9014   -0.8676 H   0  0  0  0  0  0  0  0  0  0  0  0
   -1.4672   -0.2700   -1.7925 H   0  0  0  0  0  0  0  0  0  0  0  0
    0.2510   -1.6919   -0.7685 H   0  0  0  0  0  0  0  0  0  0  0  0
    0.4472   -1.4064    0.9961 H   0  0  0  0  0  0  0  0  0  0  0  0
    1.7330    0.1322   -1.3860 H   0  0  0  0  0  0  0  0  0  0  0  0
    2.9761   -1.6529    0.0689 H   0  0  0  0  0  0  0  0  0  0  0  0
    3.7050    0.0048    0.1765 H   0  0  0  0  0  0  0  0  0  0  0  0
    2.5937   -0.6562    1.4829 H   0  0  0  0  0  0  0  0  0  0  0  0
    0.9315    0.8905    1.5382 H   0  0  0  0  0  0  0  0  0  0  0  0
    0.0997    2.1432   -1.2288 H   0  0  0  0  0  0  0  0  0  0  0  0
   -0.8032    2.6449    1.4436 H   0  0  0  0  0  0  0  0  0  0  0  0
  1  2  1  0
  2  3  1  0
  3  4  1  0
  4  5  1  0
  5  6  1  0
  5  7  1  0
  7  8  1  0
  8  9  1  0
  7  3  1  0
  8  3  1  0
  1 10  1  0
  1 11  1  0
  1 12  1  0
  2 13  1  0
  2 14  1  0
  4 15  1  0
  4 16  1  0
  5 17  1  0
  6 18  1  0
  6 19  1  0
  6 20  1  0
  7 21  1  0
  8 22  1  0
  9 23  1  0
M  END
