
     RDKit          3D

 23 24  0  0  0  0  0  0  0  0999 V2000
    2.6203    0.0306    0.3140 C   0  0  0  0  0  0  0  0  0  0  0  0
    1.5548   -0.6371   -0.5712 C   0  0  0  0  0  0  0  0  0  0  0  0
    0.2960    0.1319   -0.3252 C   0  0  0  0  0  0  0  0  0  0  0  0
    0.3785    1.4971   -0.6475 O   0  0  0  0  0  0  0  0  0  0  0  0
   -0.9824   -0.4226   -0.9006 C   0  0  0  0  0  0  0  0  0  0  0  0
   -1.9777    0.6207   -0.4783 C   0  0  0  0  0  0  0  0  0  0  0  0
   -1.5039    0.8414    0.9741 C   0  0  0  0  0  0  0  0  0  0  0  0
   -0.3710   -0.1513    1.0046 C   0  0  0  0  0  0  0  0  0  0  0  0
   -1.0084   -1.3412    0.3236 C   0  0  0  0  0  0  0  0  0  0  0  0
    3.6112   -0.4266    0.1660 H   0  0  0  0  0  0  0  0  0  0  0  0
    2.6093    1.1050    0.0019 H   0  0  0  0  0  0  0  0  0  0  0  0
    2.2605    0.0126    1.3525 H   0  0  0  0  0  0  0  0  0  0  0  0
    1.8689   -0.5990   -1.6285 H   0  0  0  0  0  0  0  0  0  0  0  0
    1.4566   -1.6783   -0.2034 H   0  0  0  0  0  0  0  0  0  0  0  0
    0.6550    1.5228   -1.6003 H   0  0  0  0  0  0  0  0  0  0  0  0
   -1.0041   -0.8522   -1.8608 H   0  0  0  0  0  0  0  0  0  0  0  0
   -1.8011    1.5837   -1.0261 H   0  0  0  0  0  0  0  0  0  0  0  0
   -3.0183    0.3052   -0.5208 H   0  0  0  0  0  0  0  0  0  0  0  0
   -1.0707    1.8427    1.0998 H   0  0  0  0  0  0  0  0  0  0  0  0
   -2.2962    0.6039    1.6933 H   0  0  0  0  0  0  0  0  0  0  0  0
    0.2115   -0.2830    1.8704 H   0  0  0  0  0  0  0  0  0  0  0  0
   -2.0560   -1.4480    0.7087 H   0  0  0  0  0  0  0  0  0  0  0  0
   -0.4326   -2.2581    0.2540 H   0  0  0  0  0  0  0  0  0  0  0  0
  1  2  1  0
  2  3  1  0
  3  4  1  0
  3  5  1  0
  5  6  1  0
  6  7  1  0
  7  8  1  0
  8  9  1  0
  8  3  1  0
  9  5  1  0
  1 10  1  0
  1 11  1  0
  1 12  1  0
  2 13  1  0
  2 14  1  0
  4 15  1  0
  5 16  1  0
  6 17  1  0
  6 18  1  0
  7 19  1  0
  7 20  1  0
  8 21  1  0
  9 22  1  0
  9 23  1  0
M  END
