
     RDKit          3D

 23 24  0  0  0  0  0  0  0  0999 V2000
    2.4241    0.6112   -0.0522 C   0  0  0  0  0  0  0  0  0  0  0  0
    1.5140   -0.5695   -0.1556 C   0  0  0  0  0  0  0  0  0  0  0  0
    0.0781   -0.2423   -0.2645 C   0  0  0  0  0  0  0  0  0  0  0  0
   -0.7678   -1.4917   -0.3642 C   0  0  0  0  0  0  0  0  0  0  0  0
   -1.5175   -1.1228    0.8852 C   0  0  0  0  0  0  0  0  0  0  0  0
   -0.6729    0.1365    0.9526 C   0  0  0  0  0  0  0  0  0  0  0  0
   -1.5151    1.3156    0.4807 C   0  0  0  0  0  0  0  0  0  0  0  0
   -1.6587    1.0520   -0.8797 O   0  0  0  0  0  0  0  0  0  0  0  0
   -0.3231    0.7996   -1.2697 C   0  0  0  0  0  0  0  0  0  0  0  0
    2.2163    1.4203   -0.7517 H   0  0  0  0  0  0  0  0  0  0  0  0
    2.4207    1.0192    0.9807 H   0  0  0  0  0  0  0  0  0  0  0  0
    3.4611    0.2441   -0.2981 H   0  0  0  0  0  0  0  0  0  0  0  0
    1.8007   -1.1678   -1.0698 H   0  0  0  0  0  0  0  0  0  0  0  0
    1.6762   -1.2387    0.6962 H   0  0  0  0  0  0  0  0  0  0  0  0
   -1.3494   -1.5234   -1.2870 H   0  0  0  0  0  0  0  0  0  0  0  0
   -0.2002   -2.4332   -0.2085 H   0  0  0  0  0  0  0  0  0  0  0  0
   -2.6028   -0.9516    0.7322 H   0  0  0  0  0  0  0  0  0  0  0  0
   -1.3170   -1.7469    1.7764 H   0  0  0  0  0  0  0  0  0  0  0  0
   -0.1352    0.3085    1.8782 H   0  0  0  0  0  0  0  0  0  0  0  0
   -2.5054    1.2956    0.9663 H   0  0  0  0  0  0  0  0  0  0  0  0
   -0.9347    2.2205    0.6845 H   0  0  0  0  0  0  0  0  0  0  0  0
    0.2435    1.7232   -1.1723 H   0  0  0  0  0  0  0  0  0  0  0  0
   -0.3349    0.3414   -2.2597 H   0  0  0  0  0  0  0  0  0  0  0  0
  1  2  1  0
  2  3  1  0
  3  4  1  0
  4  5  1  0
  5  6  1  0
  6  7  1  0
  7  8  1  0
  8  9  1  0
  6  3  1  0
  9  3  1  0
  1 10  1  0
  1 11  1  0
  1 12  1  0
  2 13  1  0
  2 14  1  0
  4 15  1  0
  4 16  1  0
  5 17  1  0
  5 18  1  0
  6 19  1  0
  7 20  1  0
  7 21  1  0
  9 22  1  0
  9 23  1  0
M  END
