
     RDKit          3D

 22 22  0  0  0  0  0  0  0  0999 V2000
    2.2500   -0.7336    0.5841 C   0  0  0  0  0  0  0  0  0  0  0  0
    1.6606    0.3343   -0.2849 C   0  0  0  0  0  0  0  0  0  0  0  0
    0.3536    0.8715    0.2188 C   0  0  0  0  0  0  0  0  0  0  0  0
   -0.1115    1.8606   -0.6611 O   0  0  0  0  0  0  0  0  0  0  0  0
   -0.8531    0.8853   -1.3243 C   0  0  0  0  0  0  0  0  0  0  0  0
   -0.8707    0.0957   -0.0632 C   0  0  0  0  0  0  0  0  0  0  0  0
   -0.7756   -1.3832   -0.1755 C   0  0  0  0  0  0  0  0  0  0  0  0
   -2.0081    0.5096    0.8524 C   0  0  0  0  0  0  0  0  0  0  0  0
    1.5017   -1.3331    1.1330 H   0  0  0  0  0  0  0  0  0  0  0  0
    2.9900   -0.3015    1.3210 H   0  0  0  0  0  0  0  0  0  0  0  0
    2.8026   -1.4476   -0.0745 H   0  0  0  0  0  0  0  0  0  0  0  0
    2.3881    1.1958   -0.2730 H   0  0  0  0  0  0  0  0  0  0  0  0
    1.5422   -0.0367   -1.3003 H   0  0  0  0  0  0  0  0  0  0  0  0
    0.4520    1.3134    1.2380 H   0  0  0  0  0  0  0  0  0  0  0  0
   -1.8758    1.2091   -1.6285 H   0  0  0  0  0  0  0  0  0  0  0  0
   -0.2554    0.4423   -2.1379 H   0  0  0  0  0  0  0  0  0  0  0  0
    0.0703   -1.7576   -0.7462 H   0  0  0  0  0  0  0  0  0  0  0  0
   -0.8464   -1.8110    0.8528 H   0  0  0  0  0  0  0  0  0  0  0  0
   -1.7012   -1.7642   -0.6983 H   0  0  0  0  0  0  0  0  0  0  0  0
   -1.8534   -0.0109    1.8160 H   0  0  0  0  0  0  0  0  0  0  0  0
   -1.9009    1.6199    0.9908 H   0  0  0  0  0  0  0  0  0  0  0  0
   -2.9592    0.2420    0.3609 H   0  0  0  0  0  0  0  0  0  0  0  0
  1  2  1  0
  2  3  1  0
  3  4  1  0
  4  5  1  0
  5  6  1  0
  6  7  1  0
  6  8  1  0
  6  3  1  0
  1  9  1  0
  1 10  1  0
  1 11  1  0
  2 12  1  0
  2 13  1  0
  3 14  1  0
  5 15  1  0
  5 16  1  0
  7 17  1  0
  7 18  1  0
  7 19  1  0
  8 20  1  0
  8 21  1  0
  8 22  1  0
M  END
