
     RDKit          3D

 25 26  0  0  0  0  0  0  0  0999 V2000
    2.6674   -0.7573   -0.1102 C   0  0  0  0  0  0  0  0  0  0  0  0
    1.5605   -0.2227   -0.9935 C   0  0  0  0  0  0  0  0  0  0  0  0
    0.4111    0.1727   -0.1310 C   0  0  0  0  0  0  0  0  0  0  0  0
   -0.2214   -0.8734    0.7098 C   0  0  0  0  0  0  0  0  0  0  0  0
   -1.5875   -0.4199    0.2797 C   0  0  0  0  0  0  0  0  0  0  0  0
   -2.4011   -1.4645   -0.4298 C   0  0  0  0  0  0  0  0  0  0  0  0
   -0.9162    0.5308   -0.6841 C   0  0  0  0  0  0  0  0  0  0  0  0
   -0.0370    1.5780   -0.1563 C   0  0  0  0  0  0  0  0  0  0  0  0
   -0.2394    2.2285    1.1757 C   0  0  0  0  0  0  0  0  0  0  0  0
    3.6511   -0.2949   -0.3547 H   0  0  0  0  0  0  0  0  0  0  0  0
    2.7138   -1.8663   -0.2470 H   0  0  0  0  0  0  0  0  0  0  0  0
    2.4697   -0.4948    0.9520 H   0  0  0  0  0  0  0  0  0  0  0  0
    1.2956   -0.9111   -1.8137 H   0  0  0  0  0  0  0  0  0  0  0  0
    1.9767    0.7032   -1.4874 H   0  0  0  0  0  0  0  0  0  0  0  0
   -0.0150   -0.8590    1.7927 H   0  0  0  0  0  0  0  0  0  0  0  0
   -0.0150   -1.8916    0.2793 H   0  0  0  0  0  0  0  0  0  0  0  0
   -2.1183    0.0652    1.1209 H   0  0  0  0  0  0  0  0  0  0  0  0
   -1.9768   -1.5800   -1.4572 H   0  0  0  0  0  0  0  0  0  0  0  0
   -3.4720   -1.2062   -0.4368 H   0  0  0  0  0  0  0  0  0  0  0  0
   -2.2459   -2.4270    0.0818 H   0  0  0  0  0  0  0  0  0  0  0  0
   -1.1753    0.4370   -1.7389 H   0  0  0  0  0  0  0  0  0  0  0  0
    0.4500    2.2244   -0.9083 H   0  0  0  0  0  0  0  0  0  0  0  0
    0.6533    2.0302    1.8155 H   0  0  0  0  0  0  0  0  0  0  0  0
   -1.1661    1.9472    1.6775 H   0  0  0  0  0  0  0  0  0  0  0  0
   -0.2622    3.3515    1.0642 H   0  0  0  0  0  0  0  0  0  0  0  0
  1  2  1  0
  2  3  1  0
  3  4  1  0
  4  5  1  0
  5  6  1  0
  5  7  1  0
  7  8  1  0
  8  9  1  0
  7  3  1  0
  8  3  1  0
  1 10  1  0
  1 11  1  0
  1 12  1  0
  2 13  1  0
  2 14  1  0
  4 15  1  0
  4 16  1  0
  5 17  1  0
  6 18  1  0
  6 19  1  0
  6 20  1  0
  7 21  1  0
  8 22  1  0
  9 23  1  0
  9 24  1  0
  9 25  1  0
M  END
