
     RDKit          3D

 23 24  0  0  0  0  0  0  0  0999 V2000
   -2.8997    0.9607   -0.0708 C   0  0  0  0  0  0  0  0  0  0  0  0
   -1.8193    0.1250   -0.7816 C   0  0  0  0  0  0  0  0  0  0  0  0
   -0.8673   -0.3023    0.2374 C   0  0  0  0  0  0  0  0  0  0  0  0
    0.3219   -1.1491   -0.1345 C   0  0  0  0  0  0  0  0  0  0  0  0
    0.8299   -0.7284    1.2207 C   0  0  0  0  0  0  0  0  0  0  0  0
    0.3133    0.5449    0.6007 C   0  0  0  0  0  0  0  0  0  0  0  0
    0.9411    0.0716   -0.6749 C   0  0  0  0  0  0  0  0  0  0  0  0
    2.4185    0.2331   -0.6932 C   0  0  0  0  0  0  0  0  0  0  0  0
    3.0888   -0.7469   -1.4241 O   0  0  0  0  0  0  0  0  0  0  0  0
   -2.6020    2.0311   -0.0931 H   0  0  0  0  0  0  0  0  0  0  0  0
   -2.9733    0.6305    0.9979 H   0  0  0  0  0  0  0  0  0  0  0  0
   -3.8864    0.8108   -0.5392 H   0  0  0  0  0  0  0  0  0  0  0  0
   -1.4921    0.7135   -1.6253 H   0  0  0  0  0  0  0  0  0  0  0  0
   -2.3583   -0.7629   -1.1794 H   0  0  0  0  0  0  0  0  0  0  0  0
   -1.3164   -0.7108    1.1791 H   0  0  0  0  0  0  0  0  0  0  0  0
    0.2974   -2.0818   -0.4985 H   0  0  0  0  0  0  0  0  0  0  0  0
    1.8697   -0.8316    1.4584 H   0  0  0  0  0  0  0  0  0  0  0  0
    0.1098   -1.1300    1.9986 H   0  0  0  0  0  0  0  0  0  0  0  0
    0.3231    1.4598    0.9981 H   0  0  0  0  0  0  0  0  0  0  0  0
    0.4846    0.4937   -1.5981 H   0  0  0  0  0  0  0  0  0  0  0  0
    2.6577    1.1942   -1.2587 H   0  0  0  0  0  0  0  0  0  0  0  0
    2.8577    0.4062    0.3012 H   0  0  0  0  0  0  0  0  0  0  0  0
    3.7015   -1.2311   -0.8196 H   0  0  0  0  0  0  0  0  0  0  0  0
  1  2  1  0
  2  3  1  0
  3  4  1  0
  4  5  1  0
  5  6  1  0
  6  7  1  0
  7  8  1  0
  8  9  1  0
  6  3  1  0
  7  4  1  0
  1 10  1  0
  1 11  1  0
  1 12  1  0
  2 13  1  0
  2 14  1  0
  3 15  1  0
  4 16  1  0
  5 17  1  0
  5 18  1  0
  6 19  1  0
  7 20  1  0
  8 21  1  0
  8 22  1  0
  9 23  1  0
M  END
