
     RDKit          3D

 19 21  0  0  0  0  0  0  0  0999 V2000
    2.5990   -0.0781   -0.0027 C   0  0  0  0  0  0  0  0  0  0  0  0
    1.5159   -0.2861    1.0351 C   0  0  0  0  0  0  0  0  0  0  0  0
    0.1505   -0.1990    0.4441 C   0  0  0  0  0  0  0  0  0  0  0  0
   -0.7243   -1.1970    0.4808 C   0  0  0  0  0  0  0  0  0  0  0  0
   -1.9819   -0.7582   -0.2032 C   0  0  0  0  0  0  0  0  0  0  0  0
   -2.6277    0.2226    0.5685 O   0  0  0  0  0  0  0  0  0  0  0  0
   -1.8694    1.2317    0.0191 C   0  0  0  0  0  0  0  0  0  0  0  0
   -0.4449    0.9703   -0.2727 C   0  0  0  0  0  0  0  0  0  0  0  0
   -1.4932    0.3245   -1.0777 C   0  0  0  0  0  0  0  0  0  0  0  0
    3.5551    0.0444    0.5737 H   0  0  0  0  0  0  0  0  0  0  0  0
    2.6411   -1.0280   -0.5910 H   0  0  0  0  0  0  0  0  0  0  0  0
    2.4145    0.8013   -0.6326 H   0  0  0  0  0  0  0  0  0  0  0  0
    1.6101    0.5505    1.7632 H   0  0  0  0  0  0  0  0  0  0  0  0
    1.6806   -1.2696    1.4958 H   0  0  0  0  0  0  0  0  0  0  0  0
   -0.6007   -2.1755    0.9158 H   0  0  0  0  0  0  0  0  0  0  0  0
   -2.6104   -1.5420   -0.6079 H   0  0  0  0  0  0  0  0  0  0  0  0
   -2.3500    2.1969   -0.2458 H   0  0  0  0  0  0  0  0  0  0  0  0
    0.2255    1.7362   -0.6808 H   0  0  0  0  0  0  0  0  0  0  0  0
   -1.6897    0.4551   -2.1143 H   0  0  0  0  0  0  0  0  0  0  0  0
  1  2  1  0
  2  3  1  0
  3  4  2  0
  4  5  1  0
  5  6  1  0
  6  7  1  0
  7  8  1  0
  8  9  1  0
  8  3  1  0
  9  5  1  0
  9  7  1  0
  1 10  1  0
  1 11  1  0
  1 12  1  0
  2 13  1  0
  2 14  1  0
  4 15  1  0
  5 16  1  0
  7 17  1  0
  8 18  1  0
  9 19  1  0
M  END
