
     RDKit          3D

 19 19  0  0  0  0  0  0  0  0999 V2000
   -2.3647   -0.7401   -0.0924 C   0  0  0  0  0  0  0  0  0  0  0  0
   -1.5225    0.3325    0.5566 C   0  0  0  0  0  0  0  0  0  0  0  0
   -0.0982    0.1378    0.2626 C   0  0  0  0  0  0  0  0  0  0  0  0
    0.3484   -0.8554   -0.4755 C   0  0  0  0  0  0  0  0  0  0  0  0
    1.8128   -0.9947   -0.7357 C   0  0  0  0  0  0  0  0  0  0  0  0
    2.4425    0.2719   -0.8450 O   0  0  0  0  0  0  0  0  0  0  0  0
    1.8980    1.3779   -0.2151 C   0  0  0  0  0  0  0  0  0  0  0  0
    2.2726    2.5182   -0.5461 O   0  0  0  0  0  0  0  0  0  0  0  0
    0.8831    1.1212    0.8343 C   0  0  0  0  0  0  0  0  0  0  0  0
   -2.2316   -0.6385   -1.1894 H   0  0  0  0  0  0  0  0  0  0  0  0
   -3.4357   -0.5787    0.1195 H   0  0  0  0  0  0  0  0  0  0  0  0
   -2.0692   -1.7567    0.2165 H   0  0  0  0  0  0  0  0  0  0  0  0
   -1.6921    0.3968    1.6496 H   0  0  0  0  0  0  0  0  0  0  0  0
   -1.8891    1.3075    0.1369 H   0  0  0  0  0  0  0  0  0  0  0  0
   -0.3640   -1.5632   -0.8864 H   0  0  0  0  0  0  0  0  0  0  0  0
    1.9663   -1.5120   -1.6933 H   0  0  0  0  0  0  0  0  0  0  0  0
    2.3291   -1.5144    0.1112 H   0  0  0  0  0  0  0  0  0  0  0  0
    1.3405    0.6335    1.7147 H   0  0  0  0  0  0  0  0  0  0  0  0
    0.3738    2.0562    1.0770 H   0  0  0  0  0  0  0  0  0  0  0  0
  1  2  1  0
  2  3  1  0
  3  4  2  0
  4  5  1  0
  5  6  1  0
  6  7  1  0
  7  8  2  0
  7  9  1  0
  9  3  1  0
  1 10  1  0
  1 11  1  0
  1 12  1  0
  2 13  1  0
  2 14  1  0
  4 15  1  0
  5 16  1  0
  5 17  1  0
  9 18  1  0
  9 19  1  0
M  END
