
     RDKit          3D

 19 20  0  0  0  0  0  0  0  0999 V2000
    2.4240   -0.0977   -0.3810 C   0  0  0  0  0  0  0  0  0  0  0  0
    1.4138   -0.1241    0.7025 C   0  0  0  0  0  0  0  0  0  0  0  0
    0.0100   -0.0114    0.2947 C   0  0  0  0  0  0  0  0  0  0  0  0
   -0.3768    1.2027   -0.4278 C   0  0  0  0  0  0  0  0  0  0  0  0
   -1.6979    1.3038   -0.2683 C   0  0  0  0  0  0  0  0  0  0  0  0
   -2.0568    0.1510    0.6029 C   0  0  0  0  0  0  0  0  0  0  0  0
   -1.8805   -1.0915   -0.2044 C   0  0  0  0  0  0  0  0  0  0  0  0
   -0.5603   -1.1757   -0.4225 C   0  0  0  0  0  0  0  0  0  0  0  0
   -0.8843    0.0658    1.3953 O   0  0  0  0  0  0  0  0  0  0  0  0
    3.3887    0.2996    0.0156 H   0  0  0  0  0  0  0  0  0  0  0  0
    2.6765   -1.1275   -0.7699 H   0  0  0  0  0  0  0  0  0  0  0  0
    2.1604    0.5256   -1.2518 H   0  0  0  0  0  0  0  0  0  0  0  0
    1.5499   -1.0697    1.2788 H   0  0  0  0  0  0  0  0  0  0  0  0
    1.6208    0.6889    1.4541 H   0  0  0  0  0  0  0  0  0  0  0  0
    0.2160    1.9113   -0.9890 H   0  0  0  0  0  0  0  0  0  0  0  0
   -2.3963    2.0154   -0.6456 H   0  0  0  0  0  0  0  0  0  0  0  0
   -2.9639    0.2325    1.1538 H   0  0  0  0  0  0  0  0  0  0  0  0
   -2.6327   -1.7829   -0.5473 H   0  0  0  0  0  0  0  0  0  0  0  0
   -0.0108   -1.9162   -0.9903 H   0  0  0  0  0  0  0  0  0  0  0  0
  1  2  1  0
  2  3  1  0
  3  4  1  0
  4  5  2  0
  5  6  1  0
  6  7  1  0
  7  8  2  0
  6  9  1  0
  8  3  1  0
  9  3  1  0
  1 10  1  0
  1 11  1  0
  1 12  1  0
  2 13  1  0
  2 14  1  0
  4 15  1  0
  5 16  1  0
  6 17  1  0
  7 18  1  0
  8 19  1  0
M  END
