
     RDKit          3D

 21 23  0  0  0  0  0  0  0  0999 V2000
    2.5235    0.2499    0.1759 C   0  0  0  0  0  0  0  0  0  0  0  0
    1.3138   -0.4493    0.7484 C   0  0  0  0  0  0  0  0  0  0  0  0
    0.0928   -0.1487    0.0364 C   0  0  0  0  0  0  0  0  0  0  0  0
   -1.2612   -0.6797    0.3547 C   0  0  0  0  0  0  0  0  0  0  0  0
   -1.7272   -1.0461   -1.0638 C   0  0  0  0  0  0  0  0  0  0  0  0
   -1.1735   -0.1052   -1.8968 O   0  0  0  0  0  0  0  0  0  0  0  0
   -0.0803    0.4792   -1.2680 C   0  0  0  0  0  0  0  0  0  0  0  0
   -0.4651    1.2287    0.0010 C   0  0  0  0  0  0  0  0  0  0  0  0
   -1.6663    0.7200    0.7513 C   0  0  0  0  0  0  0  0  0  0  0  0
    2.4442    0.3169   -0.9186 H   0  0  0  0  0  0  0  0  0  0  0  0
    3.4350   -0.2839    0.5250 H   0  0  0  0  0  0  0  0  0  0  0  0
    2.4885    1.3079    0.5671 H   0  0  0  0  0  0  0  0  0  0  0  0
    1.5297   -1.5565    0.6894 H   0  0  0  0  0  0  0  0  0  0  0  0
    1.2063   -0.2480    1.8411 H   0  0  0  0  0  0  0  0  0  0  0  0
   -1.3582   -1.4615    1.0944 H   0  0  0  0  0  0  0  0  0  0  0  0
   -1.2359   -2.0288   -1.2644 H   0  0  0  0  0  0  0  0  0  0  0  0
   -2.8243   -1.1009   -1.1178 H   0  0  0  0  0  0  0  0  0  0  0  0
    0.7165    0.8724   -1.8895 H   0  0  0  0  0  0  0  0  0  0  0  0
    0.1667    2.0212    0.3886 H   0  0  0  0  0  0  0  0  0  0  0  0
   -2.6325    1.0739    0.3875 H   0  0  0  0  0  0  0  0  0  0  0  0
   -1.4925    0.8384    1.8580 H   0  0  0  0  0  0  0  0  0  0  0  0
  1  2  1  0
  2  3  1  0
  3  4  1  0
  4  5  1  0
  5  6  1  0
  6  7  1  0
  7  8  1  0
  8  9  1  0
  7  3  1  0
  8  3  1  0
  9  4  1  0
  1 10  1  0
  1 11  1  0
  1 12  1  0
  2 13  1  0
  2 14  1  0
  4 15  1  0
  5 16  1  0
  5 17  1  0
  7 18  1  0
  8 19  1  0
  9 20  1  0
  9 21  1  0
M  END
