
     RDKit          3D

 21 21  0  0  0  0  0  0  0  0999 V2000
    2.9169    0.5098    0.2971 C   0  0  0  0  0  0  0  0  0  0  0  0
    1.8337    0.5221   -0.7800 C   0  0  0  0  0  0  0  0  0  0  0  0
    0.5161    0.1131   -0.2251 C   0  0  0  0  0  0  0  0  0  0  0  0
   -0.5825    0.8172   -0.2053 C   0  0  0  0  0  0  0  0  0  0  0  0
   -1.7136    0.1007    0.4259 C   0  0  0  0  0  0  0  0  0  0  0  0
   -2.9262    0.2131   -0.4552 C   0  0  0  0  0  0  0  0  0  0  0  0
   -1.2218   -1.2990    0.5512 C   0  0  0  0  0  0  0  0  0  0  0  0
   -1.8106   -2.3273    0.7295 O   0  0  0  0  0  0  0  0  0  0  0  0
    0.2644   -1.2010    0.4045 C   0  0  0  0  0  0  0  0  0  0  0  0
    2.9624   -0.4788    0.7650 H   0  0  0  0  0  0  0  0  0  0  0  0
    2.7721    1.3442    1.0254 H   0  0  0  0  0  0  0  0  0  0  0  0
    3.8823    0.6445   -0.2655 H   0  0  0  0  0  0  0  0  0  0  0  0
    2.1887   -0.2143   -1.5521 H   0  0  0  0  0  0  0  0  0  0  0  0
    1.8099    1.5007   -1.2825 H   0  0  0  0  0  0  0  0  0  0  0  0
   -0.6788    1.8224   -0.6033 H   0  0  0  0  0  0  0  0  0  0  0  0
   -1.9285    0.4780    1.4514 H   0  0  0  0  0  0  0  0  0  0  0  0
   -3.0104    1.2973   -0.7459 H   0  0  0  0  0  0  0  0  0  0  0  0
   -2.7543   -0.3934   -1.3631 H   0  0  0  0  0  0  0  0  0  0  0  0
   -3.8479   -0.1481    0.0168 H   0  0  0  0  0  0  0  0  0  0  0  0
    0.5581   -1.9998   -0.3141 H   0  0  0  0  0  0  0  0  0  0  0  0
    0.7700   -1.3015    1.3824 H   0  0  0  0  0  0  0  0  0  0  0  0
  1  2  1  0
  2  3  1  0
  3  4  2  0
  4  5  1  0
  5  6  1  0
  5  7  1  0
  7  8  2  0
  7  9  1  0
  9  3  1  0
  1 10  1  0
  1 11  1  0
  1 12  1  0
  2 13  1  0
  2 14  1  0
  4 15  1  0
  5 16  1  0
  6 17  1  0
  6 18  1  0
  6 19  1  0
  9 20  1  0
  9 21  1  0
M  END
