
     RDKit          3D

 21 21  0  0  0  0  0  0  0  0999 V2000
    2.4155   -0.6757   -0.1677 C   0  0  0  0  0  0  0  0  0  0  0  0
    0.9932   -1.1634   -0.3560 C   0  0  0  0  0  0  0  0  0  0  0  0
    0.0163   -0.0201   -0.4662 C   0  0  0  0  0  0  0  0  0  0  0  0
   -1.4312   -0.2498   -0.6554 C   0  0  0  0  0  0  0  0  0  0  0  0
   -2.1160   -1.0275    0.4177 C   0  0  0  0  0  0  0  0  0  0  0  0
    0.4849    1.0095   -1.4240 O   0  0  0  0  0  0  0  0  0  0  0  0
    0.4765    1.2721    0.0609 C   0  0  0  0  0  0  0  0  0  0  0  0
   -0.3793    2.4315    0.3007 C   0  0  0  0  0  0  0  0  0  0  0  0
    0.0768    3.3912    0.9003 O   0  0  0  0  0  0  0  0  0  0  0  0
    3.0993   -1.5085   -0.4368 H   0  0  0  0  0  0  0  0  0  0  0  0
    2.5538    0.1801   -0.8537 H   0  0  0  0  0  0  0  0  0  0  0  0
    2.5908   -0.3256    0.8744 H   0  0  0  0  0  0  0  0  0  0  0  0
    0.7318   -1.7014    0.5994 H   0  0  0  0  0  0  0  0  0  0  0  0
    1.0061   -1.8304   -1.2155 H   0  0  0  0  0  0  0  0  0  0  0  0
   -1.9387    0.7324   -0.7410 H   0  0  0  0  0  0  0  0  0  0  0  0
   -1.6728   -0.7624   -1.6358 H   0  0  0  0  0  0  0  0  0  0  0  0
   -2.9308   -1.6595    0.0061 H   0  0  0  0  0  0  0  0  0  0  0  0
   -2.6339   -0.3379    1.1493 H   0  0  0  0  0  0  0  0  0  0  0  0
   -1.4388   -1.6419    1.0421 H   0  0  0  0  0  0  0  0  0  0  0  0
    1.5081    1.3446    0.4479 H   0  0  0  0  0  0  0  0  0  0  0  0
   -1.4117    2.5428   -0.0036 H   0  0  0  0  0  0  0  0  0  0  0  0
  1  2  1  0
  2  3  1  0
  3  4  1  0
  4  5  1  0
  3  6  1  0
  6  7  1  0
  7  8  1  0
  8  9  2  0
  7  3  1  0
  1 10  1  0
  1 11  1  0
  1 12  1  0
  2 13  1  0
  2 14  1  0
  4 15  1  0
  4 16  1  0
  5 17  1  0
  5 18  1  0
  5 19  1  0
  7 20  1  0
  8 21  1  0
M  END
