
     RDKit          3D

 24 24  0  0  0  0  0  0  0  0999 V2000
    3.2269   -0.2155    0.3711 C   0  0  0  0  0  0  0  0  0  0  0  0
    2.1704    0.8756    0.1620 C   0  0  0  0  0  0  0  0  0  0  0  0
    0.8365    0.2313    0.4299 C   0  0  0  0  0  0  0  0  0  0  0  0
    0.4752   -0.9169   -0.4319 C   0  0  0  0  0  0  0  0  0  0  0  0
   -0.2481    0.4116   -0.5621 C   0  0  0  0  0  0  0  0  0  0  0  0
   -1.6804    0.4128   -0.1923 C   0  0  0  0  0  0  0  0  0  0  0  0
   -2.0465   -0.9050    0.4455 C   0  0  0  0  0  0  0  0  0  0  0  0
   -2.6110    0.6874   -1.3467 C   0  0  0  0  0  0  0  0  0  0  0  0
    3.1522   -0.8976   -0.5165 H   0  0  0  0  0  0  0  0  0  0  0  0
    4.2311    0.2075    0.4270 H   0  0  0  0  0  0  0  0  0  0  0  0
    3.0383   -0.8094    1.2662 H   0  0  0  0  0  0  0  0  0  0  0  0
    2.3916    1.7217    0.8236 H   0  0  0  0  0  0  0  0  0  0  0  0
    2.2068    1.1551   -0.9242 H   0  0  0  0  0  0  0  0  0  0  0  0
    0.5247    0.2729    1.5002 H   0  0  0  0  0  0  0  0  0  0  0  0
    0.0437   -1.7707    0.0754 H   0  0  0  0  0  0  0  0  0  0  0  0
    1.1917   -1.1876   -1.2483 H   0  0  0  0  0  0  0  0  0  0  0  0
   -0.0094    0.9663   -1.5051 H   0  0  0  0  0  0  0  0  0  0  0  0
   -1.8334    1.1981    0.5858 H   0  0  0  0  0  0  0  0  0  0  0  0
   -1.4110   -1.1330    1.3202 H   0  0  0  0  0  0  0  0  0  0  0  0
   -3.1241   -0.8454    0.7540 H   0  0  0  0  0  0  0  0  0  0  0  0
   -1.9462   -1.7587   -0.2606 H   0  0  0  0  0  0  0  0  0  0  0  0
   -2.1630    1.3820   -2.0922 H   0  0  0  0  0  0  0  0  0  0  0  0
   -2.8875   -0.2290   -1.8986 H   0  0  0  0  0  0  0  0  0  0  0  0
   -3.5284    1.1469   -0.9455 H   0  0  0  0  0  0  0  0  0  0  0  0
  1  2  1  0
  2  3  1  0
  3  4  1  0
  4  5  1  0
  5  6  1  0
  6  7  1  0
  6  8  1  0
  5  3  1  0
  1  9  1  0
  1 10  1  0
  1 11  1  0
  2 12  1  0
  2 13  1  0
  3 14  1  0
  4 15  1  0
  4 16  1  0
  5 17  1  0
  6 18  1  0
  7 19  1  0
  7 20  1  0
  7 21  1  0
  8 22  1  0
  8 23  1  0
  8 24  1  0
M  END
