
     RDKit          3D

 23 24  0  0  0  0  0  0  0  0999 V2000
    2.4678    0.5256   -0.2971 C   0  0  0  0  0  0  0  0  0  0  0  0
    1.0784    0.7028   -0.8189 C   0  0  0  0  0  0  0  0  0  0  0  0
    0.0356   -0.0672   -0.0838 C   0  0  0  0  0  0  0  0  0  0  0  0
    0.1407   -1.5894   -0.0274 C   0  0  0  0  0  0  0  0  0  0  0  0
   -0.4422   -2.1439    1.2727 C   0  0  0  0  0  0  0  0  0  0  0  0
   -0.8559   -1.6007   -1.0230 O   0  0  0  0  0  0  0  0  0  0  0  0
   -1.2489   -0.2985   -0.9102 C   0  0  0  0  0  0  0  0  0  0  0  0
   -1.2525    0.4807    0.3278 C   0  0  0  0  0  0  0  0  0  0  0  0
   -1.5382    1.9476    0.2226 C   0  0  0  0  0  0  0  0  0  0  0  0
    3.1268   -0.0368   -0.9994 H   0  0  0  0  0  0  0  0  0  0  0  0
    2.9320    1.5483   -0.1919 H   0  0  0  0  0  0  0  0  0  0  0  0
    2.4241    0.0659    0.6969 H   0  0  0  0  0  0  0  0  0  0  0  0
    1.0799    0.3264   -1.8806 H   0  0  0  0  0  0  0  0  0  0  0  0
    0.7851    1.7563   -0.8492 H   0  0  0  0  0  0  0  0  0  0  0  0
    1.1028   -2.0046   -0.3229 H   0  0  0  0  0  0  0  0  0  0  0  0
   -1.5238   -2.3701    1.1712 H   0  0  0  0  0  0  0  0  0  0  0  0
    0.0435   -3.1017    1.5599 H   0  0  0  0  0  0  0  0  0  0  0  0
   -0.3653   -1.3959    2.0931 H   0  0  0  0  0  0  0  0  0  0  0  0
   -1.3611    0.2476   -1.8527 H   0  0  0  0  0  0  0  0  0  0  0  0
   -1.7069    0.0147    1.2496 H   0  0  0  0  0  0  0  0  0  0  0  0
   -0.8384    2.5607    0.8442 H   0  0  0  0  0  0  0  0  0  0  0  0
   -2.5699    2.1363    0.6327 H   0  0  0  0  0  0  0  0  0  0  0  0
   -1.5137    2.2959   -0.8134 H   0  0  0  0  0  0  0  0  0  0  0  0
  1  2  1  0
  2  3  1  0
  3  4  1  0
  4  5  1  0
  4  6  1  0
  6  7  1  0
  7  8  1  0
  8  9  1  0
  7  3  1  0
  8  3  1  0
  1 10  1  0
  1 11  1  0
  1 12  1  0
  2 13  1  0
  2 14  1  0
  4 15  1  0
  5 16  1  0
  5 17  1  0
  5 18  1  0
  7 19  1  0
  8 20  1  0
  9 21  1  0
  9 22  1  0
  9 23  1  0
M  END
