
     RDKit          3D

 22 22  0  0  0  0  0  0  0  0999 V2000
    1.8511   -1.1545   -0.0115 C   0  0  0  0  0  0  0  0  0  0  0  0
    0.9462   -0.6687   -1.1285 C   0  0  0  0  0  0  0  0  0  0  0  0
    0.1518    0.4995   -0.6295 C   0  0  0  0  0  0  0  0  0  0  0  0
    0.9394    1.6833   -0.1763 C   0  0  0  0  0  0  0  0  0  0  0  0
   -1.0819    0.7986   -1.1896 O   0  0  0  0  0  0  0  0  0  0  0  0
   -1.1557    0.1557    0.0400 C   0  0  0  0  0  0  0  0  0  0  0  0
   -1.4297    0.9891    1.2802 C   0  0  0  0  0  0  0  0  0  0  0  0
   -1.6973   -1.2319   -0.0085 C   0  0  0  0  0  0  0  0  0  0  0  0
    1.7476   -2.2691    0.1306 H   0  0  0  0  0  0  0  0  0  0  0  0
    2.8946   -0.9985   -0.3446 H   0  0  0  0  0  0  0  0  0  0  0  0
    1.6167   -0.6802    0.9528 H   0  0  0  0  0  0  0  0  0  0  0  0
    0.3552   -1.5109   -1.4871 H   0  0  0  0  0  0  0  0  0  0  0  0
    1.5442   -0.3069   -2.0122 H   0  0  0  0  0  0  0  0  0  0  0  0
    0.5263    2.6330   -0.6241 H   0  0  0  0  0  0  0  0  0  0  0  0
    1.9697    1.6091   -0.5313 H   0  0  0  0  0  0  0  0  0  0  0  0
    0.9614    1.8206    0.9225 H   0  0  0  0  0  0  0  0  0  0  0  0
   -1.4933    2.0564    1.0681 H   0  0  0  0  0  0  0  0  0  0  0  0
   -0.6031    0.7379    1.9988 H   0  0  0  0  0  0  0  0  0  0  0  0
   -2.3653    0.5679    1.7415 H   0  0  0  0  0  0  0  0  0  0  0  0
   -1.2567   -1.8900    0.7873 H   0  0  0  0  0  0  0  0  0  0  0  0
   -2.7991   -1.1828    0.2290 H   0  0  0  0  0  0  0  0  0  0  0  0
   -1.6222   -1.6576   -1.0076 H   0  0  0  0  0  0  0  0  0  0  0  0
  1  2  1  0
  2  3  1  0
  3  4  1  0
  3  5  1  0
  5  6  1  0
  6  7  1  0
  6  8  1  0
  6  3  1  0
  1  9  1  0
  1 10  1  0
  1 11  1  0
  2 12  1  0
  2 13  1  0
  4 14  1  0
  4 15  1  0
  4 16  1  0
  7 17  1  0
  7 18  1  0
  7 19  1  0
  8 20  1  0
  8 21  1  0
  8 22  1  0
M  END
