
     RDKit          3D

 23 23  0  0  0  0  0  0  0  0999 V2000
    3.0570    0.0765    0.5060 C   0  0  0  0  0  0  0  0  0  0  0  0
    2.0450   -0.3335   -0.5454 C   0  0  0  0  0  0  0  0  0  0  0  0
    0.7296    0.3224   -0.2199 C   0  0  0  0  0  0  0  0  0  0  0  0
    0.2266   -0.0311    1.0157 O   0  0  0  0  0  0  0  0  0  0  0  0
   -0.7052   -1.0249    0.8523 C   0  0  0  0  0  0  0  0  0  0  0  0
   -2.1059   -0.5384    0.7300 C   0  0  0  0  0  0  0  0  0  0  0  0
   -2.3315    0.5479   -0.2424 C   0  0  0  0  0  0  0  0  0  0  0  0
   -1.2247    0.8624   -1.1638 C   0  0  0  0  0  0  0  0  0  0  0  0
   -0.2020   -0.0665   -1.2044 O   0  0  0  0  0  0  0  0  0  0  0  0
    3.9357    0.5123   -0.0376 H   0  0  0  0  0  0  0  0  0  0  0  0
    2.6703    0.8693    1.1807 H   0  0  0  0  0  0  0  0  0  0  0  0
    3.3396   -0.7908    1.1050 H   0  0  0  0  0  0  0  0  0  0  0  0
    1.8786   -1.4408   -0.5008 H   0  0  0  0  0  0  0  0  0  0  0  0
    2.3299   -0.0034   -1.5636 H   0  0  0  0  0  0  0  0  0  0  0  0
    0.8567    1.4259   -0.2249 H   0  0  0  0  0  0  0  0  0  0  0  0
   -0.6542   -1.6800    1.7693 H   0  0  0  0  0  0  0  0  0  0  0  0
   -0.4184   -1.7175    0.0089 H   0  0  0  0  0  0  0  0  0  0  0  0
   -2.4360   -0.1843    1.7486 H   0  0  0  0  0  0  0  0  0  0  0  0
   -2.7554   -1.4322    0.5320 H   0  0  0  0  0  0  0  0  0  0  0  0
   -3.2346    0.2742   -0.8632 H   0  0  0  0  0  0  0  0  0  0  0  0
   -2.6467    1.5043    0.2696 H   0  0  0  0  0  0  0  0  0  0  0  0
   -1.5855    0.9826   -2.2273 H   0  0  0  0  0  0  0  0  0  0  0  0
   -0.7689    1.8654   -0.9250 H   0  0  0  0  0  0  0  0  0  0  0  0
  1  2  1  0
  2  3  1  0
  3  4  1  0
  4  5  1  0
  5  6  1  0
  6  7  1  0
  7  8  1  0
  8  9  1  0
  9  3  1  0
  1 10  1  0
  1 11  1  0
  1 12  1  0
  2 13  1  0
  2 14  1  0
  3 15  1  0
  5 16  1  0
  5 17  1  0
  6 18  1  0
  6 19  1  0
  7 20  1  0
  7 21  1  0
  8 22  1  0
  8 23  1  0
M  END
