
     RDKit          3D

 23 24  0  0  0  0  0  0  0  0999 V2000
    2.6446   -0.3992    0.2370 C   0  0  0  0  0  0  0  0  0  0  0  0
    1.3995    0.2365   -0.2888 C   0  0  0  0  0  0  0  0  0  0  0  0
    0.2252    0.1639    0.6031 C   0  0  0  0  0  0  0  0  0  0  0  0
   -0.2042   -1.2756    0.9406 C   0  0  0  0  0  0  0  0  0  0  0  0
   -1.6554   -1.1351    0.4628 C   0  0  0  0  0  0  0  0  0  0  0  0
   -1.4437   -0.5558   -0.9089 C   0  0  0  0  0  0  0  0  0  0  0  0
   -1.0740    0.6063   -0.0257 C   0  0  0  0  0  0  0  0  0  0  0  0
   -1.1828    1.9554   -0.5441 C   0  0  0  0  0  0  0  0  0  0  0  0
   -2.0373    0.1324    0.8614 O   0  0  0  0  0  0  0  0  0  0  0  0
    3.5013    0.0007   -0.3703 H   0  0  0  0  0  0  0  0  0  0  0  0
    2.6806   -1.5009    0.1095 H   0  0  0  0  0  0  0  0  0  0  0  0
    2.8769   -0.1058    1.2849 H   0  0  0  0  0  0  0  0  0  0  0  0
    1.6327    1.3369   -0.4118 H   0  0  0  0  0  0  0  0  0  0  0  0
    1.1825   -0.1960   -1.2758 H   0  0  0  0  0  0  0  0  0  0  0  0
    0.3785    0.7059    1.5662 H   0  0  0  0  0  0  0  0  0  0  0  0
   -0.1356   -1.4496    2.0151 H   0  0  0  0  0  0  0  0  0  0  0  0
    0.2799   -2.0099    0.3038 H   0  0  0  0  0  0  0  0  0  0  0  0
   -2.3028   -1.9637    0.5972 H   0  0  0  0  0  0  0  0  0  0  0  0
   -0.6506   -1.0221   -1.4969 H   0  0  0  0  0  0  0  0  0  0  0  0
   -2.3874   -0.4306   -1.4793 H   0  0  0  0  0  0  0  0  0  0  0  0
   -0.2084    2.3124   -0.9168 H   0  0  0  0  0  0  0  0  0  0  0  0
   -1.6589    2.6359    0.1818 H   0  0  0  0  0  0  0  0  0  0  0  0
   -1.8609    1.9579   -1.4449 H   0  0  0  0  0  0  0  0  0  0  0  0
  1  2  1  0
  2  3  1  0
  3  4  1  0
  4  5  1  0
  5  6  1  0
  6  7  1  0
  7  8  1  0
  7  9  1  0
  7  3  1  0
  9  5  1  0
  1 10  1  0
  1 11  1  0
  1 12  1  0
  2 13  1  0
  2 14  1  0
  3 15  1  0
  4 16  1  0
  4 17  1  0
  5 18  1  0
  6 19  1  0
  6 20  1  0
  8 21  1  0
  8 22  1  0
  8 23  1  0
M  END
