
     RDKit          3D

 21 21  0  0  0  0  0  0  0  0999 V2000
    2.3056   -0.0560   -0.4666 C   0  0  0  0  0  0  0  0  0  0  0  0
    1.1658    0.7929   -0.0226 C   0  0  0  0  0  0  0  0  0  0  0  0
   -0.0380    0.0475    0.4514 C   0  0  0  0  0  0  0  0  0  0  0  0
    0.1849   -0.8468    1.6121 C   0  0  0  0  0  0  0  0  0  0  0  0
   -0.7527   -0.6840   -0.6664 C   0  0  0  0  0  0  0  0  0  0  0  0
   -2.1076   -0.0585   -0.8104 C   0  0  0  0  0  0  0  0  0  0  0  0
   -1.8919    1.2785   -0.1695 C   0  0  0  0  0  0  0  0  0  0  0  0
   -2.4107    2.3887   -0.4916 O   0  0  0  0  0  0  0  0  0  0  0  0
   -0.9969    1.0391    0.8586 O   0  0  0  0  0  0  0  0  0  0  0  0
    2.9271    0.5597   -1.1554 H   0  0  0  0  0  0  0  0  0  0  0  0
    2.9957   -0.3095    0.3890 H   0  0  0  0  0  0  0  0  0  0  0  0
    2.0131   -0.9501   -1.0425 H   0  0  0  0  0  0  0  0  0  0  0  0
    0.8394    1.4012   -0.9114 H   0  0  0  0  0  0  0  0  0  0  0  0
    1.5437    1.5107    0.7330 H   0  0  0  0  0  0  0  0  0  0  0  0
   -0.7232   -1.4695    1.7538 H   0  0  0  0  0  0  0  0  0  0  0  0
    0.3581   -0.2801    2.5626 H   0  0  0  0  0  0  0  0  0  0  0  0
    1.0304   -1.5462    1.5075 H   0  0  0  0  0  0  0  0  0  0  0  0
   -0.8844   -1.7592   -0.4453 H   0  0  0  0  0  0  0  0  0  0  0  0
   -0.2217   -0.5350   -1.6461 H   0  0  0  0  0  0  0  0  0  0  0  0
   -2.4463    0.0422   -1.8588 H   0  0  0  0  0  0  0  0  0  0  0  0
   -2.8904   -0.5656   -0.1814 H   0  0  0  0  0  0  0  0  0  0  0  0
  1  2  1  0
  2  3  1  0
  3  4  1  0
  3  5  1  0
  5  6  1  0
  6  7  1  0
  7  8  2  0
  7  9  1  0
  9  3  1  0
  1 10  1  0
  1 11  1  0
  1 12  1  0
  2 13  1  0
  2 14  1  0
  4 15  1  0
  4 16  1  0
  4 17  1  0
  5 18  1  0
  5 19  1  0
  6 20  1  0
  6 21  1  0
M  END
