
     RDKit          3D

 25 26  0  0  0  0  0  0  0  0999 V2000
    3.1865    0.8233   -0.0782 C   0  0  0  0  0  0  0  0  0  0  0  0
    2.3503   -0.3437   -0.5866 C   0  0  0  0  0  0  0  0  0  0  0  0
    1.1068   -0.3956    0.2330 C   0  0  0  0  0  0  0  0  0  0  0  0
    0.1233   -1.4875   -0.1025 C   0  0  0  0  0  0  0  0  0  0  0  0
   -0.9248   -0.4535   -0.2787 C   0  0  0  0  0  0  0  0  0  0  0  0
    0.0871    0.6302   -0.2819 C   0  0  0  0  0  0  0  0  0  0  0  0
   -2.0784   -0.5483   -1.1378 C   0  0  0  0  0  0  0  0  0  0  0  0
   -2.1981   -0.4111    0.4033 C   0  0  0  0  0  0  0  0  0  0  0  0
   -2.7367    0.9449    0.8509 C   0  0  0  0  0  0  0  0  0  0  0  0
    3.1743    1.6535   -0.8243 H   0  0  0  0  0  0  0  0  0  0  0  0
    4.1984    0.4873    0.1679 H   0  0  0  0  0  0  0  0  0  0  0  0
    2.7546    1.2644    0.8523 H   0  0  0  0  0  0  0  0  0  0  0  0
    2.0998   -0.1515   -1.6551 H   0  0  0  0  0  0  0  0  0  0  0  0
    2.9675   -1.2841   -0.4958 H   0  0  0  0  0  0  0  0  0  0  0  0
    1.3384   -0.2948    1.3106 H   0  0  0  0  0  0  0  0  0  0  0  0
    0.3535   -2.0641   -1.0190 H   0  0  0  0  0  0  0  0  0  0  0  0
   -0.0672   -2.1235    0.7907 H   0  0  0  0  0  0  0  0  0  0  0  0
    0.0037    1.4327    0.4539 H   0  0  0  0  0  0  0  0  0  0  0  0
    0.3237    1.0241   -1.2924 H   0  0  0  0  0  0  0  0  0  0  0  0
   -2.4830    0.2863   -1.7435 H   0  0  0  0  0  0  0  0  0  0  0  0
   -2.3537   -1.5464   -1.5477 H   0  0  0  0  0  0  0  0  0  0  0  0
   -2.5843   -1.2901    0.9254 H   0  0  0  0  0  0  0  0  0  0  0  0
   -3.0944    0.9161    1.8799 H   0  0  0  0  0  0  0  0  0  0  0  0
   -3.5574    1.1904    0.1291 H   0  0  0  0  0  0  0  0  0  0  0  0
   -1.9897    1.7408    0.7592 H   0  0  0  0  0  0  0  0  0  0  0  0
  1  2  1  0
  2  3  1  0
  3  4  1  0
  4  5  1  0
  5  6  1  0
  5  7  1  0
  7  8  1  0
  8  9  1  0
  6  3  1  0
  8  5  1  0
  1 10  1  0
  1 11  1  0
  1 12  1  0
  2 13  1  0
  2 14  1  0
  3 15  1  0
  4 16  1  0
  4 17  1  0
  6 18  1  0
  6 19  1  0
  7 20  1  0
  7 21  1  0
  8 22  1  0
  9 23  1  0
  9 24  1  0
  9 25  1  0
M  END
