
     RDKit          3D

 19 21  0  0  0  0  0  0  0  0999 V2000
    2.4205    0.2261   -0.1855 C   0  0  0  0  0  0  0  0  0  0  0  0
    1.3672   -0.5342    0.5309 C   0  0  0  0  0  0  0  0  0  0  0  0
   -0.0159   -0.2314    0.2072 C   0  0  0  0  0  0  0  0  0  0  0  0
   -1.0980   -1.0036    0.9347 C   0  0  0  0  0  0  0  0  0  0  0  0
   -1.8319   -0.5311   -0.2997 C   0  0  0  0  0  0  0  0  0  0  0  0
   -0.5881   -0.6534   -0.9648 O   0  0  0  0  0  0  0  0  0  0  0  0
   -1.9810    0.9478   -0.0071 C   0  0  0  0  0  0  0  0  0  0  0  0
   -1.5086    1.4614    1.1874 O   0  0  0  0  0  0  0  0  0  0  0  0
   -0.4886    1.2065    0.2952 C   0  0  0  0  0  0  0  0  0  0  0  0
    2.5420   -0.0542   -1.2491 H   0  0  0  0  0  0  0  0  0  0  0  0
    3.4090   -0.0257    0.2972 H   0  0  0  0  0  0  0  0  0  0  0  0
    2.3092    1.3218   -0.0415 H   0  0  0  0  0  0  0  0  0  0  0  0
    1.5248   -0.3597    1.6361 H   0  0  0  0  0  0  0  0  0  0  0  0
    1.5681   -1.6169    0.3898 H   0  0  0  0  0  0  0  0  0  0  0  0
   -0.9613   -2.0947    0.9175 H   0  0  0  0  0  0  0  0  0  0  0  0
   -1.4394   -0.5514    1.8767 H   0  0  0  0  0  0  0  0  0  0  0  0
   -2.6580   -1.0855   -0.6695 H   0  0  0  0  0  0  0  0  0  0  0  0
   -2.5018    1.6072   -0.6944 H   0  0  0  0  0  0  0  0  0  0  0  0
   -0.0684    1.9709   -0.3514 H   0  0  0  0  0  0  0  0  0  0  0  0
  1  2  1  0
  2  3  1  0
  3  4  1  0
  4  5  1  0
  5  6  1  0
  5  7  1  0
  7  8  1  0
  8  9  1  0
  6  3  1  0
  9  7  1  0
  9  3  1  0
  1 10  1  0
  1 11  1  0
  1 12  1  0
  2 13  1  0
  2 14  1  0
  4 15  1  0
  4 16  1  0
  5 17  1  0
  7 18  1  0
  9 19  1  0
M  END
