
     RDKit          3D

 23 23  0  0  0  0  0  0  0  0999 V2000
   -2.7223    0.6856    1.1264 C   0  0  0  0  0  0  0  0  0  0  0  0
   -1.8989    0.4012   -0.1056 C   0  0  0  0  0  0  0  0  0  0  0  0
   -1.0237   -0.8064    0.0530 C   0  0  0  0  0  0  0  0  0  0  0  0
   -0.1898   -1.0987   -1.1877 C   0  0  0  0  0  0  0  0  0  0  0  0
    0.4312   -0.7460    0.1369 C   0  0  0  0  0  0  0  0  0  0  0  0
    1.0877   -1.8406    0.7219 O   0  0  0  0  0  0  0  0  0  0  0  0
    1.1785    0.5443    0.2974 C   0  0  0  0  0  0  0  0  0  0  0  0
    2.6865    0.2962    0.3555 C   0  0  0  0  0  0  0  0  0  0  0  0
    3.3675    1.4998    0.5040 O   0  0  0  0  0  0  0  0  0  0  0  0
   -2.8259    1.7883    1.2555 H   0  0  0  0  0  0  0  0  0  0  0  0
   -3.7616    0.2646    1.0401 H   0  0  0  0  0  0  0  0  0  0  0  0
   -2.2515    0.1927    1.9901 H   0  0  0  0  0  0  0  0  0  0  0  0
   -2.6229    0.1864   -0.9311 H   0  0  0  0  0  0  0  0  0  0  0  0
   -1.3585    1.3141   -0.3979 H   0  0  0  0  0  0  0  0  0  0  0  0
   -1.5232   -1.6533    0.5663 H   0  0  0  0  0  0  0  0  0  0  0  0
   -0.1032   -0.3371   -1.9655 H   0  0  0  0  0  0  0  0  0  0  0  0
   -0.2525   -2.1387   -1.5159 H   0  0  0  0  0  0  0  0  0  0  0  0
    1.3011   -2.5472    0.0621 H   0  0  0  0  0  0  0  0  0  0  0  0
    0.9200    0.9832    1.2937 H   0  0  0  0  0  0  0  0  0  0  0  0
    0.9282    1.3129   -0.4452 H   0  0  0  0  0  0  0  0  0  0  0  0
    2.9824   -0.1777   -0.5938 H   0  0  0  0  0  0  0  0  0  0  0  0
    2.9528   -0.3347    1.2112 H   0  0  0  0  0  0  0  0  0  0  0  0
    2.6982    2.2111    0.6750 H   0  0  0  0  0  0  0  0  0  0  0  0
  1  2  1  0
  2  3  1  0
  3  4  1  0
  4  5  1  0
  5  6  1  0
  5  7  1  0
  7  8  1  0
  8  9  1  0
  5  3  1  0
  1 10  1  0
  1 11  1  0
  1 12  1  0
  2 13  1  0
  2 14  1  0
  3 15  1  0
  4 16  1  0
  4 17  1  0
  6 18  1  0
  7 19  1  0
  7 20  1  0
  8 21  1  0
  8 22  1  0
  9 23  1  0
M  END
