
     RDKit          3D

 23 24  0  0  0  0  0  0  0  0999 V2000
    2.5111   -0.7977    1.0573 C   0  0  0  0  0  0  0  0  0  0  0  0
    1.0088   -0.8130    0.7433 C   0  0  0  0  0  0  0  0  0  0  0  0
    0.7829   -0.6186   -0.7141 C   0  0  0  0  0  0  0  0  0  0  0  0
   -0.6071   -0.5923   -1.2756 C   0  0  0  0  0  0  0  0  0  0  0  0
   -1.7587   -0.8117   -0.3592 C   0  0  0  0  0  0  0  0  0  0  0  0
   -2.1340    0.3788    0.4653 C   0  0  0  0  0  0  0  0  0  0  0  0
   -1.7046    1.5738   -0.0426 O   0  0  0  0  0  0  0  0  0  0  0  0
   -0.3521    1.6967   -0.2300 C   0  0  0  0  0  0  0  0  0  0  0  0
    0.1474    0.6557   -1.1554 C   0  0  0  0  0  0  0  0  0  0  0  0
    3.0453   -0.1888    0.3027 H   0  0  0  0  0  0  0  0  0  0  0  0
    2.9053   -1.8330    1.0165 H   0  0  0  0  0  0  0  0  0  0  0  0
    2.6851   -0.3183    2.0422 H   0  0  0  0  0  0  0  0  0  0  0  0
    0.6387   -1.8076    1.0775 H   0  0  0  0  0  0  0  0  0  0  0  0
    0.5544   -0.0313    1.3645 H   0  0  0  0  0  0  0  0  0  0  0  0
    1.5805   -1.0912   -1.3416 H   0  0  0  0  0  0  0  0  0  0  0  0
   -0.7124   -1.0488   -2.2809 H   0  0  0  0  0  0  0  0  0  0  0  0
   -1.4824   -1.6500    0.3381 H   0  0  0  0  0  0  0  0  0  0  0  0
   -2.6504   -1.1588   -0.9202 H   0  0  0  0  0  0  0  0  0  0  0  0
   -3.2593    0.4548    0.5294 H   0  0  0  0  0  0  0  0  0  0  0  0
   -1.8152    0.2588    1.5223 H   0  0  0  0  0  0  0  0  0  0  0  0
    0.2330    1.8233    0.7173 H   0  0  0  0  0  0  0  0  0  0  0  0
   -0.2160    2.7124   -0.7276 H   0  0  0  0  0  0  0  0  0  0  0  0
    0.6000    1.0340   -2.1292 H   0  0  0  0  0  0  0  0  0  0  0  0
  1  2  1  0
  2  3  1  0
  3  4  1  0
  4  5  1  0
  5  6  1  0
  6  7  1  0
  7  8  1  0
  8  9  1  0
  9  3  1  0
  9  4  1  0
  1 10  1  0
  1 11  1  0
  1 12  1  0
  2 13  1  0
  2 14  1  0
  3 15  1  0
  4 16  1  0
  5 17  1  0
  5 18  1  0
  6 19  1  0
  6 20  1  0
  8 21  1  0
  8 22  1  0
  9 23  1  0
M  END
