
     RDKit          3D

 21 21  0  0  0  0  0  0  0  0999 V2000
    2.1786    0.1076    0.4613 C   0  0  0  0  0  0  0  0  0  0  0  0
    0.9995    0.9306   -0.0002 C   0  0  0  0  0  0  0  0  0  0  0  0
   -0.2514    0.1587   -0.1833 C   0  0  0  0  0  0  0  0  0  0  0  0
   -1.2972    0.9468   -0.6064 O   0  0  0  0  0  0  0  0  0  0  0  0
   -1.8015    1.9974    0.1134 C   0  0  0  0  0  0  0  0  0  0  0  0
   -1.2586    2.2192    1.2176 O   0  0  0  0  0  0  0  0  0  0  0  0
   -0.5448   -0.9266    0.8095 C   0  0  0  0  0  0  0  0  0  0  0  0
   -1.2403   -1.6433   -0.3583 C   0  0  0  0  0  0  0  0  0  0  0  0
   -0.1195   -1.0034   -1.1968 C   0  0  0  0  0  0  0  0  0  0  0  0
    3.0399    0.8381    0.5311 H   0  0  0  0  0  0  0  0  0  0  0  0
    2.4965   -0.6534   -0.2561 H   0  0  0  0  0  0  0  0  0  0  0  0
    2.0537   -0.2896    1.4774 H   0  0  0  0  0  0  0  0  0  0  0  0
    1.2945    1.3345   -1.0139 H   0  0  0  0  0  0  0  0  0  0  0  0
    0.8946    1.7546    0.6847 H   0  0  0  0  0  0  0  0  0  0  0  0
   -2.6356    2.6210   -0.2432 H   0  0  0  0  0  0  0  0  0  0  0  0
    0.3891   -1.4887    1.0322 H   0  0  0  0  0  0  0  0  0  0  0  0
   -1.1676   -0.7036    1.6586 H   0  0  0  0  0  0  0  0  0  0  0  0
   -1.2093   -2.7277   -0.3137 H   0  0  0  0  0  0  0  0  0  0  0  0
   -2.2342   -1.2009   -0.5799 H   0  0  0  0  0  0  0  0  0  0  0  0
    0.8190   -1.5260   -1.0220 H   0  0  0  0  0  0  0  0  0  0  0  0
   -0.4055   -0.7452   -2.2120 H   0  0  0  0  0  0  0  0  0  0  0  0
  1  2  1  0
  2  3  1  0
  3  4  1  0
  4  5  1  0
  5  6  2  0
  3  7  1  0
  7  8  1  0
  8  9  1  0
  9  3  1  0
  1 10  1  0
  1 11  1  0
  1 12  1  0
  2 13  1  0
  2 14  1  0
  5 15  1  0
  7 16  1  0
  7 17  1  0
  8 18  1  0
  8 19  1  0
  9 20  1  0
  9 21  1  0
M  END
