
     RDKit          3D

 25 25  0  0  0  0  0  0  0  0999 V2000
   -2.2734   -0.5768    0.3506 C   0  0  0  0  0  0  0  0  0  0  0  0
   -0.8877   -0.7977   -0.1387 C   0  0  0  0  0  0  0  0  0  0  0  0
    0.1675   -0.0491    0.6382 C   0  0  0  0  0  0  0  0  0  0  0  0
    1.5465   -0.3627    0.0386 C   0  0  0  0  0  0  0  0  0  0  0  0
    1.8521   -1.8129    0.0307 C   0  0  0  0  0  0  0  0  0  0  0  0
    1.3206    0.2364   -1.3229 C   0  0  0  0  0  0  0  0  0  0  0  0
    0.3385    1.2130   -1.2092 O   0  0  0  0  0  0  0  0  0  0  0  0
    0.1308    1.3938    0.1733 C   0  0  0  0  0  0  0  0  0  0  0  0
   -1.0826    2.1486    0.5118 C   0  0  0  0  0  0  0  0  0  0  0  0
   -2.8804   -1.4862    0.0601 H   0  0  0  0  0  0  0  0  0  0  0  0
   -2.3649   -0.5330    1.4551 H   0  0  0  0  0  0  0  0  0  0  0  0
   -2.8127    0.2631   -0.1527 H   0  0  0  0  0  0  0  0  0  0  0  0
   -0.6751   -1.8994   -0.0821 H   0  0  0  0  0  0  0  0  0  0  0  0
   -0.8592   -0.5508   -1.2198 H   0  0  0  0  0  0  0  0  0  0  0  0
    0.1201   -0.1839    1.7052 H   0  0  0  0  0  0  0  0  0  0  0  0
    2.3230    0.2028    0.5445 H   0  0  0  0  0  0  0  0  0  0  0  0
    2.9341   -1.9381   -0.1409 H   0  0  0  0  0  0  0  0  0  0  0  0
    1.3305   -2.3813   -0.7610 H   0  0  0  0  0  0  0  0  0  0  0  0
    1.5795   -2.2421    1.0085 H   0  0  0  0  0  0  0  0  0  0  0  0
    2.2785    0.6666   -1.7347 H   0  0  0  0  0  0  0  0  0  0  0  0
    1.0013   -0.5176   -2.0813 H   0  0  0  0  0  0  0  0  0  0  0  0
    1.0760    1.8883    0.5309 H   0  0  0  0  0  0  0  0  0  0  0  0
   -1.7108    2.3753   -0.3998 H   0  0  0  0  0  0  0  0  0  0  0  0
   -0.7606    3.1798    0.8520 H   0  0  0  0  0  0  0  0  0  0  0  0
   -1.6915    1.7637    1.3436 H   0  0  0  0  0  0  0  0  0  0  0  0
  1  2  1  0
  2  3  1  0
  3  4  1  0
  4  5  1  0
  4  6  1  0
  6  7  1  0
  7  8  1  0
  8  9  1  0
  8  3  1  0
  1 10  1  0
  1 11  1  0
  1 12  1  0
  2 13  1  0
  2 14  1  0
  3 15  1  0
  4 16  1  0
  5 17  1  0
  5 18  1  0
  5 19  1  0
  6 20  1  0
  6 21  1  0
  8 22  1  0
  9 23  1  0
  9 24  1  0
  9 25  1  0
M  END
