
     RDKit          3D

 21 23  0  0  0  0  0  0  0  0999 V2000
    2.3990    0.9515    0.0423 C   0  0  0  0  0  0  0  0  0  0  0  0
    2.0035   -0.4534   -0.3066 C   0  0  0  0  0  0  0  0  0  0  0  0
    0.5607   -0.6624   -0.5322 C   0  0  0  0  0  0  0  0  0  0  0  0
   -0.4202   -0.3907    0.5125 C   0  0  0  0  0  0  0  0  0  0  0  0
   -1.8593   -0.9153    0.4075 C   0  0  0  0  0  0  0  0  0  0  0  0
   -2.5013    0.3240   -0.1272 C   0  0  0  0  0  0  0  0  0  0  0  0
   -2.8722    0.7299   -1.3043 O   0  0  0  0  0  0  0  0  0  0  0  0
   -1.6618    0.2552   -1.4448 C   0  0  0  0  0  0  0  0  0  0  0  0
   -0.3748    0.5031   -0.7780 C   0  0  0  0  0  0  0  0  0  0  0  0
    2.0879    1.6609   -0.7202 H   0  0  0  0  0  0  0  0  0  0  0  0
    3.5263    0.9585    0.0978 H   0  0  0  0  0  0  0  0  0  0  0  0
    1.9839    1.2595    1.0151 H   0  0  0  0  0  0  0  0  0  0  0  0
    2.5492   -0.7060   -1.2631 H   0  0  0  0  0  0  0  0  0  0  0  0
    2.3717   -1.1734    0.4389 H   0  0  0  0  0  0  0  0  0  0  0  0
    0.3263   -1.5478   -1.1925 H   0  0  0  0  0  0  0  0  0  0  0  0
   -0.1461    0.1419    1.4558 H   0  0  0  0  0  0  0  0  0  0  0  0
   -2.2620   -1.1152    1.4104 H   0  0  0  0  0  0  0  0  0  0  0  0
   -1.8470   -1.7661   -0.2729 H   0  0  0  0  0  0  0  0  0  0  0  0
   -2.2376    1.1905    0.5595 H   0  0  0  0  0  0  0  0  0  0  0  0
   -1.6817   -0.7481   -1.9752 H   0  0  0  0  0  0  0  0  0  0  0  0
    0.0553    1.5034   -0.6410 H   0  0  0  0  0  0  0  0  0  0  0  0
  1  2  1  0
  2  3  1  0
  3  4  1  0
  4  5  1  0
  5  6  1  0
  6  7  1  0
  7  8  1  0
  8  9  1  0
  9  3  1  0
  9  4  1  0
  8  6  1  0
  1 10  1  0
  1 11  1  0
  1 12  1  0
  2 13  1  0
  2 14  1  0
  3 15  1  0
  4 16  1  0
  5 17  1  0
  5 18  1  0
  6 19  1  0
  8 20  1  0
  9 21  1  0
M  END
