
     RDKit          3D

 16 16  0  0  0  0  0  0  0  0999 V2000
   -2.0678   -0.5653    0.0315 C   0  0  0  0  0  0  0  0  0  0  0  0
   -1.2881    0.7095   -0.1179 C   0  0  0  0  0  0  0  0  0  0  0  0
    0.1890    0.4265   -0.0682 C   0  0  0  0  0  0  0  0  0  0  0  0
    0.7035   -0.7727    0.0845 C   0  0  0  0  0  0  0  0  0  0  0  0
    2.1698   -0.6385    0.0829 C   0  0  0  0  0  0  0  0  0  0  0  0
    2.4237    0.7043   -0.0798 O   0  0  0  0  0  0  0  0  0  0  0  0
    1.2461    1.4119   -0.1786 C   0  0  0  0  0  0  0  0  0  0  0  0
    1.1056    2.6633   -0.3339 O   0  0  0  0  0  0  0  0  0  0  0  0
   -1.8975   -1.2008   -0.8504 H   0  0  0  0  0  0  0  0  0  0  0  0
   -1.6875   -1.0716    0.9519 H   0  0  0  0  0  0  0  0  0  0  0  0
   -3.1470   -0.3888    0.1890 H   0  0  0  0  0  0  0  0  0  0  0  0
   -1.4995    1.2139   -1.0745 H   0  0  0  0  0  0  0  0  0  0  0  0
   -1.4967    1.4161    0.7023 H   0  0  0  0  0  0  0  0  0  0  0  0
    0.0996   -1.6865    0.1905 H   0  0  0  0  0  0  0  0  0  0  0  0
    2.6611   -1.2994   -0.6615 H   0  0  0  0  0  0  0  0  0  0  0  0
    2.4857   -0.9218    1.1323 H   0  0  0  0  0  0  0  0  0  0  0  0
  1  2  1  0
  2  3  1  0
  3  4  2  0
  4  5  1  0
  5  6  1  0
  6  7  1  0
  7  8  2  0
  7  3  1  0
  1  9  1  0
  1 10  1  0
  1 11  1  0
  2 12  1  0
  2 13  1  0
  4 14  1  0
  5 15  1  0
  5 16  1  0
M  END
