
     RDKit          3D

 21 22  0  0  0  0  0  0  0  0999 V2000
   -2.5564    0.3693    0.2144 C   0  0  0  0  0  0  0  0  0  0  0  0
   -1.5842   -0.7972   -0.0343 C   0  0  0  0  0  0  0  0  0  0  0  0
   -0.2812   -0.4020   -0.0130 C   0  0  0  0  0  0  0  0  0  0  0  0
    0.4046    0.6050   -0.8958 C   0  0  0  0  0  0  0  0  0  0  0  0
    1.4778    0.2072    0.0786 C   0  0  0  0  0  0  0  0  0  0  0  0
    2.7629    0.5931    0.1567 C   0  0  0  0  0  0  0  0  0  0  0  0
    3.1331    1.6037    0.7719 O   0  0  0  0  0  0  0  0  0  0  0  0
    0.9679   -1.2006   -0.1138 C   0  0  0  0  0  0  0  0  0  0  0  0
    0.4150    0.3248    1.1399 C   0  0  0  0  0  0  0  0  0  0  0  0
   -3.5677   -0.0056    0.4603 H   0  0  0  0  0  0  0  0  0  0  0  0
   -2.5239    0.9990   -0.6810 H   0  0  0  0  0  0  0  0  0  0  0  0
   -2.1240    0.9312    1.0575 H   0  0  0  0  0  0  0  0  0  0  0  0
   -1.9274   -1.2321   -0.9993 H   0  0  0  0  0  0  0  0  0  0  0  0
   -1.8607   -1.5520    0.7349 H   0  0  0  0  0  0  0  0  0  0  0  0
    0.0257    1.6292   -0.8193 H   0  0  0  0  0  0  0  0  0  0  0  0
    0.5750    0.3005   -1.9388 H   0  0  0  0  0  0  0  0  0  0  0  0
    3.6099    0.0569   -0.3125 H   0  0  0  0  0  0  0  0  0  0  0  0
    1.1790   -1.9116    0.6884 H   0  0  0  0  0  0  0  0  0  0  0  0
    1.2078   -1.5459   -1.1514 H   0  0  0  0  0  0  0  0  0  0  0  0
    0.0860    1.3506    1.3088 H   0  0  0  0  0  0  0  0  0  0  0  0
    0.5809   -0.3234    2.0049 H   0  0  0  0  0  0  0  0  0  0  0  0
  1  2  1  0
  2  3  1  0
  3  4  1  0
  4  5  1  0
  5  6  1  0
  6  7  2  0
  5  8  1  0
  5  9  1  0
  8  3  1  0
  9  3  1  0
  1 10  1  0
  1 11  1  0
  1 12  1  0
  2 13  1  0
  2 14  1  0
  4 15  1  0
  4 16  1  0
  6 17  1  0
  8 18  1  0
  8 19  1  0
  9 20  1  0
  9 21  1  0
M  END
