
     RDKit          3D

 25 26  0  0  0  0  0  0  0  0999 V2000
   -2.7080   -0.0553   -1.0094 C   0  0  0  0  0  0  0  0  0  0  0  0
   -1.4906    0.6586   -0.4259 C   0  0  0  0  0  0  0  0  0  0  0  0
   -0.6549   -0.2955    0.3947 C   0  0  0  0  0  0  0  0  0  0  0  0
   -1.4322   -0.8949    1.5608 C   0  0  0  0  0  0  0  0  0  0  0  0
    0.4064   -1.1174   -0.1996 C   0  0  0  0  0  0  0  0  0  0  0  0
    1.4836   -0.5996   -1.0746 C   0  0  0  0  0  0  0  0  0  0  0  0
    1.5179    0.7232   -0.3610 C   0  0  0  0  0  0  0  0  0  0  0  0
    2.8855    1.2020    0.0513 C   0  0  0  0  0  0  0  0  0  0  0  0
    0.7194    0.0770    0.7300 C   0  0  0  0  0  0  0  0  0  0  0  0
   -3.6217    0.1427   -0.4173 H   0  0  0  0  0  0  0  0  0  0  0  0
   -2.5302   -1.1484   -1.0496 H   0  0  0  0  0  0  0  0  0  0  0  0
   -2.9222    0.2747   -2.0456 H   0  0  0  0  0  0  0  0  0  0  0  0
   -0.9525    1.0740   -1.2955 H   0  0  0  0  0  0  0  0  0  0  0  0
   -1.9008    1.4548    0.2357 H   0  0  0  0  0  0  0  0  0  0  0  0
   -2.0300   -1.7190    1.1448 H   0  0  0  0  0  0  0  0  0  0  0  0
   -2.0363   -0.0930    2.0118 H   0  0  0  0  0  0  0  0  0  0  0  0
   -0.7531   -1.3081    2.3303 H   0  0  0  0  0  0  0  0  0  0  0  0
    0.5325   -2.1304    0.2092 H   0  0  0  0  0  0  0  0  0  0  0  0
    1.2739   -0.5106   -2.1539 H   0  0  0  0  0  0  0  0  0  0  0  0
    2.4372   -1.1500   -0.9314 H   0  0  0  0  0  0  0  0  0  0  0  0
    0.9860    1.5157   -0.8801 H   0  0  0  0  0  0  0  0  0  0  0  0
    3.3765    1.6251   -0.8309 H   0  0  0  0  0  0  0  0  0  0  0  0
    3.4729    0.4526    0.5882 H   0  0  0  0  0  0  0  0  0  0  0  0
    2.7255    2.0474    0.7689 H   0  0  0  0  0  0  0  0  0  0  0  0
    1.2153   -0.2259    1.6732 H   0  0  0  0  0  0  0  0  0  0  0  0
  1  2  1  0
  2  3  1  0
  3  4  1  0
  3  5  1  0
  5  6  1  0
  6  7  1  0
  7  8  1  0
  7  9  1  0
  9  3  1  0
  9  5  1  0
  1 10  1  0
  1 11  1  0
  1 12  1  0
  2 13  1  0
  2 14  1  0
  4 15  1  0
  4 16  1  0
  4 17  1  0
  5 18  1  0
  6 19  1  0
  6 20  1  0
  7 21  1  0
  8 22  1  0
  8 23  1  0
  8 24  1  0
  9 25  1  0
M  END
