
     RDKit          3D

 23 23  0  0  0  0  0  0  0  0999 V2000
    2.8532   -0.8043   -0.1246 C   0  0  0  0  0  0  0  0  0  0  0  0
    1.4051   -0.9713    0.2799 C   0  0  0  0  0  0  0  0  0  0  0  0
    0.5107   -0.0270   -0.5163 C   0  0  0  0  0  0  0  0  0  0  0  0
    0.7710    1.4276   -0.3882 C   0  0  0  0  0  0  0  0  0  0  0  0
   -0.4426    0.8077    0.2358 C   0  0  0  0  0  0  0  0  0  0  0  0
   -0.4621    0.6501    1.6360 O   0  0  0  0  0  0  0  0  0  0  0  0
   -1.7516    1.2569   -0.3281 C   0  0  0  0  0  0  0  0  0  0  0  0
   -2.7996    0.3804   -0.0775 O   0  0  0  0  0  0  0  0  0  0  0  0
   -2.5787   -0.8790   -0.6108 C   0  0  0  0  0  0  0  0  0  0  0  0
    3.1871    0.2544   -0.0316 H   0  0  0  0  0  0  0  0  0  0  0  0
    3.0085   -1.2220   -1.1213 H   0  0  0  0  0  0  0  0  0  0  0  0
    3.4575   -1.3861    0.6020 H   0  0  0  0  0  0  0  0  0  0  0  0
    1.3363   -0.6714    1.3494 H   0  0  0  0  0  0  0  0  0  0  0  0
    1.1320   -2.0163    0.1045 H   0  0  0  0  0  0  0  0  0  0  0  0
    0.1323   -0.4422   -1.4904 H   0  0  0  0  0  0  0  0  0  0  0  0
    1.6370    1.7094    0.2334 H   0  0  0  0  0  0  0  0  0  0  0  0
    0.6241    2.1140   -1.2509 H   0  0  0  0  0  0  0  0  0  0  0  0
   -0.6360   -0.3146    1.7846 H   0  0  0  0  0  0  0  0  0  0  0  0
   -2.0235    2.2133    0.2059 H   0  0  0  0  0  0  0  0  0  0  0  0
   -1.7059    1.5267   -1.3964 H   0  0  0  0  0  0  0  0  0  0  0  0
   -3.4795   -1.4920   -0.3486 H   0  0  0  0  0  0  0  0  0  0  0  0
   -2.5064   -0.8220   -1.7301 H   0  0  0  0  0  0  0  0  0  0  0  0
   -1.6688   -1.2923   -0.1516 H   0  0  0  0  0  0  0  0  0  0  0  0
  1  2  1  0
  2  3  1  0
  3  4  1  0
  4  5  1  0
  5  6  1  0
  5  7  1  0
  7  8  1  0
  8  9  1  0
  5  3  1  0
  1 10  1  0
  1 11  1  0
  1 12  1  0
  2 13  1  0
  2 14  1  0
  3 15  1  0
  4 16  1  0
  4 17  1  0
  6 18  1  0
  7 19  1  0
  7 20  1  0
  9 21  1  0
  9 22  1  0
  9 23  1  0
M  END
