
     RDKit          3D

 27 27  0  0  0  0  0  0  0  0999 V2000
    2.4846    0.8854   -0.1053 C   0  0  0  0  0  0  0  0  0  0  0  0
    1.6551   -0.1092   -0.8543 C   0  0  0  0  0  0  0  0  0  0  0  0
    0.4067   -0.3856   -0.0545 C   0  0  0  0  0  0  0  0  0  0  0  0
    0.6892   -0.9505    1.3242 C   0  0  0  0  0  0  0  0  0  0  0  0
   -0.8268   -0.8893   -0.6844 C   0  0  0  0  0  0  0  0  0  0  0  0
   -1.7308   -1.8675    0.0637 C   0  0  0  0  0  0  0  0  0  0  0  0
   -0.7545    0.5227   -0.2002 C   0  0  0  0  0  0  0  0  0  0  0  0
   -1.4462    0.9084    1.0815 C   0  0  0  0  0  0  0  0  0  0  0  0
   -0.8120    1.5619   -1.2895 C   0  0  0  0  0  0  0  0  0  0  0  0
    3.0676    1.4739   -0.8606 H   0  0  0  0  0  0  0  0  0  0  0  0
    1.8568    1.5724    0.5339 H   0  0  0  0  0  0  0  0  0  0  0  0
    3.2197    0.4268    0.5873 H   0  0  0  0  0  0  0  0  0  0  0  0
    2.2468   -1.0670   -0.9033 H   0  0  0  0  0  0  0  0  0  0  0  0
    1.4539    0.1655   -1.9031 H   0  0  0  0  0  0  0  0  0  0  0  0
    1.4141   -1.7952    1.1587 H   0  0  0  0  0  0  0  0  0  0  0  0
   -0.2093   -1.4194    1.7795 H   0  0  0  0  0  0  0  0  0  0  0  0
    1.1675   -0.2080    1.9960 H   0  0  0  0  0  0  0  0  0  0  0  0
   -0.7697   -1.1135   -1.7665 H   0  0  0  0  0  0  0  0  0  0  0  0
   -2.1825   -1.4123    0.9609 H   0  0  0  0  0  0  0  0  0  0  0  0
   -2.5205   -2.2316   -0.6113 H   0  0  0  0  0  0  0  0  0  0  0  0
   -1.0948   -2.7430    0.3109 H   0  0  0  0  0  0  0  0  0  0  0  0
   -0.8861    0.5127    1.9767 H   0  0  0  0  0  0  0  0  0  0  0  0
   -1.3703    2.0191    1.1784 H   0  0  0  0  0  0  0  0  0  0  0  0
   -2.5120    0.6182    1.1052 H   0  0  0  0  0  0  0  0  0  0  0  0
   -1.4952    1.2427   -2.1164 H   0  0  0  0  0  0  0  0  0  0  0  0
   -1.2207    2.5369   -0.9364 H   0  0  0  0  0  0  0  0  0  0  0  0
    0.1694    1.7454   -1.7711 H   0  0  0  0  0  0  0  0  0  0  0  0
  1  2  1  0
  2  3  1  0
  3  4  1  0
  3  5  1  0
  5  6  1  0
  5  7  1  0
  7  8  1  0
  7  9  1  0
  7  3  1  0
  1 10  1  0
  1 11  1  0
  1 12  1  0
  2 13  1  0
  2 14  1  0
  4 15  1  0
  4 16  1  0
  4 17  1  0
  5 18  1  0
  6 19  1  0
  6 20  1  0
  6 21  1  0
  8 22  1  0
  8 23  1  0
  8 24  1  0
  9 25  1  0
  9 26  1  0
  9 27  1  0
M  END
