
     RDKit          3D

 21 22  0  0  0  0  0  0  0  0999 V2000
    2.8844   -0.3044   -0.3192 C   0  0  0  0  0  0  0  0  0  0  0  0
    1.9345    0.4433    0.5503 C   0  0  0  0  0  0  0  0  0  0  0  0
    0.4915    0.1293    0.2035 C   0  0  0  0  0  0  0  0  0  0  0  0
    0.0710   -0.6835   -0.7266 C   0  0  0  0  0  0  0  0  0  0  0  0
   -1.3914   -0.8050   -0.8511 C   0  0  0  0  0  0  0  0  0  0  0  0
   -2.2923    0.3647   -1.0102 C   0  0  0  0  0  0  0  0  0  0  0  0
   -1.8576   -0.0112    0.3545 C   0  0  0  0  0  0  0  0  0  0  0  0
   -2.7255   -0.6859    1.1942 O   0  0  0  0  0  0  0  0  0  0  0  0
   -0.6793    0.7180    0.8829 C   0  0  0  0  0  0  0  0  0  0  0  0
    2.5246   -0.2348   -1.3636 H   0  0  0  0  0  0  0  0  0  0  0  0
    3.8868    0.1742   -0.2780 H   0  0  0  0  0  0  0  0  0  0  0  0
    3.0255   -1.3549   -0.0400 H   0  0  0  0  0  0  0  0  0  0  0  0
    2.0659    1.5349    0.4189 H   0  0  0  0  0  0  0  0  0  0  0  0
    2.1559    0.2096    1.6024 H   0  0  0  0  0  0  0  0  0  0  0  0
    0.7568   -1.2484   -1.3831 H   0  0  0  0  0  0  0  0  0  0  0  0
   -1.8423   -1.8139   -1.0033 H   0  0  0  0  0  0  0  0  0  0  0  0
   -3.2960    0.1663   -1.3884 H   0  0  0  0  0  0  0  0  0  0  0  0
   -1.8072    1.2466   -1.5010 H   0  0  0  0  0  0  0  0  0  0  0  0
   -2.6855   -0.2700    2.0910 H   0  0  0  0  0  0  0  0  0  0  0  0
   -0.5183    0.5938    1.9738 H   0  0  0  0  0  0  0  0  0  0  0  0
   -0.7014    1.7985    0.5930 H   0  0  0  0  0  0  0  0  0  0  0  0
  1  2  1  0
  2  3  1  0
  3  4  2  0
  4  5  1  0
  5  6  1  0
  6  7  1  0
  7  8  1  0
  7  9  1  0
  9  3  1  0
  7  5  1  0
  1 10  1  0
  1 11  1  0
  1 12  1  0
  2 13  1  0
  2 14  1  0
  4 15  1  0
  5 16  1  0
  6 17  1  0
  6 18  1  0
  8 19  1  0
  9 20  1  0
  9 21  1  0
M  END
