
     RDKit          3D

 17 18  0  0  0  0  0  0  0  0999 V2000
    1.8580    0.7793   -0.0518 C   0  0  0  0  0  0  0  0  0  0  0  0
    1.1247   -0.5329    0.0889 C   0  0  0  0  0  0  0  0  0  0  0  0
   -0.2457   -0.3857    0.1036 C   0  0  0  0  0  0  0  0  0  0  0  0
   -1.0153    0.3276    0.9899 O   0  0  0  0  0  0  0  0  0  0  0  0
   -1.9947   -0.2404    0.1455 C   0  0  0  0  0  0  0  0  0  0  0  0
   -1.2421   -1.4624    0.2342 C   0  0  0  0  0  0  0  0  0  0  0  0
   -1.1932   -2.6593    0.3428 O   0  0  0  0  0  0  0  0  0  0  0  0
   -1.1062    0.1768   -0.9792 C   0  0  0  0  0  0  0  0  0  0  0  0
   -1.1034    1.5437   -1.1385 O   0  0  0  0  0  0  0  0  0  0  0  0
    1.3939    1.5974    0.5211 H   0  0  0  0  0  0  0  0  0  0  0  0
    2.8926    0.6116    0.3149 H   0  0  0  0  0  0  0  0  0  0  0  0
    1.9809    1.0618   -1.1364 H   0  0  0  0  0  0  0  0  0  0  0  0
    1.4668   -1.1621   -0.7834 H   0  0  0  0  0  0  0  0  0  0  0  0
    1.5236   -1.0517    0.9804 H   0  0  0  0  0  0  0  0  0  0  0  0
   -2.9816   -0.0689    0.2443 H   0  0  0  0  0  0  0  0  0  0  0  0
   -1.1129   -0.4371   -1.8839 H   0  0  0  0  0  0  0  0  0  0  0  0
   -0.2454    1.9024   -1.4480 H   0  0  0  0  0  0  0  0  0  0  0  0
  1  2  1  0
  2  3  1  0
  3  4  1  0
  4  5  1  0
  5  6  1  0
  6  7  2  0
  5  8  1  0
  8  9  1  0
  6  3  1  0
  8  3  1  0
  1 10  1  0
  1 11  1  0
  1 12  1  0
  2 13  1  0
  2 14  1  0
  5 15  1  0
  8 16  1  0
  9 17  1  0
M  END
