
     RDKit          3D

 19 20  0  0  0  0  0  0  0  0999 V2000
    2.5257   -0.1999    0.1208 C   0  0  0  0  0  0  0  0  0  0  0  0
    1.1784   -0.4085   -0.5039 C   0  0  0  0  0  0  0  0  0  0  0  0
    0.0355   -0.0275    0.3805 C   0  0  0  0  0  0  0  0  0  0  0  0
   -1.2820   -0.2702   -0.3284 C   0  0  0  0  0  0  0  0  0  0  0  0
   -2.1520   -1.2851    0.3333 C   0  0  0  0  0  0  0  0  0  0  0  0
   -2.2108   -1.4007    1.5468 O   0  0  0  0  0  0  0  0  0  0  0  0
   -1.6894    1.1590   -0.1116 C   0  0  0  0  0  0  0  0  0  0  0  0
   -1.4221    1.8061    1.0695 O   0  0  0  0  0  0  0  0  0  0  0  0
   -0.3052    1.4477    0.3519 C   0  0  0  0  0  0  0  0  0  0  0  0
    2.5876   -0.7689    1.0670 H   0  0  0  0  0  0  0  0  0  0  0  0
    3.2800   -0.6673   -0.5630 H   0  0  0  0  0  0  0  0  0  0  0  0
    2.8093    0.8598    0.2208 H   0  0  0  0  0  0  0  0  0  0  0  0
    1.0851   -1.4890   -0.7616 H   0  0  0  0  0  0  0  0  0  0  0  0
    1.0921    0.1827   -1.4466 H   0  0  0  0  0  0  0  0  0  0  0  0
    0.0767   -0.3729    1.4239 H   0  0  0  0  0  0  0  0  0  0  0  0
   -1.1763   -0.5156   -1.4124 H   0  0  0  0  0  0  0  0  0  0  0  0
   -2.7707   -1.9646   -0.2456 H   0  0  0  0  0  0  0  0  0  0  0  0
   -2.0035    1.7485   -1.0042 H   0  0  0  0  0  0  0  0  0  0  0  0
    0.3415    2.1665   -0.1372 H   0  0  0  0  0  0  0  0  0  0  0  0
  1  2  1  0
  2  3  1  0
  3  4  1  0
  4  5  1  0
  5  6  2  0
  4  7  1  0
  7  8  1  0
  8  9  1  0
  9  3  1  0
  9  7  1  0
  1 10  1  0
  1 11  1  0
  1 12  1  0
  2 13  1  0
  2 14  1  0
  3 15  1  0
  4 16  1  0
  5 17  1  0
  7 18  1  0
  9 19  1  0
M  END
