
     RDKit          3D

 16 16  0  0  0  0  0  0  0  0999 V2000
    1.9230    0.7167   -0.0396 C   0  0  0  0  0  0  0  0  0  0  0  0
    1.4212   -0.6707   -0.3380 C   0  0  0  0  0  0  0  0  0  0  0  0
   -0.0794   -0.7816   -0.2837 C   0  0  0  0  0  0  0  0  0  0  0  0
   -0.6626    0.1285   -1.2725 O   0  0  0  0  0  0  0  0  0  0  0  0
   -0.8968    0.2550    0.1933 C   0  0  0  0  0  0  0  0  0  0  0  0
   -2.3712    0.0508    0.4293 C   0  0  0  0  0  0  0  0  0  0  0  0
    1.6404    1.4285   -0.8393 H   0  0  0  0  0  0  0  0  0  0  0  0
    3.0382    0.6484   -0.0049 H   0  0  0  0  0  0  0  0  0  0  0  0
    1.4992    1.0921    0.9075 H   0  0  0  0  0  0  0  0  0  0  0  0
    1.9184   -1.4088    0.3249 H   0  0  0  0  0  0  0  0  0  0  0  0
    1.7857   -0.9243   -1.3764 H   0  0  0  0  0  0  0  0  0  0  0  0
   -0.4469   -1.8218   -0.3552 H   0  0  0  0  0  0  0  0  0  0  0  0
   -0.5116    1.2059    0.5867 H   0  0  0  0  0  0  0  0  0  0  0  0
   -2.6525   -0.9930    0.2036 H   0  0  0  0  0  0  0  0  0  0  0  0
   -2.9108    0.6985   -0.3058 H   0  0  0  0  0  0  0  0  0  0  0  0
   -2.6944    0.3759    1.4284 H   0  0  0  0  0  0  0  0  0  0  0  0
  1  2  1  0
  2  3  1  0
  3  4  1  0
  4  5  1  0
  5  6  1  0
  5  3  1  0
  1  7  1  0
  1  8  1  0
  1  9  1  0
  2 10  1  0
  2 11  1  0
  3 12  1  0
  5 13  1  0
  6 14  1  0
  6 15  1  0
  6 16  1  0
M  END
