
     RDKit          3D

 16 16  0  0  0  0  0  0  0  0999 V2000
   -2.0939    0.0727    0.1044 C   0  0  0  0  0  0  0  0  0  0  0  0
   -0.8724   -0.7994   -0.1489 C   0  0  0  0  0  0  0  0  0  0  0  0
    0.2491    0.1594   -0.5650 C   0  0  0  0  0  0  0  0  0  0  0  0
    1.4059   -0.5309   -0.8190 O   0  0  0  0  0  0  0  0  0  0  0  0
    2.2933   -0.3068    0.2123 C   0  0  0  0  0  0  0  0  0  0  0  0
    1.5754    0.3137    1.2666 O   0  0  0  0  0  0  0  0  0  0  0  0
    0.5355    0.9905    0.6412 C   0  0  0  0  0  0  0  0  0  0  0  0
   -0.0465    2.0620    0.9950 O   0  0  0  0  0  0  0  0  0  0  0  0
   -3.0278   -0.4785   -0.1266 H   0  0  0  0  0  0  0  0  0  0  0  0
   -2.0442    0.9922   -0.5142 H   0  0  0  0  0  0  0  0  0  0  0  0
   -2.0415    0.3954    1.1565 H   0  0  0  0  0  0  0  0  0  0  0  0
   -0.5554   -1.2977    0.7953 H   0  0  0  0  0  0  0  0  0  0  0  0
   -1.1149   -1.5183   -0.9431 H   0  0  0  0  0  0  0  0  0  0  0  0
   -0.1151    0.7835   -1.3906 H   0  0  0  0  0  0  0  0  0  0  0  0
    2.7603   -1.2672    0.5699 H   0  0  0  0  0  0  0  0  0  0  0  0
    3.0923    0.4293   -0.0778 H   0  0  0  0  0  0  0  0  0  0  0  0
  1  2  1  0
  2  3  1  0
  3  4  1  0
  4  5  1  0
  5  6  1  0
  6  7  1  0
  7  8  2  0
  7  3  1  0
  1  9  1  0
  1 10  1  0
  1 11  1  0
  2 12  1  0
  2 13  1  0
  3 14  1  0
  5 15  1  0
  5 16  1  0
M  END
