
     RDKit          3D

 23 24  0  0  0  0  0  0  0  0999 V2000
   -2.1862    0.4645   -0.8594 C   0  0  0  0  0  0  0  0  0  0  0  0
   -1.4592    0.4269    0.4747 C   0  0  0  0  0  0  0  0  0  0  0  0
   -0.3400   -0.5604    0.3811 C   0  0  0  0  0  0  0  0  0  0  0  0
   -0.8243   -1.9801    0.0582 C   0  0  0  0  0  0  0  0  0  0  0  0
    0.6295   -0.5107    1.5808 C   0  0  0  0  0  0  0  0  0  0  0  0
    1.0554   -0.1928    0.2060 C   0  0  0  0  0  0  0  0  0  0  0  0
    1.5599    1.1300   -0.1972 C   0  0  0  0  0  0  0  0  0  0  0  0
    2.5036    0.2723   -1.0196 C   0  0  0  0  0  0  0  0  0  0  0  0
    1.9802   -0.9042   -0.4891 O   0  0  0  0  0  0  0  0  0  0  0  0
   -1.5034    0.4958   -1.7166 H   0  0  0  0  0  0  0  0  0  0  0  0
   -2.7956   -0.4678   -0.9090 H   0  0  0  0  0  0  0  0  0  0  0  0
   -2.9030    1.2984   -0.8075 H   0  0  0  0  0  0  0  0  0  0  0  0
   -1.1277    1.4361    0.7804 H   0  0  0  0  0  0  0  0  0  0  0  0
   -2.1941    0.0164    1.2172 H   0  0  0  0  0  0  0  0  0  0  0  0
   -1.2214   -1.9969   -0.9796 H   0  0  0  0  0  0  0  0  0  0  0  0
    0.0616   -2.6286    0.1857 H   0  0  0  0  0  0  0  0  0  0  0  0
   -1.6637   -2.2689    0.7414 H   0  0  0  0  0  0  0  0  0  0  0  0
    0.5462    0.3586    2.2643 H   0  0  0  0  0  0  0  0  0  0  0  0
    0.9183   -1.4722    2.0422 H   0  0  0  0  0  0  0  0  0  0  0  0
    0.9352    1.7826   -0.8142 H   0  0  0  0  0  0  0  0  0  0  0  0
    2.1032    1.6306    0.6503 H   0  0  0  0  0  0  0  0  0  0  0  0
    2.3539    0.3761   -2.1079 H   0  0  0  0  0  0  0  0  0  0  0  0
    3.5717    0.3595   -0.6822 H   0  0  0  0  0  0  0  0  0  0  0  0
  1  2  1  0
  2  3  1  0
  3  4  1  0
  3  5  1  0
  5  6  1  0
  6  7  1  0
  7  8  1  0
  8  9  1  0
  6  3  1  0
  9  6  1  0
  1 10  1  0
  1 11  1  0
  1 12  1  0
  2 13  1  0
  2 14  1  0
  4 15  1  0
  4 16  1  0
  4 17  1  0
  5 18  1  0
  5 19  1  0
  7 20  1  0
  7 21  1  0
  8 22  1  0
  8 23  1  0
M  END
