
     RDKit          3D

 23 24  0  0  0  0  0  0  0  0999 V2000
    1.9112   -1.1408   -0.2488 C   0  0  0  0  0  0  0  0  0  0  0  0
    1.5838    0.2205    0.2956 C   0  0  0  0  0  0  0  0  0  0  0  0
    0.1231    0.5048    0.3913 C   0  0  0  0  0  0  0  0  0  0  0  0
   -0.1063    1.8649    0.9366 C   0  0  0  0  0  0  0  0  0  0  0  0
   -0.5233    0.3147   -0.9960 C   0  0  0  0  0  0  0  0  0  0  0  0
   -1.3282   -0.9179   -0.6630 C   0  0  0  0  0  0  0  0  0  0  0  0
   -2.0616   -0.5030    0.5921 C   0  0  0  0  0  0  0  0  0  0  0  0
   -0.6515   -0.5829    1.0980 C   0  0  0  0  0  0  0  0  0  0  0  0
   -0.5052   -1.6628    0.1946 O   0  0  0  0  0  0  0  0  0  0  0  0
    3.0173   -1.1285   -0.4819 H   0  0  0  0  0  0  0  0  0  0  0  0
    1.4207   -1.3669   -1.2121 H   0  0  0  0  0  0  0  0  0  0  0  0
    1.7940   -1.9525    0.5011 H   0  0  0  0  0  0  0  0  0  0  0  0
    2.0575    0.3225    1.2772 H   0  0  0  0  0  0  0  0  0  0  0  0
    2.0297    0.9656   -0.3989 H   0  0  0  0  0  0  0  0  0  0  0  0
    0.7788    2.1247    1.5877 H   0  0  0  0  0  0  0  0  0  0  0  0
   -1.0031    1.9924    1.5437 H   0  0  0  0  0  0  0  0  0  0  0  0
   -0.0380    2.6001    0.0880 H   0  0  0  0  0  0  0  0  0  0  0  0
    0.2138    0.1771   -1.7776 H   0  0  0  0  0  0  0  0  0  0  0  0
   -1.2041    1.1625   -1.1213 H   0  0  0  0  0  0  0  0  0  0  0  0
   -1.8575   -1.4252   -1.4317 H   0  0  0  0  0  0  0  0  0  0  0  0
   -2.5077    0.4893    0.5000 H   0  0  0  0  0  0  0  0  0  0  0  0
   -2.6812   -1.2834    1.0583 H   0  0  0  0  0  0  0  0  0  0  0  0
   -0.4621   -0.7753    2.1278 H   0  0  0  0  0  0  0  0  0  0  0  0
  1  2  1  0
  2  3  1  0
  3  4  1  0
  3  5  1  0
  5  6  1  0
  6  7  1  0
  7  8  1  0
  8  9  1  0
  8  3  1  0
  9  6  1  0
  1 10  1  0
  1 11  1  0
  1 12  1  0
  2 13  1  0
  2 14  1  0
  4 15  1  0
  4 16  1  0
  4 17  1  0
  5 18  1  0
  5 19  1  0
  6 20  1  0
  7 21  1  0
  7 22  1  0
  8 23  1  0
M  END
