
     RDKit          3D

 20 21  0  0  0  0  0  0  0  0999 V2000
   -2.4584    0.6791   -0.0889 C   0  0  0  0  0  0  0  0  0  0  0  0
   -1.0094    1.0465   -0.2724 C   0  0  0  0  0  0  0  0  0  0  0  0
   -0.0461    0.1651    0.3912 C   0  0  0  0  0  0  0  0  0  0  0  0
    0.0271   -1.2916    0.0671 C   0  0  0  0  0  0  0  0  0  0  0  0
    0.6907   -0.8448   -1.1798 C   0  0  0  0  0  0  0  0  0  0  0  0
    1.7217   -0.0622   -1.4359 O   0  0  0  0  0  0  0  0  0  0  0  0
    1.3218    0.1925   -0.2151 C   0  0  0  0  0  0  0  0  0  0  0  0
    2.3800   -0.2906    0.7486 C   0  0  0  0  0  0  0  0  0  0  0  0
   -2.6922   -0.3527   -0.3396 H   0  0  0  0  0  0  0  0  0  0  0  0
   -3.0524    1.3840   -0.7304 H   0  0  0  0  0  0  0  0  0  0  0  0
   -2.8113    0.8644    0.9543 H   0  0  0  0  0  0  0  0  0  0  0  0
   -0.9205    2.0549    0.2502 H   0  0  0  0  0  0  0  0  0  0  0  0
   -0.7959    1.3118   -1.3243 H   0  0  0  0  0  0  0  0  0  0  0  0
   -0.0250    0.2936    1.4926 H   0  0  0  0  0  0  0  0  0  0  0  0
   -0.9120   -1.8231   -0.0838 H   0  0  0  0  0  0  0  0  0  0  0  0
    0.6348   -1.8501    0.8021 H   0  0  0  0  0  0  0  0  0  0  0  0
   -0.1174   -0.4741   -1.8861 H   0  0  0  0  0  0  0  0  0  0  0  0
    2.6022   -1.3475    0.7004 H   0  0  0  0  0  0  0  0  0  0  0  0
    3.3474    0.2403    0.4913 H   0  0  0  0  0  0  0  0  0  0  0  0
    2.1147    0.1047    1.7500 H   0  0  0  0  0  0  0  0  0  0  0  0
  1  2  1  0
  2  3  1  0
  3  4  1  0
  4  5  1  0
  5  6  1  0
  6  7  1  0
  7  8  1  0
  7  3  1  0
  7  5  1  0
  1  9  1  0
  1 10  1  0
  1 11  1  0
  2 12  1  0
  2 13  1  0
  3 14  1  0
  4 15  1  0
  4 16  1  0
  5 17  1  0
  8 18  1  0
  8 19  1  0
  8 20  1  0
M  END
