
     RDKit          3D

 21 22  0  0  0  0  0  0  0  0999 V2000
    2.7623    0.4735   -0.6848 C   0  0  0  0  0  0  0  0  0  0  0  0
    1.9090   -0.7385   -0.3882 C   0  0  0  0  0  0  0  0  0  0  0  0
    0.4951   -0.3535   -0.0759 C   0  0  0  0  0  0  0  0  0  0  0  0
   -0.0499    0.8378   -0.0335 C   0  0  0  0  0  0  0  0  0  0  0  0
   -1.4802    0.8193    0.3134 C   0  0  0  0  0  0  0  0  0  0  0  0
   -1.9441    1.8144    1.1994 O   0  0  0  0  0  0  0  0  0  0  0  0
   -2.4898    0.0415   -0.4085 C   0  0  0  0  0  0  0  0  0  0  0  0
   -1.7158   -0.6171    0.6701 C   0  0  0  0  0  0  0  0  0  0  0  0
   -0.5172   -1.3857    0.2424 C   0  0  0  0  0  0  0  0  0  0  0  0
    3.7957    0.0962   -0.8346 H   0  0  0  0  0  0  0  0  0  0  0  0
    2.3891    1.0737   -1.5246 H   0  0  0  0  0  0  0  0  0  0  0  0
    2.7965    1.0743    0.2688 H   0  0  0  0  0  0  0  0  0  0  0  0
    1.9207   -1.4828   -1.1984 H   0  0  0  0  0  0  0  0  0  0  0  0
    2.3159   -1.1935    0.5392 H   0  0  0  0  0  0  0  0  0  0  0  0
    0.5093    1.7580   -0.2376 H   0  0  0  0  0  0  0  0  0  0  0  0
   -1.8198    2.6743    0.6901 H   0  0  0  0  0  0  0  0  0  0  0  0
   -3.5402    0.2832   -0.2118 H   0  0  0  0  0  0  0  0  0  0  0  0
   -2.3253   -0.3364   -1.4491 H   0  0  0  0  0  0  0  0  0  0  0  0
   -2.1785   -0.8015    1.6780 H   0  0  0  0  0  0  0  0  0  0  0  0
   -0.6697   -1.9741   -0.6887 H   0  0  0  0  0  0  0  0  0  0  0  0
   -0.1631   -2.0632    1.0740 H   0  0  0  0  0  0  0  0  0  0  0  0
  1  2  1  0
  2  3  1  0
  3  4  2  0
  4  5  1  0
  5  6  1  0
  5  7  1  0
  7  8  1  0
  8  9  1  0
  9  3  1  0
  8  5  1  0
  1 10  1  0
  1 11  1  0
  1 12  1  0
  2 13  1  0
  2 14  1  0
  4 15  1  0
  6 16  1  0
  7 17  1  0
  7 18  1  0
  8 19  1  0
  9 20  1  0
  9 21  1  0
M  END
