
     RDKit          3D

 21 22  0  0  0  0  0  0  0  0999 V2000
    1.9096   -1.0468   -0.5552 C   0  0  0  0  0  0  0  0  0  0  0  0
    1.0663    0.0859   -1.0785 C   0  0  0  0  0  0  0  0  0  0  0  0
    0.3452    0.7099    0.0334 C   0  0  0  0  0  0  0  0  0  0  0  0
   -0.4693    1.8197   -0.4007 C   0  0  0  0  0  0  0  0  0  0  0  0
   -1.2310    0.7773    0.1187 C   0  0  0  0  0  0  0  0  0  0  0  0
   -1.7333    1.0890    1.4277 O   0  0  0  0  0  0  0  0  0  0  0  0
   -1.3275   -0.6923    0.0060 C   0  0  0  0  0  0  0  0  0  0  0  0
   -0.3712   -0.9801    1.1873 C   0  0  0  0  0  0  0  0  0  0  0  0
    0.4901    0.1127    1.2197 O   0  0  0  0  0  0  0  0  0  0  0  0
    2.9298   -1.0231   -1.0294 H   0  0  0  0  0  0  0  0  0  0  0  0
    1.4205   -2.0230   -0.7609 H   0  0  0  0  0  0  0  0  0  0  0  0
    2.0824   -0.9162    0.5199 H   0  0  0  0  0  0  0  0  0  0  0  0
    1.7912    0.7970   -1.5955 H   0  0  0  0  0  0  0  0  0  0  0  0
    0.4736   -0.3275   -1.9047 H   0  0  0  0  0  0  0  0  0  0  0  0
   -0.2582    2.7705    0.1771 H   0  0  0  0  0  0  0  0  0  0  0  0
   -0.5693    2.0739   -1.4618 H   0  0  0  0  0  0  0  0  0  0  0  0
   -2.2282    1.9414    1.3908 H   0  0  0  0  0  0  0  0  0  0  0  0
   -1.0581   -1.1795   -0.9064 H   0  0  0  0  0  0  0  0  0  0  0  0
   -2.3365   -1.0630    0.3100 H   0  0  0  0  0  0  0  0  0  0  0  0
   -0.9988   -0.9680    2.1410 H   0  0  0  0  0  0  0  0  0  0  0  0
    0.0725   -1.9576    1.1615 H   0  0  0  0  0  0  0  0  0  0  0  0
  1  2  1  0
  2  3  1  0
  3  4  1  0
  4  5  1  0
  5  6  1  0
  5  7  1  0
  7  8  1  0
  8  9  1  0
  5  3  1  0
  9  3  1  0
  1 10  1  0
  1 11  1  0
  1 12  1  0
  2 13  1  0
  2 14  1  0
  4 15  1  0
  4 16  1  0
  6 17  1  0
  7 18  1  0
  7 19  1  0
  8 20  1  0
  8 21  1  0
M  END
