
     RDKit          3D

 21 22  0  0  0  0  0  0  0  0999 V2000
    2.5191    0.7891   -0.1807 C   0  0  0  0  0  0  0  0  0  0  0  0
    1.9428   -0.5866   -0.1798 C   0  0  0  0  0  0  0  0  0  0  0  0
    0.4746   -0.6691   -0.1471 C   0  0  0  0  0  0  0  0  0  0  0  0
   -0.2541   -0.0729    0.9966 C   0  0  0  0  0  0  0  0  0  0  0  0
    0.0085    1.1749    0.4541 O   0  0  0  0  0  0  0  0  0  0  0  0
   -0.3351    0.4618   -0.6799 C   0  0  0  0  0  0  0  0  0  0  0  0
   -1.4739   -0.0917    0.1170 C   0  0  0  0  0  0  0  0  0  0  0  0
   -2.5846    0.8164    0.4742 C   0  0  0  0  0  0  0  0  0  0  0  0
   -1.8812   -1.3364   -0.2753 O   0  0  0  0  0  0  0  0  0  0  0  0
    2.2283    1.2987   -1.1215 H   0  0  0  0  0  0  0  0  0  0  0  0
    3.6396    0.6733   -0.2490 H   0  0  0  0  0  0  0  0  0  0  0  0
    2.3257    1.3598    0.7264 H   0  0  0  0  0  0  0  0  0  0  0  0
    2.3181   -1.1138   -1.0817 H   0  0  0  0  0  0  0  0  0  0  0  0
    2.3488   -1.1825    0.6888 H   0  0  0  0  0  0  0  0  0  0  0  0
    0.1133   -1.6850   -0.4097 H   0  0  0  0  0  0  0  0  0  0  0  0
   -0.2188   -0.3293    1.9699 H   0  0  0  0  0  0  0  0  0  0  0  0
   -0.3685    0.8049   -1.6285 H   0  0  0  0  0  0  0  0  0  0  0  0
   -3.3123    0.8420   -0.3530 H   0  0  0  0  0  0  0  0  0  0  0  0
   -2.3090    1.8185    0.7832 H   0  0  0  0  0  0  0  0  0  0  0  0
   -3.1385    0.3518    1.3410 H   0  0  0  0  0  0  0  0  0  0  0  0
   -2.0428   -1.4308   -1.2451 H   0  0  0  0  0  0  0  0  0  0  0  0
  1  2  1  0
  2  3  1  0
  3  4  1  0
  4  5  1  0
  5  6  1  0
  6  7  1  0
  7  8  1  0
  7  9  1  0
  6  3  1  0
  7  4  1  0
  1 10  1  0
  1 11  1  0
  1 12  1  0
  2 13  1  0
  2 14  1  0
  3 15  1  0
  4 16  1  0
  6 17  1  0
  8 18  1  0
  8 19  1  0
  8 20  1  0
  9 21  1  0
M  END
