
     RDKit          3D

 19 21  0  0  0  0  0  0  0  0999 V2000
    2.4511   -0.3351    0.1810 C   0  0  0  0  0  0  0  0  0  0  0  0
    1.6048    0.8632   -0.2708 C   0  0  0  0  0  0  0  0  0  0  0  0
    0.2009    0.5100   -0.0269 C   0  0  0  0  0  0  0  0  0  0  0  0
   -0.7246    1.1097    0.7557 C   0  0  0  0  0  0  0  0  0  0  0  0
   -1.9235    0.2822    0.5541 C   0  0  0  0  0  0  0  0  0  0  0  0
   -1.8887   -0.1109   -0.8888 C   0  0  0  0  0  0  0  0  0  0  0  0
   -2.3809   -1.3399   -0.4882 O   0  0  0  0  0  0  0  0  0  0  0  0
   -1.4138   -1.1113    0.4784 C   0  0  0  0  0  0  0  0  0  0  0  0
   -0.5247   -0.6287   -0.6151 C   0  0  0  0  0  0  0  0  0  0  0  0
    3.4281   -0.2654   -0.2983 H   0  0  0  0  0  0  0  0  0  0  0  0
    2.5112   -0.3452    1.2710 H   0  0  0  0  0  0  0  0  0  0  0  0
    1.8675   -1.2349   -0.1733 H   0  0  0  0  0  0  0  0  0  0  0  0
    1.9314    1.7929    0.1967 H   0  0  0  0  0  0  0  0  0  0  0  0
    1.7434    0.9074   -1.3857 H   0  0  0  0  0  0  0  0  0  0  0  0
   -0.6316    1.9791    1.3814 H   0  0  0  0  0  0  0  0  0  0  0  0
   -2.8393    0.5161    1.0317 H   0  0  0  0  0  0  0  0  0  0  0  0
   -2.2001    0.4410   -1.6738 H   0  0  0  0  0  0  0  0  0  0  0  0
   -1.1706   -1.7251    1.2429 H   0  0  0  0  0  0  0  0  0  0  0  0
   -0.0405   -1.3052   -1.2721 H   0  0  0  0  0  0  0  0  0  0  0  0
  1  2  1  0
  2  3  1  0
  3  4  2  0
  4  5  1  0
  5  6  1  0
  6  7  1  0
  7  8  1  0
  8  9  1  0
  9  3  1  0
  8  5  1  0
  9  6  1  0
  1 10  1  0
  1 11  1  0
  1 12  1  0
  2 13  1  0
  2 14  1  0
  4 15  1  0
  5 16  1  0
  6 17  1  0
  8 18  1  0
  9 19  1  0
M  END
