
     RDKit          3D

 22 22  0  0  0  0  0  0  0  0999 V2000
    2.3481    0.5559   -0.2417 C   0  0  0  0  0  0  0  0  0  0  0  0
    1.4452   -0.5834    0.1316 C   0  0  0  0  0  0  0  0  0  0  0  0
    0.0901   -0.1511    0.6037 C   0  0  0  0  0  0  0  0  0  0  0  0
   -0.7018   -1.3904    0.9410 C   0  0  0  0  0  0  0  0  0  0  0  0
   -1.8588   -1.3453   -0.0098 C   0  0  0  0  0  0  0  0  0  0  0  0
   -1.8789   -0.1429   -0.6399 O   0  0  0  0  0  0  0  0  0  0  0  0
   -0.7214    0.5367   -0.4304 C   0  0  0  0  0  0  0  0  0  0  0  0
   -0.9787    1.9701    0.0342 C   0  0  0  0  0  0  0  0  0  0  0  0
    3.3435    0.1237   -0.4764 H   0  0  0  0  0  0  0  0  0  0  0  0
    2.4669    1.3106    0.5322 H   0  0  0  0  0  0  0  0  0  0  0  0
    2.0083    1.0538   -1.1777 H   0  0  0  0  0  0  0  0  0  0  0  0
    1.3339   -1.2452   -0.7228 H   0  0  0  0  0  0  0  0  0  0  0  0
    1.9172   -1.1576    0.9541 H   0  0  0  0  0  0  0  0  0  0  0  0
    0.1429    0.4516    1.5488 H   0  0  0  0  0  0  0  0  0  0  0  0
   -1.0883   -1.4047    1.9668 H   0  0  0  0  0  0  0  0  0  0  0  0
   -0.1004   -2.3241    0.8186 H   0  0  0  0  0  0  0  0  0  0  0  0
   -2.8337   -1.5479    0.5136 H   0  0  0  0  0  0  0  0  0  0  0  0
   -1.7557   -2.1746   -0.7630 H   0  0  0  0  0  0  0  0  0  0  0  0
   -0.0927    0.6386   -1.3499 H   0  0  0  0  0  0  0  0  0  0  0  0
    0.0123    2.4607    0.1150 H   0  0  0  0  0  0  0  0  0  0  0  0
   -1.6968    2.4906   -0.5922 H   0  0  0  0  0  0  0  0  0  0  0  0
   -1.4013    1.8750    1.0717 H   0  0  0  0  0  0  0  0  0  0  0  0
  1  2  1  0
  2  3  1  0
  3  4  1  0
  4  5  1  0
  5  6  1  0
  6  7  1  0
  7  8  1  0
  7  3  1  0
  1  9  1  0
  1 10  1  0
  1 11  1  0
  2 12  1  0
  2 13  1  0
  3 14  1  0
  4 15  1  0
  4 16  1  0
  5 17  1  0
  5 18  1  0
  7 19  1  0
  8 20  1  0
  8 21  1  0
  8 22  1  0
M  END
