
     RDKit          3D

 23 23  0  0  0  0  0  0  0  0999 V2000
    2.5614   -1.0100   -1.0277 C   0  0  0  0  0  0  0  0  0  0  0  0
    1.5915    0.1535   -0.8063 C   0  0  0  0  0  0  0  0  0  0  0  0
    0.9151    0.0565    0.5138 C   0  0  0  0  0  0  0  0  0  0  0  0
   -0.0764    1.1300    0.9068 C   0  0  0  0  0  0  0  0  0  0  0  0
   -0.5141    2.1043   -0.1559 C   0  0  0  0  0  0  0  0  0  0  0  0
   -0.4733   -0.3470    0.7170 C   0  0  0  0  0  0  0  0  0  0  0  0
   -1.4779   -0.5677   -0.3193 C   0  0  0  0  0  0  0  0  0  0  0  0
   -2.6813   -1.4191   -0.1551 C   0  0  0  0  0  0  0  0  0  0  0  0
   -1.3304   -0.0220   -1.3962 O   0  0  0  0  0  0  0  0  0  0  0  0
    2.3447   -1.5273   -1.9569 H   0  0  0  0  0  0  0  0  0  0  0  0
    2.4178   -1.7388   -0.1902 H   0  0  0  0  0  0  0  0  0  0  0  0
    3.6021   -0.6602   -1.0386 H   0  0  0  0  0  0  0  0  0  0  0  0
    2.2082    1.0879   -0.8020 H   0  0  0  0  0  0  0  0  0  0  0  0
    0.9481    0.2106   -1.6820 H   0  0  0  0  0  0  0  0  0  0  0  0
    1.6258   -0.2172    1.3391 H   0  0  0  0  0  0  0  0  0  0  0  0
   -0.0563    1.4784    1.9635 H   0  0  0  0  0  0  0  0  0  0  0  0
   -0.2397    3.1499    0.1019 H   0  0  0  0  0  0  0  0  0  0  0  0
   -1.6069    2.0454   -0.3753 H   0  0  0  0  0  0  0  0  0  0  0  0
    0.0434    1.8861   -1.0839 H   0  0  0  0  0  0  0  0  0  0  0  0
   -0.7148   -0.9003    1.6717 H   0  0  0  0  0  0  0  0  0  0  0  0
   -2.6688   -1.9501    0.8275 H   0  0  0  0  0  0  0  0  0  0  0  0
   -3.6227   -0.8144   -0.1555 H   0  0  0  0  0  0  0  0  0  0  0  0
   -2.7953   -2.1284   -1.0087 H   0  0  0  0  0  0  0  0  0  0  0  0
  1  2  1  0
  2  3  1  0
  3  4  1  0
  4  5  1  0
  4  6  1  0
  6  7  1  0
  7  8  1  0
  7  9  2  0
  6  3  1  0
  1 10  1  0
  1 11  1  0
  1 12  1  0
  2 13  1  0
  2 14  1  0
  3 15  1  0
  4 16  1  0
  5 17  1  0
  5 18  1  0
  5 19  1  0
  6 20  1  0
  8 21  1  0
  8 22  1  0
  8 23  1  0
M  END
