
     RDKit          3D

 21 22  0  0  0  0  0  0  0  0999 V2000
   -2.9527    0.2349   -0.3240 C   0  0  0  0  0  0  0  0  0  0  0  0
   -1.8846   -0.4327    0.5124 C   0  0  0  0  0  0  0  0  0  0  0  0
   -0.5255   -0.2007   -0.0354 C   0  0  0  0  0  0  0  0  0  0  0  0
    0.4297    0.4126    0.6574 C   0  0  0  0  0  0  0  0  0  0  0  0
    1.6466    0.4929   -0.1382 C   0  0  0  0  0  0  0  0  0  0  0  0
    1.4835   -0.4375   -1.3018 C   0  0  0  0  0  0  0  0  0  0  0  0
   -0.0194   -0.5907   -1.3793 C   0  0  0  0  0  0  0  0  0  0  0  0
    2.9921    0.6391    0.5290 C   0  0  0  0  0  0  0  0  0  0  0  0
    2.3951    1.6385   -0.2318 O   0  0  0  0  0  0  0  0  0  0  0  0
   -2.5161    0.9581   -1.0456 H   0  0  0  0  0  0  0  0  0  0  0  0
   -3.6640    0.8274    0.2980 H   0  0  0  0  0  0  0  0  0  0  0  0
   -3.5555   -0.5402   -0.8438 H   0  0  0  0  0  0  0  0  0  0  0  0
   -2.1152   -1.5365    0.5802 H   0  0  0  0  0  0  0  0  0  0  0  0
   -1.9936   -0.0586    1.5498 H   0  0  0  0  0  0  0  0  0  0  0  0
    0.3429    0.8096    1.6783 H   0  0  0  0  0  0  0  0  0  0  0  0
    1.9407   -0.0992   -2.2312 H   0  0  0  0  0  0  0  0  0  0  0  0
    1.9049   -1.4249   -0.9955 H   0  0  0  0  0  0  0  0  0  0  0  0
   -0.3300   -1.6267   -1.6080 H   0  0  0  0  0  0  0  0  0  0  0  0
   -0.3844    0.1129   -2.1720 H   0  0  0  0  0  0  0  0  0  0  0  0
    2.9633    0.6789    1.6202 H   0  0  0  0  0  0  0  0  0  0  0  0
    3.8424    0.1429    0.0029 H   0  0  0  0  0  0  0  0  0  0  0  0
  1  2  1  0
  2  3  1  0
  3  4  2  0
  4  5  1  0
  5  6  1  0
  6  7  1  0
  5  8  1  0
  8  9  1  0
  7  3  1  0
  9  5  1  0
  1 10  1  0
  1 11  1  0
  1 12  1  0
  2 13  1  0
  2 14  1  0
  4 15  1  0
  6 16  1  0
  6 17  1  0
  7 18  1  0
  7 19  1  0
  8 20  1  0
  8 21  1  0
M  END
