
     RDKit          3D

 25 25  0  0  0  0  0  0  0  0999 V2000
    2.2842    0.7385    1.1350 C   0  0  0  0  0  0  0  0  0  0  0  0
    1.8833    0.1699   -0.1926 C   0  0  0  0  0  0  0  0  0  0  0  0
    0.4603    0.4161   -0.5591 C   0  0  0  0  0  0  0  0  0  0  0  0
    0.1431   -0.1894   -1.9079 C   0  0  0  0  0  0  0  0  0  0  0  0
   -1.1684   -0.3888   -1.4308 O   0  0  0  0  0  0  0  0  0  0  0  0
   -0.5892   -0.5085   -0.1436 C   0  0  0  0  0  0  0  0  0  0  0  0
   -0.2924   -1.9255    0.1460 C   0  0  0  0  0  0  0  0  0  0  0  0
   -1.6090    0.0388    0.8599 C   0  0  0  0  0  0  0  0  0  0  0  0
   -2.3336    1.2310    0.2951 C   0  0  0  0  0  0  0  0  0  0  0  0
    1.4337    1.0508    1.7606 H   0  0  0  0  0  0  0  0  0  0  0  0
    2.9349   -0.0148    1.6507 H   0  0  0  0  0  0  0  0  0  0  0  0
    2.9355    1.6524    1.0376 H   0  0  0  0  0  0  0  0  0  0  0  0
    2.1455   -0.9018   -0.3144 H   0  0  0  0  0  0  0  0  0  0  0  0
    2.5101    0.7051   -0.9677 H   0  0  0  0  0  0  0  0  0  0  0  0
    0.1602    1.4644   -0.5314 H   0  0  0  0  0  0  0  0  0  0  0  0
    0.2192    0.4956   -2.7662 H   0  0  0  0  0  0  0  0  0  0  0  0
    0.6906   -1.1226   -2.1145 H   0  0  0  0  0  0  0  0  0  0  0  0
    0.3800   -2.1073    0.9997 H   0  0  0  0  0  0  0  0  0  0  0  0
    0.0409   -2.5144   -0.7572 H   0  0  0  0  0  0  0  0  0  0  0  0
   -1.2661   -2.4201    0.4358 H   0  0  0  0  0  0  0  0  0  0  0  0
   -1.0989    0.2935    1.8131 H   0  0  0  0  0  0  0  0  0  0  0  0
   -2.3556   -0.7454    1.0942 H   0  0  0  0  0  0  0  0  0  0  0  0
   -2.5753    1.0188   -0.7672 H   0  0  0  0  0  0  0  0  0  0  0  0
   -1.7124    2.1488    0.3118 H   0  0  0  0  0  0  0  0  0  0  0  0
   -3.2206    1.4151    0.9130 H   0  0  0  0  0  0  0  0  0  0  0  0
  1  2  1  0
  2  3  1  0
  3  4  1  0
  4  5  1  0
  5  6  1  0
  6  7  1  0
  6  8  1  0
  8  9  1  0
  6  3  1  0
  1 10  1  0
  1 11  1  0
  1 12  1  0
  2 13  1  0
  2 14  1  0
  3 15  1  0
  4 16  1  0
  4 17  1  0
  7 18  1  0
  7 19  1  0
  7 20  1  0
  8 21  1  0
  8 22  1  0
  9 23  1  0
  9 24  1  0
  9 25  1  0
M  END
