
     RDKit          3D

 23 24  0  0  0  0  0  0  0  0999 V2000
    2.5809    0.3177    0.1064 C   0  0  0  0  0  0  0  0  0  0  0  0
    1.8039   -0.9237   -0.0973 C   0  0  0  0  0  0  0  0  0  0  0  0
    0.3784   -0.8126   -0.4332 C   0  0  0  0  0  0  0  0  0  0  0  0
   -0.3199   -2.0452   -0.6194 O   0  0  0  0  0  0  0  0  0  0  0  0
   -0.6181   -1.3062    0.5261 C   0  0  0  0  0  0  0  0  0  0  0  0
   -1.4345   -0.0455    0.3416 C   0  0  0  0  0  0  0  0  0  0  0  0
   -2.8104   -0.3397   -0.1886 C   0  0  0  0  0  0  0  0  0  0  0  0
   -0.4308    0.3416   -0.7593 C   0  0  0  0  0  0  0  0  0  0  0  0
   -0.0006    1.7360   -0.5218 C   0  0  0  0  0  0  0  0  0  0  0  0
    2.9411    0.7635   -0.8526 H   0  0  0  0  0  0  0  0  0  0  0  0
    2.1199    1.0425    0.7874 H   0  0  0  0  0  0  0  0  0  0  0  0
    3.5421    0.0271    0.6339 H   0  0  0  0  0  0  0  0  0  0  0  0
    2.0091   -1.6001    0.7883 H   0  0  0  0  0  0  0  0  0  0  0  0
    2.3059   -1.4852   -0.9452 H   0  0  0  0  0  0  0  0  0  0  0  0
   -0.3857   -1.6898    1.5184 H   0  0  0  0  0  0  0  0  0  0  0  0
   -1.3735    0.5720    1.2468 H   0  0  0  0  0  0  0  0  0  0  0  0
   -3.0378    0.2418   -1.1037 H   0  0  0  0  0  0  0  0  0  0  0  0
   -2.9154   -1.4234   -0.4548 H   0  0  0  0  0  0  0  0  0  0  0  0
   -3.5465   -0.1179    0.5999 H   0  0  0  0  0  0  0  0  0  0  0  0
   -0.9250    0.2574   -1.7647 H   0  0  0  0  0  0  0  0  0  0  0  0
    0.9312    2.0339   -1.0448 H   0  0  0  0  0  0  0  0  0  0  0  0
   -0.0302    2.0479    0.5458 H   0  0  0  0  0  0  0  0  0  0  0  0
   -0.7840    2.4080   -0.9933 H   0  0  0  0  0  0  0  0  0  0  0  0
  1  2  1  0
  2  3  1  0
  3  4  1  0
  4  5  1  0
  5  6  1  0
  6  7  1  0
  6  8  1  0
  8  9  1  0
  5  3  1  0
  8  3  1  0
  1 10  1  0
  1 11  1  0
  1 12  1  0
  2 13  1  0
  2 14  1  0
  5 15  1  0
  6 16  1  0
  7 17  1  0
  7 18  1  0
  7 19  1  0
  8 20  1  0
  9 21  1  0
  9 22  1  0
  9 23  1  0
M  END
