
     RDKit          3D

 21 23  0  0  0  0  0  0  0  0999 V2000
    2.4497   -0.3865   -0.3743 C   0  0  0  0  0  0  0  0  0  0  0  0
    1.4168    0.5324    0.1881 C   0  0  0  0  0  0  0  0  0  0  0  0
    0.0387    0.1397    0.1130 C   0  0  0  0  0  0  0  0  0  0  0  0
   -0.4094   -1.1581    0.7983 C   0  0  0  0  0  0  0  0  0  0  0  0
   -1.5292   -1.1343   -0.2617 C   0  0  0  0  0  0  0  0  0  0  0  0
   -1.9547    0.2706   -0.4714 C   0  0  0  0  0  0  0  0  0  0  0  0
   -0.9910    1.2475    0.2253 C   0  0  0  0  0  0  0  0  0  0  0  0
   -1.2670    1.4719    1.5517 O   0  0  0  0  0  0  0  0  0  0  0  0
   -0.6500   -0.3341   -1.0716 C   0  0  0  0  0  0  0  0  0  0  0  0
    3.1568    0.1358   -1.0836 H   0  0  0  0  0  0  0  0  0  0  0  0
    2.0332   -1.2288   -0.9554 H   0  0  0  0  0  0  0  0  0  0  0  0
    3.1107   -0.8371    0.4030 H   0  0  0  0  0  0  0  0  0  0  0  0
    1.7042    0.7131    1.2664 H   0  0  0  0  0  0  0  0  0  0  0  0
    1.5508    1.5225   -0.2990 H   0  0  0  0  0  0  0  0  0  0  0  0
   -0.8023   -0.9343    1.7838 H   0  0  0  0  0  0  0  0  0  0  0  0
    0.2642   -1.9844    0.6465 H   0  0  0  0  0  0  0  0  0  0  0  0
   -2.0852   -2.0116   -0.5017 H   0  0  0  0  0  0  0  0  0  0  0  0
   -2.6295    0.6159   -1.2324 H   0  0  0  0  0  0  0  0  0  0  0  0
   -0.7304    2.1024   -0.3978 H   0  0  0  0  0  0  0  0  0  0  0  0
   -2.2280    1.5371    1.7637 H   0  0  0  0  0  0  0  0  0  0  0  0
   -0.4485   -0.2797   -2.0908 H   0  0  0  0  0  0  0  0  0  0  0  0
  1  2  1  0
  2  3  1  0
  3  4  1  0
  4  5  1  0
  5  6  1  0
  6  7  1  0
  7  8  1  0
  6  9  1  0
  7  3  1  0
  9  3  1  0
  9  5  1  0
  1 10  1  0
  1 11  1  0
  1 12  1  0
  2 13  1  0
  2 14  1  0
  4 15  1  0
  4 16  1  0
  5 17  1  0
  6 18  1  0
  7 19  1  0
  8 20  1  0
  9 21  1  0
M  END
