
     RDKit          3D

 23 24  0  0  0  0  0  0  0  0999 V2000
    2.8043   -0.6497    0.3871 C   0  0  0  0  0  0  0  0  0  0  0  0
    1.8929    0.4984    0.0231 C   0  0  0  0  0  0  0  0  0  0  0  0
    0.4533    0.2283    0.3132 C   0  0  0  0  0  0  0  0  0  0  0  0
   -0.1885   -0.9238   -0.3656 C   0  0  0  0  0  0  0  0  0  0  0  0
   -1.5019   -1.2304    0.3298 C   0  0  0  0  0  0  0  0  0  0  0  0
   -2.1448    0.0468    0.8141 C   0  0  0  0  0  0  0  0  0  0  0  0
   -1.7250    1.2501    0.0032 C   0  0  0  0  0  0  0  0  0  0  0  0
   -0.4299    0.9625   -0.7020 C   0  0  0  0  0  0  0  0  0  0  0  0
   -0.5048   -0.1768   -1.5005 O   0  0  0  0  0  0  0  0  0  0  0  0
    2.7309   -0.8437    1.4672 H   0  0  0  0  0  0  0  0  0  0  0  0
    3.8519   -0.2816    0.1877 H   0  0  0  0  0  0  0  0  0  0  0  0
    2.6600   -1.5270   -0.2509 H   0  0  0  0  0  0  0  0  0  0  0  0
    2.0426    0.8018   -1.0333 H   0  0  0  0  0  0  0  0  0  0  0  0
    2.2078    1.3617    0.6567 H   0  0  0  0  0  0  0  0  0  0  0  0
    0.1569    0.3608    1.3531 H   0  0  0  0  0  0  0  0  0  0  0  0
    0.4322   -1.8192   -0.5404 H   0  0  0  0  0  0  0  0  0  0  0  0
   -2.1520   -1.7173   -0.4378 H   0  0  0  0  0  0  0  0  0  0  0  0
   -1.3487   -1.9649    1.1406 H   0  0  0  0  0  0  0  0  0  0  0  0
   -1.9526    0.2087    1.9083 H   0  0  0  0  0  0  0  0  0  0  0  0
   -3.2644   -0.0753    0.7498 H   0  0  0  0  0  0  0  0  0  0  0  0
   -2.5241    1.5958   -0.6796 H   0  0  0  0  0  0  0  0  0  0  0  0
   -1.5388    2.0794    0.7194 H   0  0  0  0  0  0  0  0  0  0  0  0
    0.0427    1.8154   -1.1886 H   0  0  0  0  0  0  0  0  0  0  0  0
  1  2  1  0
  2  3  1  0
  3  4  1  0
  4  5  1  0
  5  6  1  0
  6  7  1  0
  7  8  1  0
  8  9  1  0
  8  3  1  0
  9  4  1  0
  1 10  1  0
  1 11  1  0
  1 12  1  0
  2 13  1  0
  2 14  1  0
  3 15  1  0
  4 16  1  0
  5 17  1  0
  5 18  1  0
  6 19  1  0
  6 20  1  0
  7 21  1  0
  7 22  1  0
  8 23  1  0
M  END
