
     RDKit          3D

 21 22  0  0  0  0  0  0  0  0999 V2000
    2.8651    0.1494    0.3468 C   0  0  0  0  0  0  0  0  0  0  0  0
    1.7864   -0.2258   -0.6696 C   0  0  0  0  0  0  0  0  0  0  0  0
    0.4415   -0.2029   -0.0308 C   0  0  0  0  0  0  0  0  0  0  0  0
    0.1761    0.0942    1.2307 C   0  0  0  0  0  0  0  0  0  0  0  0
   -1.2676    0.0197    1.5315 C   0  0  0  0  0  0  0  0  0  0  0  0
   -1.8635   -0.4651    0.2381 C   0  0  0  0  0  0  0  0  0  0  0  0
   -1.7996    0.5479   -0.8876 C   0  0  0  0  0  0  0  0  0  0  0  0
   -2.8634    0.5000   -1.7562 O   0  0  0  0  0  0  0  0  0  0  0  0
   -0.8059   -0.5250   -0.7709 C   0  0  0  0  0  0  0  0  0  0  0  0
    2.8362    1.2461    0.5013 H   0  0  0  0  0  0  0  0  0  0  0  0
    2.6887   -0.3603    1.3143 H   0  0  0  0  0  0  0  0  0  0  0  0
    3.8627   -0.1951   -0.0006 H   0  0  0  0  0  0  0  0  0  0  0  0
    1.9464   -1.2517   -1.0571 H   0  0  0  0  0  0  0  0  0  0  0  0
    1.8134    0.4623   -1.5221 H   0  0  0  0  0  0  0  0  0  0  0  0
    0.9129    0.3700    1.9991 H   0  0  0  0  0  0  0  0  0  0  0  0
   -1.5086   -0.6379    2.3899 H   0  0  0  0  0  0  0  0  0  0  0  0
   -1.6933    1.0443    1.7127 H   0  0  0  0  0  0  0  0  0  0  0  0
   -2.6579   -1.2278    0.2348 H   0  0  0  0  0  0  0  0  0  0  0  0
   -1.4651    1.5883   -0.6477 H   0  0  0  0  0  0  0  0  0  0  0  0
   -2.6080    0.4737   -2.7124 H   0  0  0  0  0  0  0  0  0  0  0  0
   -0.7964   -1.4043   -1.4442 H   0  0  0  0  0  0  0  0  0  0  0  0
  1  2  1  0
  2  3  1  0
  3  4  2  0
  4  5  1  0
  5  6  1  0
  6  7  1  0
  7  8  1  0
  7  9  1  0
  9  3  1  0
  9  6  1  0
  1 10  1  0
  1 11  1  0
  1 12  1  0
  2 13  1  0
  2 14  1  0
  4 15  1  0
  5 16  1  0
  5 17  1  0
  6 18  1  0
  7 19  1  0
  8 20  1  0
  9 21  1  0
M  END
