
     RDKit          3D

 23 24  0  0  0  0  0  0  0  0999 V2000
    2.0673   -0.3991   -0.8102 C   0  0  0  0  0  0  0  0  0  0  0  0
    1.2529   -1.0570    0.2799 C   0  0  0  0  0  0  0  0  0  0  0  0
    0.1821   -0.1140    0.7590 C   0  0  0  0  0  0  0  0  0  0  0  0
    0.6546    1.1791    1.3284 C   0  0  0  0  0  0  0  0  0  0  0  0
   -0.6332   -0.7718    1.7143 O   0  0  0  0  0  0  0  0  0  0  0  0
   -1.8008   -0.7112    0.9518 C   0  0  0  0  0  0  0  0  0  0  0  0
   -1.0051   -0.0405   -0.1088 C   0  0  0  0  0  0  0  0  0  0  0  0
   -1.0974   -0.2602   -1.5188 C   0  0  0  0  0  0  0  0  0  0  0  0
   -1.4370    1.1148   -0.8744 C   0  0  0  0  0  0  0  0  0  0  0  0
    3.1391   -0.3445   -0.4734 H   0  0  0  0  0  0  0  0  0  0  0  0
    2.0467   -0.9945   -1.7575 H   0  0  0  0  0  0  0  0  0  0  0  0
    1.6723    0.6026   -0.9783 H   0  0  0  0  0  0  0  0  0  0  0  0
    1.9073   -1.2648    1.1750 H   0  0  0  0  0  0  0  0  0  0  0  0
    0.8217   -1.9999   -0.1049 H   0  0  0  0  0  0  0  0  0  0  0  0
   -0.0835    1.6043    2.0486 H   0  0  0  0  0  0  0  0  0  0  0  0
    1.6249    1.0606    1.8327 H   0  0  0  0  0  0  0  0  0  0  0  0
    0.8076    1.9790    0.5543 H   0  0  0  0  0  0  0  0  0  0  0  0
   -2.1151   -1.7496    0.6661 H   0  0  0  0  0  0  0  0  0  0  0  0
   -2.5972   -0.0646    1.3422 H   0  0  0  0  0  0  0  0  0  0  0  0
   -1.9869   -0.7719   -1.9673 H   0  0  0  0  0  0  0  0  0  0  0  0
   -0.2144   -0.2992   -2.1537 H   0  0  0  0  0  0  0  0  0  0  0  0
   -0.6976    1.9175   -1.0600 H   0  0  0  0  0  0  0  0  0  0  0  0
   -2.5084    1.3848   -0.8450 H   0  0  0  0  0  0  0  0  0  0  0  0
  1  2  1  0
  2  3  1  0
  3  4  1  0
  3  5  1  0
  5  6  1  0
  6  7  1  0
  7  8  1  0
  8  9  1  0
  7  3  1  0
  9  7  1  0
  1 10  1  0
  1 11  1  0
  1 12  1  0
  2 13  1  0
  2 14  1  0
  4 15  1  0
  4 16  1  0
  4 17  1  0
  6 18  1  0
  6 19  1  0
  8 20  1  0
  8 21  1  0
  9 22  1  0
  9 23  1  0
M  END
