
     RDKit          3D

 23 23  0  0  0  0  0  0  0  0999 V2000
   -2.1511   -1.1544   -0.5439 C   0  0  0  0  0  0  0  0  0  0  0  0
   -1.9344   -0.3816    0.7169 C   0  0  0  0  0  0  0  0  0  0  0  0
   -0.5890    0.2487    0.8270 C   0  0  0  0  0  0  0  0  0  0  0  0
   -0.3867    0.9700    2.0040 O   0  0  0  0  0  0  0  0  0  0  0  0
   -0.1235    1.0024   -0.4213 C   0  0  0  0  0  0  0  0  0  0  0  0
    0.6406    2.2929   -0.2279 C   0  0  0  0  0  0  0  0  0  0  0  0
    0.5417   -0.2679    0.0404 C   0  0  0  0  0  0  0  0  0  0  0  0
    1.8484   -0.1319    0.4441 O   0  0  0  0  0  0  0  0  0  0  0  0
    2.6619   -1.1817    0.0394 C   0  0  0  0  0  0  0  0  0  0  0  0
   -1.4925   -2.0630   -0.5839 H   0  0  0  0  0  0  0  0  0  0  0  0
   -2.1110   -0.5627   -1.4624 H   0  0  0  0  0  0  0  0  0  0  0  0
   -3.1928   -1.5748   -0.4906 H   0  0  0  0  0  0  0  0  0  0  0  0
   -2.7348    0.4007    0.7704 H   0  0  0  0  0  0  0  0  0  0  0  0
   -2.1190   -1.0813    1.5692 H   0  0  0  0  0  0  0  0  0  0  0  0
    0.2063    0.4562    2.5979 H   0  0  0  0  0  0  0  0  0  0  0  0
   -0.7090    0.9143   -1.3453 H   0  0  0  0  0  0  0  0  0  0  0  0
   -0.0421    3.1142    0.0400 H   0  0  0  0  0  0  0  0  0  0  0  0
    1.2598    2.4952   -1.1103 H   0  0  0  0  0  0  0  0  0  0  0  0
    1.3323    2.1514    0.6274 H   0  0  0  0  0  0  0  0  0  0  0  0
    0.3591   -1.2079   -0.5487 H   0  0  0  0  0  0  0  0  0  0  0  0
    2.3048   -2.1601    0.4510 H   0  0  0  0  0  0  0  0  0  0  0  0
    2.7663   -1.2553   -1.0574 H   0  0  0  0  0  0  0  0  0  0  0  0
    3.6647   -1.0232    0.4983 H   0  0  0  0  0  0  0  0  0  0  0  0
  1  2  1  0
  2  3  1  0
  3  4  1  0
  3  5  1  0
  5  6  1  0
  5  7  1  0
  7  8  1  0
  8  9  1  0
  7  3  1  0
  1 10  1  0
  1 11  1  0
  1 12  1  0
  2 13  1  0
  2 14  1  0
  4 15  1  0
  5 16  1  0
  6 17  1  0
  6 18  1  0
  6 19  1  0
  7 20  1  0
  9 21  1  0
  9 22  1  0
  9 23  1  0
M  END
