
     RDKit          3D

 21 23  0  0  0  0  0  0  0  0999 V2000
    2.4126   -0.6968    0.6303 C   0  0  0  0  0  0  0  0  0  0  0  0
    1.6364    0.4931    0.1451 C   0  0  0  0  0  0  0  0  0  0  0  0
    0.1966    0.2715   -0.0270 C   0  0  0  0  0  0  0  0  0  0  0  0
   -0.4152   -0.7211   -0.9296 C   0  0  0  0  0  0  0  0  0  0  0  0
   -1.6883   -1.1055   -0.1810 C   0  0  0  0  0  0  0  0  0  0  0  0
   -2.0935    0.1293    0.5682 C   0  0  0  0  0  0  0  0  0  0  0  0
   -0.8820    1.0710    0.5080 C   0  0  0  0  0  0  0  0  0  0  0  0
   -0.4894    1.3078   -0.9611 C   0  0  0  0  0  0  0  0  0  0  0  0
   -0.7399    0.2932   -1.8552 O   0  0  0  0  0  0  0  0  0  0  0  0
    1.9714   -1.6619    0.3727 H   0  0  0  0  0  0  0  0  0  0  0  0
    3.4296   -0.6692    0.1493 H   0  0  0  0  0  0  0  0  0  0  0  0
    2.5910   -0.6805    1.7335 H   0  0  0  0  0  0  0  0  0  0  0  0
    2.0899    0.8631   -0.8211 H   0  0  0  0  0  0  0  0  0  0  0  0
    1.7986    1.3118    0.8772 H   0  0  0  0  0  0  0  0  0  0  0  0
    0.1762   -1.5433   -1.3171 H   0  0  0  0  0  0  0  0  0  0  0  0
   -2.4526   -1.4053   -0.9178 H   0  0  0  0  0  0  0  0  0  0  0  0
   -1.4951   -1.9623    0.5065 H   0  0  0  0  0  0  0  0  0  0  0  0
   -2.8819    0.6497   -0.0480 H   0  0  0  0  0  0  0  0  0  0  0  0
   -2.4135   -0.0489    1.5951 H   0  0  0  0  0  0  0  0  0  0  0  0
   -0.8173    1.9015    1.1931 H   0  0  0  0  0  0  0  0  0  0  0  0
    0.0664    2.2027   -1.2210 H   0  0  0  0  0  0  0  0  0  0  0  0
  1  2  1  0
  2  3  1  0
  3  4  1  0
  4  5  1  0
  5  6  1  0
  6  7  1  0
  7  8  1  0
  8  9  1  0
  7  3  1  0
  8  3  1  0
  9  4  1  0
  1 10  1  0
  1 11  1  0
  1 12  1  0
  2 13  1  0
  2 14  1  0
  4 15  1  0
  5 16  1  0
  5 17  1  0
  6 18  1  0
  6 19  1  0
  7 20  1  0
  8 21  1  0
M  END
