
     RDKit          3D

 27 27  0  0  0  0  0  0  0  0999 V2000
    2.9763   -0.6793    0.0656 C   0  0  0  0  0  0  0  0  0  0  0  0
    1.9324    0.3999   -0.2541 C   0  0  0  0  0  0  0  0  0  0  0  0
    0.7365    0.0573    0.5841 C   0  0  0  0  0  0  0  0  0  0  0  0
    0.1429   -1.3176    0.2983 C   0  0  0  0  0  0  0  0  0  0  0  0
   -1.1731   -0.6868    0.6544 C   0  0  0  0  0  0  0  0  0  0  0  0
   -2.3695   -1.1641   -0.1067 C   0  0  0  0  0  0  0  0  0  0  0  0
   -0.5755    0.6299    0.1536 C   0  0  0  0  0  0  0  0  0  0  0  0
   -1.0628    1.8269    0.9522 C   0  0  0  0  0  0  0  0  0  0  0  0
   -0.6968    0.8388   -1.3197 C   0  0  0  0  0  0  0  0  0  0  0  0
    3.9501   -0.4498   -0.3671 H   0  0  0  0  0  0  0  0  0  0  0  0
    2.5308   -1.6368   -0.2947 H   0  0  0  0  0  0  0  0  0  0  0  0
    2.9949   -0.7238    1.1887 H   0  0  0  0  0  0  0  0  0  0  0  0
    1.7571    0.3734   -1.3279 H   0  0  0  0  0  0  0  0  0  0  0  0
    2.3060    1.3818    0.0801 H   0  0  0  0  0  0  0  0  0  0  0  0
    0.9780    0.1776    1.6590 H   0  0  0  0  0  0  0  0  0  0  0  0
    0.5038   -2.1204    0.9535 H   0  0  0  0  0  0  0  0  0  0  0  0
    0.2869   -1.5345   -0.7841 H   0  0  0  0  0  0  0  0  0  0  0  0
   -1.3275   -0.6593    1.7317 H   0  0  0  0  0  0  0  0  0  0  0  0
   -2.3541   -0.9510   -1.1758 H   0  0  0  0  0  0  0  0  0  0  0  0
   -2.5009   -2.2446    0.1052 H   0  0  0  0  0  0  0  0  0  0  0  0
   -3.2594   -0.6569    0.3187 H   0  0  0  0  0  0  0  0  0  0  0  0
   -1.8455    2.3250    0.3355 H   0  0  0  0  0  0  0  0  0  0  0  0
   -1.4671    1.4430    1.8991 H   0  0  0  0  0  0  0  0  0  0  0  0
   -0.2450    2.5495    1.0946 H   0  0  0  0  0  0  0  0  0  0  0  0
   -1.6555    1.3701   -1.5530 H   0  0  0  0  0  0  0  0  0  0  0  0
   -0.6727   -0.0692   -1.9219 H   0  0  0  0  0  0  0  0  0  0  0  0
    0.1096    1.5210   -1.6882 H   0  0  0  0  0  0  0  0  0  0  0  0
  1  2  1  0
  2  3  1  0
  3  4  1  0
  4  5  1  0
  5  6  1  0
  5  7  1  0
  7  8  1  0
  7  9  1  0
  7  3  1  0
  1 10  1  0
  1 11  1  0
  1 12  1  0
  2 13  1  0
  2 14  1  0
  3 15  1  0
  4 16  1  0
  4 17  1  0
  5 18  1  0
  6 19  1  0
  6 20  1  0
  6 21  1  0
  8 22  1  0
  8 23  1  0
  8 24  1  0
  9 25  1  0
  9 26  1  0
  9 27  1  0
M  END
