
     RDKit          3D

 19 19  0  0  0  0  0  0  0  0999 V2000
    2.0100    0.5749   -0.0642 C   0  0  0  0  0  0  0  0  0  0  0  0
    0.9761   -0.0496    0.8073 C   0  0  0  0  0  0  0  0  0  0  0  0
   -0.3256   -0.3133    0.1342 C   0  0  0  0  0  0  0  0  0  0  0  0
   -1.2623   -0.8859    0.9470 O   0  0  0  0  0  0  0  0  0  0  0  0
   -0.2565   -0.9831   -1.2206 C   0  0  0  0  0  0  0  0  0  0  0  0
   -1.4864   -0.2314   -1.5209 C   0  0  0  0  0  0  0  0  0  0  0  0
   -2.4788   -0.3873   -2.1556 O   0  0  0  0  0  0  0  0  0  0  0  0
   -0.9184    0.8230   -0.6611 C   0  0  0  0  0  0  0  0  0  0  0  0
   -1.8215    1.6232    0.0089 O   0  0  0  0  0  0  0  0  0  0  0  0
    2.9333    0.7072    0.5559 H   0  0  0  0  0  0  0  0  0  0  0  0
    2.2931   -0.1523   -0.8727 H   0  0  0  0  0  0  0  0  0  0  0  0
    1.6842    1.5383   -0.4553 H   0  0  0  0  0  0  0  0  0  0  0  0
    0.7819    0.5504    1.7125 H   0  0  0  0  0  0  0  0  0  0  0  0
    1.3681   -1.0335    1.1630 H   0  0  0  0  0  0  0  0  0  0  0  0
   -0.9353   -1.6637    1.4672 H   0  0  0  0  0  0  0  0  0  0  0  0
   -0.3365   -2.0818   -1.2100 H   0  0  0  0  0  0  0  0  0  0  0  0
    0.5746   -0.6084   -1.8723 H   0  0  0  0  0  0  0  0  0  0  0  0
   -0.1949    1.4318   -1.2418 H   0  0  0  0  0  0  0  0  0  0  0  0
   -2.6051    1.1415    0.3444 H   0  0  0  0  0  0  0  0  0  0  0  0
  1  2  1  0
  2  3  1  0
  3  4  1  0
  3  5  1  0
  5  6  1  0
  6  7  2  0
  6  8  1  0
  8  9  1  0
  8  3  1  0
  1 10  1  0
  1 11  1  0
  1 12  1  0
  2 13  1  0
  2 14  1  0
  4 15  1  0
  5 16  1  0
  5 17  1  0
  8 18  1  0
  9 19  1  0
M  END
