
     RDKit          3D

 21 21  0  0  0  0  0  0  0  0999 V2000
   -2.8426   -0.2020    0.2793 C   0  0  0  0  0  0  0  0  0  0  0  0
   -1.6576   -0.0367   -0.6454 C   0  0  0  0  0  0  0  0  0  0  0  0
   -0.5482    0.5975    0.1855 C   0  0  0  0  0  0  0  0  0  0  0  0
    0.6734    0.8165   -0.5960 C   0  0  0  0  0  0  0  0  0  0  0  0
    1.7101    0.1613   -0.1034 C   0  0  0  0  0  0  0  0  0  0  0  0
    3.1159    0.1062   -0.5808 C   0  0  0  0  0  0  0  0  0  0  0  0
    1.2510   -0.5740    1.0876 C   0  0  0  0  0  0  0  0  0  0  0  0
    1.9596   -1.2844    1.8400 O   0  0  0  0  0  0  0  0  0  0  0  0
   -0.2012   -0.3642    1.2951 C   0  0  0  0  0  0  0  0  0  0  0  0
   -3.4464    0.7306    0.1895 H   0  0  0  0  0  0  0  0  0  0  0  0
   -2.4621   -0.3713    1.3055 H   0  0  0  0  0  0  0  0  0  0  0  0
   -3.4501   -1.0983    0.0151 H   0  0  0  0  0  0  0  0  0  0  0  0
   -1.3744   -1.0318   -1.0107 H   0  0  0  0  0  0  0  0  0  0  0  0
   -1.8874    0.5861   -1.5260 H   0  0  0  0  0  0  0  0  0  0  0  0
   -0.9390    1.5315    0.6384 H   0  0  0  0  0  0  0  0  0  0  0  0
    0.7367    1.4379   -1.4749 H   0  0  0  0  0  0  0  0  0  0  0  0
    3.2686   -0.7076   -1.3270 H   0  0  0  0  0  0  0  0  0  0  0  0
    3.8327   -0.0308    0.2525 H   0  0  0  0  0  0  0  0  0  0  0  0
    3.3859    1.0914   -1.0441 H   0  0  0  0  0  0  0  0  0  0  0  0
   -0.6847   -1.3625    1.1647 H   0  0  0  0  0  0  0  0  0  0  0  0
   -0.4399    0.0045    2.2948 H   0  0  0  0  0  0  0  0  0  0  0  0
  1  2  1  0
  2  3  1  0
  3  4  1  0
  4  5  2  0
  5  6  1  0
  5  7  1  0
  7  8  2  0
  7  9  1  0
  9  3  1  0
  1 10  1  0
  1 11  1  0
  1 12  1  0
  2 13  1  0
  2 14  1  0
  3 15  1  0
  4 16  1  0
  6 17  1  0
  6 18  1  0
  6 19  1  0
  9 20  1  0
  9 21  1  0
M  END
