
     RDKit          3D

 23 23  0  0  0  0  0  0  0  0999 V2000
   -1.7199    1.3140   -0.6178 C   0  0  0  0  0  0  0  0  0  0  0  0
   -0.8325    0.2848   -1.3190 C   0  0  0  0  0  0  0  0  0  0  0  0
   -0.2871   -0.6034   -0.2365 C   0  0  0  0  0  0  0  0  0  0  0  0
   -1.3833   -1.3247    0.5502 C   0  0  0  0  0  0  0  0  0  0  0  0
    1.0377   -1.2090   -0.2858 C   0  0  0  0  0  0  0  0  0  0  0  0
    1.2129   -2.3703    0.5000 O   0  0  0  0  0  0  0  0  0  0  0  0
    0.8237    0.0493    0.5619 C   0  0  0  0  0  0  0  0  0  0  0  0
    1.5271    1.2561   -0.0030 C   0  0  0  0  0  0  0  0  0  0  0  0
    2.1519    1.0067   -1.2150 O   0  0  0  0  0  0  0  0  0  0  0  0
   -1.6301    2.2979   -1.0853 H   0  0  0  0  0  0  0  0  0  0  0  0
   -2.7384    0.8934   -0.6137 H   0  0  0  0  0  0  0  0  0  0  0  0
   -1.4195    1.4204    0.4605 H   0  0  0  0  0  0  0  0  0  0  0  0
   -1.4592   -0.3740   -1.9818 H   0  0  0  0  0  0  0  0  0  0  0  0
   -0.0567    0.7418   -1.9313 H   0  0  0  0  0  0  0  0  0  0  0  0
   -2.2804   -0.6869    0.6764 H   0  0  0  0  0  0  0  0  0  0  0  0
   -1.0084   -1.6745    1.5236 H   0  0  0  0  0  0  0  0  0  0  0  0
   -1.7272   -2.2319   -0.0069 H   0  0  0  0  0  0  0  0  0  0  0  0
    1.6991   -1.1700   -1.1484 H   0  0  0  0  0  0  0  0  0  0  0  0
    1.1375   -2.1838    1.4587 H   0  0  0  0  0  0  0  0  0  0  0  0
    0.7206   -0.0645    1.6512 H   0  0  0  0  0  0  0  0  0  0  0  0
    0.8445    2.1141   -0.1626 H   0  0  0  0  0  0  0  0  0  0  0  0
    2.2591    1.5885    0.7660 H   0  0  0  0  0  0  0  0  0  0  0  0
    3.1287    0.9261   -1.1540 H   0  0  0  0  0  0  0  0  0  0  0  0
  1  2  1  0
  2  3  1  0
  3  4  1  0
  3  5  1  0
  5  6  1  0
  5  7  1  0
  7  8  1  0
  8  9  1  0
  7  3  1  0
  1 10  1  0
  1 11  1  0
  1 12  1  0
  2 13  1  0
  2 14  1  0
  4 15  1  0
  4 16  1  0
  4 17  1  0
  5 18  1  0
  6 19  1  0
  7 20  1  0
  8 21  1  0
  8 22  1  0
  9 23  1  0
M  END
