
     RDKit          3D

 22 22  0  0  0  0  0  0  0  0999 V2000
   -2.6523   -0.4035   -0.1515 C   0  0  0  0  0  0  0  0  0  0  0  0
   -1.6545    0.4442    0.6254 C   0  0  0  0  0  0  0  0  0  0  0  0
   -0.2838   -0.0972    0.3320 C   0  0  0  0  0  0  0  0  0  0  0  0
    0.0552   -0.0391   -1.1333 C   0  0  0  0  0  0  0  0  0  0  0  0
    1.2749   -0.8705   -1.2657 C   0  0  0  0  0  0  0  0  0  0  0  0
    2.3025   -0.5469   -0.5045 C   0  0  0  0  0  0  0  0  0  0  0  0
    2.1095    0.6220    0.3993 C   0  0  0  0  0  0  0  0  0  0  0  0
    0.7998    0.5624    1.1286 C   0  0  0  0  0  0  0  0  0  0  0  0
   -2.3038   -1.4667   -0.0811 H   0  0  0  0  0  0  0  0  0  0  0  0
   -3.6418   -0.3050    0.3347 H   0  0  0  0  0  0  0  0  0  0  0  0
   -2.7180   -0.1212   -1.2087 H   0  0  0  0  0  0  0  0  0  0  0  0
   -1.7522    1.5147    0.4084 H   0  0  0  0  0  0  0  0  0  0  0  0
   -1.8512    0.2800    1.7012 H   0  0  0  0  0  0  0  0  0  0  0  0
   -0.2975   -1.1748    0.6442 H   0  0  0  0  0  0  0  0  0  0  0  0
    0.3311    0.9923   -1.4451 H   0  0  0  0  0  0  0  0  0  0  0  0
   -0.7554   -0.4103   -1.7821 H   0  0  0  0  0  0  0  0  0  0  0  0
    1.3172   -1.6870   -1.9413 H   0  0  0  0  0  0  0  0  0  0  0  0
    3.2537   -1.0818   -0.5103 H   0  0  0  0  0  0  0  0  0  0  0  0
    2.9196    0.6664    1.1658 H   0  0  0  0  0  0  0  0  0  0  0  0
    2.1320    1.5550   -0.2222 H   0  0  0  0  0  0  0  0  0  0  0  0
    0.4436    1.5814    1.4245 H   0  0  0  0  0  0  0  0  0  0  0  0
    0.9712   -0.0144    2.0817 H   0  0  0  0  0  0  0  0  0  0  0  0
  1  2  1  0
  2  3  1  0
  3  4  1  0
  4  5  1  0
  5  6  2  0
  6  7  1  0
  7  8  1  0
  8  3  1  0
  1  9  1  0
  1 10  1  0
  1 11  1  0
  2 12  1  0
  2 13  1  0
  3 14  1  0
  4 15  1  0
  4 16  1  0
  5 17  1  0
  6 18  1  0
  7 19  1  0
  7 20  1  0
  8 21  1  0
  8 22  1  0
M  END
