
     RDKit          3D

 21 22  0  0  0  0  0  0  0  0999 V2000
   -2.3824    0.4653    0.3727 C   0  0  0  0  0  0  0  0  0  0  0  0
   -1.5039   -0.6587   -0.0866 C   0  0  0  0  0  0  0  0  0  0  0  0
   -0.1438   -0.6537    0.5404 C   0  0  0  0  0  0  0  0  0  0  0  0
    0.6382   -1.8302   -0.0034 C   0  0  0  0  0  0  0  0  0  0  0  0
    0.7828   -3.0084    0.2766 O   0  0  0  0  0  0  0  0  0  0  0  0
    1.1554   -0.8705   -1.0515 C   0  0  0  0  0  0  0  0  0  0  0  0
    0.8819    0.2011   -0.0689 C   0  0  0  0  0  0  0  0  0  0  0  0
    0.8871    1.6103   -0.2741 C   0  0  0  0  0  0  0  0  0  0  0  0
    1.9231    0.9318    0.6569 C   0  0  0  0  0  0  0  0  0  0  0  0
   -3.3917    0.2943   -0.0764 H   0  0  0  0  0  0  0  0  0  0  0  0
   -2.4421    0.5485    1.4768 H   0  0  0  0  0  0  0  0  0  0  0  0
   -2.0076    1.4119   -0.0361 H   0  0  0  0  0  0  0  0  0  0  0  0
   -1.3535   -0.5211   -1.1918 H   0  0  0  0  0  0  0  0  0  0  0  0
   -1.9784   -1.6607    0.0399 H   0  0  0  0  0  0  0  0  0  0  0  0
   -0.1200   -0.6251    1.6469 H   0  0  0  0  0  0  0  0  0  0  0  0
    2.2193   -1.0425   -1.3220 H   0  0  0  0  0  0  0  0  0  0  0  0
    0.5070   -0.9444   -1.9394 H   0  0  0  0  0  0  0  0  0  0  0  0
    0.2040    2.2910    0.2740 H   0  0  0  0  0  0  0  0  0  0  0  0
    1.2979    2.0802   -1.1922 H   0  0  0  0  0  0  0  0  0  0  0  0
    1.8669    1.1465    1.7255 H   0  0  0  0  0  0  0  0  0  0  0  0
    2.9599    0.8344    0.2327 H   0  0  0  0  0  0  0  0  0  0  0  0
  1  2  1  0
  2  3  1  0
  3  4  1  0
  4  5  2  0
  4  6  1  0
  6  7  1  0
  7  8  1  0
  8  9  1  0
  7  3  1  0
  9  7  1  0
  1 10  1  0
  1 11  1  0
  1 12  1  0
  2 13  1  0
  2 14  1  0
  3 15  1  0
  6 16  1  0
  6 17  1  0
  8 18  1  0
  8 19  1  0
  9 20  1  0
  9 21  1  0
M  END
