
     RDKit          3D

 21 22  0  0  0  0  0  0  0  0999 V2000
    2.3037   -0.0797    0.6195 C   0  0  0  0  0  0  0  0  0  0  0  0
    1.2524   -0.6908   -0.3003 C   0  0  0  0  0  0  0  0  0  0  0  0
    0.0255    0.1394   -0.3857 C   0  0  0  0  0  0  0  0  0  0  0  0
    0.2671    1.5294   -0.9155 C   0  0  0  0  0  0  0  0  0  0  0  0
   -0.1050    1.8889   -2.0037 O   0  0  0  0  0  0  0  0  0  0  0  0
   -1.2536   -0.4526   -0.8275 C   0  0  0  0  0  0  0  0  0  0  0  0
   -1.9022    0.6521   -0.0098 C   0  0  0  0  0  0  0  0  0  0  0  0
   -0.7875    0.1116    0.8717 C   0  0  0  0  0  0  0  0  0  0  0  0
   -1.2892   -1.2141    0.4518 C   0  0  0  0  0  0  0  0  0  0  0  0
    2.7385    0.8389    0.2179 H   0  0  0  0  0  0  0  0  0  0  0  0
    1.8156    0.0550    1.6196 H   0  0  0  0  0  0  0  0  0  0  0  0
    3.0850   -0.8546    0.7576 H   0  0  0  0  0  0  0  0  0  0  0  0
    1.7147   -0.6745   -1.3367 H   0  0  0  0  0  0  0  0  0  0  0  0
    1.1289   -1.7222    0.0479 H   0  0  0  0  0  0  0  0  0  0  0  0
    0.7942    2.2130   -0.2825 H   0  0  0  0  0  0  0  0  0  0  0  0
   -1.5458   -0.7514   -1.7351 H   0  0  0  0  0  0  0  0  0  0  0  0
   -2.8989    0.3627    0.3787 H   0  0  0  0  0  0  0  0  0  0  0  0
   -1.7795    1.6663   -0.3794 H   0  0  0  0  0  0  0  0  0  0  0  0
   -0.5401    0.4545    1.7744 H   0  0  0  0  0  0  0  0  0  0  0  0
   -0.6935   -2.1098    0.5644 H   0  0  0  0  0  0  0  0  0  0  0  0
   -2.3302   -1.3621    0.8728 H   0  0  0  0  0  0  0  0  0  0  0  0
  1  2  1  0
  2  3  1  0
  3  4  1  0
  4  5  2  0
  3  6  1  0
  6  7  1  0
  7  8  1  0
  8  9  1  0
  8  3  1  0
  9  6  1  0
  1 10  1  0
  1 11  1  0
  1 12  1  0
  2 13  1  0
  2 14  1  0
  4 15  1  0
  6 16  1  0
  7 17  1  0
  7 18  1  0
  8 19  1  0
  9 20  1  0
  9 21  1  0
M  END
