
     RDKit          3D

 23 23  0  0  0  0  0  0  0  0999 V2000
   -2.9202    0.5408   -0.0943 C   0  0  0  0  0  0  0  0  0  0  0  0
   -1.8089   -0.3646   -0.5186 C   0  0  0  0  0  0  0  0  0  0  0  0
   -0.6137   -0.3361    0.3817 C   0  0  0  0  0  0  0  0  0  0  0  0
   -0.8635   -0.7076    1.6955 O   0  0  0  0  0  0  0  0  0  0  0  0
    0.2934    0.8343    0.2822 C   0  0  0  0  0  0  0  0  0  0  0  0
    1.2825    0.0575   -0.5683 C   0  0  0  0  0  0  0  0  0  0  0  0
    2.6694   -0.0449    0.0256 C   0  0  0  0  0  0  0  0  0  0  0  0
    3.2630    1.1888    0.2278 O   0  0  0  0  0  0  0  0  0  0  0  0
    0.4953   -1.1989   -0.2083 C   0  0  0  0  0  0  0  0  0  0  0  0
   -2.6158    1.3874    0.5294 H   0  0  0  0  0  0  0  0  0  0  0  0
   -3.7781   -0.0380    0.3583 H   0  0  0  0  0  0  0  0  0  0  0  0
   -3.3665    0.9861   -1.0298 H   0  0  0  0  0  0  0  0  0  0  0  0
   -2.2087   -1.4206   -0.4864 H   0  0  0  0  0  0  0  0  0  0  0  0
   -1.4883   -0.1906   -1.5604 H   0  0  0  0  0  0  0  0  0  0  0  0
   -1.4826   -0.0738    2.1164 H   0  0  0  0  0  0  0  0  0  0  0  0
    0.7611    1.1028    1.2741 H   0  0  0  0  0  0  0  0  0  0  0  0
   -0.0955    1.7550   -0.1733 H   0  0  0  0  0  0  0  0  0  0  0  0
    1.2544    0.2987   -1.6457 H   0  0  0  0  0  0  0  0  0  0  0  0
    3.2599   -0.7204   -0.6080 H   0  0  0  0  0  0  0  0  0  0  0  0
    2.5401   -0.5431    1.0304 H   0  0  0  0  0  0  0  0  0  0  0  0
    4.2199    1.0874   -0.0663 H   0  0  0  0  0  0  0  0  0  0  0  0
    0.9850   -1.8579    0.5263 H   0  0  0  0  0  0  0  0  0  0  0  0
    0.2181   -1.7422   -1.1257 H   0  0  0  0  0  0  0  0  0  0  0  0
  1  2  1  0
  2  3  1  0
  3  4  1  0
  3  5  1  0
  5  6  1  0
  6  7  1  0
  7  8  1  0
  6  9  1  0
  9  3  1  0
  1 10  1  0
  1 11  1  0
  1 12  1  0
  2 13  1  0
  2 14  1  0
  4 15  1  0
  5 16  1  0
  5 17  1  0
  6 18  1  0
  7 19  1  0
  7 20  1  0
  8 21  1  0
  9 22  1  0
  9 23  1  0
M  END
