
     RDKit          3D

 20 21  0  0  0  0  0  0  0  0999 V2000
   -2.7293   -0.3446    0.2403 C   0  0  0  0  0  0  0  0  0  0  0  0
   -1.6556    0.6260    0.5710 C   0  0  0  0  0  0  0  0  0  0  0  0
   -0.2698    0.1069    0.4833 C   0  0  0  0  0  0  0  0  0  0  0  0
    0.3302   -0.4301   -0.7390 C   0  0  0  0  0  0  0  0  0  0  0  0
    1.6301   -1.1398   -0.6111 C   0  0  0  0  0  0  0  0  0  0  0  0
    2.5815   -0.3296   -0.1688 C   0  0  0  0  0  0  0  0  0  0  0  0
    2.0687    1.0451    0.0678 C   0  0  0  0  0  0  0  0  0  0  0  0
    0.6515    0.9603   -0.4035 C   0  0  0  0  0  0  0  0  0  0  0  0
   -3.4404    0.0594   -0.5401 H   0  0  0  0  0  0  0  0  0  0  0  0
   -3.3895   -0.5714    1.1157 H   0  0  0  0  0  0  0  0  0  0  0  0
   -2.3596   -1.3046   -0.1835 H   0  0  0  0  0  0  0  0  0  0  0  0
   -1.8227    1.5527   -0.0540 H   0  0  0  0  0  0  0  0  0  0  0  0
   -1.8374    0.9852    1.6246 H   0  0  0  0  0  0  0  0  0  0  0  0
    0.1698   -0.2649    1.4513 H   0  0  0  0  0  0  0  0  0  0  0  0
   -0.3121   -0.7222   -1.5939 H   0  0  0  0  0  0  0  0  0  0  0  0
    1.8150   -2.1925   -0.8425 H   0  0  0  0  0  0  0  0  0  0  0  0
    3.6193   -0.6025    0.0103 H   0  0  0  0  0  0  0  0  0  0  0  0
    2.6414    1.7560   -0.5535 H   0  0  0  0  0  0  0  0  0  0  0  0
    2.1040    1.2737    1.1417 H   0  0  0  0  0  0  0  0  0  0  0  0
    0.2048    1.7437   -1.0162 H   0  0  0  0  0  0  0  0  0  0  0  0
  1  2  1  0
  2  3  1  0
  3  4  1  0
  4  5  1  0
  5  6  2  0
  6  7  1  0
  7  8  1  0
  8  3  1  0
  8  4  1  0
  1  9  1  0
  1 10  1  0
  1 11  1  0
  2 12  1  0
  2 13  1  0
  3 14  1  0
  4 15  1  0
  5 16  1  0
  6 17  1  0
  7 18  1  0
  7 19  1  0
  8 20  1  0
M  END
