
     RDKit          3D

 19 20  0  0  0  0  0  0  0  0999 V2000
   -2.6377    0.0205   -0.3463 C   0  0  0  0  0  0  0  0  0  0  0  0
   -1.4714   -0.5584    0.3874 C   0  0  0  0  0  0  0  0  0  0  0  0
   -0.1673   -0.4042   -0.4196 C   0  0  0  0  0  0  0  0  0  0  0  0
    1.0946   -0.8746    0.0576 C   0  0  0  0  0  0  0  0  0  0  0  0
    2.4452   -0.1921    0.0375 C   0  0  0  0  0  0  0  0  0  0  0  0
    1.7362    0.6935    1.0257 C   0  0  0  0  0  0  0  0  0  0  0  0
    1.8484    1.2101    2.0941 O   0  0  0  0  0  0  0  0  0  0  0  0
    0.6864    0.6571   -0.0240 C   0  0  0  0  0  0  0  0  0  0  0  0
    1.2276    1.3538   -1.1414 O   0  0  0  0  0  0  0  0  0  0  0  0
   -3.4660    0.1451    0.3814 H   0  0  0  0  0  0  0  0  0  0  0  0
   -2.9698   -0.7197   -1.1086 H   0  0  0  0  0  0  0  0  0  0  0  0
   -2.4334    1.0103   -0.7705 H   0  0  0  0  0  0  0  0  0  0  0  0
   -1.3695   -0.0268    1.3552 H   0  0  0  0  0  0  0  0  0  0  0  0
   -1.6741   -1.6565    0.5375 H   0  0  0  0  0  0  0  0  0  0  0  0
   -0.3952   -0.6464   -1.5027 H   0  0  0  0  0  0  0  0  0  0  0  0
    0.9876   -1.3141    1.1052 H   0  0  0  0  0  0  0  0  0  0  0  0
    2.7721    0.2607   -0.8845 H   0  0  0  0  0  0  0  0  0  0  0  0
    3.2413   -0.8194    0.4619 H   0  0  0  0  0  0  0  0  0  0  0  0
    0.5450    1.8610   -1.6085 H   0  0  0  0  0  0  0  0  0  0  0  0
  1  2  1  0
  2  3  1  0
  3  4  1  0
  4  5  1  0
  5  6  1  0
  6  7  2  0
  6  8  1  0
  8  9  1  0
  8  3  1  0
  8  4  1  0
  1 10  1  0
  1 11  1  0
  1 12  1  0
  2 13  1  0
  2 14  1  0
  3 15  1  0
  4 16  1  0
  5 17  1  0
  5 18  1  0
  9 19  1  0
M  END
