
     RDKit          3D

 23 23  0  0  0  0  0  0  0  0999 V2000
    3.1966    0.0954   -0.0461 C   0  0  0  0  0  0  0  0  0  0  0  0
    2.0808   -0.9086   -0.1868 C   0  0  0  0  0  0  0  0  0  0  0  0
    0.7968   -0.1354   -0.3784 C   0  0  0  0  0  0  0  0  0  0  0  0
   -0.3700   -1.0393   -0.5278 C   0  0  0  0  0  0  0  0  0  0  0  0
   -1.3752   -0.5029    0.1466 C   0  0  0  0  0  0  0  0  0  0  0  0
   -2.7390   -1.1224    0.2388 C   0  0  0  0  0  0  0  0  0  0  0  0
   -0.8947    0.7565    0.7512 C   0  0  0  0  0  0  0  0  0  0  0  0
   -1.3666    1.9875    0.0493 C   0  0  0  0  0  0  0  0  0  0  0  0
    0.4968    0.6896    0.6694 O   0  0  0  0  0  0  0  0  0  0  0  0
    4.1615   -0.4376   -0.1156 H   0  0  0  0  0  0  0  0  0  0  0  0
    3.0730    0.8231   -0.8818 H   0  0  0  0  0  0  0  0  0  0  0  0
    3.1202    0.5927    0.9413 H   0  0  0  0  0  0  0  0  0  0  0  0
    2.0121   -1.6216    0.6386 H   0  0  0  0  0  0  0  0  0  0  0  0
    2.2703   -1.4686   -1.1435 H   0  0  0  0  0  0  0  0  0  0  0  0
    0.8561    0.4627   -1.3139 H   0  0  0  0  0  0  0  0  0  0  0  0
   -0.4046   -1.9941   -1.0985 H   0  0  0  0  0  0  0  0  0  0  0  0
   -2.6985   -2.1255    0.7122 H   0  0  0  0  0  0  0  0  0  0  0  0
   -3.4225   -0.4270    0.7829 H   0  0  0  0  0  0  0  0  0  0  0  0
   -3.1914   -1.2664   -0.7691 H   0  0  0  0  0  0  0  0  0  0  0  0
   -1.1330    0.8079    1.8510 H   0  0  0  0  0  0  0  0  0  0  0  0
   -2.1409    2.4663    0.6855 H   0  0  0  0  0  0  0  0  0  0  0  0
   -0.5339    2.6876   -0.0738 H   0  0  0  0  0  0  0  0  0  0  0  0
   -1.7939    1.6802   -0.9317 H   0  0  0  0  0  0  0  0  0  0  0  0
  1  2  1  0
  2  3  1  0
  3  4  1  0
  4  5  2  0
  5  6  1  0
  5  7  1  0
  7  8  1  0
  7  9  1  0
  9  3  1  0
  1 10  1  0
  1 11  1  0
  1 12  1  0
  2 13  1  0
  2 14  1  0
  3 15  1  0
  4 16  1  0
  6 17  1  0
  6 18  1  0
  6 19  1  0
  7 20  1  0
  8 21  1  0
  8 22  1  0
  8 23  1  0
M  END
