
     RDKit          3D

 19 19  0  0  0  0  0  0  0  0999 V2000
    2.1146    0.9817   -0.6605 C   0  0  0  0  0  0  0  0  0  0  0  0
    1.3119    0.4631    0.5100 C   0  0  0  0  0  0  0  0  0  0  0  0
    0.4531   -0.7060    0.0736 C   0  0  0  0  0  0  0  0  0  0  0  0
   -0.4326   -1.4115    0.9987 C   0  0  0  0  0  0  0  0  0  0  0  0
   -0.5799   -2.8003    0.8016 O   0  0  0  0  0  0  0  0  0  0  0  0
   -1.0497   -0.5196   -0.0022 C   0  0  0  0  0  0  0  0  0  0  0  0
   -1.4637    0.7894    0.3448 O   0  0  0  0  0  0  0  0  0  0  0  0
   -2.4291    1.4896   -0.3155 C   0  0  0  0  0  0  0  0  0  0  0  0
   -3.0085    0.9645   -1.3021 O   0  0  0  0  0  0  0  0  0  0  0  0
    1.5740    0.6487   -1.5894 H   0  0  0  0  0  0  0  0  0  0  0  0
    2.2143    2.0926   -0.6521 H   0  0  0  0  0  0  0  0  0  0  0  0
    3.0993    0.5026   -0.6763 H   0  0  0  0  0  0  0  0  0  0  0  0
    0.7109    1.2597    0.9920 H   0  0  0  0  0  0  0  0  0  0  0  0
    2.0373    0.1081    1.2730 H   0  0  0  0  0  0  0  0  0  0  0  0
    0.9026   -1.2989   -0.7592 H   0  0  0  0  0  0  0  0  0  0  0  0
   -0.5627   -1.1340    2.0620 H   0  0  0  0  0  0  0  0  0  0  0  0
   -0.5651   -2.9827   -0.1812 H   0  0  0  0  0  0  0  0  0  0  0  0
   -1.5923   -0.9363   -0.8792 H   0  0  0  0  0  0  0  0  0  0  0  0
   -2.7344    2.4895   -0.0380 H   0  0  0  0  0  0  0  0  0  0  0  0
  1  2  1  0
  2  3  1  0
  3  4  1  0
  4  5  1  0
  4  6  1  0
  6  7  1  0
  7  8  1  0
  8  9  2  0
  6  3  1  0
  1 10  1  0
  1 11  1  0
  1 12  1  0
  2 13  1  0
  2 14  1  0
  3 15  1  0
  4 16  1  0
  5 17  1  0
  6 18  1  0
  8 19  1  0
M  END
