
     RDKit          3D

 25 25  0  0  0  0  0  0  0  0999 V2000
   -1.4684   -1.9331    0.8337 C   0  0  0  0  0  0  0  0  0  0  0  0
   -0.8229   -1.4107   -0.3806 C   0  0  0  0  0  0  0  0  0  0  0  0
   -0.3395    0.0099   -0.3201 C   0  0  0  0  0  0  0  0  0  0  0  0
   -1.4175    1.0463   -0.0465 C   0  0  0  0  0  0  0  0  0  0  0  0
   -0.8968    2.4391    0.0056 C   0  0  0  0  0  0  0  0  0  0  0  0
    0.6465    0.3352   -1.4562 C   0  0  0  0  0  0  0  0  0  0  0  0
    1.0297    0.3791   -0.0104 C   0  0  0  0  0  0  0  0  0  0  0  0
    2.1090   -0.5567    0.3997 C   0  0  0  0  0  0  0  0  0  0  0  0
    3.3287    0.1119    0.6287 O   0  0  0  0  0  0  0  0  0  0  0  0
   -0.8883   -2.7840    1.3012 H   0  0  0  0  0  0  0  0  0  0  0  0
   -2.4820   -2.3846    0.6267 H   0  0  0  0  0  0  0  0  0  0  0  0
   -1.6299   -1.2173    1.6489 H   0  0  0  0  0  0  0  0  0  0  0  0
   -1.5649   -1.4607   -1.2294 H   0  0  0  0  0  0  0  0  0  0  0  0
   -0.0008   -2.0954   -0.6884 H   0  0  0  0  0  0  0  0  0  0  0  0
   -1.8173    0.8414    0.9827 H   0  0  0  0  0  0  0  0  0  0  0  0
   -2.1952    0.8969   -0.8202 H   0  0  0  0  0  0  0  0  0  0  0  0
   -1.7672    3.1299   -0.0515 H   0  0  0  0  0  0  0  0  0  0  0  0
   -0.1984    2.7252   -0.7672 H   0  0  0  0  0  0  0  0  0  0  0  0
   -0.4446    2.6295    1.0159 H   0  0  0  0  0  0  0  0  0  0  0  0
    1.0301   -0.4839   -2.0823 H   0  0  0  0  0  0  0  0  0  0  0  0
    0.4849    1.2703   -2.0213 H   0  0  0  0  0  0  0  0  0  0  0  0
    1.1932    1.4164    0.4138 H   0  0  0  0  0  0  0  0  0  0  0  0
    2.3005   -1.2724   -0.4238 H   0  0  0  0  0  0  0  0  0  0  0  0
    1.8698   -1.1744    1.2848 H   0  0  0  0  0  0  0  0  0  0  0  0
    3.9412   -0.4579    1.1560 H   0  0  0  0  0  0  0  0  0  0  0  0
  1  2  1  0
  2  3  1  0
  3  4  1  0
  4  5  1  0
  3  6  1  0
  6  7  1  0
  7  8  1  0
  8  9  1  0
  7  3  1  0
  1 10  1  0
  1 11  1  0
  1 12  1  0
  2 13  1  0
  2 14  1  0
  4 15  1  0
  4 16  1  0
  5 17  1  0
  5 18  1  0
  5 19  1  0
  6 20  1  0
  6 21  1  0
  7 22  1  0
  8 23  1  0
  8 24  1  0
  9 25  1  0
M  END
