
     RDKit          3D

 27 27  0  0  0  0  0  0  0  0999 V2000
   -1.9195   -1.6645   -0.0244 C   0  0  0  0  0  0  0  0  0  0  0  0
   -1.3483   -0.6139    0.8775 C   0  0  0  0  0  0  0  0  0  0  0  0
   -0.1865    0.1453    0.3488 C   0  0  0  0  0  0  0  0  0  0  0  0
    1.0613   -0.5725   -0.0052 C   0  0  0  0  0  0  0  0  0  0  0  0
    0.9290   -1.6191   -1.0884 C   0  0  0  0  0  0  0  0  0  0  0  0
    2.1894    0.3580   -0.3979 C   0  0  0  0  0  0  0  0  0  0  0  0
   -0.6607    1.1816   -0.6517 C   0  0  0  0  0  0  0  0  0  0  0  0
   -0.3542    2.3163    0.2815 C   0  0  0  0  0  0  0  0  0  0  0  0
    0.1483    1.3145    1.2796 C   0  0  0  0  0  0  0  0  0  0  0  0
   -3.0579   -1.6213    0.0088 H   0  0  0  0  0  0  0  0  0  0  0  0
   -1.6627   -1.5542   -1.0942 H   0  0  0  0  0  0  0  0  0  0  0  0
   -1.6125   -2.6924    0.3310 H   0  0  0  0  0  0  0  0  0  0  0  0
   -2.1688    0.1360    1.0934 H   0  0  0  0  0  0  0  0  0  0  0  0
   -1.1382   -1.0496    1.8969 H   0  0  0  0  0  0  0  0  0  0  0  0
    1.3917   -1.1152    0.9302 H   0  0  0  0  0  0  0  0  0  0  0  0
    2.0060   -1.8279   -1.3978 H   0  0  0  0  0  0  0  0  0  0  0  0
    0.4737   -2.5573   -0.7689 H   0  0  0  0  0  0  0  0  0  0  0  0
    0.4795   -1.1760   -2.0170 H   0  0  0  0  0  0  0  0  0  0  0  0
    2.7560    0.6013    0.5250 H   0  0  0  0  0  0  0  0  0  0  0  0
    1.8035    1.2799   -0.8361 H   0  0  0  0  0  0  0  0  0  0  0  0
    2.8557   -0.2075   -1.0798 H   0  0  0  0  0  0  0  0  0  0  0  0
   -1.7345    1.0983   -0.9243 H   0  0  0  0  0  0  0  0  0  0  0  0
   -0.0771    1.2416   -1.5802 H   0  0  0  0  0  0  0  0  0  0  0  0
    0.3940    3.0623   -0.0812 H   0  0  0  0  0  0  0  0  0  0  0  0
   -1.3104    2.8331    0.5875 H   0  0  0  0  0  0  0  0  0  0  0  0
    1.2082    1.4014    1.5604 H   0  0  0  0  0  0  0  0  0  0  0  0
   -0.4651    1.3020    2.2266 H   0  0  0  0  0  0  0  0  0  0  0  0
  1  2  1  0
  2  3  1  0
  3  4  1  0
  4  5  1  0
  4  6  1  0
  3  7  1  0
  7  8  1  0
  8  9  1  0
  9  3  1  0
  1 10  1  0
  1 11  1  0
  1 12  1  0
  2 13  1  0
  2 14  1  0
  4 15  1  0
  5 16  1  0
  5 17  1  0
  5 18  1  0
  6 19  1  0
  6 20  1  0
  6 21  1  0
  7 22  1  0
  7 23  1  0
  8 24  1  0
  8 25  1  0
  9 26  1  0
  9 27  1  0
M  END
