
     RDKit          3D

 18 18  0  0  0  0  0  0  0  0999 V2000
   -1.4696   -1.5587   -0.4845 C   0  0  0  0  0  0  0  0  0  0  0  0
   -1.2697   -0.1060   -0.7667 C   0  0  0  0  0  0  0  0  0  0  0  0
   -0.0763    0.4263   -0.0129 C   0  0  0  0  0  0  0  0  0  0  0  0
    0.2590    1.8905   -0.1940 C   0  0  0  0  0  0  0  0  0  0  0  0
   -0.1139    0.1236    1.4332 O   0  0  0  0  0  0  0  0  0  0  0  0
    0.8884   -0.4809    0.4826 C   0  0  0  0  0  0  0  0  0  0  0  0
    2.2317   -0.1252    0.9825 C   0  0  0  0  0  0  0  0  0  0  0  0
    3.0142   -1.0156    1.2434 O   0  0  0  0  0  0  0  0  0  0  0  0
   -2.4585   -1.9398   -0.8060 H   0  0  0  0  0  0  0  0  0  0  0  0
   -0.6843   -2.1436   -0.9919 H   0  0  0  0  0  0  0  0  0  0  0  0
   -1.3160   -1.7019    0.6148 H   0  0  0  0  0  0  0  0  0  0  0  0
   -1.2000    0.1381   -1.8287 H   0  0  0  0  0  0  0  0  0  0  0  0
   -2.1837    0.4363   -0.3856 H   0  0  0  0  0  0  0  0  0  0  0  0
    1.0856    2.1382    0.4917 H   0  0  0  0  0  0  0  0  0  0  0  0
   -0.6307    2.5187   -0.0669 H   0  0  0  0  0  0  0  0  0  0  0  0
    0.6521    2.0767   -1.2296 H   0  0  0  0  0  0  0  0  0  0  0  0
    0.7033   -1.5684    0.3850 H   0  0  0  0  0  0  0  0  0  0  0  0
    2.5683    0.8916    1.1335 H   0  0  0  0  0  0  0  0  0  0  0  0
  1  2  1  0
  2  3  1  0
  3  4  1  0
  3  5  1  0
  5  6  1  0
  6  7  1  0
  7  8  2  0
  6  3  1  0
  1  9  1  0
  1 10  1  0
  1 11  1  0
  2 12  1  0
  2 13  1  0
  4 14  1  0
  4 15  1  0
  4 16  1  0
  6 17  1  0
  7 18  1  0
M  END
