
     RDKit          3D

 21 21  0  0  0  0  0  0  0  0999 V2000
   -1.8543   -1.4026    0.3170 C   0  0  0  0  0  0  0  0  0  0  0  0
   -1.5558   -0.0181   -0.1482 C   0  0  0  0  0  0  0  0  0  0  0  0
   -0.1038    0.3498   -0.1025 C   0  0  0  0  0  0  0  0  0  0  0  0
    0.0032    1.7881   -0.6108 C   0  0  0  0  0  0  0  0  0  0  0  0
    0.4973    0.2938    1.2214 C   0  0  0  0  0  0  0  0  0  0  0  0
    1.7311   -0.1511    1.1355 C   0  0  0  0  0  0  0  0  0  0  0  0
    2.0849   -0.4452   -0.2925 C   0  0  0  0  0  0  0  0  0  0  0  0
    0.7479   -0.5166   -0.9382 C   0  0  0  0  0  0  0  0  0  0  0  0
    0.4264   -1.1275   -1.9056 O   0  0  0  0  0  0  0  0  0  0  0  0
   -2.9085   -1.6383   -0.0138 H   0  0  0  0  0  0  0  0  0  0  0  0
   -1.8680   -1.4915    1.4182 H   0  0  0  0  0  0  0  0  0  0  0  0
   -1.1833   -2.1196   -0.1839 H   0  0  0  0  0  0  0  0  0  0  0  0
   -1.8766    0.0589   -1.2214 H   0  0  0  0  0  0  0  0  0  0  0  0
   -2.1331    0.7109    0.4239 H   0  0  0  0  0  0  0  0  0  0  0  0
   -0.9845    2.1985   -0.8982 H   0  0  0  0  0  0  0  0  0  0  0  0
    0.4509    2.4477    0.1593 H   0  0  0  0  0  0  0  0  0  0  0  0
    0.6708    1.8141   -1.5114 H   0  0  0  0  0  0  0  0  0  0  0  0
    0.0684    0.5608    2.2053 H   0  0  0  0  0  0  0  0  0  0  0  0
    2.4631   -0.3126    1.9471 H   0  0  0  0  0  0  0  0  0  0  0  0
    2.6974    0.3893   -0.6957 H   0  0  0  0  0  0  0  0  0  0  0  0
    2.6265   -1.3888   -0.3053 H   0  0  0  0  0  0  0  0  0  0  0  0
  1  2  1  0
  2  3  1  0
  3  4  1  0
  3  5  1  0
  5  6  2  0
  6  7  1  0
  7  8  1  0
  8  9  2  0
  8  3  1  0
  1 10  1  0
  1 11  1  0
  1 12  1  0
  2 13  1  0
  2 14  1  0
  4 15  1  0
  4 16  1  0
  4 17  1  0
  5 18  1  0
  6 19  1  0
  7 20  1  0
  7 21  1  0
M  END
