
     RDKit          3D

 19 20  0  0  0  0  0  0  0  0999 V2000
   -2.2007   -0.4819   -0.2248 C   0  0  0  0  0  0  0  0  0  0  0  0
   -0.6972   -0.6885   -0.4593 C   0  0  0  0  0  0  0  0  0  0  0  0
   -0.0180    0.0492    0.7195 C   0  0  0  0  0  0  0  0  0  0  0  0
   -0.3646    1.4182    0.7022 C   0  0  0  0  0  0  0  0  0  0  0  0
    0.9714    1.1985    0.3504 C   0  0  0  0  0  0  0  0  0  0  0  0
    1.8323    0.4084   -0.4557 C   0  0  0  0  0  0  0  0  0  0  0  0
    1.9299   -0.8136    0.0656 C   0  0  0  0  0  0  0  0  0  0  0  0
    1.0609   -0.7603    1.2480 C   0  0  0  0  0  0  0  0  0  0  0  0
    1.2497   -1.2736    2.3356 O   0  0  0  0  0  0  0  0  0  0  0  0
   -2.3927    0.3987    0.4165 H   0  0  0  0  0  0  0  0  0  0  0  0
   -2.7106   -0.4065   -1.1971 H   0  0  0  0  0  0  0  0  0  0  0  0
   -2.6160   -1.3632    0.3240 H   0  0  0  0  0  0  0  0  0  0  0  0
   -0.5350   -1.7576   -0.4536 H   0  0  0  0  0  0  0  0  0  0  0  0
   -0.3549   -0.1952   -1.3774 H   0  0  0  0  0  0  0  0  0  0  0  0
   -1.0394    1.8505   -0.0538 H   0  0  0  0  0  0  0  0  0  0  0  0
   -0.6747    1.8317    1.7111 H   0  0  0  0  0  0  0  0  0  0  0  0
    1.6501    1.5681    1.2295 H   0  0  0  0  0  0  0  0  0  0  0  0
    2.3613    0.6850   -1.3659 H   0  0  0  0  0  0  0  0  0  0  0  0
    2.5483   -1.6681   -0.2928 H   0  0  0  0  0  0  0  0  0  0  0  0
  1  2  1  0
  2  3  1  0
  3  4  1  0
  4  5  1  0
  5  6  1  0
  6  7  2  0
  7  8  1  0
  8  9  2  0
  5  3  1  0
  8  3  1  0
  1 10  1  0
  1 11  1  0
  1 12  1  0
  2 13  1  0
  2 14  1  0
  4 15  1  0
  4 16  1  0
  5 17  1  0
  6 18  1  0
  7 19  1  0
M  END
