
     RDKit          3D

 18 19  0  0  0  0  0  0  0  0999 V2000
   -2.5097    0.5554   -0.1344 C   0  0  0  0  0  0  0  0  0  0  0  0
   -1.4745   -0.5204   -0.4497 C   0  0  0  0  0  0  0  0  0  0  0  0
   -0.6462   -0.7375    0.7690 C   0  0  0  0  0  0  0  0  0  0  0  0
    0.3850   -1.6731    0.7585 O   0  0  0  0  0  0  0  0  0  0  0  0
    0.7503   -0.2860    0.7713 C   0  0  0  0  0  0  0  0  0  0  0  0
    1.5179    0.0662   -0.4812 C   0  0  0  0  0  0  0  0  0  0  0  0
    2.8824    0.6343   -0.2605 C   0  0  0  0  0  0  0  0  0  0  0  0
    2.7497   -0.7232   -0.6131 O   0  0  0  0  0  0  0  0  0  0  0  0
   -2.3399    0.9910    0.8862 H   0  0  0  0  0  0  0  0  0  0  0  0
   -3.5279    0.1388   -0.1400 H   0  0  0  0  0  0  0  0  0  0  0  0
   -2.3685    1.3805   -0.8494 H   0  0  0  0  0  0  0  0  0  0  0  0
   -0.9062   -0.2670   -1.3519 H   0  0  0  0  0  0  0  0  0  0  0  0
   -1.9955   -1.4842   -0.7047 H   0  0  0  0  0  0  0  0  0  0  0  0
   -1.2053   -0.5774    1.7160 H   0  0  0  0  0  0  0  0  0  0  0  0
    1.1911    0.0638    1.7542 H   0  0  0  0  0  0  0  0  0  0  0  0
    1.0149    0.2428   -1.4380 H   0  0  0  0  0  0  0  0  0  0  0  0
    3.1723    0.8689    0.7821 H   0  0  0  0  0  0  0  0  0  0  0  0
    3.3101    1.3273   -1.0145 H   0  0  0  0  0  0  0  0  0  0  0  0
  1  2  1  0
  2  3  1  0
  3  4  1  0
  4  5  1  0
  5  6  1  0
  6  7  1  0
  7  8  1  0
  5  3  1  0
  8  6  1  0
  1  9  1  0
  1 10  1  0
  1 11  1  0
  2 12  1  0
  2 13  1  0
  3 14  1  0
  5 15  1  0
  6 16  1  0
  7 17  1  0
  7 18  1  0
M  END
