
     RDKit          3D

 21 23  0  0  0  0  0  0  0  0999 V2000
    2.4047    0.1701    0.4697 C   0  0  0  0  0  0  0  0  0  0  0  0
    1.0814   -0.5319    0.7138 C   0  0  0  0  0  0  0  0  0  0  0  0
    0.0903   -0.1185   -0.3343 C   0  0  0  0  0  0  0  0  0  0  0  0
    0.4910   -0.4381   -1.7423 C   0  0  0  0  0  0  0  0  0  0  0  0
   -0.6565   -1.1144   -1.1400 C   0  0  0  0  0  0  0  0  0  0  0  0
   -1.8400   -0.3412   -1.0712 O   0  0  0  0  0  0  0  0  0  0  0  0
   -1.2829    0.2926    0.0006 C   0  0  0  0  0  0  0  0  0  0  0  0
   -1.9183    0.1549    1.3071 C   0  0  0  0  0  0  0  0  0  0  0  0
   -1.7057    1.5161    0.6156 C   0  0  0  0  0  0  0  0  0  0  0  0
    2.5276    1.0719    1.1033 H   0  0  0  0  0  0  0  0  0  0  0  0
    3.2467   -0.5383    0.6066 H   0  0  0  0  0  0  0  0  0  0  0  0
    2.4680    0.4955   -0.6032 H   0  0  0  0  0  0  0  0  0  0  0  0
    1.2415   -1.6061    0.7930 H   0  0  0  0  0  0  0  0  0  0  0  0
    0.7042   -0.1678    1.7008 H   0  0  0  0  0  0  0  0  0  0  0  0
    0.3504    0.3580   -2.4945 H   0  0  0  0  0  0  0  0  0  0  0  0
    1.3994   -1.0440   -1.9067 H   0  0  0  0  0  0  0  0  0  0  0  0
   -0.7078   -2.1702   -0.8837 H   0  0  0  0  0  0  0  0  0  0  0  0
   -1.3377   -0.0373    2.2360 H   0  0  0  0  0  0  0  0  0  0  0  0
   -2.9927   -0.1723    1.3143 H   0  0  0  0  0  0  0  0  0  0  0  0
   -2.6119    2.0670    0.2966 H   0  0  0  0  0  0  0  0  0  0  0  0
   -0.9517    2.1541    1.1250 H   0  0  0  0  0  0  0  0  0  0  0  0
  1  2  1  0
  2  3  1  0
  3  4  1  0
  4  5  1  0
  5  6  1  0
  6  7  1  0
  7  8  1  0
  8  9  1  0
  5  3  1  0
  9  7  1  0
  7  3  1  0
  1 10  1  0
  1 11  1  0
  1 12  1  0
  2 13  1  0
  2 14  1  0
  4 15  1  0
  4 16  1  0
  5 17  1  0
  8 18  1  0
  8 19  1  0
  9 20  1  0
  9 21  1  0
M  END
