
     RDKit          3D

 21 22  0  0  0  0  0  0  0  0999 V2000
    2.5089   -0.1431   -1.0817 C   0  0  0  0  0  0  0  0  0  0  0  0
    1.7201   -0.1414    0.1961 C   0  0  0  0  0  0  0  0  0  0  0  0
    0.3169   -0.6479    0.0233 C   0  0  0  0  0  0  0  0  0  0  0  0
   -0.3060   -0.5903    1.2988 O   0  0  0  0  0  0  0  0  0  0  0  0
   -1.3546    0.2633    1.0899 C   0  0  0  0  0  0  0  0  0  0  0  0
   -0.8198    1.3946    0.1945 C   0  0  0  0  0  0  0  0  0  0  0  0
   -0.5892    0.2189   -0.7535 C   0  0  0  0  0  0  0  0  0  0  0  0
   -1.9553   -0.2427   -0.2326 C   0  0  0  0  0  0  0  0  0  0  0  0
   -2.1710   -1.5917   -0.2851 O   0  0  0  0  0  0  0  0  0  0  0  0
    3.2985   -0.9340   -1.0986 H   0  0  0  0  0  0  0  0  0  0  0  0
    3.0553    0.8167   -1.2215 H   0  0  0  0  0  0  0  0  0  0  0  0
    1.8720   -0.2658   -1.9814 H   0  0  0  0  0  0  0  0  0  0  0  0
    1.7726    0.8591    0.6456 H   0  0  0  0  0  0  0  0  0  0  0  0
    2.2709   -0.8159    0.9066 H   0  0  0  0  0  0  0  0  0  0  0  0
    0.2895   -1.7040   -0.3125 H   0  0  0  0  0  0  0  0  0  0  0  0
   -2.0290    0.5299    1.8608 H   0  0  0  0  0  0  0  0  0  0  0  0
   -1.6663    1.9930   -0.1958 H   0  0  0  0  0  0  0  0  0  0  0  0
    0.0452    1.9209    0.5594 H   0  0  0  0  0  0  0  0  0  0  0  0
   -0.4816    0.4069   -1.7802 H   0  0  0  0  0  0  0  0  0  0  0  0
   -2.7487    0.4250   -0.5740 H   0  0  0  0  0  0  0  0  0  0  0  0
   -3.0286   -1.7513   -0.7832 H   0  0  0  0  0  0  0  0  0  0  0  0
  1  2  1  0
  2  3  1  0
  3  4  1  0
  4  5  1  0
  5  6  1  0
  6  7  1  0
  7  8  1  0
  8  9  1  0
  7  3  1  0
  8  5  1  0
  1 10  1  0
  1 11  1  0
  1 12  1  0
  2 13  1  0
  2 14  1  0
  3 15  1  0
  5 16  1  0
  6 17  1  0
  6 18  1  0
  7 19  1  0
  8 20  1  0
  9 21  1  0
M  END
