
     RDKit          3D

 23 24  0  0  0  0  0  0  0  0999 V2000
    2.1084   -0.6357    1.0056 C   0  0  0  0  0  0  0  0  0  0  0  0
    1.5216    0.1690   -0.0976 C   0  0  0  0  0  0  0  0  0  0  0  0
    0.0805   -0.0174   -0.3632 C   0  0  0  0  0  0  0  0  0  0  0  0
   -0.3475   -1.4039   -0.7379 C   0  0  0  0  0  0  0  0  0  0  0  0
   -1.5131   -1.2954    0.2443 C   0  0  0  0  0  0  0  0  0  0  0  0
   -0.9147    0.0319    0.6961 C   0  0  0  0  0  0  0  0  0  0  0  0
   -1.5667    1.2229    0.0637 C   0  0  0  0  0  0  0  0  0  0  0  0
   -0.5880    1.1044   -1.0856 C   0  0  0  0  0  0  0  0  0  0  0  0
    0.2556    2.2351   -1.1307 O   0  0  0  0  0  0  0  0  0  0  0  0
    1.4741   -0.7527    1.8934 H   0  0  0  0  0  0  0  0  0  0  0  0
    3.0592   -0.1768    1.3492 H   0  0  0  0  0  0  0  0  0  0  0  0
    2.3685   -1.6380    0.6092 H   0  0  0  0  0  0  0  0  0  0  0  0
    2.0857   -0.0407   -1.0315 H   0  0  0  0  0  0  0  0  0  0  0  0
    1.7012    1.2461    0.1241 H   0  0  0  0  0  0  0  0  0  0  0  0
   -0.6325   -1.5576   -1.7794 H   0  0  0  0  0  0  0  0  0  0  0  0
    0.4172   -2.1468   -0.3801 H   0  0  0  0  0  0  0  0  0  0  0  0
   -2.4914   -1.1428   -0.2224 H   0  0  0  0  0  0  0  0  0  0  0  0
   -1.5002   -2.0741    1.0342 H   0  0  0  0  0  0  0  0  0  0  0  0
   -0.6498    0.0951    1.7381 H   0  0  0  0  0  0  0  0  0  0  0  0
   -1.4667    2.1340    0.6809 H   0  0  0  0  0  0  0  0  0  0  0  0
   -2.5947    1.0620   -0.3088 H   0  0  0  0  0  0  0  0  0  0  0  0
   -1.0351    0.8728   -2.0629 H   0  0  0  0  0  0  0  0  0  0  0  0
    0.2285    2.7085   -0.2387 H   0  0  0  0  0  0  0  0  0  0  0  0
  1  2  1  0
  2  3  1  0
  3  4  1  0
  4  5  1  0
  5  6  1  0
  6  7  1  0
  7  8  1  0
  8  9  1  0
  6  3  1  0
  8  3  1  0
  1 10  1  0
  1 11  1  0
  1 12  1  0
  2 13  1  0
  2 14  1  0
  4 15  1  0
  4 16  1  0
  5 17  1  0
  5 18  1  0
  6 19  1  0
  7 20  1  0
  7 21  1  0
  8 22  1  0
  9 23  1  0
M  END
