
     RDKit          3D

 23 23  0  0  0  0  0  0  0  0999 V2000
    1.6302    1.4157    0.0232 C   0  0  0  0  0  0  0  0  0  0  0  0
    1.1816    0.0825   -0.4444 C   0  0  0  0  0  0  0  0  0  0  0  0
   -0.1891   -0.3527    0.0133 C   0  0  0  0  0  0  0  0  0  0  0  0
   -1.3624    0.4653   -0.3741 C   0  0  0  0  0  0  0  0  0  0  0  0
   -1.4095    1.8768    0.0784 C   0  0  0  0  0  0  0  0  0  0  0  0
   -0.2180   -1.2688    1.1813 C   0  0  0  0  0  0  0  0  0  0  0  0
    1.0029   -1.5875    1.7727 O   0  0  0  0  0  0  0  0  0  0  0  0
   -0.4800   -1.8825   -0.1273 C   0  0  0  0  0  0  0  0  0  0  0  0
    0.5047   -2.5972   -0.8040 O   0  0  0  0  0  0  0  0  0  0  0  0
    1.5465    2.2133   -0.7738 H   0  0  0  0  0  0  0  0  0  0  0  0
    2.7291    1.4382    0.2729 H   0  0  0  0  0  0  0  0  0  0  0  0
    1.0329    1.7927    0.8762 H   0  0  0  0  0  0  0  0  0  0  0  0
    1.9404   -0.7293   -0.2235 H   0  0  0  0  0  0  0  0  0  0  0  0
    1.2044    0.1171   -1.5773 H   0  0  0  0  0  0  0  0  0  0  0  0
   -2.3420   -0.0172   -0.0723 H   0  0  0  0  0  0  0  0  0  0  0  0
   -1.4382    0.4841   -1.4959 H   0  0  0  0  0  0  0  0  0  0  0  0
   -0.7689    2.5668   -0.4762 H   0  0  0  0  0  0  0  0  0  0  0  0
   -1.3024    1.9581    1.1952 H   0  0  0  0  0  0  0  0  0  0  0  0
   -2.4863    2.2150   -0.0921 H   0  0  0  0  0  0  0  0  0  0  0  0
   -1.0450   -1.2076    1.9378 H   0  0  0  0  0  0  0  0  0  0  0  0
    1.5288   -2.2236    1.2200 H   0  0  0  0  0  0  0  0  0  0  0  0
   -1.4982   -2.2003   -0.3349 H   0  0  0  0  0  0  0  0  0  0  0  0
    0.2385   -2.5588   -1.7752 H   0  0  0  0  0  0  0  0  0  0  0  0
  1  2  1  0
  2  3  1  0
  3  4  1  0
  4  5  1  0
  3  6  1  0
  6  7  1  0
  6  8  1  0
  8  9  1  0
  8  3  1  0
  1 10  1  0
  1 11  1  0
  1 12  1  0
  2 13  1  0
  2 14  1  0
  4 15  1  0
  4 16  1  0
  5 17  1  0
  5 18  1  0
  5 19  1  0
  6 20  1  0
  7 21  1  0
  8 22  1  0
  9 23  1  0
M  END
