
     RDKit          3D

 21 22  0  0  0  0  0  0  0  0999 V2000
    2.6710    0.2803   -0.3294 C   0  0  0  0  0  0  0  0  0  0  0  0
    1.2497    0.8478   -0.3336 C   0  0  0  0  0  0  0  0  0  0  0  0
    0.4088    0.0093    0.6018 C   0  0  0  0  0  0  0  0  0  0  0  0
    0.3210   -1.4147    0.2407 C   0  0  0  0  0  0  0  0  0  0  0  0
    1.0853   -2.3440    0.0032 O   0  0  0  0  0  0  0  0  0  0  0  0
   -1.1770   -1.3777    0.2533 C   0  0  0  0  0  0  0  0  0  0  0  0
   -1.8743   -0.7023    1.3728 C   0  0  0  0  0  0  0  0  0  0  0  0
   -1.0684    0.1263    0.4463 C   0  0  0  0  0  0  0  0  0  0  0  0
   -1.6886    0.9811   -0.6047 C   0  0  0  0  0  0  0  0  0  0  0  0
    3.3863    0.9856    0.1531 H   0  0  0  0  0  0  0  0  0  0  0  0
    2.9593    0.0498   -1.3710 H   0  0  0  0  0  0  0  0  0  0  0  0
    2.7114   -0.6546    0.2653 H   0  0  0  0  0  0  0  0  0  0  0  0
    0.7897    0.7309   -1.3423 H   0  0  0  0  0  0  0  0  0  0  0  0
    1.3285    1.8925   -0.0041 H   0  0  0  0  0  0  0  0  0  0  0  0
    0.7133    0.1215    1.6723 H   0  0  0  0  0  0  0  0  0  0  0  0
   -1.7415   -1.7730   -0.5889 H   0  0  0  0  0  0  0  0  0  0  0  0
   -2.9640   -0.6257    1.2817 H   0  0  0  0  0  0  0  0  0  0  0  0
   -1.5022   -0.8092    2.4124 H   0  0  0  0  0  0  0  0  0  0  0  0
   -0.9613    1.7161   -0.9884 H   0  0  0  0  0  0  0  0  0  0  0  0
   -2.1436    0.3846   -1.4486 H   0  0  0  0  0  0  0  0  0  0  0  0
   -2.5034    1.5757   -0.1143 H   0  0  0  0  0  0  0  0  0  0  0  0
  1  2  1  0
  2  3  1  0
  3  4  1  0
  4  5  2  0
  4  6  1  0
  6  7  1  0
  7  8  1  0
  8  9  1  0
  8  3  1  0
  8  6  1  0
  1 10  1  0
  1 11  1  0
  1 12  1  0
  2 13  1  0
  2 14  1  0
  3 15  1  0
  6 16  1  0
  7 17  1  0
  7 18  1  0
  9 19  1  0
  9 20  1  0
  9 21  1  0
M  END
