
     RDKit          3D

 21 22  0  0  0  0  0  0  0  0999 V2000
    2.2615    0.4841   -0.6032 C   0  0  0  0  0  0  0  0  0  0  0  0
    2.0499   -0.7097    0.2884 C   0  0  0  0  0  0  0  0  0  0  0  0
    0.6076   -1.0954    0.4247 C   0  0  0  0  0  0  0  0  0  0  0  0
    0.0366   -1.4262   -0.8457 O   0  0  0  0  0  0  0  0  0  0  0  0
   -0.4634   -0.3613    0.1022 C   0  0  0  0  0  0  0  0  0  0  0  0
   -1.8963   -0.6324    0.3847 C   0  0  0  0  0  0  0  0  0  0  0  0
   -2.2283    0.2327   -0.8404 C   0  0  0  0  0  0  0  0  0  0  0  0
   -0.8167    0.8179   -0.6725 C   0  0  0  0  0  0  0  0  0  0  0  0
   -0.9389    2.0034    0.0575 O   0  0  0  0  0  0  0  0  0  0  0  0
    1.7103    1.3286   -0.2022 H   0  0  0  0  0  0  0  0  0  0  0  0
    1.8876    0.1871   -1.6200 H   0  0  0  0  0  0  0  0  0  0  0  0
    3.3535    0.7088   -0.6385 H   0  0  0  0  0  0  0  0  0  0  0  0
    2.6673   -1.5564   -0.1323 H   0  0  0  0  0  0  0  0  0  0  0  0
    2.5248   -0.4756    1.2637 H   0  0  0  0  0  0  0  0  0  0  0  0
    0.4983   -1.9974    1.1048 H   0  0  0  0  0  0  0  0  0  0  0  0
   -2.2368   -1.6671    0.3202 H   0  0  0  0  0  0  0  0  0  0  0  0
   -2.2001   -0.1330    1.3462 H   0  0  0  0  0  0  0  0  0  0  0  0
   -3.0407    0.9334   -0.6617 H   0  0  0  0  0  0  0  0  0  0  0  0
   -2.3219   -0.4198   -1.7335 H   0  0  0  0  0  0  0  0  0  0  0  0
   -0.3616    1.0169   -1.6484 H   0  0  0  0  0  0  0  0  0  0  0  0
   -1.0924    2.7613   -0.5804 H   0  0  0  0  0  0  0  0  0  0  0  0
  1  2  1  0
  2  3  1  0
  3  4  1  0
  4  5  1  0
  5  6  1  0
  6  7  1  0
  7  8  1  0
  8  9  1  0
  5  3  1  0
  8  5  1  0
  1 10  1  0
  1 11  1  0
  1 12  1  0
  2 13  1  0
  2 14  1  0
  3 15  1  0
  6 16  1  0
  6 17  1  0
  7 18  1  0
  7 19  1  0
  8 20  1  0
  9 21  1  0
M  END
