
     RDKit          3D

 21 21  0  0  0  0  0  0  0  0999 V2000
    2.5340    0.8739    0.0160 C   0  0  0  0  0  0  0  0  0  0  0  0
    1.7151   -0.3661   -0.2982 C   0  0  0  0  0  0  0  0  0  0  0  0
    0.3795   -0.3119    0.4667 C   0  0  0  0  0  0  0  0  0  0  0  0
   -0.3381    0.8927    0.0335 C   0  0  0  0  0  0  0  0  0  0  0  0
   -1.8037    0.7631   -0.2048 C   0  0  0  0  0  0  0  0  0  0  0  0
   -2.2814   -0.5540    0.2528 C   0  0  0  0  0  0  0  0  0  0  0  0
   -3.3033   -0.6947    0.8665 O   0  0  0  0  0  0  0  0  0  0  0  0
   -1.4221   -1.7032   -0.0903 C   0  0  0  0  0  0  0  0  0  0  0  0
   -0.1869   -1.5145    0.3923 O   0  0  0  0  0  0  0  0  0  0  0  0
    2.0394    1.4090    0.8796 H   0  0  0  0  0  0  0  0  0  0  0  0
    3.5187    0.5614    0.3914 H   0  0  0  0  0  0  0  0  0  0  0  0
    2.5611    1.5749   -0.8182 H   0  0  0  0  0  0  0  0  0  0  0  0
    1.5114   -0.4003   -1.4083 H   0  0  0  0  0  0  0  0  0  0  0  0
    2.2764   -1.2789   -0.0664 H   0  0  0  0  0  0  0  0  0  0  0  0
    0.6938   -0.1519    1.5451 H   0  0  0  0  0  0  0  0  0  0  0  0
    0.1084    1.3317   -0.9070 H   0  0  0  0  0  0  0  0  0  0  0  0
   -0.2259    1.7452    0.7718 H   0  0  0  0  0  0  0  0  0  0  0  0
   -2.4091    1.5821    0.2645 H   0  0  0  0  0  0  0  0  0  0  0  0
   -2.0176    0.7891   -1.3126 H   0  0  0  0  0  0  0  0  0  0  0  0
   -1.4998   -1.9188   -1.1749 H   0  0  0  0  0  0  0  0  0  0  0  0
   -1.8499   -2.6288    0.4006 H   0  0  0  0  0  0  0  0  0  0  0  0
  1  2  1  0
  2  3  1  0
  3  4  1  0
  4  5  1  0
  5  6  1  0
  6  7  2  0
  6  8  1  0
  8  9  1  0
  9  3  1  0
  1 10  1  0
  1 11  1  0
  1 12  1  0
  2 13  1  0
  2 14  1  0
  3 15  1  0
  4 16  1  0
  4 17  1  0
  5 18  1  0
  5 19  1  0
  8 20  1  0
  8 21  1  0
M  END
