
     RDKit          3D

 21 22  0  0  0  0  0  0  0  0999 V2000
    2.6947   -0.0093   -0.5831 C   0  0  0  0  0  0  0  0  0  0  0  0
    1.2708    0.2512   -1.0488 C   0  0  0  0  0  0  0  0  0  0  0  0
    0.3056    0.3608    0.0972 C   0  0  0  0  0  0  0  0  0  0  0  0
    0.6121    1.3968    0.9861 O   0  0  0  0  0  0  0  0  0  0  0  0
   -0.2912   -0.9039    0.5745 C   0  0  0  0  0  0  0  0  0  0  0  0
   -1.2679   -0.9138    1.5601 O   0  0  0  0  0  0  0  0  0  0  0  0
   -1.9924    0.1978    1.1121 C   0  0  0  0  0  0  0  0  0  0  0  0
   -1.1416    0.1704   -0.1382 C   0  0  0  0  0  0  0  0  0  0  0  0
   -1.7071   -0.2560   -1.4401 C   0  0  0  0  0  0  0  0  0  0  0  0
    3.4014    0.7104   -1.0831 H   0  0  0  0  0  0  0  0  0  0  0  0
    2.7058    0.1634    0.5222 H   0  0  0  0  0  0  0  0  0  0  0  0
    3.0247   -1.0432   -0.8185 H   0  0  0  0  0  0  0  0  0  0  0  0
    1.0029   -0.5747   -1.7475 H   0  0  0  0  0  0  0  0  0  0  0  0
    1.2292    1.2141   -1.6083 H   0  0  0  0  0  0  0  0  0  0  0  0
    0.7502    1.0876    1.8978 H   0  0  0  0  0  0  0  0  0  0  0  0
   -0.0624   -1.8236    0.0220 H   0  0  0  0  0  0  0  0  0  0  0  0
   -3.0581    0.0450    0.9546 H   0  0  0  0  0  0  0  0  0  0  0  0
   -1.7553    1.0749    1.7795 H   0  0  0  0  0  0  0  0  0  0  0  0
   -1.5083    0.4495   -2.2837 H   0  0  0  0  0  0  0  0  0  0  0  0
   -1.3881   -1.2734   -1.7674 H   0  0  0  0  0  0  0  0  0  0  0  0
   -2.8249   -0.3240   -1.3197 H   0  0  0  0  0  0  0  0  0  0  0  0
  1  2  1  0
  2  3  1  0
  3  4  1  0
  3  5  1  0
  5  6  1  0
  6  7  1  0
  7  8  1  0
  8  9  1  0
  8  3  1  0
  8  5  1  0
  1 10  1  0
  1 11  1  0
  1 12  1  0
  2 13  1  0
  2 14  1  0
  4 15  1  0
  5 16  1  0
  7 17  1  0
  7 18  1  0
  9 19  1  0
  9 20  1  0
  9 21  1  0
M  END
