
     RDKit          3D

 19 19  0  0  0  0  0  0  0  0999 V2000
   -2.4560    0.9016    0.5308 C   0  0  0  0  0  0  0  0  0  0  0  0
   -1.7496   -0.2935   -0.0594 C   0  0  0  0  0  0  0  0  0  0  0  0
   -0.4549    0.1383   -0.7096 C   0  0  0  0  0  0  0  0  0  0  0  0
    0.3091   -1.0237   -1.3264 C   0  0  0  0  0  0  0  0  0  0  0  0
    0.8164   -0.2638   -0.0796 C   0  0  0  0  0  0  0  0  0  0  0  0
    2.0033    0.3761   -0.2786 O   0  0  0  0  0  0  0  0  0  0  0  0
    2.9133    0.2558    0.7552 C   0  0  0  0  0  0  0  0  0  0  0  0
   -3.3389    0.5831    1.0987 H   0  0  0  0  0  0  0  0  0  0  0  0
   -2.7667    1.5891   -0.2890 H   0  0  0  0  0  0  0  0  0  0  0  0
   -1.7433    1.3964    1.2415 H   0  0  0  0  0  0  0  0  0  0  0  0
   -1.6046   -1.0631    0.7042 H   0  0  0  0  0  0  0  0  0  0  0  0
   -2.4654   -0.7300   -0.8153 H   0  0  0  0  0  0  0  0  0  0  0  0
   -0.4903    1.0860   -1.2717 H   0  0  0  0  0  0  0  0  0  0  0  0
   -0.0388   -2.0520   -1.1607 H   0  0  0  0  0  0  0  0  0  0  0  0
    0.7903   -0.7934   -2.2898 H   0  0  0  0  0  0  0  0  0  0  0  0
    0.7330   -0.8037    0.8954 H   0  0  0  0  0  0  0  0  0  0  0  0
    3.8263    0.8205    0.4613 H   0  0  0  0  0  0  0  0  0  0  0  0
    2.5037    0.6734    1.6929 H   0  0  0  0  0  0  0  0  0  0  0  0
    3.2130   -0.7970    0.9002 H   0  0  0  0  0  0  0  0  0  0  0  0
  1  2  1  0
  2  3  1  0
  3  4  1  0
  4  5  1  0
  5  6  1  0
  6  7  1  0
  5  3  1  0
  1  8  1  0
  1  9  1  0
  1 10  1  0
  2 11  1  0
  2 12  1  0
  3 13  1  0
  4 14  1  0
  4 15  1  0
  5 16  1  0
  7 17  1  0
  7 18  1  0
  7 19  1  0
M  END
