
     RDKit          3D

 22 22  0  0  0  0  0  0  0  0999 V2000
    2.4187    0.2841   -0.7587 C   0  0  0  0  0  0  0  0  0  0  0  0
    1.0215    0.8952   -0.5994 C   0  0  0  0  0  0  0  0  0  0  0  0
    0.3600    0.1599    0.5319 C   0  0  0  0  0  0  0  0  0  0  0  0
    0.2073   -1.3298    0.3214 C   0  0  0  0  0  0  0  0  0  0  0  0
   -1.1058   -1.2128    1.0689 C   0  0  0  0  0  0  0  0  0  0  0  0
   -1.1510    0.2166    0.5666 C   0  0  0  0  0  0  0  0  0  0  0  0
   -1.7822    0.2989   -0.7964 C   0  0  0  0  0  0  0  0  0  0  0  0
   -1.6800    1.0768    1.5155 O   0  0  0  0  0  0  0  0  0  0  0  0
    3.2037    0.9397   -0.3456 H   0  0  0  0  0  0  0  0  0  0  0  0
    2.5883    0.0451   -1.8397 H   0  0  0  0  0  0  0  0  0  0  0  0
    2.5011   -0.6817   -0.2169 H   0  0  0  0  0  0  0  0  0  0  0  0
    0.4640    0.8533   -1.5329 H   0  0  0  0  0  0  0  0  0  0  0  0
    1.1973    1.9642   -0.3650 H   0  0  0  0  0  0  0  0  0  0  0  0
    0.7844    0.3812    1.5182 H   0  0  0  0  0  0  0  0  0  0  0  0
    0.9928   -1.8979    0.8563 H   0  0  0  0  0  0  0  0  0  0  0  0
    0.0501   -1.6410   -0.7262 H   0  0  0  0  0  0  0  0  0  0  0  0
   -1.9108   -1.8724    0.6993 H   0  0  0  0  0  0  0  0  0  0  0  0
   -0.8950   -1.3086    2.1639 H   0  0  0  0  0  0  0  0  0  0  0  0
   -2.8006   -0.1820   -0.7188 H   0  0  0  0  0  0  0  0  0  0  0  0
   -1.2236   -0.2859   -1.5499 H   0  0  0  0  0  0  0  0  0  0  0  0
   -1.9481    1.3196   -1.1463 H   0  0  0  0  0  0  0  0  0  0  0  0
   -1.2923    1.9775    1.3537 H   0  0  0  0  0  0  0  0  0  0  0  0
  1  2  1  0
  2  3  1  0
  3  4  1  0
  4  5  1  0
  5  6  1  0
  6  7  1  0
  6  8  1  0
  6  3  1  0
  1  9  1  0
  1 10  1  0
  1 11  1  0
  2 12  1  0
  2 13  1  0
  3 14  1  0
  4 15  1  0
  4 16  1  0
  5 17  1  0
  5 18  1  0
  7 19  1  0
  7 20  1  0
  7 21  1  0
  8 22  1  0
M  END
