
     RDKit          3D

 21 22  0  0  0  0  0  0  0  0999 V2000
   -2.7908    0.5000   -0.4866 C   0  0  0  0  0  0  0  0  0  0  0  0
   -1.8305   -0.2147    0.4284 C   0  0  0  0  0  0  0  0  0  0  0  0
   -0.4148    0.3528    0.2835 C   0  0  0  0  0  0  0  0  0  0  0  0
    0.6504   -0.2541    1.1272 C   0  0  0  0  0  0  0  0  0  0  0  0
    1.8367    0.6081    1.3309 C   0  0  0  0  0  0  0  0  0  0  0  0
    2.5265    0.6897    0.2118 C   0  0  0  0  0  0  0  0  0  0  0  0
    1.8965   -0.0915   -0.8475 C   0  0  0  0  0  0  0  0  0  0  0  0
    0.5732   -0.5306   -0.3434 C   0  0  0  0  0  0  0  0  0  0  0  0
    0.1317   -1.7806   -0.7821 O   0  0  0  0  0  0  0  0  0  0  0  0
   -3.1051   -0.1405   -1.3475 H   0  0  0  0  0  0  0  0  0  0  0  0
   -3.7050    0.8236    0.0139 H   0  0  0  0  0  0  0  0  0  0  0  0
   -2.2616    1.3615   -0.9334 H   0  0  0  0  0  0  0  0  0  0  0  0
   -1.8231   -1.2909    0.1795 H   0  0  0  0  0  0  0  0  0  0  0  0
   -2.1186   -0.1387    1.4991 H   0  0  0  0  0  0  0  0  0  0  0  0
   -0.4182    1.4424    0.1657 H   0  0  0  0  0  0  0  0  0  0  0  0
    0.4504   -1.1083    1.7857 H   0  0  0  0  0  0  0  0  0  0  0  0
    2.0903    1.0902    2.2522 H   0  0  0  0  0  0  0  0  0  0  0  0
    3.4584    1.2487    0.0217 H   0  0  0  0  0  0  0  0  0  0  0  0
    1.8594    0.4201   -1.8301 H   0  0  0  0  0  0  0  0  0  0  0  0
    2.5227   -1.0104   -1.0335 H   0  0  0  0  0  0  0  0  0  0  0  0
    0.4714   -1.9768   -1.6953 H   0  0  0  0  0  0  0  0  0  0  0  0
  1  2  1  0
  2  3  1  0
  3  4  1  0
  4  5  1  0
  5  6  2  0
  6  7  1  0
  7  8  1  0
  8  9  1  0
  8  3  1  0
  8  4  1  0
  1 10  1  0
  1 11  1  0
  1 12  1  0
  2 13  1  0
  2 14  1  0
  3 15  1  0
  4 16  1  0
  5 17  1  0
  6 18  1  0
  7 19  1  0
  7 20  1  0
  9 21  1  0
M  END
