
     RDKit          3D

 21 21  0  0  0  0  0  0  0  0999 V2000
   -2.9354   -0.1224    0.1850 C   0  0  0  0  0  0  0  0  0  0  0  0
   -1.7931    0.5581   -0.5533 C   0  0  0  0  0  0  0  0  0  0  0  0
   -0.6924   -0.4453   -0.7049 C   0  0  0  0  0  0  0  0  0  0  0  0
   -0.2530   -0.8901    0.6358 C   0  0  0  0  0  0  0  0  0  0  0  0
    0.9421   -0.3713    0.8793 C   0  0  0  0  0  0  0  0  0  0  0  0
    1.3132    0.4332   -0.3113 C   0  0  0  0  0  0  0  0  0  0  0  0
    2.7599    0.1625   -0.6617 C   0  0  0  0  0  0  0  0  0  0  0  0
    3.5577    0.5534    0.3999 O   0  0  0  0  0  0  0  0  0  0  0  0
    0.4435    0.0757   -1.3091 O   0  0  0  0  0  0  0  0  0  0  0  0
   -3.0806    0.3666    1.1777 H   0  0  0  0  0  0  0  0  0  0  0  0
   -2.7059   -1.1897    0.4120 H   0  0  0  0  0  0  0  0  0  0  0  0
   -3.8534   -0.1257   -0.4191 H   0  0  0  0  0  0  0  0  0  0  0  0
   -1.3865    1.4233    0.0241 H   0  0  0  0  0  0  0  0  0  0  0  0
   -2.1517    0.9500   -1.5264 H   0  0  0  0  0  0  0  0  0  0  0  0
   -1.0031   -1.3226   -1.3064 H   0  0  0  0  0  0  0  0  0  0  0  0
   -0.7758   -1.5325    1.3465 H   0  0  0  0  0  0  0  0  0  0  0  0
    1.5466   -0.5120    1.7949 H   0  0  0  0  0  0  0  0  0  0  0  0
    1.1424    1.5005   -0.0671 H   0  0  0  0  0  0  0  0  0  0  0  0
    2.8662   -0.9275   -0.8172 H   0  0  0  0  0  0  0  0  0  0  0  0
    3.0237    0.6496   -1.6092 H   0  0  0  0  0  0  0  0  0  0  0  0
    3.0358    0.7660    1.2132 H   0  0  0  0  0  0  0  0  0  0  0  0
  1  2  1  0
  2  3  1  0
  3  4  1  0
  4  5  2  0
  5  6  1  0
  6  7  1  0
  7  8  1  0
  6  9  1  0
  9  3  1  0
  1 10  1  0
  1 11  1  0
  1 12  1  0
  2 13  1  0
  2 14  1  0
  3 15  1  0
  4 16  1  0
  5 17  1  0
  6 18  1  0
  7 19  1  0
  7 20  1  0
  8 21  1  0
M  END
