
     RDKit          3D

 23 24  0  0  0  0  0  0  0  0999 V2000
    2.6858    0.1047    0.3406 C   0  0  0  0  0  0  0  0  0  0  0  0
    1.4689   -0.7849    0.4888 C   0  0  0  0  0  0  0  0  0  0  0  0
    0.4818   -0.3582   -0.5767 C   0  0  0  0  0  0  0  0  0  0  0  0
   -0.7926   -1.2132   -0.5011 C   0  0  0  0  0  0  0  0  0  0  0  0
   -1.8764   -0.1914   -0.2805 C   0  0  0  0  0  0  0  0  0  0  0  0
   -1.6282    0.4329    1.0732 C   0  0  0  0  0  0  0  0  0  0  0  0
   -0.5014    1.2037    0.9344 O   0  0  0  0  0  0  0  0  0  0  0  0
   -0.0101    1.0441   -0.3597 C   0  0  0  0  0  0  0  0  0  0  0  0
   -1.3347    0.9622   -1.1444 C   0  0  0  0  0  0  0  0  0  0  0  0
    2.3518    1.1257    0.1411 H   0  0  0  0  0  0  0  0  0  0  0  0
    3.3104   -0.3242   -0.4975 H   0  0  0  0  0  0  0  0  0  0  0  0
    3.3311    0.0164    1.2412 H   0  0  0  0  0  0  0  0  0  0  0  0
    0.9787   -0.5405    1.4728 H   0  0  0  0  0  0  0  0  0  0  0  0
    1.7542   -1.8346    0.4052 H   0  0  0  0  0  0  0  0  0  0  0  0
    0.8903   -0.4334   -1.5996 H   0  0  0  0  0  0  0  0  0  0  0  0
   -0.7778   -1.8705    0.3938 H   0  0  0  0  0  0  0  0  0  0  0  0
   -0.9302   -1.7803   -1.4475 H   0  0  0  0  0  0  0  0  0  0  0  0
   -2.8744   -0.4796   -0.5027 H   0  0  0  0  0  0  0  0  0  0  0  0
   -2.5334    1.0138    1.3397 H   0  0  0  0  0  0  0  0  0  0  0  0
   -1.5151   -0.4097    1.7941 H   0  0  0  0  0  0  0  0  0  0  0  0
    0.6322    1.8331   -0.6984 H   0  0  0  0  0  0  0  0  0  0  0  0
   -1.9295    1.8663   -1.0259 H   0  0  0  0  0  0  0  0  0  0  0  0
   -1.1813    0.6178   -2.1649 H   0  0  0  0  0  0  0  0  0  0  0  0
  1  2  1  0
  2  3  1  0
  3  4  1  0
  4  5  1  0
  5  6  1  0
  6  7  1  0
  7  8  1  0
  8  9  1  0
  8  3  1  0
  9  5  1  0
  1 10  1  0
  1 11  1  0
  1 12  1  0
  2 13  1  0
  2 14  1  0
  3 15  1  0
  4 16  1  0
  4 17  1  0
  5 18  1  0
  6 19  1  0
  6 20  1  0
  8 21  1  0
  9 22  1  0
  9 23  1  0
M  END
