
     RDKit          3D

 19 20  0  0  0  0  0  0  0  0999 V2000
    2.1350    0.1557   -0.3650 C   0  0  0  0  0  0  0  0  0  0  0  0
    1.3204   -0.5167    0.6998 C   0  0  0  0  0  0  0  0  0  0  0  0
   -0.0346   -0.2617    0.5863 C   0  0  0  0  0  0  0  0  0  0  0  0
   -1.0115   -0.7723    1.4576 O   0  0  0  0  0  0  0  0  0  0  0  0
   -1.7744   -0.0260    0.5795 C   0  0  0  0  0  0  0  0  0  0  0  0
   -0.9419   -0.6226   -0.5204 C   0  0  0  0  0  0  0  0  0  0  0  0
   -1.0763   -1.9989   -0.6936 O   0  0  0  0  0  0  0  0  0  0  0  0
   -0.7256    1.0388    0.7025 C   0  0  0  0  0  0  0  0  0  0  0  0
   -0.6758    1.8812   -0.3963 O   0  0  0  0  0  0  0  0  0  0  0  0
    1.9131   -0.2091   -1.3879 H   0  0  0  0  0  0  0  0  0  0  0  0
    1.9757    1.2716   -0.2898 H   0  0  0  0  0  0  0  0  0  0  0  0
    3.2114    0.0126   -0.1207 H   0  0  0  0  0  0  0  0  0  0  0  0
    1.7385   -0.1806    1.6824 H   0  0  0  0  0  0  0  0  0  0  0  0
    1.5590   -1.6076    0.6547 H   0  0  0  0  0  0  0  0  0  0  0  0
   -2.7732    0.0992    0.5812 H   0  0  0  0  0  0  0  0  0  0  0  0
   -0.9144   -0.0170   -1.4268 H   0  0  0  0  0  0  0  0  0  0  0  0
   -1.9557   -2.3418   -0.3825 H   0  0  0  0  0  0  0  0  0  0  0  0
   -0.5982    1.5134    1.6770 H   0  0  0  0  0  0  0  0  0  0  0  0
   -1.3713    2.5818   -0.2732 H   0  0  0  0  0  0  0  0  0  0  0  0
  1  2  1  0
  2  3  1  0
  3  4  1  0
  4  5  1  0
  5  6  1  0
  6  7  1  0
  5  8  1  0
  8  9  1  0
  6  3  1  0
  8  3  1  0
  1 10  1  0
  1 11  1  0
  1 12  1  0
  2 13  1  0
  2 14  1  0
  5 15  1  0
  6 16  1  0
  7 17  1  0
  8 18  1  0
  9 19  1  0
M  END
