
     RDKit          3D

 20 21  0  0  0  0  0  0  0  0999 V2000
   -2.7669    0.3484   -0.0020 C   0  0  0  0  0  0  0  0  0  0  0  0
   -1.4437    1.0831    0.2142 C   0  0  0  0  0  0  0  0  0  0  0  0
   -0.4109    0.0416    0.4729 C   0  0  0  0  0  0  0  0  0  0  0  0
   -0.2523   -0.9524   -0.6949 C   0  0  0  0  0  0  0  0  0  0  0  0
    0.8426   -0.0940   -0.2103 C   0  0  0  0  0  0  0  0  0  0  0  0
    2.0879   -0.6431    0.3961 C   0  0  0  0  0  0  0  0  0  0  0  0
    2.7280    0.2424   -0.6291 C   0  0  0  0  0  0  0  0  0  0  0  0
    1.4915    0.8263   -0.9659 O   0  0  0  0  0  0  0  0  0  0  0  0
   -2.5909   -0.4278   -0.7769 H   0  0  0  0  0  0  0  0  0  0  0  0
   -2.9687   -0.2104    0.9498 H   0  0  0  0  0  0  0  0  0  0  0  0
   -3.5843    1.0148   -0.2674 H   0  0  0  0  0  0  0  0  0  0  0  0
   -1.2448    1.6104   -0.7525 H   0  0  0  0  0  0  0  0  0  0  0  0
   -1.5415    1.8385    0.9890 H   0  0  0  0  0  0  0  0  0  0  0  0
   -0.5108   -0.4546    1.4814 H   0  0  0  0  0  0  0  0  0  0  0  0
   -0.2161   -2.0314   -0.4266 H   0  0  0  0  0  0  0  0  0  0  0  0
   -0.6925   -0.6936   -1.6602 H   0  0  0  0  0  0  0  0  0  0  0  0
    2.1626   -1.7444    0.1518 H   0  0  0  0  0  0  0  0  0  0  0  0
    2.2833   -0.4074    1.4515 H   0  0  0  0  0  0  0  0  0  0  0  0
    3.4107    0.9682   -0.1495 H   0  0  0  0  0  0  0  0  0  0  0  0
    3.2168   -0.3147   -1.4358 H   0  0  0  0  0  0  0  0  0  0  0  0
  1  2  1  0
  2  3  1  0
  3  4  1  0
  4  5  1  0
  5  6  1  0
  6  7  1  0
  7  8  1  0
  5  3  1  0
  8  5  1  0
  1  9  1  0
  1 10  1  0
  1 11  1  0
  2 12  1  0
  2 13  1  0
  3 14  1  0
  4 15  1  0
  4 16  1  0
  6 17  1  0
  6 18  1  0
  7 19  1  0
  7 20  1  0
M  END
