
     RDKit          3D

 21 22  0  0  0  0  0  0  0  0999 V2000
   -2.9940    0.1915    0.0451 C   0  0  0  0  0  0  0  0  0  0  0  0
   -1.7356   -0.4690    0.5254 C   0  0  0  0  0  0  0  0  0  0  0  0
   -0.5563   -0.2276   -0.3766 C   0  0  0  0  0  0  0  0  0  0  0  0
    0.6319   -0.9548    0.2396 C   0  0  0  0  0  0  0  0  0  0  0  0
    1.8160   -0.1308   -0.1453 C   0  0  0  0  0  0  0  0  0  0  0  0
    2.8779   -0.7488   -0.8331 O   0  0  0  0  0  0  0  0  0  0  0  0
    2.1084    1.1733    0.4512 C   0  0  0  0  0  0  0  0  0  0  0  0
    1.1897    1.1019   -0.7422 C   0  0  0  0  0  0  0  0  0  0  0  0
   -0.1524    1.0835   -0.4270 O   0  0  0  0  0  0  0  0  0  0  0  0
   -3.7576    0.0844    0.8418 H   0  0  0  0  0  0  0  0  0  0  0  0
   -3.3469   -0.3134   -0.8570 H   0  0  0  0  0  0  0  0  0  0  0  0
   -2.8749    1.2723   -0.1529 H   0  0  0  0  0  0  0  0  0  0  0  0
   -1.9178   -1.5638    0.5423 H   0  0  0  0  0  0  0  0  0  0  0  0
   -1.5253   -0.1597    1.5584 H   0  0  0  0  0  0  0  0  0  0  0  0
   -0.7537   -0.5810   -1.3923 H   0  0  0  0  0  0  0  0  0  0  0  0
    0.5204   -1.0426    1.3200 H   0  0  0  0  0  0  0  0  0  0  0  0
    0.7063   -1.9411   -0.2661 H   0  0  0  0  0  0  0  0  0  0  0  0
    3.4669   -1.1613   -0.1253 H   0  0  0  0  0  0  0  0  0  0  0  0
    3.0804    1.6256    0.2664 H   0  0  0  0  0  0  0  0  0  0  0  0
    1.6699    1.4016    1.4391 H   0  0  0  0  0  0  0  0  0  0  0  0
    1.5467    1.3598   -1.7416 H   0  0  0  0  0  0  0  0  0  0  0  0
  1  2  1  0
  2  3  1  0
  3  4  1  0
  4  5  1  0
  5  6  1  0
  5  7  1  0
  7  8  1  0
  8  9  1  0
  9  3  1  0
  8  5  1  0
  1 10  1  0
  1 11  1  0
  1 12  1  0
  2 13  1  0
  2 14  1  0
  3 15  1  0
  4 16  1  0
  4 17  1  0
  6 18  1  0
  7 19  1  0
  7 20  1  0
  8 21  1  0
M  END
