
     RDKit          3D

 21 22  0  0  0  0  0  0  0  0999 V2000
    2.5645    0.1039   -0.3979 C   0  0  0  0  0  0  0  0  0  0  0  0
    1.8239   -0.8194    0.5304 C   0  0  0  0  0  0  0  0  0  0  0  0
    0.3836   -0.4267    0.7087 C   0  0  0  0  0  0  0  0  0  0  0  0
    0.1704    0.8932    1.2558 C   0  0  0  0  0  0  0  0  0  0  0  0
   -0.9140    1.4237    0.7334 C   0  0  0  0  0  0  0  0  0  0  0  0
   -1.5196    0.4742   -0.2269 C   0  0  0  0  0  0  0  0  0  0  0  0
   -2.8633   -0.0964   -0.0278 C   0  0  0  0  0  0  0  0  0  0  0  0
   -0.7970    0.3910   -1.3907 O   0  0  0  0  0  0  0  0  0  0  0  0
   -0.4553   -0.5761   -0.4812 C   0  0  0  0  0  0  0  0  0  0  0  0
    3.5648   -0.3253   -0.6045 H   0  0  0  0  0  0  0  0  0  0  0  0
    2.7453    1.1020    0.0636 H   0  0  0  0  0  0  0  0  0  0  0  0
    2.0649    0.1927   -1.3929 H   0  0  0  0  0  0  0  0  0  0  0  0
    1.8845   -1.8448    0.1460 H   0  0  0  0  0  0  0  0  0  0  0  0
    2.3443   -0.7951    1.5044 H   0  0  0  0  0  0  0  0  0  0  0  0
   -0.0308   -1.1439    1.4918 H   0  0  0  0  0  0  0  0  0  0  0  0
    0.7524    1.4691    1.9960 H   0  0  0  0  0  0  0  0  0  0  0  0
   -1.3547    2.4009    0.9298 H   0  0  0  0  0  0  0  0  0  0  0  0
   -3.6009    0.6498    0.3318 H   0  0  0  0  0  0  0  0  0  0  0  0
   -2.7966   -0.8594    0.8040 H   0  0  0  0  0  0  0  0  0  0  0  0
   -3.1824   -0.6265   -0.9316 H   0  0  0  0  0  0  0  0  0  0  0  0
   -0.7842   -1.5868   -0.8361 H   0  0  0  0  0  0  0  0  0  0  0  0
  1  2  1  0
  2  3  1  0
  3  4  1  0
  4  5  2  0
  5  6  1  0
  6  7  1  0
  6  8  1  0
  8  9  1  0
  9  3  1  0
  9  6  1  0
  1 10  1  0
  1 11  1  0
  1 12  1  0
  2 13  1  0
  2 14  1  0
  3 15  1  0
  4 16  1  0
  5 17  1  0
  7 18  1  0
  7 19  1  0
  7 20  1  0
  9 21  1  0
M  END
