
     RDKit          3D

 21 22  0  0  0  0  0  0  0  0999 V2000
    1.9489    0.9561   -0.1479 C   0  0  0  0  0  0  0  0  0  0  0  0
    1.0406    0.2866   -1.1568 C   0  0  0  0  0  0  0  0  0  0  0  0
    0.0817   -0.5952   -0.3683 C   0  0  0  0  0  0  0  0  0  0  0  0
    0.7576   -1.6600    0.4488 C   0  0  0  0  0  0  0  0  0  0  0  0
   -1.2863   -0.8365   -0.8023 C   0  0  0  0  0  0  0  0  0  0  0  0
   -2.0097    0.0693   -1.5390 O   0  0  0  0  0  0  0  0  0  0  0  0
   -1.9155    1.0419   -0.5610 C   0  0  0  0  0  0  0  0  0  0  0  0
   -1.0467    0.1395    0.2554 C   0  0  0  0  0  0  0  0  0  0  0  0
   -1.4043   -0.0210    1.5653 O   0  0  0  0  0  0  0  0  0  0  0  0
    1.9687    2.0738   -0.3098 H   0  0  0  0  0  0  0  0  0  0  0  0
    1.5485    0.8510    0.9021 H   0  0  0  0  0  0  0  0  0  0  0  0
    2.9585    0.5499   -0.1298 H   0  0  0  0  0  0  0  0  0  0  0  0
    1.6710   -0.3202   -1.8460 H   0  0  0  0  0  0  0  0  0  0  0  0
    0.4321    0.9932   -1.7297 H   0  0  0  0  0  0  0  0  0  0  0  0
    1.8081   -1.3592    0.6721 H   0  0  0  0  0  0  0  0  0  0  0  0
    0.8281   -2.5954   -0.1389 H   0  0  0  0  0  0  0  0  0  0  0  0
    0.1733   -1.8394    1.3505 H   0  0  0  0  0  0  0  0  0  0  0  0
   -1.7503   -1.8276   -0.6275 H   0  0  0  0  0  0  0  0  0  0  0  0
   -2.8914    1.2486   -0.0731 H   0  0  0  0  0  0  0  0  0  0  0  0
   -1.3895    1.9404   -0.9485 H   0  0  0  0  0  0  0  0  0  0  0  0
   -1.5234    0.9043    1.9522 H   0  0  0  0  0  0  0  0  0  0  0  0
  1  2  1  0
  2  3  1  0
  3  4  1  0
  3  5  1  0
  5  6  1  0
  6  7  1  0
  7  8  1  0
  8  9  1  0
  8  3  1  0
  8  5  1  0
  1 10  1  0
  1 11  1  0
  1 12  1  0
  2 13  1  0
  2 14  1  0
  4 15  1  0
  4 16  1  0
  4 17  1  0
  5 18  1  0
  7 19  1  0
  7 20  1  0
  9 21  1  0
M  END
