
     RDKit          3D

 21 22  0  0  0  0  0  0  0  0999 V2000
   -2.4748    0.2389   -0.5884 C   0  0  0  0  0  0  0  0  0  0  0  0
   -1.3871   -0.6645   -0.0690 C   0  0  0  0  0  0  0  0  0  0  0  0
   -0.1571    0.1497    0.3610 C   0  0  0  0  0  0  0  0  0  0  0  0
   -0.5289    1.1370    1.4694 C   0  0  0  0  0  0  0  0  0  0  0  0
    0.7801    0.5862   -0.5928 C   0  0  0  0  0  0  0  0  0  0  0  0
    2.0790    0.9772   -0.5720 O   0  0  0  0  0  0  0  0  0  0  0  0
    2.7460   -0.2556   -0.7901 C   0  0  0  0  0  0  0  0  0  0  0  0
    1.8171   -1.2679   -0.4379 O   0  0  0  0  0  0  0  0  0  0  0  0
    1.0456   -0.5833    0.4440 C   0  0  0  0  0  0  0  0  0  0  0  0
   -2.9812    0.8179    0.1993 H   0  0  0  0  0  0  0  0  0  0  0  0
   -2.0640    0.8737   -1.3991 H   0  0  0  0  0  0  0  0  0  0  0  0
   -3.2350   -0.4140   -1.0663 H   0  0  0  0  0  0  0  0  0  0  0  0
   -1.7132   -1.2310    0.8123 H   0  0  0  0  0  0  0  0  0  0  0  0
   -1.1204   -1.3680   -0.8857 H   0  0  0  0  0  0  0  0  0  0  0  0
    0.0168    0.7864    2.3791 H   0  0  0  0  0  0  0  0  0  0  0  0
   -0.1059    2.1578    1.2386 H   0  0  0  0  0  0  0  0  0  0  0  0
   -1.5924    1.1826    1.6858 H   0  0  0  0  0  0  0  0  0  0  0  0
    0.5432    0.2425   -1.6493 H   0  0  0  0  0  0  0  0  0  0  0  0
    3.5599   -0.3455   -0.0403 H   0  0  0  0  0  0  0  0  0  0  0  0
    3.0712   -0.3474   -1.8252 H   0  0  0  0  0  0  0  0  0  0  0  0
    1.7011   -0.2978    1.3264 H   0  0  0  0  0  0  0  0  0  0  0  0
  1  2  1  0
  2  3  1  0
  3  4  1  0
  3  5  1  0
  5  6  1  0
  6  7  1  0
  7  8  1  0
  8  9  1  0
  9  3  1  0
  9  5  1  0
  1 10  1  0
  1 11  1  0
  1 12  1  0
  2 13  1  0
  2 14  1  0
  4 15  1  0
  4 16  1  0
  4 17  1  0
  5 18  1  0
  7 19  1  0
  7 20  1  0
  9 21  1  0
M  END
