
     RDKit          3D

 23 24  0  0  0  0  0  0  0  0999 V2000
    3.0170    0.0125   -0.1953 C   0  0  0  0  0  0  0  0  0  0  0  0
    1.9183    0.3351    0.8031 C   0  0  0  0  0  0  0  0  0  0  0  0
    0.5914   -0.0906    0.3064 C   0  0  0  0  0  0  0  0  0  0  0  0
   -0.4472    0.6760    0.0945 C   0  0  0  0  0  0  0  0  0  0  0  0
   -1.4118    1.8358   -0.0291 C   0  0  0  0  0  0  0  0  0  0  0  0
   -2.5241    0.7795    0.0233 C   0  0  0  0  0  0  0  0  0  0  0  0
   -1.5389   -0.2183   -0.4807 C   0  0  0  0  0  0  0  0  0  0  0  0
   -1.2736   -1.4752    0.2587 C   0  0  0  0  0  0  0  0  0  0  0  0
    0.2600   -1.5348    0.0115 C   0  0  0  0  0  0  0  0  0  0  0  0
    2.6966    0.4823   -1.1586 H   0  0  0  0  0  0  0  0  0  0  0  0
    3.9137    0.5761    0.1409 H   0  0  0  0  0  0  0  0  0  0  0  0
    3.1850   -1.0715   -0.2782 H   0  0  0  0  0  0  0  0  0  0  0  0
    1.9603    1.4233    0.9733 H   0  0  0  0  0  0  0  0  0  0  0  0
    2.1605   -0.1326    1.7968 H   0  0  0  0  0  0  0  0  0  0  0  0
   -1.4410    2.5074    0.8295 H   0  0  0  0  0  0  0  0  0  0  0  0
   -1.3056    2.3556   -0.9822 H   0  0  0  0  0  0  0  0  0  0  0  0
   -3.2849    1.0110   -0.7497 H   0  0  0  0  0  0  0  0  0  0  0  0
   -2.9654    0.6146    1.0029 H   0  0  0  0  0  0  0  0  0  0  0  0
   -1.4738   -0.3488   -1.5663 H   0  0  0  0  0  0  0  0  0  0  0  0
   -1.4620   -1.4365    1.3287 H   0  0  0  0  0  0  0  0  0  0  0  0
   -1.7591   -2.3596   -0.1947 H   0  0  0  0  0  0  0  0  0  0  0  0
    0.4334   -1.7075   -1.0654 H   0  0  0  0  0  0  0  0  0  0  0  0
    0.7513   -2.2337    0.6789 H   0  0  0  0  0  0  0  0  0  0  0  0
  1  2  1  0
  2  3  1  0
  3  4  2  0
  4  5  1  0
  5  6  1  0
  6  7  1  0
  7  8  1  0
  8  9  1  0
  9  3  1  0
  7  4  1  0
  1 10  1  0
  1 11  1  0
  1 12  1  0
  2 13  1  0
  2 14  1  0
  5 15  1  0
  5 16  1  0
  6 17  1  0
  6 18  1  0
  7 19  1  0
  8 20  1  0
  8 21  1  0
  9 22  1  0
  9 23  1  0
M  END
