
     RDKit          3D

 21 21  0  0  0  0  0  0  0  0999 V2000
   -2.0435    0.7123    0.9171 C   0  0  0  0  0  0  0  0  0  0  0  0
   -1.0260    0.8374   -0.1936 C   0  0  0  0  0  0  0  0  0  0  0  0
   -0.2131   -0.4216   -0.3696 C   0  0  0  0  0  0  0  0  0  0  0  0
   -1.0859   -1.5871   -0.7032 C   0  0  0  0  0  0  0  0  0  0  0  0
    0.8000   -0.1889   -1.3055 O   0  0  0  0  0  0  0  0  0  0  0  0
    1.8232   -0.3521   -0.3608 C   0  0  0  0  0  0  0  0  0  0  0  0
    2.4959    0.9564    0.0131 C   0  0  0  0  0  0  0  0  0  0  0  0
    0.7948   -0.6909    0.6530 C   0  0  0  0  0  0  0  0  0  0  0  0
    0.8462   -1.0347    1.8116 O   0  0  0  0  0  0  0  0  0  0  0  0
   -1.5828    0.6936    1.9163 H   0  0  0  0  0  0  0  0  0  0  0  0
   -2.7151    1.6132    0.8243 H   0  0  0  0  0  0  0  0  0  0  0  0
   -2.6640   -0.1850    0.7102 H   0  0  0  0  0  0  0  0  0  0  0  0
   -0.3763    1.7120    0.0134 H   0  0  0  0  0  0  0  0  0  0  0  0
   -1.5908    0.9845   -1.1425 H   0  0  0  0  0  0  0  0  0  0  0  0
   -2.0002   -1.2958   -1.2529 H   0  0  0  0  0  0  0  0  0  0  0  0
   -1.3734   -2.1504    0.2287 H   0  0  0  0  0  0  0  0  0  0  0  0
   -0.5212   -2.3132   -1.3311 H   0  0  0  0  0  0  0  0  0  0  0  0
    2.4915   -1.1525   -0.6735 H   0  0  0  0  0  0  0  0  0  0  0  0
    3.5753    0.8415   -0.1945 H   0  0  0  0  0  0  0  0  0  0  0  0
    2.0785    1.7815   -0.6269 H   0  0  0  0  0  0  0  0  0  0  0  0
    2.2870    1.2399    1.0662 H   0  0  0  0  0  0  0  0  0  0  0  0
  1  2  1  0
  2  3  1  0
  3  4  1  0
  3  5  1  0
  5  6  1  0
  6  7  1  0
  6  8  1  0
  8  9  2  0
  8  3  1  0
  1 10  1  0
  1 11  1  0
  1 12  1  0
  2 13  1  0
  2 14  1  0
  4 15  1  0
  4 16  1  0
  4 17  1  0
  6 18  1  0
  7 19  1  0
  7 20  1  0
  7 21  1  0
M  END
