
     RDKit          3D

 25 25  0  0  0  0  0  0  0  0999 V2000
   -3.0159    1.1754   -0.6192 C   0  0  0  0  0  0  0  0  0  0  0  0
   -2.1210    0.1795    0.0361 C   0  0  0  0  0  0  0  0  0  0  0  0
   -0.9837   -0.2720   -0.8385 C   0  0  0  0  0  0  0  0  0  0  0  0
   -0.1227    0.7309   -1.2583 O   0  0  0  0  0  0  0  0  0  0  0  0
    0.7566    0.4660   -0.1826 C   0  0  0  0  0  0  0  0  0  0  0  0
    2.1895    0.5320   -0.6377 C   0  0  0  0  0  0  0  0  0  0  0  0
    3.0978    0.2427    0.5427 C   0  0  0  0  0  0  0  0  0  0  0  0
    0.1665   -0.9260   -0.1463 C   0  0  0  0  0  0  0  0  0  0  0  0
   -0.0736   -1.5134    1.1937 C   0  0  0  0  0  0  0  0  0  0  0  0
   -3.7074    0.7006   -1.3480 H   0  0  0  0  0  0  0  0  0  0  0  0
   -3.6773    1.6095    0.1727 H   0  0  0  0  0  0  0  0  0  0  0  0
   -2.4738    1.9846   -1.1486 H   0  0  0  0  0  0  0  0  0  0  0  0
   -1.6821    0.5881    0.9637 H   0  0  0  0  0  0  0  0  0  0  0  0
   -2.7315   -0.6972    0.3346 H   0  0  0  0  0  0  0  0  0  0  0  0
   -1.3463   -0.9187   -1.6696 H   0  0  0  0  0  0  0  0  0  0  0  0
    0.5720    1.0455    0.7215 H   0  0  0  0  0  0  0  0  0  0  0  0
    2.4238    1.5213   -1.0877 H   0  0  0  0  0  0  0  0  0  0  0  0
    2.4110   -0.2515   -1.4080 H   0  0  0  0  0  0  0  0  0  0  0  0
    3.8739   -0.5054    0.3092 H   0  0  0  0  0  0  0  0  0  0  0  0
    2.4950   -0.1589    1.4062 H   0  0  0  0  0  0  0  0  0  0  0  0
    3.5436    1.2141    0.8663 H   0  0  0  0  0  0  0  0  0  0  0  0
    0.7484   -1.6119   -0.7968 H   0  0  0  0  0  0  0  0  0  0  0  0
    0.7658   -2.2021    1.4254 H   0  0  0  0  0  0  0  0  0  0  0  0
   -0.9860   -2.1448    1.1454 H   0  0  0  0  0  0  0  0  0  0  0  0
   -0.1226   -0.7883    2.0236 H   0  0  0  0  0  0  0  0  0  0  0  0
  1  2  1  0
  2  3  1  0
  3  4  1  0
  4  5  1  0
  5  6  1  0
  6  7  1  0
  5  8  1  0
  8  9  1  0
  8  3  1  0
  1 10  1  0
  1 11  1  0
  1 12  1  0
  2 13  1  0
  2 14  1  0
  3 15  1  0
  5 16  1  0
  6 17  1  0
  6 18  1  0
  7 19  1  0
  7 20  1  0
  7 21  1  0
  8 22  1  0
  9 23  1  0
  9 24  1  0
  9 25  1  0
M  END
