
     RDKit          3D

 19 20  0  0  0  0  0  0  0  0999 V2000
   -2.5049    0.2573   -0.1615 C   0  0  0  0  0  0  0  0  0  0  0  0
   -1.1940    0.5028    0.5831 C   0  0  0  0  0  0  0  0  0  0  0  0
   -0.1145    0.6498   -0.4464 C   0  0  0  0  0  0  0  0  0  0  0  0
    0.0924   -0.5757   -1.3696 C   0  0  0  0  0  0  0  0  0  0  0  0
    1.1108   -0.1230   -0.4544 C   0  0  0  0  0  0  0  0  0  0  0  0
    1.6834   -0.8622    0.6861 C   0  0  0  0  0  0  0  0  0  0  0  0
    2.7508    0.1759    0.5221 C   0  0  0  0  0  0  0  0  0  0  0  0
    3.6452    0.7146    1.2113 O   0  0  0  0  0  0  0  0  0  0  0  0
    2.3651    0.3617   -0.8183 O   0  0  0  0  0  0  0  0  0  0  0  0
   -2.2864   -0.1383   -1.1692 H   0  0  0  0  0  0  0  0  0  0  0  0
   -3.1309   -0.5050    0.3670 H   0  0  0  0  0  0  0  0  0  0  0  0
   -3.0677    1.1980   -0.2848 H   0  0  0  0  0  0  0  0  0  0  0  0
   -1.0096   -0.3805    1.2217 H   0  0  0  0  0  0  0  0  0  0  0  0
   -1.2272    1.4368    1.1786 H   0  0  0  0  0  0  0  0  0  0  0  0
   -0.1044    1.6447   -0.9470 H   0  0  0  0  0  0  0  0  0  0  0  0
    0.2459   -0.3455   -2.4599 H   0  0  0  0  0  0  0  0  0  0  0  0
   -0.5805   -1.4215   -1.2132 H   0  0  0  0  0  0  0  0  0  0  0  0
    1.1914   -0.7371    1.6652 H   0  0  0  0  0  0  0  0  0  0  0  0
    2.1349   -1.8528    0.5009 H   0  0  0  0  0  0  0  0  0  0  0  0
  1  2  1  0
  2  3  1  0
  3  4  1  0
  4  5  1  0
  5  6  1  0
  6  7  1  0
  7  8  2  0
  7  9  1  0
  5  3  1  0
  9  5  1  0
  1 10  1  0
  1 11  1  0
  1 12  1  0
  2 13  1  0
  2 14  1  0
  3 15  1  0
  4 16  1  0
  4 17  1  0
  6 18  1  0
  6 19  1  0
M  END
