
     RDKit          3D

 23 23  0  0  0  0  0  0  0  0999 V2000
    2.2683   -0.0829    0.9879 C   0  0  0  0  0  0  0  0  0  0  0  0
    0.9677    0.5967    0.6677 C   0  0  0  0  0  0  0  0  0  0  0  0
    0.3740    0.1327   -0.6426 C   0  0  0  0  0  0  0  0  0  0  0  0
    1.2783    0.4154   -1.6563 O   0  0  0  0  0  0  0  0  0  0  0  0
    0.0498   -1.3293   -0.6520 C   0  0  0  0  0  0  0  0  0  0  0  0
   -1.1381   -1.5630    0.2026 C   0  0  0  0  0  0  0  0  0  0  0  0
   -1.9742   -0.6206    0.5969 C   0  0  0  0  0  0  0  0  0  0  0  0
   -1.8461    0.8154    0.2408 C   0  0  0  0  0  0  0  0  0  0  0  0
   -0.8996    0.8886   -0.9507 C   0  0  0  0  0  0  0  0  0  0  0  0
    2.1430   -1.0496    1.5009 H   0  0  0  0  0  0  0  0  0  0  0  0
    2.9089    0.5497    1.6386 H   0  0  0  0  0  0  0  0  0  0  0  0
    2.8659   -0.2200    0.0400 H   0  0  0  0  0  0  0  0  0  0  0  0
    0.2938    0.4956    1.5197 H   0  0  0  0  0  0  0  0  0  0  0  0
    1.2123    1.6865    0.5225 H   0  0  0  0  0  0  0  0  0  0  0  0
    1.3781    1.3968   -1.7838 H   0  0  0  0  0  0  0  0  0  0  0  0
   -0.2336   -1.6009   -1.6900 H   0  0  0  0  0  0  0  0  0  0  0  0
    0.8856   -1.9567   -0.2826 H   0  0  0  0  0  0  0  0  0  0  0  0
   -1.3203   -2.5987    0.5207 H   0  0  0  0  0  0  0  0  0  0  0  0
   -2.8087   -0.9185    1.2222 H   0  0  0  0  0  0  0  0  0  0  0  0
   -1.4722    1.4235    1.0919 H   0  0  0  0  0  0  0  0  0  0  0  0
   -2.8249    1.2313   -0.1240 H   0  0  0  0  0  0  0  0  0  0  0  0
   -0.7001    1.9498   -1.1792 H   0  0  0  0  0  0  0  0  0  0  0  0
   -1.4079    0.3581   -1.7909 H   0  0  0  0  0  0  0  0  0  0  0  0
  1  2  1  0
  2  3  1  0
  3  4  1  0
  3  5  1  0
  5  6  1  0
  6  7  2  0
  7  8  1  0
  8  9  1  0
  9  3  1  0
  1 10  1  0
  1 11  1  0
  1 12  1  0
  2 13  1  0
  2 14  1  0
  4 15  1  0
  5 16  1  0
  5 17  1  0
  6 18  1  0
  7 19  1  0
  8 20  1  0
  8 21  1  0
  9 22  1  0
  9 23  1  0
M  END
