
     RDKit          3D

 21 21  0  0  0  0  0  0  0  0999 V2000
    2.5927    1.0260    0.4333 C   0  0  0  0  0  0  0  0  0  0  0  0
    1.9850   -0.1939   -0.1646 C   0  0  0  0  0  0  0  0  0  0  0  0
    0.5292   -0.2654   -0.0635 C   0  0  0  0  0  0  0  0  0  0  0  0
   -0.2677    0.6240    0.4915 C   0  0  0  0  0  0  0  0  0  0  0  0
   -1.6926    0.2250    0.4129 C   0  0  0  0  0  0  0  0  0  0  0  0
   -2.4588    1.0129   -0.5579 C   0  0  0  0  0  0  0  0  0  0  0  0
   -1.8788    1.6028   -1.4470 O   0  0  0  0  0  0  0  0  0  0  0  0
   -1.6489   -1.2329    0.0882 C   0  0  0  0  0  0  0  0  0  0  0  0
   -0.3034   -1.3805   -0.5787 C   0  0  0  0  0  0  0  0  0  0  0  0
    1.9704    1.9392    0.3182 H   0  0  0  0  0  0  0  0  0  0  0  0
    2.7515    0.9144    1.5395 H   0  0  0  0  0  0  0  0  0  0  0  0
    3.5801    1.2745   -0.0053 H   0  0  0  0  0  0  0  0  0  0  0  0
    2.3421   -0.2624   -1.2283 H   0  0  0  0  0  0  0  0  0  0  0  0
    2.4459   -1.0925    0.3344 H   0  0  0  0  0  0  0  0  0  0  0  0
    0.0322    1.5716    0.9730 H   0  0  0  0  0  0  0  0  0  0  0  0
   -2.1006    0.3324    1.4622 H   0  0  0  0  0  0  0  0  0  0  0  0
   -3.5341    1.0877   -0.5092 H   0  0  0  0  0  0  0  0  0  0  0  0
   -1.6419   -1.8444    1.0117 H   0  0  0  0  0  0  0  0  0  0  0  0
   -2.4857   -1.5820   -0.5430 H   0  0  0  0  0  0  0  0  0  0  0  0
   -0.3598   -1.3811   -1.6749 H   0  0  0  0  0  0  0  0  0  0  0  0
    0.1434   -2.3755   -0.2922 H   0  0  0  0  0  0  0  0  0  0  0  0
  1  2  1  0
  2  3  1  0
  3  4  2  0
  4  5  1  0
  5  6  1  0
  6  7  2  0
  5  8  1  0
  8  9  1  0
  9  3  1  0
  1 10  1  0
  1 11  1  0
  1 12  1  0
  2 13  1  0
  2 14  1  0
  4 15  1  0
  5 16  1  0
  6 17  1  0
  8 18  1  0
  8 19  1  0
  9 20  1  0
  9 21  1  0
M  END
