
     RDKit          3D

 21 21  0  0  0  0  0  0  0  0999 V2000
    2.4565   -0.2318   -1.0132 C   0  0  0  0  0  0  0  0  0  0  0  0
    1.6804   -0.8596    0.1275 C   0  0  0  0  0  0  0  0  0  0  0  0
    0.5444    0.0810    0.4518 C   0  0  0  0  0  0  0  0  0  0  0  0
   -0.3275   -0.3850    1.5603 C   0  0  0  0  0  0  0  0  0  0  0  0
   -1.6217    0.2618    1.2745 C   0  0  0  0  0  0  0  0  0  0  0  0
   -1.7017    0.4912   -0.0248 C   0  0  0  0  0  0  0  0  0  0  0  0
   -2.8349    1.1178   -0.6878 C   0  0  0  0  0  0  0  0  0  0  0  0
   -2.7916    1.2812   -1.9287 O   0  0  0  0  0  0  0  0  0  0  0  0
   -0.4575    0.0201   -0.7149 C   0  0  0  0  0  0  0  0  0  0  0  0
    3.0104    0.6416   -0.5595 H   0  0  0  0  0  0  0  0  0  0  0  0
    1.7197    0.1636   -1.7274 H   0  0  0  0  0  0  0  0  0  0  0  0
    3.1577   -0.9475   -1.4844 H   0  0  0  0  0  0  0  0  0  0  0  0
    2.3668   -1.0016    0.9605 H   0  0  0  0  0  0  0  0  0  0  0  0
    1.2802   -1.8298   -0.2470 H   0  0  0  0  0  0  0  0  0  0  0  0
    0.8925    1.0997    0.6003 H   0  0  0  0  0  0  0  0  0  0  0  0
    0.0560   -0.1458    2.5717 H   0  0  0  0  0  0  0  0  0  0  0  0
   -0.4902   -1.4816    1.5214 H   0  0  0  0  0  0  0  0  0  0  0  0
   -2.4198    0.5292    1.9868 H   0  0  0  0  0  0  0  0  0  0  0  0
   -3.6940    1.4343   -0.1186 H   0  0  0  0  0  0  0  0  0  0  0  0
   -0.2153    0.7606   -1.4775 H   0  0  0  0  0  0  0  0  0  0  0  0
   -0.6105   -0.9996   -1.0709 H   0  0  0  0  0  0  0  0  0  0  0  0
  1  2  1  0
  2  3  1  0
  3  4  1  0
  4  5  1  0
  5  6  2  0
  6  7  1  0
  7  8  2  0
  6  9  1  0
  9  3  1  0
  1 10  1  0
  1 11  1  0
  1 12  1  0
  2 13  1  0
  2 14  1  0
  3 15  1  0
  4 16  1  0
  4 17  1  0
  5 18  1  0
  7 19  1  0
  9 20  1  0
  9 21  1  0
M  END
