
     RDKit          3D

 25 25  0  0  0  0  0  0  0  0999 V2000
    3.1340    0.5021    0.3938 C   0  0  0  0  0  0  0  0  0  0  0  0
    2.3404    0.3304   -0.8599 C   0  0  0  0  0  0  0  0  0  0  0  0
    0.9524   -0.1760   -0.6020 C   0  0  0  0  0  0  0  0  0  0  0  0
   -0.1918    0.4064   -0.9018 C   0  0  0  0  0  0  0  0  0  0  0  0
   -1.3568   -0.3877   -0.4963 C   0  0  0  0  0  0  0  0  0  0  0  0
   -2.0988    0.1841    0.6837 C   0  0  0  0  0  0  0  0  0  0  0  0
   -2.6105    1.5729    0.3760 C   0  0  0  0  0  0  0  0  0  0  0  0
   -0.8060   -1.7600   -0.2212 C   0  0  0  0  0  0  0  0  0  0  0  0
    0.6424   -1.4683    0.0596 C   0  0  0  0  0  0  0  0  0  0  0  0
    2.9099    1.4609    0.9163 H   0  0  0  0  0  0  0  0  0  0  0  0
    4.2082    0.5485    0.1103 H   0  0  0  0  0  0  0  0  0  0  0  0
    2.9704   -0.3606    1.0801 H   0  0  0  0  0  0  0  0  0  0  0  0
    2.3448    1.2597   -1.4359 H   0  0  0  0  0  0  0  0  0  0  0  0
    2.8338   -0.4446   -1.4887 H   0  0  0  0  0  0  0  0  0  0  0  0
   -0.2288    1.3914   -1.4065 H   0  0  0  0  0  0  0  0  0  0  0  0
   -2.0673   -0.4069   -1.3581 H   0  0  0  0  0  0  0  0  0  0  0  0
   -2.9940   -0.4603    0.8484 H   0  0  0  0  0  0  0  0  0  0  0  0
   -1.5120    0.2111    1.6024 H   0  0  0  0  0  0  0  0  0  0  0  0
   -2.8838    2.1317    1.2704 H   0  0  0  0  0  0  0  0  0  0  0  0
   -1.8565    2.1752   -0.2012 H   0  0  0  0  0  0  0  0  0  0  0  0
   -3.5011    1.5099   -0.3027 H   0  0  0  0  0  0  0  0  0  0  0  0
   -0.9648   -2.3932   -1.1152 H   0  0  0  0  0  0  0  0  0  0  0  0
   -1.3475   -2.1566    0.6783 H   0  0  0  0  0  0  0  0  0  0  0  0
    0.7933   -1.4342    1.1567 H   0  0  0  0  0  0  0  0  0  0  0  0
    1.2903   -2.2359   -0.4306 H   0  0  0  0  0  0  0  0  0  0  0  0
  1  2  1  0
  2  3  1  0
  3  4  2  0
  4  5  1  0
  5  6  1  0
  6  7  1  0
  5  8  1  0
  8  9  1  0
  9  3  1  0
  1 10  1  0
  1 11  1  0
  1 12  1  0
  2 13  1  0
  2 14  1  0
  4 15  1  0
  5 16  1  0
  6 17  1  0
  6 18  1  0
  7 19  1  0
  7 20  1  0
  7 21  1  0
  8 22  1  0
  8 23  1  0
  9 24  1  0
  9 25  1  0
M  END
