
     RDKit          3D

 25 26  0  0  0  0  0  0  0  0999 V2000
   -3.5925   -0.6576   -0.2411 C   0  0  0  0  0  0  0  0  0  0  0  0
   -2.6067    0.4749   -0.0925 C   0  0  0  0  0  0  0  0  0  0  0  0
   -1.2003   -0.0118    0.1594 C   0  0  0  0  0  0  0  0  0  0  0  0
   -0.5482   -0.8817   -0.8582 C   0  0  0  0  0  0  0  0  0  0  0  0
   -0.0877    0.5199   -0.7408 C   0  0  0  0  0  0  0  0  0  0  0  0
    1.2282    0.8672   -0.1154 C   0  0  0  0  0  0  0  0  0  0  0  0
    1.8841   -0.3091    0.5644 C   0  0  0  0  0  0  0  0  0  0  0  0
    3.2322    0.0594    1.2015 C   0  0  0  0  0  0  0  0  0  0  0  0
    3.1470   -0.8900    0.0597 C   0  0  0  0  0  0  0  0  0  0  0  0
   -3.1876   -1.5127   -0.8075 H   0  0  0  0  0  0  0  0  0  0  0  0
   -4.4888   -0.2193   -0.7685 H   0  0  0  0  0  0  0  0  0  0  0  0
   -3.9493   -1.0171    0.7439 H   0  0  0  0  0  0  0  0  0  0  0  0
   -2.6802    1.1422   -0.9720 H   0  0  0  0  0  0  0  0  0  0  0  0
   -2.9414    1.0806    0.7844 H   0  0  0  0  0  0  0  0  0  0  0  0
   -0.9278   -0.1784    1.2199 H   0  0  0  0  0  0  0  0  0  0  0  0
   -1.2017   -1.1922   -1.7005 H   0  0  0  0  0  0  0  0  0  0  0  0
    0.1643   -1.6612   -0.4988 H   0  0  0  0  0  0  0  0  0  0  0  0
   -0.4183    1.1863   -1.5827 H   0  0  0  0  0  0  0  0  0  0  0  0
    1.0394    1.6266    0.6788 H   0  0  0  0  0  0  0  0  0  0  0  0
    1.8830    1.3281   -0.8507 H   0  0  0  0  0  0  0  0  0  0  0  0
    1.2282   -0.9128    1.2042 H   0  0  0  0  0  0  0  0  0  0  0  0
    3.4260   -0.2924    2.2336 H   0  0  0  0  0  0  0  0  0  0  0  0
    3.6786    1.0325    0.9748 H   0  0  0  0  0  0  0  0  0  0  0  0
    3.5880   -0.5895   -0.9087 H   0  0  0  0  0  0  0  0  0  0  0  0
    3.3314   -1.9545    0.3128 H   0  0  0  0  0  0  0  0  0  0  0  0
  1  2  1  0
  2  3  1  0
  3  4  1  0
  4  5  1  0
  5  6  1  0
  6  7  1  0
  7  8  1  0
  8  9  1  0
  5  3  1  0
  9  7  1  0
  1 10  1  0
  1 11  1  0
  1 12  1  0
  2 13  1  0
  2 14  1  0
  3 15  1  0
  4 16  1  0
  4 17  1  0
  5 18  1  0
  6 19  1  0
  6 20  1  0
  7 21  1  0
  8 22  1  0
  8 23  1  0
  9 24  1  0
  9 25  1  0
M  END
