
     RDKit          3D

 19 19  0  0  0  0  0  0  0  0999 V2000
    2.4017    0.5613    0.1805 C   0  0  0  0  0  0  0  0  0  0  0  0
    1.3161   -0.1762   -0.5569 C   0  0  0  0  0  0  0  0  0  0  0  0
    0.1335   -0.4706    0.3406 C   0  0  0  0  0  0  0  0  0  0  0  0
   -0.8922   -1.1971   -0.4554 C   0  0  0  0  0  0  0  0  0  0  0  0
   -2.1128   -0.7646   -0.1818 C   0  0  0  0  0  0  0  0  0  0  0  0
   -2.0633    0.3347    0.8580 C   0  0  0  0  0  0  0  0  0  0  0  0
   -0.5899    0.7643    0.7832 C   0  0  0  0  0  0  0  0  0  0  0  0
    2.5603    0.0680    1.1647 H   0  0  0  0  0  0  0  0  0  0  0  0
    2.2299    1.6391    0.2504 H   0  0  0  0  0  0  0  0  0  0  0  0
    3.3706    0.4269   -0.3788 H   0  0  0  0  0  0  0  0  0  0  0  0
    0.9940    0.3820   -1.4617 H   0  0  0  0  0  0  0  0  0  0  0  0
    1.7380   -1.1625   -0.8571 H   0  0  0  0  0  0  0  0  0  0  0  0
    0.4688   -1.1064    1.1776 H   0  0  0  0  0  0  0  0  0  0  0  0
   -0.7142   -2.0012   -1.1927 H   0  0  0  0  0  0  0  0  0  0  0  0
   -3.0168   -1.1542   -0.6471 H   0  0  0  0  0  0  0  0  0  0  0  0
   -2.7214    1.1663    0.5835 H   0  0  0  0  0  0  0  0  0  0  0  0
   -2.3305   -0.0442    1.8471 H   0  0  0  0  0  0  0  0  0  0  0  0
   -0.4738    1.5869    0.0435 H   0  0  0  0  0  0  0  0  0  0  0  0
   -0.2978    1.1475    1.7601 H   0  0  0  0  0  0  0  0  0  0  0  0
  1  2  1  0
  2  3  1  0
  3  4  1  0
  4  5  2  0
  5  6  1  0
  6  7  1  0
  7  3  1  0
  1  8  1  0
  1  9  1  0
  1 10  1  0
  2 11  1  0
  2 12  1  0
  3 13  1  0
  4 14  1  0
  5 15  1  0
  6 16  1  0
  6 17  1  0
  7 18  1  0
  7 19  1  0
M  END
