
     RDKit          3D

 23 24  0  0  0  0  0  0  0  0999 V2000
    2.6663    0.6001   -0.2992 C   0  0  0  0  0  0  0  0  0  0  0  0
    2.3809   -0.6629    0.4836 C   0  0  0  0  0  0  0  0  0  0  0  0
    0.9033   -0.8782    0.6851 C   0  0  0  0  0  0  0  0  0  0  0  0
    0.0963   -1.0087   -0.5267 C   0  0  0  0  0  0  0  0  0  0  0  0
   -1.2315   -1.3530   -0.3681 O   0  0  0  0  0  0  0  0  0  0  0  0
   -1.4785   -0.0412    0.0282 C   0  0  0  0  0  0  0  0  0  0  0  0
   -2.5010    0.0084    1.1361 C   0  0  0  0  0  0  0  0  0  0  0  0
   -1.8934    0.7789   -1.1776 C   0  0  0  0  0  0  0  0  0  0  0  0
   -0.0681    0.2042    0.4183 C   0  0  0  0  0  0  0  0  0  0  0  0
    3.6598    0.5551   -0.7912 H   0  0  0  0  0  0  0  0  0  0  0  0
    2.6343    1.5061    0.3126 H   0  0  0  0  0  0  0  0  0  0  0  0
    1.9249    0.6622   -1.1494 H   0  0  0  0  0  0  0  0  0  0  0  0
    2.9323   -0.6473    1.4420 H   0  0  0  0  0  0  0  0  0  0  0  0
    2.8501   -1.4990   -0.1116 H   0  0  0  0  0  0  0  0  0  0  0  0
    0.6503   -1.5457    1.5432 H   0  0  0  0  0  0  0  0  0  0  0  0
    0.4719   -0.7486   -1.5376 H   0  0  0  0  0  0  0  0  0  0  0  0
   -3.4958    0.1306    0.6612 H   0  0  0  0  0  0  0  0  0  0  0  0
   -2.5456   -0.9765    1.6741 H   0  0  0  0  0  0  0  0  0  0  0  0
   -2.3602    0.8517    1.8273 H   0  0  0  0  0  0  0  0  0  0  0  0
   -0.9951    0.9874   -1.7774 H   0  0  0  0  0  0  0  0  0  0  0  0
   -2.3193    1.7370   -0.8095 H   0  0  0  0  0  0  0  0  0  0  0  0
   -2.6490    0.1775   -1.7323 H   0  0  0  0  0  0  0  0  0  0  0  0
    0.3672    1.1620    0.0690 H   0  0  0  0  0  0  0  0  0  0  0  0
  1  2  1  0
  2  3  1  0
  3  4  1  0
  4  5  1  0
  5  6  1  0
  6  7  1  0
  6  8  1  0
  6  9  1  0
  9  3  1  0
  9  4  1  0
  1 10  1  0
  1 11  1  0
  1 12  1  0
  2 13  1  0
  2 14  1  0
  3 15  1  0
  4 16  1  0
  7 17  1  0
  7 18  1  0
  7 19  1  0
  8 20  1  0
  8 21  1  0
  8 22  1  0
  9 23  1  0
M  END
