
     RDKit          3D

 21 22  0  0  0  0  0  0  0  0999 V2000
    2.2808    0.7951   -0.2528 C   0  0  0  0  0  0  0  0  0  0  0  0
    1.2960    0.3734    0.8070 C   0  0  0  0  0  0  0  0  0  0  0  0
    0.1429   -0.3277    0.0736 C   0  0  0  0  0  0  0  0  0  0  0  0
    0.6972   -1.5469   -0.6868 C   0  0  0  0  0  0  0  0  0  0  0  0
   -0.8689    0.5006   -0.4733 C   0  0  0  0  0  0  0  0  0  0  0  0
   -2.1381    1.0502    0.2029 C   0  0  0  0  0  0  0  0  0  0  0  0
   -2.4831   -0.3874    0.1750 C   0  0  0  0  0  0  0  0  0  0  0  0
   -3.3829   -1.0875   -0.1239 O   0  0  0  0  0  0  0  0  0  0  0  0
   -1.1184   -0.5208    0.7171 C   0  0  0  0  0  0  0  0  0  0  0  0
    2.4965   -0.1091   -0.8664 H   0  0  0  0  0  0  0  0  0  0  0  0
    1.7568    1.5288   -0.9061 H   0  0  0  0  0  0  0  0  0  0  0  0
    3.1977    1.1927    0.1955 H   0  0  0  0  0  0  0  0  0  0  0  0
    1.7927   -0.4326    1.4054 H   0  0  0  0  0  0  0  0  0  0  0  0
    0.9185    1.1971    1.4205 H   0  0  0  0  0  0  0  0  0  0  0  0
   -0.0798   -2.3153   -0.7952 H   0  0  0  0  0  0  0  0  0  0  0  0
    0.9545   -1.2133   -1.7330 H   0  0  0  0  0  0  0  0  0  0  0  0
    1.5597   -1.9842   -0.1848 H   0  0  0  0  0  0  0  0  0  0  0  0
   -1.2373    0.1155   -1.4809 H   0  0  0  0  0  0  0  0  0  0  0  0
   -1.9332    1.4725    1.2058 H   0  0  0  0  0  0  0  0  0  0  0  0
   -2.6965    1.7200   -0.4410 H   0  0  0  0  0  0  0  0  0  0  0  0
   -1.1552   -0.0212    1.7415 H   0  0  0  0  0  0  0  0  0  0  0  0
  1  2  1  0
  2  3  1  0
  3  4  1  0
  3  5  1  0
  5  6  1  0
  6  7  1  0
  7  8  2  0
  7  9  1  0
  9  3  1  0
  9  5  1  0
  1 10  1  0
  1 11  1  0
  1 12  1  0
  2 13  1  0
  2 14  1  0
  4 15  1  0
  4 16  1  0
  4 17  1  0
  5 18  1  0
  6 19  1  0
  6 20  1  0
  9 21  1  0
M  END
