
     RDKit          3D

 25 26  0  0  0  0  0  0  0  0999 V2000
    2.7407    1.1835   -0.4212 C   0  0  0  0  0  0  0  0  0  0  0  0
    2.1313   -0.0374    0.1969 C   0  0  0  0  0  0  0  0  0  0  0  0
    0.9996   -0.6128   -0.6556 C   0  0  0  0  0  0  0  0  0  0  0  0
    0.3835   -1.8568   -0.0192 C   0  0  0  0  0  0  0  0  0  0  0  0
   -0.3532   -0.5453   -0.1166 C   0  0  0  0  0  0  0  0  0  0  0  0
   -1.5917   -0.5804   -0.9495 C   0  0  0  0  0  0  0  0  0  0  0  0
   -2.4768    0.5017   -0.3767 C   0  0  0  0  0  0  0  0  0  0  0  0
   -2.0543    0.7050    1.0436 C   0  0  0  0  0  0  0  0  0  0  0  0
   -0.6195    0.2754    1.0982 C   0  0  0  0  0  0  0  0  0  0  0  0
    2.7007    2.0504    0.3012 H   0  0  0  0  0  0  0  0  0  0  0  0
    2.1306    1.4399   -1.3243 H   0  0  0  0  0  0  0  0  0  0  0  0
    3.8194    1.0707   -0.6626 H   0  0  0  0  0  0  0  0  0  0  0  0
    1.8114    0.1134    1.2485 H   0  0  0  0  0  0  0  0  0  0  0  0
    2.9264   -0.8382    0.1883 H   0  0  0  0  0  0  0  0  0  0  0  0
    1.2295   -0.6292   -1.7259 H   0  0  0  0  0  0  0  0  0  0  0  0
    0.6625   -2.1441    0.9930 H   0  0  0  0  0  0  0  0  0  0  0  0
    0.1231   -2.6440   -0.7725 H   0  0  0  0  0  0  0  0  0  0  0  0
   -1.4131   -0.4342   -2.0355 H   0  0  0  0  0  0  0  0  0  0  0  0
   -2.1063   -1.5521   -0.7391 H   0  0  0  0  0  0  0  0  0  0  0  0
   -3.5224    0.1802   -0.3871 H   0  0  0  0  0  0  0  0  0  0  0  0
   -2.3124    1.4452   -0.9688 H   0  0  0  0  0  0  0  0  0  0  0  0
   -2.1536    1.8077    1.2553 H   0  0  0  0  0  0  0  0  0  0  0  0
   -2.6907    0.1995    1.7862 H   0  0  0  0  0  0  0  0  0  0  0  0
   -0.3694   -0.2941    2.0129 H   0  0  0  0  0  0  0  0  0  0  0  0
    0.0046    1.1958    1.0302 H   0  0  0  0  0  0  0  0  0  0  0  0
  1  2  1  0
  2  3  1  0
  3  4  1  0
  4  5  1  0
  5  6  1  0
  6  7  1  0
  7  8  1  0
  8  9  1  0
  5  3  1  0
  9  5  1  0
  1 10  1  0
  1 11  1  0
  1 12  1  0
  2 13  1  0
  2 14  1  0
  3 15  1  0
  4 16  1  0
  4 17  1  0
  6 18  1  0
  6 19  1  0
  7 20  1  0
  7 21  1  0
  8 22  1  0
  8 23  1  0
  9 24  1  0
  9 25  1  0
M  END
