
     RDKit          3D

 19 20  0  0  0  0  0  0  0  0999 V2000
    2.4382   -0.0758    0.4345 C   0  0  0  0  0  0  0  0  0  0  0  0
    1.5347   -0.0835   -0.7921 C   0  0  0  0  0  0  0  0  0  0  0  0
    0.1421   -0.0725   -0.3326 C   0  0  0  0  0  0  0  0  0  0  0  0
   -0.2331    1.1136    0.4971 C   0  0  0  0  0  0  0  0  0  0  0  0
   -1.5687    1.1865    0.3721 C   0  0  0  0  0  0  0  0  0  0  0  0
   -1.9370    0.0954   -0.5462 C   0  0  0  0  0  0  0  0  0  0  0  0
   -1.7180   -1.2075    0.1856 C   0  0  0  0  0  0  0  0  0  0  0  0
   -0.3055   -1.2460    0.2370 O   0  0  0  0  0  0  0  0  0  0  0  0
   -0.7944    0.0787   -1.3876 O   0  0  0  0  0  0  0  0  0  0  0  0
    2.0900   -0.9519    1.0560 H   0  0  0  0  0  0  0  0  0  0  0  0
    2.1942    0.8271    1.0017 H   0  0  0  0  0  0  0  0  0  0  0  0
    3.5040   -0.1786    0.1642 H   0  0  0  0  0  0  0  0  0  0  0  0
    1.7523   -1.0030   -1.3352 H   0  0  0  0  0  0  0  0  0  0  0  0
    1.7732    0.8262   -1.3624 H   0  0  0  0  0  0  0  0  0  0  0  0
    0.3859    1.7808    1.0753 H   0  0  0  0  0  0  0  0  0  0  0  0
   -2.2108    1.9093    0.8589 H   0  0  0  0  0  0  0  0  0  0  0  0
   -2.8635    0.1906   -1.0709 H   0  0  0  0  0  0  0  0  0  0  0  0
   -2.0386   -1.1132    1.2534 H   0  0  0  0  0  0  0  0  0  0  0  0
   -2.1451   -2.0761   -0.3088 H   0  0  0  0  0  0  0  0  0  0  0  0
  1  2  1  0
  2  3  1  0
  3  4  1  0
  4  5  2  0
  5  6  1  0
  6  7  1  0
  7  8  1  0
  6  9  1  0
  8  3  1  0
  9  3  1  0
  1 10  1  0
  1 11  1  0
  1 12  1  0
  2 13  1  0
  2 14  1  0
  4 15  1  0
  5 16  1  0
  6 17  1  0
  7 18  1  0
  7 19  1  0
M  END
