
     RDKit          3D

 17 17  0  0  0  0  0  0  0  0999 V2000
    2.3676   -0.3931   -0.0215 C   0  0  0  0  0  0  0  0  0  0  0  0
    1.2881    0.5217   -0.5941 C   0  0  0  0  0  0  0  0  0  0  0  0
    0.0810    0.3637    0.3222 C   0  0  0  0  0  0  0  0  0  0  0  0
   -0.9115    1.1841   -0.1770 O   0  0  0  0  0  0  0  0  0  0  0  0
   -2.0556    0.4222   -0.3435 C   0  0  0  0  0  0  0  0  0  0  0  0
   -1.7707   -0.7813    0.5043 C   0  0  0  0  0  0  0  0  0  0  0  0
   -0.3969   -0.9260    0.3261 O   0  0  0  0  0  0  0  0  0  0  0  0
    2.5572   -0.0388    1.0283 H   0  0  0  0  0  0  0  0  0  0  0  0
    1.9366   -1.4102   -0.0377 H   0  0  0  0  0  0  0  0  0  0  0  0
    3.3121   -0.3077   -0.5964 H   0  0  0  0  0  0  0  0  0  0  0  0
    1.6878    1.5367   -0.5709 H   0  0  0  0  0  0  0  0  0  0  0  0
    1.0459    0.2053   -1.6083 H   0  0  0  0  0  0  0  0  0  0  0  0
    0.3388    0.6256    1.3692 H   0  0  0  0  0  0  0  0  0  0  0  0
   -2.2007    0.1885   -1.4176 H   0  0  0  0  0  0  0  0  0  0  0  0
   -2.9008    1.0257    0.0703 H   0  0  0  0  0  0  0  0  0  0  0  0
   -2.0492   -0.5317    1.5443 H   0  0  0  0  0  0  0  0  0  0  0  0
   -2.3298   -1.6846    0.2024 H   0  0  0  0  0  0  0  0  0  0  0  0
  1  2  1  0
  2  3  1  0
  3  4  1  0
  4  5  1  0
  5  6  1  0
  6  7  1  0
  7  3  1  0
  1  8  1  0
  1  9  1  0
  1 10  1  0
  2 11  1  0
  2 12  1  0
  3 13  1  0
  5 14  1  0
  5 15  1  0
  6 16  1  0
  6 17  1  0
M  END
