
     RDKit          3D

 23 23  0  0  0  0  0  0  0  0999 V2000
   -2.4699   -1.2572   -0.0764 C   0  0  0  0  0  0  0  0  0  0  0  0
   -1.8199   -0.0390    0.5866 C   0  0  0  0  0  0  0  0  0  0  0  0
   -0.4438    0.0919    0.0007 C   0  0  0  0  0  0  0  0  0  0  0  0
    0.2861   -1.0426    0.2573 O   0  0  0  0  0  0  0  0  0  0  0  0
    1.5465   -0.6520    0.6611 C   0  0  0  0  0  0  0  0  0  0  0  0
    2.5490   -1.4977   -0.0999 C   0  0  0  0  0  0  0  0  0  0  0  0
    1.6735    0.7038    0.3689 O   0  0  0  0  0  0  0  0  0  0  0  0
    0.3824    1.1693    0.6299 C   0  0  0  0  0  0  0  0  0  0  0  0
    0.1787    2.5089   -0.0656 C   0  0  0  0  0  0  0  0  0  0  0  0
   -2.4922   -2.1275    0.5963 H   0  0  0  0  0  0  0  0  0  0  0  0
   -3.4979   -0.9909   -0.4575 H   0  0  0  0  0  0  0  0  0  0  0  0
   -1.9035   -1.5649   -0.9893 H   0  0  0  0  0  0  0  0  0  0  0  0
   -1.6942   -0.2881    1.6797 H   0  0  0  0  0  0  0  0  0  0  0  0
   -2.4312    0.8696    0.4626 H   0  0  0  0  0  0  0  0  0  0  0  0
   -0.5333    0.3039   -1.0830 H   0  0  0  0  0  0  0  0  0  0  0  0
    1.6740   -0.7559    1.7630 H   0  0  0  0  0  0  0  0  0  0  0  0
    3.5807   -1.2772    0.1868 H   0  0  0  0  0  0  0  0  0  0  0  0
    2.2652   -2.5628    0.1081 H   0  0  0  0  0  0  0  0  0  0  0  0
    2.3713   -1.2636   -1.1890 H   0  0  0  0  0  0  0  0  0  0  0  0
    0.2426    1.2730    1.7186 H   0  0  0  0  0  0  0  0  0  0  0  0
    0.8540    3.2348    0.4327 H   0  0  0  0  0  0  0  0  0  0  0  0
   -0.8801    2.7859   -0.0265 H   0  0  0  0  0  0  0  0  0  0  0  0
    0.5620    2.3783   -1.1000 H   0  0  0  0  0  0  0  0  0  0  0  0
  1  2  1  0
  2  3  1  0
  3  4  1  0
  4  5  1  0
  5  6  1  0
  5  7  1  0
  7  8  1  0
  8  9  1  0
  8  3  1  0
  1 10  1  0
  1 11  1  0
  1 12  1  0
  2 13  1  0
  2 14  1  0
  3 15  1  0
  5 16  1  0
  6 17  1  0
  6 18  1  0
  6 19  1  0
  8 20  1  0
  9 21  1  0
  9 22  1  0
  9 23  1  0
M  END
