
     RDKit          3D

 19 19  0  0  0  0  0  0  0  0999 V2000
    2.2223   -0.5107   -0.8689 C   0  0  0  0  0  0  0  0  0  0  0  0
    1.1301   -0.4333    0.1433 C   0  0  0  0  0  0  0  0  0  0  0  0
    0.1148    0.6478   -0.1423 C   0  0  0  0  0  0  0  0  0  0  0  0
   -0.9253    0.6031    0.9652 C   0  0  0  0  0  0  0  0  0  0  0  0
   -2.0219   -0.2456    0.3532 C   0  0  0  0  0  0  0  0  0  0  0  0
   -1.5358   -0.7461   -0.8360 O   0  0  0  0  0  0  0  0  0  0  0  0
   -0.7313    0.2874   -1.3511 C   0  0  0  0  0  0  0  0  0  0  0  0
    2.3176   -1.5307   -1.3267 H   0  0  0  0  0  0  0  0  0  0  0  0
    3.2403   -0.3201   -0.4196 H   0  0  0  0  0  0  0  0  0  0  0  0
    2.0856    0.1866   -1.7240 H   0  0  0  0  0  0  0  0  0  0  0  0
    1.5807   -0.2507    1.1406 H   0  0  0  0  0  0  0  0  0  0  0  0
    0.6098   -1.4258    0.1635 H   0  0  0  0  0  0  0  0  0  0  0  0
    0.5907    1.6247   -0.2197 H   0  0  0  0  0  0  0  0  0  0  0  0
   -1.3175    1.6229    1.1878 H   0  0  0  0  0  0  0  0  0  0  0  0
   -0.5692    0.0860    1.8634 H   0  0  0  0  0  0  0  0  0  0  0  0
   -2.9183    0.4101    0.1591 H   0  0  0  0  0  0  0  0  0  0  0  0
   -2.3478   -1.0572    1.0236 H   0  0  0  0  0  0  0  0  0  0  0  0
   -0.1291   -0.0584   -2.1971 H   0  0  0  0  0  0  0  0  0  0  0  0
   -1.3958    1.1102   -1.6025 H   0  0  0  0  0  0  0  0  0  0  0  0
  1  2  1  0
  2  3  1  0
  3  4  1  0
  4  5  1  0
  5  6  1  0
  6  7  1  0
  7  3  1  0
  1  8  1  0
  1  9  1  0
  1 10  1  0
  2 11  1  0
  2 12  1  0
  3 13  1  0
  4 14  1  0
  4 15  1  0
  5 16  1  0
  5 17  1  0
  7 18  1  0
  7 19  1  0
M  END
