
     RDKit          3D

 16 17  0  0  0  0  0  0  0  0999 V2000
    2.0345    0.3884    0.2232 C   0  0  0  0  0  0  0  0  0  0  0  0
    0.9638   -0.6796    0.0144 C   0  0  0  0  0  0  0  0  0  0  0  0
   -0.2377   -0.0811   -0.6404 C   0  0  0  0  0  0  0  0  0  0  0  0
   -1.4043   -0.9565   -0.9353 C   0  0  0  0  0  0  0  0  0  0  0  0
   -1.4714    0.0183    0.1669 C   0  0  0  0  0  0  0  0  0  0  0  0
   -1.4818    1.4451   -0.2238 C   0  0  0  0  0  0  0  0  0  0  0  0
   -2.3024    2.3648    0.0125 O   0  0  0  0  0  0  0  0  0  0  0  0
   -0.2903    1.3031   -0.8988 O   0  0  0  0  0  0  0  0  0  0  0  0
    2.9953   -0.1279    0.4609 H   0  0  0  0  0  0  0  0  0  0  0  0
    2.1652    0.9829   -0.6898 H   0  0  0  0  0  0  0  0  0  0  0  0
    1.7453    0.9555    1.1114 H   0  0  0  0  0  0  0  0  0  0  0  0
    1.3947   -1.4905   -0.6206 H   0  0  0  0  0  0  0  0  0  0  0  0
    0.6932   -1.1324    0.9859 H   0  0  0  0  0  0  0  0  0  0  0  0
   -1.2517   -2.0256   -0.7853 H   0  0  0  0  0  0  0  0  0  0  0  0
   -2.0496   -0.7006   -1.8237 H   0  0  0  0  0  0  0  0  0  0  0  0
   -1.5026   -0.2640    1.2289 H   0  0  0  0  0  0  0  0  0  0  0  0
  1  2  1  0
  2  3  1  0
  3  4  1  0
  4  5  1  0
  5  6  1  0
  6  7  2  0
  6  8  1  0
  5  3  1  0
  8  3  1  0
  1  9  1  0
  1 10  1  0
  1 11  1  0
  2 12  1  0
  2 13  1  0
  4 14  1  0
  4 15  1  0
  5 16  1  0
M  END
