
     RDKit          3D

 21 22  0  0  0  0  0  0  0  0999 V2000
    2.8365    0.2485    0.6288 C   0  0  0  0  0  0  0  0  0  0  0  0
    1.9389   -0.1861   -0.5337 C   0  0  0  0  0  0  0  0  0  0  0  0
    0.5515    0.3108   -0.2355 C   0  0  0  0  0  0  0  0  0  0  0  0
   -0.5708    0.0562   -1.1712 C   0  0  0  0  0  0  0  0  0  0  0  0
   -1.7829    0.8716   -1.0264 C   0  0  0  0  0  0  0  0  0  0  0  0
   -2.3478    0.6924    0.1445 C   0  0  0  0  0  0  0  0  0  0  0  0
   -1.5850   -0.2765    0.9529 C   0  0  0  0  0  0  0  0  0  0  0  0
   -2.4739   -1.2761    1.3393 O   0  0  0  0  0  0  0  0  0  0  0  0
   -0.5115   -0.7504    0.0469 C   0  0  0  0  0  0  0  0  0  0  0  0
    2.8446   -0.5988    1.3399 H   0  0  0  0  0  0  0  0  0  0  0  0
    3.8428    0.5397    0.2792 H   0  0  0  0  0  0  0  0  0  0  0  0
    2.3854    1.1301    1.1136 H   0  0  0  0  0  0  0  0  0  0  0  0
    2.3596    0.3319   -1.4309 H   0  0  0  0  0  0  0  0  0  0  0  0
    1.9927   -1.2709   -0.7109 H   0  0  0  0  0  0  0  0  0  0  0  0
    0.5192    1.2634    0.3025 H   0  0  0  0  0  0  0  0  0  0  0  0
   -0.3935   -0.4536   -2.1405 H   0  0  0  0  0  0  0  0  0  0  0  0
   -2.1728    1.5567   -1.8138 H   0  0  0  0  0  0  0  0  0  0  0  0
   -3.2748    1.2067    0.4705 H   0  0  0  0  0  0  0  0  0  0  0  0
   -1.1383    0.1939    1.8669 H   0  0  0  0  0  0  0  0  0  0  0  0
   -2.8091   -1.7760    0.5798 H   0  0  0  0  0  0  0  0  0  0  0  0
   -0.2109   -1.8136   -0.0019 H   0  0  0  0  0  0  0  0  0  0  0  0
  1  2  1  0
  2  3  1  0
  3  4  1  0
  4  5  1  0
  5  6  2  0
  6  7  1  0
  7  8  1  0
  7  9  1  0
  9  3  1  0
  9  4  1  0
  1 10  1  0
  1 11  1  0
  1 12  1  0
  2 13  1  0
  2 14  1  0
  3 15  1  0
  4 16  1  0
  5 17  1  0
  6 18  1  0
  7 19  1  0
  8 20  1  0
  9 21  1  0
M  END
