
     RDKit          3D

 21 22  0  0  0  0  0  0  0  0999 V2000
   -3.0291    0.7005    0.0452 C   0  0  0  0  0  0  0  0  0  0  0  0
   -2.0642   -0.4122    0.3719 C   0  0  0  0  0  0  0  0  0  0  0  0
   -0.7747   -0.2804   -0.3723 C   0  0  0  0  0  0  0  0  0  0  0  0
    0.2590   -1.3132   -0.1384 C   0  0  0  0  0  0  0  0  0  0  0  0
    1.6141   -1.1852   -0.7099 C   0  0  0  0  0  0  0  0  0  0  0  0
    2.3991   -1.9889   -1.1793 O   0  0  0  0  0  0  0  0  0  0  0  0
    1.6767    0.2807   -0.5061 C   0  0  0  0  0  0  0  0  0  0  0  0
    2.8967    0.7984    0.1894 C   0  0  0  0  0  0  0  0  0  0  0  0
    0.4358    0.1494    0.3525 C   0  0  0  0  0  0  0  0  0  0  0  0
   -2.8941    0.9937   -1.0150 H   0  0  0  0  0  0  0  0  0  0  0  0
   -4.0815    0.4198    0.2615 H   0  0  0  0  0  0  0  0  0  0  0  0
   -2.8383    1.6149    0.6708 H   0  0  0  0  0  0  0  0  0  0  0  0
   -1.8717   -0.3958    1.4835 H   0  0  0  0  0  0  0  0  0  0  0  0
   -2.5935   -1.3691    0.1884 H   0  0  0  0  0  0  0  0  0  0  0  0
   -0.8823    0.1120   -1.4053 H   0  0  0  0  0  0  0  0  0  0  0  0
    0.0374   -2.0738    0.6266 H   0  0  0  0  0  0  0  0  0  0  0  0
    1.4510    0.8724   -1.4025 H   0  0  0  0  0  0  0  0  0  0  0  0
    2.6773    1.4543    1.0521 H   0  0  0  0  0  0  0  0  0  0  0  0
    3.5602   -0.0055    0.5693 H   0  0  0  0  0  0  0  0  0  0  0  0
    3.5204    1.3981   -0.5210 H   0  0  0  0  0  0  0  0  0  0  0  0
    0.5018    0.2299    1.4387 H   0  0  0  0  0  0  0  0  0  0  0  0
  1  2  1  0
  2  3  1  0
  3  4  1  0
  4  5  1  0
  5  6  2  0
  5  7  1  0
  7  8  1  0
  7  9  1  0
  9  3  1  0
  9  4  1  0
  1 10  1  0
  1 11  1  0
  1 12  1  0
  2 13  1  0
  2 14  1  0
  3 15  1  0
  4 16  1  0
  7 17  1  0
  8 18  1  0
  8 19  1  0
  8 20  1  0
  9 21  1  0
M  END
