
     RDKit          3D

 23 24  0  0  0  0  0  0  0  0999 V2000
    2.4308   -0.7489   -0.0846 C   0  0  0  0  0  0  0  0  0  0  0  0
    1.2296   -0.3223   -0.8762 C   0  0  0  0  0  0  0  0  0  0  0  0
    0.2128    0.4325   -0.1199 C   0  0  0  0  0  0  0  0  0  0  0  0
    0.6336    1.7096    0.5042 C   0  0  0  0  0  0  0  0  0  0  0  0
    0.1390    0.5845    1.3130 C   0  0  0  0  0  0  0  0  0  0  0  0
   -1.3717    0.3628    1.2697 C   0  0  0  0  0  0  0  0  0  0  0  0
   -1.2528    0.1465   -0.2289 C   0  0  0  0  0  0  0  0  0  0  0  0
   -1.6269   -1.2419   -0.6459 C   0  0  0  0  0  0  0  0  0  0  0  0
   -1.9514    1.1346   -0.9303 O   0  0  0  0  0  0  0  0  0  0  0  0
    2.3602   -0.3028    0.9289 H   0  0  0  0  0  0  0  0  0  0  0  0
    2.4659   -1.8657    0.0766 H   0  0  0  0  0  0  0  0  0  0  0  0
    3.3888   -0.3822   -0.5120 H   0  0  0  0  0  0  0  0  0  0  0  0
    1.6164    0.3478   -1.6996 H   0  0  0  0  0  0  0  0  0  0  0  0
    0.8463   -1.2202   -1.4038 H   0  0  0  0  0  0  0  0  0  0  0  0
   -0.0478    2.5788    0.2763 H   0  0  0  0  0  0  0  0  0  0  0  0
    1.7115    1.9448    0.5181 H   0  0  0  0  0  0  0  0  0  0  0  0
    0.7081    0.0594    2.0693 H   0  0  0  0  0  0  0  0  0  0  0  0
   -1.6980   -0.5332    1.8261 H   0  0  0  0  0  0  0  0  0  0  0  0
   -1.9315    1.2657    1.5630 H   0  0  0  0  0  0  0  0  0  0  0  0
   -0.8798   -1.9889   -0.3807 H   0  0  0  0  0  0  0  0  0  0  0  0
   -1.8104   -1.2123   -1.7546 H   0  0  0  0  0  0  0  0  0  0  0  0
   -2.5862   -1.5091   -0.1235 H   0  0  0  0  0  0  0  0  0  0  0  0
   -2.5866    0.7603   -1.5853 H   0  0  0  0  0  0  0  0  0  0  0  0
  1  2  1  0
  2  3  1  0
  3  4  1  0
  4  5  1  0
  5  6  1  0
  6  7  1  0
  7  8  1  0
  7  9  1  0
  5  3  1  0
  7  3  1  0
  1 10  1  0
  1 11  1  0
  1 12  1  0
  2 13  1  0
  2 14  1  0
  4 15  1  0
  4 16  1  0
  5 17  1  0
  6 18  1  0
  6 19  1  0
  8 20  1  0
  8 21  1  0
  8 22  1  0
  9 23  1  0
M  END
