
     RDKit          3D

 19 20  0  0  0  0  0  0  0  0999 V2000
    2.3190    0.3132    0.0071 C   0  0  0  0  0  0  0  0  0  0  0  0
    1.2369   -0.4360   -0.7379 C   0  0  0  0  0  0  0  0  0  0  0  0
   -0.1106   -0.1996   -0.1969 C   0  0  0  0  0  0  0  0  0  0  0  0
   -0.5658    1.2130   -0.2148 C   0  0  0  0  0  0  0  0  0  0  0  0
   -1.8996    1.1356   -0.1417 C   0  0  0  0  0  0  0  0  0  0  0  0
   -2.1991   -0.3435   -0.1499 C   0  0  0  0  0  0  0  0  0  0  0  0
   -1.8398   -0.8229    1.0945 O   0  0  0  0  0  0  0  0  0  0  0  0
   -0.4253   -0.8818    1.1101 C   0  0  0  0  0  0  0  0  0  0  0  0
   -1.1392   -0.7698   -0.9915 O   0  0  0  0  0  0  0  0  0  0  0  0
    2.3513    1.3774   -0.3155 H   0  0  0  0  0  0  0  0  0  0  0  0
    3.2990   -0.1387   -0.2919 H   0  0  0  0  0  0  0  0  0  0  0  0
    2.2257    0.1941    1.0965 H   0  0  0  0  0  0  0  0  0  0  0  0
    1.2977   -0.2188   -1.8046 H   0  0  0  0  0  0  0  0  0  0  0  0
    1.4697   -1.5272   -0.5859 H   0  0  0  0  0  0  0  0  0  0  0  0
   -0.0311    2.1513   -0.2712 H   0  0  0  0  0  0  0  0  0  0  0  0
   -2.6469    1.8909   -0.0874 H   0  0  0  0  0  0  0  0  0  0  0  0
   -3.1712   -0.6002   -0.5061 H   0  0  0  0  0  0  0  0  0  0  0  0
   -0.1657   -1.9491    1.0052 H   0  0  0  0  0  0  0  0  0  0  0  0
   -0.0049   -0.3878    1.9818 H   0  0  0  0  0  0  0  0  0  0  0  0
  1  2  1  0
  2  3  1  0
  3  4  1  0
  4  5  2  0
  5  6  1  0
  6  7  1  0
  7  8  1  0
  6  9  1  0
  8  3  1  0
  9  3  1  0
  1 10  1  0
  1 11  1  0
  1 12  1  0
  2 13  1  0
  2 14  1  0
  4 15  1  0
  5 16  1  0
  6 17  1  0
  8 18  1  0
  8 19  1  0
M  END
