
     RDKit          3D

 21 22  0  0  0  0  0  0  0  0999 V2000
   -2.7102   -0.0027   -0.2929 C   0  0  0  0  0  0  0  0  0  0  0  0
   -1.2855   -0.1340   -0.7822 C   0  0  0  0  0  0  0  0  0  0  0  0
   -0.3777    0.4161    0.2520 C   0  0  0  0  0  0  0  0  0  0  0  0
    1.0969    0.3862   -0.0293 C   0  0  0  0  0  0  0  0  0  0  0  0
    1.7151   -0.6964   -0.7835 C   0  0  0  0  0  0  0  0  0  0  0  0
    3.1022   -0.4003   -0.8590 O   0  0  0  0  0  0  0  0  0  0  0  0
    1.1728    0.4131    1.4567 C   0  0  0  0  0  0  0  0  0  0  0  0
    0.8188   -0.4724    2.3557 O   0  0  0  0  0  0  0  0  0  0  0  0
   -0.0385   -0.5546    1.3424 C   0  0  0  0  0  0  0  0  0  0  0  0
   -3.4350   -0.4583   -1.0028 H   0  0  0  0  0  0  0  0  0  0  0  0
   -2.9592    1.0796   -0.1908 H   0  0  0  0  0  0  0  0  0  0  0  0
   -2.8122   -0.4722    0.7019 H   0  0  0  0  0  0  0  0  0  0  0  0
   -1.2285    0.3831   -1.7587 H   0  0  0  0  0  0  0  0  0  0  0  0
   -1.1184   -1.2264   -0.9764 H   0  0  0  0  0  0  0  0  0  0  0  0
   -0.6985    1.4175    0.5827 H   0  0  0  0  0  0  0  0  0  0  0  0
    1.3871    1.3764   -0.4866 H   0  0  0  0  0  0  0  0  0  0  0  0
    1.3254   -0.7121   -1.8425 H   0  0  0  0  0  0  0  0  0  0  0  0
    1.6826   -1.7139   -0.4116 H   0  0  0  0  0  0  0  0  0  0  0  0
    3.3830   -0.0873    0.0443 H   0  0  0  0  0  0  0  0  0  0  0  0
    0.8453    1.4433    1.8284 H   0  0  0  0  0  0  0  0  0  0  0  0
    0.1347   -1.5601    0.8520 H   0  0  0  0  0  0  0  0  0  0  0  0
  1  2  1  0
  2  3  1  0
  3  4  1  0
  4  5  1  0
  5  6  1  0
  4  7  1  0
  7  8  1  0
  8  9  1  0
  9  3  1  0
  9  7  1  0
  1 10  1  0
  1 11  1  0
  1 12  1  0
  2 13  1  0
  2 14  1  0
  3 15  1  0
  4 16  1  0
  5 17  1  0
  5 18  1  0
  6 19  1  0
  7 20  1  0
  9 21  1  0
M  END
