
     RDKit          3D

 23 24  0  0  0  0  0  0  0  0999 V2000
   -2.4657   -1.4043   -0.3368 C   0  0  0  0  0  0  0  0  0  0  0  0
   -1.9052   -0.0657   -0.7667 C   0  0  0  0  0  0  0  0  0  0  0  0
   -0.6804    0.2202    0.1141 C   0  0  0  0  0  0  0  0  0  0  0  0
    0.4173   -0.7509    0.0440 C   0  0  0  0  0  0  0  0  0  0  0  0
    1.6071   -0.1574    0.0378 C   0  0  0  0  0  0  0  0  0  0  0  0
    2.9299   -0.8562   -0.0267 C   0  0  0  0  0  0  0  0  0  0  0  0
    1.4743    1.3143    0.1039 C   0  0  0  0  0  0  0  0  0  0  0  0
   -0.0070    1.5404   -0.0443 C   0  0  0  0  0  0  0  0  0  0  0  0
   -0.8086    1.2146    1.1841 C   0  0  0  0  0  0  0  0  0  0  0  0
   -1.8560   -1.8793    0.4679 H   0  0  0  0  0  0  0  0  0  0  0  0
   -3.4771   -1.2646    0.0706 H   0  0  0  0  0  0  0  0  0  0  0  0
   -2.4670   -2.1144   -1.2127 H   0  0  0  0  0  0  0  0  0  0  0  0
   -2.6459    0.7491   -0.6547 H   0  0  0  0  0  0  0  0  0  0  0  0
   -1.5020   -0.1520   -1.7975 H   0  0  0  0  0  0  0  0  0  0  0  0
    0.3035   -1.8300    0.0013 H   0  0  0  0  0  0  0  0  0  0  0  0
    3.6563   -0.2899   -0.6531 H   0  0  0  0  0  0  0  0  0  0  0  0
    3.2949   -1.1033    0.9698 H   0  0  0  0  0  0  0  0  0  0  0  0
    2.7979   -1.8406   -0.5650 H   0  0  0  0  0  0  0  0  0  0  0  0
    1.7637    1.7303    1.1020 H   0  0  0  0  0  0  0  0  0  0  0  0
    2.0631    1.8246   -0.6966 H   0  0  0  0  0  0  0  0  0  0  0  0
   -0.3714    2.2820   -0.7755 H   0  0  0  0  0  0  0  0  0  0  0  0
   -1.8160    1.6987    1.2726 H   0  0  0  0  0  0  0  0  0  0  0  0
   -0.3055    1.1344    2.1618 H   0  0  0  0  0  0  0  0  0  0  0  0
  1  2  1  0
  2  3  1  0
  3  4  1  0
  4  5  2  0
  5  6  1  0
  5  7  1  0
  7  8  1  0
  8  9  1  0
  8  3  1  0
  9  3  1  0
  1 10  1  0
  1 11  1  0
  1 12  1  0
  2 13  1  0
  2 14  1  0
  4 15  1  0
  6 16  1  0
  6 17  1  0
  6 18  1  0
  7 19  1  0
  7 20  1  0
  8 21  1  0
  9 22  1  0
  9 23  1  0
M  END
