
     RDKit          3D

 25 26  0  0  0  0  0  0  0  0999 V2000
   -1.8196    1.5400    0.8136 C   0  0  0  0  0  0  0  0  0  0  0  0
   -1.9957    0.2322    0.1133 C   0  0  0  0  0  0  0  0  0  0  0  0
   -0.7282   -0.5426   -0.0778 C   0  0  0  0  0  0  0  0  0  0  0  0
   -1.0152   -1.8431   -0.7932 C   0  0  0  0  0  0  0  0  0  0  0  0
   -0.0099   -0.7064    1.2504 C   0  0  0  0  0  0  0  0  0  0  0  0
    1.0311    0.2763    0.7142 C   0  0  0  0  0  0  0  0  0  0  0  0
    1.8364   -0.2545   -0.4010 C   0  0  0  0  0  0  0  0  0  0  0  0
    2.9394    0.6123   -0.9119 C   0  0  0  0  0  0  0  0  0  0  0  0
    0.4404    0.2021   -0.6170 C   0  0  0  0  0  0  0  0  0  0  0  0
   -2.7883    1.8527    1.3015 H   0  0  0  0  0  0  0  0  0  0  0  0
   -1.0831    1.5238    1.6400 H   0  0  0  0  0  0  0  0  0  0  0  0
   -1.6058    2.3325    0.0588 H   0  0  0  0  0  0  0  0  0  0  0  0
   -2.7433   -0.3557    0.6841 H   0  0  0  0  0  0  0  0  0  0  0  0
   -2.4938    0.4548   -0.8716 H   0  0  0  0  0  0  0  0  0  0  0  0
   -0.6015   -1.8322   -1.8351 H   0  0  0  0  0  0  0  0  0  0  0  0
   -0.5907   -2.6621   -0.1864 H   0  0  0  0  0  0  0  0  0  0  0  0
   -2.1033   -2.0276   -0.9019 H   0  0  0  0  0  0  0  0  0  0  0  0
    0.3911   -1.7596    1.2987 H   0  0  0  0  0  0  0  0  0  0  0  0
   -0.5530   -0.3802    2.1375 H   0  0  0  0  0  0  0  0  0  0  0  0
    1.2592    1.1837    1.2567 H   0  0  0  0  0  0  0  0  0  0  0  0
    2.0847   -1.3316   -0.3571 H   0  0  0  0  0  0  0  0  0  0  0  0
    3.3504    0.2449   -1.8824 H   0  0  0  0  0  0  0  0  0  0  0  0
    2.6931    1.6796   -0.9549 H   0  0  0  0  0  0  0  0  0  0  0  0
    3.8002    0.5047   -0.1882 H   0  0  0  0  0  0  0  0  0  0  0  0
    0.3057    1.0560   -1.2901 H   0  0  0  0  0  0  0  0  0  0  0  0
  1  2  1  0
  2  3  1  0
  3  4  1  0
  3  5  1  0
  5  6  1  0
  6  7  1  0
  7  8  1  0
  7  9  1  0
  9  3  1  0
  9  6  1  0
  1 10  1  0
  1 11  1  0
  1 12  1  0
  2 13  1  0
  2 14  1  0
  4 15  1  0
  4 16  1  0
  4 17  1  0
  5 18  1  0
  5 19  1  0
  6 20  1  0
  7 21  1  0
  8 22  1  0
  8 23  1  0
  8 24  1  0
  9 25  1  0
M  END
