
     RDKit          3D

 23 24  0  0  0  0  0  0  0  0999 V2000
   -2.7502    0.2863    0.6695 C   0  0  0  0  0  0  0  0  0  0  0  0
   -1.2643    0.4554    0.6168 C   0  0  0  0  0  0  0  0  0  0  0  0
   -0.6400   -0.6121   -0.2445 C   0  0  0  0  0  0  0  0  0  0  0  0
    0.8551   -0.6049   -0.4177 C   0  0  0  0  0  0  0  0  0  0  0  0
    1.7731   -0.7369    0.7352 C   0  0  0  0  0  0  0  0  0  0  0  0
    1.6476    0.5546    0.0673 C   0  0  0  0  0  0  0  0  0  0  0  0
    2.7033    1.0728   -0.8918 C   0  0  0  0  0  0  0  0  0  0  0  0
   -1.5056   -1.0522   -1.3921 C   0  0  0  0  0  0  0  0  0  0  0  0
   -1.2188   -1.8682   -0.3070 O   0  0  0  0  0  0  0  0  0  0  0  0
   -3.2582    0.8232   -0.1642 H   0  0  0  0  0  0  0  0  0  0  0  0
   -3.1049    0.7104    1.6279 H   0  0  0  0  0  0  0  0  0  0  0  0
   -3.0258   -0.7804    0.5857 H   0  0  0  0  0  0  0  0  0  0  0  0
   -0.8136    0.5022    1.6277 H   0  0  0  0  0  0  0  0  0  0  0  0
   -1.0413    1.4356    0.1259 H   0  0  0  0  0  0  0  0  0  0  0  0
    1.1823   -1.0984   -1.3630 H   0  0  0  0  0  0  0  0  0  0  0  0
    2.6934   -1.3783    0.6244 H   0  0  0  0  0  0  0  0  0  0  0  0
    1.3346   -0.8543    1.7594 H   0  0  0  0  0  0  0  0  0  0  0  0
    1.1719    1.3747    0.6459 H   0  0  0  0  0  0  0  0  0  0  0  0
    3.1958    0.2258   -1.3796 H   0  0  0  0  0  0  0  0  0  0  0  0
    2.1518    1.7325   -1.6161 H   0  0  0  0  0  0  0  0  0  0  0  0
    3.4239    1.7260   -0.3263 H   0  0  0  0  0  0  0  0  0  0  0  0
   -0.9748   -1.2033   -2.3495 H   0  0  0  0  0  0  0  0  0  0  0  0
   -2.5353   -0.7104   -1.4839 H   0  0  0  0  0  0  0  0  0  0  0  0
  1  2  1  0
  2  3  1  0
  3  4  1  0
  4  5  1  0
  5  6  1  0
  6  7  1  0
  3  8  1  0
  8  9  1  0
  9  3  1  0
  6  4  1  0
  1 10  1  0
  1 11  1  0
  1 12  1  0
  2 13  1  0
  2 14  1  0
  4 15  1  0
  5 16  1  0
  5 17  1  0
  6 18  1  0
  7 19  1  0
  7 20  1  0
  7 21  1  0
  8 22  1  0
  8 23  1  0
M  END
