
     RDKit          3D

 19 19  0  0  0  0  0  0  0  0999 V2000
   -2.5440    0.2403    0.2092 C   0  0  0  0  0  0  0  0  0  0  0  0
   -1.5626   -0.7507   -0.2660 C   0  0  0  0  0  0  0  0  0  0  0  0
   -0.1638   -0.2974   -0.3240 C   0  0  0  0  0  0  0  0  0  0  0  0
    0.2602    0.9095    0.0133 C   0  0  0  0  0  0  0  0  0  0  0  0
    1.7107    1.2741   -0.0819 C   0  0  0  0  0  0  0  0  0  0  0  0
    2.5842    0.0918    0.1646 C   0  0  0  0  0  0  0  0  0  0  0  0
    3.7760    0.2396    0.4915 O   0  0  0  0  0  0  0  0  0  0  0  0
    2.0331   -1.1639    0.0198 O   0  0  0  0  0  0  0  0  0  0  0  0
    0.8608   -1.2697   -0.7994 C   0  0  0  0  0  0  0  0  0  0  0  0
   -2.9707    0.8899   -0.6096 H   0  0  0  0  0  0  0  0  0  0  0  0
   -3.4442   -0.3221    0.5995 H   0  0  0  0  0  0  0  0  0  0  0  0
   -2.2196    0.8777    1.0471 H   0  0  0  0  0  0  0  0  0  0  0  0
   -1.6085   -1.6771    0.3433 H   0  0  0  0  0  0  0  0  0  0  0  0
   -1.8449   -1.0617   -1.3097 H   0  0  0  0  0  0  0  0  0  0  0  0
   -0.4500    1.6212    0.3554 H   0  0  0  0  0  0  0  0  0  0  0  0
    1.9887    2.0304    0.6781 H   0  0  0  0  0  0  0  0  0  0  0  0
    1.9657    1.6814   -1.0763 H   0  0  0  0  0  0  0  0  0  0  0  0
    0.5289   -2.3097   -0.7352 H   0  0  0  0  0  0  0  0  0  0  0  0
    1.0999   -1.0034   -1.8448 H   0  0  0  0  0  0  0  0  0  0  0  0
  1  2  1  0
  2  3  1  0
  3  4  2  0
  4  5  1  0
  5  6  1  0
  6  7  2  0
  6  8  1  0
  8  9  1  0
  9  3  1  0
  1 10  1  0
  1 11  1  0
  1 12  1  0
  2 13  1  0
  2 14  1  0
  4 15  1  0
  5 16  1  0
  5 17  1  0
  9 18  1  0
  9 19  1  0
M  END
