
     RDKit          3D

 22 23  0  0  0  0  0  0  0  0999 V2000
   -3.0429   -0.1948    0.1074 C   0  0  0  0  0  0  0  0  0  0  0  0
   -1.8472    0.7079   -0.0672 C   0  0  0  0  0  0  0  0  0  0  0  0
   -0.5910    0.0940    0.4688 C   0  0  0  0  0  0  0  0  0  0  0  0
    0.5832    1.0455    0.2674 C   0  0  0  0  0  0  0  0  0  0  0  0
    1.3691   -0.1142   -0.2045 C   0  0  0  0  0  0  0  0  0  0  0  0
    2.5932   -0.1302   -0.9334 C   0  0  0  0  0  0  0  0  0  0  0  0
    2.5192   -0.6287    0.5072 C   0  0  0  0  0  0  0  0  0  0  0  0
    0.1219   -0.8526   -0.5059 C   0  0  0  0  0  0  0  0  0  0  0  0
   -2.7776   -1.2696   -0.0088 H   0  0  0  0  0  0  0  0  0  0  0  0
   -3.8249    0.1366   -0.6047 H   0  0  0  0  0  0  0  0  0  0  0  0
   -3.4887   -0.0889    1.1290 H   0  0  0  0  0  0  0  0  0  0  0  0
   -2.0551    1.6171    0.5695 H   0  0  0  0  0  0  0  0  0  0  0  0
   -1.7444    1.0561   -1.0984 H   0  0  0  0  0  0  0  0  0  0  0  0
   -0.6966   -0.3264    1.4644 H   0  0  0  0  0  0  0  0  0  0  0  0
    0.3774    1.8553   -0.4727 H   0  0  0  0  0  0  0  0  0  0  0  0
    0.8655    1.4767    1.2459 H   0  0  0  0  0  0  0  0  0  0  0  0
    3.1924    0.7779   -1.1500 H   0  0  0  0  0  0  0  0  0  0  0  0
    2.8082   -0.9569   -1.6503 H   0  0  0  0  0  0  0  0  0  0  0  0
    3.0446    0.0514    1.2230 H   0  0  0  0  0  0  0  0  0  0  0  0
    2.6914   -1.6860    0.7240 H   0  0  0  0  0  0  0  0  0  0  0  0
   -0.1991   -0.6586   -1.5708 H   0  0  0  0  0  0  0  0  0  0  0  0
    0.1015   -1.9117   -0.2065 H   0  0  0  0  0  0  0  0  0  0  0  0
  1  2  1  0
  2  3  1  0
  3  4  1  0
  4  5  1  0
  5  6  1  0
  6  7  1  0
  5  8  1  0
  8  3  1  0
  7  5  1  0
  1  9  1  0
  1 10  1  0
  1 11  1  0
  2 12  1  0
  2 13  1  0
  3 14  1  0
  4 15  1  0
  4 16  1  0
  6 17  1  0
  6 18  1  0
  7 19  1  0
  7 20  1  0
  8 21  1  0
  8 22  1  0
M  END
