
     RDKit          3D

 23 24  0  0  0  0  0  0  0  0999 V2000
    2.0596    1.2138   -0.1079 C   0  0  0  0  0  0  0  0  0  0  0  0
    1.2453   -0.0508   -0.0754 C   0  0  0  0  0  0  0  0  0  0  0  0
    0.0126    0.0633    0.7863 C   0  0  0  0  0  0  0  0  0  0  0  0
   -0.7402   -1.2596    0.7549 C   0  0  0  0  0  0  0  0  0  0  0  0
    0.0043   -2.3933    0.1272 C   0  0  0  0  0  0  0  0  0  0  0  0
   -1.7218   -0.5414   -0.1789 C   0  0  0  0  0  0  0  0  0  0  0  0
   -2.4612    0.3917    0.5330 O   0  0  0  0  0  0  0  0  0  0  0  0
   -1.1839    0.6740    0.0979 C   0  0  0  0  0  0  0  0  0  0  0  0
   -1.0640    1.9319   -0.6811 C   0  0  0  0  0  0  0  0  0  0  0  0
    2.2232    1.5853   -1.1573 H   0  0  0  0  0  0  0  0  0  0  0  0
    3.1069    1.0141    0.2670 H   0  0  0  0  0  0  0  0  0  0  0  0
    1.5477    1.9605    0.5259 H   0  0  0  0  0  0  0  0  0  0  0  0
    0.9116   -0.2501   -1.1140 H   0  0  0  0  0  0  0  0  0  0  0  0
    1.8858   -0.8814    0.2284 H   0  0  0  0  0  0  0  0  0  0  0  0
    0.1708    0.3759    1.8270 H   0  0  0  0  0  0  0  0  0  0  0  0
   -1.2049   -1.5509    1.6972 H   0  0  0  0  0  0  0  0  0  0  0  0
    0.3536   -2.2005   -0.8988 H   0  0  0  0  0  0  0  0  0  0  0  0
    0.9081   -2.5855    0.7774 H   0  0  0  0  0  0  0  0  0  0  0  0
   -0.6089   -3.2958    0.1998 H   0  0  0  0  0  0  0  0  0  0  0  0
   -2.1196   -1.0578   -1.0431 H   0  0  0  0  0  0  0  0  0  0  0  0
   -1.9333    1.9711   -1.3987 H   0  0  0  0  0  0  0  0  0  0  0  0
   -1.2697    2.7884    0.0263 H   0  0  0  0  0  0  0  0  0  0  0  0
   -0.1220    2.0970   -1.1930 H   0  0  0  0  0  0  0  0  0  0  0  0
  1  2  1  0
  2  3  1  0
  3  4  1  0
  4  5  1  0
  4  6  1  0
  6  7  1  0
  7  8  1  0
  8  9  1  0
  8  3  1  0
  8  6  1  0
  1 10  1  0
  1 11  1  0
  1 12  1  0
  2 13  1  0
  2 14  1  0
  3 15  1  0
  4 16  1  0
  5 17  1  0
  5 18  1  0
  5 19  1  0
  6 20  1  0
  9 21  1  0
  9 22  1  0
  9 23  1  0
M  END
