
     RDKit          3D

 23 23  0  0  0  0  0  0  0  0999 V2000
   -2.4106    0.4149    0.3974 C   0  0  0  0  0  0  0  0  0  0  0  0
   -1.3659   -0.6367    0.2979 C   0  0  0  0  0  0  0  0  0  0  0  0
   -0.0706   -0.1772   -0.2966 C   0  0  0  0  0  0  0  0  0  0  0  0
   -0.2223    0.3426   -1.6849 C   0  0  0  0  0  0  0  0  0  0  0  0
    1.0198   -1.2187   -0.1570 C   0  0  0  0  0  0  0  0  0  0  0  0
    1.4655   -0.4971    1.1002 C   0  0  0  0  0  0  0  0  0  0  0  0
    2.8132   -0.2801    1.2208 O   0  0  0  0  0  0  0  0  0  0  0  0
    0.7626    0.7456    0.5442 C   0  0  0  0  0  0  0  0  0  0  0  0
    1.6328    1.5053   -0.2502 O   0  0  0  0  0  0  0  0  0  0  0  0
   -3.2754   -0.0099    0.9490 H   0  0  0  0  0  0  0  0  0  0  0  0
   -2.0722    1.2901    0.9881 H   0  0  0  0  0  0  0  0  0  0  0  0
   -2.7992    0.7162   -0.5952 H   0  0  0  0  0  0  0  0  0  0  0  0
   -1.1768   -1.0955    1.2830 H   0  0  0  0  0  0  0  0  0  0  0  0
   -1.7591   -1.4507   -0.3645 H   0  0  0  0  0  0  0  0  0  0  0  0
   -0.8951   -0.3237   -2.2440 H   0  0  0  0  0  0  0  0  0  0  0  0
   -0.7044    1.3607   -1.6052 H   0  0  0  0  0  0  0  0  0  0  0  0
    0.7620    0.4831   -2.1830 H   0  0  0  0  0  0  0  0  0  0  0  0
    1.8163   -1.1291   -0.9240 H   0  0  0  0  0  0  0  0  0  0  0  0
    0.6450   -2.2328   -0.0026 H   0  0  0  0  0  0  0  0  0  0  0  0
    0.9605   -0.8244    2.0256 H   0  0  0  0  0  0  0  0  0  0  0  0
    3.3527   -0.7311    0.5339 H   0  0  0  0  0  0  0  0  0  0  0  0
    0.2482    1.3301    1.3090 H   0  0  0  0  0  0  0  0  0  0  0  0
    1.2731    2.4183   -0.3420 H   0  0  0  0  0  0  0  0  0  0  0  0
  1  2  1  0
  2  3  1  0
  3  4  1  0
  3  5  1  0
  5  6  1  0
  6  7  1  0
  6  8  1  0
  8  9  1  0
  8  3  1  0
  1 10  1  0
  1 11  1  0
  1 12  1  0
  2 13  1  0
  2 14  1  0
  4 15  1  0
  4 16  1  0
  4 17  1  0
  5 18  1  0
  5 19  1  0
  6 20  1  0
  7 21  1  0
  8 22  1  0
  9 23  1  0
M  END
