
     RDKit          3D

 21 23  0  0  0  0  0  0  0  0999 V2000
    2.5139    0.6437   -0.3399 C   0  0  0  0  0  0  0  0  0  0  0  0
    1.8778   -0.6967   -0.5048 C   0  0  0  0  0  0  0  0  0  0  0  0
    0.6086   -0.8037    0.2592 C   0  0  0  0  0  0  0  0  0  0  0  0
    0.6766   -0.6341    1.6142 O   0  0  0  0  0  0  0  0  0  0  0  0
    0.0351    0.3968    0.9821 C   0  0  0  0  0  0  0  0  0  0  0  0
   -1.3337    0.0739    0.4486 C   0  0  0  0  0  0  0  0  0  0  0  0
   -2.2193    1.1662   -0.0584 C   0  0  0  0  0  0  0  0  0  0  0  0
   -1.8533   -1.2939    0.4195 C   0  0  0  0  0  0  0  0  0  0  0  0
   -0.7178   -0.9355   -0.4371 C   0  0  0  0  0  0  0  0  0  0  0  0
    1.9730    1.4401   -0.8997 H   0  0  0  0  0  0  0  0  0  0  0  0
    3.5743    0.6615   -0.6772 H   0  0  0  0  0  0  0  0  0  0  0  0
    2.5224    0.9521    0.7202 H   0  0  0  0  0  0  0  0  0  0  0  0
    1.7798   -0.9510   -1.5782 H   0  0  0  0  0  0  0  0  0  0  0  0
    2.5877   -1.4534   -0.0741 H   0  0  0  0  0  0  0  0  0  0  0  0
    0.5197    1.3391    0.7392 H   0  0  0  0  0  0  0  0  0  0  0  0
   -2.2855    1.2405   -1.1435 H   0  0  0  0  0  0  0  0  0  0  0  0
   -3.2344    1.0041    0.4062 H   0  0  0  0  0  0  0  0  0  0  0  0
   -1.8653    2.1326    0.3990 H   0  0  0  0  0  0  0  0  0  0  0  0
   -2.8156   -1.4613   -0.0622 H   0  0  0  0  0  0  0  0  0  0  0  0
   -1.6085   -1.9347    1.3030 H   0  0  0  0  0  0  0  0  0  0  0  0
   -0.7354   -0.8864   -1.5163 H   0  0  0  0  0  0  0  0  0  0  0  0
  1  2  1  0
  2  3  1  0
  3  4  1  0
  4  5  1  0
  5  6  1  0
  6  7  1  0
  6  8  1  0
  8  9  1  0
  5  3  1  0
  9  6  1  0
  9  3  1  0
  1 10  1  0
  1 11  1  0
  1 12  1  0
  2 13  1  0
  2 14  1  0
  5 15  1  0
  7 16  1  0
  7 17  1  0
  7 18  1  0
  8 19  1  0
  8 20  1  0
  9 21  1  0
M  END
