
     RDKit          3D

 21 22  0  0  0  0  0  0  0  0999 V2000
   -2.0061   -0.9039    0.0437 C   0  0  0  0  0  0  0  0  0  0  0  0
   -1.4284    0.3048   -0.6014 C   0  0  0  0  0  0  0  0  0  0  0  0
    0.0199    0.5399   -0.3118 C   0  0  0  0  0  0  0  0  0  0  0  0
    0.4630    1.7939   -1.0297 C   0  0  0  0  0  0  0  0  0  0  0  0
    0.6985    2.8263   -0.4378 O   0  0  0  0  0  0  0  0  0  0  0  0
    0.3961    0.6685    1.1434 C   0  0  0  0  0  0  0  0  0  0  0  0
    1.6587   -0.1211    0.7701 C   0  0  0  0  0  0  0  0  0  0  0  0
    1.4030   -1.5324    0.4785 C   0  0  0  0  0  0  0  0  0  0  0  0
    0.9619   -0.5829   -0.5416 C   0  0  0  0  0  0  0  0  0  0  0  0
   -2.3116   -0.7287    1.1080 H   0  0  0  0  0  0  0  0  0  0  0  0
   -1.3806   -1.8119   -0.0233 H   0  0  0  0  0  0  0  0  0  0  0  0
   -2.9795   -1.1283   -0.4838 H   0  0  0  0  0  0  0  0  0  0  0  0
   -1.9869    1.1976   -0.1919 H   0  0  0  0  0  0  0  0  0  0  0  0
   -1.5704    0.3155   -1.6884 H   0  0  0  0  0  0  0  0  0  0  0  0
    0.5636    1.7341   -2.1106 H   0  0  0  0  0  0  0  0  0  0  0  0
   -0.2016    0.0501    1.8353 H   0  0  0  0  0  0  0  0  0  0  0  0
    0.6048    1.6913    1.4855 H   0  0  0  0  0  0  0  0  0  0  0  0
    2.5906    0.4042    0.6029 H   0  0  0  0  0  0  0  0  0  0  0  0
    0.6821   -2.0413    1.1815 H   0  0  0  0  0  0  0  0  0  0  0  0
    2.2601   -2.1696    0.2413 H   0  0  0  0  0  0  0  0  0  0  0  0
    1.5628   -0.5063   -1.4701 H   0  0  0  0  0  0  0  0  0  0  0  0
  1  2  1  0
  2  3  1  0
  3  4  1  0
  4  5  2  0
  3  6  1  0
  6  7  1  0
  7  8  1  0
  8  9  1  0
  9  3  1  0
  9  7  1  0
  1 10  1  0
  1 11  1  0
  1 12  1  0
  2 13  1  0
  2 14  1  0
  4 15  1  0
  6 16  1  0
  6 17  1  0
  7 18  1  0
  8 19  1  0
  8 20  1  0
  9 21  1  0
M  END
